
     RDKit          3D

 56 60  0  0  0  0  0  0  0  0999 V2000
  136.8990   72.6940  221.1880 O   0  0  0  0  0  0  0  0  0  0  0  0
  138.0740   72.8670  221.5930 C   0  0  0  0  0  0  0  0  0  0  0  0
  138.8610   73.9230  220.9000 C   0  0  0  0  0  0  0  0  0  0  0  0
  140.2490   73.9890  221.4350 C   0  0  0  0  0  0  0  0  0  0  0  0
  141.1920   74.9390  220.8410 C   0  0  0  0  0  0  0  0  0  0  0  0
  142.3360   74.4760  220.2390 C   0  0  0  0  0  0  0  0  0  0  0  0
  143.2490   75.3970  219.6970 C   0  0  0  0  0  0  0  0  0  0  0  0
  142.9730   76.7640  219.7840 C   0  0  0  0  0  0  0  0  0  0  0  0
  141.8270   77.2390  220.3870 C   0  0  0  0  0  0  0  0  0  0  0  0
  141.6000   78.6570  220.5100 C   0  0  0  0  0  0  0  0  0  0  0  0
  141.1760   79.2470  219.4450 O   0  0  0  0  0  0  0  0  0  0  0  0
  141.7770   79.4780  221.6240 N   0  0  0  0  0  0  0  0  0  0  0  0
  141.4710   80.9070  221.4620 C   0  0  0  0  0  0  0  0  0  0  0  0
  140.5850   81.3910  222.5570 C   0  0  0  0  0  0  0  0  0  0  0  0
  140.8520   80.8240  223.7980 O   0  0  0  0  0  0  0  0  0  0  0  0
  142.1410   80.2880  223.8500 C   0  0  0  0  0  0  0  0  0  0  0  0
  142.2320   79.0610  222.9330 C   0  0  0  0  0  0  0  0  0  0  0  0
  140.9490   76.2940  220.9110 C   0  0  0  0  0  0  0  0  0  0  0  0
  140.6930   73.2550  222.3890 N   0  0  0  0  0  0  0  0  0  0  0  0
  139.9440   72.2640  223.0840 C   0  0  0  0  0  0  0  0  0  0  0  0
  140.5000   71.5360  224.1250 C   0  0  0  0  0  0  0  0  0  0  0  0
  139.6950   70.6150  224.7470 C   0  0  0  0  0  0  0  0  0  0  0  0
  140.2230   69.8740  225.8510 N   0  0  0  0  0  0  0  0  0  0  0  0
  140.9310   70.6140  226.8740 C   0  0  0  0  0  0  0  0  0  0  0  0
  140.9190   69.9430  228.2260 C   0  0  0  0  0  0  0  0  0  0  0  0
  140.2620   68.7360  228.2220 O   0  0  0  0  0  0  0  0  0  0  0  0
  140.7030   67.9100  227.1950 C   0  0  0  0  0  0  0  0  0  0  0  0
  140.0530   68.4340  225.9350 C   0  0  0  0  0  0  0  0  0  0  0  0
  138.3860   70.3720  224.4040 C   0  0  0  0  0  0  0  0  0  0  0  0
  137.8670   71.1170  223.3630 C   0  0  0  0  0  0  0  0  0  0  0  0
  138.6280   72.0740  222.6850 C   0  0  0  0  0  0  0  0  0  0  0  0
  138.9001   73.6955  219.8245 H   0  0  0  0  0  0  0  0  0  0  0  0
  138.3724   74.8938  221.0700 H   0  0  0  0  0  0  0  0  0  0  0  0
  142.5358   73.3958  220.1815 H   0  0  0  0  0  0  0  0  0  0  0  0
  144.1705   75.0456  219.2098 H   0  0  0  0  0  0  0  0  0  0  0  0
  143.6902   77.4819  219.3594 H   0  0  0  0  0  0  0  0  0  0  0  0
  142.4098   81.4800  221.4792 H   0  0  0  0  0  0  0  0  0  0  0  0
  140.9511   81.0473  220.5029 H   0  0  0  0  0  0  0  0  0  0  0  0
  140.7059   82.4810  222.6424 H   0  0  0  0  0  0  0  0  0  0  0  0
  139.5599   81.0960  222.2883 H   0  0  0  0  0  0  0  0  0  0  0  0
  142.8653   81.0464  223.5180 H   0  0  0  0  0  0  0  0  0  0  0  0
  142.3671   79.9863  224.8834 H   0  0  0  0  0  0  0  0  0  0  0  0
  143.2721   78.7074  222.8767 H   0  0  0  0  0  0  0  0  0  0  0  0
  141.6159   78.2354  223.3188 H   0  0  0  0  0  0  0  0  0  0  0  0
  140.0267   76.6418  221.3992 H   0  0  0  0  0  0  0  0  0  0  0  0
  141.5428   71.6903  224.4391 H   0  0  0  0  0  0  0  0  0  0  0  0
  141.9769   70.7338  226.5550 H   0  0  0  0  0  0  0  0  0  0  0  0
  140.4143   71.5783  226.9890 H   0  0  0  0  0  0  0  0  0  0  0  0
  141.9589   69.7747  228.5427 H   0  0  0  0  0  0  0  0  0  0  0  0
  140.3807   70.6076  228.9177 H   0  0  0  0  0  0  0  0  0  0  0  0
  141.7986   67.9579  227.1089 H   0  0  0  0  0  0  0  0  0  0  0  0
  140.4375   66.8586  227.3796 H   0  0  0  0  0  0  0  0  0  0  0  0
  140.5208   67.9601  225.0595 H   0  0  0  0  0  0  0  0  0  0  0  0
  138.9789   68.1976  225.9573 H   0  0  0  0  0  0  0  0  0  0  0  0
  137.7812   69.6207  224.9330 H   0  0  0  0  0  0  0  0  0  0  0  0
  136.8230   70.9523  223.0581 H   0  0  0  0  0  0  0  0  0  0  0  0
  1  2  2  0
  2  3  1  0
  3  4  1  0
  4  5  1  0
  5  6  2  0
  6  7  1  0
  7  8  2  0
  8  9  1  0
  9 10  1  0
 10 11  2  0
 10 12  1  0
 12 13  1  0
 13 14  1  0
 14 15  1  0
 15 16  1  0
 16 17  1  0
  9 18  2  0
  4 19  2  0
 19 20  1  0
 20 21  2  0
 21 22  1  0
 22 23  1  0
 23 24  1  0
 24 25  1  0
 25 26  1  0
 26 27  1  0
 27 28  1  0
 22 29  2  0
 29 30  1  0
 30 31  2  0
 31  2  1  0
 18  5  1  0
 31 20  1  0
 17 12  1  0
 28 23  1  0
  3 32  1  0
  3 33  1  0
  6 34  1  0
  7 35  1  0
  8 36  1  0
 13 37  1  0
 13 38  1  0
 14 39  1  0
 14 40  1  0
 16 41  1  0
 16 42  1  0
 17 43  1  0
 17 44  1  0
 18 45  1  0
 21 46  1  0
 24 47  1  0
 24 48  1  0
 25 49  1  0
 25 50  1  0
 27 51  1  0
 27 52  1  0
 28 53  1  0
 28 54  1  0
 29 55  1  0
 30 56  1  0
M  END
>  <smiles>  (1) 
O=C1CC(c2cccc(C(=O)N3CCOCC3)c2)=Nc2cc(N3CCOCC3)ccc21

>  <score_type>  (1) 
oracle

>  <origin>  (1) 
autodockgpu

>  <m_score__min__energy>  (1) 
-8.6899999999999995

>  <m_primary>  (1) 
energy

>  <rmsd>  (1) 
7.350835191218618

>  <m_score__min__rmsd>  (1) 
7.350835191218618

>  <meeko>  (1) 
{"free_energy": -8.68, "intermolecular_energy": -9.57, "internal_energy": -0.92, "cluster_size": 48, "cluster_id": 1, "rank_in_cluster": 19}

>  <energy>  (1) 
-8.69

>  <cluster_rmsd>  (1) 
0.0

>  <cluster>  (1) 
1

$$$$

     RDKit          3D

 56 60  0  0  0  0  0  0  0  0999 V2000
  136.8720   72.8470  221.2640 O   0  0  0  0  0  0  0  0  0  0  0  0
  138.0630   72.9740  221.6390 C   0  0  0  0  0  0  0  0  0  0  0  0
  138.8630   74.0200  220.9460 C   0  0  0  0  0  0  0  0  0  0  0  0
  140.2670   74.0310  221.4420 C   0  0  0  0  0  0  0  0  0  0  0  0
  141.2220   74.9640  220.8410 C   0  0  0  0  0  0  0  0  0  0  0  0
  142.3900   74.4880  220.3000 C   0  0  0  0  0  0  0  0  0  0  0  0
  143.3150   75.3930  219.7510 C   0  0  0  0  0  0  0  0  0  0  0  0
  143.0240   76.7600  219.7690 C   0  0  0  0  0  0  0  0  0  0  0  0
  141.8540   77.2490  220.3110 C   0  0  0  0  0  0  0  0  0  0  0  0
  141.6110   78.6690  220.3650 C   0  0  0  0  0  0  0  0  0  0  0  0
  141.1110   79.1880  219.2960 O   0  0  0  0  0  0  0  0  0  0  0  0
  141.8430   79.5570  221.4140 N   0  0  0  0  0  0  0  0  0  0  0  0
  141.5030   80.9700  221.1880 C   0  0  0  0  0  0  0  0  0  0  0  0
  140.6800   81.5060  222.3070 C   0  0  0  0  0  0  0  0  0  0  0  0
  141.0350   81.0180  223.5600 O   0  0  0  0  0  0  0  0  0  0  0  0
  142.3340   80.5040  223.5610 C   0  0  0  0  0  0  0  0  0  0  0  0
  142.3880   79.2250  222.7140 C   0  0  0  0  0  0  0  0  0  0  0  0
  140.9650   76.3190  220.8430 C   0  0  0  0  0  0  0  0  0  0  0  0
  140.7130   73.2640  222.3670 N   0  0  0  0  0  0  0  0  0  0  0  0
  139.9540   72.2820  223.0630 C   0  0  0  0  0  0  0  0  0  0  0  0
  140.5140   71.5150  224.0720 C   0  0  0  0  0  0  0  0  0  0  0  0
  139.6990   70.6060  224.6980 C   0  0  0  0  0  0  0  0  0  0  0  0
  140.2330   69.8250  225.7710 N   0  0  0  0  0  0  0  0  0  0  0  0
  140.9870   70.5220  226.7920 C   0  0  0  0  0  0  0  0  0  0  0  0
  140.9900   69.8200  228.1280 C   0  0  0  0  0  0  0  0  0  0  0  0
  140.3000   68.6310  228.1140 O   0  0  0  0  0  0  0  0  0  0  0  0
  140.6930   67.8180  227.0570 C   0  0  0  0  0  0  0  0  0  0  0  0
  140.0260   68.3880  225.8270 C   0  0  0  0  0  0  0  0  0  0  0  0
  138.3730   70.4110  224.3870 C   0  0  0  0  0  0  0  0  0  0  0  0
  137.8490   71.1940  223.3770 C   0  0  0  0  0  0  0  0  0  0  0  0
  138.6210   72.1410  222.6980 C   0  0  0  0  0  0  0  0  0  0  0  0
  138.8645   73.8151  219.8652 H   0  0  0  0  0  0  0  0  0  0  0  0
  138.4104   75.0015  221.1505 H   0  0  0  0  0  0  0  0  0  0  0  0
  142.6004   73.4083  220.2960 H   0  0  0  0  0  0  0  0  0  0  0  0
  144.2563   75.0298  219.3126 H   0  0  0  0  0  0  0  0  0  0  0  0
  143.7492   77.4662  219.3384 H   0  0  0  0  0  0  0  0  0  0  0  0
  142.4310   81.5555  221.1114 H   0  0  0  0  0  0  0  0  0  0  0  0
  140.9215   81.0462  220.2574 H   0  0  0  0  0  0  0  0  0  0  0  0
  140.7867   82.6007  222.3202 H   0  0  0  0  0  0  0  0  0  0  0  0
  139.6454   81.1810  222.1225 H   0  0  0  0  0  0  0  0  0  0  0  0
  143.0225   81.2508  223.1389 H   0  0  0  0  0  0  0  0  0  0  0  0
  142.6304   80.2683  224.5938 H   0  0  0  0  0  0  0  0  0  0  0  0
  143.4284   78.8829  222.6117 H   0  0  0  0  0  0  0  0  0  0  0  0
  141.8124   78.4155  223.1868 H   0  0  0  0  0  0  0  0  0  0  0  0
  140.0223   76.6784  221.2814 H   0  0  0  0  0  0  0  0  0  0  0  0
  141.5695   71.6303  224.3595 H   0  0  0  0  0  0  0  0  0  0  0  0
  142.0275   70.6207  226.4490 H   0  0  0  0  0  0  0  0  0  0  0  0
  140.5007   71.4972  226.9419 H   0  0  0  0  0  0  0  0  0  0  0  0
  142.0324   69.6165  228.4142 H   0  0  0  0  0  0  0  0  0  0  0  0
  140.4872   70.4826  228.8478 H   0  0  0  0  0  0  0  0  0  0  0  0
  141.7869   67.8394  226.9439 H   0  0  0  0  0  0  0  0  0  0  0  0
  140.4043   66.7698  227.2243 H   0  0  0  0  0  0  0  0  0  0  0  0
  140.4584   67.9223  224.9291 H   0  0  0  0  0  0  0  0  0  0  0  0
  138.9468   68.1799  225.8719 H   0  0  0  0  0  0  0  0  0  0  0  0
  137.7598   69.6674  224.9171 H   0  0  0  0  0  0  0  0  0  0  0  0
  136.7922   71.0685  223.0986 H   0  0  0  0  0  0  0  0  0  0  0  0
  1  2  2  0
  2  3  1  0
  3  4  1  0
  4  5  1  0
  5  6  2  0
  6  7  1  0
  7  8  2  0
  8  9  1  0
  9 10  1  0
 10 11  2  0
 10 12  1  0
 12 13  1  0
 13 14  1  0
 14 15  1  0
 15 16  1  0
 16 17  1  0
  9 18  2  0
  4 19  2  0
 19 20  1  0
 20 21  2  0
 21 22  1  0
 22 23  1  0
 23 24  1  0
 24 25  1  0
 25 26  1  0
 26 27  1  0
 27 28  1  0
 22 29  2  0
 29 30  1  0
 30 31  2  0
 31  2  1  0
 18  5  1  0
 31 20  1  0
 17 12  1  0
 28 23  1  0
  3 32  1  0
  3 33  1  0
  6 34  1  0
  7 35  1  0
  8 36  1  0
 13 37  1  0
 13 38  1  0
 14 39  1  0
 14 40  1  0
 16 41  1  0
 16 42  1  0
 17 43  1  0
 17 44  1  0
 18 45  1  0
 21 46  1  0
 24 47  1  0
 24 48  1  0
 25 49  1  0
 25 50  1  0
 27 51  1  0
 27 52  1  0
 28 53  1  0
 28 54  1  0
 29 55  1  0
 30 56  1  0
M  END
>  <smiles>  (2) 
O=C1CC(c2cccc(C(=O)N3CCOCC3)c2)=Nc2cc(N3CCOCC3)ccc21

>  <score_type>  (2) 
oracle

>  <origin>  (2) 
autodockgpu

>  <m_score__min__energy>  (2) 
-8.6899999999999995

>  <m_primary>  (2) 
energy

>  <rmsd>  (2) 
7.383579234334496

>  <m_score__min__rmsd>  (2) 
7.383579234334496

>  <meeko>  (2) 
{"free_energy": -8.66, "intermolecular_energy": -9.56, "internal_energy": -0.91, "cluster_size": 48, "cluster_id": 1, "rank_in_cluster": 34}

>  <energy>  (2) 
-8.69

>  <cluster_rmsd>  (2) 
0.05

>  <cluster>  (2) 
1

$$$$

     RDKit          3D

 56 60  0  0  0  0  0  0  0  0999 V2000
  136.9190   72.6770  221.1720 O   0  0  0  0  0  0  0  0  0  0  0  0
  138.0910   72.8580  221.5810 C   0  0  0  0  0  0  0  0  0  0  0  0
  138.8720   73.9230  220.8930 C   0  0  0  0  0  0  0  0  0  0  0  0
  140.2580   73.9980  221.4320 C   0  0  0  0  0  0  0  0  0  0  0  0
  141.1950   74.9570  220.8440 C   0  0  0  0  0  0  0  0  0  0  0  0
  142.3570   74.5080  220.2670 C   0  0  0  0  0  0  0  0  0  0  0  0
  143.2640   75.4380  219.7310 C   0  0  0  0  0  0  0  0  0  0  0  0
  142.9620   76.8010  219.7970 C   0  0  0  0  0  0  0  0  0  0  0  0
  141.7980   77.2640  220.3750 C   0  0  0  0  0  0  0  0  0  0  0  0
  141.5450   78.6780  220.4780 C   0  0  0  0  0  0  0  0  0  0  0  0
  140.9390   79.2090  219.4710 O   0  0  0  0  0  0  0  0  0  0  0  0
  141.8660   79.5510  221.5160 N   0  0  0  0  0  0  0  0  0  0  0  0
  141.4890   80.9630  221.3500 C   0  0  0  0  0  0  0  0  0  0  0  0
  140.7700   81.4690  222.5520 C   0  0  0  0  0  0  0  0  0  0  0  0
  141.2480   80.9640  223.7560 O   0  0  0  0  0  0  0  0  0  0  0  0
  142.5470   80.4680  223.6240 C   0  0  0  0  0  0  0  0  0  0  0  0
  142.5350   79.2050  222.7520 C   0  0  0  0  0  0  0  0  0  0  0  0
  140.9270   76.3090  220.8940 C   0  0  0  0  0  0  0  0  0  0  0  0
  140.7040   73.2650  222.3850 N   0  0  0  0  0  0  0  0  0  0  0  0
  139.9620   72.2660  223.0760 C   0  0  0  0  0  0  0  0  0  0  0  0
  140.5200   71.5400  224.1160 C   0  0  0  0  0  0  0  0  0  0  0  0
  139.7210   70.6100  224.7330 C   0  0  0  0  0  0  0  0  0  0  0  0
  140.2510   69.8700  225.8360 N   0  0  0  0  0  0  0  0  0  0  0  0
  141.0020   70.6050  226.8340 C   0  0  0  0  0  0  0  0  0  0  0  0
  140.9990   69.9530  228.1950 C   0  0  0  0  0  0  0  0  0  0  0  0
  140.3100   68.7650  228.2230 O   0  0  0  0  0  0  0  0  0  0  0  0
  140.7060   67.9120  227.1990 C   0  0  0  0  0  0  0  0  0  0  0  0
  140.0440   68.4370  225.9450 C   0  0  0  0  0  0  0  0  0  0  0  0
  138.4150   70.3580  224.3850 C   0  0  0  0  0  0  0  0  0  0  0  0
  137.8930   71.1010  223.3450 C   0  0  0  0  0  0  0  0  0  0  0  0
  138.6480   72.0660  222.6720 C   0  0  0  0  0  0  0  0  0  0  0  0
  138.9157   73.6993  219.8169 H   0  0  0  0  0  0  0  0  0  0  0  0
  138.3754   74.8894  221.0648 H   0  0  0  0  0  0  0  0  0  0  0  0
  142.5759   73.4308  220.2246 H   0  0  0  0  0  0  0  0  0  0  0  0
  144.2004   75.0973  219.2651 H   0  0  0  0  0  0  0  0  0  0  0  0
  143.6736   77.5262  219.3755 H   0  0  0  0  0  0  0  0  0  0  0  0
  142.3985   81.5623  221.1962 H   0  0  0  0  0  0  0  0  0  0  0  0
  140.8201   81.0470  220.4808 H   0  0  0  0  0  0  0  0  0  0  0  0
  140.8652   82.5646  222.5753 H   0  0  0  0  0  0  0  0  0  0  0  0
  139.7262   81.1341  222.4606 H   0  0  0  0  0  0  0  0  0  0  0  0
  143.1832   81.2314  223.1524 H   0  0  0  0  0  0  0  0  0  0  0  0
  142.9434   80.2185  224.6193 H   0  0  0  0  0  0  0  0  0  0  0  0
  143.5650   78.8786  222.5456 H   0  0  0  0  0  0  0  0  0  0  0  0
  142.0156   78.3804  223.2622 H   0  0  0  0  0  0  0  0  0  0  0  0
  139.9900   76.6458  221.3614 H   0  0  0  0  0  0  0  0  0  0  0  0
  141.5604   71.7023  224.4340 H   0  0  0  0  0  0  0  0  0  0  0  0
  142.0439   70.6904  226.4918 H   0  0  0  0  0  0  0  0  0  0  0  0
  140.5160   71.5855  226.9454 H   0  0  0  0  0  0  0  0  0  0  0  0
  142.0402   69.7607  228.4931 H   0  0  0  0  0  0  0  0  0  0  0  0
  140.4923   70.6418  228.8870 H   0  0  0  0  0  0  0  0  0  0  0  0
  141.8004   67.9276  227.0894 H   0  0  0  0  0  0  0  0  0  0  0  0
  140.4153   66.8712  227.4044 H   0  0  0  0  0  0  0  0  0  0  0  0
  140.4801   67.9382  225.0669 H   0  0  0  0  0  0  0  0  0  0  0  0
  138.9645   68.2311  225.9937 H   0  0  0  0  0  0  0  0  0  0  0  0
  137.8146   69.6005  224.9101 H   0  0  0  0  0  0  0  0  0  0  0  0
  136.8513   70.9284  223.0366 H   0  0  0  0  0  0  0  0  0  0  0  0
  1  2  2  0
  2  3  1  0
  3  4  1  0
  4  5  1  0
  5  6  2  0
  6  7  1  0
  7  8  2  0
  8  9  1  0
  9 10  1  0
 10 11  2  0
 10 12  1  0
 12 13  1  0
 13 14  1  0
 14 15  1  0
 15 16  1  0
 16 17  1  0
  9 18  2  0
  4 19  2  0
 19 20  1  0
 20 21  2  0
 21 22  1  0
 22 23  1  0
 23 24  1  0
 24 25  1  0
 25 26  1  0
 26 27  1  0
 27 28  1  0
 22 29  2  0
 29 30  1  0
 30 31  2  0
 31  2  1  0
 18  5  1  0
 31 20  1  0
 17 12  1  0
 28 23  1  0
  3 32  1  0
  3 33  1  0
  6 34  1  0
  7 35  1  0
  8 36  1  0
 13 37  1  0
 13 38  1  0
 14 39  1  0
 14 40  1  0
 16 41  1  0
 16 42  1  0
 17 43  1  0
 17 44  1  0
 18 45  1  0
 21 46  1  0
 24 47  1  0
 24 48  1  0
 25 49  1  0
 25 50  1  0
 27 51  1  0
 27 52  1  0
 28 53  1  0
 28 54  1  0
 29 55  1  0
 30 56  1  0
M  END
>  <smiles>  (3) 
O=C1CC(c2cccc(C(=O)N3CCOCC3)c2)=Nc2cc(N3CCOCC3)ccc21

>  <score_type>  (3) 
oracle

>  <origin>  (3) 
autodockgpu

>  <m_score__min__energy>  (3) 
-8.6899999999999995

>  <m_primary>  (3) 
energy

>  <rmsd>  (3) 
7.361893438926667

>  <m_score__min__rmsd>  (3) 
7.361893438926667

>  <meeko>  (3) 
{"free_energy": -8.68, "intermolecular_energy": -9.58, "internal_energy": -0.91, "cluster_size": 48, "cluster_id": 1, "rank_in_cluster": 6}

>  <energy>  (3) 
-8.69

>  <cluster_rmsd>  (3) 
0.04

>  <cluster>  (3) 
1

$$$$

     RDKit          3D

 56 60  0  0  0  0  0  0  0  0999 V2000
  136.9090   72.7720  221.2050 O   0  0  0  0  0  0  0  0  0  0  0  0
  138.0920   72.9240  221.5930 C   0  0  0  0  0  0  0  0  0  0  0  0
  138.8790   73.9850  220.9070 C   0  0  0  0  0  0  0  0  0  0  0  0
  140.2770   74.0250  221.4180 C   0  0  0  0  0  0  0  0  0  0  0  0
  141.2200   74.9760  220.8270 C   0  0  0  0  0  0  0  0  0  0  0  0
  142.3820   74.5180  220.2560 C   0  0  0  0  0  0  0  0  0  0  0  0
  143.2940   75.4410  219.7170 C   0  0  0  0  0  0  0  0  0  0  0  0
  142.9990   76.8050  219.7740 C   0  0  0  0  0  0  0  0  0  0  0  0
  141.8360   77.2770  220.3460 C   0  0  0  0  0  0  0  0  0  0  0  0
  141.5880   78.6930  220.4390 C   0  0  0  0  0  0  0  0  0  0  0  0
  141.0000   79.2230  219.4220 O   0  0  0  0  0  0  0  0  0  0  0  0
  141.8990   79.5690  221.4790 N   0  0  0  0  0  0  0  0  0  0  0  0
  141.5330   80.9820  221.3020 C   0  0  0  0  0  0  0  0  0  0  0  0
  140.8000   81.4970  222.4910 C   0  0  0  0  0  0  0  0  0  0  0  0
  141.2580   80.9940  223.7050 O   0  0  0  0  0  0  0  0  0  0  0  0
  142.5560   80.4900  223.5920 C   0  0  0  0  0  0  0  0  0  0  0  0
  142.5500   79.2230  222.7260 C   0  0  0  0  0  0  0  0  0  0  0  0
  140.9580   76.3290  220.8680 C   0  0  0  0  0  0  0  0  0  0  0  0
  140.7290   73.2660  222.3490 N   0  0  0  0  0  0  0  0  0  0  0  0
  139.9820   72.2700  223.0370 C   0  0  0  0  0  0  0  0  0  0  0  0
  140.5470   71.5140  224.0520 C   0  0  0  0  0  0  0  0  0  0  0  0
  139.7440   70.5890  224.6700 C   0  0  0  0  0  0  0  0  0  0  0  0
  140.2820   69.8190  225.7480 N   0  0  0  0  0  0  0  0  0  0  0  0
  141.0420   70.5270  226.7590 C   0  0  0  0  0  0  0  0  0  0  0  0
  141.0500   69.8390  228.1020 C   0  0  0  0  0  0  0  0  0  0  0  0
  140.3590   68.6510  228.1040 O   0  0  0  0  0  0  0  0  0  0  0  0
  140.7450   67.8260  227.0540 C   0  0  0  0  0  0  0  0  0  0  0  0
  140.0740   68.3840  225.8210 C   0  0  0  0  0  0  0  0  0  0  0  0
  138.4260   70.3680  224.3450 C   0  0  0  0  0  0  0  0  0  0  0  0
  137.8970   71.1400  223.3290 C   0  0  0  0  0  0  0  0  0  0  0  0
  138.6560   72.1020  222.6580 C   0  0  0  0  0  0  0  0  0  0  0  0
  138.8964   73.7787  219.8267 H   0  0  0  0  0  0  0  0  0  0  0  0
  138.4048   74.9575  221.1053 H   0  0  0  0  0  0  0  0  0  0  0  0
  142.5965   73.4397  220.2210 H   0  0  0  0  0  0  0  0  0  0  0  0
  144.2299   75.0932  219.2553 H   0  0  0  0  0  0  0  0  0  0  0  0
  143.7154   77.5241  219.3502 H   0  0  0  0  0  0  0  0  0  0  0  0
  142.4482   81.5753  221.1590 H   0  0  0  0  0  0  0  0  0  0  0  0
  140.8773   81.0664  220.4228 H   0  0  0  0  0  0  0  0  0  0  0  0
  140.9012   82.5922  222.5111 H   0  0  0  0  0  0  0  0  0  0  0  0
  139.7558   81.1676  222.3859 H   0  0  0  0  0  0  0  0  0  0  0  0
  143.2023   81.2479  223.1253 H   0  0  0  0  0  0  0  0  0  0  0  0
  142.9372   80.2426  224.5937 H   0  0  0  0  0  0  0  0  0  0  0  0
  143.5810   78.8904  222.5350 H   0  0  0  0  0  0  0  0  0  0  0  0
  142.0205   78.4024  223.2323 H   0  0  0  0  0  0  0  0  0  0  0  0
  140.0209   76.6730  221.3300 H   0  0  0  0  0  0  0  0  0  0  0  0
  141.5970   71.6502  224.3501 H   0  0  0  0  0  0  0  0  0  0  0  0
  142.0811   70.6210  226.4104 H   0  0  0  0  0  0  0  0  0  0  0  0
  140.5577   71.5045  226.9006 H   0  0  0  0  0  0  0  0  0  0  0  0
  142.0935   69.6374  228.3857 H   0  0  0  0  0  0  0  0  0  0  0  0
  140.5507   70.5097  228.8168 H   0  0  0  0  0  0  0  0  0  0  0  0
  141.8385   67.8435  226.9357 H   0  0  0  0  0  0  0  0  0  0  0  0
  140.4543   66.7805  227.2339 H   0  0  0  0  0  0  0  0  0  0  0  0
  140.5022   67.9080  224.9265 H   0  0  0  0  0  0  0  0  0  0  0  0
  138.9947   68.1781  225.8732 H   0  0  0  0  0  0  0  0  0  0  0  0
  137.8220   69.6126  224.8691 H   0  0  0  0  0  0  0  0  0  0  0  0
  136.8461   70.9928  223.0394 H   0  0  0  0  0  0  0  0  0  0  0  0
  1  2  2  0
  2  3  1  0
  3  4  1  0
  4  5  1  0
  5  6  2  0
  6  7  1  0
  7  8  2  0
  8  9  1  0
  9 10  1  0
 10 11  2  0
 10 12  1  0
 12 13  1  0
 13 14  1  0
 14 15  1  0
 15 16  1  0
 16 17  1  0
  9 18  2  0
  4 19  2  0
 19 20  1  0
 20 21  2  0
 21 22  1  0
 22 23  1  0
 23 24  1  0
 24 25  1  0
 25 26  1  0
 26 27  1  0
 27 28  1  0
 22 29  2  0
 29 30  1  0
 30 31  2  0
 31  2  1  0
 18  5  1  0
 31 20  1  0
 17 12  1  0
 28 23  1  0
  3 32  1  0
  3 33  1  0
  6 34  1  0
  7 35  1  0
  8 36  1  0
 13 37  1  0
 13 38  1  0
 14 39  1  0
 14 40  1  0
 16 41  1  0
 16 42  1  0
 17 43  1  0
 17 44  1  0
 18 45  1  0
 21 46  1  0
 24 47  1  0
 24 48  1  0
 25 49  1  0
 25 50  1  0
 27 51  1  0
 27 52  1  0
 28 53  1  0
 28 54  1  0
 29 55  1  0
 30 56  1  0
M  END
>  <smiles>  (4) 
O=C1CC(c2cccc(C(=O)N3CCOCC3)c2)=Nc2cc(N3CCOCC3)ccc21

>  <score_type>  (4) 
oracle

>  <origin>  (4) 
autodockgpu

>  <m_score__min__energy>  (4) 
-8.6899999999999995

>  <m_primary>  (4) 
energy

>  <rmsd>  (4) 
7.391134305849093

>  <m_score__min__rmsd>  (4) 
7.391134305849093

>  <meeko>  (4) 
{"free_energy": -8.67, "intermolecular_energy": -9.57, "internal_energy": -0.91, "cluster_size": 48, "cluster_id": 1, "rank_in_cluster": 33}

>  <energy>  (4) 
-8.68

>  <cluster_rmsd>  (4) 
0.06

>  <cluster>  (4) 
1

$$$$

     RDKit          3D

 56 60  0  0  0  0  0  0  0  0999 V2000
  141.7120   74.3640  218.1780 O   0  0  0  0  0  0  0  0  0  0  0  0
  141.3470   74.5250  219.3680 C   0  0  0  0  0  0  0  0  0  0  0  0
  140.8130   73.3210  220.0610 C   0  0  0  0  0  0  0  0  0  0  0  0
  140.3650   73.6570  221.4410 C   0  0  0  0  0  0  0  0  0  0  0  0
  139.7620   72.6080  222.2650 C   0  0  0  0  0  0  0  0  0  0  0  0
  138.6130   71.9860  221.8420 C   0  0  0  0  0  0  0  0  0  0  0  0
  138.0250   71.0000  222.6520 C   0  0  0  0  0  0  0  0  0  0  0  0
  138.6230   70.6740  223.8730 C   0  0  0  0  0  0  0  0  0  0  0  0
  139.7760   71.2940  224.3080 C   0  0  0  0  0  0  0  0  0  0  0  0
  140.3360   70.9750  225.5970 C   0  0  0  0  0  0  0  0  0  0  0  0
  140.8080   71.9730  226.2610 O   0  0  0  0  0  0  0  0  0  0  0  0
  140.4360   69.7330  226.2240 N   0  0  0  0  0  0  0  0  0  0  0  0
  141.0670   69.6980  227.5520 C   0  0  0  0  0  0  0  0  0  0  0  0
  140.2260   68.9450  228.5230 C   0  0  0  0  0  0  0  0  0  0  0  0
  139.5770   67.8410  227.9790 O   0  0  0  0  0  0  0  0  0  0  0  0
  140.1910   67.4190  226.7970 C   0  0  0  0  0  0  0  0  0  0  0  0
  139.9770   68.4660  225.6960 C   0  0  0  0  0  0  0  0  0  0  0  0
  140.3270   72.2640  223.4740 C   0  0  0  0  0  0  0  0  0  0  0  0
  140.4610   74.8220  221.9700 N   0  0  0  0  0  0  0  0  0  0  0  0
  141.0000   75.9750  221.3330 C   0  0  0  0  0  0  0  0  0  0  0  0
  141.0910   77.1900  221.9930 C   0  0  0  0  0  0  0  0  0  0  0  0
  141.6410   78.2410  221.3040 C   0  0  0  0  0  0  0  0  0  0  0  0
  141.7870   79.5000  221.9670 N   0  0  0  0  0  0  0  0  0  0  0  0
  141.4900   80.6950  221.2040 C   0  0  0  0  0  0  0  0  0  0  0  0
  141.0740   81.8690  222.0550 C   0  0  0  0  0  0  0  0  0  0  0  0
  141.0850   81.5920  223.4010 O   0  0  0  0  0  0  0  0  0  0  0  0
  142.2850   81.0140  223.7990 C   0  0  0  0  0  0  0  0  0  0  0  0
  142.2180   79.5710  223.3520 C   0  0  0  0  0  0  0  0  0  0  0  0
  142.1020   78.1630  220.0100 C   0  0  0  0  0  0  0  0  0  0  0  0
  141.9960   76.9370  219.3850 C   0  0  0  0  0  0  0  0  0  0  0  0
  141.4480   75.8220  220.0270 C   0  0  0  0  0  0  0  0  0  0  0  0
  139.9588   72.9266  219.4911 H   0  0  0  0  0  0  0  0  0  0  0  0
  141.6128   72.5685  220.1246 H   0  0  0  0  0  0  0  0  0  0  0  0
  138.1574   72.2572  220.8782 H   0  0  0  0  0  0  0  0  0  0  0  0
  137.1050   70.4906  222.3293 H   0  0  0  0  0  0  0  0  0  0  0  0
  138.1609   69.9011  224.5048 H   0  0  0  0  0  0  0  0  0  0  0  0
  142.0487   69.2083  227.4710 H   0  0  0  0  0  0  0  0  0  0  0  0
  141.1800   70.7307  227.9135 H   0  0  0  0  0  0  0  0  0  0  0  0
  140.8726   68.5963  229.3417 H   0  0  0  0  0  0  0  0  0  0  0  0
  139.4415   69.6363  228.8646 H   0  0  0  0  0  0  0  0  0  0  0  0
  141.2691   67.2888  226.9722 H   0  0  0  0  0  0  0  0  0  0  0  0
  139.7483   66.4634  226.4796 H   0  0  0  0  0  0  0  0  0  0  0  0
  140.5569   68.1971  224.8008 H   0  0  0  0  0  0  0  0  0  0  0  0
  138.9172   68.5214  225.4067 H   0  0  0  0  0  0  0  0  0  0  0  0
  141.2478   72.7747  223.7923 H   0  0  0  0  0  0  0  0  0  0  0  0
  140.7365   77.3070  223.0277 H   0  0  0  0  0  0  0  0  0  0  0  0
  142.3894   80.9780  220.6374 H   0  0  0  0  0  0  0  0  0  0  0  0
  140.6398   80.4553  220.5485 H   0  0  0  0  0  0  0  0  0  0  0  0
  141.7662   82.7023  221.8637 H   0  0  0  0  0  0  0  0  0  0  0  0
  140.0389   82.1210  221.7813 H   0  0  0  0  0  0  0  0  0  0  0  0
  143.1332   81.5242  223.3192 H   0  0  0  0  0  0  0  0  0  0  0  0
  142.4307   81.0937  224.8864 H   0  0  0  0  0  0  0  0  0  0  0  0
  143.2137   79.1133  223.4477 H   0  0  0  0  0  0  0  0  0  0  0  0
  141.4970   79.0305  223.9829 H   0  0  0  0  0  0  0  0  0  0  0  0
  142.5342   79.0356  219.4983 H   0  0  0  0  0  0  0  0  0  0  0  0
  142.3536   76.8337  218.3499 H   0  0  0  0  0  0  0  0  0  0  0  0
  1  2  2  0
  2  3  1  0
  3  4  1  0
  4  5  1  0
  5  6  2  0
  6  7  1  0
  7  8  2  0
  8  9  1  0
  9 10  1  0
 10 11  2  0
 10 12  1  0
 12 13  1  0
 13 14  1  0
 14 15  1  0
 15 16  1  0
 16 17  1  0
  9 18  2  0
  4 19  2  0
 19 20  1  0
 20 21  2  0
 21 22  1  0
 22 23  1  0
 23 24  1  0
 24 25  1  0
 25 26  1  0
 26 27  1  0
 27 28  1  0
 22 29  2  0
 29 30  1  0
 30 31  2  0
 31  2  1  0
 18  5  1  0
 31 20  1  0
 17 12  1  0
 28 23  1  0
  3 32  1  0
  3 33  1  0
  6 34  1  0
  7 35  1  0
  8 36  1  0
 13 37  1  0
 13 38  1  0
 14 39  1  0
 14 40  1  0
 16 41  1  0
 16 42  1  0
 17 43  1  0
 17 44  1  0
 18 45  1  0
 21 46  1  0
 24 47  1  0
 24 48  1  0
 25 49  1  0
 25 50  1  0
 27 51  1  0
 27 52  1  0
 28 53  1  0
 28 54  1  0
 29 55  1  0
 30 56  1  0
M  END
>  <smiles>  (5) 
O=C1CC(c2cccc(C(=O)N3CCOCC3)c2)=Nc2cc(N3CCOCC3)ccc21

>  <score_type>  (5) 
oracle

>  <origin>  (5) 
autodockgpu

>  <m_score__min__energy>  (5) 
-8.6899999999999995

>  <m_primary>  (5) 
energy

>  <rmsd>  (5) 
7.568362285785487

>  <m_score__min__rmsd>  (5) 
7.568362285785487

>  <meeko>  (5) 
{"free_energy": -8.65, "intermolecular_energy": -9.54, "internal_energy": -0.85, "cluster_size": 48, "cluster_id": 1, "rank_in_cluster": 36}

>  <energy>  (5) 
-8.68

>  <cluster_rmsd>  (5) 
0.06

>  <cluster>  (5) 
1

$$$$

     RDKit          3D

 56 60  0  0  0  0  0  0  0  0999 V2000
  136.8940   72.7250  221.2070 O   0  0  0  0  0  0  0  0  0  0  0  0
  138.0730   72.8900  221.6060 C   0  0  0  0  0  0  0  0  0  0  0  0
  138.8620   73.9420  220.9100 C   0  0  0  0  0  0  0  0  0  0  0  0
  140.2540   73.9980  221.4380 C   0  0  0  0  0  0  0  0  0  0  0  0
  141.1990   74.9430  220.8400 C   0  0  0  0  0  0  0  0  0  0  0  0
  142.3410   74.4750  220.2370 C   0  0  0  0  0  0  0  0  0  0  0  0
  143.2570   75.3900  219.6920 C   0  0  0  0  0  0  0  0  0  0  0  0
  142.9860   76.7590  219.7750 C   0  0  0  0  0  0  0  0  0  0  0  0
  141.8430   77.2400  220.3790 C   0  0  0  0  0  0  0  0  0  0  0  0
  141.6210   78.6590  220.4980 C   0  0  0  0  0  0  0  0  0  0  0  0
  141.2000   79.2480  219.4320 O   0  0  0  0  0  0  0  0  0  0  0  0
  141.8000   79.4820  221.6100 N   0  0  0  0  0  0  0  0  0  0  0  0
  141.5000   80.9120  221.4440 C   0  0  0  0  0  0  0  0  0  0  0  0
  140.6160   81.4020  222.5370 C   0  0  0  0  0  0  0  0  0  0  0  0
  140.8800   80.8360  223.7810 O   0  0  0  0  0  0  0  0  0  0  0  0
  142.1670   80.2960  223.8340 C   0  0  0  0  0  0  0  0  0  0  0  0
  142.2540   79.0660  222.9200 C   0  0  0  0  0  0  0  0  0  0  0  0
  140.9610   76.2990  220.9060 C   0  0  0  0  0  0  0  0  0  0  0  0
  140.6980   73.2600  222.3880 N   0  0  0  0  0  0  0  0  0  0  0  0
  139.9470   72.2730  223.0860 C   0  0  0  0  0  0  0  0  0  0  0  0
  140.5030   71.5410  224.1230 C   0  0  0  0  0  0  0  0  0  0  0  0
  139.6960   70.6240  224.7490 C   0  0  0  0  0  0  0  0  0  0  0  0
  140.2250   69.8770  225.8490 N   0  0  0  0  0  0  0  0  0  0  0  0
  140.9680   70.6080  226.8540 C   0  0  0  0  0  0  0  0  0  0  0  0
  140.9630   69.9460  228.2110 C   0  0  0  0  0  0  0  0  0  0  0  0
  140.2780   68.7550  228.2270 O   0  0  0  0  0  0  0  0  0  0  0  0
  140.6820   67.9120  227.1980 C   0  0  0  0  0  0  0  0  0  0  0  0
  140.0230   68.4430  225.9460 C   0  0  0  0  0  0  0  0  0  0  0  0
  138.3840   70.3900  224.4120 C   0  0  0  0  0  0  0  0  0  0  0  0
  137.8640   71.1390  223.3750 C   0  0  0  0  0  0  0  0  0  0  0  0
  138.6270   72.0920  222.6940 C   0  0  0  0  0  0  0  0  0  0  0  0
  138.8936   73.7159  219.8339 H   0  0  0  0  0  0  0  0  0  0  0  0
  138.3804   74.9156  221.0836 H   0  0  0  0  0  0  0  0  0  0  0  0
  142.5364   73.3939  220.1814 H   0  0  0  0  0  0  0  0  0  0  0  0
  144.1769   75.0335  219.2055 H   0  0  0  0  0  0  0  0  0  0  0  0
  143.7048   77.4729  219.3464 H   0  0  0  0  0  0  0  0  0  0  0  0
  142.4411   81.4812  221.4600 H   0  0  0  0  0  0  0  0  0  0  0  0
  140.9812   81.0521  220.4842 H   0  0  0  0  0  0  0  0  0  0  0  0
  140.7416   82.4916  222.6200 H   0  0  0  0  0  0  0  0  0  0  0  0
  139.5898   81.1107  222.2684 H   0  0  0  0  0  0  0  0  0  0  0  0
  142.8937   81.0511  223.4998 H   0  0  0  0  0  0  0  0  0  0  0  0
  142.3923   79.9961  224.8681 H   0  0  0  0  0  0  0  0  0  0  0  0
  143.2929   78.7089  222.8644 H   0  0  0  0  0  0  0  0  0  0  0  0
  141.6356   78.2431  223.3078 H   0  0  0  0  0  0  0  0  0  0  0  0
  140.0399   76.6516  221.3932 H   0  0  0  0  0  0  0  0  0  0  0  0
  141.5484   71.6888  224.4319 H   0  0  0  0  0  0  0  0  0  0  0  0
  142.0108   70.7009  226.5164 H   0  0  0  0  0  0  0  0  0  0  0  0
  140.4770   71.5854  226.9704 H   0  0  0  0  0  0  0  0  0  0  0  0
  142.0039   69.7553  228.5114 H   0  0  0  0  0  0  0  0  0  0  0  0
  140.4520   70.6278  228.9067 H   0  0  0  0  0  0  0  0  0  0  0  0
  141.7768   67.9336  227.0930 H   0  0  0  0  0  0  0  0  0  0  0  0
  140.3952   66.8683  227.3943 H   0  0  0  0  0  0  0  0  0  0  0  0
  140.4644   67.9525  225.0659 H   0  0  0  0  0  0  0  0  0  0  0  0
  138.9442   68.2323  225.9885 H   0  0  0  0  0  0  0  0  0  0  0  0
  137.7773   69.6418  224.9431 H   0  0  0  0  0  0  0  0  0  0  0  0
  136.8174   70.9809  223.0756 H   0  0  0  0  0  0  0  0  0  0  0  0
  1  2  2  0
  2  3  1  0
  3  4  1  0
  4  5  1  0
  5  6  2  0
  6  7  1  0
  7  8  2  0
  8  9  1  0
  9 10  1  0
 10 11  2  0
 10 12  1  0
 12 13  1  0
 13 14  1  0
 14 15  1  0
 15 16  1  0
 16 17  1  0
  9 18  2  0
  4 19  2  0
 19 20  1  0
 20 21  2  0
 21 22  1  0
 22 23  1  0
 23 24  1  0
 24 25  1  0
 25 26  1  0
 26 27  1  0
 27 28  1  0
 22 29  2  0
 29 30  1  0
 30 31  2  0
 31  2  1  0
 18  5  1  0
 31 20  1  0
 17 12  1  0
 28 23  1  0
  3 32  1  0
  3 33  1  0
  6 34  1  0
  7 35  1  0
  8 36  1  0
 13 37  1  0
 13 38  1  0
 14 39  1  0
 14 40  1  0
 16 41  1  0
 16 42  1  0
 17 43  1  0
 17 44  1  0
 18 45  1  0
 21 46  1  0
 24 47  1  0
 24 48  1  0
 25 49  1  0
 25 50  1  0
 27 51  1  0
 27 52  1  0
 28 53  1  0
 28 54  1  0
 29 55  1  0
 30 56  1  0
M  END
>  <smiles>  (6) 
O=C1CC(c2cccc(C(=O)N3CCOCC3)c2)=Nc2cc(N3CCOCC3)ccc21

>  <score_type>  (6) 
oracle

>  <origin>  (6) 
autodockgpu

>  <m_score__min__energy>  (6) 
-8.6899999999999995

>  <m_primary>  (6) 
energy

>  <rmsd>  (6) 
7.35829473979893

>  <m_score__min__rmsd>  (6) 
7.35829473979893

>  <meeko>  (6) 
{"free_energy": -8.68, "intermolecular_energy": -9.58, "internal_energy": -0.92, "cluster_size": 48, "cluster_id": 1, "rank_in_cluster": 14}

>  <energy>  (6) 
-8.68

>  <cluster_rmsd>  (6) 
0.03

>  <cluster>  (6) 
1

$$$$

     RDKit          3D

 56 60  0  0  0  0  0  0  0  0999 V2000
  136.9700   72.5480  221.0690 O   0  0  0  0  0  0  0  0  0  0  0  0
  138.1240   72.7680  221.5100 C   0  0  0  0  0  0  0  0  0  0  0  0
  138.9030   73.8280  220.8150 C   0  0  0  0  0  0  0  0  0  0  0  0
  140.2680   73.9510  221.3960 C   0  0  0  0  0  0  0  0  0  0  0  0
  141.2030   74.9130  220.8090 C   0  0  0  0  0  0  0  0  0  0  0  0
  142.3520   74.4650  220.2050 C   0  0  0  0  0  0  0  0  0  0  0  0
  143.2580   75.3960  219.6700 C   0  0  0  0  0  0  0  0  0  0  0  0
  142.9690   76.7600  219.7640 C   0  0  0  0  0  0  0  0  0  0  0  0
  141.8180   77.2220  220.3680 C   0  0  0  0  0  0  0  0  0  0  0  0
  141.5770   78.6370  220.4990 C   0  0  0  0  0  0  0  0  0  0  0  0
  141.1170   79.2220  219.4460 O   0  0  0  0  0  0  0  0  0  0  0  0
  141.7760   79.4590  221.6070 N   0  0  0  0  0  0  0  0  0  0  0  0
  141.4480   80.8850  221.4550 C   0  0  0  0  0  0  0  0  0  0  0  0
  140.5880   81.3580  222.5750 C   0  0  0  0  0  0  0  0  0  0  0  0
  140.8970   80.7930  223.8080 O   0  0  0  0  0  0  0  0  0  0  0  0
  142.1940   80.2730  223.8230 C   0  0  0  0  0  0  0  0  0  0  0  0
  142.2730   79.0470  222.9030 C   0  0  0  0  0  0  0  0  0  0  0  0
  140.9480   76.2660  220.8850 C   0  0  0  0  0  0  0  0  0  0  0  0
  140.6990   73.2580  222.3860 N   0  0  0  0  0  0  0  0  0  0  0  0
  139.9560   72.2650  223.0820 C   0  0  0  0  0  0  0  0  0  0  0  0
  140.4950   71.5830  224.1620 C   0  0  0  0  0  0  0  0  0  0  0  0
  139.6960   70.6550  224.7820 C   0  0  0  0  0  0  0  0  0  0  0  0
  140.2060   69.9610  225.9250 N   0  0  0  0  0  0  0  0  0  0  0  0
  140.8920   70.7460  226.9300 C   0  0  0  0  0  0  0  0  0  0  0  0
  140.8560   70.1290  228.3070 C   0  0  0  0  0  0  0  0  0  0  0  0
  140.2040   68.9200  228.3410 O   0  0  0  0  0  0  0  0  0  0  0  0
  140.6680   68.0550  227.3560 C   0  0  0  0  0  0  0  0  0  0  0  0
  140.0400   68.5250  226.0640 C   0  0  0  0  0  0  0  0  0  0  0  0
  138.4080   70.3630  224.4000 C   0  0  0  0  0  0  0  0  0  0  0  0
  137.9050   71.0620  223.3210 C   0  0  0  0  0  0  0  0  0  0  0  0
  138.6610   72.0230  222.6430 C   0  0  0  0  0  0  0  0  0  0  0  0
  138.9872   73.5724  219.7484 H   0  0  0  0  0  0  0  0  0  0  0  0
  138.3800   74.7876  220.9398 H   0  0  0  0  0  0  0  0  0  0  0  0
  142.5611   73.3870  220.1406 H   0  0  0  0  0  0  0  0  0  0  0  0
  144.1836   75.0554  219.1830 H   0  0  0  0  0  0  0  0  0  0  0  0
  143.6801   77.4866  219.3441 H   0  0  0  0  0  0  0  0  0  0  0  0
  142.3799   81.4693  221.4457 H   0  0  0  0  0  0  0  0  0  0  0  0
  140.8990   81.0193  220.5113 H   0  0  0  0  0  0  0  0  0  0  0  0
  140.6986   82.4493  222.6580 H   0  0  0  0  0  0  0  0  0  0  0  0
  139.5592   81.0514  222.3353 H   0  0  0  0  0  0  0  0  0  0  0  0
  142.8992   81.0402  223.4705 H   0  0  0  0  0  0  0  0  0  0  0  0
  142.4539   79.9744  224.8493 H   0  0  0  0  0  0  0  0  0  0  0  0
  143.3151   78.7054  222.8171 H   0  0  0  0  0  0  0  0  0  0  0  0
  141.6776   78.2144  223.3057 H   0  0  0  0  0  0  0  0  0  0  0  0
  140.0215   76.6029  221.3729 H   0  0  0  0  0  0  0  0  0  0  0  0
  141.5209   71.7776  224.5079 H   0  0  0  0  0  0  0  0  0  0  0  0
  141.9433   70.8576  226.6263 H   0  0  0  0  0  0  0  0  0  0  0  0
  140.3707   71.7124  226.9958 H   0  0  0  0  0  0  0  0  0  0  0  0
  141.8903   69.9783  228.6498 H   0  0  0  0  0  0  0  0  0  0  0  0
  140.3009   70.8185  228.9600 H   0  0  0  0  0  0  0  0  0  0  0  0
  141.7648   68.1046  227.2887 H   0  0  0  0  0  0  0  0  0  0  0  0
  140.4032   67.0106  227.5777 H   0  0  0  0  0  0  0  0  0  0  0  0
  140.5261   68.0184  225.2172 H   0  0  0  0  0  0  0  0  0  0  0  0
  138.9666   68.2849  226.0758 H   0  0  0  0  0  0  0  0  0  0  0  0
  137.8070   69.6085  224.9288 H   0  0  0  0  0  0  0  0  0  0  0  0
  136.8781   70.8566  222.9844 H   0  0  0  0  0  0  0  0  0  0  0  0
  1  2  2  0
  2  3  1  0
  3  4  1  0
  4  5  1  0
  5  6  2  0
  6  7  1  0
  7  8  2  0
  8  9  1  0
  9 10  1  0
 10 11  2  0
 10 12  1  0
 12 13  1  0
 13 14  1  0
 14 15  1  0
 15 16  1  0
 16 17  1  0
  9 18  2  0
  4 19  2  0
 19 20  1  0
 20 21  2  0
 21 22  1  0
 22 23  1  0
 23 24  1  0
 24 25  1  0
 25 26  1  0
 26 27  1  0
 27 28  1  0
 22 29  2  0
 29 30  1  0
 30 31  2  0
 31  2  1  0
 18  5  1  0
 31 20  1  0
 17 12  1  0
 28 23  1  0
  3 32  1  0
  3 33  1  0
  6 34  1  0
  7 35  1  0
  8 36  1  0
 13 37  1  0
 13 38  1  0
 14 39  1  0
 14 40  1  0
 16 41  1  0
 16 42  1  0
 17 43  1  0
 17 44  1  0
 18 45  1  0
 21 46  1  0
 24 47  1  0
 24 48  1  0
 25 49  1  0
 25 50  1  0
 27 51  1  0
 27 52  1  0
 28 53  1  0
 28 54  1  0
 29 55  1  0
 30 56  1  0
M  END
>  <smiles>  (7) 
O=C1CC(c2cccc(C(=O)N3CCOCC3)c2)=Nc2cc(N3CCOCC3)ccc21

>  <score_type>  (7) 
oracle

>  <origin>  (7) 
autodockgpu

>  <m_score__min__energy>  (7) 
-8.6899999999999995

>  <m_primary>  (7) 
energy

>  <rmsd>  (7) 
7.333866296746896

>  <m_score__min__rmsd>  (7) 
7.333866296746896

>  <meeko>  (7) 
{"free_energy": -8.67, "intermolecular_energy": -9.57, "internal_energy": -0.91, "cluster_size": 48, "cluster_id": 1, "rank_in_cluster": 28}

>  <energy>  (7) 
-8.68

>  <cluster_rmsd>  (7) 
0.15

>  <cluster>  (7) 
1

$$$$

     RDKit          3D

 56 60  0  0  0  0  0  0  0  0999 V2000
  136.9340   72.7720  220.9070 O   0  0  0  0  0  0  0  0  0  0  0  0
  138.0830   72.9290  221.3870 C   0  0  0  0  0  0  0  0  0  0  0  0
  138.9380   73.9520  220.7250 C   0  0  0  0  0  0  0  0  0  0  0  0
  140.2890   74.0000  221.3510 C   0  0  0  0  0  0  0  0  0  0  0  0
  141.2910   74.9150  220.8010 C   0  0  0  0  0  0  0  0  0  0  0  0
  142.4670   74.4160  220.3010 C   0  0  0  0  0  0  0  0  0  0  0  0
  143.4360   75.3040  219.8020 C   0  0  0  0  0  0  0  0  0  0  0  0
  143.1790   76.6770  219.8260 C   0  0  0  0  0  0  0  0  0  0  0  0
  142.0010   77.1900  220.3280 C   0  0  0  0  0  0  0  0  0  0  0  0
  141.7920   78.6140  220.3910 C   0  0  0  0  0  0  0  0  0  0  0  0
  141.4620   79.1780  219.2790 O   0  0  0  0  0  0  0  0  0  0  0  0
  141.8980   79.4660  221.4890 N   0  0  0  0  0  0  0  0  0  0  0  0
  141.6320   80.8950  221.2620 C   0  0  0  0  0  0  0  0  0  0  0  0
  140.6750   81.4270  222.2710 C   0  0  0  0  0  0  0  0  0  0  0  0
  140.8350   80.8940  223.5460 O   0  0  0  0  0  0  0  0  0  0  0  0
  142.1070   80.3390  223.7120 C   0  0  0  0  0  0  0  0  0  0  0  0
  142.2450   79.0830  222.8420 C   0  0  0  0  0  0  0  0  0  0  0  0
  141.0680   76.2760  220.8120 C   0  0  0  0  0  0  0  0  0  0  0  0
  140.6500   73.2790  222.3480 N   0  0  0  0  0  0  0  0  0  0  0  0
  139.8350   72.3210  223.0130 C   0  0  0  0  0  0  0  0  0  0  0  0
  140.3020   71.6060  224.1040 C   0  0  0  0  0  0  0  0  0  0  0  0
  139.4370   70.7170  224.6910 C   0  0  0  0  0  0  0  0  0  0  0  0
  139.8720   69.9900  225.8430 N   0  0  0  0  0  0  0  0  0  0  0  0
  139.4600   68.6060  225.9530 C   0  0  0  0  0  0  0  0  0  0  0  0
  140.3900   67.7620  226.7910 C   0  0  0  0  0  0  0  0  0  0  0  0
  141.4390   68.4770  227.3180 O   0  0  0  0  0  0  0  0  0  0  0  0
  141.0070   69.6320  227.9590 C   0  0  0  0  0  0  0  0  0  0  0  0
  140.6930   70.6220  226.8610 C   0  0  0  0  0  0  0  0  0  0  0  0
  138.1480   70.4940  224.2650 C   0  0  0  0  0  0  0  0  0  0  0  0
  137.7170   71.2260  223.1760 C   0  0  0  0  0  0  0  0  0  0  0  0
  138.5430   72.1500  222.5300 C   0  0  0  0  0  0  0  0  0  0  0  0
  139.0433   73.6990  219.6597 H   0  0  0  0  0  0  0  0  0  0  0  0
  138.4616   74.9368  220.8402 H   0  0  0  0  0  0  0  0  0  0  0  0
  142.6500   73.3314  220.2906 H   0  0  0  0  0  0  0  0  0  0  0  0
  144.3851   74.9223  219.3976 H   0  0  0  0  0  0  0  0  0  0  0  0
  143.9382   77.3692  219.4331 H   0  0  0  0  0  0  0  0  0  0  0  0
  142.5774   81.4526  221.3340 H   0  0  0  0  0  0  0  0  0  0  0  0
  141.1891   81.0143  220.2622 H   0  0  0  0  0  0  0  0  0  0  0  0
  140.8101   82.5169  222.3334 H   0  0  0  0  0  0  0  0  0  0  0  0
  139.6681   81.1407  221.9330 H   0  0  0  0  0  0  0  0  0  0  0  0
  142.8681   81.0750  223.4137 H   0  0  0  0  0  0  0  0  0  0  0  0
  142.2485   80.0659  224.7681 H   0  0  0  0  0  0  0  0  0  0  0  0
  143.2798   78.7115  222.8760 H   0  0  0  0  0  0  0  0  0  0  0  0
  141.5864   78.2798  223.2042 H   0  0  0  0  0  0  0  0  0  0  0  0
  140.1180   76.6537  221.2181 H   0  0  0  0  0  0  0  0  0  0  0  0
  141.3247   71.7453  224.4843 H   0  0  0  0  0  0  0  0  0  0  0  0
  138.4590   68.5765  226.4081 H   0  0  0  0  0  0  0  0  0  0  0  0
  139.4709   68.1850  224.9368 H   0  0  0  0  0  0  0  0  0  0  0  0
  139.8141   67.3234  227.6192 H   0  0  0  0  0  0  0  0  0  0  0  0
  140.8164   66.9910  226.1324 H   0  0  0  0  0  0  0  0  0  0  0  0
  140.1067   69.4244  228.5560 H   0  0  0  0  0  0  0  0  0  0  0  0
  141.7710   70.0216  228.6478 H   0  0  0  0  0  0  0  0  0  0  0  0
  140.1501   71.4786  227.2870 H   0  0  0  0  0  0  0  0  0  0  0  0
  141.6330   70.9660  226.4049 H   0  0  0  0  0  0  0  0  0  0  0  0
  137.4923   69.7677  224.7675 H   0  0  0  0  0  0  0  0  0  0  0  0
  136.6920   71.0772  222.8056 H   0  0  0  0  0  0  0  0  0  0  0  0
  1  2  2  0
  2  3  1  0
  3  4  1  0
  4  5  1  0
  5  6  2  0
  6  7  1  0
  7  8  2  0
  8  9  1  0
  9 10  1  0
 10 11  2  0
 10 12  1  0
 12 13  1  0
 13 14  1  0
 14 15  1  0
 15 16  1  0
 16 17  1  0
  9 18  2  0
  4 19  2  0
 19 20  1  0
 20 21  2  0
 21 22  1  0
 22 23  1  0
 23 24  1  0
 24 25  1  0
 25 26  1  0
 26 27  1  0
 27 28  1  0
 22 29  2  0
 29 30  1  0
 30 31  2  0
 31  2  1  0
 18  5  1  0
 31 20  1  0
 17 12  1  0
 28 23  1  0
  3 32  1  0
  3 33  1  0
  6 34  1  0
  7 35  1  0
  8 36  1  0
 13 37  1  0
 13 38  1  0
 14 39  1  0
 14 40  1  0
 16 41  1  0
 16 42  1  0
 17 43  1  0
 17 44  1  0
 18 45  1  0
 21 46  1  0
 24 47  1  0
 24 48  1  0
 25 49  1  0
 25 50  1  0
 27 51  1  0
 27 52  1  0
 28 53  1  0
 28 54  1  0
 29 55  1  0
 30 56  1  0
M  END
>  <smiles>  (8) 
O=C1CC(c2cccc(C(=O)N3CCOCC3)c2)=Nc2cc(N3CCOCC3)ccc21

>  <score_type>  (8) 
oracle

>  <origin>  (8) 
autodockgpu

>  <m_score__min__energy>  (8) 
-8.6899999999999995

>  <m_primary>  (8) 
energy

>  <rmsd>  (8) 
7.434819351507546

>  <m_score__min__rmsd>  (8) 
7.434819351507546

>  <meeko>  (8) 
{"free_energy": -8.46, "intermolecular_energy": -9.35, "internal_energy": -0.91, "cluster_size": 48, "cluster_id": 1, "rank_in_cluster": 43}

>  <energy>  (8) 
-8.68

>  <cluster_rmsd>  (8) 
0.05

>  <cluster>  (8) 
1

$$$$

     RDKit          3D

 56 60  0  0  0  0  0  0  0  0999 V2000
  136.8590   72.8410  221.2500 O   0  0  0  0  0  0  0  0  0  0  0  0
  138.0490   72.9620  221.6260 C   0  0  0  0  0  0  0  0  0  0  0  0
  138.8540   74.0090  220.9390 C   0  0  0  0  0  0  0  0  0  0  0  0
  140.2570   74.0120  221.4360 C   0  0  0  0  0  0  0  0  0  0  0  0
  141.2170   74.9450  220.8400 C   0  0  0  0  0  0  0  0  0  0  0  0
  142.3920   74.4690  220.3140 C   0  0  0  0  0  0  0  0  0  0  0  0
  143.3200   75.3740  219.7710 C   0  0  0  0  0  0  0  0  0  0  0  0
  143.0250   76.7400  219.7780 C   0  0  0  0  0  0  0  0  0  0  0  0
  141.8470   77.2290  220.3050 C   0  0  0  0  0  0  0  0  0  0  0  0
  141.5990   78.6480  220.3470 C   0  0  0  0  0  0  0  0  0  0  0  0
  141.1250   79.1630  219.2650 O   0  0  0  0  0  0  0  0  0  0  0  0
  141.8030   79.5400  221.4000 N   0  0  0  0  0  0  0  0  0  0  0  0
  141.4650   80.9510  221.1610 C   0  0  0  0  0  0  0  0  0  0  0  0
  140.6120   81.4890  222.2570 C   0  0  0  0  0  0  0  0  0  0  0  0
  140.9360   81.0050  223.5200 O   0  0  0  0  0  0  0  0  0  0  0  0
  142.2360   80.4950  223.5550 C   0  0  0  0  0  0  0  0  0  0  0  0
  142.3150   79.2140  222.7140 C   0  0  0  0  0  0  0  0  0  0  0  0
  140.9560   76.2980  220.8320 C   0  0  0  0  0  0  0  0  0  0  0  0
  140.7010   73.2390  222.3580 N   0  0  0  0  0  0  0  0  0  0  0  0
  139.9370   72.2560  223.0480 C   0  0  0  0  0  0  0  0  0  0  0  0
  140.4950   71.4820  224.0530 C   0  0  0  0  0  0  0  0  0  0  0  0
  139.6760   70.5720  224.6740 C   0  0  0  0  0  0  0  0  0  0  0  0
  140.2070   69.7840  225.7430 N   0  0  0  0  0  0  0  0  0  0  0  0
  140.9480   70.4760  226.7780 C   0  0  0  0  0  0  0  0  0  0  0  0
  140.9440   69.7600  228.1060 C   0  0  0  0  0  0  0  0  0  0  0  0
  140.2630   68.5670  228.0750 O   0  0  0  0  0  0  0  0  0  0  0  0
  140.6700   67.7670  227.0130 C   0  0  0  0  0  0  0  0  0  0  0  0
  140.0090   68.3460  225.7830 C   0  0  0  0  0  0  0  0  0  0  0  0
  138.3500   70.3840  224.3610 C   0  0  0  0  0  0  0  0  0  0  0  0
  137.8290   71.1730  223.3550 C   0  0  0  0  0  0  0  0  0  0  0  0
  138.6040   72.1220  222.6810 C   0  0  0  0  0  0  0  0  0  0  0  0
  138.8556   73.8099  219.8572 H   0  0  0  0  0  0  0  0  0  0  0  0
  138.4050   74.9911  221.1484 H   0  0  0  0  0  0  0  0  0  0  0  0
  142.6052   73.3899  220.3174 H   0  0  0  0  0  0  0  0  0  0  0  0
  144.2674   75.0114  219.3455 H   0  0  0  0  0  0  0  0  0  0  0  0
  143.7527   77.4458  219.3511 H   0  0  0  0  0  0  0  0  0  0  0  0
  142.3931   81.5388  221.1061 H   0  0  0  0  0  0  0  0  0  0  0  0
  140.9070   81.0222  220.2157 H   0  0  0  0  0  0  0  0  0  0  0  0
  140.7162   82.5840  222.2697 H   0  0  0  0  0  0  0  0  0  0  0  0
  139.5830   81.1619  222.0470 H   0  0  0  0  0  0  0  0  0  0  0  0
  142.9326   81.2426  223.1478 H   0  0  0  0  0  0  0  0  0  0  0  0
  142.5072   80.2634  224.5956 H   0  0  0  0  0  0  0  0  0  0  0  0
  143.3586   78.8744  222.6395 H   0  0  0  0  0  0  0  0  0  0  0  0
  141.7295   78.4046  223.1745 H   0  0  0  0  0  0  0  0  0  0  0  0
  140.0073   76.6562  221.2583 H   0  0  0  0  0  0  0  0  0  0  0  0
  141.5508   71.5923  224.3413 H   0  0  0  0  0  0  0  0  0  0  0  0
  141.9907   70.5852  226.4451 H   0  0  0  0  0  0  0  0  0  0  0  0
  140.4543   71.4466  226.9337 H   0  0  0  0  0  0  0  0  0  0  0  0
  141.9854   69.5608  228.3990 H   0  0  0  0  0  0  0  0  0  0  0  0
  140.4296   70.4117  228.8275 H   0  0  0  0  0  0  0  0  0  0  0  0
  141.7647   67.7964  226.9091 H   0  0  0  0  0  0  0  0  0  0  0  0
  140.3869   66.7153  227.1672 H   0  0  0  0  0  0  0  0  0  0  0  0
  140.4515   67.8922  224.8840 H   0  0  0  0  0  0  0  0  0  0  0  0
  138.9308   68.1309  225.8175 H   0  0  0  0  0  0  0  0  0  0  0  0
  137.7338   69.6402  224.8873 H   0  0  0  0  0  0  0  0  0  0  0  0
  136.7722   71.0515  223.0751 H   0  0  0  0  0  0  0  0  0  0  0  0
  1  2  2  0
  2  3  1  0
  3  4  1  0
  4  5  1  0
  5  6  2  0
  6  7  1  0
  7  8  2  0
  8  9  1  0
  9 10  1  0
 10 11  2  0
 10 12  1  0
 12 13  1  0
 13 14  1  0
 14 15  1  0
 15 16  1  0
 16 17  1  0
  9 18  2  0
  4 19  2  0
 19 20  1  0
 20 21  2  0
 21 22  1  0
 22 23  1  0
 23 24  1  0
 24 25  1  0
 25 26  1  0
 26 27  1  0
 27 28  1  0
 22 29  2  0
 29 30  1  0
 30 31  2  0
 31  2  1  0
 18  5  1  0
 31 20  1  0
 17 12  1  0
 28 23  1  0
  3 32  1  0
  3 33  1  0
  6 34  1  0
  7 35  1  0
  8 36  1  0
 13 37  1  0
 13 38  1  0
 14 39  1  0
 14 40  1  0
 16 41  1  0
 16 42  1  0
 17 43  1  0
 17 44  1  0
 18 45  1  0
 21 46  1  0
 24 47  1  0
 24 48  1  0
 25 49  1  0
 25 50  1  0
 27 51  1  0
 27 52  1  0
 28 53  1  0
 28 54  1  0
 29 55  1  0
 30 56  1  0
M  END
>  <smiles>  (9) 
O=C1CC(c2cccc(C(=O)N3CCOCC3)c2)=Nc2cc(N3CCOCC3)ccc21

>  <score_type>  (9) 
oracle

>  <origin>  (9) 
autodockgpu

>  <m_score__min__energy>  (9) 
-8.6899999999999995

>  <m_primary>  (9) 
energy

>  <rmsd>  (9) 
7.3722351190560875

>  <m_score__min__rmsd>  (9) 
7.3722351190560875

>  <meeko>  (9) 
{"free_energy": -8.65, "intermolecular_energy": -9.54, "internal_energy": -0.91, "cluster_size": 48, "cluster_id": 1, "rank_in_cluster": 37}

>  <energy>  (9) 
-8.68

>  <cluster_rmsd>  (9) 
0.18

>  <cluster>  (9) 
1

$$$$

     RDKit          3D

 56 60  0  0  0  0  0  0  0  0999 V2000
  136.9920   72.5160  221.0680 O   0  0  0  0  0  0  0  0  0  0  0  0
  138.1400   72.7520  221.5150 C   0  0  0  0  0  0  0  0  0  0  0  0
  138.9090   73.8220  220.8240 C   0  0  0  0  0  0  0  0  0  0  0  0
  140.2700   73.9630  221.4130 C   0  0  0  0  0  0  0  0  0  0  0  0
  141.1950   74.9370  220.8300 C   0  0  0  0  0  0  0  0  0  0  0  0
  142.3560   74.5040  220.2390 C   0  0  0  0  0  0  0  0  0  0  0  0
  143.2520   75.4470  219.7080 C   0  0  0  0  0  0  0  0  0  0  0  0
  142.9410   76.8070  219.7930 C   0  0  0  0  0  0  0  0  0  0  0  0
  141.7770   77.2530  220.3850 C   0  0  0  0  0  0  0  0  0  0  0  0
  141.5140   78.6650  220.5070 C   0  0  0  0  0  0  0  0  0  0  0  0
  140.8770   79.1990  219.5210 O   0  0  0  0  0  0  0  0  0  0  0  0
  141.8550   79.5320  221.5440 N   0  0  0  0  0  0  0  0  0  0  0  0
  141.4610   80.9420  221.4010 C   0  0  0  0  0  0  0  0  0  0  0  0
  140.7700   81.4310  222.6250 C   0  0  0  0  0  0  0  0  0  0  0  0
  141.2840   80.9200  223.8120 O   0  0  0  0  0  0  0  0  0  0  0  0
  142.5840   80.4370  223.6410 C   0  0  0  0  0  0  0  0  0  0  0  0
  142.5600   79.1810  222.7590 C   0  0  0  0  0  0  0  0  0  0  0  0
  140.9170   76.2860  220.8980 C   0  0  0  0  0  0  0  0  0  0  0  0
  140.7040   73.2770  222.4050 N   0  0  0  0  0  0  0  0  0  0  0  0
  139.9700   72.2730  223.0980 C   0  0  0  0  0  0  0  0  0  0  0  0
  140.5120   71.6000  224.1810 C   0  0  0  0  0  0  0  0  0  0  0  0
  139.7230   70.6620  224.7980 C   0  0  0  0  0  0  0  0  0  0  0  0
  140.2350   69.9750  225.9430 N   0  0  0  0  0  0  0  0  0  0  0  0
  140.9170   70.7670  226.9460 C   0  0  0  0  0  0  0  0  0  0  0  0
  140.8840   70.1570  228.3250 C   0  0  0  0  0  0  0  0  0  0  0  0
  140.2380   68.9450  228.3640 O   0  0  0  0  0  0  0  0  0  0  0  0
  140.7050   68.0780  227.3830 C   0  0  0  0  0  0  0  0  0  0  0  0
  140.0760   68.5390  226.0890 C   0  0  0  0  0  0  0  0  0  0  0  0
  138.4400   70.3520  224.4080 C   0  0  0  0  0  0  0  0  0  0  0  0
  137.9340   71.0440  223.3260 C   0  0  0  0  0  0  0  0  0  0  0  0
  138.6810   72.0140  222.6510 C   0  0  0  0  0  0  0  0  0  0  0  0
  139.0025   73.5673  219.7580 H   0  0  0  0  0  0  0  0  0  0  0  0
  138.3728   74.7748  220.9456 H   0  0  0  0  0  0  0  0  0  0  0  0
  142.5826   73.4291  220.1817 H   0  0  0  0  0  0  0  0  0  0  0  0
  144.1873   75.1188  219.2310 H   0  0  0  0  0  0  0  0  0  0  0  0
  143.6443   77.5429  219.3760 H   0  0  0  0  0  0  0  0  0  0  0  0
  142.3607   81.5509  221.2286 H   0  0  0  0  0  0  0  0  0  0  0  0
  140.7684   81.0272  220.5507 H   0  0  0  0  0  0  0  0  0  0  0  0
  140.8562   82.5272  222.6553 H   0  0  0  0  0  0  0  0  0  0  0  0
  139.7272   81.0875  222.5581 H   0  0  0  0  0  0  0  0  0  0  0  0
  143.2004   81.2101  223.1589 H   0  0  0  0  0  0  0  0  0  0  0  0
  143.0093   80.1831  224.6232 H   0  0  0  0  0  0  0  0  0  0  0  0
  143.5869   78.8655  222.5225 H   0  0  0  0  0  0  0  0  0  0  0  0
  142.0620   78.3473  223.2756 H   0  0  0  0  0  0  0  0  0  0  0  0
  139.9806   76.6101  221.3755 H   0  0  0  0  0  0  0  0  0  0  0  0
  141.5333   71.8091  224.5320 H   0  0  0  0  0  0  0  0  0  0  0  0
  141.9679   70.8822  226.6422 H   0  0  0  0  0  0  0  0  0  0  0  0
  140.3902   71.7307  227.0078 H   0  0  0  0  0  0  0  0  0  0  0  0
  141.9189   70.0131  228.6688 H   0  0  0  0  0  0  0  0  0  0  0  0
  140.3257   70.8468  228.9750 H   0  0  0  0  0  0  0  0  0  0  0  0
  141.8016   68.1315  227.3157 H   0  0  0  0  0  0  0  0  0  0  0  0
  140.4437   67.0338  227.6094 H   0  0  0  0  0  0  0  0  0  0  0  0
  140.5651   68.0307  225.2449 H   0  0  0  0  0  0  0  0  0  0  0  0
  139.0037   68.2940  226.1016 H   0  0  0  0  0  0  0  0  0  0  0  0
  137.8463   69.5894  224.9333 H   0  0  0  0  0  0  0  0  0  0  0  0
  136.9115   70.8255  222.9844 H   0  0  0  0  0  0  0  0  0  0  0  0
  1  2  2  0
  2  3  1  0
  3  4  1  0
  4  5  1  0
  5  6  2  0
  6  7  1  0
  7  8  2  0
  8  9  1  0
  9 10  1  0
 10 11  2  0
 10 12  1  0
 12 13  1  0
 13 14  1  0
 14 15  1  0
 15 16  1  0
 16 17  1  0
  9 18  2  0
  4 19  2  0
 19 20  1  0
 20 21  2  0
 21 22  1  0
 22 23  1  0
 23 24  1  0
 24 25  1  0
 25 26  1  0
 26 27  1  0
 27 28  1  0
 22 29  2  0
 29 30  1  0
 30 31  2  0
 31  2  1  0
 18  5  1  0
 31 20  1  0
 17 12  1  0
 28 23  1  0
  3 32  1  0
  3 33  1  0
  6 34  1  0
  7 35  1  0
  8 36  1  0
 13 37  1  0
 13 38  1  0
 14 39  1  0
 14 40  1  0
 16 41  1  0
 16 42  1  0
 17 43  1  0
 17 44  1  0
 18 45  1  0
 21 46  1  0
 24 47  1  0
 24 48  1  0
 25 49  1  0
 25 50  1  0
 27 51  1  0
 27 52  1  0
 28 53  1  0
 28 54  1  0
 29 55  1  0
 30 56  1  0
M  END
>  <smiles>  (10) 
O=C1CC(c2cccc(C(=O)N3CCOCC3)c2)=Nc2cc(N3CCOCC3)ccc21

>  <score_type>  (10) 
oracle

>  <origin>  (10) 
autodockgpu

>  <m_score__min__energy>  (10) 
-8.6899999999999995

>  <m_primary>  (10) 
energy

>  <rmsd>  (10) 
7.338637448557679

>  <m_score__min__rmsd>  (10) 
7.338637448557679

>  <meeko>  (10) 
{"free_energy": -8.68, "intermolecular_energy": -9.58, "internal_energy": -0.91, "cluster_size": 48, "cluster_id": 1, "rank_in_cluster": 16}

>  <energy>  (10) 
-8.68

>  <cluster_rmsd>  (10) 
0.04

>  <cluster>  (10) 
1

$$$$

     RDKit          3D

 56 60  0  0  0  0  0  0  0  0999 V2000
  136.8620   72.9870  221.2550 O   0  0  0  0  0  0  0  0  0  0  0  0
  138.0540   73.0730  221.6350 C   0  0  0  0  0  0  0  0  0  0  0  0
  138.8900   74.0970  220.9510 C   0  0  0  0  0  0  0  0  0  0  0  0
  140.2920   74.0600  221.4520 C   0  0  0  0  0  0  0  0  0  0  0  0
  141.2790   74.9650  220.8610 C   0  0  0  0  0  0  0  0  0  0  0  0
  142.4820   74.4680  220.4210 C   0  0  0  0  0  0  0  0  0  0  0  0
  143.4350   75.3490  219.8820 C   0  0  0  0  0  0  0  0  0  0  0  0
  143.1370   76.7120  219.8040 C   0  0  0  0  0  0  0  0  0  0  0  0
  141.9330   77.2220  220.2440 C   0  0  0  0  0  0  0  0  0  0  0  0
  141.6810   78.6400  220.2020 C   0  0  0  0  0  0  0  0  0  0  0  0
  141.2770   79.1000  219.0670 O   0  0  0  0  0  0  0  0  0  0  0  0
  141.8150   79.5830  221.2200 N   0  0  0  0  0  0  0  0  0  0  0  0
  141.4910   80.9800  220.8920 C   0  0  0  0  0  0  0  0  0  0  0  0
  140.5690   81.5660  221.9040 C   0  0  0  0  0  0  0  0  0  0  0  0
  140.8110   81.1450  223.2070 O   0  0  0  0  0  0  0  0  0  0  0  0
  142.1070   80.6420  223.3500 C   0  0  0  0  0  0  0  0  0  0  0  0
  142.2410   79.3230  222.5790 C   0  0  0  0  0  0  0  0  0  0  0  0
  141.0170   76.3160  220.7710 C   0  0  0  0  0  0  0  0  0  0  0  0
  140.7110   73.2720  222.3740 N   0  0  0  0  0  0  0  0  0  0  0  0
  139.9170   72.3110  223.0610 C   0  0  0  0  0  0  0  0  0  0  0  0
  140.4490   71.5200  224.0670 C   0  0  0  0  0  0  0  0  0  0  0  0
  139.6020   70.6340  224.6840 C   0  0  0  0  0  0  0  0  0  0  0  0
  140.1080   69.8290  225.7530 N   0  0  0  0  0  0  0  0  0  0  0  0
  140.7940   70.5090  226.8330 C   0  0  0  0  0  0  0  0  0  0  0  0
  140.7530   69.7590  228.1420 C   0  0  0  0  0  0  0  0  0  0  0  0
  140.0980   68.5550  228.0550 O   0  0  0  0  0  0  0  0  0  0  0  0
  140.5610   67.7900  226.9910 C   0  0  0  0  0  0  0  0  0  0  0  0
  139.9380   68.3870  225.7500 C   0  0  0  0  0  0  0  0  0  0  0  0
  138.2730   70.4840  224.3670 C   0  0  0  0  0  0  0  0  0  0  0  0
  137.7780   71.2890  223.3610 C   0  0  0  0  0  0  0  0  0  0  0  0
  138.5820   72.2160  222.6900 C   0  0  0  0  0  0  0  0  0  0  0  0
  138.8889   73.8986  219.8690 H   0  0  0  0  0  0  0  0  0  0  0  0
  138.4684   75.0913  221.1599 H   0  0  0  0  0  0  0  0  0  0  0  0
  142.6970   73.3914  220.4900 H   0  0  0  0  0  0  0  0  0  0  0  0
  144.4042   74.9701  219.5257 H   0  0  0  0  0  0  0  0  0  0  0  0
  143.8843   77.3984  219.3793 H   0  0  0  0  0  0  0  0  0  0  0  0
  142.4200   81.5686  220.8682 H   0  0  0  0  0  0  0  0  0  0  0  0
  140.9946   81.0034  219.9107 H   0  0  0  0  0  0  0  0  0  0  0  0
  140.6710   82.6608  221.8706 H   0  0  0  0  0  0  0  0  0  0  0  0
  139.5562   81.2242  221.6443 H   0  0  0  0  0  0  0  0  0  0  0  0
  142.8278   81.3719  222.9528 H   0  0  0  0  0  0  0  0  0  0  0  0
  142.3108   80.4617  224.4158 H   0  0  0  0  0  0  0  0  0  0  0  0
  143.2875   78.9842  222.5888 H   0  0  0  0  0  0  0  0  0  0  0  0
  141.6271   78.5347  223.0392 H   0  0  0  0  0  0  0  0  0  0  0  0
  140.0473   76.6919  221.1293 H   0  0  0  0  0  0  0  0  0  0  0  0
  141.5066   71.5991  224.3588 H   0  0  0  0  0  0  0  0  0  0  0  0
  141.8464   70.6470  226.5441 H   0  0  0  0  0  0  0  0  0  0  0  0
  140.2751   71.4656  226.9930 H   0  0  0  0  0  0  0  0  0  0  0  0
  141.7861   69.5721  228.4705 H   0  0  0  0  0  0  0  0  0  0  0  0
  140.1981   70.3822  228.8587 H   0  0  0  0  0  0  0  0  0  0  0  0
  141.6582   67.8419  226.9313 H   0  0  0  0  0  0  0  0  0  0  0  0
  140.2917   66.7299  227.1083 H   0  0  0  0  0  0  0  0  0  0  0  0
  140.4251   67.9647  224.8587 H   0  0  0  0  0  0  0  0  0  0  0  0
  138.8639   68.1503  225.7358 H   0  0  0  0  0  0  0  0  0  0  0  0
  137.6343   69.7571  224.8901 H   0  0  0  0  0  0  0  0  0  0  0  0
  136.7188   71.1987  223.0784 H   0  0  0  0  0  0  0  0  0  0  0  0
  1  2  2  0
  2  3  1  0
  3  4  1  0
  4  5  1  0
  5  6  2  0
  6  7  1  0
  7  8  2  0
  8  9  1  0
  9 10  1  0
 10 11  2  0
 10 12  1  0
 12 13  1  0
 13 14  1  0
 14 15  1  0
 15 16  1  0
 16 17  1  0
  9 18  2  0
  4 19  2  0
 19 20  1  0
 20 21  2  0
 21 22  1  0
 22 23  1  0
 23 24  1  0
 24 25  1  0
 25 26  1  0
 26 27  1  0
 27 28  1  0
 22 29  2  0
 29 30  1  0
 30 31  2  0
 31  2  1  0
 18  5  1  0
 31 20  1  0
 17 12  1  0
 28 23  1  0
  3 32  1  0
  3 33  1  0
  6 34  1  0
  7 35  1  0
  8 36  1  0
 13 37  1  0
 13 38  1  0
 14 39  1  0
 14 40  1  0
 16 41  1  0
 16 42  1  0
 17 43  1  0
 17 44  1  0
 18 45  1  0
 21 46  1  0
 24 47  1  0
 24 48  1  0
 25 49  1  0
 25 50  1  0
 27 51  1  0
 27 52  1  0
 28 53  1  0
 28 54  1  0
 29 55  1  0
 30 56  1  0
M  END
>  <smiles>  (11) 
O=C1CC(c2cccc(C(=O)N3CCOCC3)c2)=Nc2cc(N3CCOCC3)ccc21

>  <score_type>  (11) 
oracle

>  <origin>  (11) 
autodockgpu

>  <m_score__min__energy>  (11) 
-8.6899999999999995

>  <m_primary>  (11) 
energy

>  <rmsd>  (11) 
7.410544254878502

>  <m_score__min__rmsd>  (11) 
7.410544254878502

>  <meeko>  (11) 
{"free_energy": -8.54, "intermolecular_energy": -9.43, "internal_energy": -0.92, "cluster_size": 48, "cluster_id": 1, "rank_in_cluster": 40}

>  <energy>  (11) 
-8.68

>  <cluster_rmsd>  (11) 
0.07

>  <cluster>  (11) 
1

$$$$

     RDKit          3D

 56 60  0  0  0  0  0  0  0  0999 V2000
  136.8900   72.7150  221.2380 O   0  0  0  0  0  0  0  0  0  0  0  0
  138.0700   72.8800  221.6300 C   0  0  0  0  0  0  0  0  0  0  0  0
  138.8560   73.9310  220.9290 C   0  0  0  0  0  0  0  0  0  0  0  0
  140.2510   73.9870  221.4490 C   0  0  0  0  0  0  0  0  0  0  0  0
  141.1930   74.9310  220.8450 C   0  0  0  0  0  0  0  0  0  0  0  0
  142.3350   74.4620  220.2440 C   0  0  0  0  0  0  0  0  0  0  0  0
  143.2490   75.3770  219.6930 C   0  0  0  0  0  0  0  0  0  0  0  0
  142.9740   76.7450  219.7680 C   0  0  0  0  0  0  0  0  0  0  0  0
  141.8300   77.2270  220.3700 C   0  0  0  0  0  0  0  0  0  0  0  0
  141.6050   78.6460  220.4810 C   0  0  0  0  0  0  0  0  0  0  0  0
  141.1930   79.2290  219.4080 O   0  0  0  0  0  0  0  0  0  0  0  0
  141.7720   79.4740  221.5910 N   0  0  0  0  0  0  0  0  0  0  0  0
  141.4710   80.9030  221.4170 C   0  0  0  0  0  0  0  0  0  0  0  0
  140.5750   81.3950  222.4990 C   0  0  0  0  0  0  0  0  0  0  0  0
  140.8280   80.8360  223.7470 O   0  0  0  0  0  0  0  0  0  0  0  0
  142.1160   80.2980  223.8150 C   0  0  0  0  0  0  0  0  0  0  0  0
  142.2140   79.0650  222.9080 C   0  0  0  0  0  0  0  0  0  0  0  0
  140.9520   76.2870  220.9030 C   0  0  0  0  0  0  0  0  0  0  0  0
  140.7000   73.2500  222.3970 N   0  0  0  0  0  0  0  0  0  0  0  0
  139.9520   72.2640  223.1010 C   0  0  0  0  0  0  0  0  0  0  0  0
  140.5140   71.5320  224.1350 C   0  0  0  0  0  0  0  0  0  0  0  0
  139.7100   70.6170  224.7660 C   0  0  0  0  0  0  0  0  0  0  0  0
  140.2440   69.8710  225.8640 N   0  0  0  0  0  0  0  0  0  0  0  0
  140.9790   70.6050  226.8730 C   0  0  0  0  0  0  0  0  0  0  0  0
  140.9780   69.9380  228.2270 C   0  0  0  0  0  0  0  0  0  0  0  0
  140.3050   68.7410  228.2390 O   0  0  0  0  0  0  0  0  0  0  0  0
  140.7180   67.9050  227.2070 C   0  0  0  0  0  0  0  0  0  0  0  0
  140.0560   68.4340  225.9560 C   0  0  0  0  0  0  0  0  0  0  0  0
  138.3950   70.3820  224.4360 C   0  0  0  0  0  0  0  0  0  0  0  0
  137.8700   71.1310  223.4020 C   0  0  0  0  0  0  0  0  0  0  0  0
  138.6300   72.0830  222.7160 C   0  0  0  0  0  0  0  0  0  0  0  0
  138.8816   73.7041  219.8530 H   0  0  0  0  0  0  0  0  0  0  0  0
  138.3759   74.9050  221.1049 H   0  0  0  0  0  0  0  0  0  0  0  0
  142.5327   73.3811  220.1942 H   0  0  0  0  0  0  0  0  0  0  0  0
  144.1699   75.0203  219.2085 H   0  0  0  0  0  0  0  0  0  0  0  0
  143.6904   77.4583  219.3345 H   0  0  0  0  0  0  0  0  0  0  0  0
  142.4108   81.4741  221.4408 H   0  0  0  0  0  0  0  0  0  0  0  0
  140.9618   81.0388  220.4515 H   0  0  0  0  0  0  0  0  0  0  0  0
  140.6965   82.4854  222.5784 H   0  0  0  0  0  0  0  0  0  0  0  0
  139.5525   81.0992  222.2216 H   0  0  0  0  0  0  0  0  0  0  0  0
  142.8447   81.0529  223.4847 H   0  0  0  0  0  0  0  0  0  0  0  0
  142.3315   80.0030  224.8526 H   0  0  0  0  0  0  0  0  0  0  0  0
  143.2541   78.7095  222.8643 H   0  0  0  0  0  0  0  0  0  0  0  0
  141.5931   78.2429  223.2935 H   0  0  0  0  0  0  0  0  0  0  0  0
  140.0305   76.6400  221.3891 H   0  0  0  0  0  0  0  0  0  0  0  0
  141.5615   71.6787  224.4372 H   0  0  0  0  0  0  0  0  0  0  0  0
  142.0214   70.7086  226.5373 H   0  0  0  0  0  0  0  0  0  0  0  0
  140.4790   71.5775  226.9924 H   0  0  0  0  0  0  0  0  0  0  0  0
  142.0202   69.7563  228.5282 H   0  0  0  0  0  0  0  0  0  0  0  0
  140.4586   70.6125  228.9237 H   0  0  0  0  0  0  0  0  0  0  0  0
  141.8127   67.9369  227.1035 H   0  0  0  0  0  0  0  0  0  0  0  0
  140.4402   66.8582  227.3993 H   0  0  0  0  0  0  0  0  0  0  0  0
  140.5036   67.9510  225.0749 H   0  0  0  0  0  0  0  0  0  0  0  0
  138.9792   68.2127  225.9962 H   0  0  0  0  0  0  0  0  0  0  0  0
  137.7913   69.6336  224.9702 H   0  0  0  0  0  0  0  0  0  0  0  0
  136.8215   70.9739  223.1088 H   0  0  0  0  0  0  0  0  0  0  0  0
  1  2  2  0
  2  3  1  0
  3  4  1  0
  4  5  1  0
  5  6  2  0
  6  7  1  0
  7  8  2  0
  8  9  1  0
  9 10  1  0
 10 11  2  0
 10 12  1  0
 12 13  1  0
 13 14  1  0
 14 15  1  0
 15 16  1  0
 16 17  1  0
  9 18  2  0
  4 19  2  0
 19 20  1  0
 20 21  2  0
 21 22  1  0
 22 23  1  0
 23 24  1  0
 24 25  1  0
 25 26  1  0
 26 27  1  0
 27 28  1  0
 22 29  2  0
 29 30  1  0
 30 31  2  0
 31  2  1  0
 18  5  1  0
 31 20  1  0
 17 12  1  0
 28 23  1  0
  3 32  1  0
  3 33  1  0
  6 34  1  0
  7 35  1  0
  8 36  1  0
 13 37  1  0
 13 38  1  0
 14 39  1  0
 14 40  1  0
 16 41  1  0
 16 42  1  0
 17 43  1  0
 17 44  1  0
 18 45  1  0
 21 46  1  0
 24 47  1  0
 24 48  1  0
 25 49  1  0
 25 50  1  0
 27 51  1  0
 27 52  1  0
 28 53  1  0
 28 54  1  0
 29 55  1  0
 30 56  1  0
M  END
>  <smiles>  (12) 
O=C1CC(c2cccc(C(=O)N3CCOCC3)c2)=Nc2cc(N3CCOCC3)ccc21

>  <score_type>  (12) 
oracle

>  <origin>  (12) 
autodockgpu

>  <m_score__min__energy>  (12) 
-8.6899999999999995

>  <m_primary>  (12) 
energy

>  <rmsd>  (12) 
7.340694405101696

>  <m_score__min__rmsd>  (12) 
7.340694405101696

>  <meeko>  (12) 
{"free_energy": -8.68, "intermolecular_energy": -9.58, "internal_energy": -0.92, "cluster_size": 48, "cluster_id": 1, "rank_in_cluster": 15}

>  <energy>  (12) 
-8.68

>  <cluster_rmsd>  (12) 
0.04

>  <cluster>  (12) 
1

$$$$

     RDKit          3D

 56 60  0  0  0  0  0  0  0  0999 V2000
  136.9020   72.7030  221.2070 O   0  0  0  0  0  0  0  0  0  0  0  0
  138.0800   72.8700  221.6070 C   0  0  0  0  0  0  0  0  0  0  0  0
  138.8700   73.9200  220.9080 C   0  0  0  0  0  0  0  0  0  0  0  0
  140.2610   73.9790  221.4370 C   0  0  0  0  0  0  0  0  0  0  0  0
  141.2070   74.9220  220.8360 C   0  0  0  0  0  0  0  0  0  0  0  0
  142.3440   74.4510  220.2280 C   0  0  0  0  0  0  0  0  0  0  0  0
  143.2600   75.3640  219.6800 C   0  0  0  0  0  0  0  0  0  0  0  0
  142.9940   76.7330  219.7660 C   0  0  0  0  0  0  0  0  0  0  0  0
  141.8550   77.2180  220.3760 C   0  0  0  0  0  0  0  0  0  0  0  0
  141.6380   78.6370  220.4980 C   0  0  0  0  0  0  0  0  0  0  0  0
  141.2400   79.2330  219.4270 O   0  0  0  0  0  0  0  0  0  0  0  0
  141.8010   79.4530  221.6170 N   0  0  0  0  0  0  0  0  0  0  0  0
  141.5110   80.8860  221.4530 C   0  0  0  0  0  0  0  0  0  0  0  0
  140.6090   81.3750  222.5320 C   0  0  0  0  0  0  0  0  0  0  0  0
  140.8470   80.8020  223.7770 O   0  0  0  0  0  0  0  0  0  0  0  0
  142.1310   80.2550  223.8520 C   0  0  0  0  0  0  0  0  0  0  0  0
  142.2280   79.0290  222.9330 C   0  0  0  0  0  0  0  0  0  0  0  0
  140.9730   76.2790  220.9050 C   0  0  0  0  0  0  0  0  0  0  0  0
  140.7040   73.2460  222.3910 N   0  0  0  0  0  0  0  0  0  0  0  0
  139.9530   72.2610  223.0930 C   0  0  0  0  0  0  0  0  0  0  0  0
  140.5080   71.5330  224.1330 C   0  0  0  0  0  0  0  0  0  0  0  0
  139.7010   70.6190  224.7610 C   0  0  0  0  0  0  0  0  0  0  0  0
  140.2280   69.8780  225.8650 N   0  0  0  0  0  0  0  0  0  0  0  0
  140.9530   70.6160  226.8790 C   0  0  0  0  0  0  0  0  0  0  0  0
  140.9430   69.9520  228.2350 C   0  0  0  0  0  0  0  0  0  0  0  0
  140.2730   68.7530  228.2430 O   0  0  0  0  0  0  0  0  0  0  0  0
  140.6970   67.9160  227.2170 C   0  0  0  0  0  0  0  0  0  0  0  0
  140.0440   68.4400  225.9590 C   0  0  0  0  0  0  0  0  0  0  0  0
  138.3890   70.3820  224.4240 C   0  0  0  0  0  0  0  0  0  0  0  0
  137.8700   71.1270  223.3830 C   0  0  0  0  0  0  0  0  0  0  0  0
  138.6330   72.0770  222.6990 C   0  0  0  0  0  0  0  0  0  0  0  0
  138.9030   73.6899  219.8328 H   0  0  0  0  0  0  0  0  0  0  0  0
  138.3878   74.8940  221.0778 H   0  0  0  0  0  0  0  0  0  0  0  0
  142.5359   73.3694  220.1705 H   0  0  0  0  0  0  0  0  0  0  0  0
  144.1764   75.0053  219.1886 H   0  0  0  0  0  0  0  0  0  0  0  0
  143.7133   77.4449  219.3350 H   0  0  0  0  0  0  0  0  0  0  0  0
  142.4545   81.4504  221.4896 H   0  0  0  0  0  0  0  0  0  0  0  0
  141.0108   81.0336  220.4845 H   0  0  0  0  0  0  0  0  0  0  0  0
  140.7382   82.4636  222.6228 H   0  0  0  0  0  0  0  0  0  0  0  0
  139.5866   81.0900  222.2429 H   0  0  0  0  0  0  0  0  0  0  0  0
  142.8678   81.0079  223.5355 H   0  0  0  0  0  0  0  0  0  0  0  0
  142.3357   79.9492  224.8886 H   0  0  0  0  0  0  0  0  0  0  0  0
  143.2658   78.6663  222.8950 H   0  0  0  0  0  0  0  0  0  0  0  0
  141.5975   78.2081  223.3052 H   0  0  0  0  0  0  0  0  0  0  0  0
  140.0549   76.6334  221.3965 H   0  0  0  0  0  0  0  0  0  0  0  0
  141.5530   71.6820  224.4423 H   0  0  0  0  0  0  0  0  0  0  0  0
  141.9978   70.7216  226.5515 H   0  0  0  0  0  0  0  0  0  0  0  0
  140.4491   71.5872  226.9924 H   0  0  0  0  0  0  0  0  0  0  0  0
  141.9832   69.7738  228.5452 H   0  0  0  0  0  0  0  0  0  0  0  0
  140.4167   70.6264  228.9265 H   0  0  0  0  0  0  0  0  0  0  0  0
  141.7924   67.9509  227.1226 H   0  0  0  0  0  0  0  0  0  0  0  0
  140.4207   66.8688  227.4096 H   0  0  0  0  0  0  0  0  0  0  0  0
  140.5008   67.9564  225.0830 H   0  0  0  0  0  0  0  0  0  0  0  0
  138.9677   68.2152  225.9906 H   0  0  0  0  0  0  0  0  0  0  0  0
  137.7823   69.6354  224.9575 H   0  0  0  0  0  0  0  0  0  0  0  0
  136.8237   70.9675  223.0832 H   0  0  0  0  0  0  0  0  0  0  0  0
  1  2  2  0
  2  3  1  0
  3  4  1  0
  4  5  1  0
  5  6  2  0
  6  7  1  0
  7  8  2  0
  8  9  1  0
  9 10  1  0
 10 11  2  0
 10 12  1  0
 12 13  1  0
 13 14  1  0
 14 15  1  0
 15 16  1  0
 16 17  1  0
  9 18  2  0
  4 19  2  0
 19 20  1  0
 20 21  2  0
 21 22  1  0
 22 23  1  0
 23 24  1  0
 24 25  1  0
 25 26  1  0
 26 27  1  0
 27 28  1  0
 22 29  2  0
 29 30  1  0
 30 31  2  0
 31  2  1  0
 18  5  1  0
 31 20  1  0
 17 12  1  0
 28 23  1  0
  3 32  1  0
  3 33  1  0
  6 34  1  0
  7 35  1  0
  8 36  1  0
 13 37  1  0
 13 38  1  0
 14 39  1  0
 14 40  1  0
 16 41  1  0
 16 42  1  0
 17 43  1  0
 17 44  1  0
 18 45  1  0
 21 46  1  0
 24 47  1  0
 24 48  1  0
 25 49  1  0
 25 50  1  0
 27 51  1  0
 27 52  1  0
 28 53  1  0
 28 54  1  0
 29 55  1  0
 30 56  1  0
M  END
>  <smiles>  (13) 
O=C1CC(c2cccc(C(=O)N3CCOCC3)c2)=Nc2cc(N3CCOCC3)ccc21

>  <score_type>  (13) 
oracle

>  <origin>  (13) 
autodockgpu

>  <m_score__min__energy>  (13) 
-8.6899999999999995

>  <m_primary>  (13) 
energy

>  <rmsd>  (13) 
7.344394348167436

>  <m_score__min__rmsd>  (13) 
7.344394348167436

>  <meeko>  (13) 
{"free_energy": -8.68, "intermolecular_energy": -9.58, "internal_energy": -0.92, "cluster_size": 48, "cluster_id": 1, "rank_in_cluster": 9}

>  <energy>  (13) 
-8.68

>  <cluster_rmsd>  (13) 
0.2

>  <cluster>  (13) 
1

$$$$

     RDKit          3D

 56 60  0  0  0  0  0  0  0  0999 V2000
  136.8830   72.7570  221.1780 O   0  0  0  0  0  0  0  0  0  0  0  0
  138.0640   72.9110  221.5720 C   0  0  0  0  0  0  0  0  0  0  0  0
  138.8550   73.9690  220.8850 C   0  0  0  0  0  0  0  0  0  0  0  0
  140.2500   74.0110  221.4040 C   0  0  0  0  0  0  0  0  0  0  0  0
  141.1960   74.9590  220.8140 C   0  0  0  0  0  0  0  0  0  0  0  0
  142.3580   74.4980  220.2460 C   0  0  0  0  0  0  0  0  0  0  0  0
  143.2740   75.4180  219.7070 C   0  0  0  0  0  0  0  0  0  0  0  0
  142.9820   76.7830  219.7620 C   0  0  0  0  0  0  0  0  0  0  0  0
  141.8180   77.2580  220.3310 C   0  0  0  0  0  0  0  0  0  0  0  0
  141.5740   78.6750  220.4220 C   0  0  0  0  0  0  0  0  0  0  0  0
  140.9890   79.2050  219.4030 O   0  0  0  0  0  0  0  0  0  0  0  0
  141.8840   79.5510  221.4610 N   0  0  0  0  0  0  0  0  0  0  0  0
  141.5210   80.9650  221.2820 C   0  0  0  0  0  0  0  0  0  0  0  0
  140.7860   81.4830  222.4680 C   0  0  0  0  0  0  0  0  0  0  0  0
  141.2400   80.9800  223.6840 O   0  0  0  0  0  0  0  0  0  0  0  0
  142.5370   80.4730  223.5750 C   0  0  0  0  0  0  0  0  0  0  0  0
  142.5300   79.2050  222.7100 C   0  0  0  0  0  0  0  0  0  0  0  0
  140.9380   76.3130  220.8520 C   0  0  0  0  0  0  0  0  0  0  0  0
  140.6970   73.2580  222.3410 N   0  0  0  0  0  0  0  0  0  0  0  0
  139.9450   72.2640  223.0300 C   0  0  0  0  0  0  0  0  0  0  0  0
  140.5050   71.5140  224.0530 C   0  0  0  0  0  0  0  0  0  0  0  0
  139.6970   70.5930  224.6710 C   0  0  0  0  0  0  0  0  0  0  0  0
  140.2300   69.8280  225.7570 N   0  0  0  0  0  0  0  0  0  0  0  0
  140.9870   70.5410  226.7650 C   0  0  0  0  0  0  0  0  0  0  0  0
  140.9880   69.8610  228.1130 C   0  0  0  0  0  0  0  0  0  0  0  0
  140.2940   68.6750  228.1200 O   0  0  0  0  0  0  0  0  0  0  0  0
  140.6830   67.8420  227.0780 C   0  0  0  0  0  0  0  0  0  0  0  0
  140.0180   68.3940  225.8370 C   0  0  0  0  0  0  0  0  0  0  0  0
  138.3810   70.3690  224.3390 C   0  0  0  0  0  0  0  0  0  0  0  0
  137.8590   71.1360  223.3160 C   0  0  0  0  0  0  0  0  0  0  0  0
  138.6220   72.0950  222.6440 C   0  0  0  0  0  0  0  0  0  0  0  0
  138.8785   73.7575  219.8058 H   0  0  0  0  0  0  0  0  0  0  0  0
  138.3797   74.9426  221.0755 H   0  0  0  0  0  0  0  0  0  0  0  0
  142.5701   73.4191  220.2131 H   0  0  0  0  0  0  0  0  0  0  0  0
  144.2098   75.0672  219.2473 H   0  0  0  0  0  0  0  0  0  0  0  0
  143.7010   77.5002  219.3393 H   0  0  0  0  0  0  0  0  0  0  0  0
  142.4377   81.5563  221.1409 H   0  0  0  0  0  0  0  0  0  0  0  0
  140.8675   81.0495  220.4012 H   0  0  0  0  0  0  0  0  0  0  0  0
  140.8896   82.5779  222.4871 H   0  0  0  0  0  0  0  0  0  0  0  0
  139.7412   81.1561  222.3605 H   0  0  0  0  0  0  0  0  0  0  0  0
  143.1864   81.2289  223.1093 H   0  0  0  0  0  0  0  0  0  0  0  0
  142.9152   80.2258  224.5779 H   0  0  0  0  0  0  0  0  0  0  0  0
  143.5606   78.8694  222.5225 H   0  0  0  0  0  0  0  0  0  0  0  0
  141.9965   78.3866  223.2156 H   0  0  0  0  0  0  0  0  0  0  0  0
  140.0008   76.6600  221.3117 H   0  0  0  0  0  0  0  0  0  0  0  0
  141.5533   71.6516  224.3565 H   0  0  0  0  0  0  0  0  0  0  0  0
  142.0276   70.6307  226.4199 H   0  0  0  0  0  0  0  0  0  0  0  0
  140.5047   71.5206  226.8980 H   0  0  0  0  0  0  0  0  0  0  0  0
  142.0299   69.6584  228.4019 H   0  0  0  0  0  0  0  0  0  0  0  0
  140.4876   70.5375  228.8215 H   0  0  0  0  0  0  0  0  0  0  0  0
  141.7770   67.8563  226.9646 H   0  0  0  0  0  0  0  0  0  0  0  0
  140.3894   66.7983  227.2637 H   0  0  0  0  0  0  0  0  0  0  0  0
  140.4492   67.9117  224.9474 H   0  0  0  0  0  0  0  0  0  0  0  0
  138.9381   68.1904  225.8848 H   0  0  0  0  0  0  0  0  0  0  0  0
  137.7741   69.6158  224.8627 H   0  0  0  0  0  0  0  0  0  0  0  0
  136.8098   70.9875  223.0208 H   0  0  0  0  0  0  0  0  0  0  0  0
  1  2  2  0
  2  3  1  0
  3  4  1  0
  4  5  1  0
  5  6  2  0
  6  7  1  0
  7  8  2  0
  8  9  1  0
  9 10  1  0
 10 11  2  0
 10 12  1  0
 12 13  1  0
 13 14  1  0
 14 15  1  0
 15 16  1  0
 16 17  1  0
  9 18  2  0
  4 19  2  0
 19 20  1  0
 20 21  2  0
 21 22  1  0
 22 23  1  0
 23 24  1  0
 24 25  1  0
 25 26  1  0
 26 27  1  0
 27 28  1  0
 22 29  2  0
 29 30  1  0
 30 31  2  0
 31  2  1  0
 18  5  1  0
 31 20  1  0
 17 12  1  0
 28 23  1  0
  3 32  1  0
  3 33  1  0
  6 34  1  0
  7 35  1  0
  8 36  1  0
 13 37  1  0
 13 38  1  0
 14 39  1  0
 14 40  1  0
 16 41  1  0
 16 42  1  0
 17 43  1  0
 17 44  1  0
 18 45  1  0
 21 46  1  0
 24 47  1  0
 24 48  1  0
 25 49  1  0
 25 50  1  0
 27 51  1  0
 27 52  1  0
 28 53  1  0
 28 54  1  0
 29 55  1  0
 30 56  1  0
M  END
>  <smiles>  (14) 
O=C1CC(c2cccc(C(=O)N3CCOCC3)c2)=Nc2cc(N3CCOCC3)ccc21

>  <score_type>  (14) 
oracle

>  <origin>  (14) 
autodockgpu

>  <m_score__min__energy>  (14) 
-8.6899999999999995

>  <m_primary>  (14) 
energy

>  <rmsd>  (14) 
7.385508203218703

>  <m_score__min__rmsd>  (14) 
7.385508203218703

>  <meeko>  (14) 
{"free_energy": -8.68, "intermolecular_energy": -9.57, "internal_energy": -0.91, "cluster_size": 48, "cluster_id": 1, "rank_in_cluster": 25}

>  <energy>  (14) 
-8.68

>  <cluster_rmsd>  (14) 
0.16

>  <cluster>  (14) 
1

$$$$

     RDKit          3D

 56 60  0  0  0  0  0  0  0  0999 V2000
  143.2430   74.3950  219.8490 O   0  0  0  0  0  0  0  0  0  0  0  0
  142.2190   74.2260  220.5550 C   0  0  0  0  0  0  0  0  0  0  0  0
  141.8510   72.8150  220.8550 C   0  0  0  0  0  0  0  0  0  0  0  0
  140.5930   72.7520  221.6480 C   0  0  0  0  0  0  0  0  0  0  0  0
  140.0430   71.4410  221.9990 C   0  0  0  0  0  0  0  0  0  0  0  0
  139.5510   70.6230  221.0130 C   0  0  0  0  0  0  0  0  0  0  0  0
  138.9980   69.3780  221.3620 C   0  0  0  0  0  0  0  0  0  0  0  0
  138.9630   69.0010  222.7070 C   0  0  0  0  0  0  0  0  0  0  0  0
  139.4540   69.8150  223.7060 C   0  0  0  0  0  0  0  0  0  0  0  0
  139.3510   69.4200  225.0880 C   0  0  0  0  0  0  0  0  0  0  0  0
  138.8350   68.2580  225.2970 O   0  0  0  0  0  0  0  0  0  0  0  0
  139.7320   70.1250  226.2290 N   0  0  0  0  0  0  0  0  0  0  0  0
  139.5010   69.4760  227.5290 C   0  0  0  0  0  0  0  0  0  0  0  0
  140.7280   69.5180  228.3720 C   0  0  0  0  0  0  0  0  0  0  0  0
  141.4650   70.6910  228.2470 O   0  0  0  0  0  0  0  0  0  0  0  0
  140.6890   71.7310  227.7290 C   0  0  0  0  0  0  0  0  0  0  0  0
  140.3380   71.4390  226.2640 C   0  0  0  0  0  0  0  0  0  0  0  0
  139.9930   71.0390  223.3170 C   0  0  0  0  0  0  0  0  0  0  0  0
  139.9360   73.7780  222.0480 N   0  0  0  0  0  0  0  0  0  0  0  0
  140.2920   75.1340  221.7980 C   0  0  0  0  0  0  0  0  0  0  0  0
  139.5360   76.1830  222.2950 C   0  0  0  0  0  0  0  0  0  0  0  0
  139.9670   77.4560  222.0180 C   0  0  0  0  0  0  0  0  0  0  0  0
  139.2330   78.5640  222.5470 N   0  0  0  0  0  0  0  0  0  0  0  0
  137.8340   78.6700  222.1870 C   0  0  0  0  0  0  0  0  0  0  0  0
  137.0060   79.4290  223.1950 C   0  0  0  0  0  0  0  0  0  0  0  0
  137.7440   79.9050  224.2510 O   0  0  0  0  0  0  0  0  0  0  0  0
  138.8720   80.5970  223.8240 C   0  0  0  0  0  0  0  0  0  0  0  0
  139.8720   79.5420  223.4100 C   0  0  0  0  0  0  0  0  0  0  0  0
  141.0920   77.7500  221.2830 C   0  0  0  0  0  0  0  0  0  0  0  0
  141.8210   76.6790  220.8060 C   0  0  0  0  0  0  0  0  0  0  0  0
  141.4420   75.3560  221.0510 C   0  0  0  0  0  0  0  0  0  0  0  0
  141.7085   72.2710  219.9096 H   0  0  0  0  0  0  0  0  0  0  0  0
  142.6606   72.3577  221.4428 H   0  0  0  0  0  0  0  0  0  0  0  0
  139.5888   70.9382  219.9598 H   0  0  0  0  0  0  0  0  0  0  0  0
  138.5979   68.7092  220.5857 H   0  0  0  0  0  0  0  0  0  0  0  0
  138.5310   68.0261  222.9770 H   0  0  0  0  0  0  0  0  0  0  0  0
  138.6869   69.9987  228.0524 H   0  0  0  0  0  0  0  0  0  0  0  0
  139.2328   68.4239  227.3527 H   0  0  0  0  0  0  0  0  0  0  0  0
  140.4274   69.4098  229.4246 H   0  0  0  0  0  0  0  0  0  0  0  0
  141.3764   68.6987  228.0280 H   0  0  0  0  0  0  0  0  0  0  0  0
  139.7626   71.8221  228.3151 H   0  0  0  0  0  0  0  0  0  0  0  0
  141.2577   72.6709  227.7854 H   0  0  0  0  0  0  0  0  0  0  0  0
  139.6299   72.1920  225.8877 H   0  0  0  0  0  0  0  0  0  0  0  0
  141.2362   71.4746  225.6300 H   0  0  0  0  0  0  0  0  0  0  0  0
  140.3940   71.7104  224.0906 H   0  0  0  0  0  0  0  0  0  0  0  0
  138.6270   76.0028  222.8877 H   0  0  0  0  0  0  0  0  0  0  0  0
  137.7624   79.1868  221.2186 H   0  0  0  0  0  0  0  0  0  0  0  0
  137.4333   77.6464  222.1460 H   0  0  0  0  0  0  0  0  0  0  0  0
  136.5316   80.2817  222.6871 H   0  0  0  0  0  0  0  0  0  0  0  0
  136.2639   78.7276  223.6039 H   0  0  0  0  0  0  0  0  0  0  0  0
  138.6234   81.2447  222.9704 H   0  0  0  0  0  0  0  0  0  0  0  0
  139.2731   81.2450  224.6172 H   0  0  0  0  0  0  0  0  0  0  0  0
  140.7018   80.0192  222.8680 H   0  0  0  0  0  0  0  0  0  0  0  0
  140.2555   79.0356  224.3080 H   0  0  0  0  0  0  0  0  0  0  0  0
  141.3961   78.7884  221.0849 H   0  0  0  0  0  0  0  0  0  0  0  0
  142.7282   76.8728  220.2148 H   0  0  0  0  0  0  0  0  0  0  0  0
  1  2  2  0
  2  3  1  0
  3  4  1  0
  4  5  1  0
  5  6  2  0
  6  7  1  0
  7  8  2  0
  8  9  1  0
  9 10  1  0
 10 11  2  0
 10 12  1  0
 12 13  1  0
 13 14  1  0
 14 15  1  0
 15 16  1  0
 16 17  1  0
  9 18  2  0
  4 19  2  0
 19 20  1  0
 20 21  2  0
 21 22  1  0
 22 23  1  0
 23 24  1  0
 24 25  1  0
 25 26  1  0
 26 27  1  0
 27 28  1  0
 22 29  2  0
 29 30  1  0
 30 31  2  0
 31  2  1  0
 18  5  1  0
 31 20  1  0
 17 12  1  0
 28 23  1  0
  3 32  1  0
  3 33  1  0
  6 34  1  0
  7 35  1  0
  8 36  1  0
 13 37  1  0
 13 38  1  0
 14 39  1  0
 14 40  1  0
 16 41  1  0
 16 42  1  0
 17 43  1  0
 17 44  1  0
 18 45  1  0
 21 46  1  0
 24 47  1  0
 24 48  1  0
 25 49  1  0
 25 50  1  0
 27 51  1  0
 27 52  1  0
 28 53  1  0
 28 54  1  0
 29 55  1  0
 30 56  1  0
M  END
>  <smiles>  (15) 
O=C1CC(c2cccc(C(=O)N3CCOCC3)c2)=Nc2cc(N3CCOCC3)ccc21

>  <score_type>  (15) 
oracle

>  <origin>  (15) 
autodockgpu

>  <m_score__min__energy>  (15) 
-8.6899999999999995

>  <m_primary>  (15) 
energy

>  <rmsd>  (15) 
6.8697472533489545

>  <m_score__min__rmsd>  (15) 
6.8697472533489545

>  <meeko>  (15) 
{"free_energy": -8.26, "intermolecular_energy": -9.15, "internal_energy": -0.8, "cluster_size": 1, "cluster_id": 2, "rank_in_cluster": 1}

>  <energy>  (15) 
-8.68

>  <cluster_rmsd>  (15) 
0.17

>  <cluster>  (15) 
1

$$$$

     RDKit          3D

 56 60  0  0  0  0  0  0  0  0999 V2000
  136.9440   72.5890  220.8470 O   0  0  0  0  0  0  0  0  0  0  0  0
  138.0710   72.8020  221.3550 C   0  0  0  0  0  0  0  0  0  0  0  0
  138.8950   73.8610  220.7110 C   0  0  0  0  0  0  0  0  0  0  0  0
  140.2250   73.9750  221.3720 C   0  0  0  0  0  0  0  0  0  0  0  0
  141.1970   74.9340  220.8430 C   0  0  0  0  0  0  0  0  0  0  0  0
  142.3950   74.4850  220.3450 C   0  0  0  0  0  0  0  0  0  0  0  0
  143.3340   75.4150  219.8670 C   0  0  0  0  0  0  0  0  0  0  0  0
  143.0280   76.7770  219.9090 C   0  0  0  0  0  0  0  0  0  0  0  0
  141.8280   77.2400  220.4090 C   0  0  0  0  0  0  0  0  0  0  0  0
  141.5660   78.6550  220.4910 C   0  0  0  0  0  0  0  0  0  0  0  0
  140.9400   79.1640  219.4850 O   0  0  0  0  0  0  0  0  0  0  0  0
  141.8990   79.5480  221.5090 N   0  0  0  0  0  0  0  0  0  0  0  0
  141.5100   80.9540  221.3240 C   0  0  0  0  0  0  0  0  0  0  0  0
  140.8080   81.4770  222.5280 C   0  0  0  0  0  0  0  0  0  0  0  0
  141.3090   80.9960  223.7340 O   0  0  0  0  0  0  0  0  0  0  0  0
  142.6090   80.5060  223.5880 C   0  0  0  0  0  0  0  0  0  0  0  0
  142.5910   79.2270  222.7390 C   0  0  0  0  0  0  0  0  0  0  0  0
  140.9250   76.2860  220.8720 C   0  0  0  0  0  0  0  0  0  0  0  0
  140.5940   73.2770  222.3820 N   0  0  0  0  0  0  0  0  0  0  0  0
  139.8060   72.2840  223.0310 C   0  0  0  0  0  0  0  0  0  0  0  0
  140.2780   71.5960  224.1380 C   0  0  0  0  0  0  0  0  0  0  0  0
  139.4400   70.6700  224.7060 C   0  0  0  0  0  0  0  0  0  0  0  0
  139.8780   69.9700  225.8740 N   0  0  0  0  0  0  0  0  0  0  0  0
  139.4830   68.5830  226.0070 C   0  0  0  0  0  0  0  0  0  0  0  0
  140.4190   67.7660  226.8650 C   0  0  0  0  0  0  0  0  0  0  0  0
  141.4560   68.5030  227.3840 O   0  0  0  0  0  0  0  0  0  0  0  0
  141.0060   69.6650  228.0020 C   0  0  0  0  0  0  0  0  0  0  0  0
  140.6860   70.6300  226.8840 C   0  0  0  0  0  0  0  0  0  0  0  0
  138.1750   70.3860  224.2480 C   0  0  0  0  0  0  0  0  0  0  0  0
  137.7390   71.0910  223.1440 C   0  0  0  0  0  0  0  0  0  0  0  0
  138.5380   72.0500  222.5150 C   0  0  0  0  0  0  0  0  0  0  0  0
  139.0404   73.6089  219.6502 H   0  0  0  0  0  0  0  0  0  0  0  0
  138.3703   74.8228  220.8089 H   0  0  0  0  0  0  0  0  0  0  0  0
  142.6177   73.4081  220.3204 H   0  0  0  0  0  0  0  0  0  0  0  0
  144.2992   75.0740  219.4643 H   0  0  0  0  0  0  0  0  0  0  0  0
  143.7649   77.5018  219.5326 H   0  0  0  0  0  0  0  0  0  0  0  0
  142.4128   81.5562  221.1443 H   0  0  0  0  0  0  0  0  0  0  0  0
  140.8262   81.0179  220.4647 H   0  0  0  0  0  0  0  0  0  0  0  0
  140.8969   82.5734  222.5302 H   0  0  0  0  0  0  0  0  0  0  0  0
  139.7650   81.1343  222.4597 H   0  0  0  0  0  0  0  0  0  0  0  0
  143.2316   81.2649  223.0916 H   0  0  0  0  0  0  0  0  0  0  0  0
  143.0241   80.2769  224.5806 H   0  0  0  0  0  0  0  0  0  0  0  0
  143.6194   78.9033  222.5209 H   0  0  0  0  0  0  0  0  0  0  0  0
  142.0864   78.4078  223.2722 H   0  0  0  0  0  0  0  0  0  0  0  0
  139.9590   76.6233  221.2758 H   0  0  0  0  0  0  0  0  0  0  0  0
  141.2827   71.7847  224.5442 H   0  0  0  0  0  0  0  0  0  0  0  0
  138.4800   68.5490  226.4574 H   0  0  0  0  0  0  0  0  0  0  0  0
  139.5048   68.1440  224.9987 H   0  0  0  0  0  0  0  0  0  0  0  0
  139.8442   67.3354  227.6982 H   0  0  0  0  0  0  0  0  0  0  0  0
  140.8584   66.9886  226.2226 H   0  0  0  0  0  0  0  0  0  0  0  0
  140.1051   69.4574  228.5981 H   0  0  0  0  0  0  0  0  0  0  0  0
  141.7611   70.0767  228.6878 H   0  0  0  0  0  0  0  0  0  0  0  0
  140.1309   71.4879  227.2911 H   0  0  0  0  0  0  0  0  0  0  0  0
  141.6244   70.9760  226.4261 H   0  0  0  0  0  0  0  0  0  0  0  0
  137.5405   69.6328  224.7380 H   0  0  0  0  0  0  0  0  0  0  0  0
  136.7325   70.8920  222.7474 H   0  0  0  0  0  0  0  0  0  0  0  0
  1  2  2  0
  2  3  1  0
  3  4  1  0
  4  5  1  0
  5  6  2  0
  6  7  1  0
  7  8  2  0
  8  9  1  0
  9 10  1  0
 10 11  2  0
 10 12  1  0
 12 13  1  0
 13 14  1  0
 14 15  1  0
 15 16  1  0
 16 17  1  0
  9 18  2  0
  4 19  2  0
 19 20  1  0
 20 21  2  0
 21 22  1  0
 22 23  1  0
 23 24  1  0
 24 25  1  0
 25 26  1  0
 26 27  1  0
 27 28  1  0
 22 29  2  0
 29 30  1  0
 30 31  2  0
 31  2  1  0
 18  5  1  0
 31 20  1  0
 17 12  1  0
 28 23  1  0
  3 32  1  0
  3 33  1  0
  6 34  1  0
  7 35  1  0
  8 36  1  0
 13 37  1  0
 13 38  1  0
 14 39  1  0
 14 40  1  0
 16 41  1  0
 16 42  1  0
 17 43  1  0
 17 44  1  0
 18 45  1  0
 21 46  1  0
 24 47  1  0
 24 48  1  0
 25 49  1  0
 25 50  1  0
 27 51  1  0
 27 52  1  0
 28 53  1  0
 28 54  1  0
 29 55  1  0
 30 56  1  0
M  END
>  <smiles>  (16) 
O=C1CC(c2cccc(C(=O)N3CCOCC3)c2)=Nc2cc(N3CCOCC3)ccc21

>  <score_type>  (16) 
oracle

>  <origin>  (16) 
autodockgpu

>  <m_score__min__energy>  (16) 
-8.6899999999999995

>  <m_primary>  (16) 
energy

>  <rmsd>  (16) 
7.40229330375278

>  <m_score__min__rmsd>  (16) 
7.40229330375278

>  <meeko>  (16) 
{"free_energy": -8.45, "intermolecular_energy": -9.35, "internal_energy": -0.9, "cluster_size": 48, "cluster_id": 1, "rank_in_cluster": 44}

>  <energy>  (16) 
-8.68

>  <cluster_rmsd>  (16) 
0.14

>  <cluster>  (16) 
1

$$$$

     RDKit          3D

 56 60  0  0  0  0  0  0  0  0999 V2000
  138.7550   70.8740  219.8700 O   0  0  0  0  0  0  0  0  0  0  0  0
  139.4220   71.6280  220.6190 C   0  0  0  0  0  0  0  0  0  0  0  0
  139.9920   72.8480  219.9860 C   0  0  0  0  0  0  0  0  0  0  0  0
  140.8040   73.6240  220.9640 C   0  0  0  0  0  0  0  0  0  0  0  0
  141.4880   74.8370  220.5120 C   0  0  0  0  0  0  0  0  0  0  0  0
  142.6970   74.7370  219.8690 C   0  0  0  0  0  0  0  0  0  0  0  0
  143.3610   75.9080  219.4640 C   0  0  0  0  0  0  0  0  0  0  0  0
  142.7740   77.1490  219.7240 C   0  0  0  0  0  0  0  0  0  0  0  0
  141.5600   77.2610  220.3700 C   0  0  0  0  0  0  0  0  0  0  0  0
  141.0110   78.5580  220.6740 C   0  0  0  0  0  0  0  0  0  0  0  0
  139.9700   78.8940  219.9920 O   0  0  0  0  0  0  0  0  0  0  0  0
  141.4520   79.4990  221.6030 N   0  0  0  0  0  0  0  0  0  0  0  0
  140.6950   80.7570  221.6990 C   0  0  0  0  0  0  0  0  0  0  0  0
  140.3550   81.0690  223.1140 C   0  0  0  0  0  0  0  0  0  0  0  0
  141.3460   80.7260  224.0280 O   0  0  0  0  0  0  0  0  0  0  0  0
  142.5900   80.5930  223.4070 C   0  0  0  0  0  0  0  0  0  0  0  0
  142.5860   79.3610  222.4920 C   0  0  0  0  0  0  0  0  0  0  0  0
  140.9370   76.0770  220.7540 C   0  0  0  0  0  0  0  0  0  0  0  0
  140.9600   73.2990  222.1950 N   0  0  0  0  0  0  0  0  0  0  0  0
  140.3950   72.1540  222.8240 C   0  0  0  0  0  0  0  0  0  0  0  0
  140.5950   71.8960  224.1710 C   0  0  0  0  0  0  0  0  0  0  0  0
  139.9950   70.7770  224.6920 C   0  0  0  0  0  0  0  0  0  0  0  0
  140.1470   70.5010  226.0880 N   0  0  0  0  0  0  0  0  0  0  0  0
  140.8120   71.5020  226.8970 C   0  0  0  0  0  0  0  0  0  0  0  0
  140.4180   71.4620  228.3530 C   0  0  0  0  0  0  0  0  0  0  0  0
  139.5230   70.4600  228.6430 O   0  0  0  0  0  0  0  0  0  0  0  0
  139.9440   69.2310  228.1470 C   0  0  0  0  0  0  0  0  0  0  0  0
  139.6540   69.2630  226.6640 C   0  0  0  0  0  0  0  0  0  0  0  0
  139.2180   69.9050  223.9670 C   0  0  0  0  0  0  0  0  0  0  0  0
  139.0410   70.1940  222.6280 C   0  0  0  0  0  0  0  0  0  0  0  0
  139.6200   71.3180  222.0300 C   0  0  0  0  0  0  0  0  0  0  0  0
  140.6320   72.5505  219.1422 H   0  0  0  0  0  0  0  0  0  0  0  0
  139.1640   73.4816  219.6353 H   0  0  0  0  0  0  0  0  0  0  0  0
  143.1417   73.7502  219.6727 H   0  0  0  0  0  0  0  0  0  0  0  0
  144.3309   75.8480  218.9486 H   0  0  0  0  0  0  0  0  0  0  0  0
  143.2950   78.0635  219.4043 H   0  0  0  0  0  0  0  0  0  0  0  0
  141.3036   81.5753  221.2866 H   0  0  0  0  0  0  0  0  0  0  0  0
  139.7599   80.6473  221.1302 H   0  0  0  0  0  0  0  0  0  0  0  0
  140.1713   82.1506  223.1941 H   0  0  0  0  0  0  0  0  0  0  0  0
  139.4701   80.4663  223.3665 H   0  0  0  0  0  0  0  0  0  0  0  0
  142.7969   81.4920  222.8079 H   0  0  0  0  0  0  0  0  0  0  0  0
  143.3680   80.4720  224.1752 H   0  0  0  0  0  0  0  0  0  0  0  0
  143.5190   79.3189  221.9108 H   0  0  0  0  0  0  0  0  0  0  0  0
  142.5134   78.4346  223.0806 H   0  0  0  0  0  0  0  0  0  0  0  0
  139.9675   76.1331  221.2706 H   0  0  0  0  0  0  0  0  0  0  0  0
  141.2091   72.5605  224.7965 H   0  0  0  0  0  0  0  0  0  0  0  0
  141.8978   71.3411  226.8261 H   0  0  0  0  0  0  0  0  0  0  0  0
  140.5082   72.4849  226.5077 H   0  0  0  0  0  0  0  0  0  0  0  0
  141.3244   71.3070  228.9566 H   0  0  0  0  0  0  0  0  0  0  0  0
  139.9261   72.4180  228.5856 H   0  0  0  0  0  0  0  0  0  0  0  0
  141.0212   69.0956  228.3236 H   0  0  0  0  0  0  0  0  0  0  0  0
  139.4265   68.3962  228.6423 H   0  0  0  0  0  0  0  0  0  0  0  0
  140.1515   68.4113  226.1771 H   0  0  0  0  0  0  0  0  0  0  0  0
  138.5671   69.1997  226.5073 H   0  0  0  0  0  0  0  0  0  0  0  0
  138.7592   69.0195  224.4310 H   0  0  0  0  0  0  0  0  0  0  0  0
  138.4262   69.5199  222.0135 H   0  0  0  0  0  0  0  0  0  0  0  0
  1  2  2  0
  2  3  1  0
  3  4  1  0
  4  5  1  0
  5  6  2  0
  6  7  1  0
  7  8  2  0
  8  9  1  0
  9 10  1  0
 10 11  2  0
 10 12  1  0
 12 13  1  0
 13 14  1  0
 14 15  1  0
 15 16  1  0
 16 17  1  0
  9 18  2  0
  4 19  2  0
 19 20  1  0
 20 21  2  0
 21 22  1  0
 22 23  1  0
 23 24  1  0
 24 25  1  0
 25 26  1  0
 26 27  1  0
 27 28  1  0
 22 29  2  0
 29 30  1  0
 30 31  2  0
 31  2  1  0
 18  5  1  0
 31 20  1  0
 17 12  1  0
 28 23  1  0
  3 32  1  0
  3 33  1  0
  6 34  1  0
  7 35  1  0
  8 36  1  0
 13 37  1  0
 13 38  1  0
 14 39  1  0
 14 40  1  0
 16 41  1  0
 16 42  1  0
 17 43  1  0
 17 44  1  0
 18 45  1  0
 21 46  1  0
 24 47  1  0
 24 48  1  0
 25 49  1  0
 25 50  1  0
 27 51  1  0
 27 52  1  0
 28 53  1  0
 28 54  1  0
 29 55  1  0
 30 56  1  0
M  END
>  <smiles>  (17) 
O=C1CC(c2cccc(C(=O)N3CCOCC3)c2)=Nc2cc(N3CCOCC3)ccc21

>  <score_type>  (17) 
oracle

>  <origin>  (17) 
autodockgpu

>  <m_score__min__energy>  (17) 
-8.6899999999999995

>  <m_primary>  (17) 
energy

>  <rmsd>  (17) 
7.173350927075326

>  <m_score__min__rmsd>  (17) 
7.173350927075326

>  <meeko>  (17) 
{"free_energy": -8.27, "intermolecular_energy": -9.16, "internal_energy": -0.9, "cluster_size": 48, "cluster_id": 1, "rank_in_cluster": 48}

>  <energy>  (17) 
-8.68

>  <cluster_rmsd>  (17) 
0.16

>  <cluster>  (17) 
1

$$$$

     RDKit          3D

 56 60  0  0  0  0  0  0  0  0999 V2000
  136.8680   72.8320  221.2530 O   0  0  0  0  0  0  0  0  0  0  0  0
  138.0570   72.9650  221.6300 C   0  0  0  0  0  0  0  0  0  0  0  0
  138.8540   74.0150  220.9400 C   0  0  0  0  0  0  0  0  0  0  0  0
  140.2570   74.0320  221.4380 C   0  0  0  0  0  0  0  0  0  0  0  0
  141.2090   74.9700  220.8400 C   0  0  0  0  0  0  0  0  0  0  0  0
  142.3730   74.4980  220.2850 C   0  0  0  0  0  0  0  0  0  0  0  0
  143.2940   75.4080  219.7400 C   0  0  0  0  0  0  0  0  0  0  0  0
  143.0060   76.7750  219.7740 C   0  0  0  0  0  0  0  0  0  0  0  0
  141.8400   77.2600  220.3290 C   0  0  0  0  0  0  0  0  0  0  0  0
  141.5980   78.6790  220.3990 C   0  0  0  0  0  0  0  0  0  0  0  0
  141.0700   79.2060  219.3480 O   0  0  0  0  0  0  0  0  0  0  0  0
  141.8590   79.5600  221.4480 N   0  0  0  0  0  0  0  0  0  0  0  0
  141.5140   80.9740  221.2410 C   0  0  0  0  0  0  0  0  0  0  0  0
  140.7210   81.5030  222.3850 C   0  0  0  0  0  0  0  0  0  0  0  0
  141.1080   81.0060  223.6250 O   0  0  0  0  0  0  0  0  0  0  0  0
  142.4070   80.4920  223.5870 C   0  0  0  0  0  0  0  0  0  0  0  0
  142.4380   79.2190  222.7300 C   0  0  0  0  0  0  0  0  0  0  0  0
  140.9540   76.3250  220.8580 C   0  0  0  0  0  0  0  0  0  0  0  0
  140.7050   73.2660  222.3630 N   0  0  0  0  0  0  0  0  0  0  0  0
  139.9490   72.2790  223.0570 C   0  0  0  0  0  0  0  0  0  0  0  0
  140.5120   71.5130  224.0650 C   0  0  0  0  0  0  0  0  0  0  0  0
  139.6990   70.6000  224.6890 C   0  0  0  0  0  0  0  0  0  0  0  0
  140.2350   69.8200  225.7610 N   0  0  0  0  0  0  0  0  0  0  0  0
  141.0000   70.5170  226.7760 C   0  0  0  0  0  0  0  0  0  0  0  0
  141.0060   69.8190  228.1140 C   0  0  0  0  0  0  0  0  0  0  0  0
  140.3100   68.6350  228.1090 O   0  0  0  0  0  0  0  0  0  0  0  0
  140.6910   67.8150  227.0530 C   0  0  0  0  0  0  0  0  0  0  0  0
  140.0200   68.3850  225.8240 C   0  0  0  0  0  0  0  0  0  0  0  0
  138.3750   70.4000  224.3750 C   0  0  0  0  0  0  0  0  0  0  0  0
  137.8490   71.1810  223.3660 C   0  0  0  0  0  0  0  0  0  0  0  0
  138.6180   72.1330  222.6890 C   0  0  0  0  0  0  0  0  0  0  0  0
  138.8582   73.8114  219.8590 H   0  0  0  0  0  0  0  0  0  0  0  0
  138.3969   74.9942  221.1454 H   0  0  0  0  0  0  0  0  0  0  0  0
  142.5821   73.4182  220.2674 H   0  0  0  0  0  0  0  0  0  0  0  0
  144.2318   75.0484  219.2913 H   0  0  0  0  0  0  0  0  0  0  0  0
  143.7296   77.4844  219.3461 H   0  0  0  0  0  0  0  0  0  0  0  0
  142.4400   81.5597  221.1439 H   0  0  0  0  0  0  0  0  0  0  0  0
  140.9080   81.0566  220.3267 H   0  0  0  0  0  0  0  0  0  0  0  0
  140.8292   82.5975  222.4030 H   0  0  0  0  0  0  0  0  0  0  0  0
  139.6816   81.1801  222.2254 H   0  0  0  0  0  0  0  0  0  0  0  0
  143.0838   81.2419  223.1515 H   0  0  0  0  0  0  0  0  0  0  0  0
  142.7314   80.2491  224.6097 H   0  0  0  0  0  0  0  0  0  0  0  0
  143.4752   78.8775  222.5976 H   0  0  0  0  0  0  0  0  0  0  0  0
  141.8750   78.4063  223.2122 H   0  0  0  0  0  0  0  0  0  0  0  0
  140.0151   76.6808  221.3073 H   0  0  0  0  0  0  0  0  0  0  0  0
  141.5669   71.6317  224.3533 H   0  0  0  0  0  0  0  0  0  0  0  0
  142.0391   70.6082  226.4268 H   0  0  0  0  0  0  0  0  0  0  0  0
  140.5211   71.4960  226.9252 H   0  0  0  0  0  0  0  0  0  0  0  0
  142.0489   69.6105  228.3950 H   0  0  0  0  0  0  0  0  0  0  0  0
  140.5102   70.4870  228.8337 H   0  0  0  0  0  0  0  0  0  0  0  0
  141.7844   67.8284  226.9331 H   0  0  0  0  0  0  0  0  0  0  0  0
  140.3962   66.7695  227.2263 H   0  0  0  0  0  0  0  0  0  0  0  0
  140.4444   67.9133  224.9255 H   0  0  0  0  0  0  0  0  0  0  0  0
  138.9398   68.1837  225.8763 H   0  0  0  0  0  0  0  0  0  0  0  0
  137.7642   69.6529  224.9031 H   0  0  0  0  0  0  0  0  0  0  0  0
  136.7933   71.0508  223.0859 H   0  0  0  0  0  0  0  0  0  0  0  0
  1  2  2  0
  2  3  1  0
  3  4  1  0
  4  5  1  0
  5  6  2  0
  6  7  1  0
  7  8  2  0
  8  9  1  0
  9 10  1  0
 10 11  2  0
 10 12  1  0
 12 13  1  0
 13 14  1  0
 14 15  1  0
 15 16  1  0
 16 17  1  0
  9 18  2  0
  4 19  2  0
 19 20  1  0
 20 21  2  0
 21 22  1  0
 22 23  1  0
 23 24  1  0
 24 25  1  0
 25 26  1  0
 26 27  1  0
 27 28  1  0
 22 29  2  0
 29 30  1  0
 30 31  2  0
 31  2  1  0
 18  5  1  0
 31 20  1  0
 17 12  1  0
 28 23  1  0
  3 32  1  0
  3 33  1  0
  6 34  1  0
  7 35  1  0
  8 36  1  0
 13 37  1  0
 13 38  1  0
 14 39  1  0
 14 40  1  0
 16 41  1  0
 16 42  1  0
 17 43  1  0
 17 44  1  0
 18 45  1  0
 21 46  1  0
 24 47  1  0
 24 48  1  0
 25 49  1  0
 25 50  1  0
 27 51  1  0
 27 52  1  0
 28 53  1  0
 28 54  1  0
 29 55  1  0
 30 56  1  0
M  END
>  <smiles>  (18) 
O=C1CC(c2cccc(C(=O)N3CCOCC3)c2)=Nc2cc(N3CCOCC3)ccc21

>  <score_type>  (18) 
oracle

>  <origin>  (18) 
autodockgpu

>  <m_score__min__energy>  (18) 
-8.6899999999999995

>  <m_primary>  (18) 
energy

>  <rmsd>  (18) 
7.3870616682326515

>  <m_score__min__rmsd>  (18) 
7.3870616682326515

>  <meeko>  (18) 
{"free_energy": -8.67, "intermolecular_energy": -9.57, "internal_energy": -0.91, "cluster_size": 48, "cluster_id": 1, "rank_in_cluster": 31}

>  <energy>  (18) 
-8.68

>  <cluster_rmsd>  (18) 
0.17

>  <cluster>  (18) 
1

$$$$

     RDKit          3D

 56 60  0  0  0  0  0  0  0  0999 V2000
  136.8920   72.9020  221.2820 O   0  0  0  0  0  0  0  0  0  0  0  0
  138.0870   73.0070  221.6490 C   0  0  0  0  0  0  0  0  0  0  0  0
  138.9000   74.0450  220.9580 C   0  0  0  0  0  0  0  0  0  0  0  0
  140.3070   74.0290  221.4440 C   0  0  0  0  0  0  0  0  0  0  0  0
  141.2740   74.9500  220.8440 C   0  0  0  0  0  0  0  0  0  0  0  0
  142.4460   74.4630  220.3210 C   0  0  0  0  0  0  0  0  0  0  0  0
  143.3810   75.3570  219.7730 C   0  0  0  0  0  0  0  0  0  0  0  0
  143.0960   76.7250  219.7720 C   0  0  0  0  0  0  0  0  0  0  0  0
  141.9220   77.2270  220.2950 C   0  0  0  0  0  0  0  0  0  0  0  0
  141.6850   78.6480  220.3290 C   0  0  0  0  0  0  0  0  0  0  0  0
  141.2170   79.1600  219.2430 O   0  0  0  0  0  0  0  0  0  0  0  0
  141.8940   79.5440  221.3760 N   0  0  0  0  0  0  0  0  0  0  0  0
  141.5670   80.9570  221.1290 C   0  0  0  0  0  0  0  0  0  0  0  0
  140.7170   81.5070  222.2200 C   0  0  0  0  0  0  0  0  0  0  0  0
  141.0340   81.0280  223.4870 O   0  0  0  0  0  0  0  0  0  0  0  0
  142.3300   80.5080  223.5270 C   0  0  0  0  0  0  0  0  0  0  0  0
  142.4010   79.2210  222.6930 C   0  0  0  0  0  0  0  0  0  0  0  0
  141.0230   76.3060  220.8270 C   0  0  0  0  0  0  0  0  0  0  0  0
  140.7470   73.2470  222.3610 N   0  0  0  0  0  0  0  0  0  0  0  0
  139.9760   72.2730  223.0550 C   0  0  0  0  0  0  0  0  0  0  0  0
  140.5310   71.4890  224.0540 C   0  0  0  0  0  0  0  0  0  0  0  0
  139.7050   70.5890  224.6790 C   0  0  0  0  0  0  0  0  0  0  0  0
  140.2340   69.7910  225.7420 N   0  0  0  0  0  0  0  0  0  0  0  0
  140.9780   70.4730  226.7810 C   0  0  0  0  0  0  0  0  0  0  0  0
  140.9730   69.7470  228.1040 C   0  0  0  0  0  0  0  0  0  0  0  0
  140.2880   68.5570  228.0650 O   0  0  0  0  0  0  0  0  0  0  0  0
  140.6900   67.7630  226.9970 C   0  0  0  0  0  0  0  0  0  0  0  0
  140.0310   68.3530  225.7710 C   0  0  0  0  0  0  0  0  0  0  0  0
  138.3750   70.4190  224.3760 C   0  0  0  0  0  0  0  0  0  0  0  0
  137.8570   71.2170  223.3760 C   0  0  0  0  0  0  0  0  0  0  0  0
  138.6390   72.1570  222.6980 C   0  0  0  0  0  0  0  0  0  0  0  0
  138.8906   73.8482  219.8758 H   0  0  0  0  0  0  0  0  0  0  0  0
  138.4653   75.0323  221.1730 H   0  0  0  0  0  0  0  0  0  0  0  0
  142.6513   73.3824  220.3309 H   0  0  0  0  0  0  0  0  0  0  0  0
  144.3257   74.9847  219.3500 H   0  0  0  0  0  0  0  0  0  0  0  0
  143.8295   77.4225  219.3414 H   0  0  0  0  0  0  0  0  0  0  0  0
  142.4997   81.5374  221.0725 H   0  0  0  0  0  0  0  0  0  0  0  0
  141.0110   81.0275  220.1825 H   0  0  0  0  0  0  0  0  0  0  0  0
  140.8298   82.6012  222.2268 H   0  0  0  0  0  0  0  0  0  0  0  0
  139.6862   81.1859  222.0097 H   0  0  0  0  0  0  0  0  0  0  0  0
  143.0330   81.2480  223.1168 H   0  0  0  0  0  0  0  0  0  0  0  0
  142.5974   80.2800  224.5694 H   0  0  0  0  0  0  0  0  0  0  0  0
  143.4421   78.8730  222.6225 H   0  0  0  0  0  0  0  0  0  0  0  0
  141.8086   78.4185  223.1567 H   0  0  0  0  0  0  0  0  0  0  0  0
  140.0766   76.6741  221.2498 H   0  0  0  0  0  0  0  0  0  0  0  0
  141.5904   71.5843  224.3344 H   0  0  0  0  0  0  0  0  0  0  0  0
  142.0207   70.5814  226.4479 H   0  0  0  0  0  0  0  0  0  0  0  0
  140.4876   71.4440  226.9443 H   0  0  0  0  0  0  0  0  0  0  0  0
  142.0140   69.5419  228.3943 H   0  0  0  0  0  0  0  0  0  0  0  0
  140.4617   70.3952  228.8309 H   0  0  0  0  0  0  0  0  0  0  0  0
  141.7847   67.7880  226.8924 H   0  0  0  0  0  0  0  0  0  0  0  0
  140.4015   66.7118  227.1442 H   0  0  0  0  0  0  0  0  0  0  0  0
  140.4722   67.9045  224.8687 H   0  0  0  0  0  0  0  0  0  0  0  0
  138.9521   68.1410  225.8033 H   0  0  0  0  0  0  0  0  0  0  0  0
  137.7531   69.6821  224.9053 H   0  0  0  0  0  0  0  0  0  0  0  0
  136.7965   71.1102  223.1042 H   0  0  0  0  0  0  0  0  0  0  0  0
  1  2  2  0
  2  3  1  0
  3  4  1  0
  4  5  1  0
  5  6  2  0
  6  7  1  0
  7  8  2  0
  8  9  1  0
  9 10  1  0
 10 11  2  0
 10 12  1  0
 12 13  1  0
 13 14  1  0
 14 15  1  0
 15 16  1  0
 16 17  1  0
  9 18  2  0
  4 19  2  0
 19 20  1  0
 20 21  2  0
 21 22  1  0
 22 23  1  0
 23 24  1  0
 24 25  1  0
 25 26  1  0
 26 27  1  0
 27 28  1  0
 22 29  2  0
 29 30  1  0
 30 31  2  0
 31  2  1  0
 18  5  1  0
 31 20  1  0
 17 12  1  0
 28 23  1  0
  3 32  1  0
  3 33  1  0
  6 34  1  0
  7 35  1  0
  8 36  1  0
 13 37  1  0
 13 38  1  0
 14 39  1  0
 14 40  1  0
 16 41  1  0
 16 42  1  0
 17 43  1  0
 17 44  1  0
 18 45  1  0
 21 46  1  0
 24 47  1  0
 24 48  1  0
 25 49  1  0
 25 50  1  0
 27 51  1  0
 27 52  1  0
 28 53  1  0
 28 54  1  0
 29 55  1  0
 30 56  1  0
M  END
>  <smiles>  (19) 
O=C1CC(c2cccc(C(=O)N3CCOCC3)c2)=Nc2cc(N3CCOCC3)ccc21

>  <score_type>  (19) 
oracle

>  <origin>  (19) 
autodockgpu

>  <m_score__min__energy>  (19) 
-8.6899999999999995

>  <m_primary>  (19) 
energy

>  <rmsd>  (19) 
7.390348871418047

>  <m_score__min__rmsd>  (19) 
7.390348871418047

>  <meeko>  (19) 
{"free_energy": -8.63, "intermolecular_energy": -9.52, "internal_energy": -0.92, "cluster_size": 48, "cluster_id": 1, "rank_in_cluster": 38}

>  <energy>  (19) 
-8.68

>  <cluster_rmsd>  (19) 
0.16

>  <cluster>  (19) 
1

$$$$

     RDKit          3D

 56 60  0  0  0  0  0  0  0  0999 V2000
  142.1650   72.7980  219.2920 O   0  0  0  0  0  0  0  0  0  0  0  0
  141.4330   73.1970  220.2300 C   0  0  0  0  0  0  0  0  0  0  0  0
  140.5910   72.1640  220.8930 C   0  0  0  0  0  0  0  0  0  0  0  0
  139.7320   72.7740  221.9450 C   0  0  0  0  0  0  0  0  0  0  0  0
  138.7950   71.9200  222.6770 C   0  0  0  0  0  0  0  0  0  0  0  0
  137.4540   72.2150  222.6680 C   0  0  0  0  0  0  0  0  0  0  0  0
  136.5650   71.4070  223.3970 C   0  0  0  0  0  0  0  0  0  0  0  0
  137.0670   70.3180  224.1150 C   0  0  0  0  0  0  0  0  0  0  0  0
  138.4120   70.0120  224.1320 C   0  0  0  0  0  0  0  0  0  0  0  0
  138.9030   68.9170  224.9290 C   0  0  0  0  0  0  0  0  0  0  0  0
  138.8620   67.7570  224.3660 O   0  0  0  0  0  0  0  0  0  0  0  0
  139.4150   68.9390  226.2250 N   0  0  0  0  0  0  0  0  0  0  0  0
  139.8410   67.6560  226.8040 C   0  0  0  0  0  0  0  0  0  0  0  0
  141.2070   67.7600  227.3870 C   0  0  0  0  0  0  0  0  0  0  0  0
  141.4710   68.9780  228.0050 O   0  0  0  0  0  0  0  0  0  0  0  0
  140.2920   69.6480  228.3410 C   0  0  0  0  0  0  0  0  0  0  0  0
  139.5730   70.1080  227.0650 C   0  0  0  0  0  0  0  0  0  0  0  0
  139.2570   70.8390  223.3960 C   0  0  0  0  0  0  0  0  0  0  0  0
  139.7440   74.0180  222.2580 N   0  0  0  0  0  0  0  0  0  0  0  0
  140.5660   75.0120  221.6580 C   0  0  0  0  0  0  0  0  0  0  0  0
  140.5330   76.3310  222.0810 C   0  0  0  0  0  0  0  0  0  0  0  0
  141.3750   77.2150  221.4540 C   0  0  0  0  0  0  0  0  0  0  0  0
  141.3960   78.5770  221.8920 N   0  0  0  0  0  0  0  0  0  0  0  0
  141.3900   78.8180  223.3210 C   0  0  0  0  0  0  0  0  0  0  0  0
  142.0060   80.1380  223.7140 C   0  0  0  0  0  0  0  0  0  0  0  0
  142.4290   80.8790  222.6360 O   0  0  0  0  0  0  0  0  0  0  0  0
  141.4390   80.9940  221.6670 C   0  0  0  0  0  0  0  0  0  0  0  0
  141.4190   79.6700  220.9370 C   0  0  0  0  0  0  0  0  0  0  0  0
  142.2400   76.8740  220.4400 C   0  0  0  0  0  0  0  0  0  0  0  0
  142.2460   75.5510  220.0460 C   0  0  0  0  0  0  0  0  0  0  0  0
  141.4170   74.5960  220.6410 C   0  0  0  0  0  0  0  0  0  0  0  0
  139.9504   71.6832  220.1390 H   0  0  0  0  0  0  0  0  0  0  0  0
  141.2517   71.4221  221.3652 H   0  0  0  0  0  0  0  0  0  0  0  0
  137.0790   73.0760  222.0953 H   0  0  0  0  0  0  0  0  0  0  0  0
  135.4876   71.6288  223.4025 H   0  0  0  0  0  0  0  0  0  0  0  0
  136.3688   69.6861  224.6835 H   0  0  0  0  0  0  0  0  0  0  0  0
  139.1337   67.3659  227.5949 H   0  0  0  0  0  0  0  0  0  0  0  0
  139.8580   66.8999  226.0052 H   0  0  0  0  0  0  0  0  0  0  0  0
  141.3252   66.9612  228.1339 H   0  0  0  0  0  0  0  0  0  0  0  0
  141.9158   67.6691  226.5507 H   0  0  0  0  0  0  0  0  0  0  0  0
  139.6352   68.9702  228.9060 H   0  0  0  0  0  0  0  0  0  0  0  0
  140.5364   70.5262  228.9566 H   0  0  0  0  0  0  0  0  0  0  0  0
  138.5882   70.5286  227.3167 H   0  0  0  0  0  0  0  0  0  0  0  0
  140.1504   70.8886  226.5480 H   0  0  0  0  0  0  0  0  0  0  0  0
  140.3351   70.6208  223.3883 H   0  0  0  0  0  0  0  0  0  0  0  0
  139.8590   76.6566  222.8870 H   0  0  0  0  0  0  0  0  0  0  0  0
  140.3475   78.8027  223.6718 H   0  0  0  0  0  0  0  0  0  0  0  0
  141.9991   78.0275  223.7838 H   0  0  0  0  0  0  0  0  0  0  0  0
  141.2568   80.7226  224.2681 H   0  0  0  0  0  0  0  0  0  0  0  0
  142.8920   79.9164  224.3271 H   0  0  0  0  0  0  0  0  0  0  0  0
  140.4635   81.1865  222.1374 H   0  0  0  0  0  0  0  0  0  0  0  0
  141.6396   81.8306  220.9815 H   0  0  0  0  0  0  0  0  0  0  0  0
  140.5225   79.6177  220.3018 H   0  0  0  0  0  0  0  0  0  0  0  0
  142.3223   79.5870  220.3148 H   0  0  0  0  0  0  0  0  0  0  0  0
  142.8953   77.6197  219.9661 H   0  0  0  0  0  0  0  0  0  0  0  0
  142.9245   75.2386  219.2385 H   0  0  0  0  0  0  0  0  0  0  0  0
  1  2  2  0
  2  3  1  0
  3  4  1  0
  4  5  1  0
  5  6  2  0
  6  7  1  0
  7  8  2  0
  8  9  1  0
  9 10  1  0
 10 11  2  0
 10 12  1  0
 12 13  1  0
 13 14  1  0
 14 15  1  0
 15 16  1  0
 16 17  1  0
  9 18  2  0
  4 19  2  0
 19 20  1  0
 20 21  2  0
 21 22  1  0
 22 23  1  0
 23 24  1  0
 24 25  1  0
 25 26  1  0
 26 27  1  0
 27 28  1  0
 22 29  2  0
 29 30  1  0
 30 31  2  0
 31  2  1  0
 18  5  1  0
 31 20  1  0
 17 12  1  0
 28 23  1  0
  3 32  1  0
  3 33  1  0
  6 34  1  0
  7 35  1  0
  8 36  1  0
 13 37  1  0
 13 38  1  0
 14 39  1  0
 14 40  1  0
 16 41  1  0
 16 42  1  0
 17 43  1  0
 17 44  1  0
 18 45  1  0
 21 46  1  0
 24 47  1  0
 24 48  1  0
 25 49  1  0
 25 50  1  0
 27 51  1  0
 27 52  1  0
 28 53  1  0
 28 54  1  0
 29 55  1  0
 30 56  1  0
M  END
>  <smiles>  (20) 
O=C1CC(c2cccc(C(=O)N3CCOCC3)c2)=Nc2cc(N3CCOCC3)ccc21

>  <score_type>  (20) 
oracle

>  <origin>  (20) 
autodockgpu

>  <m_score__min__energy>  (20) 
-8.6899999999999995

>  <m_primary>  (20) 
energy

>  <rmsd>  (20) 
6.899810486354538

>  <m_score__min__rmsd>  (20) 
6.899810486354538

>  <meeko>  (20) 
{"free_energy": -8.44, "intermolecular_energy": -9.34, "internal_energy": -0.91, "cluster_size": 48, "cluster_id": 1, "rank_in_cluster": 45}

>  <energy>  (20) 
-8.68

>  <cluster_rmsd>  (20) 
0.16

>  <cluster>  (20) 
1

$$$$

     RDKit          3D

 56 60  0  0  0  0  0  0  0  0999 V2000
  136.9560   72.5850  221.1110 O   0  0  0  0  0  0  0  0  0  0  0  0
  138.1160   72.7990  221.5390 C   0  0  0  0  0  0  0  0  0  0  0  0
  138.8940   73.8550  220.8370 C   0  0  0  0  0  0  0  0  0  0  0  0
  140.2660   73.9700  221.4020 C   0  0  0  0  0  0  0  0  0  0  0  0
  141.2000   74.9270  220.8060 C   0  0  0  0  0  0  0  0  0  0  0  0
  142.3390   74.4730  220.1880 C   0  0  0  0  0  0  0  0  0  0  0  0
  143.2440   75.4000  219.6440 C   0  0  0  0  0  0  0  0  0  0  0  0
  142.9640   76.7660  219.7430 C   0  0  0  0  0  0  0  0  0  0  0  0
  141.8230   77.2330  220.3620 C   0  0  0  0  0  0  0  0  0  0  0  0
  141.5920   78.6490  220.4980 C   0  0  0  0  0  0  0  0  0  0  0  0
  141.1430   79.2430  219.4450 O   0  0  0  0  0  0  0  0  0  0  0  0
  141.7890   79.4650  221.6110 N   0  0  0  0  0  0  0  0  0  0  0  0
  141.4740   80.8940  221.4640 C   0  0  0  0  0  0  0  0  0  0  0  0
  140.6100   81.3680  222.5800 C   0  0  0  0  0  0  0  0  0  0  0  0
  140.9060   80.7950  223.8130 O   0  0  0  0  0  0  0  0  0  0  0  0
  142.1980   80.2650  223.8330 C   0  0  0  0  0  0  0  0  0  0  0  0
  142.2750   79.0430  222.9080 C   0  0  0  0  0  0  0  0  0  0  0  0
  140.9530   76.2810  220.8870 C   0  0  0  0  0  0  0  0  0  0  0  0
  140.7040   73.2730  222.3860 N   0  0  0  0  0  0  0  0  0  0  0  0
  139.9640   72.2820  223.0900 C   0  0  0  0  0  0  0  0  0  0  0  0
  140.5110   71.5960  224.1620 C   0  0  0  0  0  0  0  0  0  0  0  0
  139.7140   70.6720  224.7900 C   0  0  0  0  0  0  0  0  0  0  0  0
  140.2330   69.9730  225.9250 N   0  0  0  0  0  0  0  0  0  0  0  0
  140.9060   70.7570  226.9400 C   0  0  0  0  0  0  0  0  0  0  0  0
  140.8780   70.1250  228.3110 C   0  0  0  0  0  0  0  0  0  0  0  0
  140.2440   68.9060  228.3300 O   0  0  0  0  0  0  0  0  0  0  0  0
  140.7220   68.0580  227.3360 C   0  0  0  0  0  0  0  0  0  0  0  0
  140.0880   68.5330  226.0490 C   0  0  0  0  0  0  0  0  0  0  0  0
  138.4200   70.3870  224.4220 C   0  0  0  0  0  0  0  0  0  0  0  0
  137.9090   71.0910  223.3500 C   0  0  0  0  0  0  0  0  0  0  0  0
  138.6620   72.0490  222.6640 C   0  0  0  0  0  0  0  0  0  0  0  0
  138.9647   73.6001  219.7693 H   0  0  0  0  0  0  0  0  0  0  0  0
  138.3782   74.8175  220.9697 H   0  0  0  0  0  0  0  0  0  0  0  0
  142.5411   73.3939  220.1195 H   0  0  0  0  0  0  0  0  0  0  0  0
  144.1621   75.0549  219.1460 H   0  0  0  0  0  0  0  0  0  0  0  0
  143.6738   77.4892  219.3151 H   0  0  0  0  0  0  0  0  0  0  0  0
  142.4107   81.4706  221.4645 H   0  0  0  0  0  0  0  0  0  0  0  0
  140.9332   81.0378  220.5170 H   0  0  0  0  0  0  0  0  0  0  0  0
  140.7281   82.4580  222.6688 H   0  0  0  0  0  0  0  0  0  0  0  0
  139.5807   81.0699  222.3317 H   0  0  0  0  0  0  0  0  0  0  0  0
  142.9110   81.0287  223.4887 H   0  0  0  0  0  0  0  0  0  0  0  0
  142.4483   79.9589  224.8595 H   0  0  0  0  0  0  0  0  0  0  0  0
  143.3153   78.6950  222.8271 H   0  0  0  0  0  0  0  0  0  0  0  0
  141.6719   78.2121  223.3028 H   0  0  0  0  0  0  0  0  0  0  0  0
  140.0336   76.6222  221.3853 H   0  0  0  0  0  0  0  0  0  0  0  0
  141.5420   71.7842  224.4962 H   0  0  0  0  0  0  0  0  0  0  0  0
  141.9559   70.8876  226.6389 H   0  0  0  0  0  0  0  0  0  0  0  0
  140.3696   71.7144  227.0157 H   0  0  0  0  0  0  0  0  0  0  0  0
  141.9140   69.9861  228.6536 H   0  0  0  0  0  0  0  0  0  0  0  0
  140.3126   70.7990  228.9713 H   0  0  0  0  0  0  0  0  0  0  0  0
  141.8180   68.1245  227.2703 H   0  0  0  0  0  0  0  0  0  0  0  0
  140.4730   67.0074  227.5461 H   0  0  0  0  0  0  0  0  0  0  0  0
  140.5818   68.0426  225.1971 H   0  0  0  0  0  0  0  0  0  0  0  0
  139.0181   68.2775  226.0580 H   0  0  0  0  0  0  0  0  0  0  0  0
  137.8211   69.6345  224.9559 H   0  0  0  0  0  0  0  0  0  0  0  0
  136.8770   70.8921  223.0253 H   0  0  0  0  0  0  0  0  0  0  0  0
  1  2  2  0
  2  3  1  0
  3  4  1  0
  4  5  1  0
  5  6  2  0
  6  7  1  0
  7  8  2  0
  8  9  1  0
  9 10  1  0
 10 11  2  0
 10 12  1  0
 12 13  1  0
 13 14  1  0
 14 15  1  0
 15 16  1  0
 16 17  1  0
  9 18  2  0
  4 19  2  0
 19 20  1  0
 20 21  2  0
 21 22  1  0
 22 23  1  0
 23 24  1  0
 24 25  1  0
 25 26  1  0
 26 27  1  0
 27 28  1  0
 22 29  2  0
 29 30  1  0
 30 31  2  0
 31  2  1  0
 18  5  1  0
 31 20  1  0
 17 12  1  0
 28 23  1  0
  3 32  1  0
  3 33  1  0
  6 34  1  0
  7 35  1  0
  8 36  1  0
 13 37  1  0
 13 38  1  0
 14 39  1  0
 14 40  1  0
 16 41  1  0
 16 42  1  0
 17 43  1  0
 17 44  1  0
 18 45  1  0
 21 46  1  0
 24 47  1  0
 24 48  1  0
 25 49  1  0
 25 50  1  0
 27 51  1  0
 27 52  1  0
 28 53  1  0
 28 54  1  0
 29 55  1  0
 30 56  1  0
M  END
>  <smiles>  (21) 
O=C1CC(c2cccc(C(=O)N3CCOCC3)c2)=Nc2cc(N3CCOCC3)ccc21

>  <score_type>  (21) 
oracle

>  <origin>  (21) 
autodockgpu

>  <m_score__min__energy>  (21) 
-8.6899999999999995

>  <m_primary>  (21) 
energy

>  <rmsd>  (21) 
7.342652105580589

>  <m_score__min__rmsd>  (21) 
7.342652105580589

>  <meeko>  (21) 
{"free_energy": -8.68, "intermolecular_energy": -9.57, "internal_energy": -0.91, "cluster_size": 48, "cluster_id": 1, "rank_in_cluster": 21}

>  <energy>  (21) 
-8.68

>  <cluster_rmsd>  (21) 
0.19

>  <cluster>  (21) 
1

$$$$

     RDKit          3D

 56 60  0  0  0  0  0  0  0  0999 V2000
  137.0240   72.5080  220.9620 O   0  0  0  0  0  0  0  0  0  0  0  0
  138.1620   72.7540  221.4300 C   0  0  0  0  0  0  0  0  0  0  0  0
  138.9350   73.8300  220.7510 C   0  0  0  0  0  0  0  0  0  0  0  0
  140.2830   73.9840  221.3640 C   0  0  0  0  0  0  0  0  0  0  0  0
  141.2100   74.9650  220.7960 C   0  0  0  0  0  0  0  0  0  0  0  0
  142.3850   74.5410  220.2270 C   0  0  0  0  0  0  0  0  0  0  0  0
  143.2830   75.4910  219.7100 C   0  0  0  0  0  0  0  0  0  0  0  0
  142.9590   76.8480  219.7890 C   0  0  0  0  0  0  0  0  0  0  0  0
  141.7820   77.2850  220.3600 C   0  0  0  0  0  0  0  0  0  0  0  0
  141.5040   78.6950  220.4750 C   0  0  0  0  0  0  0  0  0  0  0  0
  140.8550   79.2160  219.4910 O   0  0  0  0  0  0  0  0  0  0  0  0
  141.8430   79.5710  221.5050 N   0  0  0  0  0  0  0  0  0  0  0  0
  141.4340   80.9760  221.3570 C   0  0  0  0  0  0  0  0  0  0  0  0
  140.7460   81.4650  222.5830 C   0  0  0  0  0  0  0  0  0  0  0  0
  141.2740   80.9660  223.7700 O   0  0  0  0  0  0  0  0  0  0  0  0
  142.5780   80.4950  223.5920 C   0  0  0  0  0  0  0  0  0  0  0  0
  142.5610   79.2340  222.7170 C   0  0  0  0  0  0  0  0  0  0  0  0
  140.9210   76.3110  220.8580 C   0  0  0  0  0  0  0  0  0  0  0  0
  140.7050   73.3020  222.3650 N   0  0  0  0  0  0  0  0  0  0  0  0
  139.9680   72.2940  223.0460 C   0  0  0  0  0  0  0  0  0  0  0  0
  140.4950   71.6260  224.1400 C   0  0  0  0  0  0  0  0  0  0  0  0
  139.7030   70.6820  224.7430 C   0  0  0  0  0  0  0  0  0  0  0  0
  140.2000   70.0020  225.8990 N   0  0  0  0  0  0  0  0  0  0  0  0
  141.0450   70.7540  226.8040 C   0  0  0  0  0  0  0  0  0  0  0  0
  141.0280   70.2340  228.2210 C   0  0  0  0  0  0  0  0  0  0  0  0
  140.2360   69.1230  228.3790 O   0  0  0  0  0  0  0  0  0  0  0  0
  140.5200   68.1460  227.4310 C   0  0  0  0  0  0  0  0  0  0  0  0
  139.8680   68.6100  226.1490 C   0  0  0  0  0  0  0  0  0  0  0  0
  138.4310   70.3610  224.3310 C   0  0  0  0  0  0  0  0  0  0  0  0
  137.9380   71.0470  223.2390 C   0  0  0  0  0  0  0  0  0  0  0  0
  138.6890   72.0230  222.5770 C   0  0  0  0  0  0  0  0  0  0  0  0
  139.0502   73.5742  219.6874 H   0  0  0  0  0  0  0  0  0  0  0  0
  138.3885   74.7783  220.8614 H   0  0  0  0  0  0  0  0  0  0  0  0
  142.6217   73.4680  220.1760 H   0  0  0  0  0  0  0  0  0  0  0  0
  144.2288   75.1702  219.2491 H   0  0  0  0  0  0  0  0  0  0  0  0
  143.6633   77.5895  219.3839 H   0  0  0  0  0  0  0  0  0  0  0  0
  142.3265   81.5929  221.1754 H   0  0  0  0  0  0  0  0  0  0  0  0
  140.7350   81.0495  220.5108 H   0  0  0  0  0  0  0  0  0  0  0  0
  140.8208   82.5622  222.6063 H   0  0  0  0  0  0  0  0  0  0  0  0
  139.7064   81.1102  222.5253 H   0  0  0  0  0  0  0  0  0  0  0  0
  143.1829   81.2717  223.1013 H   0  0  0  0  0  0  0  0  0  0  0  0
  143.0127   80.2506  224.5725 H   0  0  0  0  0  0  0  0  0  0  0  0
  143.5895   78.9282  222.4745 H   0  0  0  0  0  0  0  0  0  0  0  0
  142.0759   78.3978  223.2418 H   0  0  0  0  0  0  0  0  0  0  0  0
  139.9737   76.6279  221.3186 H   0  0  0  0  0  0  0  0  0  0  0  0
  141.5077   71.8440  224.5100 H   0  0  0  0  0  0  0  0  0  0  0  0
  142.0788   70.7114  226.4305 H   0  0  0  0  0  0  0  0  0  0  0  0
  140.6521   71.7810  226.8331 H   0  0  0  0  0  0  0  0  0  0  0  0
  142.0569   69.9742  228.5107 H   0  0  0  0  0  0  0  0  0  0  0  0
  140.6086   71.0281  228.8562 H   0  0  0  0  0  0  0  0  0  0  0  0
  141.6073   68.0503  227.2943 H   0  0  0  0  0  0  0  0  0  0  0  0
  140.1431   67.1604  227.7418 H   0  0  0  0  0  0  0  0  0  0  0  0
  140.2290   67.9934  225.3127 H   0  0  0  0  0  0  0  0  0  0  0  0
  138.7765   68.5099  226.2419 H   0  0  0  0  0  0  0  0  0  0  0  0
  137.8346   69.5941  224.8469 H   0  0  0  0  0  0  0  0  0  0  0  0
  136.9239   70.8188  222.8790 H   0  0  0  0  0  0  0  0  0  0  0  0
  1  2  2  0
  2  3  1  0
  3  4  1  0
  4  5  1  0
  5  6  2  0
  6  7  1  0
  7  8  2  0
  8  9  1  0
  9 10  1  0
 10 11  2  0
 10 12  1  0
 12 13  1  0
 13 14  1  0
 14 15  1  0
 15 16  1  0
 16 17  1  0
  9 18  2  0
  4 19  2  0
 19 20  1  0
 20 21  2  0
 21 22  1  0
 22 23  1  0
 23 24  1  0
 24 25  1  0
 25 26  1  0
 26 27  1  0
 27 28  1  0
 22 29  2  0
 29 30  1  0
 30 31  2  0
 31  2  1  0
 18  5  1  0
 31 20  1  0
 17 12  1  0
 28 23  1  0
  3 32  1  0
  3 33  1  0
  6 34  1  0
  7 35  1  0
  8 36  1  0
 13 37  1  0
 13 38  1  0
 14 39  1  0
 14 40  1  0
 16 41  1  0
 16 42  1  0
 17 43  1  0
 17 44  1  0
 18 45  1  0
 21 46  1  0
 24 47  1  0
 24 48  1  0
 25 49  1  0
 25 50  1  0
 27 51  1  0
 27 52  1  0
 28 53  1  0
 28 54  1  0
 29 55  1  0
 30 56  1  0
M  END
>  <smiles>  (22) 
O=C1CC(c2cccc(C(=O)N3CCOCC3)c2)=Nc2cc(N3CCOCC3)ccc21

>  <score_type>  (22) 
oracle

>  <origin>  (22) 
autodockgpu

>  <m_score__min__energy>  (22) 
-8.6899999999999995

>  <m_primary>  (22) 
energy

>  <rmsd>  (22) 
7.374854562816279

>  <m_score__min__rmsd>  (22) 
7.374854562816279

>  <meeko>  (22) 
{"free_energy": -8.66, "intermolecular_energy": -9.55, "internal_energy": -0.91, "cluster_size": 48, "cluster_id": 1, "rank_in_cluster": 35}

>  <energy>  (22) 
-8.68

>  <cluster_rmsd>  (22) 
0.2

>  <cluster>  (22) 
1

$$$$

     RDKit          3D

 56 60  0  0  0  0  0  0  0  0999 V2000
  136.9000   72.6910  221.1960 O   0  0  0  0  0  0  0  0  0  0  0  0
  138.0770   72.8590  221.5960 C   0  0  0  0  0  0  0  0  0  0  0  0
  138.8640   73.9140  220.9010 C   0  0  0  0  0  0  0  0  0  0  0  0
  140.2550   73.9740  221.4290 C   0  0  0  0  0  0  0  0  0  0  0  0
  141.1980   74.9220  220.8320 C   0  0  0  0  0  0  0  0  0  0  0  0
  142.3420   74.4580  220.2310 C   0  0  0  0  0  0  0  0  0  0  0  0
  143.2550   75.3770  219.6860 C   0  0  0  0  0  0  0  0  0  0  0  0
  142.9790   76.7440  219.7690 C   0  0  0  0  0  0  0  0  0  0  0  0
  141.8340   77.2220  220.3720 C   0  0  0  0  0  0  0  0  0  0  0  0
  141.6060   78.6400  220.4910 C   0  0  0  0  0  0  0  0  0  0  0  0
  141.1780   79.2260  219.4250 O   0  0  0  0  0  0  0  0  0  0  0  0
  141.7880   79.4640  221.6000 N   0  0  0  0  0  0  0  0  0  0  0  0
  141.4810   80.8930  221.4350 C   0  0  0  0  0  0  0  0  0  0  0  0
  140.6000   81.3800  222.5320 C   0  0  0  0  0  0  0  0  0  0  0  0
  140.8730   80.8180  223.7740 O   0  0  0  0  0  0  0  0  0  0  0  0
  142.1630   80.2830  223.8220 C   0  0  0  0  0  0  0  0  0  0  0  0
  142.2500   79.0520  222.9090 C   0  0  0  0  0  0  0  0  0  0  0  0
  140.9550   76.2780  220.8980 C   0  0  0  0  0  0  0  0  0  0  0  0
  140.7010   73.2370  222.3790 N   0  0  0  0  0  0  0  0  0  0  0  0
  139.9530   72.2470  223.0760 C   0  0  0  0  0  0  0  0  0  0  0  0
  140.5110   71.5150  224.1120 C   0  0  0  0  0  0  0  0  0  0  0  0
  139.7070   70.5950  224.7370 C   0  0  0  0  0  0  0  0  0  0  0  0
  140.2370   69.8500  225.8360 N   0  0  0  0  0  0  0  0  0  0  0  0
  140.9750   70.5830  226.8450 C   0  0  0  0  0  0  0  0  0  0  0  0
  140.9700   69.9180  228.2000 C   0  0  0  0  0  0  0  0  0  0  0  0
  140.2920   68.7240  228.2130 O   0  0  0  0  0  0  0  0  0  0  0  0
  140.7020   67.8840  227.1830 C   0  0  0  0  0  0  0  0  0  0  0  0
  140.0430   68.4140  225.9310 C   0  0  0  0  0  0  0  0  0  0  0  0
  138.3950   70.3580  224.3990 C   0  0  0  0  0  0  0  0  0  0  0  0
  137.8730   71.1060  223.3630 C   0  0  0  0  0  0  0  0  0  0  0  0
  138.6340   72.0620  222.6830 C   0  0  0  0  0  0  0  0  0  0  0  0
  138.8967   73.6887  219.8248 H   0  0  0  0  0  0  0  0  0  0  0  0
  138.3796   74.8861  221.0756 H   0  0  0  0  0  0  0  0  0  0  0  0
  142.5419   73.3777  220.1766 H   0  0  0  0  0  0  0  0  0  0  0  0
  144.1764   75.0240  219.1997 H   0  0  0  0  0  0  0  0  0  0  0  0
  143.6958   77.4603  219.3409 H   0  0  0  0  0  0  0  0  0  0  0  0
  142.4198   81.4662  221.4464 H   0  0  0  0  0  0  0  0  0  0  0  0
  140.9569   81.0304  220.4777 H   0  0  0  0  0  0  0  0  0  0  0  0
  140.7203   82.4704  222.6128 H   0  0  0  0  0  0  0  0  0  0  0  0
  139.5741   81.0828  222.2691 H   0  0  0  0  0  0  0  0  0  0  0  0
  142.8853   81.0405  223.4835 H   0  0  0  0  0  0  0  0  0  0  0  0
  142.3945   79.9857  224.8554 H   0  0  0  0  0  0  0  0  0  0  0  0
  143.2900   78.6987  222.8489 H   0  0  0  0  0  0  0  0  0  0  0  0
  141.6363   78.2276  223.3010 H   0  0  0  0  0  0  0  0  0  0  0  0
  140.0322   76.6273  221.3844 H   0  0  0  0  0  0  0  0  0  0  0  0
  141.5560   71.6653  224.4209 H   0  0  0  0  0  0  0  0  0  0  0  0
  142.0181   70.6815  226.5099 H   0  0  0  0  0  0  0  0  0  0  0  0
  140.4793   71.5579  226.9624 H   0  0  0  0  0  0  0  0  0  0  0  0
  142.0112   69.7324  228.5024 H   0  0  0  0  0  0  0  0  0  0  0  0
  140.4529   70.5956  228.8953 H   0  0  0  0  0  0  0  0  0  0  0  0
  141.7968   67.9107  227.0800 H   0  0  0  0  0  0  0  0  0  0  0  0
  140.4197   66.8387  227.3771 H   0  0  0  0  0  0  0  0  0  0  0  0
  140.4889   67.9274  225.0510 H   0  0  0  0  0  0  0  0  0  0  0  0
  138.9652   68.1977  225.9716 H   0  0  0  0  0  0  0  0  0  0  0  0
  137.7902   69.6077  224.9293 H   0  0  0  0  0  0  0  0  0  0  0  0
  136.8269   70.9452  223.0633 H   0  0  0  0  0  0  0  0  0  0  0  0
  1  2  2  0
  2  3  1  0
  3  4  1  0
  4  5  1  0
  5  6  2  0
  6  7  1  0
  7  8  2  0
  8  9  1  0
  9 10  1  0
 10 11  2  0
 10 12  1  0
 12 13  1  0
 13 14  1  0
 14 15  1  0
 15 16  1  0
 16 17  1  0
  9 18  2  0
  4 19  2  0
 19 20  1  0
 20 21  2  0
 21 22  1  0
 22 23  1  0
 23 24  1  0
 24 25  1  0
 25 26  1  0
 26 27  1  0
 27 28  1  0
 22 29  2  0
 29 30  1  0
 30 31  2  0
 31  2  1  0
 18  5  1  0
 31 20  1  0
 17 12  1  0
 28 23  1  0
  3 32  1  0
  3 33  1  0
  6 34  1  0
  7 35  1  0
  8 36  1  0
 13 37  1  0
 13 38  1  0
 14 39  1  0
 14 40  1  0
 16 41  1  0
 16 42  1  0
 17 43  1  0
 17 44  1  0
 18 45  1  0
 21 46  1  0
 24 47  1  0
 24 48  1  0
 25 49  1  0
 25 50  1  0
 27 51  1  0
 27 52  1  0
 28 53  1  0
 28 54  1  0
 29 55  1  0
 30 56  1  0
M  END
>  <smiles>  (23) 
O=C1CC(c2cccc(C(=O)N3CCOCC3)c2)=Nc2cc(N3CCOCC3)ccc21

>  <score_type>  (23) 
oracle

>  <origin>  (23) 
autodockgpu

>  <m_score__min__energy>  (23) 
-8.6899999999999995

>  <m_primary>  (23) 
energy

>  <rmsd>  (23) 
7.342294683651662

>  <m_score__min__rmsd>  (23) 
7.342294683651662

>  <meeko>  (23) 
{"free_energy": -8.68, "intermolecular_energy": -9.58, "internal_energy": -0.92, "cluster_size": 48, "cluster_id": 1, "rank_in_cluster": 17}

>  <energy>  (23) 
-8.68

>  <cluster_rmsd>  (23) 
0.2

>  <cluster>  (23) 
1

$$$$

     RDKit          3D

 56 60  0  0  0  0  0  0  0  0999 V2000
  136.9590   72.5610  221.0970 O   0  0  0  0  0  0  0  0  0  0  0  0
  138.1190   72.7730  221.5270 C   0  0  0  0  0  0  0  0  0  0  0  0
  138.8970   73.8310  220.8290 C   0  0  0  0  0  0  0  0  0  0  0  0
  140.2690   73.9450  221.3970 C   0  0  0  0  0  0  0  0  0  0  0  0
  141.2040   74.9030  220.8040 C   0  0  0  0  0  0  0  0  0  0  0  0
  142.3470   74.4510  220.1920 C   0  0  0  0  0  0  0  0  0  0  0  0
  143.2520   75.3790  219.6510 C   0  0  0  0  0  0  0  0  0  0  0  0
  142.9690   76.7440  219.7480 C   0  0  0  0  0  0  0  0  0  0  0  0
  141.8250   77.2100  220.3610 C   0  0  0  0  0  0  0  0  0  0  0  0
  141.5910   78.6260  220.4950 C   0  0  0  0  0  0  0  0  0  0  0  0
  141.1630   79.2210  219.4340 O   0  0  0  0  0  0  0  0  0  0  0  0
  141.7650   79.4390  221.6130 N   0  0  0  0  0  0  0  0  0  0  0  0
  141.4520   80.8680  221.4620 C   0  0  0  0  0  0  0  0  0  0  0  0
  140.5650   81.3400  222.5610 C   0  0  0  0  0  0  0  0  0  0  0  0
  140.8360   80.7650  223.7990 O   0  0  0  0  0  0  0  0  0  0  0  0
  142.1280   80.2360  223.8450 C   0  0  0  0  0  0  0  0  0  0  0  0
  142.2240   79.0150  222.9190 C   0  0  0  0  0  0  0  0  0  0  0  0
  140.9540   76.2570  220.8830 C   0  0  0  0  0  0  0  0  0  0  0  0
  140.7060   73.2450  222.3790 N   0  0  0  0  0  0  0  0  0  0  0  0
  139.9640   72.2530  223.0800 C   0  0  0  0  0  0  0  0  0  0  0  0
  140.5090   71.5650  224.1520 C   0  0  0  0  0  0  0  0  0  0  0  0
  139.7120   70.6390  224.7760 C   0  0  0  0  0  0  0  0  0  0  0  0
  140.2280   69.9380  225.9110 N   0  0  0  0  0  0  0  0  0  0  0  0
  140.9220   70.7160  226.9170 C   0  0  0  0  0  0  0  0  0  0  0  0
  140.8950   70.0910  228.2900 C   0  0  0  0  0  0  0  0  0  0  0  0
  140.2420   68.8820  228.3210 O   0  0  0  0  0  0  0  0  0  0  0  0
  140.6980   68.0230  227.3280 C   0  0  0  0  0  0  0  0  0  0  0  0
  140.0620   68.5010  226.0430 C   0  0  0  0  0  0  0  0  0  0  0  0
  138.4180   70.3550  224.4060 C   0  0  0  0  0  0  0  0  0  0  0  0
  137.9080   71.0610  223.3340 C   0  0  0  0  0  0  0  0  0  0  0  0
  138.6630   72.0210  222.6520 C   0  0  0  0  0  0  0  0  0  0  0  0
  138.9694   73.5790  219.7607 H   0  0  0  0  0  0  0  0  0  0  0  0
  138.3804   74.7929  220.9631 H   0  0  0  0  0  0  0  0  0  0  0  0
  142.5520   73.3723  220.1260 H   0  0  0  0  0  0  0  0  0  0  0  0
  144.1727   75.0353  219.1568 H   0  0  0  0  0  0  0  0  0  0  0  0
  143.6796   77.4681  219.3229 H   0  0  0  0  0  0  0  0  0  0  0  0
  142.3881   81.4452  221.4825 H   0  0  0  0  0  0  0  0  0  0  0  0
  140.9303   81.0128  220.5045 H   0  0  0  0  0  0  0  0  0  0  0  0
  140.6809   82.4299  222.6540 H   0  0  0  0  0  0  0  0  0  0  0  0
  139.5411   81.0420  222.2912 H   0  0  0  0  0  0  0  0  0  0  0  0
  142.8475   81.0006  223.5167 H   0  0  0  0  0  0  0  0  0  0  0  0
  142.3579   79.9287  224.8759 H   0  0  0  0  0  0  0  0  0  0  0  0
  143.2658   78.6670  222.8590 H   0  0  0  0  0  0  0  0  0  0  0  0
  141.6126   78.1836  223.2999 H   0  0  0  0  0  0  0  0  0  0  0  0
  140.0318   76.5970  221.3770 H   0  0  0  0  0  0  0  0  0  0  0  0
  141.5390   71.7536  224.4891 H   0  0  0  0  0  0  0  0  0  0  0  0
  141.9714   70.8284  226.6068 H   0  0  0  0  0  0  0  0  0  0  0  0
  140.4019   71.6823  226.9926 H   0  0  0  0  0  0  0  0  0  0  0  0
  141.9315   69.9374  228.6248 H   0  0  0  0  0  0  0  0  0  0  0  0
  140.3451   70.7770  228.9511 H   0  0  0  0  0  0  0  0  0  0  0  0
  141.7944   68.0719  227.2536 H   0  0  0  0  0  0  0  0  0  0  0  0
  140.4333   66.9777  227.5453 H   0  0  0  0  0  0  0  0  0  0  0  0
  140.5422   67.9990  225.1901 H   0  0  0  0  0  0  0  0  0  0  0  0
  138.9885   68.2617  226.0606 H   0  0  0  0  0  0  0  0  0  0  0  0
  137.8183   69.6020  224.9382 H   0  0  0  0  0  0  0  0  0  0  0  0
  136.8768   70.8623  223.0066 H   0  0  0  0  0  0  0  0  0  0  0  0
  1  2  2  0
  2  3  1  0
  3  4  1  0
  4  5  1  0
  5  6  2  0
  6  7  1  0
  7  8  2  0
  8  9  1  0
  9 10  1  0
 10 11  2  0
 10 12  1  0
 12 13  1  0
 13 14  1  0
 14 15  1  0
 15 16  1  0
 16 17  1  0
  9 18  2  0
  4 19  2  0
 19 20  1  0
 20 21  2  0
 21 22  1  0
 22 23  1  0
 23 24  1  0
 24 25  1  0
 25 26  1  0
 26 27  1  0
 27 28  1  0
 22 29  2  0
 29 30  1  0
 30 31  2  0
 31  2  1  0
 18  5  1  0
 31 20  1  0
 17 12  1  0
 28 23  1  0
  3 32  1  0
  3 33  1  0
  6 34  1  0
  7 35  1  0
  8 36  1  0
 13 37  1  0
 13 38  1  0
 14 39  1  0
 14 40  1  0
 16 41  1  0
 16 42  1  0
 17 43  1  0
 17 44  1  0
 18 45  1  0
 21 46  1  0
 24 47  1  0
 24 48  1  0
 25 49  1  0
 25 50  1  0
 27 51  1  0
 27 52  1  0
 28 53  1  0
 28 54  1  0
 29 55  1  0
 30 56  1  0
M  END
>  <smiles>  (24) 
O=C1CC(c2cccc(C(=O)N3CCOCC3)c2)=Nc2cc(N3CCOCC3)ccc21

>  <score_type>  (24) 
oracle

>  <origin>  (24) 
autodockgpu

>  <m_score__min__energy>  (24) 
-8.6899999999999995

>  <m_primary>  (24) 
energy

>  <rmsd>  (24) 
7.326722795209353

>  <m_score__min__rmsd>  (24) 
7.326722795209353

>  <meeko>  (24) 
{"free_energy": -8.68, "intermolecular_energy": -9.57, "internal_energy": -0.92, "cluster_size": 48, "cluster_id": 1, "rank_in_cluster": 22}

>  <energy>  (24) 
-8.68

>  <cluster_rmsd>  (24) 
0.15

>  <cluster>  (24) 
1

$$$$

     RDKit          3D

 56 60  0  0  0  0  0  0  0  0999 V2000
  136.8940   72.7050  221.2150 O   0  0  0  0  0  0  0  0  0  0  0  0
  138.0710   72.8780  221.6120 C   0  0  0  0  0  0  0  0  0  0  0  0
  138.8490   73.9430  220.9220 C   0  0  0  0  0  0  0  0  0  0  0  0
  140.2420   74.0080  221.4470 C   0  0  0  0  0  0  0  0  0  0  0  0
  141.1770   74.9660  220.8540 C   0  0  0  0  0  0  0  0  0  0  0  0
  142.3340   74.5150  220.2680 C   0  0  0  0  0  0  0  0  0  0  0  0
  143.2400   75.4430  219.7280 C   0  0  0  0  0  0  0  0  0  0  0  0
  142.9430   76.8070  219.7990 C   0  0  0  0  0  0  0  0  0  0  0  0
  141.7840   77.2710  220.3860 C   0  0  0  0  0  0  0  0  0  0  0  0
  141.5350   78.6860  220.4930 C   0  0  0  0  0  0  0  0  0  0  0  0
  140.9210   79.2200  219.4940 O   0  0  0  0  0  0  0  0  0  0  0  0
  141.8690   79.5570  221.5300 N   0  0  0  0  0  0  0  0  0  0  0  0
  141.4940   80.9700  221.3700 C   0  0  0  0  0  0  0  0  0  0  0  0
  140.7890   81.4760  222.5790 C   0  0  0  0  0  0  0  0  0  0  0  0
  141.2770   80.9680  223.7780 O   0  0  0  0  0  0  0  0  0  0  0  0
  142.5740   80.4680  223.6320 C   0  0  0  0  0  0  0  0  0  0  0  0
  142.5500   79.2070  222.7580 C   0  0  0  0  0  0  0  0  0  0  0  0
  140.9140   76.3180  220.9080 C   0  0  0  0  0  0  0  0  0  0  0  0
  140.6950   73.2660  222.3900 N   0  0  0  0  0  0  0  0  0  0  0  0
  139.9550   72.2670  223.0820 C   0  0  0  0  0  0  0  0  0  0  0  0
  140.5210   71.5310  224.1110 C   0  0  0  0  0  0  0  0  0  0  0  0
  139.7240   70.6020  224.7320 C   0  0  0  0  0  0  0  0  0  0  0  0
  140.2620   69.8520  225.8240 N   0  0  0  0  0  0  0  0  0  0  0  0
  141.0120   70.5800  226.8280 C   0  0  0  0  0  0  0  0  0  0  0  0
  141.0180   69.9110  228.1810 C   0  0  0  0  0  0  0  0  0  0  0  0
  140.3350   68.7190  228.1980 O   0  0  0  0  0  0  0  0  0  0  0  0
  140.7330   67.8810  227.1620 C   0  0  0  0  0  0  0  0  0  0  0  0
  140.0640   68.4160  225.9170 C   0  0  0  0  0  0  0  0  0  0  0  0
  138.4130   70.3580  224.3960 C   0  0  0  0  0  0  0  0  0  0  0  0
  137.8830   71.1110  223.3670 C   0  0  0  0  0  0  0  0  0  0  0  0
  138.6360   72.0770  222.6920 C   0  0  0  0  0  0  0  0  0  0  0  0
  138.8800   73.7255  219.8442 H   0  0  0  0  0  0  0  0  0  0  0  0
  138.3589   74.9107  221.1045 H   0  0  0  0  0  0  0  0  0  0  0  0
  142.5494   73.4373  220.2218 H   0  0  0  0  0  0  0  0  0  0  0  0
  144.1721   75.1003  219.2549 H   0  0  0  0  0  0  0  0  0  0  0  0
  143.6538   77.5313  219.3746 H   0  0  0  0  0  0  0  0  0  0  0  0
  142.4034   81.5672  221.2078 H   0  0  0  0  0  0  0  0  0  0  0  0
  140.8165   81.0568  220.5078 H   0  0  0  0  0  0  0  0  0  0  0  0
  140.8878   82.5713  222.6028 H   0  0  0  0  0  0  0  0  0  0  0  0
  139.7435   81.1440  222.4973 H   0  0  0  0  0  0  0  0  0  0  0  0
  143.2078   81.2305  223.1556 H   0  0  0  0  0  0  0  0  0  0  0  0
  142.9794   80.2153  224.6229 H   0  0  0  0  0  0  0  0  0  0  0  0
  143.5770   78.8786  222.5402 H   0  0  0  0  0  0  0  0  0  0  0  0
  142.0342   78.3825  223.2720 H   0  0  0  0  0  0  0  0  0  0  0  0
  139.9809   76.6568  221.3818 H   0  0  0  0  0  0  0  0  0  0  0  0
  141.5662   71.6851  224.4174 H   0  0  0  0  0  0  0  0  0  0  0  0
  142.0521   70.6764  226.4831 H   0  0  0  0  0  0  0  0  0  0  0  0
  140.5205   71.5561  226.9530 H   0  0  0  0  0  0  0  0  0  0  0  0
  142.0615   69.7203  228.4722 H   0  0  0  0  0  0  0  0  0  0  0  0
  140.5106   70.5888  228.8832 H   0  0  0  0  0  0  0  0  0  0  0  0
  141.8269   67.9050  227.0491 H   0  0  0  0  0  0  0  0  0  0  0  0
  140.4494   66.8360  227.3559 H   0  0  0  0  0  0  0  0  0  0  0  0
  140.5002   67.9301  225.0318 H   0  0  0  0  0  0  0  0  0  0  0  0
  138.9860   68.2029  225.9667 H   0  0  0  0  0  0  0  0  0  0  0  0
  137.8150   69.5991  224.9219 H   0  0  0  0  0  0  0  0  0  0  0  0
  136.8370   70.9461  223.0692 H   0  0  0  0  0  0  0  0  0  0  0  0
  1  2  2  0
  2  3  1  0
  3  4  1  0
  4  5  1  0
  5  6  2  0
  6  7  1  0
  7  8  2  0
  8  9  1  0
  9 10  1  0
 10 11  2  0
 10 12  1  0
 12 13  1  0
 13 14  1  0
 14 15  1  0
 15 16  1  0
 16 17  1  0
  9 18  2  0
  4 19  2  0
 19 20  1  0
 20 21  2  0
 21 22  1  0
 22 23  1  0
 23 24  1  0
 24 25  1  0
 25 26  1  0
 26 27  1  0
 27 28  1  0
 22 29  2  0
 29 30  1  0
 30 31  2  0
 31  2  1  0
 18  5  1  0
 31 20  1  0
 17 12  1  0
 28 23  1  0
  3 32  1  0
  3 33  1  0
  6 34  1  0
  7 35  1  0
  8 36  1  0
 13 37  1  0
 13 38  1  0
 14 39  1  0
 14 40  1  0
 16 41  1  0
 16 42  1  0
 17 43  1  0
 17 44  1  0
 18 45  1  0
 21 46  1  0
 24 47  1  0
 24 48  1  0
 25 49  1  0
 25 50  1  0
 27 51  1  0
 27 52  1  0
 28 53  1  0
 28 54  1  0
 29 55  1  0
 30 56  1  0
M  END
>  <smiles>  (25) 
O=C1CC(c2cccc(C(=O)N3CCOCC3)c2)=Nc2cc(N3CCOCC3)ccc21

>  <score_type>  (25) 
oracle

>  <origin>  (25) 
autodockgpu

>  <m_score__min__energy>  (25) 
-8.6899999999999995

>  <m_primary>  (25) 
energy

>  <rmsd>  (25) 
7.362611789103305

>  <m_score__min__rmsd>  (25) 
7.362611789103305

>  <meeko>  (25) 
{"free_energy": -8.69, "intermolecular_energy": -9.58, "internal_energy": -0.91, "cluster_size": 48, "cluster_id": 1, "rank_in_cluster": 1}

>  <energy>  (25) 
-8.68

>  <cluster_rmsd>  (25) 
0.07

>  <cluster>  (25) 
1

$$$$

     RDKit          3D

 56 60  0  0  0  0  0  0  0  0999 V2000
  136.8780   72.7770  221.2340 O   0  0  0  0  0  0  0  0  0  0  0  0
  138.0620   72.9220  221.6220 C   0  0  0  0  0  0  0  0  0  0  0  0
  138.8580   73.9740  220.9320 C   0  0  0  0  0  0  0  0  0  0  0  0
  140.2550   74.0060  221.4450 C   0  0  0  0  0  0  0  0  0  0  0  0
  141.2060   74.9470  220.8510 C   0  0  0  0  0  0  0  0  0  0  0  0
  142.3580   74.4760  220.2700 C   0  0  0  0  0  0  0  0  0  0  0  0
  143.2790   75.3880  219.7270 C   0  0  0  0  0  0  0  0  0  0  0  0
  143.0020   76.7560  219.7910 C   0  0  0  0  0  0  0  0  0  0  0  0
  141.8480   77.2410  220.3720 C   0  0  0  0  0  0  0  0  0  0  0  0
  141.6200   78.6600  220.4720 C   0  0  0  0  0  0  0  0  0  0  0  0
  141.1990   79.2320  219.3970 O   0  0  0  0  0  0  0  0  0  0  0  0
  141.7930   79.4980  221.5720 N   0  0  0  0  0  0  0  0  0  0  0  0
  141.4870   80.9250  221.3870 C   0  0  0  0  0  0  0  0  0  0  0  0
  140.5980   81.4260  222.4710 C   0  0  0  0  0  0  0  0  0  0  0  0
  140.8620   80.8790  223.7230 O   0  0  0  0  0  0  0  0  0  0  0  0
  142.1510   80.3450  223.7860 C   0  0  0  0  0  0  0  0  0  0  0  0
  142.2460   79.1030  222.8890 C   0  0  0  0  0  0  0  0  0  0  0  0
  140.9630   76.3030  220.8970 C   0  0  0  0  0  0  0  0  0  0  0  0
  140.7000   73.2490  222.3810 N   0  0  0  0  0  0  0  0  0  0  0  0
  139.9450   72.2620  223.0730 C   0  0  0  0  0  0  0  0  0  0  0  0
  140.5030   71.5080  224.0930 C   0  0  0  0  0  0  0  0  0  0  0  0
  139.6910   70.5920  224.7150 C   0  0  0  0  0  0  0  0  0  0  0  0
  140.2220   69.8240  225.7990 N   0  0  0  0  0  0  0  0  0  0  0  0
  140.9720   70.5340  226.8140 C   0  0  0  0  0  0  0  0  0  0  0  0
  140.9710   69.8470  228.1580 C   0  0  0  0  0  0  0  0  0  0  0  0
  140.2820   68.6590  228.1560 O   0  0  0  0  0  0  0  0  0  0  0  0
  140.6780   67.8330  227.1100 C   0  0  0  0  0  0  0  0  0  0  0  0
  140.0150   68.3890  225.8710 C   0  0  0  0  0  0  0  0  0  0  0  0
  138.3720   70.3790  224.3890 C   0  0  0  0  0  0  0  0  0  0  0  0
  137.8500   71.1490  223.3680 C   0  0  0  0  0  0  0  0  0  0  0  0
  138.6180   72.1020  222.6920 C   0  0  0  0  0  0  0  0  0  0  0  0
  138.8756   73.7623  219.8527 H   0  0  0  0  0  0  0  0  0  0  0  0
  138.3907   74.9510  221.1247 H   0  0  0  0  0  0  0  0  0  0  0  0
  142.5578   73.3950  220.2301 H   0  0  0  0  0  0  0  0  0  0  0  0
  144.2067   75.0292  219.2573 H   0  0  0  0  0  0  0  0  0  0  0  0
  143.7251   77.4675  219.3657 H   0  0  0  0  0  0  0  0  0  0  0  0
  142.4257   81.4984  221.3981 H   0  0  0  0  0  0  0  0  0  0  0  0
  140.9697   81.0501  220.4243 H   0  0  0  0  0  0  0  0  0  0  0  0
  140.7180   82.5173  222.5390 H   0  0  0  0  0  0  0  0  0  0  0  0
  139.5739   81.1260  222.2042 H   0  0  0  0  0  0  0  0  0  0  0  0
  142.8752   81.0987  223.4434 H   0  0  0  0  0  0  0  0  0  0  0  0
  142.3747   80.0598  224.8246 H   0  0  0  0  0  0  0  0  0  0  0  0
  143.2868   78.7503  222.8407 H   0  0  0  0  0  0  0  0  0  0  0  0
  141.6304   78.2828  223.2868 H   0  0  0  0  0  0  0  0  0  0  0  0
  140.0338   76.6579  221.3667 H   0  0  0  0  0  0  0  0  0  0  0  0
  141.5535   71.6380  224.3922 H   0  0  0  0  0  0  0  0  0  0  0  0
  142.0135   70.6299  226.4733 H   0  0  0  0  0  0  0  0  0  0  0  0
  140.4847   71.5106  226.9508 H   0  0  0  0  0  0  0  0  0  0  0  0
  142.0126   69.6469  228.4495 H   0  0  0  0  0  0  0  0  0  0  0  0
  140.4656   70.5177  228.8685 H   0  0  0  0  0  0  0  0  0  0  0  0
  141.7723   67.8524  227.0001 H   0  0  0  0  0  0  0  0  0  0  0  0
  140.3883   66.7870  227.2888 H   0  0  0  0  0  0  0  0  0  0  0  0
  140.4504   67.9129  224.9800 H   0  0  0  0  0  0  0  0  0  0  0  0
  138.9356   68.1815  225.9149 H   0  0  0  0  0  0  0  0  0  0  0  0
  137.7617   69.6310  224.9163 H   0  0  0  0  0  0  0  0  0  0  0  0
  136.7983   71.0082  223.0779 H   0  0  0  0  0  0  0  0  0  0  0  0
  1  2  2  0
  2  3  1  0
  3  4  1  0
  4  5  1  0
  5  6  2  0
  6  7  1  0
  7  8  2  0
  8  9  1  0
  9 10  1  0
 10 11  2  0
 10 12  1  0
 12 13  1  0
 13 14  1  0
 14 15  1  0
 15 16  1  0
 16 17  1  0
  9 18  2  0
  4 19  2  0
 19 20  1  0
 20 21  2  0
 21 22  1  0
 22 23  1  0
 23 24  1  0
 24 25  1  0
 25 26  1  0
 26 27  1  0
 27 28  1  0
 22 29  2  0
 29 30  1  0
 30 31  2  0
 31  2  1  0
 18  5  1  0
 31 20  1  0
 17 12  1  0
 28 23  1  0
  3 32  1  0
  3 33  1  0
  6 34  1  0
  7 35  1  0
  8 36  1  0
 13 37  1  0
 13 38  1  0
 14 39  1  0
 14 40  1  0
 16 41  1  0
 16 42  1  0
 17 43  1  0
 17 44  1  0
 18 45  1  0
 21 46  1  0
 24 47  1  0
 24 48  1  0
 25 49  1  0
 25 50  1  0
 27 51  1  0
 27 52  1  0
 28 53  1  0
 28 54  1  0
 29 55  1  0
 30 56  1  0
M  END
>  <smiles>  (26) 
O=C1CC(c2cccc(C(=O)N3CCOCC3)c2)=Nc2cc(N3CCOCC3)ccc21

>  <score_type>  (26) 
oracle

>  <origin>  (26) 
autodockgpu

>  <m_score__min__energy>  (26) 
-8.6899999999999995

>  <m_primary>  (26) 
energy

>  <rmsd>  (26) 
7.363840663616501

>  <m_score__min__rmsd>  (26) 
7.363840663616501

>  <meeko>  (26) 
{"free_energy": -8.67, "intermolecular_energy": -9.57, "internal_energy": -0.92, "cluster_size": 48, "cluster_id": 1, "rank_in_cluster": 32}

>  <energy>  (26) 
-8.68

>  <cluster_rmsd>  (26) 
0.13

>  <cluster>  (26) 
1

$$$$

     RDKit          3D

 56 60  0  0  0  0  0  0  0  0999 V2000
  136.8610   72.8220  221.2540 O   0  0  0  0  0  0  0  0  0  0  0  0
  138.0490   72.9620  221.6330 C   0  0  0  0  0  0  0  0  0  0  0  0
  138.8400   74.0160  220.9410 C   0  0  0  0  0  0  0  0  0  0  0  0
  140.2420   74.0430  221.4410 C   0  0  0  0  0  0  0  0  0  0  0  0
  141.1900   74.9850  220.8430 C   0  0  0  0  0  0  0  0  0  0  0  0
  142.3460   74.5160  220.2690 C   0  0  0  0  0  0  0  0  0  0  0  0
  143.2630   75.4300  219.7230 C   0  0  0  0  0  0  0  0  0  0  0  0
  142.9780   76.7970  219.7760 C   0  0  0  0  0  0  0  0  0  0  0  0
  141.8200   77.2790  220.3510 C   0  0  0  0  0  0  0  0  0  0  0  0
  141.5830   78.6980  220.4400 C   0  0  0  0  0  0  0  0  0  0  0  0
  140.9940   79.2280  219.4230 O   0  0  0  0  0  0  0  0  0  0  0  0
  141.9050   79.5750  221.4750 N   0  0  0  0  0  0  0  0  0  0  0  0
  141.5480   80.9900  221.2940 C   0  0  0  0  0  0  0  0  0  0  0  0
  140.8230   81.5140  222.4840 C   0  0  0  0  0  0  0  0  0  0  0  0
  141.2820   81.0130  223.6970 O   0  0  0  0  0  0  0  0  0  0  0  0
  142.5770   80.4990  223.5820 C   0  0  0  0  0  0  0  0  0  0  0  0
  142.5580   79.2290  222.7200 C   0  0  0  0  0  0  0  0  0  0  0  0
  140.9380   76.3400  220.8790 C   0  0  0  0  0  0  0  0  0  0  0  0
  140.6940   73.2810  222.3690 N   0  0  0  0  0  0  0  0  0  0  0  0
  139.9430   72.2910  223.0630 C   0  0  0  0  0  0  0  0  0  0  0  0
  140.5090   71.5310  224.0740 C   0  0  0  0  0  0  0  0  0  0  0  0
  139.7010   70.6140  224.6980 C   0  0  0  0  0  0  0  0  0  0  0  0
  140.2400   69.8390  225.7730 N   0  0  0  0  0  0  0  0  0  0  0  0
  141.0210   70.5390  226.7730 C   0  0  0  0  0  0  0  0  0  0  0  0
  141.0340   69.8540  228.1180 C   0  0  0  0  0  0  0  0  0  0  0  0
  140.3260   68.6770  228.1320 O   0  0  0  0  0  0  0  0  0  0  0  0
  140.6890   67.8430  227.0800 C   0  0  0  0  0  0  0  0  0  0  0  0
  140.0120   68.4070  225.8520 C   0  0  0  0  0  0  0  0  0  0  0  0
  138.3780   70.4050  224.3830 C   0  0  0  0  0  0  0  0  0  0  0  0
  137.8490   71.1810  223.3720 C   0  0  0  0  0  0  0  0  0  0  0  0
  138.6130   72.1360  222.6940 C   0  0  0  0  0  0  0  0  0  0  0  0
  138.8470   73.8098  219.8605 H   0  0  0  0  0  0  0  0  0  0  0  0
  138.3762   74.9927  221.1430 H   0  0  0  0  0  0  0  0  0  0  0  0
  142.5520   73.4359  220.2370 H   0  0  0  0  0  0  0  0  0  0  0  0
  144.1946   75.0735  219.2592 H   0  0  0  0  0  0  0  0  0  0  0  0
  143.6978   77.5096  219.3468 H   0  0  0  0  0  0  0  0  0  0  0  0
  142.4666   81.5765  221.1454 H   0  0  0  0  0  0  0  0  0  0  0  0
  140.8898   81.0758  220.4169 H   0  0  0  0  0  0  0  0  0  0  0  0
  140.9313   82.6085  222.4996 H   0  0  0  0  0  0  0  0  0  0  0  0
  139.7763   81.1908  222.3842 H   0  0  0  0  0  0  0  0  0  0  0  0
  143.2276   81.2504  223.1108 H   0  0  0  0  0  0  0  0  0  0  0  0
  142.9600   80.2525  224.5833 H   0  0  0  0  0  0  0  0  0  0  0  0
  143.5857   78.8882  222.5260 H   0  0  0  0  0  0  0  0  0  0  0  0
  142.0242   78.4143  223.2312 H   0  0  0  0  0  0  0  0  0  0  0  0
  140.0048   76.6926  221.3424 H   0  0  0  0  0  0  0  0  0  0  0  0
  141.5624   71.6575  224.3644 H   0  0  0  0  0  0  0  0  0  0  0  0
  142.0573   70.6174  226.4127 H   0  0  0  0  0  0  0  0  0  0  0  0
  140.5525   71.5238  226.9170 H   0  0  0  0  0  0  0  0  0  0  0  0
  142.0776   69.6376  228.3902 H   0  0  0  0  0  0  0  0  0  0  0  0
  140.5525   70.5340  228.8361 H   0  0  0  0  0  0  0  0  0  0  0  0
  141.7812   67.8448  226.9496 H   0  0  0  0  0  0  0  0  0  0  0  0
  140.3857   66.8022  227.2664 H   0  0  0  0  0  0  0  0  0  0  0  0
  140.4234   67.9225  224.9542 H   0  0  0  0  0  0  0  0  0  0  0  0
  138.9305   68.2165  225.9162 H   0  0  0  0  0  0  0  0  0  0  0  0
  137.7711   69.6553  224.9117 H   0  0  0  0  0  0  0  0  0  0  0  0
  136.7944   71.0442  223.0909 H   0  0  0  0  0  0  0  0  0  0  0  0
  1  2  2  0
  2  3  1  0
  3  4  1  0
  4  5  1  0
  5  6  2  0
  6  7  1  0
  7  8  2  0
  8  9  1  0
  9 10  1  0
 10 11  2  0
 10 12  1  0
 12 13  1  0
 13 14  1  0
 14 15  1  0
 15 16  1  0
 16 17  1  0
  9 18  2  0
  4 19  2  0
 19 20  1  0
 20 21  2  0
 21 22  1  0
 22 23  1  0
 23 24  1  0
 24 25  1  0
 25 26  1  0
 26 27  1  0
 27 28  1  0
 22 29  2  0
 29 30  1  0
 30 31  2  0
 31  2  1  0
 18  5  1  0
 31 20  1  0
 17 12  1  0
 28 23  1  0
  3 32  1  0
  3 33  1  0
  6 34  1  0
  7 35  1  0
  8 36  1  0
 13 37  1  0
 13 38  1  0
 14 39  1  0
 14 40  1  0
 16 41  1  0
 16 42  1  0
 17 43  1  0
 17 44  1  0
 18 45  1  0
 21 46  1  0
 24 47  1  0
 24 48  1  0
 25 49  1  0
 25 50  1  0
 27 51  1  0
 27 52  1  0
 28 53  1  0
 28 54  1  0
 29 55  1  0
 30 56  1  0
M  END
>  <smiles>  (27) 
O=C1CC(c2cccc(C(=O)N3CCOCC3)c2)=Nc2cc(N3CCOCC3)ccc21

>  <score_type>  (27) 
oracle

>  <origin>  (27) 
autodockgpu

>  <m_score__min__energy>  (27) 
-8.6899999999999995

>  <m_primary>  (27) 
energy

>  <rmsd>  (27) 
7.3949489535356445

>  <m_score__min__rmsd>  (27) 
7.3949489535356445

>  <meeko>  (27) 
{"free_energy": -8.68, "intermolecular_energy": -9.58, "internal_energy": -0.91, "cluster_size": 48, "cluster_id": 1, "rank_in_cluster": 11}

>  <energy>  (27) 
-8.68

>  <cluster_rmsd>  (27) 
0.19

>  <cluster>  (27) 
1

$$$$

     RDKit          3D

 56 60  0  0  0  0  0  0  0  0999 V2000
  137.0150   72.4890  221.0210 O   0  0  0  0  0  0  0  0  0  0  0  0
  138.1560   72.7360  221.4800 C   0  0  0  0  0  0  0  0  0  0  0  0
  138.9230   73.8110  220.7930 C   0  0  0  0  0  0  0  0  0  0  0  0
  140.2760   73.9670  221.3960 C   0  0  0  0  0  0  0  0  0  0  0  0
  141.1980   74.9470  220.8200 C   0  0  0  0  0  0  0  0  0  0  0  0
  142.3630   74.5220  220.2300 C   0  0  0  0  0  0  0  0  0  0  0  0
  143.2560   75.4720  219.7050 C   0  0  0  0  0  0  0  0  0  0  0  0
  142.9390   76.8300  219.7960 C   0  0  0  0  0  0  0  0  0  0  0  0
  141.7720   77.2680  220.3870 C   0  0  0  0  0  0  0  0  0  0  0  0
  141.5020   78.6780  220.5150 C   0  0  0  0  0  0  0  0  0  0  0  0
  140.8530   79.2110  219.5370 O   0  0  0  0  0  0  0  0  0  0  0  0
  141.8480   79.5440  221.5510 N   0  0  0  0  0  0  0  0  0  0  0  0
  141.4460   80.9520  221.4150 C   0  0  0  0  0  0  0  0  0  0  0  0
  140.7640   81.4350  222.6470 C   0  0  0  0  0  0  0  0  0  0  0  0
  141.2920   80.9230  223.8280 O   0  0  0  0  0  0  0  0  0  0  0  0
  142.5920   80.4480  223.6430 C   0  0  0  0  0  0  0  0  0  0  0  0
  142.5670   79.1940  222.7580 C   0  0  0  0  0  0  0  0  0  0  0  0
  140.9150   76.2950  220.8930 C   0  0  0  0  0  0  0  0  0  0  0  0
  140.7060   73.2870  222.3940 N   0  0  0  0  0  0  0  0  0  0  0  0
  139.9740   72.2790  223.0830 C   0  0  0  0  0  0  0  0  0  0  0  0
  140.5100   71.6140  224.1740 C   0  0  0  0  0  0  0  0  0  0  0  0
  139.7230   70.6700  224.7850 C   0  0  0  0  0  0  0  0  0  0  0  0
  140.2290   69.9920  225.9380 N   0  0  0  0  0  0  0  0  0  0  0  0
  140.9100   70.7900  226.9360 C   0  0  0  0  0  0  0  0  0  0  0  0
  140.8700   70.1910  228.3210 C   0  0  0  0  0  0  0  0  0  0  0  0
  140.2200   68.9810  228.3670 O   0  0  0  0  0  0  0  0  0  0  0  0
  140.6890   68.1050  227.3950 C   0  0  0  0  0  0  0  0  0  0  0  0
  140.0650   68.5570  226.0940 C   0  0  0  0  0  0  0  0  0  0  0  0
  138.4480   70.3480  224.3830 C   0  0  0  0  0  0  0  0  0  0  0  0
  137.9470   71.0320  223.2930 C   0  0  0  0  0  0  0  0  0  0  0  0
  138.6920   72.0070  222.6240 C   0  0  0  0  0  0  0  0  0  0  0  0
  139.0304   73.5531  219.7291 H   0  0  0  0  0  0  0  0  0  0  0  0
  138.3767   74.7592  220.9053 H   0  0  0  0  0  0  0  0  0  0  0  0
  142.5950   73.4485  220.1689 H   0  0  0  0  0  0  0  0  0  0  0  0
  144.1935   75.1503  219.2280 H   0  0  0  0  0  0  0  0  0  0  0  0
  143.6402   77.5710  219.3846 H   0  0  0  0  0  0  0  0  0  0  0  0
  142.3411   81.5657  221.2356 H   0  0  0  0  0  0  0  0  0  0  0  0
  140.7450   81.0357  220.5714 H   0  0  0  0  0  0  0  0  0  0  0  0
  140.8455   82.5315  222.6793 H   0  0  0  0  0  0  0  0  0  0  0  0
  139.7221   81.0871  222.5891 H   0  0  0  0  0  0  0  0  0  0  0  0
  143.1992   81.2258  223.1569 H   0  0  0  0  0  0  0  0  0  0  0  0
  143.0281   80.1938  224.6204 H   0  0  0  0  0  0  0  0  0  0  0  0
  143.5934   78.8853  222.5106 H   0  0  0  0  0  0  0  0  0  0  0  0
  142.0792   78.3559  223.2772 H   0  0  0  0  0  0  0  0  0  0  0  0
  139.9760   76.6133  221.3694 H   0  0  0  0  0  0  0  0  0  0  0  0
  141.5253   71.8337  224.5358 H   0  0  0  0  0  0  0  0  0  0  0  0
  141.9623   70.8991  226.6349 H   0  0  0  0  0  0  0  0  0  0  0  0
  140.3866   71.7561  226.9878 H   0  0  0  0  0  0  0  0  0  0  0  0
  141.9032   70.0468  228.6699 H   0  0  0  0  0  0  0  0  0  0  0  0
  140.3115   70.8877  228.9634 H   0  0  0  0  0  0  0  0  0  0  0  0
  141.7860   68.1559  227.3312 H   0  0  0  0  0  0  0  0  0  0  0  0
  140.4250   67.0631  227.6290 H   0  0  0  0  0  0  0  0  0  0  0  0
  140.5556   68.0408  225.2557 H   0  0  0  0  0  0  0  0  0  0  0  0
  138.9921   68.3146  226.1040 H   0  0  0  0  0  0  0  0  0  0  0  0
  137.8554   69.5821  224.9048 H   0  0  0  0  0  0  0  0  0  0  0  0
  136.9306   70.8025  222.9406 H   0  0  0  0  0  0  0  0  0  0  0  0
  1  2  2  0
  2  3  1  0
  3  4  1  0
  4  5  1  0
  5  6  2  0
  6  7  1  0
  7  8  2  0
  8  9  1  0
  9 10  1  0
 10 11  2  0
 10 12  1  0
 12 13  1  0
 13 14  1  0
 14 15  1  0
 15 16  1  0
 16 17  1  0
  9 18  2  0
  4 19  2  0
 19 20  1  0
 20 21  2  0
 21 22  1  0
 22 23  1  0
 23 24  1  0
 24 25  1  0
 25 26  1  0
 26 27  1  0
 27 28  1  0
 22 29  2  0
 29 30  1  0
 30 31  2  0
 31  2  1  0
 18  5  1  0
 31 20  1  0
 17 12  1  0
 28 23  1  0
  3 32  1  0
  3 33  1  0
  6 34  1  0
  7 35  1  0
  8 36  1  0
 13 37  1  0
 13 38  1  0
 14 39  1  0
 14 40  1  0
 16 41  1  0
 16 42  1  0
 17 43  1  0
 17 44  1  0
 18 45  1  0
 21 46  1  0
 24 47  1  0
 24 48  1  0
 25 49  1  0
 25 50  1  0
 27 51  1  0
 27 52  1  0
 28 53  1  0
 28 54  1  0
 29 55  1  0
 30 56  1  0
M  END
>  <smiles>  (28) 
O=C1CC(c2cccc(C(=O)N3CCOCC3)c2)=Nc2cc(N3CCOCC3)ccc21

>  <score_type>  (28) 
oracle

>  <origin>  (28) 
autodockgpu

>  <m_score__min__energy>  (28) 
-8.6899999999999995

>  <m_primary>  (28) 
energy

>  <rmsd>  (28) 
7.347627146915306

>  <m_score__min__rmsd>  (28) 
7.347627146915306

>  <meeko>  (28) 
{"free_energy": -8.68, "intermolecular_energy": -9.57, "internal_energy": -0.91, "cluster_size": 48, "cluster_id": 1, "rank_in_cluster": 20}

>  <energy>  (28) 
-8.67

>  <cluster_rmsd>  (28) 
0.19

>  <cluster>  (28) 
1

$$$$

     RDKit          3D

 56 60  0  0  0  0  0  0  0  0999 V2000
  136.8610   72.8160  221.2580 O   0  0  0  0  0  0  0  0  0  0  0  0
  138.0510   72.9470  221.6350 C   0  0  0  0  0  0  0  0  0  0  0  0
  138.8530   73.9860  220.9340 C   0  0  0  0  0  0  0  0  0  0  0  0
  140.2550   74.0020  221.4340 C   0  0  0  0  0  0  0  0  0  0  0  0
  141.2120   74.9300  220.8270 C   0  0  0  0  0  0  0  0  0  0  0  0
  142.3520   74.4420  220.2360 C   0  0  0  0  0  0  0  0  0  0  0  0
  143.2790   75.3410  219.6810 C   0  0  0  0  0  0  0  0  0  0  0  0
  143.0200   76.7130  219.7440 C   0  0  0  0  0  0  0  0  0  0  0  0
  141.8790   77.2140  220.3360 C   0  0  0  0  0  0  0  0  0  0  0  0
  141.6700   78.6360  220.4350 C   0  0  0  0  0  0  0  0  0  0  0  0
  141.2880   79.2190  219.3500 O   0  0  0  0  0  0  0  0  0  0  0  0
  141.8260   79.4680  221.5430 N   0  0  0  0  0  0  0  0  0  0  0  0
  141.5470   80.9000  221.3540 C   0  0  0  0  0  0  0  0  0  0  0  0
  140.6360   81.4110  222.4150 C   0  0  0  0  0  0  0  0  0  0  0  0
  140.8560   80.8560  223.6710 O   0  0  0  0  0  0  0  0  0  0  0  0
  142.1350   80.3020  223.7690 C   0  0  0  0  0  0  0  0  0  0  0  0
  142.2350   79.0620  222.8700 C   0  0  0  0  0  0  0  0  0  0  0  0
  140.9870   76.2890  220.8730 C   0  0  0  0  0  0  0  0  0  0  0  0
  140.6990   73.2440  222.3680 N   0  0  0  0  0  0  0  0  0  0  0  0
  139.9380   72.2680  223.0710 C   0  0  0  0  0  0  0  0  0  0  0  0
  140.4960   71.5110  224.0880 C   0  0  0  0  0  0  0  0  0  0  0  0
  139.6790   70.6070  224.7200 C   0  0  0  0  0  0  0  0  0  0  0  0
  140.2110   69.8360  225.8020 N   0  0  0  0  0  0  0  0  0  0  0  0
  140.9840   70.5390  226.8050 C   0  0  0  0  0  0  0  0  0  0  0  0
  140.9870   69.8600  228.1520 C   0  0  0  0  0  0  0  0  0  0  0  0
  140.2800   68.6820  228.1650 O   0  0  0  0  0  0  0  0  0  0  0  0
  140.6510   67.8450  227.1180 C   0  0  0  0  0  0  0  0  0  0  0  0
  139.9820   68.4050  225.8840 C   0  0  0  0  0  0  0  0  0  0  0  0
  138.3550   70.4100  224.4080 C   0  0  0  0  0  0  0  0  0  0  0  0
  137.8330   71.1830  223.3890 C   0  0  0  0  0  0  0  0  0  0  0  0
  138.6060   72.1240  222.7030 C   0  0  0  0  0  0  0  0  0  0  0  0
  138.8578   73.7703  219.8554 H   0  0  0  0  0  0  0  0  0  0  0  0
  138.3998   74.9695  221.1272 H   0  0  0  0  0  0  0  0  0  0  0  0
  142.5375   73.3584  220.1975 H   0  0  0  0  0  0  0  0  0  0  0  0
  144.1972   74.9693  219.2028 H   0  0  0  0  0  0  0  0  0  0  0  0
  143.7474   77.4140  219.3087 H   0  0  0  0  0  0  0  0  0  0  0  0
  142.4936   81.4590  221.3928 H   0  0  0  0  0  0  0  0  0  0  0  0
  141.0587   81.0359  220.3777 H   0  0  0  0  0  0  0  0  0  0  0  0
  140.7711   82.5001  222.4906 H   0  0  0  0  0  0  0  0  0  0  0  0
  139.6153   81.1278  222.1186 H   0  0  0  0  0  0  0  0  0  0  0  0
  142.8803   81.0454  223.4499 H   0  0  0  0  0  0  0  0  0  0  0  0
  142.3254   80.0103  224.8124 H   0  0  0  0  0  0  0  0  0  0  0  0
  143.2709   78.6926  222.8496 H   0  0  0  0  0  0  0  0  0  0  0  0
  141.5950   78.2508  223.2472 H   0  0  0  0  0  0  0  0  0  0  0  0
  140.0678   76.6571  221.3522 H   0  0  0  0  0  0  0  0  0  0  0  0
  141.5506   71.6294  224.3773 H   0  0  0  0  0  0  0  0  0  0  0  0
  142.0230   70.6159  226.4522 H   0  0  0  0  0  0  0  0  0  0  0  0
  140.5141   71.5241  226.9419 H   0  0  0  0  0  0  0  0  0  0  0  0
  142.0286   69.6459  228.4334 H   0  0  0  0  0  0  0  0  0  0  0  0
  140.4991   70.5424  228.8636 H   0  0  0  0  0  0  0  0  0  0  0  0
  141.7441   67.8472  226.9951 H   0  0  0  0  0  0  0  0  0  0  0  0
  140.3474   66.8045  227.3054 H   0  0  0  0  0  0  0  0  0  0  0  0
  140.3989   67.9175  224.9904 H   0  0  0  0  0  0  0  0  0  0  0  0
  138.9001   68.2149  225.9418 H   0  0  0  0  0  0  0  0  0  0  0  0
  137.7403   69.6720  224.9442 H   0  0  0  0  0  0  0  0  0  0  0  0
  136.7771   71.0541  223.1090 H   0  0  0  0  0  0  0  0  0  0  0  0
  1  2  2  0
  2  3  1  0
  3  4  1  0
  4  5  1  0
  5  6  2  0
  6  7  1  0
  7  8  2  0
  8  9  1  0
  9 10  1  0
 10 11  2  0
 10 12  1  0
 12 13  1  0
 13 14  1  0
 14 15  1  0
 15 16  1  0
 16 17  1  0
  9 18  2  0
  4 19  2  0
 19 20  1  0
 20 21  2  0
 21 22  1  0
 22 23  1  0
 23 24  1  0
 24 25  1  0
 25 26  1  0
 26 27  1  0
 27 28  1  0
 22 29  2  0
 29 30  1  0
 30 31  2  0
 31  2  1  0
 18  5  1  0
 31 20  1  0
 17 12  1  0
 28 23  1  0
  3 32  1  0
  3 33  1  0
  6 34  1  0
  7 35  1  0
  8 36  1  0
 13 37  1  0
 13 38  1  0
 14 39  1  0
 14 40  1  0
 16 41  1  0
 16 42  1  0
 17 43  1  0
 17 44  1  0
 18 45  1  0
 21 46  1  0
 24 47  1  0
 24 48  1  0
 25 49  1  0
 25 50  1  0
 27 51  1  0
 27 52  1  0
 28 53  1  0
 28 54  1  0
 29 55  1  0
 30 56  1  0
M  END
>  <smiles>  (29) 
O=C1CC(c2cccc(C(=O)N3CCOCC3)c2)=Nc2cc(N3CCOCC3)ccc21

>  <score_type>  (29) 
oracle

>  <origin>  (29) 
autodockgpu

>  <m_score__min__energy>  (29) 
-8.6899999999999995

>  <m_primary>  (29) 
energy

>  <rmsd>  (29) 
7.365899527963495

>  <m_score__min__rmsd>  (29) 
7.365899527963495

>  <meeko>  (29) 
{"free_energy": -8.67, "intermolecular_energy": -9.57, "internal_energy": -0.92, "cluster_size": 48, "cluster_id": 1, "rank_in_cluster": 29}

>  <energy>  (29) 
-8.67

>  <cluster_rmsd>  (29) 
0.18

>  <cluster>  (29) 
1

$$$$

     RDKit          3D

 56 60  0  0  0  0  0  0  0  0999 V2000
  137.0110   72.6610  220.8210 O   0  0  0  0  0  0  0  0  0  0  0  0
  138.1450   72.8480  221.3230 C   0  0  0  0  0  0  0  0  0  0  0  0
  138.9950   73.8780  220.6670 C   0  0  0  0  0  0  0  0  0  0  0  0
  140.3300   73.9620  221.3220 C   0  0  0  0  0  0  0  0  0  0  0  0
  141.3260   74.8900  220.7820 C   0  0  0  0  0  0  0  0  0  0  0  0
  142.5010   74.4020  220.2660 C   0  0  0  0  0  0  0  0  0  0  0  0
  143.4630   75.3010  219.7760 C   0  0  0  0  0  0  0  0  0  0  0  0
  143.2030   76.6740  219.8260 C   0  0  0  0  0  0  0  0  0  0  0  0
  142.0260   77.1740  220.3430 C   0  0  0  0  0  0  0  0  0  0  0  0
  141.8130   78.5970  220.4320 C   0  0  0  0  0  0  0  0  0  0  0  0
  141.4870   79.1800  219.3300 O   0  0  0  0  0  0  0  0  0  0  0  0
  141.9140   79.4280  221.5470 N   0  0  0  0  0  0  0  0  0  0  0  0
  141.6450   80.8600  221.3450 C   0  0  0  0  0  0  0  0  0  0  0  0
  140.6830   81.3710  222.3590 C   0  0  0  0  0  0  0  0  0  0  0  0
  140.8390   80.8150  223.6250 O   0  0  0  0  0  0  0  0  0  0  0  0
  142.1110   80.2600  223.7860 C   0  0  0  0  0  0  0  0  0  0  0  0
  142.2560   79.0200  222.8930 C   0  0  0  0  0  0  0  0  0  0  0  0
  141.1000   76.2490  220.8170 C   0  0  0  0  0  0  0  0  0  0  0  0
  140.6830   73.2630  222.3370 N   0  0  0  0  0  0  0  0  0  0  0  0
  139.8710   72.2980  222.9980 C   0  0  0  0  0  0  0  0  0  0  0  0
  140.3280   71.6080  224.1090 C   0  0  0  0  0  0  0  0  0  0  0  0
  139.4670   70.7100  224.6890 C   0  0  0  0  0  0  0  0  0  0  0  0
  139.8900   70.0080  225.8620 N   0  0  0  0  0  0  0  0  0  0  0  0
  139.4560   68.6340  226.0090 C   0  0  0  0  0  0  0  0  0  0  0  0
  140.3720   67.7990  226.8710 C   0  0  0  0  0  0  0  0  0  0  0  0
  141.4320   68.5110  227.3790 O   0  0  0  0  0  0  0  0  0  0  0  0
  141.0190   69.6910  227.9880 C   0  0  0  0  0  0  0  0  0  0  0  0
  140.7200   70.6550  226.8620 C   0  0  0  0  0  0  0  0  0  0  0  0
  138.1930   70.4560  224.2380 C   0  0  0  0  0  0  0  0  0  0  0  0
  137.7720   71.1630  223.1290 C   0  0  0  0  0  0  0  0  0  0  0  0
  138.5950   72.0940  222.4880 C   0  0  0  0  0  0  0  0  0  0  0  0
  139.1296   73.6126  219.6080 H   0  0  0  0  0  0  0  0  0  0  0  0
  138.4969   74.8545  220.7583 H   0  0  0  0  0  0  0  0  0  0  0  0
  142.6873   73.3183  220.2366 H   0  0  0  0  0  0  0  0  0  0  0  0
  144.4100   74.9290  219.3578 H   0  0  0  0  0  0  0  0  0  0  0  0
  143.9586   77.3753  219.4421 H   0  0  0  0  0  0  0  0  0  0  0  0
  142.5886   81.4187  221.4310 H   0  0  0  0  0  0  0  0  0  0  0  0
  141.2057   80.9961  220.3458 H   0  0  0  0  0  0  0  0  0  0  0  0
  140.8152   82.4599  222.4419 H   0  0  0  0  0  0  0  0  0  0  0  0
  139.6782   81.0886  222.0116 H   0  0  0  0  0  0  0  0  0  0  0  0
  142.8716   81.0032  223.5047 H   0  0  0  0  0  0  0  0  0  0  0  0
  142.2484   79.9675  224.8375 H   0  0  0  0  0  0  0  0  0  0  0  0
  143.2915   78.6503  222.9245 H   0  0  0  0  0  0  0  0  0  0  0  0
  141.5983   78.2082  223.2371 H   0  0  0  0  0  0  0  0  0  0  0  0
  140.1516   76.6169  221.2355 H   0  0  0  0  0  0  0  0  0  0  0  0
  141.3390   71.7730  224.5098 H   0  0  0  0  0  0  0  0  0  0  0  0
  138.4542   68.6326  226.4634 H   0  0  0  0  0  0  0  0  0  0  0  0
  139.4609   68.1853  225.0047 H   0  0  0  0  0  0  0  0  0  0  0  0
  139.7887   67.3929  227.7105 H   0  0  0  0  0  0  0  0  0  0  0  0
  140.7864   67.0035  226.2343 H   0  0  0  0  0  0  0  0  0  0  0  0
  140.1160   69.5148  228.5910 H   0  0  0  0  0  0  0  0  0  0  0  0
  141.7896   70.0874  228.6655 H   0  0  0  0  0  0  0  0  0  0  0  0
  140.1902   71.5313  227.2637 H   0  0  0  0  0  0  0  0  0  0  0  0
  141.6653   70.9715  226.3970 H   0  0  0  0  0  0  0  0  0  0  0  0
  137.5403   69.7245  224.7369 H   0  0  0  0  0  0  0  0  0  0  0  0
  136.7587   70.9885  222.7381 H   0  0  0  0  0  0  0  0  0  0  0  0
  1  2  2  0
  2  3  1  0
  3  4  1  0
  4  5  1  0
  5  6  2  0
  6  7  1  0
  7  8  2  0
  8  9  1  0
  9 10  1  0
 10 11  2  0
 10 12  1  0
 12 13  1  0
 13 14  1  0
 14 15  1  0
 15 16  1  0
 16 17  1  0
  9 18  2  0
  4 19  2  0
 19 20  1  0
 20 21  2  0
 21 22  1  0
 22 23  1  0
 23 24  1  0
 24 25  1  0
 25 26  1  0
 26 27  1  0
 27 28  1  0
 22 29  2  0
 29 30  1  0
 30 31  2  0
 31  2  1  0
 18  5  1  0
 31 20  1  0
 17 12  1  0
 28 23  1  0
  3 32  1  0
  3 33  1  0
  6 34  1  0
  7 35  1  0
  8 36  1  0
 13 37  1  0
 13 38  1  0
 14 39  1  0
 14 40  1  0
 16 41  1  0
 16 42  1  0
 17 43  1  0
 17 44  1  0
 18 45  1  0
 21 46  1  0
 24 47  1  0
 24 48  1  0
 25 49  1  0
 25 50  1  0
 27 51  1  0
 27 52  1  0
 28 53  1  0
 28 54  1  0
 29 55  1  0
 30 56  1  0
M  END
>  <smiles>  (30) 
O=C1CC(c2cccc(C(=O)N3CCOCC3)c2)=Nc2cc(N3CCOCC3)ccc21

>  <score_type>  (30) 
oracle

>  <origin>  (30) 
autodockgpu

>  <m_score__min__energy>  (30) 
-8.6899999999999995

>  <m_primary>  (30) 
energy

>  <rmsd>  (30) 
7.421143571916226

>  <m_score__min__rmsd>  (30) 
7.421143571916226

>  <meeko>  (30) 
{"free_energy": -8.48, "intermolecular_energy": -9.37, "internal_energy": -0.91, "cluster_size": 48, "cluster_id": 1, "rank_in_cluster": 41}

>  <energy>  (30) 
-8.67

>  <cluster_rmsd>  (30) 
0.15

>  <cluster>  (30) 
1

$$$$

     RDKit          3D

 56 60  0  0  0  0  0  0  0  0999 V2000
  136.9610   72.5550  221.0710 O   0  0  0  0  0  0  0  0  0  0  0  0
  138.1190   72.7710  221.5040 C   0  0  0  0  0  0  0  0  0  0  0  0
  138.8960   73.8300  220.8050 C   0  0  0  0  0  0  0  0  0  0  0  0
  140.2660   73.9480  221.3760 C   0  0  0  0  0  0  0  0  0  0  0  0
  141.2000   74.9080  220.7830 C   0  0  0  0  0  0  0  0  0  0  0  0
  142.3410   74.4560  220.1680 C   0  0  0  0  0  0  0  0  0  0  0  0
  143.2460   75.3850  219.6270 C   0  0  0  0  0  0  0  0  0  0  0  0
  142.9640   76.7500  219.7280 C   0  0  0  0  0  0  0  0  0  0  0  0
  141.8210   77.2150  220.3450 C   0  0  0  0  0  0  0  0  0  0  0  0
  141.5880   78.6310  220.4820 C   0  0  0  0  0  0  0  0  0  0  0  0
  141.1490   79.2270  219.4260 O   0  0  0  0  0  0  0  0  0  0  0  0
  141.7730   79.4430  221.6000 N   0  0  0  0  0  0  0  0  0  0  0  0
  141.4580   80.8720  221.4530 C   0  0  0  0  0  0  0  0  0  0  0  0
  140.5820   81.3420  222.5610 C   0  0  0  0  0  0  0  0  0  0  0  0
  140.8650   80.7660  223.7950 O   0  0  0  0  0  0  0  0  0  0  0  0
  142.1580   80.2370  223.8280 C   0  0  0  0  0  0  0  0  0  0  0  0
  142.2450   79.0180  222.9000 C   0  0  0  0  0  0  0  0  0  0  0  0
  140.9510   76.2610  220.8660 C   0  0  0  0  0  0  0  0  0  0  0  0
  140.7020   73.2530  222.3620 N   0  0  0  0  0  0  0  0  0  0  0  0
  139.9610   72.2600  223.0630 C   0  0  0  0  0  0  0  0  0  0  0  0
  140.5050   71.5760  224.1380 C   0  0  0  0  0  0  0  0  0  0  0  0
  139.7080   70.6500  224.7630 C   0  0  0  0  0  0  0  0  0  0  0  0
  140.2240   69.9530  225.9010 N   0  0  0  0  0  0  0  0  0  0  0  0
  140.9230   70.7330  226.9000 C   0  0  0  0  0  0  0  0  0  0  0  0
  140.8960   70.1170  228.2770 C   0  0  0  0  0  0  0  0  0  0  0  0
  140.2370   68.9120  228.3170 O   0  0  0  0  0  0  0  0  0  0  0  0
  140.6870   68.0440  227.3280 C   0  0  0  0  0  0  0  0  0  0  0  0
  140.0500   68.5180  226.0410 C   0  0  0  0  0  0  0  0  0  0  0  0
  138.4160   70.3620  224.3890 C   0  0  0  0  0  0  0  0  0  0  0  0
  137.9080   71.0630  223.3140 C   0  0  0  0  0  0  0  0  0  0  0  0
  138.6620   72.0230  222.6320 C   0  0  0  0  0  0  0  0  0  0  0  0
  138.9714   73.5760  219.7374 H   0  0  0  0  0  0  0  0  0  0  0  0
  138.3768   74.7909  220.9355 H   0  0  0  0  0  0  0  0  0  0  0  0
  142.5449   73.3772  220.0993 H   0  0  0  0  0  0  0  0  0  0  0  0
  144.1654   75.0419  219.1300 H   0  0  0  0  0  0  0  0  0  0  0  0
  143.6741   77.4748  219.3032 H   0  0  0  0  0  0  0  0  0  0  0  0
  142.3940   81.4497  221.4647 H   0  0  0  0  0  0  0  0  0  0  0  0
  140.9271   81.0176  220.5007 H   0  0  0  0  0  0  0  0  0  0  0  0
  140.6984   82.4319  222.6542 H   0  0  0  0  0  0  0  0  0  0  0  0
  139.5557   81.0437  222.3008 H   0  0  0  0  0  0  0  0  0  0  0  0
  142.8742   81.0021  223.4939 H   0  0  0  0  0  0  0  0  0  0  0  0
  142.3979   79.9284  224.8562 H   0  0  0  0  0  0  0  0  0  0  0  0
  143.2863   78.6705  222.8290 H   0  0  0  0  0  0  0  0  0  0  0  0
  141.6377   78.1860  223.2860 H   0  0  0  0  0  0  0  0  0  0  0  0
  140.0300   76.6000  221.3627 H   0  0  0  0  0  0  0  0  0  0  0  0
  141.5339   71.7674  224.4768 H   0  0  0  0  0  0  0  0  0  0  0  0
  141.9723   70.8384  226.5870 H   0  0  0  0  0  0  0  0  0  0  0  0
  140.4073   71.7021  226.9706 H   0  0  0  0  0  0  0  0  0  0  0  0
  141.9324   69.9601  228.6104 H   0  0  0  0  0  0  0  0  0  0  0  0
  140.3513   70.8100  228.9350 H   0  0  0  0  0  0  0  0  0  0  0  0
  141.7835   68.0869  227.2509 H   0  0  0  0  0  0  0  0  0  0  0  0
  140.4180   67.0012  227.5522 H   0  0  0  0  0  0  0  0  0  0  0  0
  140.5253   68.0085  225.1898 H   0  0  0  0  0  0  0  0  0  0  0  0
  138.9753   68.2845  226.0621 H   0  0  0  0  0  0  0  0  0  0  0  0
  137.8163   69.6090  224.9212 H   0  0  0  0  0  0  0  0  0  0  0  0
  136.8785   70.8603  222.9837 H   0  0  0  0  0  0  0  0  0  0  0  0
  1  2  2  0
  2  3  1  0
  3  4  1  0
  4  5  1  0
  5  6  2  0
  6  7  1  0
  7  8  2  0
  8  9  1  0
  9 10  1  0
 10 11  2  0
 10 12  1  0
 12 13  1  0
 13 14  1  0
 14 15  1  0
 15 16  1  0
 16 17  1  0
  9 18  2  0
  4 19  2  0
 19 20  1  0
 20 21  2  0
 21 22  1  0
 22 23  1  0
 23 24  1  0
 24 25  1  0
 25 26  1  0
 26 27  1  0
 27 28  1  0
 22 29  2  0
 29 30  1  0
 30 31  2  0
 31  2  1  0
 18  5  1  0
 31 20  1  0
 17 12  1  0
 28 23  1  0
  3 32  1  0
  3 33  1  0
  6 34  1  0
  7 35  1  0
  8 36  1  0
 13 37  1  0
 13 38  1  0
 14 39  1  0
 14 40  1  0
 16 41  1  0
 16 42  1  0
 17 43  1  0
 17 44  1  0
 18 45  1  0
 21 46  1  0
 24 47  1  0
 24 48  1  0
 25 49  1  0
 25 50  1  0
 27 51  1  0
 27 52  1  0
 28 53  1  0
 28 54  1  0
 29 55  1  0
 30 56  1  0
M  END
>  <smiles>  (31) 
O=C1CC(c2cccc(C(=O)N3CCOCC3)c2)=Nc2cc(N3CCOCC3)ccc21

>  <score_type>  (31) 
oracle

>  <origin>  (31) 
autodockgpu

>  <m_score__min__energy>  (31) 
-8.6899999999999995

>  <m_primary>  (31) 
energy

>  <rmsd>  (31) 
7.336172664960392

>  <m_score__min__rmsd>  (31) 
7.336172664960392

>  <meeko>  (31) 
{"free_energy": -8.68, "intermolecular_energy": -9.57, "internal_energy": -0.91, "cluster_size": 48, "cluster_id": 1, "rank_in_cluster": 23}

>  <energy>  (31) 
-8.67

>  <cluster_rmsd>  (31) 
0.11

>  <cluster>  (31) 
1

$$$$

     RDKit          3D

 56 60  0  0  0  0  0  0  0  0999 V2000
  142.1150   72.9790  219.1570 O   0  0  0  0  0  0  0  0  0  0  0  0
  141.4180   73.3520  220.1310 C   0  0  0  0  0  0  0  0  0  0  0  0
  140.6030   72.3010  220.7990 C   0  0  0  0  0  0  0  0  0  0  0  0
  139.7840   72.8820  221.8980 C   0  0  0  0  0  0  0  0  0  0  0  0
  138.8770   72.0070  222.6430 C   0  0  0  0  0  0  0  0  0  0  0  0
  137.5360   72.2990  222.6920 C   0  0  0  0  0  0  0  0  0  0  0  0
  136.6770   71.4700  223.4320 C   0  0  0  0  0  0  0  0  0  0  0  0
  137.2060   70.3650  224.1040 C   0  0  0  0  0  0  0  0  0  0  0  0
  138.5510   70.0620  224.0620 C   0  0  0  0  0  0  0  0  0  0  0  0
  139.0740   68.9480  224.8120 C   0  0  0  0  0  0  0  0  0  0  0  0
  139.1460   67.8310  224.1710 O   0  0  0  0  0  0  0  0  0  0  0  0
  139.5100   68.9120  226.1360 N   0  0  0  0  0  0  0  0  0  0  0  0
  139.9930   67.6220  226.6510 C   0  0  0  0  0  0  0  0  0  0  0  0
  141.3130   67.7760  227.3220 C   0  0  0  0  0  0  0  0  0  0  0  0
  141.4560   68.9610  228.0350 O   0  0  0  0  0  0  0  0  0  0  0  0
  140.2150   69.5250  228.3430 C   0  0  0  0  0  0  0  0  0  0  0  0
  139.5380   70.0260  227.0600 C   0  0  0  0  0  0  0  0  0  0  0  0
  139.3680   70.9090  223.3170 C   0  0  0  0  0  0  0  0  0  0  0  0
  139.8070   74.1170  222.2430 N   0  0  0  0  0  0  0  0  0  0  0  0
  140.6050   75.1280  221.6370 C   0  0  0  0  0  0  0  0  0  0  0  0
  140.5860   76.4360  222.0960 C   0  0  0  0  0  0  0  0  0  0  0  0
  141.4020   77.3370  221.4600 C   0  0  0  0  0  0  0  0  0  0  0  0
  141.4380   78.6870  221.9320 N   0  0  0  0  0  0  0  0  0  0  0  0
  141.4830   78.8910  223.3660 C   0  0  0  0  0  0  0  0  0  0  0  0
  142.1120   80.2020  223.7710 C   0  0  0  0  0  0  0  0  0  0  0  0
  142.4960   80.9710  222.6980 O   0  0  0  0  0  0  0  0  0  0  0  0
  141.4720   81.1090  221.7680 C   0  0  0  0  0  0  0  0  0  0  0  0
  141.4270   79.8050  221.0050 C   0  0  0  0  0  0  0  0  0  0  0  0
  142.2280   77.0250  220.4060 C   0  0  0  0  0  0  0  0  0  0  0  0
  142.2210   75.7120  219.9770 C   0  0  0  0  0  0  0  0  0  0  0  0
  141.4160   74.7400  220.5790 C   0  0  0  0  0  0  0  0  0  0  0  0
  139.9347   71.8382  220.0579 H   0  0  0  0  0  0  0  0  0  0  0  0
  141.2821   71.5488  221.2268 H   0  0  0  0  0  0  0  0  0  0  0  0
  137.1384   73.1739  222.1568 H   0  0  0  0  0  0  0  0  0  0  0  0
  135.6000   71.6882  223.4820 H   0  0  0  0  0  0  0  0  0  0  0  0
  136.5305   69.7182  224.6831 H   0  0  0  0  0  0  0  0  0  0  0  0
  139.2649   67.2285  227.3756 H   0  0  0  0  0  0  0  0  0  0  0  0
  140.1085   66.9281  225.8053 H   0  0  0  0  0  0  0  0  0  0  0  0
  141.4453   66.9358  228.0195 H   0  0  0  0  0  0  0  0  0  0  0  0
  142.0718   67.7931  226.5258 H   0  0  0  0  0  0  0  0  0  0  0  0
  139.5773   68.7660  228.8198 H   0  0  0  0  0  0  0  0  0  0  0  0
  140.3615   70.3713  229.0302 H   0  0  0  0  0  0  0  0  0  0  0  0
  138.5135   70.3614  227.2792 H   0  0  0  0  0  0  0  0  0  0  0  0
  140.0868   70.8781  226.6325 H   0  0  0  0  0  0  0  0  0  0  0  0
  140.4455   70.6938  223.2644 H   0  0  0  0  0  0  0  0  0  0  0  0
  139.9431   76.7390  222.9356 H   0  0  0  0  0  0  0  0  0  0  0  0
  140.4538   78.8649  223.7533 H   0  0  0  0  0  0  0  0  0  0  0  0
  142.1089   78.0898  223.7861 H   0  0  0  0  0  0  0  0  0  0  0  0
  141.3826   80.7710  224.3661 H   0  0  0  0  0  0  0  0  0  0  0  0
  143.0193   79.9662  224.3465 H   0  0  0  0  0  0  0  0  0  0  0  0
  140.5137   81.2874  222.2777 H   0  0  0  0  0  0  0  0  0  0  0  0
  141.6476   81.9633  221.0977 H   0  0  0  0  0  0  0  0  0  0  0  0
  140.5087   79.7681  220.4005 H   0  0  0  0  0  0  0  0  0  0  0  0
  142.3079   79.7394  220.3494 H   0  0  0  0  0  0  0  0  0  0  0  0
  142.8638   77.7844  219.9274 H   0  0  0  0  0  0  0  0  0  0  0  0
  142.8684   75.4222  219.1362 H   0  0  0  0  0  0  0  0  0  0  0  0
  1  2  2  0
  2  3  1  0
  3  4  1  0
  4  5  1  0
  5  6  2  0
  6  7  1  0
  7  8  2  0
  8  9  1  0
  9 10  1  0
 10 11  2  0
 10 12  1  0
 12 13  1  0
 13 14  1  0
 14 15  1  0
 15 16  1  0
 16 17  1  0
  9 18  2  0
  4 19  2  0
 19 20  1  0
 20 21  2  0
 21 22  1  0
 22 23  1  0
 23 24  1  0
 24 25  1  0
 25 26  1  0
 26 27  1  0
 27 28  1  0
 22 29  2  0
 29 30  1  0
 30 31  2  0
 31  2  1  0
 18  5  1  0
 31 20  1  0
 17 12  1  0
 28 23  1  0
  3 32  1  0
  3 33  1  0
  6 34  1  0
  7 35  1  0
  8 36  1  0
 13 37  1  0
 13 38  1  0
 14 39  1  0
 14 40  1  0
 16 41  1  0
 16 42  1  0
 17 43  1  0
 17 44  1  0
 18 45  1  0
 21 46  1  0
 24 47  1  0
 24 48  1  0
 25 49  1  0
 25 50  1  0
 27 51  1  0
 27 52  1  0
 28 53  1  0
 28 54  1  0
 29 55  1  0
 30 56  1  0
M  END
>  <smiles>  (32) 
O=C1CC(c2cccc(C(=O)N3CCOCC3)c2)=Nc2cc(N3CCOCC3)ccc21

>  <score_type>  (32) 
oracle

>  <origin>  (32) 
autodockgpu

>  <m_score__min__energy>  (32) 
-8.6899999999999995

>  <m_primary>  (32) 
energy

>  <rmsd>  (32) 
6.942867203070124

>  <m_score__min__rmsd>  (32) 
6.942867203070124

>  <meeko>  (32) 
{"free_energy": -8.47, "intermolecular_energy": -9.36, "internal_energy": -0.91, "cluster_size": 48, "cluster_id": 1, "rank_in_cluster": 42}

>  <energy>  (32) 
-8.67

>  <cluster_rmsd>  (32) 
0.16

>  <cluster>  (32) 
1

$$$$

     RDKit          3D

 56 60  0  0  0  0  0  0  0  0999 V2000
  141.7630   74.3410  218.1700 O   0  0  0  0  0  0  0  0  0  0  0  0
  141.4030   74.4840  219.3640 C   0  0  0  0  0  0  0  0  0  0  0  0
  140.8810   73.2680  220.0440 C   0  0  0  0  0  0  0  0  0  0  0  0
  140.4380   73.5840  221.4300 C   0  0  0  0  0  0  0  0  0  0  0  0
  139.8470   72.5190  222.2440 C   0  0  0  0  0  0  0  0  0  0  0  0
  138.7510   71.8350  221.7790 C   0  0  0  0  0  0  0  0  0  0  0  0
  138.1720   70.8350  222.5790 C   0  0  0  0  0  0  0  0  0  0  0  0
  138.7260   70.5580  223.8310 C   0  0  0  0  0  0  0  0  0  0  0  0
  139.8270   71.2400  224.3090 C   0  0  0  0  0  0  0  0  0  0  0  0
  140.3380   70.9690  225.6290 C   0  0  0  0  0  0  0  0  0  0  0  0
  140.6980   72.0030  226.3090 O   0  0  0  0  0  0  0  0  0  0  0  0
  140.4980   69.7410  226.2690 N   0  0  0  0  0  0  0  0  0  0  0  0
  141.0570   69.7590  227.6300 C   0  0  0  0  0  0  0  0  0  0  0  0
  140.2250   68.9480  228.5600 C   0  0  0  0  0  0  0  0  0  0  0  0
  139.6920   67.7960  227.9910 O   0  0  0  0  0  0  0  0  0  0  0  0
  140.3980   67.4170  226.8470 C   0  0  0  0  0  0  0  0  0  0  0  0
  140.1650   68.4410  225.7270 C   0  0  0  0  0  0  0  0  0  0  0  0
  140.3690   72.2220  223.4850 C   0  0  0  0  0  0  0  0  0  0  0  0
  140.5270   74.7420  221.9730 N   0  0  0  0  0  0  0  0  0  0  0  0
  141.0540   75.9070  221.3480 C   0  0  0  0  0  0  0  0  0  0  0  0
  141.1380   77.1150  222.0230 C   0  0  0  0  0  0  0  0  0  0  0  0
  141.6770   78.1790  221.3440 C   0  0  0  0  0  0  0  0  0  0  0  0
  141.8160   79.4300  222.0220 N   0  0  0  0  0  0  0  0  0  0  0  0
  141.7210   80.6360  221.2240 C   0  0  0  0  0  0  0  0  0  0  0  0
  141.2720   81.8450  222.0070 C   0  0  0  0  0  0  0  0  0  0  0  0
  141.0690   81.5810  223.3400 O   0  0  0  0  0  0  0  0  0  0  0  0
  142.1530   80.9220  223.9080 C   0  0  0  0  0  0  0  0  0  0  0  0
  142.0460   79.4840  223.4550 C   0  0  0  0  0  0  0  0  0  0  0  0
  142.1320   78.1200  220.0470 C   0  0  0  0  0  0  0  0  0  0  0  0
  142.0330   76.9010  219.4070 C   0  0  0  0  0  0  0  0  0  0  0  0
  141.4970   75.7740  220.0380 C   0  0  0  0  0  0  0  0  0  0  0  0
  140.0266   72.8749  219.4735 H   0  0  0  0  0  0  0  0  0  0  0  0
  141.6860   72.5200  220.0939 H   0  0  0  0  0  0  0  0  0  0  0  0
  138.3301   72.0675  220.7897 H   0  0  0  0  0  0  0  0  0  0  0  0
  137.2931   70.2772  222.2235 H   0  0  0  0  0  0  0  0  0  0  0  0
  138.2718   69.7736  224.4542 H   0  0  0  0  0  0  0  0  0  0  0  0
  142.0760   69.3455  227.6057 H   0  0  0  0  0  0  0  0  0  0  0  0
  141.0710   70.7987  227.9890 H   0  0  0  0  0  0  0  0  0  0  0  0
  140.8513   68.6526  229.4147 H   0  0  0  0  0  0  0  0  0  0  0  0
  139.3730   69.5788  228.8537 H   0  0  0  0  0  0  0  0  0  0  0  0
  141.4720   67.3692  227.0801 H   0  0  0  0  0  0  0  0  0  0  0  0
  140.0459   66.4294  226.5143 H   0  0  0  0  0  0  0  0  0  0  0  0
  140.8109   68.2134  224.8662 H   0  0  0  0  0  0  0  0  0  0  0  0
  139.1212   68.4147  225.3808 H   0  0  0  0  0  0  0  0  0  0  0  0
  141.2474   72.7826  223.8374 H   0  0  0  0  0  0  0  0  0  0  0  0
  140.7870   77.2166  223.0605 H   0  0  0  0  0  0  0  0  0  0  0  0
  142.7114   80.8479  220.7948 H   0  0  0  0  0  0  0  0  0  0  0  0
  140.9605   80.4519  220.4508 H   0  0  0  0  0  0  0  0  0  0  0  0
  142.0425   82.6250  221.9183 H   0  0  0  0  0  0  0  0  0  0  0  0
  140.3079   82.1674  221.5868 H   0  0  0  0  0  0  0  0  0  0  0  0
  143.0969   81.3647  223.5571 H   0  0  0  0  0  0  0  0  0  0  0  0
  142.1451   81.0019  225.0051 H   0  0  0  0  0  0  0  0  0  0  0  0
  142.9812   78.9564  223.6939 H   0  0  0  0  0  0  0  0  0  0  0  0
  141.2034   79.0038  223.9741 H   0  0  0  0  0  0  0  0  0  0  0  0
  142.5546   79.0022  219.5439 H   0  0  0  0  0  0  0  0  0  0  0  0
  142.3865   76.8134  218.3690 H   0  0  0  0  0  0  0  0  0  0  0  0
  1  2  2  0
  2  3  1  0
  3  4  1  0
  4  5  1  0
  5  6  2  0
  6  7  1  0
  7  8  2  0
  8  9  1  0
  9 10  1  0
 10 11  2  0
 10 12  1  0
 12 13  1  0
 13 14  1  0
 14 15  1  0
 15 16  1  0
 16 17  1  0
  9 18  2  0
  4 19  2  0
 19 20  1  0
 20 21  2  0
 21 22  1  0
 22 23  1  0
 23 24  1  0
 24 25  1  0
 25 26  1  0
 26 27  1  0
 27 28  1  0
 22 29  2  0
 29 30  1  0
 30 31  2  0
 31  2  1  0
 18  5  1  0
 31 20  1  0
 17 12  1  0
 28 23  1  0
  3 32  1  0
  3 33  1  0
  6 34  1  0
  7 35  1  0
  8 36  1  0
 13 37  1  0
 13 38  1  0
 14 39  1  0
 14 40  1  0
 16 41  1  0
 16 42  1  0
 17 43  1  0
 17 44  1  0
 18 45  1  0
 21 46  1  0
 24 47  1  0
 24 48  1  0
 25 49  1  0
 25 50  1  0
 27 51  1  0
 27 52  1  0
 28 53  1  0
 28 54  1  0
 29 55  1  0
 30 56  1  0
M  END
>  <smiles>  (33) 
O=C1CC(c2cccc(C(=O)N3CCOCC3)c2)=Nc2cc(N3CCOCC3)ccc21

>  <score_type>  (33) 
oracle

>  <origin>  (33) 
autodockgpu

>  <m_score__min__energy>  (33) 
-8.6899999999999995

>  <m_primary>  (33) 
energy

>  <rmsd>  (33) 
7.564004819974288

>  <m_score__min__rmsd>  (33) 
7.564004819974288

>  <meeko>  (33) 
{"free_energy": -8.55, "intermolecular_energy": -9.44, "internal_energy": -0.85, "cluster_size": 48, "cluster_id": 1, "rank_in_cluster": 39}

>  <energy>  (33) 
-8.67

>  <cluster_rmsd>  (33) 
0.07

>  <cluster>  (33) 
1

$$$$

     RDKit          3D

 56 60  0  0  0  0  0  0  0  0999 V2000
  137.0160   72.5010  221.0160 O   0  0  0  0  0  0  0  0  0  0  0  0
  138.1600   72.7450  221.4710 C   0  0  0  0  0  0  0  0  0  0  0  0
  138.9270   73.8190  220.7830 C   0  0  0  0  0  0  0  0  0  0  0  0
  140.2820   73.9700  221.3810 C   0  0  0  0  0  0  0  0  0  0  0  0
  141.2050   74.9490  220.8020 C   0  0  0  0  0  0  0  0  0  0  0  0
  142.3700   74.5220  220.2140 C   0  0  0  0  0  0  0  0  0  0  0  0
  143.2630   75.4700  219.6870 C   0  0  0  0  0  0  0  0  0  0  0  0
  142.9460   76.8280  219.7750 C   0  0  0  0  0  0  0  0  0  0  0  0
  141.7800   77.2690  220.3650 C   0  0  0  0  0  0  0  0  0  0  0  0
  141.5100   78.6790  220.4890 C   0  0  0  0  0  0  0  0  0  0  0  0
  140.8610   79.2090  219.5100 O   0  0  0  0  0  0  0  0  0  0  0  0
  141.8570   79.5470  221.5230 N   0  0  0  0  0  0  0  0  0  0  0  0
  141.4550   80.9550  221.3840 C   0  0  0  0  0  0  0  0  0  0  0  0
  140.7730   81.4410  222.6150 C   0  0  0  0  0  0  0  0  0  0  0  0
  141.3020   80.9320  223.7970 O   0  0  0  0  0  0  0  0  0  0  0  0
  142.6030   80.4560  223.6120 C   0  0  0  0  0  0  0  0  0  0  0  0
  142.5770   79.2000  222.7300 C   0  0  0  0  0  0  0  0  0  0  0  0
  140.9220   76.2970  220.8730 C   0  0  0  0  0  0  0  0  0  0  0  0
  140.7140   73.2880  222.3770 N   0  0  0  0  0  0  0  0  0  0  0  0
  139.9820   72.2810  223.0670 C   0  0  0  0  0  0  0  0  0  0  0  0
  140.5210   71.6130  224.1550 C   0  0  0  0  0  0  0  0  0  0  0  0
  139.7340   70.6700  224.7670 C   0  0  0  0  0  0  0  0  0  0  0  0
  140.2420   69.9890  225.9170 N   0  0  0  0  0  0  0  0  0  0  0  0
  140.9330   70.7840  226.9120 C   0  0  0  0  0  0  0  0  0  0  0  0
  140.8970   70.1840  228.2970 C   0  0  0  0  0  0  0  0  0  0  0  0
  140.2410   68.9780  228.3460 O   0  0  0  0  0  0  0  0  0  0  0  0
  140.7010   68.0990  227.3710 C   0  0  0  0  0  0  0  0  0  0  0  0
  140.0720   68.5550  226.0740 C   0  0  0  0  0  0  0  0  0  0  0  0
  138.4560   70.3520  224.3700 C   0  0  0  0  0  0  0  0  0  0  0  0
  137.9530   71.0390  223.2830 C   0  0  0  0  0  0  0  0  0  0  0  0
  138.6980   72.0130  222.6120 C   0  0  0  0  0  0  0  0  0  0  0  0
  139.0297   73.5628  219.7182 H   0  0  0  0  0  0  0  0  0  0  0  0
  138.3837   74.7684  220.8988 H   0  0  0  0  0  0  0  0  0  0  0  0
  142.6019   73.4483  220.1561 H   0  0  0  0  0  0  0  0  0  0  0  0
  144.2005   75.1470  219.2108 H   0  0  0  0  0  0  0  0  0  0  0  0
  143.6474   77.5675  219.3613 H   0  0  0  0  0  0  0  0  0  0  0  0
  142.3502   81.5682  221.2032 H   0  0  0  0  0  0  0  0  0  0  0  0
  140.7539   81.0368  220.5403 H   0  0  0  0  0  0  0  0  0  0  0  0
  140.8540   82.5376  222.6445 H   0  0  0  0  0  0  0  0  0  0  0  0
  139.7311   81.0929  222.5584 H   0  0  0  0  0  0  0  0  0  0  0  0
  143.2099   81.2326  223.1236 H   0  0  0  0  0  0  0  0  0  0  0  0
  143.0399   80.2041  224.5896 H   0  0  0  0  0  0  0  0  0  0  0  0
  143.6031   78.8907  222.4823 H   0  0  0  0  0  0  0  0  0  0  0  0
  142.0896   78.3632  223.2517 H   0  0  0  0  0  0  0  0  0  0  0  0
  139.9831   76.6163  221.3489 H   0  0  0  0  0  0  0  0  0  0  0  0
  141.5381   71.8298  224.5134 H   0  0  0  0  0  0  0  0  0  0  0  0
  141.9843   70.8879  226.6053 H   0  0  0  0  0  0  0  0  0  0  0  0
  140.4153   71.7530  226.9668 H   0  0  0  0  0  0  0  0  0  0  0  0
  141.9312   70.0339  228.6403 H   0  0  0  0  0  0  0  0  0  0  0  0
  140.3455   70.8833  228.9426 H   0  0  0  0  0  0  0  0  0  0  0  0
  141.7979   68.1444  227.3013 H   0  0  0  0  0  0  0  0  0  0  0  0
  140.4337   67.0582  227.6062 H   0  0  0  0  0  0  0  0  0  0  0  0
  140.5552   68.0366  225.2327 H   0  0  0  0  0  0  0  0  0  0  0  0
  138.9979   68.3183  226.0906 H   0  0  0  0  0  0  0  0  0  0  0  0
  137.8632   69.5872  224.8933 H   0  0  0  0  0  0  0  0  0  0  0  0
  136.9345   70.8128  222.9343 H   0  0  0  0  0  0  0  0  0  0  0  0
  1  2  2  0
  2  3  1  0
  3  4  1  0
  4  5  1  0
  5  6  2  0
  6  7  1  0
  7  8  2  0
  8  9  1  0
  9 10  1  0
 10 11  2  0
 10 12  1  0
 12 13  1  0
 13 14  1  0
 14 15  1  0
 15 16  1  0
 16 17  1  0
  9 18  2  0
  4 19  2  0
 19 20  1  0
 20 21  2  0
 21 22  1  0
 22 23  1  0
 23 24  1  0
 24 25  1  0
 25 26  1  0
 26 27  1  0
 27 28  1  0
 22 29  2  0
 29 30  1  0
 30 31  2  0
 31  2  1  0
 18  5  1  0
 31 20  1  0
 17 12  1  0
 28 23  1  0
  3 32  1  0
  3 33  1  0
  6 34  1  0
  7 35  1  0
  8 36  1  0
 13 37  1  0
 13 38  1  0
 14 39  1  0
 14 40  1  0
 16 41  1  0
 16 42  1  0
 17 43  1  0
 17 44  1  0
 18 45  1  0
 21 46  1  0
 24 47  1  0
 24 48  1  0
 25 49  1  0
 25 50  1  0
 27 51  1  0
 27 52  1  0
 28 53  1  0
 28 54  1  0
 29 55  1  0
 30 56  1  0
M  END
>  <smiles>  (34) 
O=C1CC(c2cccc(C(=O)N3CCOCC3)c2)=Nc2cc(N3CCOCC3)ccc21

>  <score_type>  (34) 
oracle

>  <origin>  (34) 
autodockgpu

>  <m_score__min__energy>  (34) 
-8.6899999999999995

>  <m_primary>  (34) 
energy

>  <rmsd>  (34) 
7.35513502017319

>  <m_score__min__rmsd>  (34) 
7.35513502017319

>  <meeko>  (34) 
{"free_energy": -8.68, "intermolecular_energy": -9.57, "internal_energy": -0.91, "cluster_size": 48, "cluster_id": 1, "rank_in_cluster": 24}

>  <energy>  (34) 
-8.66

>  <cluster_rmsd>  (34) 
0.14

>  <cluster>  (34) 
1

$$$$

     RDKit          3D

 56 60  0  0  0  0  0  0  0  0999 V2000
  136.9120   72.7140  221.2410 O   0  0  0  0  0  0  0  0  0  0  0  0
  138.0920   72.8810  221.6320 C   0  0  0  0  0  0  0  0  0  0  0  0
  138.8740   73.9380  220.9340 C   0  0  0  0  0  0  0  0  0  0  0  0
  140.2690   73.9960  221.4510 C   0  0  0  0  0  0  0  0  0  0  0  0
  141.2080   74.9450  220.8500 C   0  0  0  0  0  0  0  0  0  0  0  0
  142.3650   74.4850  220.2710 C   0  0  0  0  0  0  0  0  0  0  0  0
  143.2740   75.4060  219.7220 C   0  0  0  0  0  0  0  0  0  0  0  0
  142.9800   76.7710  219.7780 C   0  0  0  0  0  0  0  0  0  0  0  0
  141.8210   77.2440  220.3570 C   0  0  0  0  0  0  0  0  0  0  0  0
  141.5750   78.6610  220.4480 C   0  0  0  0  0  0  0  0  0  0  0  0
  140.9810   79.1890  219.4330 O   0  0  0  0  0  0  0  0  0  0  0  0
  141.8920   79.5380  221.4840 N   0  0  0  0  0  0  0  0  0  0  0  0
  141.5250   80.9520  221.3060 C   0  0  0  0  0  0  0  0  0  0  0  0
  140.7980   81.4700  222.4980 C   0  0  0  0  0  0  0  0  0  0  0  0
  141.2620   80.9690  223.7100 O   0  0  0  0  0  0  0  0  0  0  0  0
  142.5600   80.4650  223.5920 C   0  0  0  0  0  0  0  0  0  0  0  0
  142.5480   79.1960  222.7280 C   0  0  0  0  0  0  0  0  0  0  0  0
  140.9470   76.2980  220.8880 C   0  0  0  0  0  0  0  0  0  0  0  0
  140.7220   73.2550  222.3950 N   0  0  0  0  0  0  0  0  0  0  0  0
  139.9790   72.2640  223.0950 C   0  0  0  0  0  0  0  0  0  0  0  0
  140.5450   71.5290  224.1250 C   0  0  0  0  0  0  0  0  0  0  0  0
  139.7450   70.6070  224.7530 C   0  0  0  0  0  0  0  0  0  0  0  0
  140.2840   69.8580  225.8460 N   0  0  0  0  0  0  0  0  0  0  0  0
  141.0350   70.5870  226.8480 C   0  0  0  0  0  0  0  0  0  0  0  0
  141.0420   69.9210  228.2020 C   0  0  0  0  0  0  0  0  0  0  0  0
  140.3590   68.7290  228.2210 O   0  0  0  0  0  0  0  0  0  0  0  0
  140.7550   67.8890  227.1860 C   0  0  0  0  0  0  0  0  0  0  0  0
  140.0850   68.4230  225.9410 C   0  0  0  0  0  0  0  0  0  0  0  0
  138.4310   70.3710  224.4250 C   0  0  0  0  0  0  0  0  0  0  0  0
  137.9010   71.1230  223.3950 C   0  0  0  0  0  0  0  0  0  0  0  0
  138.6570   72.0800  222.7120 C   0  0  0  0  0  0  0  0  0  0  0  0
  138.8981   73.7160  219.8569 H   0  0  0  0  0  0  0  0  0  0  0  0
  138.3914   74.9097  221.1155 H   0  0  0  0  0  0  0  0  0  0  0  0
  142.5784   73.4064  220.2371 H   0  0  0  0  0  0  0  0  0  0  0  0
  144.2059   75.0563  219.2538 H   0  0  0  0  0  0  0  0  0  0  0  0
  143.6936   77.4891  219.3478 H   0  0  0  0  0  0  0  0  0  0  0  0
  142.4396   81.5448  221.1570 H   0  0  0  0  0  0  0  0  0  0  0  0
  140.8646   81.0346  220.4302 H   0  0  0  0  0  0  0  0  0  0  0  0
  140.9000   82.5651  222.5155 H   0  0  0  0  0  0  0  0  0  0  0  0
  139.7529   81.1413  222.3989 H   0  0  0  0  0  0  0  0  0  0  0  0
  143.2042   81.2218  223.1206 H   0  0  0  0  0  0  0  0  0  0  0  0
  142.9471   80.2201  224.5921 H   0  0  0  0  0  0  0  0  0  0  0  0
  143.5777   78.8620  222.5328 H   0  0  0  0  0  0  0  0  0  0  0  0
  142.0192   78.3779  223.2389 H   0  0  0  0  0  0  0  0  0  0  0  0
  140.0132   76.6438  221.3553 H   0  0  0  0  0  0  0  0  0  0  0  0
  141.5922   71.6784  224.4267 H   0  0  0  0  0  0  0  0  0  0  0  0
  142.0748   70.6822  226.5021 H   0  0  0  0  0  0  0  0  0  0  0  0
  140.5438   71.5634  226.9717 H   0  0  0  0  0  0  0  0  0  0  0  0
  142.0856   69.7309  228.4930 H   0  0  0  0  0  0  0  0  0  0  0  0
  140.5353   70.6000  228.9036 H   0  0  0  0  0  0  0  0  0  0  0  0
  141.8488   67.9117  227.0718 H   0  0  0  0  0  0  0  0  0  0  0  0
  140.4707   66.8446  227.3818 H   0  0  0  0  0  0  0  0  0  0  0  0
  140.5198   67.9357  225.0559 H   0  0  0  0  0  0  0  0  0  0  0  0
  139.0069   68.2108  225.9921 H   0  0  0  0  0  0  0  0  0  0  0  0
  137.8303   69.6190  224.9576 H   0  0  0  0  0  0  0  0  0  0  0  0
  136.8524   70.9641  223.1033 H   0  0  0  0  0  0  0  0  0  0  0  0
  1  2  2  0
  2  3  1  0
  3  4  1  0
  4  5  1  0
  5  6  2  0
  6  7  1  0
  7  8  2  0
  8  9  1  0
  9 10  1  0
 10 11  2  0
 10 12  1  0
 12 13  1  0
 13 14  1  0
 14 15  1  0
 15 16  1  0
 16 17  1  0
  9 18  2  0
  4 19  2  0
 19 20  1  0
 20 21  2  0
 21 22  1  0
 22 23  1  0
 23 24  1  0
 24 25  1  0
 25 26  1  0
 26 27  1  0
 27 28  1  0
 22 29  2  0
 29 30  1  0
 30 31  2  0
 31  2  1  0
 18  5  1  0
 31 20  1  0
 17 12  1  0
 28 23  1  0
  3 32  1  0
  3 33  1  0
  6 34  1  0
  7 35  1  0
  8 36  1  0
 13 37  1  0
 13 38  1  0
 14 39  1  0
 14 40  1  0
 16 41  1  0
 16 42  1  0
 17 43  1  0
 17 44  1  0
 18 45  1  0
 21 46  1  0
 24 47  1  0
 24 48  1  0
 25 49  1  0
 25 50  1  0
 27 51  1  0
 27 52  1  0
 28 53  1  0
 28 54  1  0
 29 55  1  0
 30 56  1  0
M  END
>  <smiles>  (35) 
O=C1CC(c2cccc(C(=O)N3CCOCC3)c2)=Nc2cc(N3CCOCC3)ccc21

>  <score_type>  (35) 
oracle

>  <origin>  (35) 
autodockgpu

>  <m_score__min__energy>  (35) 
-8.6899999999999995

>  <m_primary>  (35) 
energy

>  <rmsd>  (35) 
7.351847262405145

>  <m_score__min__rmsd>  (35) 
7.351847262405145

>  <meeko>  (35) 
{"free_energy": -8.68, "intermolecular_energy": -9.58, "internal_energy": -0.91, "cluster_size": 48, "cluster_id": 1, "rank_in_cluster": 8}

>  <energy>  (35) 
-8.66

>  <cluster_rmsd>  (35) 
0.18

>  <cluster>  (35) 
1

$$$$

     RDKit          3D

 56 60  0  0  0  0  0  0  0  0999 V2000
  136.9080   72.6730  221.2080 O   0  0  0  0  0  0  0  0  0  0  0  0
  138.0840   72.8440  221.6100 C   0  0  0  0  0  0  0  0  0  0  0  0
  138.8730   73.8960  220.9130 C   0  0  0  0  0  0  0  0  0  0  0  0
  140.2620   73.9590  221.4450 C   0  0  0  0  0  0  0  0  0  0  0  0
  141.2060   74.9050  220.8470 C   0  0  0  0  0  0  0  0  0  0  0  0
  142.3500   74.4390  220.2470 C   0  0  0  0  0  0  0  0  0  0  0  0
  143.2650   75.3550  219.7020 C   0  0  0  0  0  0  0  0  0  0  0  0
  142.9900   76.7230  219.7820 C   0  0  0  0  0  0  0  0  0  0  0  0
  141.8440   77.2030  220.3830 C   0  0  0  0  0  0  0  0  0  0  0  0
  141.6190   78.6210  220.4990 C   0  0  0  0  0  0  0  0  0  0  0  0
  141.2040   79.2080  219.4290 O   0  0  0  0  0  0  0  0  0  0  0  0
  141.7890   79.4460  221.6110 N   0  0  0  0  0  0  0  0  0  0  0  0
  141.4860   80.8750  221.4420 C   0  0  0  0  0  0  0  0  0  0  0  0
  140.5930   81.3640  222.5280 C   0  0  0  0  0  0  0  0  0  0  0  0
  140.8500   80.8010  223.7740 O   0  0  0  0  0  0  0  0  0  0  0  0
  142.1390   80.2640  223.8370 C   0  0  0  0  0  0  0  0  0  0  0  0
  142.2340   79.0330  222.9250 C   0  0  0  0  0  0  0  0  0  0  0  0
  140.9650   76.2610  220.9100 C   0  0  0  0  0  0  0  0  0  0  0  0
  140.7060   73.2260  222.3990 N   0  0  0  0  0  0  0  0  0  0  0  0
  139.9560   72.2390  223.0980 C   0  0  0  0  0  0  0  0  0  0  0  0
  140.5120   71.5110  224.1390 C   0  0  0  0  0  0  0  0  0  0  0  0
  139.7060   70.5930  224.7650 C   0  0  0  0  0  0  0  0  0  0  0  0
  140.2340   69.8520  225.8690 N   0  0  0  0  0  0  0  0  0  0  0  0
  140.9580   70.5920  226.8820 C   0  0  0  0  0  0  0  0  0  0  0  0
  140.9480   69.9280  228.2380 C   0  0  0  0  0  0  0  0  0  0  0  0
  140.2790   68.7280  228.2470 O   0  0  0  0  0  0  0  0  0  0  0  0
  140.7030   67.8910  227.2210 C   0  0  0  0  0  0  0  0  0  0  0  0
  140.0490   68.4150  225.9630 C   0  0  0  0  0  0  0  0  0  0  0  0
  138.3950   70.3530  224.4240 C   0  0  0  0  0  0  0  0  0  0  0  0
  137.8760   71.0970  223.3830 C   0  0  0  0  0  0  0  0  0  0  0  0
  138.6380   72.0510  222.7020 C   0  0  0  0  0  0  0  0  0  0  0  0
  138.9093   73.6659  219.8379 H   0  0  0  0  0  0  0  0  0  0  0  0
  138.3878   74.8687  221.0818 H   0  0  0  0  0  0  0  0  0  0  0  0
  142.5481   73.3583  220.1936 H   0  0  0  0  0  0  0  0  0  0  0  0
  144.1868   74.9999  219.2181 H   0  0  0  0  0  0  0  0  0  0  0  0
  143.7078   77.4379  219.3535 H   0  0  0  0  0  0  0  0  0  0  0  0
  142.4254   81.4468  221.4642 H   0  0  0  0  0  0  0  0  0  0  0  0
  140.9732   81.0126  220.4786 H   0  0  0  0  0  0  0  0  0  0  0  0
  140.7147   82.4541  222.6102 H   0  0  0  0  0  0  0  0  0  0  0  0
  139.5696   81.0692  222.2527 H   0  0  0  0  0  0  0  0  0  0  0  0
  142.8663   81.0203  223.5068 H   0  0  0  0  0  0  0  0  0  0  0  0
  142.3586   79.9666  224.8730 H   0  0  0  0  0  0  0  0  0  0  0  0
  143.2738   78.6771  222.8774 H   0  0  0  0  0  0  0  0  0  0  0  0
  141.6135   78.2101  223.3095 H   0  0  0  0  0  0  0  0  0  0  0  0
  140.0425   76.6121  221.3955 H   0  0  0  0  0  0  0  0  0  0  0  0
  141.5560   71.6629  224.4504 H   0  0  0  0  0  0  0  0  0  0  0  0
  142.0027   70.6987  226.5547 H   0  0  0  0  0  0  0  0  0  0  0  0
  140.4537   71.5631  226.9945 H   0  0  0  0  0  0  0  0  0  0  0  0
  141.9883   69.7509  228.5485 H   0  0  0  0  0  0  0  0  0  0  0  0
  140.4204   70.6021  228.9288 H   0  0  0  0  0  0  0  0  0  0  0  0
  141.7983   67.9263  227.1262 H   0  0  0  0  0  0  0  0  0  0  0  0
  140.4274   66.8437  227.4137 H   0  0  0  0  0  0  0  0  0  0  0  0
  140.5047   67.9309  225.0867 H   0  0  0  0  0  0  0  0  0  0  0  0
  138.9726   68.1908  225.9952 H   0  0  0  0  0  0  0  0  0  0  0  0
  137.7892   69.6042  224.9552 H   0  0  0  0  0  0  0  0  0  0  0  0
  136.8311   70.9341  223.0803 H   0  0  0  0  0  0  0  0  0  0  0  0
  1  2  2  0
  2  3  1  0
  3  4  1  0
  4  5  1  0
  5  6  2  0
  6  7  1  0
  7  8  2  0
  8  9  1  0
  9 10  1  0
 10 11  2  0
 10 12  1  0
 12 13  1  0
 13 14  1  0
 14 15  1  0
 15 16  1  0
 16 17  1  0
  9 18  2  0
  4 19  2  0
 19 20  1  0
 20 21  2  0
 21 22  1  0
 22 23  1  0
 23 24  1  0
 24 25  1  0
 25 26  1  0
 26 27  1  0
 27 28  1  0
 22 29  2  0
 29 30  1  0
 30 31  2  0
 31  2  1  0
 18  5  1  0
 31 20  1  0
 17 12  1  0
 28 23  1  0
  3 32  1  0
  3 33  1  0
  6 34  1  0
  7 35  1  0
  8 36  1  0
 13 37  1  0
 13 38  1  0
 14 39  1  0
 14 40  1  0
 16 41  1  0
 16 42  1  0
 17 43  1  0
 17 44  1  0
 18 45  1  0
 21 46  1  0
 24 47  1  0
 24 48  1  0
 25 49  1  0
 25 50  1  0
 27 51  1  0
 27 52  1  0
 28 53  1  0
 28 54  1  0
 29 55  1  0
 30 56  1  0
M  END
>  <smiles>  (36) 
O=C1CC(c2cccc(C(=O)N3CCOCC3)c2)=Nc2cc(N3CCOCC3)ccc21

>  <score_type>  (36) 
oracle

>  <origin>  (36) 
autodockgpu

>  <m_score__min__energy>  (36) 
-8.6899999999999995

>  <m_primary>  (36) 
energy

>  <rmsd>  (36) 
7.3260842017601115

>  <m_score__min__rmsd>  (36) 
7.3260842017601115

>  <meeko>  (36) 
{"free_energy": -8.68, "intermolecular_energy": -9.57, "internal_energy": -0.92, "cluster_size": 48, "cluster_id": 1, "rank_in_cluster": 18}

>  <energy>  (36) 
-8.65

>  <cluster_rmsd>  (36) 
1.52

>  <cluster>  (36) 
1

$$$$

     RDKit          3D

 56 60  0  0  0  0  0  0  0  0999 V2000
  137.0250   72.5110  221.0240 O   0  0  0  0  0  0  0  0  0  0  0  0
  138.1690   72.7540  221.4770 C   0  0  0  0  0  0  0  0  0  0  0  0
  138.9350   73.8300  220.7890 C   0  0  0  0  0  0  0  0  0  0  0  0
  140.2910   73.9800  221.3850 C   0  0  0  0  0  0  0  0  0  0  0  0
  141.2130   74.9600  220.8070 C   0  0  0  0  0  0  0  0  0  0  0  0
  142.3770   74.5340  220.2170 C   0  0  0  0  0  0  0  0  0  0  0  0
  143.2700   75.4840  219.6910 C   0  0  0  0  0  0  0  0  0  0  0  0
  142.9520   76.8420  219.7800 C   0  0  0  0  0  0  0  0  0  0  0  0
  141.7860   77.2800  220.3710 C   0  0  0  0  0  0  0  0  0  0  0  0
  141.5150   78.6900  220.4970 C   0  0  0  0  0  0  0  0  0  0  0  0
  140.8720   79.2230  219.5150 O   0  0  0  0  0  0  0  0  0  0  0  0
  141.8550   79.5570  221.5350 N   0  0  0  0  0  0  0  0  0  0  0  0
  141.4540   80.9650  221.3960 C   0  0  0  0  0  0  0  0  0  0  0  0
  140.7650   81.4470  222.6240 C   0  0  0  0  0  0  0  0  0  0  0  0
  141.2860   80.9360  223.8090 O   0  0  0  0  0  0  0  0  0  0  0  0
  142.5880   80.4600  223.6310 C   0  0  0  0  0  0  0  0  0  0  0  0
  142.5670   79.2060  222.7460 C   0  0  0  0  0  0  0  0  0  0  0  0
  140.9290   76.3070  220.8790 C   0  0  0  0  0  0  0  0  0  0  0  0
  140.7250   73.2960  222.3790 N   0  0  0  0  0  0  0  0  0  0  0  0
  139.9950   72.2880  223.0690 C   0  0  0  0  0  0  0  0  0  0  0  0
  140.5350   71.6180  224.1550 C   0  0  0  0  0  0  0  0  0  0  0  0
  139.7490   70.6740  224.7670 C   0  0  0  0  0  0  0  0  0  0  0  0
  140.2600   69.9910  225.9150 N   0  0  0  0  0  0  0  0  0  0  0  0
  140.9290   70.7880  226.9230 C   0  0  0  0  0  0  0  0  0  0  0  0
  140.8920   70.1750  228.3010 C   0  0  0  0  0  0  0  0  0  0  0  0
  140.2560   68.9570  228.3340 O   0  0  0  0  0  0  0  0  0  0  0  0
  140.7380   68.0960  227.3550 C   0  0  0  0  0  0  0  0  0  0  0  0
  140.1120   68.5530  226.0570 C   0  0  0  0  0  0  0  0  0  0  0  0
  138.4710   70.3560  224.3710 C   0  0  0  0  0  0  0  0  0  0  0  0
  137.9650   71.0450  223.2860 C   0  0  0  0  0  0  0  0  0  0  0  0
  138.7090   72.0200  222.6150 C   0  0  0  0  0  0  0  0  0  0  0  0
  139.0358   73.5756  219.7236 H   0  0  0  0  0  0  0  0  0  0  0  0
  138.3918   74.7792  220.9072 H   0  0  0  0  0  0  0  0  0  0  0  0
  142.6087   73.4604  220.1564 H   0  0  0  0  0  0  0  0  0  0  0  0
  144.2080   75.1622  219.2150 H   0  0  0  0  0  0  0  0  0  0  0  0
  143.6522   77.5828  219.3666 H   0  0  0  0  0  0  0  0  0  0  0  0
  142.3501   81.5787  221.2219 H   0  0  0  0  0  0  0  0  0  0  0  0
  140.7585   81.0492  220.5479 H   0  0  0  0  0  0  0  0  0  0  0  0
  140.8453   82.5436  222.6566 H   0  0  0  0  0  0  0  0  0  0  0  0
  139.7240   81.0973  222.5600 H   0  0  0  0  0  0  0  0  0  0  0  0
  143.1982   81.2375  223.1481 H   0  0  0  0  0  0  0  0  0  0  0  0
  143.0188   80.2058  224.6107 H   0  0  0  0  0  0  0  0  0  0  0  0
  143.5945   78.8965  222.5043 H   0  0  0  0  0  0  0  0  0  0  0  0
  142.0758   78.3681  223.2624 H   0  0  0  0  0  0  0  0  0  0  0  0
  139.9901   76.6253  221.3556 H   0  0  0  0  0  0  0  0  0  0  0  0
  141.5527   71.8340  224.5122 H   0  0  0  0  0  0  0  0  0  0  0  0
  141.9808   70.9126  226.6261 H   0  0  0  0  0  0  0  0  0  0  0  0
  140.3943   71.7475  226.9825 H   0  0  0  0  0  0  0  0  0  0  0  0
  141.9259   70.0394  228.6513 H   0  0  0  0  0  0  0  0  0  0  0  0
  140.3232   70.8588  228.9482 H   0  0  0  0  0  0  0  0  0  0  0  0
  141.8344   68.1606  227.2947 H   0  0  0  0  0  0  0  0  0  0  0  0
  140.4860   67.0488  227.5783 H   0  0  0  0  0  0  0  0  0  0  0  0
  140.6104   68.0503  225.2150 H   0  0  0  0  0  0  0  0  0  0  0  0
  139.0419   68.2982  226.0621 H   0  0  0  0  0  0  0  0  0  0  0  0
  137.8798   69.5894  224.8934 H   0  0  0  0  0  0  0  0  0  0  0  0
  136.9456   70.8197  222.9394 H   0  0  0  0  0  0  0  0  0  0  0  0
  1  2  2  0
  2  3  1  0
  3  4  1  0
  4  5  1  0
  5  6  2  0
  6  7  1  0
  7  8  2  0
  8  9  1  0
  9 10  1  0
 10 11  2  0
 10 12  1  0
 12 13  1  0
 13 14  1  0
 14 15  1  0
 15 16  1  0
 16 17  1  0
  9 18  2  0
  4 19  2  0
 19 20  1  0
 20 21  2  0
 21 22  1  0
 22 23  1  0
 23 24  1  0
 24 25  1  0
 25 26  1  0
 26 27  1  0
 27 28  1  0
 22 29  2  0
 29 30  1  0
 30 31  2  0
 31  2  1  0
 18  5  1  0
 31 20  1  0
 17 12  1  0
 28 23  1  0
  3 32  1  0
  3 33  1  0
  6 34  1  0
  7 35  1  0
  8 36  1  0
 13 37  1  0
 13 38  1  0
 14 39  1  0
 14 40  1  0
 16 41  1  0
 16 42  1  0
 17 43  1  0
 17 44  1  0
 18 45  1  0
 21 46  1  0
 24 47  1  0
 24 48  1  0
 25 49  1  0
 25 50  1  0
 27 51  1  0
 27 52  1  0
 28 53  1  0
 28 54  1  0
 29 55  1  0
 30 56  1  0
M  END
>  <smiles>  (37) 
O=C1CC(c2cccc(C(=O)N3CCOCC3)c2)=Nc2cc(N3CCOCC3)ccc21

>  <score_type>  (37) 
oracle

>  <origin>  (37) 
autodockgpu

>  <m_score__min__energy>  (37) 
-8.6899999999999995

>  <m_primary>  (37) 
energy

>  <rmsd>  (37) 
7.360628968127684

>  <m_score__min__rmsd>  (37) 
7.360628968127684

>  <meeko>  (37) 
{"free_energy": -8.67, "intermolecular_energy": -9.57, "internal_energy": -0.91, "cluster_size": 48, "cluster_id": 1, "rank_in_cluster": 30}

>  <energy>  (37) 
-8.65

>  <cluster_rmsd>  (37) 
0.18

>  <cluster>  (37) 
1

$$$$

     RDKit          3D

 56 60  0  0  0  0  0  0  0  0999 V2000
  136.8650   72.8150  221.2730 O   0  0  0  0  0  0  0  0  0  0  0  0
  138.0540   72.9550  221.6490 C   0  0  0  0  0  0  0  0  0  0  0  0
  138.8430   74.0110  220.9570 C   0  0  0  0  0  0  0  0  0  0  0  0
  140.2460   74.0360  221.4540 C   0  0  0  0  0  0  0  0  0  0  0  0
  141.1920   74.9800  220.8550 C   0  0  0  0  0  0  0  0  0  0  0  0
  142.3460   74.5130  220.2760 C   0  0  0  0  0  0  0  0  0  0  0  0
  143.2620   75.4280  219.7290 C   0  0  0  0  0  0  0  0  0  0  0  0
  142.9780   76.7950  219.7880 C   0  0  0  0  0  0  0  0  0  0  0  0
  141.8220   77.2750  220.3690 C   0  0  0  0  0  0  0  0  0  0  0  0
  141.5870   78.6940  220.4630 C   0  0  0  0  0  0  0  0  0  0  0  0
  141.0040   79.2300  219.4460 O   0  0  0  0  0  0  0  0  0  0  0  0
  141.9040   79.5650  221.5040 N   0  0  0  0  0  0  0  0  0  0  0  0
  141.5500   80.9820  221.3280 C   0  0  0  0  0  0  0  0  0  0  0  0
  140.8190   81.5010  222.5170 C   0  0  0  0  0  0  0  0  0  0  0  0
  141.2720   80.9930  223.7310 O   0  0  0  0  0  0  0  0  0  0  0  0
  142.5660   80.4790  223.6190 C   0  0  0  0  0  0  0  0  0  0  0  0
  142.5500   79.2130  222.7510 C   0  0  0  0  0  0  0  0  0  0  0  0
  140.9420   76.3350  220.8970 C   0  0  0  0  0  0  0  0  0  0  0  0
  140.7010   73.2720  222.3790 N   0  0  0  0  0  0  0  0  0  0  0  0
  139.9510   72.2810  223.0730 C   0  0  0  0  0  0  0  0  0  0  0  0
  140.5200   71.5180  224.0810 C   0  0  0  0  0  0  0  0  0  0  0  0
  139.7140   70.6000  224.7050 C   0  0  0  0  0  0  0  0  0  0  0  0
  140.2560   69.8230  225.7770 N   0  0  0  0  0  0  0  0  0  0  0  0
  141.0270   70.5220  226.7840 C   0  0  0  0  0  0  0  0  0  0  0  0
  141.0420   69.8290  228.1240 C   0  0  0  0  0  0  0  0  0  0  0  0
  140.3440   68.6460  228.1280 O   0  0  0  0  0  0  0  0  0  0  0  0
  140.7180   67.8220  227.0720 C   0  0  0  0  0  0  0  0  0  0  0  0
  140.0400   68.3880  225.8450 C   0  0  0  0  0  0  0  0  0  0  0  0
  138.3910   70.3910  224.3930 C   0  0  0  0  0  0  0  0  0  0  0  0
  137.8590   71.1700  223.3840 C   0  0  0  0  0  0  0  0  0  0  0  0
  138.6200   72.1260  222.7060 C   0  0  0  0  0  0  0  0  0  0  0  0
  138.8472   73.8075  219.8760 H   0  0  0  0  0  0  0  0  0  0  0  0
  138.3797   74.9874  221.1618 H   0  0  0  0  0  0  0  0  0  0  0  0
  142.5517   73.4330  220.2405 H   0  0  0  0  0  0  0  0  0  0  0  0
  144.1913   75.0723  219.2601 H   0  0  0  0  0  0  0  0  0  0  0  0
  143.6965   77.5089  219.3590 H   0  0  0  0  0  0  0  0  0  0  0  0
  142.4703   81.5679  221.1875 H   0  0  0  0  0  0  0  0  0  0  0  0
  140.8969   81.0734  220.4476 H   0  0  0  0  0  0  0  0  0  0  0  0
  140.9281   82.5954  222.5386 H   0  0  0  0  0  0  0  0  0  0  0  0
  139.7725   81.1794  222.4102 H   0  0  0  0  0  0  0  0  0  0  0  0
  143.2190   81.2322  223.1540 H   0  0  0  0  0  0  0  0  0  0  0  0
  142.9445   80.2275  224.6207 H   0  0  0  0  0  0  0  0  0  0  0  0
  143.5784   78.8719  222.5610 H   0  0  0  0  0  0  0  0  0  0  0  0
  142.0124   78.3968  223.2558 H   0  0  0  0  0  0  0  0  0  0  0  0
  140.0112   76.6868  221.3659 H   0  0  0  0  0  0  0  0  0  0  0  0
  141.5743   71.6435  224.3685 H   0  0  0  0  0  0  0  0  0  0  0  0
  142.0638   70.6118  226.4276 H   0  0  0  0  0  0  0  0  0  0  0  0
  140.5489   71.5013  226.9333 H   0  0  0  0  0  0  0  0  0  0  0  0
  142.0866   69.6198  228.3979 H   0  0  0  0  0  0  0  0  0  0  0  0
  140.5528   70.5002  228.8452 H   0  0  0  0  0  0  0  0  0  0  0  0
  141.8106   67.8343  226.9454 H   0  0  0  0  0  0  0  0  0  0  0  0
  140.4233   66.7774  227.2507 H   0  0  0  0  0  0  0  0  0  0  0  0
  140.4589   67.9133  224.9454 H   0  0  0  0  0  0  0  0  0  0  0  0
  138.9601   68.1872  225.9035 H   0  0  0  0  0  0  0  0  0  0  0  0
  137.7857   69.6398  224.9215 H   0  0  0  0  0  0  0  0  0  0  0  0
  136.8036   71.0336  223.1056 H   0  0  0  0  0  0  0  0  0  0  0  0
  1  2  2  0
  2  3  1  0
  3  4  1  0
  4  5  1  0
  5  6  2  0
  6  7  1  0
  7  8  2  0
  8  9  1  0
  9 10  1  0
 10 11  2  0
 10 12  1  0
 12 13  1  0
 13 14  1  0
 14 15  1  0
 15 16  1  0
 16 17  1  0
  9 18  2  0
  4 19  2  0
 19 20  1  0
 20 21  2  0
 21 22  1  0
 22 23  1  0
 23 24  1  0
 24 25  1  0
 25 26  1  0
 26 27  1  0
 27 28  1  0
 22 29  2  0
 29 30  1  0
 30 31  2  0
 31  2  1  0
 18  5  1  0
 31 20  1  0
 17 12  1  0
 28 23  1  0
  3 32  1  0
  3 33  1  0
  6 34  1  0
  7 35  1  0
  8 36  1  0
 13 37  1  0
 13 38  1  0
 14 39  1  0
 14 40  1  0
 16 41  1  0
 16 42  1  0
 17 43  1  0
 17 44  1  0
 18 45  1  0
 21 46  1  0
 24 47  1  0
 24 48  1  0
 25 49  1  0
 25 50  1  0
 27 51  1  0
 27 52  1  0
 28 53  1  0
 28 54  1  0
 29 55  1  0
 30 56  1  0
M  END
>  <smiles>  (38) 
O=C1CC(c2cccc(C(=O)N3CCOCC3)c2)=Nc2cc(N3CCOCC3)ccc21

>  <score_type>  (38) 
oracle

>  <origin>  (38) 
autodockgpu

>  <m_score__min__energy>  (38) 
-8.6899999999999995

>  <m_primary>  (38) 
energy

>  <rmsd>  (38) 
7.385997169694102

>  <m_score__min__rmsd>  (38) 
7.385997169694102

>  <meeko>  (38) 
{"free_energy": -8.68, "intermolecular_energy": -9.58, "internal_energy": -0.91, "cluster_size": 48, "cluster_id": 1, "rank_in_cluster": 5}

>  <energy>  (38) 
-8.63

>  <cluster_rmsd>  (38) 
0.19

>  <cluster>  (38) 
1

$$$$

     RDKit          3D

 56 60  0  0  0  0  0  0  0  0999 V2000
  136.9940   72.5180  221.0590 O   0  0  0  0  0  0  0  0  0  0  0  0
  138.1440   72.7470  221.5050 C   0  0  0  0  0  0  0  0  0  0  0  0
  138.9160   73.8170  220.8160 C   0  0  0  0  0  0  0  0  0  0  0  0
  140.2780   73.9510  221.4020 C   0  0  0  0  0  0  0  0  0  0  0  0
  141.2060   74.9230  220.8220 C   0  0  0  0  0  0  0  0  0  0  0  0
  142.3730   74.4880  220.2430 C   0  0  0  0  0  0  0  0  0  0  0  0
  143.2720   75.4300  219.7140 C   0  0  0  0  0  0  0  0  0  0  0  0
  142.9580   76.7900  219.7880 C   0  0  0  0  0  0  0  0  0  0  0  0
  141.7890   77.2370  220.3680 C   0  0  0  0  0  0  0  0  0  0  0  0
  141.5210   78.6490  220.4790 C   0  0  0  0  0  0  0  0  0  0  0  0
  140.8830   79.1740  219.4900 O   0  0  0  0  0  0  0  0  0  0  0  0
  141.8600   79.5240  221.5100 N   0  0  0  0  0  0  0  0  0  0  0  0
  141.4630   80.9320  221.3560 C   0  0  0  0  0  0  0  0  0  0  0  0
  140.7710   81.4280  222.5770 C   0  0  0  0  0  0  0  0  0  0  0  0
  141.2870   80.9280  223.7680 O   0  0  0  0  0  0  0  0  0  0  0  0
  142.5880   80.4470  223.6000 C   0  0  0  0  0  0  0  0  0  0  0  0
  142.5670   79.1840  222.7270 C   0  0  0  0  0  0  0  0  0  0  0  0
  140.9260   76.2710  220.8790 C   0  0  0  0  0  0  0  0  0  0  0  0
  140.7110   73.2580  222.3910 N   0  0  0  0  0  0  0  0  0  0  0  0
  139.9750   72.2560  223.0830 C   0  0  0  0  0  0  0  0  0  0  0  0
  140.5160   71.5760  224.1620 C   0  0  0  0  0  0  0  0  0  0  0  0
  139.7240   70.6390  224.7760 C   0  0  0  0  0  0  0  0  0  0  0  0
  140.2350   69.9460  225.9190 N   0  0  0  0  0  0  0  0  0  0  0  0
  140.8380   70.7430  226.9680 C   0  0  0  0  0  0  0  0  0  0  0  0
  140.7920   70.0880  228.3270 C   0  0  0  0  0  0  0  0  0  0  0  0
  140.2150   68.8420  228.3060 O   0  0  0  0  0  0  0  0  0  0  0  0
  140.7630   68.0330  227.3180 C   0  0  0  0  0  0  0  0  0  0  0  0
  140.1520   68.4990  226.0160 C   0  0  0  0  0  0  0  0  0  0  0  0
  138.4400   70.3360  224.3880 C   0  0  0  0  0  0  0  0  0  0  0  0
  137.9340   71.0340  223.3100 C   0  0  0  0  0  0  0  0  0  0  0  0
  138.6840   72.0030  222.6370 C   0  0  0  0  0  0  0  0  0  0  0  0
  139.0062   73.5657  219.7489 H   0  0  0  0  0  0  0  0  0  0  0  0
  138.3837   74.7713  220.9424 H   0  0  0  0  0  0  0  0  0  0  0  0
  142.6018   73.4132  220.1938 H   0  0  0  0  0  0  0  0  0  0  0  0
  144.2120   75.1007  219.2471 H   0  0  0  0  0  0  0  0  0  0  0  0
  143.6631   77.5247  219.3719 H   0  0  0  0  0  0  0  0  0  0  0  0
  142.3613   81.5417  221.1790 H   0  0  0  0  0  0  0  0  0  0  0  0
  140.7705   81.0097  220.5049 H   0  0  0  0  0  0  0  0  0  0  0  0
  140.8536   82.5247  222.5988 H   0  0  0  0  0  0  0  0  0  0  0  0
  139.7294   81.0801  222.5132 H   0  0  0  0  0  0  0  0  0  0  0  0
  143.2022   81.2181  223.1120 H   0  0  0  0  0  0  0  0  0  0  0  0
  143.0142   80.2014  224.5839 H   0  0  0  0  0  0  0  0  0  0  0  0
  143.5946   78.8698  222.4920 H   0  0  0  0  0  0  0  0  0  0  0  0
  142.0719   78.3526  223.2502 H   0  0  0  0  0  0  0  0  0  0  0  0
  139.9847   76.5965  221.3460 H   0  0  0  0  0  0  0  0  0  0  0  0
  141.5388   71.7791  224.5121 H   0  0  0  0  0  0  0  0  0  0  0  0
  141.8905   70.9248  226.7051 H   0  0  0  0  0  0  0  0  0  0  0  0
  140.2575   71.6746  227.0393 H   0  0  0  0  0  0  0  0  0  0  0  0
  141.8209   69.9908  228.7036 H   0  0  0  0  0  0  0  0  0  0  0  0
  140.1735   70.7246  228.9768 H   0  0  0  0  0  0  0  0  0  0  0  0
  141.8565   68.1493  227.2909 H   0  0  0  0  0  0  0  0  0  0  0  0
  140.5542   66.9693  227.5046 H   0  0  0  0  0  0  0  0  0  0  0  0
  140.6968   68.0455  225.1749 H   0  0  0  0  0  0  0  0  0  0  0  0
  139.0955   68.1946  225.9832 H   0  0  0  0  0  0  0  0  0  0  0  0
  137.8445   69.5737  224.9117 H   0  0  0  0  0  0  0  0  0  0  0  0
  136.9096   70.8214  222.9702 H   0  0  0  0  0  0  0  0  0  0  0  0
  1  2  2  0
  2  3  1  0
  3  4  1  0
  4  5  1  0
  5  6  2  0
  6  7  1  0
  7  8  2  0
  8  9  1  0
  9 10  1  0
 10 11  2  0
 10 12  1  0
 12 13  1  0
 13 14  1  0
 14 15  1  0
 15 16  1  0
 16 17  1  0
  9 18  2  0
  4 19  2  0
 19 20  1  0
 20 21  2  0
 21 22  1  0
 22 23  1  0
 23 24  1  0
 24 25  1  0
 25 26  1  0
 26 27  1  0
 27 28  1  0
 22 29  2  0
 29 30  1  0
 30 31  2  0
 31  2  1  0
 18  5  1  0
 31 20  1  0
 17 12  1  0
 28 23  1  0
  3 32  1  0
  3 33  1  0
  6 34  1  0
  7 35  1  0
  8 36  1  0
 13 37  1  0
 13 38  1  0
 14 39  1  0
 14 40  1  0
 16 41  1  0
 16 42  1  0
 17 43  1  0
 17 44  1  0
 18 45  1  0
 21 46  1  0
 24 47  1  0
 24 48  1  0
 25 49  1  0
 25 50  1  0
 27 51  1  0
 27 52  1  0
 28 53  1  0
 28 54  1  0
 29 55  1  0
 30 56  1  0
M  END
>  <smiles>  (39) 
O=C1CC(c2cccc(C(=O)N3CCOCC3)c2)=Nc2cc(N3CCOCC3)ccc21

>  <score_type>  (39) 
oracle

>  <origin>  (39) 
autodockgpu

>  <m_score__min__energy>  (39) 
-8.6899999999999995

>  <m_primary>  (39) 
energy

>  <rmsd>  (39) 
7.334910609302736

>  <m_score__min__rmsd>  (39) 
7.334910609302736

>  <meeko>  (39) 
{"free_energy": -8.68, "intermolecular_energy": -9.57, "internal_energy": -0.91, "cluster_size": 48, "cluster_id": 1, "rank_in_cluster": 26}

>  <energy>  (39) 
-8.55

>  <cluster_rmsd>  (39) 
1.53

>  <cluster>  (39) 
1

$$$$

     RDKit          3D

 56 60  0  0  0  0  0  0  0  0999 V2000
  136.9770   72.5360  221.0770 O   0  0  0  0  0  0  0  0  0  0  0  0
  138.1320   72.7580  221.5130 C   0  0  0  0  0  0  0  0  0  0  0  0
  138.9080   73.8180  220.8140 C   0  0  0  0  0  0  0  0  0  0  0  0
  140.2750   73.9440  221.3890 C   0  0  0  0  0  0  0  0  0  0  0  0
  141.2070   74.9060  220.7970 C   0  0  0  0  0  0  0  0  0  0  0  0
  142.3470   74.4570  220.1780 C   0  0  0  0  0  0  0  0  0  0  0  0
  143.2500   75.3890  219.6380 C   0  0  0  0  0  0  0  0  0  0  0  0
  142.9670   76.7530  219.7430 C   0  0  0  0  0  0  0  0  0  0  0  0
  141.8250   77.2150  220.3630 C   0  0  0  0  0  0  0  0  0  0  0  0
  141.5910   78.6300  220.5040 C   0  0  0  0  0  0  0  0  0  0  0  0
  141.1360   79.2260  219.4550 O   0  0  0  0  0  0  0  0  0  0  0  0
  141.7900   79.4420  221.6200 N   0  0  0  0  0  0  0  0  0  0  0  0
  141.4700   80.8710  221.4790 C   0  0  0  0  0  0  0  0  0  0  0  0
  140.6080   81.3390  222.5990 C   0  0  0  0  0  0  0  0  0  0  0  0
  140.9100   80.7620  223.8290 O   0  0  0  0  0  0  0  0  0  0  0  0
  142.2040   80.2360  223.8430 C   0  0  0  0  0  0  0  0  0  0  0  0
  142.2810   79.0170  222.9140 C   0  0  0  0  0  0  0  0  0  0  0  0
  140.9570   76.2590  220.8840 C   0  0  0  0  0  0  0  0  0  0  0  0
  140.7110   73.2530  222.3780 N   0  0  0  0  0  0  0  0  0  0  0  0
  139.9710   72.2590  223.0790 C   0  0  0  0  0  0  0  0  0  0  0  0
  140.5150   71.5800  224.1580 C   0  0  0  0  0  0  0  0  0  0  0  0
  139.7200   70.6520  224.7830 C   0  0  0  0  0  0  0  0  0  0  0  0
  140.2340   69.9600  225.9240 N   0  0  0  0  0  0  0  0  0  0  0  0
  140.9280   70.7470  226.9240 C   0  0  0  0  0  0  0  0  0  0  0  0
  140.8990   70.1340  228.3030 C   0  0  0  0  0  0  0  0  0  0  0  0
  140.2450   68.9260  228.3430 O   0  0  0  0  0  0  0  0  0  0  0  0
  140.7010   68.0570  227.3580 C   0  0  0  0  0  0  0  0  0  0  0  0
  140.0670   68.5250  226.0680 C   0  0  0  0  0  0  0  0  0  0  0  0
  138.4310   70.3580  224.4060 C   0  0  0  0  0  0  0  0  0  0  0  0
  137.9230   71.0550  223.3270 C   0  0  0  0  0  0  0  0  0  0  0  0
  138.6750   72.0150  222.6450 C   0  0  0  0  0  0  0  0  0  0  0  0
  138.9885   73.5610  219.7475 H   0  0  0  0  0  0  0  0  0  0  0  0
  138.3845   74.7771  220.9404 H   0  0  0  0  0  0  0  0  0  0  0  0
  142.5518   73.3787  220.1053 H   0  0  0  0  0  0  0  0  0  0  0  0
  144.1689   75.0483  219.1385 H   0  0  0  0  0  0  0  0  0  0  0  0
  143.6756   77.4796  219.3188 H   0  0  0  0  0  0  0  0  0  0  0  0
  142.4050   81.4504  221.4787 H   0  0  0  0  0  0  0  0  0  0  0  0
  140.9256   81.0161  220.5342 H   0  0  0  0  0  0  0  0  0  0  0  0
  140.7234   82.4290  222.6913 H   0  0  0  0  0  0  0  0  0  0  0  0
  139.5785   81.0396  222.3529 H   0  0  0  0  0  0  0  0  0  0  0  0
  142.9134   81.0028  223.4985 H   0  0  0  0  0  0  0  0  0  0  0  0
  142.4591   79.9278  224.8677 H   0  0  0  0  0  0  0  0  0  0  0  0
  143.3219   78.6717  222.8287 H   0  0  0  0  0  0  0  0  0  0  0  0
  141.6812   78.1834  223.3081 H   0  0  0  0  0  0  0  0  0  0  0  0
  140.0370   76.5961  221.3839 H   0  0  0  0  0  0  0  0  0  0  0  0
  141.5420   71.7769  224.4995 H   0  0  0  0  0  0  0  0  0  0  0  0
  141.9777   70.8557  226.6138 H   0  0  0  0  0  0  0  0  0  0  0  0
  140.4087   71.7145  226.9903 H   0  0  0  0  0  0  0  0  0  0  0  0
  141.9349   69.9824  228.6404 H   0  0  0  0  0  0  0  0  0  0  0  0
  140.3492   70.8261  228.9578 H   0  0  0  0  0  0  0  0  0  0  0  0
  141.7976   68.1034  227.2844 H   0  0  0  0  0  0  0  0  0  0  0  0
  140.4346   67.0140  227.5842 H   0  0  0  0  0  0  0  0  0  0  0  0
  140.5480   68.0155  225.2200 H   0  0  0  0  0  0  0  0  0  0  0  0
  138.9933   68.2867  226.0864 H   0  0  0  0  0  0  0  0  0  0  0  0
  137.8328   69.6038  224.9382 H   0  0  0  0  0  0  0  0  0  0  0  0
  136.8951   70.8479  222.9945 H   0  0  0  0  0  0  0  0  0  0  0  0
  1  2  2  0
  2  3  1  0
  3  4  1  0
  4  5  1  0
  5  6  2  0
  6  7  1  0
  7  8  2  0
  8  9  1  0
  9 10  1  0
 10 11  2  0
 10 12  1  0
 12 13  1  0
 13 14  1  0
 14 15  1  0
 15 16  1  0
 16 17  1  0
  9 18  2  0
  4 19  2  0
 19 20  1  0
 20 21  2  0
 21 22  1  0
 22 23  1  0
 23 24  1  0
 24 25  1  0
 25 26  1  0
 26 27  1  0
 27 28  1  0
 22 29  2  0
 29 30  1  0
 30 31  2  0
 31  2  1  0
 18  5  1  0
 31 20  1  0
 17 12  1  0
 28 23  1  0
  3 32  1  0
  3 33  1  0
  6 34  1  0
  7 35  1  0
  8 36  1  0
 13 37  1  0
 13 38  1  0
 14 39  1  0
 14 40  1  0
 16 41  1  0
 16 42  1  0
 17 43  1  0
 17 44  1  0
 18 45  1  0
 21 46  1  0
 24 47  1  0
 24 48  1  0
 25 49  1  0
 25 50  1  0
 27 51  1  0
 27 52  1  0
 28 53  1  0
 28 54  1  0
 29 55  1  0
 30 56  1  0
M  END
>  <smiles>  (40) 
O=C1CC(c2cccc(C(=O)N3CCOCC3)c2)=Nc2cc(N3CCOCC3)ccc21

>  <score_type>  (40) 
oracle

>  <origin>  (40) 
autodockgpu

>  <m_score__min__energy>  (40) 
-8.6899999999999995

>  <m_primary>  (40) 
energy

>  <rmsd>  (40) 
7.329466892441469

>  <m_score__min__rmsd>  (40) 
7.329466892441469

>  <meeko>  (40) 
{"free_energy": -8.68, "intermolecular_energy": -9.58, "internal_energy": -0.91, "cluster_size": 48, "cluster_id": 1, "rank_in_cluster": 13}

>  <energy>  (40) 
-8.54

>  <cluster_rmsd>  (40) 
0.32

>  <cluster>  (40) 
1

$$$$

     RDKit          3D

 56 60  0  0  0  0  0  0  0  0999 V2000
  142.9410   72.5410  219.7110 O   0  0  0  0  0  0  0  0  0  0  0  0
  142.0320   73.0220  220.4300 C   0  0  0  0  0  0  0  0  0  0  0  0
  141.1450   72.0410  221.1140 C   0  0  0  0  0  0  0  0  0  0  0  0
  140.0790   72.7370  221.8870 C   0  0  0  0  0  0  0  0  0  0  0  0
  139.0770   71.9350  222.5910 C   0  0  0  0  0  0  0  0  0  0  0  0
  137.7510   72.2830  222.5150 C   0  0  0  0  0  0  0  0  0  0  0  0
  136.7990   71.5240  223.2180 C   0  0  0  0  0  0  0  0  0  0  0  0
  137.2230   70.4310  223.9780 C   0  0  0  0  0  0  0  0  0  0  0  0
  138.5530   70.0740  224.0610 C   0  0  0  0  0  0  0  0  0  0  0  0
  138.9640   68.9760  224.9000 C   0  0  0  0  0  0  0  0  0  0  0  0
  138.8730   67.8050  224.3670 O   0  0  0  0  0  0  0  0  0  0  0  0
  139.4440   69.0070  226.2080 N   0  0  0  0  0  0  0  0  0  0  0  0
  139.7850   67.7190  226.8310 C   0  0  0  0  0  0  0  0  0  0  0  0
  141.1400   67.7650  227.4470 C   0  0  0  0  0  0  0  0  0  0  0  0
  141.4550   68.9840  228.0390 O   0  0  0  0  0  0  0  0  0  0  0  0
  140.3060   69.7260  228.3260 C   0  0  0  0  0  0  0  0  0  0  0  0
  139.6450   70.1880  227.0200 C   0  0  0  0  0  0  0  0  0  0  0  0
  139.4630   70.8510  223.3500 C   0  0  0  0  0  0  0  0  0  0  0  0
  139.9650   74.0120  221.9760 N   0  0  0  0  0  0  0  0  0  0  0  0
  140.8230   74.9630  221.3560 C   0  0  0  0  0  0  0  0  0  0  0  0
  140.6400   76.3250  221.5320 C   0  0  0  0  0  0  0  0  0  0  0  0
  141.5290   77.1650  220.9080 C   0  0  0  0  0  0  0  0  0  0  0  0
  141.3940   78.5760  221.1000 N   0  0  0  0  0  0  0  0  0  0  0  0
  141.1830   79.0480  222.4530 C   0  0  0  0  0  0  0  0  0  0  0  0
  141.6460   80.4670  222.6770 C   0  0  0  0  0  0  0  0  0  0  0  0
  142.1520   81.0560  221.5430 O   0  0  0  0  0  0  0  0  0  0  0  0
  141.2920   80.9160  220.4600 C   0  0  0  0  0  0  0  0  0  0  0  0
  141.4640   79.4940  219.9770 C   0  0  0  0  0  0  0  0  0  0  0  0
  142.5780   76.7400  220.1270 C   0  0  0  0  0  0  0  0  0  0  0  0
  142.7300   75.3760  219.9760 C   0  0  0  0  0  0  0  0  0  0  0  0
  141.8630   74.4620  220.5830 C   0  0  0  0  0  0  0  0  0  0  0  0
  140.6770   71.3915  220.3596 H   0  0  0  0  0  0  0  0  0  0  0  0
  141.7521   71.4447  221.8110 H   0  0  0  0  0  0  0  0  0  0  0  0
  137.4368   73.1466  221.9104 H   0  0  0  0  0  0  0  0  0  0  0  0
  135.7322   71.7878  223.1702 H   0  0  0  0  0  0  0  0  0  0  0  0
  136.4753   69.8384  224.5256 H   0  0  0  0  0  0  0  0  0  0  0  0
  139.0434   67.4890  227.6102 H   0  0  0  0  0  0  0  0  0  0  0  0
  139.7806   66.9417  226.0526 H   0  0  0  0  0  0  0  0  0  0  0  0
  141.1955   66.9823  228.2179 H   0  0  0  0  0  0  0  0  0  0  0  0
  141.8634   67.6122  226.6326 H   0  0  0  0  0  0  0  0  0  0  0  0
  139.5994   69.1007  228.8915 H   0  0  0  0  0  0  0  0  0  0  0  0
  140.5827   70.6068  228.9241 H   0  0  0  0  0  0  0  0  0  0  0  0
  138.6788   70.6681  227.2346 H   0  0  0  0  0  0  0  0  0  0  0  0
  140.2770   70.9213  226.4976 H   0  0  0  0  0  0  0  0  0  0  0  0
  140.5307   70.5901  223.3955 H   0  0  0  0  0  0  0  0  0  0  0  0
  139.8163   76.7173  222.1464 H   0  0  0  0  0  0  0  0  0  0  0  0
  140.1073   78.9938  222.6764 H   0  0  0  0  0  0  0  0  0  0  0  0
  141.7809   78.4052  223.1158 H   0  0  0  0  0  0  0  0  0  0  0  0
  140.7906   81.0626  223.0286 H   0  0  0  0  0  0  0  0  0  0  0  0
  142.4580   80.4331  223.4183 H   0  0  0  0  0  0  0  0  0  0  0  0
  140.2518   81.0911  220.7720 H   0  0  0  0  0  0  0  0  0  0  0  0
  141.5196   81.6429  219.6664 H   0  0  0  0  0  0  0  0  0  0  0  0
  140.6653   79.2538  219.2598 H   0  0  0  0  0  0  0  0  0  0  0  0
  142.4452   79.3944  219.4899 H   0  0  0  0  0  0  0  0  0  0  0  0
  143.2635   77.4529  219.6454 H   0  0  0  0  0  0  0  0  0  0  0  0
  143.5583   74.9967  219.3595 H   0  0  0  0  0  0  0  0  0  0  0  0
  1  2  2  0
  2  3  1  0
  3  4  1  0
  4  5  1  0
  5  6  2  0
  6  7  1  0
  7  8  2  0
  8  9  1  0
  9 10  1  0
 10 11  2  0
 10 12  1  0
 12 13  1  0
 13 14  1  0
 14 15  1  0
 15 16  1  0
 16 17  1  0
  9 18  2  0
  4 19  2  0
 19 20  1  0
 20 21  2  0
 21 22  1  0
 22 23  1  0
 23 24  1  0
 24 25  1  0
 25 26  1  0
 26 27  1  0
 27 28  1  0
 22 29  2  0
 29 30  1  0
 30 31  2  0
 31  2  1  0
 18  5  1  0
 31 20  1  0
 17 12  1  0
 28 23  1  0
  3 32  1  0
  3 33  1  0
  6 34  1  0
  7 35  1  0
  8 36  1  0
 13 37  1  0
 13 38  1  0
 14 39  1  0
 14 40  1  0
 16 41  1  0
 16 42  1  0
 17 43  1  0
 17 44  1  0
 18 45  1  0
 21 46  1  0
 24 47  1  0
 24 48  1  0
 25 49  1  0
 25 50  1  0
 27 51  1  0
 27 52  1  0
 28 53  1  0
 28 54  1  0
 29 55  1  0
 30 56  1  0
M  END
>  <smiles>  (41) 
O=C1CC(c2cccc(C(=O)N3CCOCC3)c2)=Nc2cc(N3CCOCC3)ccc21

>  <score_type>  (41) 
oracle

>  <origin>  (41) 
autodockgpu

>  <m_score__min__energy>  (41) 
-8.6899999999999995

>  <m_primary>  (41) 
energy

>  <rmsd>  (41) 
6.871261953226539

>  <m_score__min__rmsd>  (41) 
6.871261953226539

>  <meeko>  (41) 
{"free_energy": -8.34, "intermolecular_energy": -9.23, "internal_energy": -0.92, "cluster_size": 48, "cluster_id": 1, "rank_in_cluster": 47}

>  <energy>  (41) 
-8.48

>  <cluster_rmsd>  (41) 
0.41

>  <cluster>  (41) 
1

$$$$

     RDKit          3D

 56 60  0  0  0  0  0  0  0  0999 V2000
  136.9150   72.6710  221.1730 O   0  0  0  0  0  0  0  0  0  0  0  0
  138.0870   72.8540  221.5820 C   0  0  0  0  0  0  0  0  0  0  0  0
  138.8660   73.9180  220.8920 C   0  0  0  0  0  0  0  0  0  0  0  0
  140.2520   73.9960  221.4320 C   0  0  0  0  0  0  0  0  0  0  0  0
  141.1880   74.9550  220.8420 C   0  0  0  0  0  0  0  0  0  0  0  0
  142.3490   74.5050  220.2640 C   0  0  0  0  0  0  0  0  0  0  0  0
  143.2560   75.4340  219.7250 C   0  0  0  0  0  0  0  0  0  0  0  0
  142.9550   76.7980  219.7910 C   0  0  0  0  0  0  0  0  0  0  0  0
  141.7920   77.2600  220.3710 C   0  0  0  0  0  0  0  0  0  0  0  0
  141.5390   78.6750  220.4730 C   0  0  0  0  0  0  0  0  0  0  0  0
  140.9330   79.2060  219.4670 O   0  0  0  0  0  0  0  0  0  0  0  0
  141.8610   79.5490  221.5110 N   0  0  0  0  0  0  0  0  0  0  0  0
  141.4840   80.9610  221.3450 C   0  0  0  0  0  0  0  0  0  0  0  0
  140.7660   81.4680  222.5460 C   0  0  0  0  0  0  0  0  0  0  0  0
  141.2440   80.9630  223.7510 O   0  0  0  0  0  0  0  0  0  0  0  0
  142.5430   80.4660  223.6180 C   0  0  0  0  0  0  0  0  0  0  0  0
  142.5310   79.2020  222.7470 C   0  0  0  0  0  0  0  0  0  0  0  0
  140.9210   76.3060  220.8910 C   0  0  0  0  0  0  0  0  0  0  0  0
  140.6990   73.2660  222.3870 N   0  0  0  0  0  0  0  0  0  0  0  0
  139.9570   72.2680  223.0790 C   0  0  0  0  0  0  0  0  0  0  0  0
  140.5150   71.5450  224.1210 C   0  0  0  0  0  0  0  0  0  0  0  0
  139.7170   70.6160  224.7400 C   0  0  0  0  0  0  0  0  0  0  0  0
  140.2470   69.8780  225.8460 N   0  0  0  0  0  0  0  0  0  0  0  0
  140.9760   70.6200  226.8540 C   0  0  0  0  0  0  0  0  0  0  0  0
  140.9700   69.9620  228.2120 C   0  0  0  0  0  0  0  0  0  0  0  0
  140.2980   68.7630  228.2280 O   0  0  0  0  0  0  0  0  0  0  0  0
  140.7180   67.9220  227.2040 C   0  0  0  0  0  0  0  0  0  0  0  0
  140.0610   68.4420  225.9460 C   0  0  0  0  0  0  0  0  0  0  0  0
  138.4110   70.3610  224.3920 C   0  0  0  0  0  0  0  0  0  0  0  0
  137.8890   71.1010  223.3500 C   0  0  0  0  0  0  0  0  0  0  0  0
  138.6440   72.0660  222.6750 C   0  0  0  0  0  0  0  0  0  0  0  0
  138.9106   73.6918  219.8164 H   0  0  0  0  0  0  0  0  0  0  0  0
  138.3679   74.8841  221.0607 H   0  0  0  0  0  0  0  0  0  0  0  0
  142.5675   73.4277  220.2230 H   0  0  0  0  0  0  0  0  0  0  0  0
  144.1910   75.0922  219.2571 H   0  0  0  0  0  0  0  0  0  0  0  0
  143.6660   77.5231  219.3683 H   0  0  0  0  0  0  0  0  0  0  0  0
  142.3936   81.5600  221.1905 H   0  0  0  0  0  0  0  0  0  0  0  0
  140.8144   81.0443  220.4763 H   0  0  0  0  0  0  0  0  0  0  0  0
  140.8621   82.5636  222.5686 H   0  0  0  0  0  0  0  0  0  0  0  0
  139.7219   81.1339  222.4549 H   0  0  0  0  0  0  0  0  0  0  0  0
  143.1790   81.2289  223.1453 H   0  0  0  0  0  0  0  0  0  0  0  0
  142.9396   80.2168  224.6133 H   0  0  0  0  0  0  0  0  0  0  0  0
  143.5608   78.8754  222.5402 H   0  0  0  0  0  0  0  0  0  0  0  0
  142.0127   78.3770  223.2576 H   0  0  0  0  0  0  0  0  0  0  0  0
  139.9843   76.6437  221.3586 H   0  0  0  0  0  0  0  0  0  0  0  0
  141.5552   71.7090  224.4390 H   0  0  0  0  0  0  0  0  0  0  0  0
  142.0197   70.7235  226.5225 H   0  0  0  0  0  0  0  0  0  0  0  0
  140.4734   71.5922  226.9648 H   0  0  0  0  0  0  0  0  0  0  0  0
  142.0111   69.7838  228.5191 H   0  0  0  0  0  0  0  0  0  0  0  0
  140.4469   70.6401  228.9024 H   0  0  0  0  0  0  0  0  0  0  0  0
  141.8131   67.9558  227.1059 H   0  0  0  0  0  0  0  0  0  0  0  0
  140.4417   66.8757  227.4014 H   0  0  0  0  0  0  0  0  0  0  0  0
  140.5138   67.9542  225.0702 H   0  0  0  0  0  0  0  0  0  0  0  0
  138.9845   68.2190  225.9822 H   0  0  0  0  0  0  0  0  0  0  0  0
  137.8113   69.6039  224.9186 H   0  0  0  0  0  0  0  0  0  0  0  0
  136.8478   70.9265  223.0411 H   0  0  0  0  0  0  0  0  0  0  0  0
  1  2  2  0
  2  3  1  0
  3  4  1  0
  4  5  1  0
  5  6  2  0
  6  7  1  0
  7  8  2  0
  8  9  1  0
  9 10  1  0
 10 11  2  0
 10 12  1  0
 12 13  1  0
 13 14  1  0
 14 15  1  0
 15 16  1  0
 16 17  1  0
  9 18  2  0
  4 19  2  0
 19 20  1  0
 20 21  2  0
 21 22  1  0
 22 23  1  0
 23 24  1  0
 24 25  1  0
 25 26  1  0
 26 27  1  0
 27 28  1  0
 22 29  2  0
 29 30  1  0
 30 31  2  0
 31  2  1  0
 18  5  1  0
 31 20  1  0
 17 12  1  0
 28 23  1  0
  3 32  1  0
  3 33  1  0
  6 34  1  0
  7 35  1  0
  8 36  1  0
 13 37  1  0
 13 38  1  0
 14 39  1  0
 14 40  1  0
 16 41  1  0
 16 42  1  0
 17 43  1  0
 17 44  1  0
 18 45  1  0
 21 46  1  0
 24 47  1  0
 24 48  1  0
 25 49  1  0
 25 50  1  0
 27 51  1  0
 27 52  1  0
 28 53  1  0
 28 54  1  0
 29 55  1  0
 30 56  1  0
M  END
>  <smiles>  (42) 
O=C1CC(c2cccc(C(=O)N3CCOCC3)c2)=Nc2cc(N3CCOCC3)ccc21

>  <score_type>  (42) 
oracle

>  <origin>  (42) 
autodockgpu

>  <m_score__min__energy>  (42) 
-8.6899999999999995

>  <m_primary>  (42) 
energy

>  <rmsd>  (42) 
7.3589840433352744

>  <m_score__min__rmsd>  (42) 
7.3589840433352744

>  <meeko>  (42) 
{"free_energy": -8.69, "intermolecular_energy": -9.58, "internal_energy": -0.91, "cluster_size": 48, "cluster_id": 1, "rank_in_cluster": 3}

>  <energy>  (42) 
-8.47

>  <cluster_rmsd>  (42) 
1.7

>  <cluster>  (42) 
1

$$$$

     RDKit          3D

 56 60  0  0  0  0  0  0  0  0999 V2000
  136.8760   72.7960  221.2290 O   0  0  0  0  0  0  0  0  0  0  0  0
  138.0610   72.9440  221.6130 C   0  0  0  0  0  0  0  0  0  0  0  0
  138.8480   74.0040  220.9270 C   0  0  0  0  0  0  0  0  0  0  0  0
  140.2480   74.0390  221.4340 C   0  0  0  0  0  0  0  0  0  0  0  0
  141.1920   74.9890  220.8420 C   0  0  0  0  0  0  0  0  0  0  0  0
  142.3510   74.5280  220.2670 C   0  0  0  0  0  0  0  0  0  0  0  0
  143.2650   75.4490  219.7270 C   0  0  0  0  0  0  0  0  0  0  0  0
  142.9740   76.8150  219.7870 C   0  0  0  0  0  0  0  0  0  0  0  0
  141.8130   77.2880  220.3630 C   0  0  0  0  0  0  0  0  0  0  0  0
  141.5700   78.7050  220.4600 C   0  0  0  0  0  0  0  0  0  0  0  0
  140.9710   79.2370  219.4500 O   0  0  0  0  0  0  0  0  0  0  0  0
  141.8960   79.5800  221.4960 N   0  0  0  0  0  0  0  0  0  0  0  0
  141.5300   80.9940  221.3240 C   0  0  0  0  0  0  0  0  0  0  0  0
  140.8130   81.5100  222.5220 C   0  0  0  0  0  0  0  0  0  0  0  0
  141.2840   81.0060  223.7290 O   0  0  0  0  0  0  0  0  0  0  0  0
  142.5800   80.4990  223.6010 C   0  0  0  0  0  0  0  0  0  0  0  0
  142.5600   79.2330  222.7350 C   0  0  0  0  0  0  0  0  0  0  0  0
  140.9350   76.3420  220.8860 C   0  0  0  0  0  0  0  0  0  0  0  0
  140.7000   73.2780  222.3620 N   0  0  0  0  0  0  0  0  0  0  0  0
  139.9520   72.2820  223.0510 C   0  0  0  0  0  0  0  0  0  0  0  0
  140.5180   71.5240  224.0640 C   0  0  0  0  0  0  0  0  0  0  0  0
  139.7140   70.6000  224.6820 C   0  0  0  0  0  0  0  0  0  0  0  0
  140.2530   69.8270  225.7580 N   0  0  0  0  0  0  0  0  0  0  0  0
  141.0210   70.5310  226.7650 C   0  0  0  0  0  0  0  0  0  0  0  0
  141.0310   69.8420  228.1080 C   0  0  0  0  0  0  0  0  0  0  0  0
  140.3340   68.6580  228.1140 O   0  0  0  0  0  0  0  0  0  0  0  0
  140.7110   67.8310  227.0620 C   0  0  0  0  0  0  0  0  0  0  0  0
  140.0370   68.3930  225.8320 C   0  0  0  0  0  0  0  0  0  0  0  0
  138.3940   70.3830  224.3610 C   0  0  0  0  0  0  0  0  0  0  0  0
  137.8650   71.1580  223.3480 C   0  0  0  0  0  0  0  0  0  0  0  0
  138.6250   72.1190  222.6750 C   0  0  0  0  0  0  0  0  0  0  0  0
  138.8614   73.8000  219.8462 H   0  0  0  0  0  0  0  0  0  0  0  0
  138.3769   74.9774  221.1286 H   0  0  0  0  0  0  0  0  0  0  0  0
  142.5617   73.4490  220.2295 H   0  0  0  0  0  0  0  0  0  0  0  0
  144.1987   75.0990  219.2625 H   0  0  0  0  0  0  0  0  0  0  0  0
  143.6911   77.5332  219.3629 H   0  0  0  0  0  0  0  0  0  0  0  0
  142.4443   81.5858  221.1696 H   0  0  0  0  0  0  0  0  0  0  0  0
  140.8633   81.0796  220.4533 H   0  0  0  0  0  0  0  0  0  0  0  0
  140.9170   82.6049  222.5413 H   0  0  0  0  0  0  0  0  0  0  0  0
  139.7669   81.1828  222.4295 H   0  0  0  0  0  0  0  0  0  0  0  0
  143.2228   81.2554  223.1271 H   0  0  0  0  0  0  0  0  0  0  0  0
  142.9728   80.2506  224.5980 H   0  0  0  0  0  0  0  0  0  0  0  0
  143.5877   78.8975  222.5321 H   0  0  0  0  0  0  0  0  0  0  0  0
  142.0335   78.4143  223.2474 H   0  0  0  0  0  0  0  0  0  0  0  0
  140.0006   76.6881  221.3520 H   0  0  0  0  0  0  0  0  0  0  0  0
  141.5689   71.6578  224.3603 H   0  0  0  0  0  0  0  0  0  0  0  0
  142.0590   70.6197  226.4118 H   0  0  0  0  0  0  0  0  0  0  0  0
  140.5430   71.5112  226.9087 H   0  0  0  0  0  0  0  0  0  0  0  0
  142.0747   69.6347  228.3868 H   0  0  0  0  0  0  0  0  0  0  0  0
  140.5379   70.5153  228.8246 H   0  0  0  0  0  0  0  0  0  0  0  0
  141.8040   67.8429  226.9386 H   0  0  0  0  0  0  0  0  0  0  0  0
  140.4158   66.7869  227.2430 H   0  0  0  0  0  0  0  0  0  0  0  0
  140.4580   67.9146  224.9354 H   0  0  0  0  0  0  0  0  0  0  0  0
  138.9568   68.1933  225.8895 H   0  0  0  0  0  0  0  0  0  0  0  0
  137.7893   69.6287  224.8858 H   0  0  0  0  0  0  0  0  0  0  0  0
  136.8126   71.0147  223.0617 H   0  0  0  0  0  0  0  0  0  0  0  0
  1  2  2  0
  2  3  1  0
  3  4  1  0
  4  5  1  0
  5  6  2  0
  6  7  1  0
  7  8  2  0
  8  9  1  0
  9 10  1  0
 10 11  2  0
 10 12  1  0
 12 13  1  0
 13 14  1  0
 14 15  1  0
 15 16  1  0
 16 17  1  0
  9 18  2  0
  4 19  2  0
 19 20  1  0
 20 21  2  0
 21 22  1  0
 22 23  1  0
 23 24  1  0
 24 25  1  0
 25 26  1  0
 26 27  1  0
 27 28  1  0
 22 29  2  0
 29 30  1  0
 30 31  2  0
 31  2  1  0
 18  5  1  0
 31 20  1  0
 17 12  1  0
 28 23  1  0
  3 32  1  0
  3 33  1  0
  6 34  1  0
  7 35  1  0
  8 36  1  0
 13 37  1  0
 13 38  1  0
 14 39  1  0
 14 40  1  0
 16 41  1  0
 16 42  1  0
 17 43  1  0
 17 44  1  0
 18 45  1  0
 21 46  1  0
 24 47  1  0
 24 48  1  0
 25 49  1  0
 25 50  1  0
 27 51  1  0
 27 52  1  0
 28 53  1  0
 28 54  1  0
 29 55  1  0
 30 56  1  0
M  END
>  <smiles>  (43) 
O=C1CC(c2cccc(C(=O)N3CCOCC3)c2)=Nc2cc(N3CCOCC3)ccc21

>  <score_type>  (43) 
oracle

>  <origin>  (43) 
autodockgpu

>  <m_score__min__energy>  (43) 
-8.6899999999999995

>  <m_primary>  (43) 
energy

>  <rmsd>  (43) 
7.395452753632323

>  <m_score__min__rmsd>  (43) 
7.395452753632323

>  <meeko>  (43) 
{"free_energy": -8.68, "intermolecular_energy": -9.58, "internal_energy": -0.91, "cluster_size": 48, "cluster_id": 1, "rank_in_cluster": 4}

>  <energy>  (43) 
-8.46

>  <cluster_rmsd>  (43) 
0.41

>  <cluster>  (43) 
1

$$$$

     RDKit          3D

 56 60  0  0  0  0  0  0  0  0999 V2000
  135.5940   75.3220  222.3270 O   0  0  0  0  0  0  0  0  0  0  0  0
  136.7870   74.9340  222.3070 C   0  0  0  0  0  0  0  0  0  0  0  0
  137.0010   73.4620  222.2580 C   0  0  0  0  0  0  0  0  0  0  0  0
  138.4530   73.1340  222.2960 C   0  0  0  0  0  0  0  0  0  0  0  0
  138.8600   71.7270  222.3050 C   0  0  0  0  0  0  0  0  0  0  0  0
  139.1100   71.0820  221.1190 C   0  0  0  0  0  0  0  0  0  0  0  0
  139.4730   69.7250  221.1360 C   0  0  0  0  0  0  0  0  0  0  0  0
  139.5710   69.0600  222.3620 C   0  0  0  0  0  0  0  0  0  0  0  0
  139.3220   69.6980  223.5590 C   0  0  0  0  0  0  0  0  0  0  0  0
  139.3770   68.9700  224.8010 C   0  0  0  0  0  0  0  0  0  0  0  0
  139.0880   67.7160  224.7240 O   0  0  0  0  0  0  0  0  0  0  0  0
  139.7000   69.4360  226.0750 N   0  0  0  0  0  0  0  0  0  0  0  0
  139.6700   68.4620  227.1770 C   0  0  0  0  0  0  0  0  0  0  0  0
  140.9210   68.5270  227.9810 C   0  0  0  0  0  0  0  0  0  0  0  0
  141.4330   69.8110  228.1380 O   0  0  0  0  0  0  0  0  0  0  0  0
  140.4540   70.7820  227.9100 C   0  0  0  0  0  0  0  0  0  0  0  0
  140.0680   70.7920  226.4240 C   0  0  0  0  0  0  0  0  0  0  0  0
  138.9660   71.0430  223.4980 C   0  0  0  0  0  0  0  0  0  0  0  0
  139.3910   74.0070  222.3300 N   0  0  0  0  0  0  0  0  0  0  0  0
  139.2060   75.4180  222.3440 C   0  0  0  0  0  0  0  0  0  0  0  0
  140.2840   76.2890  222.3530 C   0  0  0  0  0  0  0  0  0  0  0  0
  140.0060   77.6330  222.3470 C   0  0  0  0  0  0  0  0  0  0  0  0
  141.0940   78.5620  222.3160 N   0  0  0  0  0  0  0  0  0  0  0  0
  141.4500   79.1290  221.0320 C   0  0  0  0  0  0  0  0  0  0  0  0
  142.1280   80.4730  221.1320 C   0  0  0  0  0  0  0  0  0  0  0  0
  142.3080   80.8920  222.4280 O   0  0  0  0  0  0  0  0  0  0  0  0
  142.9040   79.9100  223.2110 C   0  0  0  0  0  0  0  0  0  0  0  0
  141.8100   78.9160  223.5290 C   0  0  0  0  0  0  0  0  0  0  0  0
  138.7360   78.1620  222.3350 C   0  0  0  0  0  0  0  0  0  0  0  0
  137.6880   77.2630  222.3250 C   0  0  0  0  0  0  0  0  0  0  0  0
  137.8960   75.8810  222.3280 C   0  0  0  0  0  0  0  0  0  0  0  0
  136.5041   72.9970  223.1222 H   0  0  0  0  0  0  0  0  0  0  0  0
  136.5784   73.0768  221.3183 H   0  0  0  0  0  0  0  0  0  0  0  0
  139.0268   71.6226  220.1646 H   0  0  0  0  0  0  0  0  0  0  0  0
  139.6777   69.1919  220.1958 H   0  0  0  0  0  0  0  0  0  0  0  0
  139.8549   67.9973  222.3721 H   0  0  0  0  0  0  0  0  0  0  0  0
  138.8117   68.6826  227.8287 H   0  0  0  0  0  0  0  0  0  0  0  0
  139.5802   67.4523  226.7498 H   0  0  0  0  0  0  0  0  0  0  0  0
  140.7112   68.1151  228.9791 H   0  0  0  0  0  0  0  0  0  0  0  0
  141.6795   67.9497  227.4319 H   0  0  0  0  0  0  0  0  0  0  0  0
  139.5652   70.5540  228.5167 H   0  0  0  0  0  0  0  0  0  0  0  0
  140.8498   71.7696  228.1892 H   0  0  0  0  0  0  0  0  0  0  0  0
  139.2169   71.4691  226.2590 H   0  0  0  0  0  0  0  0  0  0  0  0
  140.9044   71.1449  225.8027 H   0  0  0  0  0  0  0  0  0  0  0  0
  138.7618   71.5798  224.4361 H   0  0  0  0  0  0  0  0  0  0  0  0
  141.3196   75.9184  222.3645 H   0  0  0  0  0  0  0  0  0  0  0  0
  142.1317   78.4328  220.5214 H   0  0  0  0  0  0  0  0  0  0  0  0
  140.5133   79.2810  220.4758 H   0  0  0  0  0  0  0  0  0  0  0  0
  143.1126   80.4051  220.6463 H   0  0  0  0  0  0  0  0  0  0  0  0
  141.4742   81.2071  220.6383 H   0  0  0  0  0  0  0  0  0  0  0  0
  143.7177   79.4196  222.6566 H   0  0  0  0  0  0  0  0  0  0  0  0
  143.3444   80.3336  224.1257 H   0  0  0  0  0  0  0  0  0  0  0  0
  142.2561   78.0106  223.9663 H   0  0  0  0  0  0  0  0  0  0  0  0
  141.1075   79.3682  224.2446 H   0  0  0  0  0  0  0  0  0  0  0  0
  138.5638   79.2484  222.3335 H   0  0  0  0  0  0  0  0  0  0  0  0
  136.6571   77.6466  222.3143 H   0  0  0  0  0  0  0  0  0  0  0  0
  1  2  2  0
  2  3  1  0
  3  4  1  0
  4  5  1  0
  5  6  2  0
  6  7  1  0
  7  8  2  0
  8  9  1  0
  9 10  1  0
 10 11  2  0
 10 12  1  0
 12 13  1  0
 13 14  1  0
 14 15  1  0
 15 16  1  0
 16 17  1  0
  9 18  2  0
  4 19  2  0
 19 20  1  0
 20 21  2  0
 21 22  1  0
 22 23  1  0
 23 24  1  0
 24 25  1  0
 25 26  1  0
 26 27  1  0
 27 28  1  0
 22 29  2  0
 29 30  1  0
 30 31  2  0
 31  2  1  0
 18  5  1  0
 31 20  1  0
 17 12  1  0
 28 23  1  0
  3 32  1  0
  3 33  1  0
  6 34  1  0
  7 35  1  0
  8 36  1  0
 13 37  1  0
 13 38  1  0
 14 39  1  0
 14 40  1  0
 16 41  1  0
 16 42  1  0
 17 43  1  0
 17 44  1  0
 18 45  1  0
 21 46  1  0
 24 47  1  0
 24 48  1  0
 25 49  1  0
 25 50  1  0
 27 51  1  0
 27 52  1  0
 28 53  1  0
 28 54  1  0
 29 55  1  0
 30 56  1  0
M  END
>  <smiles>  (44) 
O=C1CC(c2cccc(C(=O)N3CCOCC3)c2)=Nc2cc(N3CCOCC3)ccc21

>  <score_type>  (44) 
oracle

>  <origin>  (44) 
autodockgpu

>  <m_score__min__energy>  (44) 
-8.6899999999999995

>  <m_primary>  (44) 
energy

>  <rmsd>  (44) 
6.8406803232650635

>  <m_score__min__rmsd>  (44) 
6.8406803232650635

>  <meeko>  (44) 
{"free_energy": -8.22, "intermolecular_energy": -9.12, "internal_energy": -0.87, "cluster_size": 1, "cluster_id": 3, "rank_in_cluster": 1}

>  <energy>  (44) 
-8.45

>  <cluster_rmsd>  (44) 
0.34

>  <cluster>  (44) 
1

$$$$

     RDKit          3D

 56 60  0  0  0  0  0  0  0  0999 V2000
  136.8880   72.7720  221.2570 O   0  0  0  0  0  0  0  0  0  0  0  0
  138.0720   72.9260  221.6430 C   0  0  0  0  0  0  0  0  0  0  0  0
  138.8570   73.9850  220.9530 C   0  0  0  0  0  0  0  0  0  0  0  0
  140.2560   74.0280  221.4640 C   0  0  0  0  0  0  0  0  0  0  0  0
  141.1980   74.9770  220.8680 C   0  0  0  0  0  0  0  0  0  0  0  0
  142.3550   74.5160  220.2900 C   0  0  0  0  0  0  0  0  0  0  0  0
  143.2670   75.4370  219.7460 C   0  0  0  0  0  0  0  0  0  0  0  0
  142.9760   76.8020  219.8060 C   0  0  0  0  0  0  0  0  0  0  0  0
  141.8170   77.2760  220.3850 C   0  0  0  0  0  0  0  0  0  0  0  0
  141.5740   78.6930  220.4810 C   0  0  0  0  0  0  0  0  0  0  0  0
  140.9720   79.2240  219.4730 O   0  0  0  0  0  0  0  0  0  0  0  0
  141.9020   79.5690  221.5160 N   0  0  0  0  0  0  0  0  0  0  0  0
  141.5360   80.9830  221.3430 C   0  0  0  0  0  0  0  0  0  0  0  0
  140.8220   81.5000  222.5430 C   0  0  0  0  0  0  0  0  0  0  0  0
  141.2960   80.9970  223.7500 O   0  0  0  0  0  0  0  0  0  0  0  0
  142.5910   80.4900  223.6190 C   0  0  0  0  0  0  0  0  0  0  0  0
  142.5700   79.2230  222.7530 C   0  0  0  0  0  0  0  0  0  0  0  0
  140.9400   76.3310  220.9110 C   0  0  0  0  0  0  0  0  0  0  0  0
  140.7080   73.2740  222.3980 N   0  0  0  0  0  0  0  0  0  0  0  0
  139.9620   72.2800  223.0910 C   0  0  0  0  0  0  0  0  0  0  0  0
  140.5280   71.5300  224.1090 C   0  0  0  0  0  0  0  0  0  0  0  0
  139.7250   70.6080  224.7320 C   0  0  0  0  0  0  0  0  0  0  0  0
  140.2640   69.8430  225.8140 N   0  0  0  0  0  0  0  0  0  0  0  0
  141.0390   70.5530  226.8110 C   0  0  0  0  0  0  0  0  0  0  0  0
  141.0510   69.8790  228.1610 C   0  0  0  0  0  0  0  0  0  0  0  0
  140.3480   68.6990  228.1810 O   0  0  0  0  0  0  0  0  0  0  0  0
  140.7160   67.8590  227.1370 C   0  0  0  0  0  0  0  0  0  0  0  0
  140.0410   68.4110  225.9030 C   0  0  0  0  0  0  0  0  0  0  0  0
  138.4070   70.3840  224.4080 C   0  0  0  0  0  0  0  0  0  0  0  0
  137.8780   71.1500  223.3890 C   0  0  0  0  0  0  0  0  0  0  0  0
  138.6360   72.1100  222.7120 C   0  0  0  0  0  0  0  0  0  0  0  0
  138.8742   73.7748  219.8734 H   0  0  0  0  0  0  0  0  0  0  0  0
  138.3817   74.9578  221.1475 H   0  0  0  0  0  0  0  0  0  0  0  0
  142.5661   73.4371  220.2530 H   0  0  0  0  0  0  0  0  0  0  0  0
  144.1991   75.0869  219.2784 H   0  0  0  0  0  0  0  0  0  0  0  0
  143.6919   77.5198  219.3791 H   0  0  0  0  0  0  0  0  0  0  0  0
  142.4500   81.5745  221.1856 H   0  0  0  0  0  0  0  0  0  0  0  0
  140.8674   81.0681  220.4737 H   0  0  0  0  0  0  0  0  0  0  0  0
  140.9261   82.5949  222.5611 H   0  0  0  0  0  0  0  0  0  0  0  0
  139.7758   81.1724  222.4535 H   0  0  0  0  0  0  0  0  0  0  0  0
  143.2326   81.2464  223.1434 H   0  0  0  0  0  0  0  0  0  0  0  0
  142.9855   80.2416  224.6153 H   0  0  0  0  0  0  0  0  0  0  0  0
  143.5975   78.8887  222.5471 H   0  0  0  0  0  0  0  0  0  0  0  0
  142.0461   78.4038  223.2672 H   0  0  0  0  0  0  0  0  0  0  0  0
  140.0064   76.6775  221.3783 H   0  0  0  0  0  0  0  0  0  0  0  0
  141.5782   71.6679  224.4058 H   0  0  0  0  0  0  0  0  0  0  0  0
  142.0761   70.6327  226.4531 H   0  0  0  0  0  0  0  0  0  0  0  0
  140.5658   71.5367  226.9463 H   0  0  0  0  0  0  0  0  0  0  0  0
  142.0946   69.6694  228.4382 H   0  0  0  0  0  0  0  0  0  0  0  0
  140.5647   70.5623  228.8728 H   0  0  0  0  0  0  0  0  0  0  0  0
  141.8086   67.8632  227.0096 H   0  0  0  0  0  0  0  0  0  0  0  0
  140.4150   66.8188  227.3306 H   0  0  0  0  0  0  0  0  0  0  0  0
  140.4571   67.9213  225.0102 H   0  0  0  0  0  0  0  0  0  0  0  0
  138.9600   68.2169  225.9651 H   0  0  0  0  0  0  0  0  0  0  0  0
  137.8037   69.6306  224.9357 H   0  0  0  0  0  0  0  0  0  0  0  0
  136.8271   71.0005  223.1005 H   0  0  0  0  0  0  0  0  0  0  0  0
  1  2  2  0
  2  3  1  0
  3  4  1  0
  4  5  1  0
  5  6  2  0
  6  7  1  0
  7  8  2  0
  8  9  1  0
  9 10  1  0
 10 11  2  0
 10 12  1  0
 12 13  1  0
 13 14  1  0
 14 15  1  0
 15 16  1  0
 16 17  1  0
  9 18  2  0
  4 19  2  0
 19 20  1  0
 20 21  2  0
 21 22  1  0
 22 23  1  0
 23 24  1  0
 24 25  1  0
 25 26  1  0
 26 27  1  0
 27 28  1  0
 22 29  2  0
 29 30  1  0
 30 31  2  0
 31  2  1  0
 18  5  1  0
 31 20  1  0
 17 12  1  0
 28 23  1  0
  3 32  1  0
  3 33  1  0
  6 34  1  0
  7 35  1  0
  8 36  1  0
 13 37  1  0
 13 38  1  0
 14 39  1  0
 14 40  1  0
 16 41  1  0
 16 42  1  0
 17 43  1  0
 17 44  1  0
 18 45  1  0
 21 46  1  0
 24 47  1  0
 24 48  1  0
 25 49  1  0
 25 50  1  0
 27 51  1  0
 27 52  1  0
 28 53  1  0
 28 54  1  0
 29 55  1  0
 30 56  1  0
M  END
>  <smiles>  (45) 
O=C1CC(c2cccc(C(=O)N3CCOCC3)c2)=Nc2cc(N3CCOCC3)ccc21

>  <score_type>  (45) 
oracle

>  <origin>  (45) 
autodockgpu

>  <m_score__min__energy>  (45) 
-8.6899999999999995

>  <m_primary>  (45) 
energy

>  <rmsd>  (45) 
7.375818836660206

>  <m_score__min__rmsd>  (45) 
7.375818836660206

>  <meeko>  (45) 
{"free_energy": -8.68, "intermolecular_energy": -9.58, "internal_energy": -0.91, "cluster_size": 48, "cluster_id": 1, "rank_in_cluster": 12}

>  <energy>  (45) 
-8.44

>  <cluster_rmsd>  (45) 
1.71

>  <cluster>  (45) 
1

$$$$

     RDKit          3D

 56 60  0  0  0  0  0  0  0  0999 V2000
  136.9100   72.6830  221.1930 O   0  0  0  0  0  0  0  0  0  0  0  0
  138.0840   72.8550  221.5980 C   0  0  0  0  0  0  0  0  0  0  0  0
  138.8730   73.9090  220.9040 C   0  0  0  0  0  0  0  0  0  0  0  0
  140.2610   73.9750  221.4390 C   0  0  0  0  0  0  0  0  0  0  0  0
  141.2050   74.9230  220.8450 C   0  0  0  0  0  0  0  0  0  0  0  0
  142.3480   74.4590  220.2430 C   0  0  0  0  0  0  0  0  0  0  0  0
  143.2620   75.3770  219.7000 C   0  0  0  0  0  0  0  0  0  0  0  0
  142.9880   76.7450  219.7860 C   0  0  0  0  0  0  0  0  0  0  0  0
  141.8430   77.2220  220.3890 C   0  0  0  0  0  0  0  0  0  0  0  0
  141.6170   78.6400  220.5110 C   0  0  0  0  0  0  0  0  0  0  0  0
  141.1800   79.2270  219.4500 O   0  0  0  0  0  0  0  0  0  0  0  0
  141.8080   79.4640  221.6200 N   0  0  0  0  0  0  0  0  0  0  0  0
  141.5000   80.8930  221.4580 C   0  0  0  0  0  0  0  0  0  0  0  0
  140.6280   81.3800  222.5630 C   0  0  0  0  0  0  0  0  0  0  0  0
  140.9110   80.8160  223.8020 O   0  0  0  0  0  0  0  0  0  0  0  0
  142.2010   80.2810  223.8390 C   0  0  0  0  0  0  0  0  0  0  0  0
  142.2800   79.0510  222.9250 C   0  0  0  0  0  0  0  0  0  0  0  0
  140.9630   76.2780  220.9130 C   0  0  0  0  0  0  0  0  0  0  0  0
  140.7030   73.2420  222.3940 N   0  0  0  0  0  0  0  0  0  0  0  0
  139.9540   72.2520  223.0910 C   0  0  0  0  0  0  0  0  0  0  0  0
  140.5080   71.5250  224.1320 C   0  0  0  0  0  0  0  0  0  0  0  0
  139.7020   70.6060  224.7560 C   0  0  0  0  0  0  0  0  0  0  0  0
  140.2280   69.8650  225.8610 N   0  0  0  0  0  0  0  0  0  0  0  0
  140.9630   70.6020  226.8680 C   0  0  0  0  0  0  0  0  0  0  0  0
  140.9530   69.9440  228.2260 C   0  0  0  0  0  0  0  0  0  0  0  0
  140.2740   68.7500  228.2430 O   0  0  0  0  0  0  0  0  0  0  0  0
  140.6870   67.9050  227.2190 C   0  0  0  0  0  0  0  0  0  0  0  0
  140.0320   68.4300  225.9610 C   0  0  0  0  0  0  0  0  0  0  0  0
  138.3920   70.3640  224.4120 C   0  0  0  0  0  0  0  0  0  0  0  0
  137.8750   71.1070  223.3700 C   0  0  0  0  0  0  0  0  0  0  0  0
  138.6370   72.0630  222.6910 C   0  0  0  0  0  0  0  0  0  0  0  0
  138.9123   73.6797  219.8289 H   0  0  0  0  0  0  0  0  0  0  0  0
  138.3855   74.8805  221.0731 H   0  0  0  0  0  0  0  0  0  0  0  0
  142.5463   73.3785  220.1863 H   0  0  0  0  0  0  0  0  0  0  0  0
  144.1827   75.0235  219.2128 H   0  0  0  0  0  0  0  0  0  0  0  0
  143.7061   77.4615  219.3606 H   0  0  0  0  0  0  0  0  0  0  0  0
  142.4390   81.4660  221.4616 H   0  0  0  0  0  0  0  0  0  0  0  0
  140.9679   81.0309  220.5051 H   0  0  0  0  0  0  0  0  0  0  0  0
  140.7500   82.4702  222.6441 H   0  0  0  0  0  0  0  0  0  0  0  0
  139.5995   81.0845  222.3082 H   0  0  0  0  0  0  0  0  0  0  0  0
  142.9205   81.0385  223.4948 H   0  0  0  0  0  0  0  0  0  0  0  0
  142.4412   79.9832  224.8703 H   0  0  0  0  0  0  0  0  0  0  0  0
  143.3192   78.6971  222.8565 H   0  0  0  0  0  0  0  0  0  0  0  0
  141.6688   78.2268  223.3214 H   0  0  0  0  0  0  0  0  0  0  0  0
  140.0402   76.6272  221.3993 H   0  0  0  0  0  0  0  0  0  0  0  0
  141.5512   71.6780  224.4456 H   0  0  0  0  0  0  0  0  0  0  0  0
  142.0072   70.6979  226.5357 H   0  0  0  0  0  0  0  0  0  0  0  0
  140.4679   71.5780  226.9789 H   0  0  0  0  0  0  0  0  0  0  0  0
  141.9931   69.7593  228.5328 H   0  0  0  0  0  0  0  0  0  0  0  0
  140.4339   70.6255  228.9160 H   0  0  0  0  0  0  0  0  0  0  0  0
  141.7822   67.9305  227.1197 H   0  0  0  0  0  0  0  0  0  0  0  0
  140.4035   66.8608  227.4171 H   0  0  0  0  0  0  0  0  0  0  0  0
  140.4805   67.9391  225.0847 H   0  0  0  0  0  0  0  0  0  0  0  0
  138.9540   68.2145  225.9982 H   0  0  0  0  0  0  0  0  0  0  0  0
  137.7859   69.6145  224.9419 H   0  0  0  0  0  0  0  0  0  0  0  0
  136.8313   70.9421  223.0642 H   0  0  0  0  0  0  0  0  0  0  0  0
  1  2  2  0
  2  3  1  0
  3  4  1  0
  4  5  1  0
  5  6  2  0
  6  7  1  0
  7  8  2  0
  8  9  1  0
  9 10  1  0
 10 11  2  0
 10 12  1  0
 12 13  1  0
 13 14  1  0
 14 15  1  0
 15 16  1  0
 16 17  1  0
  9 18  2  0
  4 19  2  0
 19 20  1  0
 20 21  2  0
 21 22  1  0
 22 23  1  0
 23 24  1  0
 24 25  1  0
 25 26  1  0
 26 27  1  0
 27 28  1  0
 22 29  2  0
 29 30  1  0
 30 31  2  0
 31  2  1  0
 18  5  1  0
 31 20  1  0
 17 12  1  0
 28 23  1  0
  3 32  1  0
  3 33  1  0
  6 34  1  0
  7 35  1  0
  8 36  1  0
 13 37  1  0
 13 38  1  0
 14 39  1  0
 14 40  1  0
 16 41  1  0
 16 42  1  0
 17 43  1  0
 17 44  1  0
 18 45  1  0
 21 46  1  0
 24 47  1  0
 24 48  1  0
 25 49  1  0
 25 50  1  0
 27 51  1  0
 27 52  1  0
 28 53  1  0
 28 54  1  0
 29 55  1  0
 30 56  1  0
M  END
>  <smiles>  (46) 
O=C1CC(c2cccc(C(=O)N3CCOCC3)c2)=Nc2cc(N3CCOCC3)ccc21

>  <score_type>  (46) 
oracle

>  <origin>  (46) 
autodockgpu

>  <m_score__min__energy>  (46) 
-8.6899999999999995

>  <m_primary>  (46) 
energy

>  <rmsd>  (46) 
7.3415034278965825

>  <m_score__min__rmsd>  (46) 
7.3415034278965825

>  <meeko>  (46) 
{"free_energy": -8.68, "intermolecular_energy": -9.58, "internal_energy": -0.92, "cluster_size": 48, "cluster_id": 1, "rank_in_cluster": 7}

>  <energy>  (46) 
-8.34

>  <cluster_rmsd>  (46) 
1.29

>  <cluster>  (46) 
1

$$$$

     RDKit          3D

 56 60  0  0  0  0  0  0  0  0999 V2000
  136.8800   72.7820  221.2570 O   0  0  0  0  0  0  0  0  0  0  0  0
  138.0650   72.9300  221.6400 C   0  0  0  0  0  0  0  0  0  0  0  0
  138.8530   73.9880  220.9500 C   0  0  0  0  0  0  0  0  0  0  0  0
  140.2530   74.0240  221.4570 C   0  0  0  0  0  0  0  0  0  0  0  0
  141.1970   74.9710  220.8610 C   0  0  0  0  0  0  0  0  0  0  0  0
  142.3580   74.5090  220.2930 C   0  0  0  0  0  0  0  0  0  0  0  0
  143.2720   75.4280  219.7490 C   0  0  0  0  0  0  0  0  0  0  0  0
  142.9780   76.7930  219.7990 C   0  0  0  0  0  0  0  0  0  0  0  0
  141.8150   77.2680  220.3690 C   0  0  0  0  0  0  0  0  0  0  0  0
  141.5690   78.6860  220.4550 C   0  0  0  0  0  0  0  0  0  0  0  0
  140.9730   79.2100  219.4390 O   0  0  0  0  0  0  0  0  0  0  0  0
  141.8880   79.5680  221.4860 N   0  0  0  0  0  0  0  0  0  0  0  0
  141.5210   80.9800  221.3030 C   0  0  0  0  0  0  0  0  0  0  0  0
  140.7970   81.5030  222.4940 C   0  0  0  0  0  0  0  0  0  0  0  0
  141.2640   81.0070  223.7080 O   0  0  0  0  0  0  0  0  0  0  0  0
  142.5610   80.5020  223.5890 C   0  0  0  0  0  0  0  0  0  0  0  0
  142.5480   79.2300  222.7300 C   0  0  0  0  0  0  0  0  0  0  0  0
  140.9370   76.3250  220.8950 C   0  0  0  0  0  0  0  0  0  0  0  0
  140.7060   73.2650  222.3870 N   0  0  0  0  0  0  0  0  0  0  0  0
  139.9580   72.2720  223.0790 C   0  0  0  0  0  0  0  0  0  0  0  0
  140.5240   71.5160  224.0930 C   0  0  0  0  0  0  0  0  0  0  0  0
  139.7190   70.5950  224.7150 C   0  0  0  0  0  0  0  0  0  0  0  0
  140.2590   69.8240  225.7930 N   0  0  0  0  0  0  0  0  0  0  0  0
  141.0410   70.5280  226.7890 C   0  0  0  0  0  0  0  0  0  0  0  0
  141.0550   69.8490  228.1370 C   0  0  0  0  0  0  0  0  0  0  0  0
  140.3460   68.6730  228.1560 O   0  0  0  0  0  0  0  0  0  0  0  0
  140.7070   67.8340  227.1080 C   0  0  0  0  0  0  0  0  0  0  0  0
  140.0290   68.3930  225.8780 C   0  0  0  0  0  0  0  0  0  0  0  0
  138.3990   70.3770  224.3950 C   0  0  0  0  0  0  0  0  0  0  0  0
  137.8700   71.1490  223.3800 C   0  0  0  0  0  0  0  0  0  0  0  0
  138.6300   72.1080  222.7040 C   0  0  0  0  0  0  0  0  0  0  0  0
  138.8664   73.7803  219.8699 H   0  0  0  0  0  0  0  0  0  0  0  0
  138.3823   74.9623  221.1482 H   0  0  0  0  0  0  0  0  0  0  0  0
  142.5711   73.4302  220.2638 H   0  0  0  0  0  0  0  0  0  0  0  0
  144.2076   75.0767  219.2894 H   0  0  0  0  0  0  0  0  0  0  0  0
  143.6946   77.5097  219.3715 H   0  0  0  0  0  0  0  0  0  0  0  0
  142.4353   81.5721  221.1494 H   0  0  0  0  0  0  0  0  0  0  0  0
  140.8586   81.0589  220.4283 H   0  0  0  0  0  0  0  0  0  0  0  0
  140.8990   82.5982  222.5065 H   0  0  0  0  0  0  0  0  0  0  0  0
  139.7517   81.1738  222.3987 H   0  0  0  0  0  0  0  0  0  0  0  0
  143.2045   81.2569  223.1136 H   0  0  0  0  0  0  0  0  0  0  0  0
  142.9494   80.2602  224.5894 H   0  0  0  0  0  0  0  0  0  0  0  0
  143.5775   78.8961  222.5333 H   0  0  0  0  0  0  0  0  0  0  0  0
  142.0217   78.4129  223.2451 H   0  0  0  0  0  0  0  0  0  0  0  0
  140.0003   76.6727  221.3552 H   0  0  0  0  0  0  0  0  0  0  0  0
  141.5756   71.6487  224.3873 H   0  0  0  0  0  0  0  0  0  0  0  0
  142.0770   70.6045  226.4274 H   0  0  0  0  0  0  0  0  0  0  0  0
  140.5729   71.5135  226.9291 H   0  0  0  0  0  0  0  0  0  0  0  0
  142.0987   69.6328  228.4091 H   0  0  0  0  0  0  0  0  0  0  0  0
  140.5753   70.5324  228.8531 H   0  0  0  0  0  0  0  0  0  0  0  0
  141.7991   67.8342  226.9764 H   0  0  0  0  0  0  0  0  0  0  0  0
  140.4030   66.7943  227.2996 H   0  0  0  0  0  0  0  0  0  0  0  0
  140.4388   67.9041  224.9819 H   0  0  0  0  0  0  0  0  0  0  0  0
  138.9474   68.2038  225.9437 H   0  0  0  0  0  0  0  0  0  0  0  0
  137.7944   69.6243  224.9221 H   0  0  0  0  0  0  0  0  0  0  0  0
  136.8176   71.0050  223.0943 H   0  0  0  0  0  0  0  0  0  0  0  0
  1  2  2  0
  2  3  1  0
  3  4  1  0
  4  5  1  0
  5  6  2  0
  6  7  1  0
  7  8  2  0
  8  9  1  0
  9 10  1  0
 10 11  2  0
 10 12  1  0
 12 13  1  0
 13 14  1  0
 14 15  1  0
 15 16  1  0
 16 17  1  0
  9 18  2  0
  4 19  2  0
 19 20  1  0
 20 21  2  0
 21 22  1  0
 22 23  1  0
 23 24  1  0
 24 25  1  0
 25 26  1  0
 26 27  1  0
 27 28  1  0
 22 29  2  0
 29 30  1  0
 30 31  2  0
 31  2  1  0
 18  5  1  0
 31 20  1  0
 17 12  1  0
 28 23  1  0
  3 32  1  0
  3 33  1  0
  6 34  1  0
  7 35  1  0
  8 36  1  0
 13 37  1  0
 13 38  1  0
 14 39  1  0
 14 40  1  0
 16 41  1  0
 16 42  1  0
 17 43  1  0
 17 44  1  0
 18 45  1  0
 21 46  1  0
 24 47  1  0
 24 48  1  0
 25 49  1  0
 25 50  1  0
 27 51  1  0
 27 52  1  0
 28 53  1  0
 28 54  1  0
 29 55  1  0
 30 56  1  0
M  END
>  <smiles>  (47) 
O=C1CC(c2cccc(C(=O)N3CCOCC3)c2)=Nc2cc(N3CCOCC3)ccc21

>  <score_type>  (47) 
oracle

>  <origin>  (47) 
autodockgpu

>  <m_score__min__energy>  (47) 
-8.6899999999999995

>  <m_primary>  (47) 
energy

>  <rmsd>  (47) 
7.374495389564269

>  <m_score__min__rmsd>  (47) 
7.374495389564269

>  <meeko>  (47) 
{"free_energy": -8.69, "intermolecular_energy": -9.58, "internal_energy": -0.91, "cluster_size": 48, "cluster_id": 1, "rank_in_cluster": 2}

>  <energy>  (47) 
-8.34

>  <cluster_rmsd>  (47) 
1.79

>  <cluster>  (47) 
1

$$$$

     RDKit          3D

 56 60  0  0  0  0  0  0  0  0999 V2000
  138.3460   70.8770  219.9150 O   0  0  0  0  0  0  0  0  0  0  0  0
  138.9790   71.6050  220.7180 C   0  0  0  0  0  0  0  0  0  0  0  0
  139.3560   72.9570  220.2240 C   0  0  0  0  0  0  0  0  0  0  0  0
  140.1480   73.6950  221.2460 C   0  0  0  0  0  0  0  0  0  0  0  0
  140.6530   75.0310  220.9220 C   0  0  0  0  0  0  0  0  0  0  0  0
  141.0740   75.3080  219.6450 C   0  0  0  0  0  0  0  0  0  0  0  0
  141.5850   76.5840  219.3500 C   0  0  0  0  0  0  0  0  0  0  0  0
  141.6520   77.5430  220.3640 C   0  0  0  0  0  0  0  0  0  0  0  0
  141.2330   77.2750  221.6500 C   0  0  0  0  0  0  0  0  0  0  0  0
  141.3690   78.2680  222.6860 C   0  0  0  0  0  0  0  0  0  0  0  0
  141.8070   77.8350  223.8180 O   0  0  0  0  0  0  0  0  0  0  0  0
  141.0900   79.6330  222.6300 N   0  0  0  0  0  0  0  0  0  0  0  0
  141.3170   80.4170  223.8530 C   0  0  0  0  0  0  0  0  0  0  0  0
  142.1190   81.6380  223.5640 C   0  0  0  0  0  0  0  0  0  0  0  0
  141.8270   82.2350  222.3420 O   0  0  0  0  0  0  0  0  0  0  0  0
  140.5710   81.8460  221.8700 C   0  0  0  0  0  0  0  0  0  0  0  0
  140.5970   80.3620  221.4800 C   0  0  0  0  0  0  0  0  0  0  0  0
  140.7330   75.9990  221.9000 C   0  0  0  0  0  0  0  0  0  0  0  0
  140.4350   73.2360  222.4090 N   0  0  0  0  0  0  0  0  0  0  0  0
  140.0540   71.9600  222.9090 C   0  0  0  0  0  0  0  0  0  0  0  0
  140.3860   71.5580  224.1940 C   0  0  0  0  0  0  0  0  0  0  0  0
  139.9590   70.3160  224.5940 C   0  0  0  0  0  0  0  0  0  0  0  0
  140.2490   69.8840  225.9260 N   0  0  0  0  0  0  0  0  0  0  0  0
  140.6980   70.8880  226.8700 C   0  0  0  0  0  0  0  0  0  0  0  0
  140.4050   70.5390  228.3090 C   0  0  0  0  0  0  0  0  0  0  0  0
  139.7940   69.3170  228.4550 O   0  0  0  0  0  0  0  0  0  0  0  0
  140.4700   68.3160  227.7660 C   0  0  0  0  0  0  0  0  0  0  0  0
  140.1000   68.4920  226.3120 C   0  0  0  0  0  0  0  0  0  0  0  0
  139.2320   69.4550  223.8050 C   0  0  0  0  0  0  0  0  0  0  0  0
  138.9200   69.8900  222.5330 C   0  0  0  0  0  0  0  0  0  0  0  0
  139.3190   71.1440  222.0590 C   0  0  0  0  0  0  0  0  0  0  0  0
  139.9580   72.8512  219.3094 H   0  0  0  0  0  0  0  0  0  0  0  0
  138.4365   73.5238  220.0157 H   0  0  0  0  0  0  0  0  0  0  0  0
  141.0121   74.5393  218.8606 H   0  0  0  0  0  0  0  0  0  0  0  0
  141.9281   76.8246  218.3329 H   0  0  0  0  0  0  0  0  0  0  0  0
  142.0507   78.5410  220.1295 H   0  0  0  0  0  0  0  0  0  0  0  0
  140.3457   80.7161  224.2738 H   0  0  0  0  0  0  0  0  0  0  0  0
  141.8728   79.7946  224.5697 H   0  0  0  0  0  0  0  0  0  0  0  0
  141.9293   82.3722  224.3609 H   0  0  0  0  0  0  0  0  0  0  0  0
  143.1716   81.3218  223.5183 H   0  0  0  0  0  0  0  0  0  0  0  0
  139.8203   82.0029  222.6585 H   0  0  0  0  0  0  0  0  0  0  0  0
  140.3133   82.4485  220.9865 H   0  0  0  0  0  0  0  0  0  0  0  0
  139.5835   80.0209  221.2220 H   0  0  0  0  0  0  0  0  0  0  0  0
  141.2409   80.1966  220.6036 H   0  0  0  0  0  0  0  0  0  0  0  0
  140.3892   75.7548  222.9159 H   0  0  0  0  0  0  0  0  0  0  0  0
  140.9674   72.2074  224.8650 H   0  0  0  0  0  0  0  0  0  0  0  0
  141.7852   71.0105  226.7564 H   0  0  0  0  0  0  0  0  0  0  0  0
  140.1467   71.8126  226.6438 H   0  0  0  0  0  0  0  0  0  0  0  0
  141.3537   70.5245  228.8656 H   0  0  0  0  0  0  0  0  0  0  0  0
  139.7113   71.3001  228.6957 H   0  0  0  0  0  0  0  0  0  0  0  0
  141.5563   68.4255  227.9004 H   0  0  0  0  0  0  0  0  0  0  0  0
  140.1961   67.3164  228.1344 H   0  0  0  0  0  0  0  0  0  0  0  0
  140.7599   67.8691  225.6903 H   0  0  0  0  0  0  0  0  0  0  0  0
  139.0531   68.1873  226.1666 H   0  0  0  0  0  0  0  0  0  0  0  0
  138.9146   68.4672  224.1704 H   0  0  0  0  0  0  0  0  0  0  0  0
  138.3396   69.2301  221.8714 H   0  0  0  0  0  0  0  0  0  0  0  0
  1  2  2  0
  2  3  1  0
  3  4  1  0
  4  5  1  0
  5  6  2  0
  6  7  1  0
  7  8  2  0
  8  9  1  0
  9 10  1  0
 10 11  2  0
 10 12  1  0
 12 13  1  0
 13 14  1  0
 14 15  1  0
 15 16  1  0
 16 17  1  0
  9 18  2  0
  4 19  2  0
 19 20  1  0
 20 21  2  0
 21 22  1  0
 22 23  1  0
 23 24  1  0
 24 25  1  0
 25 26  1  0
 26 27  1  0
 27 28  1  0
 22 29  2  0
 29 30  1  0
 30 31  2  0
 31  2  1  0
 18  5  1  0
 31 20  1  0
 17 12  1  0
 28 23  1  0
  3 32  1  0
  3 33  1  0
  6 34  1  0
  7 35  1  0
  8 36  1  0
 13 37  1  0
 13 38  1  0
 14 39  1  0
 14 40  1  0
 16 41  1  0
 16 42  1  0
 17 43  1  0
 17 44  1  0
 18 45  1  0
 21 46  1  0
 24 47  1  0
 24 48  1  0
 25 49  1  0
 25 50  1  0
 27 51  1  0
 27 52  1  0
 28 53  1  0
 28 54  1  0
 29 55  1  0
 30 56  1  0
M  END
>  <smiles>  (48) 
O=C1CC(c2cccc(C(=O)N3CCOCC3)c2)=Nc2cc(N3CCOCC3)ccc21

>  <score_type>  (48) 
oracle

>  <origin>  (48) 
autodockgpu

>  <m_score__min__energy>  (48) 
-8.6899999999999995

>  <m_primary>  (48) 
energy

>  <rmsd>  (48) 
7.206404359393757

>  <m_score__min__rmsd>  (48) 
7.206404359393757

>  <meeko>  (48) 
{"free_energy": -8.34, "intermolecular_energy": -9.23, "internal_energy": -0.86, "cluster_size": 48, "cluster_id": 1, "rank_in_cluster": 46}

>  <energy>  (48) 
-8.27

>  <cluster_rmsd>  (48) 
1.13

>  <cluster>  (48) 
1

$$$$

     RDKit          3D

 56 60  0  0  0  0  0  0  0  0999 V2000
  136.8780   72.7190  221.2040 O   0  0  0  0  0  0  0  0  0  0  0  0
  138.0580   72.8830  221.6000 C   0  0  0  0  0  0  0  0  0  0  0  0
  138.8430   73.9420  220.9110 C   0  0  0  0  0  0  0  0  0  0  0  0
  140.2370   73.9960  221.4330 C   0  0  0  0  0  0  0  0  0  0  0  0
  141.1790   74.9470  220.8410 C   0  0  0  0  0  0  0  0  0  0  0  0
  142.3360   74.4890  220.2610 C   0  0  0  0  0  0  0  0  0  0  0  0
  143.2480   75.4120  219.7210 C   0  0  0  0  0  0  0  0  0  0  0  0
  142.9560   76.7770  219.7850 C   0  0  0  0  0  0  0  0  0  0  0  0
  141.7970   77.2480  220.3660 C   0  0  0  0  0  0  0  0  0  0  0  0
  141.5530   78.6650  220.4660 C   0  0  0  0  0  0  0  0  0  0  0  0
  140.9480   79.1980  219.4610 O   0  0  0  0  0  0  0  0  0  0  0  0
  141.8840   79.5380  221.5020 N   0  0  0  0  0  0  0  0  0  0  0  0
  141.5160   80.9520  221.3340 C   0  0  0  0  0  0  0  0  0  0  0  0
  140.8040   81.4650  222.5370 C   0  0  0  0  0  0  0  0  0  0  0  0
  141.2820   80.9590  223.7410 O   0  0  0  0  0  0  0  0  0  0  0  0
  142.5780   80.4540  223.6060 C   0  0  0  0  0  0  0  0  0  0  0  0
  142.5550   79.1890  222.7370 C   0  0  0  0  0  0  0  0  0  0  0  0
  140.9210   76.3010  220.8880 C   0  0  0  0  0  0  0  0  0  0  0  0
  140.6860   73.2500  222.3750 N   0  0  0  0  0  0  0  0  0  0  0  0
  139.9390   72.2550  223.0660 C   0  0  0  0  0  0  0  0  0  0  0  0
  140.5010   71.5130  224.0940 C   0  0  0  0  0  0  0  0  0  0  0  0
  139.6980   70.5890  224.7140 C   0  0  0  0  0  0  0  0  0  0  0  0
  140.2320   69.8330  225.8040 N   0  0  0  0  0  0  0  0  0  0  0  0
  140.9810   70.5550  226.8120 C   0  0  0  0  0  0  0  0  0  0  0  0
  140.9830   69.8810  228.1630 C   0  0  0  0  0  0  0  0  0  0  0  0
  140.2970   68.6910  228.1730 O   0  0  0  0  0  0  0  0  0  0  0  0
  140.6940   67.8560  227.1350 C   0  0  0  0  0  0  0  0  0  0  0  0
  140.0290   68.3980  225.8910 C   0  0  0  0  0  0  0  0  0  0  0  0
  138.3840   70.3560  224.3800 C   0  0  0  0  0  0  0  0  0  0  0  0
  137.8590   71.1140  223.3520 C   0  0  0  0  0  0  0  0  0  0  0  0
  138.6180   72.0750  222.6780 C   0  0  0  0  0  0  0  0  0  0  0  0
  138.8705   73.7258  219.8328 H   0  0  0  0  0  0  0  0  0  0  0  0
  138.3608   74.9132  221.0964 H   0  0  0  0  0  0  0  0  0  0  0  0
  142.5471   73.4103  220.2193 H   0  0  0  0  0  0  0  0  0  0  0  0
  144.1808   75.0639  219.2534 H   0  0  0  0  0  0  0  0  0  0  0  0
  143.6710   77.4967  219.3598 H   0  0  0  0  0  0  0  0  0  0  0  0
  142.4290   81.5450  221.1763 H   0  0  0  0  0  0  0  0  0  0  0  0
  140.8453   81.0388  220.4664 H   0  0  0  0  0  0  0  0  0  0  0  0
  140.9067   82.5600  222.5579 H   0  0  0  0  0  0  0  0  0  0  0  0
  139.7578   81.1368  222.4492 H   0  0  0  0  0  0  0  0  0  0  0  0
  143.2177   81.2121  223.1305 H   0  0  0  0  0  0  0  0  0  0  0  0
  142.9760   80.2043  224.6006 H   0  0  0  0  0  0  0  0  0  0  0  0
  143.5821   78.8551  222.5280 H   0  0  0  0  0  0  0  0  0  0  0  0
  142.0322   78.3686  223.2504 H   0  0  0  0  0  0  0  0  0  0  0  0
  139.9871   76.6456  221.3560 H   0  0  0  0  0  0  0  0  0  0  0  0
  141.5475   71.6591  224.3998 H   0  0  0  0  0  0  0  0  0  0  0  0
  142.0220   70.6505  226.4696 H   0  0  0  0  0  0  0  0  0  0  0  0
  140.4910   71.5315  226.9398 H   0  0  0  0  0  0  0  0  0  0  0  0
  142.0254   69.6865  228.4556 H   0  0  0  0  0  0  0  0  0  0  0  0
  140.4765   70.5572  228.8674 H   0  0  0  0  0  0  0  0  0  0  0  0
  141.7882   67.8769  227.0241 H   0  0  0  0  0  0  0  0  0  0  0  0
  140.4067   66.8112  227.3243 H   0  0  0  0  0  0  0  0  0  0  0  0
  140.4651   67.9141  225.0046 H   0  0  0  0  0  0  0  0  0  0  0  0
  138.9502   68.1883  225.9380 H   0  0  0  0  0  0  0  0  0  0  0  0
  137.7804   69.6020  224.9066 H   0  0  0  0  0  0  0  0  0  0  0  0
  136.8117   70.9568  223.0545 H   0  0  0  0  0  0  0  0  0  0  0  0
  1  2  2  0
  2  3  1  0
  3  4  1  0
  4  5  1  0
  5  6  2  0
  6  7  1  0
  7  8  2  0
  8  9  1  0
  9 10  1  0
 10 11  2  0
 10 12  1  0
 12 13  1  0
 13 14  1  0
 14 15  1  0
 15 16  1  0
 16 17  1  0
  9 18  2  0
  4 19  2  0
 19 20  1  0
 20 21  2  0
 21 22  1  0
 22 23  1  0
 23 24  1  0
 24 25  1  0
 25 26  1  0
 26 27  1  0
 27 28  1  0
 22 29  2  0
 29 30  1  0
 30 31  2  0
 31  2  1  0
 18  5  1  0
 31 20  1  0
 17 12  1  0
 28 23  1  0
  3 32  1  0
  3 33  1  0
  6 34  1  0
  7 35  1  0
  8 36  1  0
 13 37  1  0
 13 38  1  0
 14 39  1  0
 14 40  1  0
 16 41  1  0
 16 42  1  0
 17 43  1  0
 17 44  1  0
 18 45  1  0
 21 46  1  0
 24 47  1  0
 24 48  1  0
 25 49  1  0
 25 50  1  0
 27 51  1  0
 27 52  1  0
 28 53  1  0
 28 54  1  0
 29 55  1  0
 30 56  1  0
M  END
>  <smiles>  (49) 
O=C1CC(c2cccc(C(=O)N3CCOCC3)c2)=Nc2cc(N3CCOCC3)ccc21

>  <score_type>  (49) 
oracle

>  <origin>  (49) 
autodockgpu

>  <m_score__min__energy>  (49) 
-8.6899999999999995

>  <m_primary>  (49) 
energy

>  <rmsd>  (49) 
7.362037001812224

>  <m_score__min__rmsd>  (49) 
7.362037001812224

>  <meeko>  (49) 
{"free_energy": -8.68, "intermolecular_energy": -9.58, "internal_energy": -0.91, "cluster_size": 48, "cluster_id": 1, "rank_in_cluster": 10}

>  <energy>  (49) 
-8.26

>  <cluster_rmsd>  (49) 
0.0

>  <cluster>  (49) 
2

$$$$

     RDKit          3D

 56 60  0  0  0  0  0  0  0  0999 V2000
  136.9680   72.5750  221.1000 O   0  0  0  0  0  0  0  0  0  0  0  0
  138.1260   72.7920  221.5310 C   0  0  0  0  0  0  0  0  0  0  0  0
  138.9030   73.8500  220.8290 C   0  0  0  0  0  0  0  0  0  0  0  0
  140.2730   73.9700  221.3990 C   0  0  0  0  0  0  0  0  0  0  0  0
  141.2060   74.9290  220.8030 C   0  0  0  0  0  0  0  0  0  0  0  0
  142.3470   74.4770  220.1870 C   0  0  0  0  0  0  0  0  0  0  0  0
  143.2500   75.4060  219.6440 C   0  0  0  0  0  0  0  0  0  0  0  0
  142.9670   76.7710  219.7430 C   0  0  0  0  0  0  0  0  0  0  0  0
  141.8250   77.2360  220.3600 C   0  0  0  0  0  0  0  0  0  0  0  0
  141.5910   78.6520  220.4950 C   0  0  0  0  0  0  0  0  0  0  0  0
  141.1430   79.2440  219.4420 O   0  0  0  0  0  0  0  0  0  0  0  0
  141.7840   79.4680  221.6090 N   0  0  0  0  0  0  0  0  0  0  0  0
  141.4660   80.8960  221.4610 C   0  0  0  0  0  0  0  0  0  0  0  0
  140.5990   81.3680  222.5750 C   0  0  0  0  0  0  0  0  0  0  0  0
  140.8930   80.7960  223.8080 O   0  0  0  0  0  0  0  0  0  0  0  0
  142.1870   80.2690  223.8320 C   0  0  0  0  0  0  0  0  0  0  0  0
  142.2680   79.0470  222.9070 C   0  0  0  0  0  0  0  0  0  0  0  0
  140.9560   76.2820  220.8840 C   0  0  0  0  0  0  0  0  0  0  0  0
  140.7100   73.2760  222.3840 N   0  0  0  0  0  0  0  0  0  0  0  0
  139.9710   72.2840  223.0880 C   0  0  0  0  0  0  0  0  0  0  0  0
  140.5170   71.6010  224.1630 C   0  0  0  0  0  0  0  0  0  0  0  0
  139.7210   70.6760  224.7900 C   0  0  0  0  0  0  0  0  0  0  0  0
  140.2380   69.9800  225.9280 N   0  0  0  0  0  0  0  0  0  0  0  0
  140.9390   70.7620  226.9250 C   0  0  0  0  0  0  0  0  0  0  0  0
  140.9140   70.1480  228.3040 C   0  0  0  0  0  0  0  0  0  0  0  0
  140.2560   68.9430  228.3450 O   0  0  0  0  0  0  0  0  0  0  0  0
  140.7040   68.0730  227.3570 C   0  0  0  0  0  0  0  0  0  0  0  0
  140.0660   68.5450  226.0710 C   0  0  0  0  0  0  0  0  0  0  0  0
  138.4290   70.3860  224.4190 C   0  0  0  0  0  0  0  0  0  0  0  0
  137.9180   71.0870  223.3440 C   0  0  0  0  0  0  0  0  0  0  0  0
  138.6710   72.0460  222.6590 C   0  0  0  0  0  0  0  0  0  0  0  0
  138.9781   73.5934  219.7620 H   0  0  0  0  0  0  0  0  0  0  0  0
  138.3836   74.8111  220.9576 H   0  0  0  0  0  0  0  0  0  0  0  0
  142.5518   73.3984  220.1194 H   0  0  0  0  0  0  0  0  0  0  0  0
  144.1692   75.0630  219.1466 H   0  0  0  0  0  0  0  0  0  0  0  0
  143.6761   77.4956  219.3162 H   0  0  0  0  0  0  0  0  0  0  0  0
  142.4014   81.4749  221.4632 H   0  0  0  0  0  0  0  0  0  0  0  0
  140.9267   81.0384  220.5129 H   0  0  0  0  0  0  0  0  0  0  0  0
  140.7148   82.4582  222.6641 H   0  0  0  0  0  0  0  0  0  0  0  0
  139.5709   81.0676  222.3244 H   0  0  0  0  0  0  0  0  0  0  0  0
  142.8993   81.0341  223.4895 H   0  0  0  0  0  0  0  0  0  0  0  0
  142.4359   79.9641  224.8592 H   0  0  0  0  0  0  0  0  0  0  0  0
  143.3091   78.7008  222.8282 H   0  0  0  0  0  0  0  0  0  0  0  0
  141.6654   78.2151  223.3006 H   0  0  0  0  0  0  0  0  0  0  0  0
  140.0353   76.6212  221.3813 H   0  0  0  0  0  0  0  0  0  0  0  0
  141.5465   71.7926  224.4998 H   0  0  0  0  0  0  0  0  0  0  0  0
  141.9878   70.8667  226.6102 H   0  0  0  0  0  0  0  0  0  0  0  0
  140.4236   71.7313  226.9948 H   0  0  0  0  0  0  0  0  0  0  0  0
  141.9508   69.9923  228.6368 H   0  0  0  0  0  0  0  0  0  0  0  0
  140.3701   70.8415  228.9622 H   0  0  0  0  0  0  0  0  0  0  0  0
  141.8004   68.1150  227.2783 H   0  0  0  0  0  0  0  0  0  0  0  0
  140.4346   67.0308  227.5834 H   0  0  0  0  0  0  0  0  0  0  0  0
  140.5410   68.0347  225.2201 H   0  0  0  0  0  0  0  0  0  0  0  0
  138.9914   68.3109  226.0942 H   0  0  0  0  0  0  0  0  0  0  0  0
  137.8313   69.6322  224.9525 H   0  0  0  0  0  0  0  0  0  0  0  0
  136.8875   70.8848  223.0168 H   0  0  0  0  0  0  0  0  0  0  0  0
  1  2  2  0
  2  3  1  0
  3  4  1  0
  4  5  1  0
  5  6  2  0
  6  7  1  0
  7  8  2  0
  8  9  1  0
  9 10  1  0
 10 11  2  0
 10 12  1  0
 12 13  1  0
 13 14  1  0
 14 15  1  0
 15 16  1  0
 16 17  1  0
  9 18  2  0
  4 19  2  0
 19 20  1  0
 20 21  2  0
 21 22  1  0
 22 23  1  0
 23 24  1  0
 24 25  1  0
 25 26  1  0
 26 27  1  0
 27 28  1  0
 22 29  2  0
 29 30  1  0
 30 31  2  0
 31  2  1  0
 18  5  1  0
 31 20  1  0
 17 12  1  0
 28 23  1  0
  3 32  1  0
  3 33  1  0
  6 34  1  0
  7 35  1  0
  8 36  1  0
 13 37  1  0
 13 38  1  0
 14 39  1  0
 14 40  1  0
 16 41  1  0
 16 42  1  0
 17 43  1  0
 17 44  1  0
 18 45  1  0
 21 46  1  0
 24 47  1  0
 24 48  1  0
 25 49  1  0
 25 50  1  0
 27 51  1  0
 27 52  1  0
 28 53  1  0
 28 54  1  0
 29 55  1  0
 30 56  1  0
M  END
>  <smiles>  (50) 
O=C1CC(c2cccc(C(=O)N3CCOCC3)c2)=Nc2cc(N3CCOCC3)ccc21

>  <score_type>  (50) 
oracle

>  <origin>  (50) 
autodockgpu

>  <m_score__min__energy>  (50) 
-8.6899999999999995

>  <m_primary>  (50) 
energy

>  <rmsd>  (50) 
7.343264733927834

>  <m_score__min__rmsd>  (50) 
7.343264733927834

>  <meeko>  (50) 
{"free_energy": -8.68, "intermolecular_energy": -9.57, "internal_energy": -0.91, "cluster_size": 48, "cluster_id": 1, "rank_in_cluster": 27}

>  <energy>  (50) 
-8.22

>  <cluster_rmsd>  (50) 
0.0

>  <cluster>  (50) 
3

$$$$
