
     RDKit          3D

 44 47  0  0  0  0  0  0  0  0999 V2000
  142.6780   74.8230  219.3220 O   0  0  0  0  0  0  0  0  0  0  0  0
  141.9310   74.5040  220.2840 C   0  0  0  0  0  0  0  0  0  0  0  0
  141.1830   75.5600  220.8190 C   0  0  0  0  0  0  0  0  0  0  0  0
  141.2840   76.8370  220.3090 C   0  0  0  0  0  0  0  0  0  0  0  0
  140.5390   77.8900  220.8420 C   0  0  0  0  0  0  0  0  0  0  0  0
  139.7010   77.6010  221.8980 C   0  0  0  0  0  0  0  0  0  0  0  0
  138.9740   78.6090  222.4260 F   0  0  0  0  0  0  0  0  0  0  0  0
  139.5700   76.3480  222.4370 C   0  0  0  0  0  0  0  0  0  0  0  0
  140.3270   75.3360  221.8770 C   0  0  0  0  0  0  0  0  0  0  0  0
  140.2630   74.0750  222.3370 N   0  0  0  0  0  0  0  0  0  0  0  0
  140.9970   73.0710  221.8020 C   0  0  0  0  0  0  0  0  0  0  0  0
  140.7890   71.7480  222.3920 C   0  0  0  0  0  0  0  0  0  0  0  0
  139.9430   71.6010  223.4000 C   0  0  0  0  0  0  0  0  0  0  0  0
  140.3340   71.0980  224.7130 C   0  0  0  0  0  0  0  0  0  0  0  0
  140.3220   69.7190  224.9680 C   0  0  0  0  0  0  0  0  0  0  0  0
  140.6730   69.1800  226.1640 C   0  0  0  0  0  0  0  0  0  0  0  0
  141.0650   70.0090  227.1960 C   0  0  0  0  0  0  0  0  0  0  0  0
  141.0910   71.3590  226.9900 C   0  0  0  0  0  0  0  0  0  0  0  0
  141.4900   72.1640  228.0490 O   0  0  0  0  0  0  0  0  0  0  0  0
  140.7270   71.8920  225.7550 C   0  0  0  0  0  0  0  0  0  0  0  0
  141.8440   73.2490  220.7730 N   0  0  0  0  0  0  0  0  0  0  0  0
  142.6580   72.1940  220.2110 C   0  0  0  0  0  0  0  0  0  0  0  0
  144.0580   72.6690  220.1010 C   0  0  0  0  0  0  0  0  0  0  0  0
  144.6930   73.2090  221.2260 C   0  0  0  0  0  0  0  0  0  0  0  0
  146.0050   73.6620  221.1670 C   0  0  0  0  0  0  0  0  0  0  0  0
  146.6890   73.5780  219.9790 C   0  0  0  0  0  0  0  0  0  0  0  0
  146.0980   73.0660  218.8940 N   0  0  0  0  0  0  0  0  0  0  0  0
  144.8180   72.6250  218.9590 C   0  0  0  0  0  0  0  0  0  0  0  0
  141.9644   77.0295  219.4664 H   0  0  0  0  0  0  0  0  0  0  0  0
  140.6173   78.9093  220.4360 H   0  0  0  0  0  0  0  0  0  0  0  0
  138.8906   76.1554  223.2804 H   0  0  0  0  0  0  0  0  0  0  0  0
  141.3344   70.8774  221.9989 H   0  0  0  0  0  0  0  0  0  0  0  0
  138.8892   71.8725  223.2391 H   0  0  0  0  0  0  0  0  0  0  0  0
  140.0130   69.0404  224.1593 H   0  0  0  0  0  0  0  0  0  0  0  0
  140.6452   68.0900  226.3096 H   0  0  0  0  0  0  0  0  0  0  0  0
  141.3525   69.5881  228.1708 H   0  0  0  0  0  0  0  0  0  0  0  0
  140.7810   72.6470  228.5890 H   0  0  0  0  0  0  0  0  0  0  0  0
  140.7566   72.9825  225.6141 H   0  0  0  0  0  0  0  0  0  0  0  0
  142.6190   71.3104  220.8650 H   0  0  0  0  0  0  0  0  0  0  0  0
  142.2786   71.9236  219.2145 H   0  0  0  0  0  0  0  0  0  0  0  0
  144.1419   73.2759  222.1757 H   0  0  0  0  0  0  0  0  0  0  0  0
  146.4898   74.0826  222.0604 H   0  0  0  0  0  0  0  0  0  0  0  0
  147.7282   73.9337  219.9196 H   0  0  0  0  0  0  0  0  0  0  0  0
  144.3638   72.2095  218.0474 H   0  0  0  0  0  0  0  0  0  0  0  0
  1  2  2  0
  2  3  1  0
  3  4  2  0
  4  5  1  0
  5  6  2  0
  6  7  1  0
  6  8  1  0
  8  9  2  0
  9 10  1  0
 10 11  2  0
 11 12  1  0
 12 13  2  0
 13 14  1  0
 14 15  2  0
 15 16  1  0
 16 17  2  0
 17 18  1  0
 18 19  1  0
 18 20  2  0
 11 21  1  0
 21 22  1  0
 22 23  1  0
 23 24  2  0
 24 25  1  0
 25 26  2  0
 26 27  1  0
 27 28  2  0
 21  2  1  0
 28 23  1  0
  9  3  1  0
 20 14  1  0
  4 29  1  0
  5 30  1  0
  8 31  1  0
 12 32  1  0
 13 33  1  0
 15 34  1  0
 16 35  1  0
 17 36  1  0
 19 37  1  0
 20 38  1  0
 22 39  1  0
 22 40  1  0
 24 41  1  0
 25 42  1  0
 26 43  1  0
 28 44  1  0
M  END
>  <smiles>  (1) 
O=c1c2ccc(F)cc2nc(/C=C/c2cccc(O)c2)n1Cc1cccnc1

>  <score_type>  (1) 
oracle

>  <origin>  (1) 
autodockgpu

>  <m_score__min__energy>  (1) 
-8.4100000000000001

>  <m_primary>  (1) 
energy

>  <rmsd>  (1) 
6.1181517903842435

>  <m_score__min__rmsd>  (1) 
6.1181517903842435

>  <meeko>  (1) 
{"free_energy": -8.08, "intermolecular_energy": -9.87, "internal_energy": -0.84, "cluster_size": 17, "cluster_id": 1, "rank_in_cluster": 7}

>  <energy>  (1) 
-8.41

>  <cluster_rmsd>  (1) 
0.0

>  <cluster>  (1) 
1

$$$$

     RDKit          3D

 44 47  0  0  0  0  0  0  0  0999 V2000
  142.6940   75.5470  219.2900 O   0  0  0  0  0  0  0  0  0  0  0  0
  141.9160   75.2920  220.2460 C   0  0  0  0  0  0  0  0  0  0  0  0
  141.4500   76.4180  220.9370 C   0  0  0  0  0  0  0  0  0  0  0  0
  141.8370   77.6900  220.5730 C   0  0  0  0  0  0  0  0  0  0  0  0
  141.3730   78.8120  221.2610 C   0  0  0  0  0  0  0  0  0  0  0  0
  140.5150   78.5950  222.3190 C   0  0  0  0  0  0  0  0  0  0  0  0
  140.0570   79.6710  222.9960 F   0  0  0  0  0  0  0  0  0  0  0  0
  140.1040   77.3500  222.7150 C   0  0  0  0  0  0  0  0  0  0  0  0
  140.5890   76.2680  222.0040 C   0  0  0  0  0  0  0  0  0  0  0  0
  140.2410   75.0090  222.3190 N   0  0  0  0  0  0  0  0  0  0  0  0
  140.7040   73.9370  221.6340 C   0  0  0  0  0  0  0  0  0  0  0  0
  140.2050   72.6350  222.0780 C   0  0  0  0  0  0  0  0  0  0  0  0
  140.9870   71.8350  222.7860 C   0  0  0  0  0  0  0  0  0  0  0  0
  140.5510   71.1520  224.0000 C   0  0  0  0  0  0  0  0  0  0  0  0
  140.8080   71.7200  225.2560 C   0  0  0  0  0  0  0  0  0  0  0  0
  140.4320   71.1420  226.4260 C   0  0  0  0  0  0  0  0  0  0  0  0
  139.7630   69.9350  226.4060 C   0  0  0  0  0  0  0  0  0  0  0  0
  139.4920   69.3470  225.2030 C   0  0  0  0  0  0  0  0  0  0  0  0
  138.8170   68.1330  225.2180 O   0  0  0  0  0  0  0  0  0  0  0  0
  139.8870   69.9570  224.0130 C   0  0  0  0  0  0  0  0  0  0  0  0
  141.5460   74.0400  220.5910 N   0  0  0  0  0  0  0  0  0  0  0  0
  142.0760   72.9050  219.8700 C   0  0  0  0  0  0  0  0  0  0  0  0
  143.5570   72.9430  219.9250 C   0  0  0  0  0  0  0  0  0  0  0  0
  144.1930   73.3430  221.1060 C   0  0  0  0  0  0  0  0  0  0  0  0
  145.5780   73.3890  221.2000 C   0  0  0  0  0  0  0  0  0  0  0  0
  146.3350   73.0380  220.1100 C   0  0  0  0  0  0  0  0  0  0  0  0
  145.7450   72.6540  218.9720 N   0  0  0  0  0  0  0  0  0  0  0  0
  144.3930   72.6100  218.8880 C   0  0  0  0  0  0  0  0  0  0  0  0
  142.5243   77.8231  219.7245 H   0  0  0  0  0  0  0  0  0  0  0  0
  141.6790   79.8281  220.9714 H   0  0  0  0  0  0  0  0  0  0  0  0
  139.4167   77.2165  223.5634 H   0  0  0  0  0  0  0  0  0  0  0  0
  139.1817   72.3214  221.8239 H   0  0  0  0  0  0  0  0  0  0  0  0
  142.0195   71.6767  222.4412 H   0  0  0  0  0  0  0  0  0  0  0  0
  141.3407   72.6816  225.2956 H   0  0  0  0  0  0  0  0  0  0  0  0
  140.6593   71.6329  227.3838 H   0  0  0  0  0  0  0  0  0  0  0  0
  139.4525   69.4535  227.3450 H   0  0  0  0  0  0  0  0  0  0  0  0
  137.8910   68.0940  225.6280 H   0  0  0  0  0  0  0  0  0  0  0  0
  139.6578   69.4626  223.0574 H   0  0  0  0  0  0  0  0  0  0  0  0
  141.7142   71.9742  220.3312 H   0  0  0  0  0  0  0  0  0  0  0  0
  141.7433   72.9437  218.8222 H   0  0  0  0  0  0  0  0  0  0  0  0
  143.5838   73.6265  221.9769 H   0  0  0  0  0  0  0  0  0  0  0  0
  146.0623   73.7029  222.1364 H   0  0  0  0  0  0  0  0  0  0  0  0
  147.4327   73.0726  220.1724 H   0  0  0  0  0  0  0  0  0  0  0  0
  143.9410   72.2902  217.9375 H   0  0  0  0  0  0  0  0  0  0  0  0
  1  2  2  0
  2  3  1  0
  3  4  2  0
  4  5  1  0
  5  6  2  0
  6  7  1  0
  6  8  1  0
  8  9  2  0
  9 10  1  0
 10 11  2  0
 11 12  1  0
 12 13  2  0
 13 14  1  0
 14 15  2  0
 15 16  1  0
 16 17  2  0
 17 18  1  0
 18 19  1  0
 18 20  2  0
 11 21  1  0
 21 22  1  0
 22 23  1  0
 23 24  2  0
 24 25  1  0
 25 26  2  0
 26 27  1  0
 27 28  2  0
 21  2  1  0
 28 23  1  0
  9  3  1  0
 20 14  1  0
  4 29  1  0
  5 30  1  0
  8 31  1  0
 12 32  1  0
 13 33  1  0
 15 34  1  0
 16 35  1  0
 17 36  1  0
 19 37  1  0
 20 38  1  0
 22 39  1  0
 22 40  1  0
 24 41  1  0
 25 42  1  0
 26 43  1  0
 28 44  1  0
M  END
>  <smiles>  (2) 
O=c1c2ccc(F)cc2nc(/C=C/c2cccc(O)c2)n1Cc1cccnc1

>  <score_type>  (2) 
oracle

>  <origin>  (2) 
autodockgpu

>  <m_score__min__energy>  (2) 
-8.4100000000000001

>  <m_primary>  (2) 
energy

>  <rmsd>  (2) 
5.616813581937237

>  <m_score__min__rmsd>  (2) 
5.616813581937237

>  <meeko>  (2) 
{"free_energy": -7.52, "intermolecular_energy": -9.31, "internal_energy": -0.97, "cluster_size": 17, "cluster_id": 1, "rank_in_cluster": 15}

>  <energy>  (2) 
-8.36

>  <cluster_rmsd>  (2) 
0.2

>  <cluster>  (2) 
1

$$$$

     RDKit          3D

 44 47  0  0  0  0  0  0  0  0999 V2000
  142.3770   75.2230  219.1480 O   0  0  0  0  0  0  0  0  0  0  0  0
  141.7600   74.7880  220.1550 C   0  0  0  0  0  0  0  0  0  0  0  0
  141.0470   75.7600  220.8690 C   0  0  0  0  0  0  0  0  0  0  0  0
  141.0470   77.0800  220.4720 C   0  0  0  0  0  0  0  0  0  0  0  0
  140.3380   78.0490  221.1840 C   0  0  0  0  0  0  0  0  0  0  0  0
  139.6400   77.6320  222.2970 C   0  0  0  0  0  0  0  0  0  0  0  0
  138.9490   78.5580  222.9970 F   0  0  0  0  0  0  0  0  0  0  0  0
  139.6120   76.3310  222.7280 C   0  0  0  0  0  0  0  0  0  0  0  0
  140.3290   75.4060  221.9920 C   0  0  0  0  0  0  0  0  0  0  0  0
  140.3600   74.1080  222.3370 N   0  0  0  0  0  0  0  0  0  0  0  0
  141.0560   73.1870  221.6300 C   0  0  0  0  0  0  0  0  0  0  0  0
  140.9610   71.8100  222.1130 C   0  0  0  0  0  0  0  0  0  0  0  0
  139.9540   71.4540  222.8970 C   0  0  0  0  0  0  0  0  0  0  0  0
  140.1180   71.0860  224.3000 C   0  0  0  0  0  0  0  0  0  0  0  0
  139.6630   69.8410  224.7570 C   0  0  0  0  0  0  0  0  0  0  0  0
  139.7820   69.4310  226.0460 C   0  0  0  0  0  0  0  0  0  0  0  0
  140.3760   70.2640  226.9730 C   0  0  0  0  0  0  0  0  0  0  0  0
  140.8330   71.4870  226.5710 C   0  0  0  0  0  0  0  0  0  0  0  0
  141.4250   72.3000  227.5280 O   0  0  0  0  0  0  0  0  0  0  0  0
  140.7010   71.8880  225.2420 C   0  0  0  0  0  0  0  0  0  0  0  0
  141.7700   73.4910  220.5310 N   0  0  0  0  0  0  0  0  0  0  0  0
  142.5440   72.5260  219.7830 C   0  0  0  0  0  0  0  0  0  0  0  0
  143.9830   72.8590  219.9060 C   0  0  0  0  0  0  0  0  0  0  0  0
  144.4700   73.3820  221.1100 C   0  0  0  0  0  0  0  0  0  0  0  0
  145.8120   73.7040  221.2670 C   0  0  0  0  0  0  0  0  0  0  0  0
  146.6750   73.5070  220.2170 C   0  0  0  0  0  0  0  0  0  0  0  0
  146.2280   73.0100  219.0590 N   0  0  0  0  0  0  0  0  0  0  0  0
  144.9170   72.6970  218.9130 C   0  0  0  0  0  0  0  0  0  0  0  0
  141.6159   77.3751  219.5780 H   0  0  0  0  0  0  0  0  0  0  0  0
  140.3364   79.1031  220.8695 H   0  0  0  0  0  0  0  0  0  0  0  0
  139.0430   76.0354  223.6218 H   0  0  0  0  0  0  0  0  0  0  0  0
  141.7239   71.0714  221.8261 H   0  0  0  0  0  0  0  0  0  0  0  0
  138.9412   71.4348  222.4681 H   0  0  0  0  0  0  0  0  0  0  0  0
  139.1856   69.1622  224.0350 H   0  0  0  0  0  0  0  0  0  0  0  0
  139.4078   68.4421  226.3495 H   0  0  0  0  0  0  0  0  0  0  0  0
  140.4799   69.9472  228.0212 H   0  0  0  0  0  0  0  0  0  0  0  0
  140.8390   72.9320  228.0620 H   0  0  0  0  0  0  0  0  0  0  0  0
  141.0765   72.8777  224.9427 H   0  0  0  0  0  0  0  0  0  0  0  0
  142.3635   71.5180  220.1846 H   0  0  0  0  0  0  0  0  0  0  0  0
  142.2465   72.5525  218.7243 H   0  0  0  0  0  0  0  0  0  0  0  0
  143.7759   73.5411  221.9484 H   0  0  0  0  0  0  0  0  0  0  0  0
  146.1790   74.1117  222.2205 H   0  0  0  0  0  0  0  0  0  0  0  0
  147.7397   73.7595  220.3293 H   0  0  0  0  0  0  0  0  0  0  0  0
  144.5836   72.2912  217.9465 H   0  0  0  0  0  0  0  0  0  0  0  0
  1  2  2  0
  2  3  1  0
  3  4  2  0
  4  5  1  0
  5  6  2  0
  6  7  1  0
  6  8  1  0
  8  9  2  0
  9 10  1  0
 10 11  2  0
 11 12  1  0
 12 13  2  0
 13 14  1  0
 14 15  2  0
 15 16  1  0
 16 17  2  0
 17 18  1  0
 18 19  1  0
 18 20  2  0
 11 21  1  0
 21 22  1  0
 22 23  1  0
 23 24  2  0
 24 25  1  0
 25 26  2  0
 26 27  1  0
 27 28  2  0
 21  2  1  0
 28 23  1  0
  9  3  1  0
 20 14  1  0
  4 29  1  0
  5 30  1  0
  8 31  1  0
 12 32  1  0
 13 33  1  0
 15 34  1  0
 16 35  1  0
 17 36  1  0
 19 37  1  0
 20 38  1  0
 22 39  1  0
 22 40  1  0
 24 41  1  0
 25 42  1  0
 26 43  1  0
 28 44  1  0
M  END
>  <smiles>  (3) 
O=c1c2ccc(F)cc2nc(/C=C/c2cccc(O)c2)n1Cc1cccnc1

>  <score_type>  (3) 
oracle

>  <origin>  (3) 
autodockgpu

>  <m_score__min__energy>  (3) 
-8.4100000000000001

>  <m_primary>  (3) 
energy

>  <rmsd>  (3) 
6.023618056239889

>  <m_score__min__rmsd>  (3) 
6.023618056239889

>  <meeko>  (3) 
{"free_energy": -7.68, "intermolecular_energy": -9.47, "internal_energy": -1.01, "cluster_size": 17, "cluster_id": 1, "rank_in_cluster": 10}

>  <energy>  (3) 
-8.3

>  <cluster_rmsd>  (3) 
0.22

>  <cluster>  (3) 
1

$$$$

     RDKit          3D

 44 47  0  0  0  0  0  0  0  0999 V2000
  136.8720   71.7250  220.7660 O   0  0  0  0  0  0  0  0  0  0  0  0
  137.8720   72.1400  221.4080 C   0  0  0  0  0  0  0  0  0  0  0  0
  138.0680   73.5250  221.3520 C   0  0  0  0  0  0  0  0  0  0  0  0
  137.2150   74.3390  220.6380 C   0  0  0  0  0  0  0  0  0  0  0  0
  137.4100   75.7200  220.5820 C   0  0  0  0  0  0  0  0  0  0  0  0
  138.4900   76.2350  221.2680 C   0  0  0  0  0  0  0  0  0  0  0  0
  138.6930   77.5690  221.2240 F   0  0  0  0  0  0  0  0  0  0  0  0
  139.3630   75.4640  221.9900 C   0  0  0  0  0  0  0  0  0  0  0  0
  139.1300   74.1020  222.0170 C   0  0  0  0  0  0  0  0  0  0  0  0
  139.9320   73.2670  222.6990 N   0  0  0  0  0  0  0  0  0  0  0  0
  139.7210   71.9310  222.7380 C   0  0  0  0  0  0  0  0  0  0  0  0
  140.6620   71.1620  223.5530 C   0  0  0  0  0  0  0  0  0  0  0  0
  140.7750   71.4180  224.8470 C   0  0  0  0  0  0  0  0  0  0  0  0
  140.3830   70.4760  225.8920 C   0  0  0  0  0  0  0  0  0  0  0  0
  140.4030   70.8710  227.2370 C   0  0  0  0  0  0  0  0  0  0  0  0
  140.0510   70.0500  228.2600 C   0  0  0  0  0  0  0  0  0  0  0  0
  139.6500   68.7570  227.9890 C   0  0  0  0  0  0  0  0  0  0  0  0
  139.6160   68.3310  226.6910 C   0  0  0  0  0  0  0  0  0  0  0  0
  139.2080   67.0250  226.4530 O   0  0  0  0  0  0  0  0  0  0  0  0
  139.9810   69.1900  225.6560 C   0  0  0  0  0  0  0  0  0  0  0  0
  138.6990   71.3300  222.1020 N   0  0  0  0  0  0  0  0  0  0  0  0
  138.4770   69.9010  222.1070 C   0  0  0  0  0  0  0  0  0  0  0  0
  137.3140   69.5940  222.9740 C   0  0  0  0  0  0  0  0  0  0  0  0
  137.1650   70.2680  224.1920 C   0  0  0  0  0  0  0  0  0  0  0  0
  136.0880   70.0120  225.0310 C   0  0  0  0  0  0  0  0  0  0  0  0
  135.1550   69.0770  224.6560 C   0  0  0  0  0  0  0  0  0  0  0  0
  135.2810   68.4230  223.4970 N   0  0  0  0  0  0  0  0  0  0  0  0
  136.3340   68.6780  222.6820 C   0  0  0  0  0  0  0  0  0  0  0  0
  136.3646   73.8919  220.1023 H   0  0  0  0  0  0  0  0  0  0  0  0
  136.7297   76.3713  220.0137 H   0  0  0  0  0  0  0  0  0  0  0  0
  140.2137   75.9105  222.5257 H   0  0  0  0  0  0  0  0  0  0  0  0
  141.2741   70.3730  223.0916 H   0  0  0  0  0  0  0  0  0  0  0  0
  141.1860   72.3919  225.1513 H   0  0  0  0  0  0  0  0  0  0  0  0
  140.7196   71.8971  227.4756 H   0  0  0  0  0  0  0  0  0  0  0  0
  140.0852   70.4129  229.2978 H   0  0  0  0  0  0  0  0  0  0  0  0
  139.3620   68.0794  228.8062 H   0  0  0  0  0  0  0  0  0  0  0  0
  139.4770   66.3020  227.1110 H   0  0  0  0  0  0  0  0  0  0  0  0
  139.9448   68.8233  224.6196 H   0  0  0  0  0  0  0  0  0  0  0  0
  138.2739   69.5562  221.0824 H   0  0  0  0  0  0  0  0  0  0  0  0
  139.3712   69.3883  222.4910 H   0  0  0  0  0  0  0  0  0  0  0  0
  137.9154   71.0149  224.4904 H   0  0  0  0  0  0  0  0  0  0  0  0
  135.9838   70.5516  225.9839 H   0  0  0  0  0  0  0  0  0  0  0  0
  134.2988   68.8649  225.3132 H   0  0  0  0  0  0  0  0  0  0  0  0
  136.4070   68.1212  221.7362 H   0  0  0  0  0  0  0  0  0  0  0  0
  1  2  2  0
  2  3  1  0
  3  4  2  0
  4  5  1  0
  5  6  2  0
  6  7  1  0
  6  8  1  0
  8  9  2  0
  9 10  1  0
 10 11  2  0
 11 12  1  0
 12 13  2  0
 13 14  1  0
 14 15  2  0
 15 16  1  0
 16 17  2  0
 17 18  1  0
 18 19  1  0
 18 20  2  0
 11 21  1  0
 21 22  1  0
 22 23  1  0
 23 24  2  0
 24 25  1  0
 25 26  2  0
 26 27  1  0
 27 28  2  0
 21  2  1  0
 28 23  1  0
  9  3  1  0
 20 14  1  0
  4 29  1  0
  5 30  1  0
  8 31  1  0
 12 32  1  0
 13 33  1  0
 15 34  1  0
 16 35  1  0
 17 36  1  0
 19 37  1  0
 20 38  1  0
 22 39  1  0
 22 40  1  0
 24 41  1  0
 25 42  1  0
 26 43  1  0
 28 44  1  0
M  END
>  <smiles>  (4) 
O=c1c2ccc(F)cc2nc(/C=C/c2cccc(O)c2)n1Cc1cccnc1

>  <score_type>  (4) 
oracle

>  <origin>  (4) 
autodockgpu

>  <m_score__min__energy>  (4) 
-8.4100000000000001

>  <m_primary>  (4) 
energy

>  <rmsd>  (4) 
8.433645685991335

>  <m_score__min__rmsd>  (4) 
8.433645685991335

>  <meeko>  (4) 
{"free_energy": -6.73, "intermolecular_energy": -8.52, "internal_energy": -1.54, "cluster_size": 1, "cluster_id": 7, "rank_in_cluster": 1}

>  <energy>  (4) 
-8.26

>  <cluster_rmsd>  (4) 
0.25

>  <cluster>  (4) 
1

$$$$

     RDKit          3D

 44 47  0  0  0  0  0  0  0  0999 V2000
  138.1740   76.8070  221.9360 O   0  0  0  0  0  0  0  0  0  0  0  0
  138.8220   77.7120  222.5230 C   0  0  0  0  0  0  0  0  0  0  0  0
  138.0330   78.7140  223.1010 C   0  0  0  0  0  0  0  0  0  0  0  0
  136.6580   78.6810  223.0110 C   0  0  0  0  0  0  0  0  0  0  0  0
  135.8710   79.6800  223.5860 C   0  0  0  0  0  0  0  0  0  0  0  0
  136.5250   80.7000  224.2460 C   0  0  0  0  0  0  0  0  0  0  0  0
  135.7780   81.6740  224.8080 F   0  0  0  0  0  0  0  0  0  0  0  0
  137.8880   80.7730  224.3600 C   0  0  0  0  0  0  0  0  0  0  0  0
  138.6270   79.7620  223.7750 C   0  0  0  0  0  0  0  0  0  0  0  0
  139.9690   79.7480  223.8350 N   0  0  0  0  0  0  0  0  0  0  0  0
  140.7100   78.7670  223.2690 C   0  0  0  0  0  0  0  0  0  0  0  0
  142.1570   78.8770  223.4530 C   0  0  0  0  0  0  0  0  0  0  0  0
  142.8380   79.7970  222.7870 C   0  0  0  0  0  0  0  0  0  0  0  0
  142.2270   80.7160  221.8320 C   0  0  0  0  0  0  0  0  0  0  0  0
  141.6320   81.9030  222.2820 C   0  0  0  0  0  0  0  0  0  0  0  0
  141.0460   82.8040  221.4520 C   0  0  0  0  0  0  0  0  0  0  0  0
  141.0220   82.5630  220.0930 C   0  0  0  0  0  0  0  0  0  0  0  0
  141.5910   81.4180  219.6120 C   0  0  0  0  0  0  0  0  0  0  0  0
  141.5490   81.2070  218.2400 O   0  0  0  0  0  0  0  0  0  0  0  0
  142.1870   80.5070  220.4810 C   0  0  0  0  0  0  0  0  0  0  0  0
  140.1700   77.7310  222.6020 N   0  0  0  0  0  0  0  0  0  0  0  0
  140.9470   76.6930  221.9640 C   0  0  0  0  0  0  0  0  0  0  0  0
  141.3170   77.1330  220.5980 C   0  0  0  0  0  0  0  0  0  0  0  0
  142.5710   76.7900  220.0780 C   0  0  0  0  0  0  0  0  0  0  0  0
  142.9540   77.1810  218.8020 C   0  0  0  0  0  0  0  0  0  0  0  0
  142.0850   77.9200  218.0380 C   0  0  0  0  0  0  0  0  0  0  0  0
  140.8830   78.2580  218.5180 N   0  0  0  0  0  0  0  0  0  0  0  0
  140.5150   77.8730  219.7640 C   0  0  0  0  0  0  0  0  0  0  0  0
  136.1719   77.8519  222.4760 H   0  0  0  0  0  0  0  0  0  0  0  0
  134.7735   79.6552  223.5158 H   0  0  0  0  0  0  0  0  0  0  0  0
  138.3744   81.6020  224.8950 H   0  0  0  0  0  0  0  0  0  0  0  0
  142.6782   78.1971  224.1430 H   0  0  0  0  0  0  0  0  0  0  0  0
  143.9212   79.8725  222.9629 H   0  0  0  0  0  0  0  0  0  0  0  0
  141.6402   82.1151  223.3613 H   0  0  0  0  0  0  0  0  0  0  0  0
  140.5934   83.7198  221.8599 H   0  0  0  0  0  0  0  0  0  0  0  0
  140.5514   83.2828  219.4071 H   0  0  0  0  0  0  0  0  0  0  0  0
  141.2880   80.2900  217.8950 H   0  0  0  0  0  0  0  0  0  0  0  0
  142.6387   79.5927  220.0686 H   0  0  0  0  0  0  0  0  0  0  0  0
  141.8588   76.5033  222.5493 H   0  0  0  0  0  0  0  0  0  0  0  0
  140.3536   75.7685  221.9071 H   0  0  0  0  0  0  0  0  0  0  0  0
  143.2663   76.1992  220.6924 H   0  0  0  0  0  0  0  0  0  0  0  0
  143.9423   76.9019  218.4077 H   0  0  0  0  0  0  0  0  0  0  0  0
  142.3787   78.2357  217.0260 H   0  0  0  0  0  0  0  0  0  0  0  0
  139.5199   78.1692  220.1273 H   0  0  0  0  0  0  0  0  0  0  0  0
  1  2  2  0
  2  3  1  0
  3  4  2  0
  4  5  1  0
  5  6  2  0
  6  7  1  0
  6  8  1  0
  8  9  2  0
  9 10  1  0
 10 11  2  0
 11 12  1  0
 12 13  2  0
 13 14  1  0
 14 15  2  0
 15 16  1  0
 16 17  2  0
 17 18  1  0
 18 19  1  0
 18 20  2  0
 11 21  1  0
 21 22  1  0
 22 23  1  0
 23 24  2  0
 24 25  1  0
 25 26  2  0
 26 27  1  0
 27 28  2  0
 21  2  1  0
 28 23  1  0
  9  3  1  0
 20 14  1  0
  4 29  1  0
  5 30  1  0
  8 31  1  0
 12 32  1  0
 13 33  1  0
 15 34  1  0
 16 35  1  0
 17 36  1  0
 19 37  1  0
 20 38  1  0
 22 39  1  0
 22 40  1  0
 24 41  1  0
 25 42  1  0
 26 43  1  0
 28 44  1  0
M  END
>  <smiles>  (5) 
O=c1c2ccc(F)cc2nc(/C=C/c2cccc(O)c2)n1Cc1cccnc1

>  <score_type>  (5) 
oracle

>  <origin>  (5) 
autodockgpu

>  <m_score__min__energy>  (5) 
-8.4100000000000001

>  <m_primary>  (5) 
energy

>  <rmsd>  (5) 
4.239661386664572

>  <m_score__min__rmsd>  (5) 
4.239661386664572

>  <meeko>  (5) 
{"free_energy": -5.51, "intermolecular_energy": -7.3, "internal_energy": -2.64, "cluster_size": 3, "cluster_id": 10, "rank_in_cluster": 3}

>  <energy>  (5) 
-8.23

>  <cluster_rmsd>  (5) 
0.7

>  <cluster>  (5) 
1

$$$$

     RDKit          3D

 44 47  0  0  0  0  0  0  0  0999 V2000
  139.1930   67.7470  225.3540 O   0  0  0  0  0  0  0  0  0  0  0  0
  139.5110   68.9230  225.0360 C   0  0  0  0  0  0  0  0  0  0  0  0
  140.1010   69.6670  226.0650 C   0  0  0  0  0  0  0  0  0  0  0  0
  140.2990   69.1230  227.3170 C   0  0  0  0  0  0  0  0  0  0  0  0
  140.8860   69.8650  228.3430 C   0  0  0  0  0  0  0  0  0  0  0  0
  141.2590   71.1610  228.0540 C   0  0  0  0  0  0  0  0  0  0  0  0
  141.8280   71.8920  229.0370 F   0  0  0  0  0  0  0  0  0  0  0  0
  141.0810   71.7420  226.8260 C   0  0  0  0  0  0  0  0  0  0  0  0
  140.4960   70.9690  225.8400 C   0  0  0  0  0  0  0  0  0  0  0  0
  140.2820   71.4530  224.6050 N   0  0  0  0  0  0  0  0  0  0  0  0
  139.7110   70.7130  223.6260 C   0  0  0  0  0  0  0  0  0  0  0  0
  139.5800   71.3710  222.3260 C   0  0  0  0  0  0  0  0  0  0  0  0
  140.3790   72.3790  222.0140 C   0  0  0  0  0  0  0  0  0  0  0  0
  139.9350   73.7680  221.9510 C   0  0  0  0  0  0  0  0  0  0  0  0
  138.5660   74.0700  221.9720 C   0  0  0  0  0  0  0  0  0  0  0  0
  138.0810   75.3370  221.9180 C   0  0  0  0  0  0  0  0  0  0  0  0
  138.9590   76.3990  221.8380 C   0  0  0  0  0  0  0  0  0  0  0  0
  140.3020   76.1500  221.8160 C   0  0  0  0  0  0  0  0  0  0  0  0
  141.1580   77.2420  221.7350 O   0  0  0  0  0  0  0  0  0  0  0  0
  140.7790   74.8420  221.8720 C   0  0  0  0  0  0  0  0  0  0  0  0
  139.3110   69.4410  223.8060 N   0  0  0  0  0  0  0  0  0  0  0  0
  138.6700   68.6480  222.7810 C   0  0  0  0  0  0  0  0  0  0  0  0
  137.2130   68.5930  223.0510 C   0  0  0  0  0  0  0  0  0  0  0  0
  136.6570   69.4450  224.0120 C   0  0  0  0  0  0  0  0  0  0  0  0
  135.2970   69.4280  224.2920 C   0  0  0  0  0  0  0  0  0  0  0  0
  134.4840   68.5540  223.6120 C   0  0  0  0  0  0  0  0  0  0  0  0
  134.9980   67.7310  222.6910 N   0  0  0  0  0  0  0  0  0  0  0  0
  136.3260   67.7540  222.4220 C   0  0  0  0  0  0  0  0  0  0  0  0
  139.9886   68.0856  227.5103 H   0  0  0  0  0  0  0  0  0  0  0  0
  141.0448   69.4334  229.3423 H   0  0  0  0  0  0  0  0  0  0  0  0
  141.3904   72.7797  226.6326 H   0  0  0  0  0  0  0  0  0  0  0  0
  138.8190   71.0287  221.6093 H   0  0  0  0  0  0  0  0  0  0  0  0
  141.4332   72.1583  221.7904 H   0  0  0  0  0  0  0  0  0  0  0  0
  137.8487   73.2385  222.0354 H   0  0  0  0  0  0  0  0  0  0  0  0
  136.9958   75.5159  221.9379 H   0  0  0  0  0  0  0  0  0  0  0  0
  138.5825   77.4316  221.7926 H   0  0  0  0  0  0  0  0  0  0  0  0
  142.1320   77.1180  221.9850 H   0  0  0  0  0  0  0  0  0  0  0  0
  141.8650   74.6679  221.8521 H   0  0  0  0  0  0  0  0  0  0  0  0
  138.8453   69.1068  221.7967 H   0  0  0  0  0  0  0  0  0  0  0  0
  139.0866   67.6299  222.7851 H   0  0  0  0  0  0  0  0  0  0  0  0
  137.3106   70.1423  224.5566 H   0  0  0  0  0  0  0  0  0  0  0  0
  134.8759   70.1060  225.0490 H   0  0  0  0  0  0  0  0  0  0  0  0
  133.4052   68.5308  223.8258 H   0  0  0  0  0  0  0  0  0  0  0  0
  136.7144   67.0636  221.6588 H   0  0  0  0  0  0  0  0  0  0  0  0
  1  2  2  0
  2  3  1  0
  3  4  2  0
  4  5  1  0
  5  6  2  0
  6  7  1  0
  6  8  1  0
  8  9  2  0
  9 10  1  0
 10 11  2  0
 11 12  1  0
 12 13  2  0
 13 14  1  0
 14 15  2  0
 15 16  1  0
 16 17  2  0
 17 18  1  0
 18 19  1  0
 18 20  2  0
 11 21  1  0
 21 22  1  0
 22 23  1  0
 23 24  2  0
 24 25  1  0
 25 26  2  0
 26 27  1  0
 27 28  2  0
 21  2  1  0
 28 23  1  0
  9  3  1  0
 20 14  1  0
  4 29  1  0
  5 30  1  0
  8 31  1  0
 12 32  1  0
 13 33  1  0
 15 34  1  0
 16 35  1  0
 17 36  1  0
 19 37  1  0
 20 38  1  0
 22 39  1  0
 22 40  1  0
 24 41  1  0
 25 42  1  0
 26 43  1  0
 28 44  1  0
M  END
>  <smiles>  (6) 
O=c1c2ccc(F)cc2nc(/C=C/c2cccc(O)c2)n1Cc1cccnc1

>  <score_type>  (6) 
oracle

>  <origin>  (6) 
autodockgpu

>  <m_score__min__energy>  (6) 
-8.4100000000000001

>  <m_primary>  (6) 
energy

>  <rmsd>  (6) 
11.595733281439161

>  <m_score__min__rmsd>  (6) 
11.595733281439161

>  <meeko>  (6) 
{"free_energy": -7.39, "intermolecular_energy": -9.18, "internal_energy": -1.03, "cluster_size": 2, "cluster_id": 4, "rank_in_cluster": 1}

>  <energy>  (6) 
-8.2

>  <cluster_rmsd>  (6) 
0.84

>  <cluster>  (6) 
1

$$$$

     RDKit          3D

 44 47  0  0  0  0  0  0  0  0999 V2000
  141.9960   71.8860  219.4930 O   0  0  0  0  0  0  0  0  0  0  0  0
  141.3740   72.6480  220.2780 C   0  0  0  0  0  0  0  0  0  0  0  0
  140.4930   71.9960  221.1500 C   0  0  0  0  0  0  0  0  0  0  0  0
  140.3420   70.6260  221.1200 C   0  0  0  0  0  0  0  0  0  0  0  0
  139.4640   69.9760  221.9890 C   0  0  0  0  0  0  0  0  0  0  0  0
  138.7550   70.7590  222.8750 C   0  0  0  0  0  0  0  0  0  0  0  0
  137.9010   70.1450  223.7220 F   0  0  0  0  0  0  0  0  0  0  0  0
  138.8740   72.1230  222.9400 C   0  0  0  0  0  0  0  0  0  0  0  0
  139.7550   72.7230  222.0610 C   0  0  0  0  0  0  0  0  0  0  0  0
  139.9390   74.0540  222.0520 N   0  0  0  0  0  0  0  0  0  0  0  0
  140.7970   74.6610  221.1990 C   0  0  0  0  0  0  0  0  0  0  0  0
  140.9110   76.1130  221.3370 C   0  0  0  0  0  0  0  0  0  0  0  0
  140.6450   76.6870  222.5000 C   0  0  0  0  0  0  0  0  0  0  0  0
  140.9500   78.0840  222.7970 C   0  0  0  0  0  0  0  0  0  0  0  0
  139.9210   78.9650  223.1590 C   0  0  0  0  0  0  0  0  0  0  0  0
  140.1300   80.2750  223.4480 C   0  0  0  0  0  0  0  0  0  0  0  0
  141.4090   80.7900  223.3910 C   0  0  0  0  0  0  0  0  0  0  0  0
  142.4410   79.9660  223.0420 C   0  0  0  0  0  0  0  0  0  0  0  0
  143.7150   80.5160  222.9930 O   0  0  0  0  0  0  0  0  0  0  0  0
  142.2050   78.6240  222.7480 C   0  0  0  0  0  0  0  0  0  0  0  0
  141.5330   73.9880  220.2960 N   0  0  0  0  0  0  0  0  0  0  0  0
  142.4300   74.6230  219.3570 C   0  0  0  0  0  0  0  0  0  0  0  0
  143.7930   74.0680  219.5370 C   0  0  0  0  0  0  0  0  0  0  0  0
  144.4010   74.1290  220.7970 C   0  0  0  0  0  0  0  0  0  0  0  0
  145.6750   73.6180  221.0090 C   0  0  0  0  0  0  0  0  0  0  0  0
  146.3500   73.0450  219.9590 C   0  0  0  0  0  0  0  0  0  0  0  0
  145.7860   72.9790  218.7490 N   0  0  0  0  0  0  0  0  0  0  0  0
  144.5420   73.4790  218.5490 C   0  0  0  0  0  0  0  0  0  0  0  0
  140.9240   70.0343  220.3981 H   0  0  0  0  0  0  0  0  0  0  0  0
  139.3427   68.8829  221.9677 H   0  0  0  0  0  0  0  0  0  0  0  0
  138.2923   72.7152  223.6618 H   0  0  0  0  0  0  0  0  0  0  0  0
  141.2169   76.7263  220.4766 H   0  0  0  0  0  0  0  0  0  0  0  0
  140.1692   76.0796  223.2840 H   0  0  0  0  0  0  0  0  0  0  0  0
  138.8936   78.5755  223.2114 H   0  0  0  0  0  0  0  0  0  0  0  0
  139.2849   80.9220  223.7259 H   0  0  0  0  0  0  0  0  0  0  0  0
  141.5948   81.8490  223.6233 H   0  0  0  0  0  0  0  0  0  0  0  0
  144.3980   80.1130  222.3610 H   0  0  0  0  0  0  0  0  0  0  0  0
  143.0527   77.9811  222.4686 H   0  0  0  0  0  0  0  0  0  0  0  0
  142.0860   74.4292  218.3303 H   0  0  0  0  0  0  0  0  0  0  0  0
  142.4453   75.7084  219.5350 H   0  0  0  0  0  0  0  0  0  0  0  0
  143.8589   74.5907  221.6354 H   0  0  0  0  0  0  0  0  0  0  0  0
  146.1377   73.6715  222.0055 H   0  0  0  0  0  0  0  0  0  0  0  0
  147.3601   72.6383  220.1147 H   0  0  0  0  0  0  0  0  0  0  0  0
  144.1093   73.4089  217.5401 H   0  0  0  0  0  0  0  0  0  0  0  0
  1  2  2  0
  2  3  1  0
  3  4  2  0
  4  5  1  0
  5  6  2  0
  6  7  1  0
  6  8  1  0
  8  9  2  0
  9 10  1  0
 10 11  2  0
 11 12  1  0
 12 13  2  0
 13 14  1  0
 14 15  2  0
 15 16  1  0
 16 17  2  0
 17 18  1  0
 18 19  1  0
 18 20  2  0
 11 21  1  0
 21 22  1  0
 22 23  1  0
 23 24  2  0
 24 25  1  0
 25 26  2  0
 26 27  1  0
 27 28  2  0
 21  2  1  0
 28 23  1  0
  9  3  1  0
 20 14  1  0
  4 29  1  0
  5 30  1  0
  8 31  1  0
 12 32  1  0
 13 33  1  0
 15 34  1  0
 16 35  1  0
 17 36  1  0
 19 37  1  0
 20 38  1  0
 22 39  1  0
 22 40  1  0
 24 41  1  0
 25 42  1  0
 26 43  1  0
 28 44  1  0
M  END
>  <smiles>  (7) 
O=c1c2ccc(F)cc2nc(/C=C/c2cccc(O)c2)n1Cc1cccnc1

>  <score_type>  (7) 
oracle

>  <origin>  (7) 
autodockgpu

>  <m_score__min__energy>  (7) 
-8.4100000000000001

>  <m_primary>  (7) 
energy

>  <rmsd>  (7) 
8.64807806355243

>  <m_score__min__rmsd>  (7) 
8.64807806355243

>  <meeko>  (7) 
{"free_energy": -7.32, "intermolecular_energy": -9.11, "internal_energy": -0.92, "cluster_size": 2, "cluster_id": 3, "rank_in_cluster": 2}

>  <energy>  (7) 
-8.08

>  <cluster_rmsd>  (7) 
1.77

>  <cluster>  (7) 
1

$$$$

     RDKit          3D

 44 47  0  0  0  0  0  0  0  0999 V2000
  142.6080   75.1380  219.2280 O   0  0  0  0  0  0  0  0  0  0  0  0
  141.9010   74.8010  220.2130 C   0  0  0  0  0  0  0  0  0  0  0  0
  141.2210   75.8570  220.8330 C   0  0  0  0  0  0  0  0  0  0  0  0
  141.3410   77.1510  220.3750 C   0  0  0  0  0  0  0  0  0  0  0  0
  140.6640   78.2030  220.9920 C   0  0  0  0  0  0  0  0  0  0  0  0
  139.8710   77.8950  222.0780 C   0  0  0  0  0  0  0  0  0  0  0  0
  139.2090   78.9020  222.6870 F   0  0  0  0  0  0  0  0  0  0  0  0
  139.7220   76.6240  222.5680 C   0  0  0  0  0  0  0  0  0  0  0  0
  140.4120   75.6140  221.9240 C   0  0  0  0  0  0  0  0  0  0  0  0
  140.3270   74.3370  222.3320 N   0  0  0  0  0  0  0  0  0  0  0  0
  140.9950   73.3330  221.7150 C   0  0  0  0  0  0  0  0  0  0  0  0
  140.7700   71.9930  222.2570 C   0  0  0  0  0  0  0  0  0  0  0  0
  139.8100   71.7940  223.1470 C   0  0  0  0  0  0  0  0  0  0  0  0
  139.9380   70.8810  224.2790 C   0  0  0  0  0  0  0  0  0  0  0  0
  140.5050   71.3290  225.4810 C   0  0  0  0  0  0  0  0  0  0  0  0
  140.6550   70.5370  226.5740 C   0  0  0  0  0  0  0  0  0  0  0  0
  140.2370   69.2230  226.5260 C   0  0  0  0  0  0  0  0  0  0  0  0
  139.6790   68.7450  225.3740 C   0  0  0  0  0  0  0  0  0  0  0  0
  139.2700   67.4180  225.3590 O   0  0  0  0  0  0  0  0  0  0  0  0
  139.5340   69.5750  224.2630 C   0  0  0  0  0  0  0  0  0  0  0  0
  141.7940   73.5290  220.6510 N   0  0  0  0  0  0  0  0  0  0  0  0
  142.5380   72.4740  220.0010 C   0  0  0  0  0  0  0  0  0  0  0  0
  143.9790   72.8240  220.0050 C   0  0  0  0  0  0  0  0  0  0  0  0
  144.5660   73.3140  221.1780 C   0  0  0  0  0  0  0  0  0  0  0  0
  145.9130   73.6510  221.2250 C   0  0  0  0  0  0  0  0  0  0  0  0
  146.6800   73.5000  220.0960 C   0  0  0  0  0  0  0  0  0  0  0  0
  146.1370   73.0340  218.9660 N   0  0  0  0  0  0  0  0  0  0  0  0
  144.8220   72.7070  218.9280 C   0  0  0  0  0  0  0  0  0  0  0  0
  141.9830   77.3584  219.5062 H   0  0  0  0  0  0  0  0  0  0  0  0
  140.7586   79.2365  220.6273 H   0  0  0  0  0  0  0  0  0  0  0  0
  139.0805   76.4162  223.4370 H   0  0  0  0  0  0  0  0  0  0  0  0
  141.3972   71.1522  221.9258 H   0  0  0  0  0  0  0  0  0  0  0  0
  138.8660   72.3458  223.0271 H   0  0  0  0  0  0  0  0  0  0  0  0
  140.8450   72.3734  225.5414 H   0  0  0  0  0  0  0  0  0  0  0  0
  141.1070   70.9407  227.4920 H   0  0  0  0  0  0  0  0  0  0  0  0
  140.3514   68.5692  227.4032 H   0  0  0  0  0  0  0  0  0  0  0  0
  139.6900   66.7850  224.6870 H   0  0  0  0  0  0  0  0  0  0  0  0
  139.0814   69.1672  223.3471 H   0  0  0  0  0  0  0  0  0  0  0  0
  142.3869   71.5287  220.5429 H   0  0  0  0  0  0  0  0  0  0  0  0
  142.1876   72.3571  218.9649 H   0  0  0  0  0  0  0  0  0  0  0  0
  143.9484   73.4345  222.0802 H   0  0  0  0  0  0  0  0  0  0  0  0
  146.3594   74.0338  222.1546 H   0  0  0  0  0  0  0  0  0  0  0  0
  147.7476   73.7639  220.1211 H   0  0  0  0  0  0  0  0  0  0  0  0
  144.4078   72.3271  217.9824 H   0  0  0  0  0  0  0  0  0  0  0  0
  1  2  2  0
  2  3  1  0
  3  4  2  0
  4  5  1  0
  5  6  2  0
  6  7  1  0
  6  8  1  0
  8  9  2  0
  9 10  1  0
 10 11  2  0
 11 12  1  0
 12 13  2  0
 13 14  1  0
 14 15  2  0
 15 16  1  0
 16 17  2  0
 17 18  1  0
 18 19  1  0
 18 20  2  0
 11 21  1  0
 21 22  1  0
 22 23  1  0
 23 24  2  0
 24 25  1  0
 25 26  2  0
 26 27  1  0
 27 28  2  0
 21  2  1  0
 28 23  1  0
  9  3  1  0
 20 14  1  0
  4 29  1  0
  5 30  1  0
  8 31  1  0
 12 32  1  0
 13 33  1  0
 15 34  1  0
 16 35  1  0
 17 36  1  0
 19 37  1  0
 20 38  1  0
 22 39  1  0
 22 40  1  0
 24 41  1  0
 25 42  1  0
 26 43  1  0
 28 44  1  0
M  END
>  <smiles>  (8) 
O=c1c2ccc(F)cc2nc(/C=C/c2cccc(O)c2)n1Cc1cccnc1

>  <score_type>  (8) 
oracle

>  <origin>  (8) 
autodockgpu

>  <m_score__min__energy>  (8) 
-8.4100000000000001

>  <m_primary>  (8) 
energy

>  <rmsd>  (8) 
5.969914862494288

>  <m_score__min__rmsd>  (8) 
5.969914862494288

>  <meeko>  (8) 
{"free_energy": -8.26, "intermolecular_energy": -10.05, "internal_energy": -0.9, "cluster_size": 17, "cluster_id": 1, "rank_in_cluster": 4}

>  <energy>  (8) 
-7.95

>  <cluster_rmsd>  (8) 
1.76

>  <cluster>  (8) 
1

$$$$

     RDKit          3D

 44 47  0  0  0  0  0  0  0  0999 V2000
  142.7100   76.4560  219.0150 O   0  0  0  0  0  0  0  0  0  0  0  0
  141.9800   75.9900  219.9280 C   0  0  0  0  0  0  0  0  0  0  0  0
  141.4750   76.9460  220.8180 C   0  0  0  0  0  0  0  0  0  0  0  0
  141.7770   78.2840  220.6770 C   0  0  0  0  0  0  0  0  0  0  0  0
  141.2750   79.2360  221.5640 C   0  0  0  0  0  0  0  0  0  0  0  0
  140.4660   78.7850  222.5860 C   0  0  0  0  0  0  0  0  0  0  0  0
  139.9720   79.6950  223.4530 F   0  0  0  0  0  0  0  0  0  0  0  0
  140.1400   77.4670  222.7650 C   0  0  0  0  0  0  0  0  0  0  0  0
  140.6600   76.5590  221.8610 C   0  0  0  0  0  0  0  0  0  0  0  0
  140.3950   75.2450  221.9560 N   0  0  0  0  0  0  0  0  0  0  0  0
  140.8950   74.3410  221.0820 C   0  0  0  0  0  0  0  0  0  0  0  0
  140.4840   72.9530  221.2990 C   0  0  0  0  0  0  0  0  0  0  0  0
  141.0340   72.2480  222.2760 C   0  0  0  0  0  0  0  0  0  0  0  0
  140.2610   71.4890  223.2540 C   0  0  0  0  0  0  0  0  0  0  0  0
  140.6810   71.4340  224.5910 C   0  0  0  0  0  0  0  0  0  0  0  0
  140.0130   70.7490  225.5540 C   0  0  0  0  0  0  0  0  0  0  0  0
  138.8590   70.0650  225.2280 C   0  0  0  0  0  0  0  0  0  0  0  0
  138.4130   70.0940  223.9370 C   0  0  0  0  0  0  0  0  0  0  0  0
  137.2490   69.3950  223.6420 O   0  0  0  0  0  0  0  0  0  0  0  0
  139.1150   70.8020  222.9630 C   0  0  0  0  0  0  0  0  0  0  0  0
  141.6940   74.6770  220.0540 N   0  0  0  0  0  0  0  0  0  0  0  0
  142.2610   73.7200  219.1300 C   0  0  0  0  0  0  0  0  0  0  0  0
  143.6840   73.4940  219.4810 C   0  0  0  0  0  0  0  0  0  0  0  0
  144.1010   73.6520  220.8080 C   0  0  0  0  0  0  0  0  0  0  0  0
  145.4240   73.4460  221.1790 C   0  0  0  0  0  0  0  0  0  0  0  0
  146.3390   73.0830  220.2210 C   0  0  0  0  0  0  0  0  0  0  0  0
  145.9590   72.9290  218.9480 N   0  0  0  0  0  0  0  0  0  0  0  0
  144.6660   73.1300  218.5930 C   0  0  0  0  0  0  0  0  0  0  0  0
  142.4260   78.6065  219.8495 H   0  0  0  0  0  0  0  0  0  0  0  0
  141.5147   80.3038  221.4530 H   0  0  0  0  0  0  0  0  0  0  0  0
  139.4918   77.1442  223.5930 H   0  0  0  0  0  0  0  0  0  0  0  0
  139.7202   72.4966  220.6522 H   0  0  0  0  0  0  0  0  0  0  0  0
  142.1311   72.2338  222.3545 H   0  0  0  0  0  0  0  0  0  0  0  0
  141.5975   71.9728  224.8734 H   0  0  0  0  0  0  0  0  0  0  0  0
  140.3889   70.7390  226.5877 H   0  0  0  0  0  0  0  0  0  0  0  0
  138.3065   69.5047  225.9967 H   0  0  0  0  0  0  0  0  0  0  0  0
  137.1900   68.8940  222.7630 H   0  0  0  0  0  0  0  0  0  0  0  0
  138.7362   70.8083  221.9303 H   0  0  0  0  0  0  0  0  0  0  0  0
  141.7093   72.7707  219.1976 H   0  0  0  0  0  0  0  0  0  0  0  0
  142.1887   74.1075  218.1030 H   0  0  0  0  0  0  0  0  0  0  0  0
  143.3664   73.9452  221.5724 H   0  0  0  0  0  0  0  0  0  0  0  0
  145.7347   73.5720  222.2266 H   0  0  0  0  0  0  0  0  0  0  0  0
  147.3896   72.9181  220.5022 H   0  0  0  0  0  0  0  0  0  0  0  0
  144.3889   72.9942  217.5372 H   0  0  0  0  0  0  0  0  0  0  0  0
  1  2  2  0
  2  3  1  0
  3  4  2  0
  4  5  1  0
  5  6  2  0
  6  7  1  0
  6  8  1  0
  8  9  2  0
  9 10  1  0
 10 11  2  0
 11 12  1  0
 12 13  2  0
 13 14  1  0
 14 15  2  0
 15 16  1  0
 16 17  2  0
 17 18  1  0
 18 19  1  0
 18 20  2  0
 11 21  1  0
 21 22  1  0
 22 23  1  0
 23 24  2  0
 24 25  1  0
 25 26  2  0
 26 27  1  0
 27 28  2  0
 21  2  1  0
 28 23  1  0
  9  3  1  0
 20 14  1  0
  4 29  1  0
  5 30  1  0
  8 31  1  0
 12 32  1  0
 13 33  1  0
 15 34  1  0
 16 35  1  0
 17 36  1  0
 19 37  1  0
 20 38  1  0
 22 39  1  0
 22 40  1  0
 24 41  1  0
 25 42  1  0
 26 43  1  0
 28 44  1  0
M  END
>  <smiles>  (9) 
O=c1c2ccc(F)cc2nc(/C=C/c2cccc(O)c2)n1Cc1cccnc1

>  <score_type>  (9) 
oracle

>  <origin>  (9) 
autodockgpu

>  <m_score__min__energy>  (9) 
-8.4100000000000001

>  <m_primary>  (9) 
energy

>  <rmsd>  (9) 
5.426217187242742

>  <m_score__min__rmsd>  (9) 
5.426217187242742

>  <meeko>  (9) 
{"free_energy": -7.03, "intermolecular_energy": -8.82, "internal_energy": -1.08, "cluster_size": 17, "cluster_id": 1, "rank_in_cluster": 17}

>  <energy>  (9) 
-7.76

>  <cluster_rmsd>  (9) 
1.15

>  <cluster>  (9) 
1

$$$$

     RDKit          3D

 44 47  0  0  0  0  0  0  0  0999 V2000
  142.8770   75.0040  219.4320 O   0  0  0  0  0  0  0  0  0  0  0  0
  142.0430   74.7130  220.3290 C   0  0  0  0  0  0  0  0  0  0  0  0
  141.3790   75.8110  220.8890 C   0  0  0  0  0  0  0  0  0  0  0  0
  141.6460   77.0970  220.4700 C   0  0  0  0  0  0  0  0  0  0  0  0
  140.9850   78.1910  221.0290 C   0  0  0  0  0  0  0  0  0  0  0  0
  140.0580   77.9340  222.0170 C   0  0  0  0  0  0  0  0  0  0  0  0
  139.4100   78.9830  222.5680 F   0  0  0  0  0  0  0  0  0  0  0  0
  139.7620   76.6740  222.4650 C   0  0  0  0  0  0  0  0  0  0  0  0
  140.4400   75.6200  221.8820 C   0  0  0  0  0  0  0  0  0  0  0  0
  140.2160   74.3490  222.2550 N   0  0  0  0  0  0  0  0  0  0  0  0
  140.8700   73.3040  221.6970 C   0  0  0  0  0  0  0  0  0  0  0  0
  140.4880   71.9790  222.1870 C   0  0  0  0  0  0  0  0  0  0  0  0
  139.7800   71.8680  223.3010 C   0  0  0  0  0  0  0  0  0  0  0  0
  140.0610   70.8790  224.3370 C   0  0  0  0  0  0  0  0  0  0  0  0
  140.8700   71.2190  225.4310 C   0  0  0  0  0  0  0  0  0  0  0  0
  141.1730   70.3520  226.4310 C   0  0  0  0  0  0  0  0  0  0  0  0
  140.6710   69.0670  226.3940 C   0  0  0  0  0  0  0  0  0  0  0  0
  139.8780   68.6940  225.3470 C   0  0  0  0  0  0  0  0  0  0  0  0
  139.3900   67.3940  225.3400 O   0  0  0  0  0  0  0  0  0  0  0  0
  139.5790   69.5990  224.3300 C   0  0  0  0  0  0  0  0  0  0  0  0
  141.7930   73.4480  220.7290 N   0  0  0  0  0  0  0  0  0  0  0  0
  142.5240   72.3460  220.1450 C   0  0  0  0  0  0  0  0  0  0  0  0
  143.9610   72.7030  220.0680 C   0  0  0  0  0  0  0  0  0  0  0  0
  144.6260   73.1410  221.2200 C   0  0  0  0  0  0  0  0  0  0  0  0
  145.9710   73.4820  221.1910 C   0  0  0  0  0  0  0  0  0  0  0  0
  146.6600   73.3890  220.0070 C   0  0  0  0  0  0  0  0  0  0  0  0
  146.0420   72.9740  218.8960 N   0  0  0  0  0  0  0  0  0  0  0  0
  144.7280   72.6420  218.9310 C   0  0  0  0  0  0  0  0  0  0  0  0
  142.3938   77.2635  219.6806 H   0  0  0  0  0  0  0  0  0  0  0  0
  141.1949   79.2178  220.6949 H   0  0  0  0  0  0  0  0  0  0  0  0
  139.0157   76.5078  223.2559 H   0  0  0  0  0  0  0  0  0  0  0  0
  140.7879   71.0779  221.6319 H   0  0  0  0  0  0  0  0  0  0  0  0
  138.9362   72.5571  223.4533 H   0  0  0  0  0  0  0  0  0  0  0  0
  141.2794   72.2387  225.4814 H   0  0  0  0  0  0  0  0  0  0  0  0
  141.8145   70.6718  227.2654 H   0  0  0  0  0  0  0  0  0  0  0  0
  140.9065   68.3531  227.1970 H   0  0  0  0  0  0  0  0  0  0  0  0
  139.9490   66.6650  224.9100 H   0  0  0  0  0  0  0  0  0  0  0  0
  138.9369   69.2745  223.4979 H   0  0  0  0  0  0  0  0  0  0  0  0
  142.4003   71.4495  220.7703 H   0  0  0  0  0  0  0  0  0  0  0  0
  142.1390   72.1397  219.1354 H   0  0  0  0  0  0  0  0  0  0  0  0
  144.0712   73.2163  222.1669 H   0  0  0  0  0  0  0  0  0  0  0  0
  146.4788   73.8226  222.1054 H   0  0  0  0  0  0  0  0  0  0  0  0
  147.7262   73.6573  219.9721 H   0  0  0  0  0  0  0  0  0  0  0  0
  144.2509   72.3058  217.9986 H   0  0  0  0  0  0  0  0  0  0  0  0
  1  2  2  0
  2  3  1  0
  3  4  2  0
  4  5  1  0
  5  6  2  0
  6  7  1  0
  6  8  1  0
  8  9  2  0
  9 10  1  0
 10 11  2  0
 11 12  1  0
 12 13  2  0
 13 14  1  0
 14 15  2  0
 15 16  1  0
 16 17  2  0
 17 18  1  0
 18 19  1  0
 18 20  2  0
 11 21  1  0
 21 22  1  0
 22 23  1  0
 23 24  2  0
 24 25  1  0
 25 26  2  0
 26 27  1  0
 27 28  2  0
 21  2  1  0
 28 23  1  0
  9  3  1  0
 20 14  1  0
  4 29  1  0
  5 30  1  0
  8 31  1  0
 12 32  1  0
 13 33  1  0
 15 34  1  0
 16 35  1  0
 17 36  1  0
 19 37  1  0
 20 38  1  0
 22 39  1  0
 22 40  1  0
 24 41  1  0
 25 42  1  0
 26 43  1  0
 28 44  1  0
M  END
>  <smiles>  (10) 
O=c1c2ccc(F)cc2nc(/C=C/c2cccc(O)c2)n1Cc1cccnc1

>  <score_type>  (10) 
oracle

>  <origin>  (10) 
autodockgpu

>  <m_score__min__energy>  (10) 
-8.4100000000000001

>  <m_primary>  (10) 
energy

>  <rmsd>  (10) 
6.011507111290041

>  <m_score__min__rmsd>  (10) 
6.011507111290041

>  <meeko>  (10) 
{"free_energy": -8.41, "intermolecular_energy": -10.2, "internal_energy": -0.74, "cluster_size": 17, "cluster_id": 1, "rank_in_cluster": 1}

>  <energy>  (10) 
-7.68

>  <cluster_rmsd>  (10) 
1.77

>  <cluster>  (10) 
1

$$$$

     RDKit          3D

 44 47  0  0  0  0  0  0  0  0999 V2000
  141.7570   74.5860  219.0350 O   0  0  0  0  0  0  0  0  0  0  0  0
  141.1930   74.2950  220.1220 C   0  0  0  0  0  0  0  0  0  0  0  0
  140.3920   75.3130  220.6560 C   0  0  0  0  0  0  0  0  0  0  0  0
  140.2590   76.5270  220.0160 C   0  0  0  0  0  0  0  0  0  0  0  0
  139.4630   77.5410  220.5490 C   0  0  0  0  0  0  0  0  0  0  0  0
  138.8160   77.2800  221.7380 C   0  0  0  0  0  0  0  0  0  0  0  0
  138.0420   78.2520  222.2670 F   0  0  0  0  0  0  0  0  0  0  0  0
  138.9200   76.0890  222.4090 C   0  0  0  0  0  0  0  0  0  0  0  0
  139.7200   75.1140  221.8440 C   0  0  0  0  0  0  0  0  0  0  0  0
  139.8810   73.9140  222.4280 N   0  0  0  0  0  0  0  0  0  0  0  0
  140.6590   72.9460  221.8910 C   0  0  0  0  0  0  0  0  0  0  0  0
  140.7040   71.6840  222.6290 C   0  0  0  0  0  0  0  0  0  0  0  0
  139.7630   71.4070  223.5190 C   0  0  0  0  0  0  0  0  0  0  0  0
  139.9850   70.5610  224.6870 C   0  0  0  0  0  0  0  0  0  0  0  0
  140.7540   71.0330  225.7600 C   0  0  0  0  0  0  0  0  0  0  0  0
  141.0010   70.3020  226.8780 C   0  0  0  0  0  0  0  0  0  0  0  0
  140.4800   69.0290  226.9890 C   0  0  0  0  0  0  0  0  0  0  0  0
  139.7250   68.5300  225.9660 C   0  0  0  0  0  0  0  0  0  0  0  0
  139.2160   67.2450  226.1090 O   0  0  0  0  0  0  0  0  0  0  0  0
  139.4830   69.2960  224.8270 C   0  0  0  0  0  0  0  0  0  0  0  0
  141.3330   73.1010  220.7370 N   0  0  0  0  0  0  0  0  0  0  0  0
  142.1940   72.0900  220.1660 C   0  0  0  0  0  0  0  0  0  0  0  0
  143.6030   72.5400  220.2640 C   0  0  0  0  0  0  0  0  0  0  0  0
  144.6220   71.7380  219.7360 C   0  0  0  0  0  0  0  0  0  0  0  0
  145.9540   72.1250  219.8050 C   0  0  0  0  0  0  0  0  0  0  0  0
  146.2750   73.3170  220.4060 C   0  0  0  0  0  0  0  0  0  0  0  0
  145.3150   74.0960  220.9170 N   0  0  0  0  0  0  0  0  0  0  0  0
  144.0170   73.7130  220.8450 C   0  0  0  0  0  0  0  0  0  0  0  0
  140.7901   76.6990  219.0682 H   0  0  0  0  0  0  0  0  0  0  0  0
  139.3558   78.5106  220.0406 H   0  0  0  0  0  0  0  0  0  0  0  0
  138.3892   75.9167  223.3569 H   0  0  0  0  0  0  0  0  0  0  0  0
  141.5174   70.9666  222.4453 H   0  0  0  0  0  0  0  0  0  0  0  0
  138.7617   71.8372  223.3698 H   0  0  0  0  0  0  0  0  0  0  0  0
  141.1785   72.0456  225.6933 H   0  0  0  0  0  0  0  0  0  0  0  0
  141.6126   70.7223  227.6900 H   0  0  0  0  0  0  0  0  0  0  0  0
  140.6700   68.4248  227.8884 H   0  0  0  0  0  0  0  0  0  0  0  0
  139.5840   66.6530  226.8460 H   0  0  0  0  0  0  0  0  0  0  0  0
  138.8710   68.8714  224.0176 H   0  0  0  0  0  0  0  0  0  0  0  0
  142.0697   71.1463  220.7173 H   0  0  0  0  0  0  0  0  0  0  0  0
  141.9287   71.9309  219.1104 H   0  0  0  0  0  0  0  0  0  0  0  0
  144.3624   70.7824  219.2570 H   0  0  0  0  0  0  0  0  0  0  0  0
  146.7424   71.4842  219.3832 H   0  0  0  0  0  0  0  0  0  0  0  0
  147.3268   73.6330  220.4676 H   0  0  0  0  0  0  0  0  0  0  0  0
  143.2538   74.3780  221.2754 H   0  0  0  0  0  0  0  0  0  0  0  0
  1  2  2  0
  2  3  1  0
  3  4  2  0
  4  5  1  0
  5  6  2  0
  6  7  1  0
  6  8  1  0
  8  9  2  0
  9 10  1  0
 10 11  2  0
 11 12  1  0
 12 13  2  0
 13 14  1  0
 14 15  2  0
 15 16  1  0
 16 17  2  0
 17 18  1  0
 18 19  1  0
 18 20  2  0
 11 21  1  0
 21 22  1  0
 22 23  1  0
 23 24  2  0
 24 25  1  0
 25 26  2  0
 26 27  1  0
 27 28  2  0
 21  2  1  0
 28 23  1  0
  9  3  1  0
 20 14  1  0
  4 29  1  0
  5 30  1  0
  8 31  1  0
 12 32  1  0
 13 33  1  0
 15 34  1  0
 16 35  1  0
 17 36  1  0
 19 37  1  0
 20 38  1  0
 22 39  1  0
 22 40  1  0
 24 41  1  0
 25 42  1  0
 26 43  1  0
 28 44  1  0
M  END
>  <smiles>  (11) 
O=c1c2ccc(F)cc2nc(/C=C/c2cccc(O)c2)n1Cc1cccnc1

>  <score_type>  (11) 
oracle

>  <origin>  (11) 
autodockgpu

>  <m_score__min__energy>  (11) 
-8.4100000000000001

>  <m_primary>  (11) 
energy

>  <rmsd>  (11) 
6.173792126823338

>  <m_score__min__rmsd>  (11) 
6.173792126823338

>  <meeko>  (11) 
{"free_energy": -7.6, "intermolecular_energy": -9.39, "internal_energy": -0.76, "cluster_size": 17, "cluster_id": 1, "rank_in_cluster": 12}

>  <energy>  (11) 
-7.61

>  <cluster_rmsd>  (11) 
1.23

>  <cluster>  (11) 
1

$$$$

     RDKit          3D

 44 47  0  0  0  0  0  0  0  0999 V2000
  142.6000   75.0030  219.2990 O   0  0  0  0  0  0  0  0  0  0  0  0
  141.8770   74.6340  220.2610 C   0  0  0  0  0  0  0  0  0  0  0  0
  141.1630   75.6650  220.8840 C   0  0  0  0  0  0  0  0  0  0  0  0
  141.2700   76.9700  220.4530 C   0  0  0  0  0  0  0  0  0  0  0  0
  140.5590   77.9980  221.0750 C   0  0  0  0  0  0  0  0  0  0  0  0
  139.7470   77.6550  222.1350 C   0  0  0  0  0  0  0  0  0  0  0  0
  139.0530   78.6380  222.7480 F   0  0  0  0  0  0  0  0  0  0  0  0
  139.6100   76.3720  222.5970 C   0  0  0  0  0  0  0  0  0  0  0  0
  140.3330   75.3870  221.9510 C   0  0  0  0  0  0  0  0  0  0  0  0
  140.2620   74.1000  222.3320 N   0  0  0  0  0  0  0  0  0  0  0  0
  140.9620   73.1220  221.7120 C   0  0  0  0  0  0  0  0  0  0  0  0
  140.7490   71.7670  222.2230 C   0  0  0  0  0  0  0  0  0  0  0  0
  139.8470   71.5530  223.1680 C   0  0  0  0  0  0  0  0  0  0  0  0
  140.1820   71.0760  224.5070 C   0  0  0  0  0  0  0  0  0  0  0  0
  139.9960   69.7260  224.8380 C   0  0  0  0  0  0  0  0  0  0  0  0
  140.2850   69.2130  226.0620 C   0  0  0  0  0  0  0  0  0  0  0  0
  140.7890   70.0400  227.0460 C   0  0  0  0  0  0  0  0  0  0  0  0
  140.9850   71.3620  226.7650 C   0  0  0  0  0  0  0  0  0  0  0  0
  141.4930   72.1660  227.7780 O   0  0  0  0  0  0  0  0  0  0  0  0
  140.6820   71.8690  225.5030 C   0  0  0  0  0  0  0  0  0  0  0  0
  141.7820   73.3520  220.6710 N   0  0  0  0  0  0  0  0  0  0  0  0
  142.5610   72.3230  220.0190 C   0  0  0  0  0  0  0  0  0  0  0  0
  143.9910   72.7160  220.0320 C   0  0  0  0  0  0  0  0  0  0  0  0
  144.5650   73.1890  221.2190 C   0  0  0  0  0  0  0  0  0  0  0  0
  145.9010   73.5640  221.2740 C   0  0  0  0  0  0  0  0  0  0  0  0
  146.6710   73.4710  220.1400 C   0  0  0  0  0  0  0  0  0  0  0  0
  146.1390   73.0220  218.9980 N   0  0  0  0  0  0  0  0  0  0  0  0
  144.8340   72.6570  218.9510 C   0  0  0  0  0  0  0  0  0  0  0  0
  141.9277   77.2057  219.6034 H   0  0  0  0  0  0  0  0  0  0  0  0
  140.6434   79.0401  220.7329 H   0  0  0  0  0  0  0  0  0  0  0  0
  138.9521   76.1360  223.4464 H   0  0  0  0  0  0  0  0  0  0  0  0
  141.3373   70.9282  221.8226 H   0  0  0  0  0  0  0  0  0  0  0  0
  138.7898   71.7445  222.9323 H   0  0  0  0  0  0  0  0  0  0  0  0
  139.5964   69.0492  224.0684 H   0  0  0  0  0  0  0  0  0  0  0  0
  140.1186   68.1454  226.2680 H   0  0  0  0  0  0  0  0  0  0  0  0
  141.0292   69.6398  228.0421 H   0  0  0  0  0  0  0  0  0  0  0  0
  141.1920   73.1330  227.8310 H   0  0  0  0  0  0  0  0  0  0  0  0
  140.8497   72.9374  225.3020 H   0  0  0  0  0  0  0  0  0  0  0  0
  142.4357   71.3707  220.5552 H   0  0  0  0  0  0  0  0  0  0  0  0
  142.2193   72.2014  218.9805 H   0  0  0  0  0  0  0  0  0  0  0  0
  143.9457   73.2649  222.1249 H   0  0  0  0  0  0  0  0  0  0  0  0
  146.3376   73.9312  222.2145 H   0  0  0  0  0  0  0  0  0  0  0  0
  147.7299   73.7672  220.1714 H   0  0  0  0  0  0  0  0  0  0  0  0
  144.4293   72.2940  217.9947 H   0  0  0  0  0  0  0  0  0  0  0  0
  1  2  2  0
  2  3  1  0
  3  4  2  0
  4  5  1  0
  5  6  2  0
  6  7  1  0
  6  8  1  0
  8  9  2  0
  9 10  1  0
 10 11  2  0
 11 12  1  0
 12 13  2  0
 13 14  1  0
 14 15  2  0
 15 16  1  0
 16 17  2  0
 17 18  1  0
 18 19  1  0
 18 20  2  0
 11 21  1  0
 21 22  1  0
 22 23  1  0
 23 24  2  0
 24 25  1  0
 25 26  2  0
 26 27  1  0
 27 28  2  0
 21  2  1  0
 28 23  1  0
  9  3  1  0
 20 14  1  0
  4 29  1  0
  5 30  1  0
  8 31  1  0
 12 32  1  0
 13 33  1  0
 15 34  1  0
 16 35  1  0
 17 36  1  0
 19 37  1  0
 20 38  1  0
 22 39  1  0
 22 40  1  0
 24 41  1  0
 25 42  1  0
 26 43  1  0
 28 44  1  0
M  END
>  <smiles>  (12) 
O=c1c2ccc(F)cc2nc(/C=C/c2cccc(O)c2)n1Cc1cccnc1

>  <score_type>  (12) 
oracle

>  <origin>  (12) 
autodockgpu

>  <m_score__min__energy>  (12) 
-8.4100000000000001

>  <m_primary>  (12) 
energy

>  <rmsd>  (12) 
6.082662689557662

>  <m_score__min__rmsd>  (12) 
6.082662689557662

>  <meeko>  (12) 
{"free_energy": -7.95, "intermolecular_energy": -9.74, "internal_energy": -0.93, "cluster_size": 17, "cluster_id": 1, "rank_in_cluster": 8}

>  <energy>  (12) 
-7.6

>  <cluster_rmsd>  (12) 
1.08

>  <cluster>  (12) 
1

$$$$

     RDKit          3D

 44 47  0  0  0  0  0  0  0  0999 V2000
  142.7180   75.0550  219.2890 O   0  0  0  0  0  0  0  0  0  0  0  0
  141.9710   74.7560  220.2570 C   0  0  0  0  0  0  0  0  0  0  0  0
  141.2900   75.8400  220.8250 C   0  0  0  0  0  0  0  0  0  0  0  0
  141.4500   77.1190  220.3390 C   0  0  0  0  0  0  0  0  0  0  0  0
  140.7720   78.1990  220.9060 C   0  0  0  0  0  0  0  0  0  0  0  0
  139.9360   77.9330  221.9700 C   0  0  0  0  0  0  0  0  0  0  0  0
  139.2720   78.9680  222.5300 F   0  0  0  0  0  0  0  0  0  0  0  0
  139.7460   76.6780  222.4860 C   0  0  0  0  0  0  0  0  0  0  0  0
  140.4390   75.6390  221.8930 C   0  0  0  0  0  0  0  0  0  0  0  0
  140.3160   74.3750  222.3300 N   0  0  0  0  0  0  0  0  0  0  0  0
  140.9850   73.3440  221.7620 C   0  0  0  0  0  0  0  0  0  0  0  0
  140.7170   72.0220  222.3300 C   0  0  0  0  0  0  0  0  0  0  0  0
  139.9210   71.9060  223.3820 C   0  0  0  0  0  0  0  0  0  0  0  0
  140.1250   70.9210  224.4390 C   0  0  0  0  0  0  0  0  0  0  0  0
  140.7690   71.2910  225.6290 C   0  0  0  0  0  0  0  0  0  0  0  0
  140.9920   70.4290  226.6540 C   0  0  0  0  0  0  0  0  0  0  0  0
  140.5740   69.1180  226.5460 C   0  0  0  0  0  0  0  0  0  0  0  0
  139.9420   68.7150  225.4040 C   0  0  0  0  0  0  0  0  0  0  0  0
  139.5340   67.3900  225.3270 O   0  0  0  0  0  0  0  0  0  0  0  0
  139.7230   69.6160  224.3630 C   0  0  0  0  0  0  0  0  0  0  0  0
  141.8250   73.4980  220.7220 N   0  0  0  0  0  0  0  0  0  0  0  0
  142.5720   72.4130  220.1260 C   0  0  0  0  0  0  0  0  0  0  0  0
  144.0060   72.7830  220.0740 C   0  0  0  0  0  0  0  0  0  0  0  0
  144.6390   73.2570  221.2300 C   0  0  0  0  0  0  0  0  0  0  0  0
  145.9820   73.6110  221.2250 C   0  0  0  0  0  0  0  0  0  0  0  0
  146.7000   73.4960  220.0600 C   0  0  0  0  0  0  0  0  0  0  0  0
  146.1120   73.0470  218.9450 N   0  0  0  0  0  0  0  0  0  0  0  0
  144.8010   72.7020  218.9580 C   0  0  0  0  0  0  0  0  0  0  0  0
  142.1250   77.2923  219.4879 H   0  0  0  0  0  0  0  0  0  0  0  0
  140.8993   79.2211  220.5198 H   0  0  0  0  0  0  0  0  0  0  0  0
  139.0703   76.5044  223.3365 H   0  0  0  0  0  0  0  0  0  0  0  0
  141.1756   71.1270  221.8842 H   0  0  0  0  0  0  0  0  0  0  0  0
  139.0614   72.5876  223.4632 H   0  0  0  0  0  0  0  0  0  0  0  0
  141.1103   72.3311  225.7371 H   0  0  0  0  0  0  0  0  0  0  0  0
  141.5029   70.7734  227.5653 H   0  0  0  0  0  0  0  0  0  0  0  0
  140.7474   68.4078  227.3679 H   0  0  0  0  0  0  0  0  0  0  0  0
  139.3180   66.9970  224.4180 H   0  0  0  0  0  0  0  0  0  0  0  0
  139.2118   69.2670  223.4537 H   0  0  0  0  0  0  0  0  0  0  0  0
  142.4479   71.5036  220.7323 H   0  0  0  0  0  0  0  0  0  0  0  0
  142.2011   72.2229  219.1080 H   0  0  0  0  0  0  0  0  0  0  0  0
  144.0606   73.3508  222.1609 H   0  0  0  0  0  0  0  0  0  0  0  0
  146.4644   73.9788  222.1426 H   0  0  0  0  0  0  0  0  0  0  0  0
  147.7640   73.7745  220.0433 H   0  0  0  0  0  0  0  0  0  0  0  0
  144.3498   72.3374  218.0234 H   0  0  0  0  0  0  0  0  0  0  0  0
  1  2  2  0
  2  3  1  0
  3  4  2  0
  4  5  1  0
  5  6  2  0
  6  7  1  0
  6  8  1  0
  8  9  2  0
  9 10  1  0
 10 11  2  0
 11 12  1  0
 12 13  2  0
 13 14  1  0
 14 15  2  0
 15 16  1  0
 16 17  2  0
 17 18  1  0
 18 19  1  0
 18 20  2  0
 11 21  1  0
 21 22  1  0
 22 23  1  0
 23 24  2  0
 24 25  1  0
 25 26  2  0
 26 27  1  0
 27 28  2  0
 21  2  1  0
 28 23  1  0
  9  3  1  0
 20 14  1  0
  4 29  1  0
  5 30  1  0
  8 31  1  0
 12 32  1  0
 13 33  1  0
 15 34  1  0
 16 35  1  0
 17 36  1  0
 19 37  1  0
 20 38  1  0
 22 39  1  0
 22 40  1  0
 24 41  1  0
 25 42  1  0
 26 43  1  0
 28 44  1  0
M  END
>  <smiles>  (13) 
O=c1c2ccc(F)cc2nc(/C=C/c2cccc(O)c2)n1Cc1cccnc1

>  <score_type>  (13) 
oracle

>  <origin>  (13) 
autodockgpu

>  <m_score__min__energy>  (13) 
-8.4100000000000001

>  <m_primary>  (13) 
energy

>  <rmsd>  (13) 
5.991842180097037

>  <m_score__min__rmsd>  (13) 
5.991842180097037

>  <meeko>  (13) 
{"free_energy": -8.3, "intermolecular_energy": -10.09, "internal_energy": -0.86, "cluster_size": 17, "cluster_id": 1, "rank_in_cluster": 3}

>  <energy>  (13) 
-7.6

>  <cluster_rmsd>  (13) 
0.74

>  <cluster>  (13) 
1

$$$$

     RDKit          3D

 44 47  0  0  0  0  0  0  0  0999 V2000
  139.1950   67.7400  225.1930 O   0  0  0  0  0  0  0  0  0  0  0  0
  139.4600   68.9360  224.9040 C   0  0  0  0  0  0  0  0  0  0  0  0
  140.0270   69.6780  225.9490 C   0  0  0  0  0  0  0  0  0  0  0  0
  140.2580   69.1110  227.1830 C   0  0  0  0  0  0  0  0  0  0  0  0
  140.8210   69.8490  228.2250 C   0  0  0  0  0  0  0  0  0  0  0  0
  141.1360   71.1670  227.9680 C   0  0  0  0  0  0  0  0  0  0  0  0
  141.6820   71.8960  228.9650 F   0  0  0  0  0  0  0  0  0  0  0  0
  140.9240   71.7720  226.7570 C   0  0  0  0  0  0  0  0  0  0  0  0
  140.3640   71.0010  225.7550 C   0  0  0  0  0  0  0  0  0  0  0  0
  140.1200   71.5080  224.5350 N   0  0  0  0  0  0  0  0  0  0  0  0
  139.5720   70.7700  223.5410 C   0  0  0  0  0  0  0  0  0  0  0  0
  139.4020   71.4560  222.2590 C   0  0  0  0  0  0  0  0  0  0  0  0
  140.3130   71.3120  221.3090 C   0  0  0  0  0  0  0  0  0  0  0  0
  141.4190   72.2420  221.1070 C   0  0  0  0  0  0  0  0  0  0  0  0
  141.1730   73.6210  221.0370 C   0  0  0  0  0  0  0  0  0  0  0  0
  142.1520   74.5440  220.8520 C   0  0  0  0  0  0  0  0  0  0  0  0
  143.4620   74.1300  220.7220 C   0  0  0  0  0  0  0  0  0  0  0  0
  143.7470   72.7960  220.7840 C   0  0  0  0  0  0  0  0  0  0  0  0
  145.0750   72.4140  220.6500 O   0  0  0  0  0  0  0  0  0  0  0  0
  142.7270   71.8650  220.9750 C   0  0  0  0  0  0  0  0  0  0  0  0
  139.2280   69.4780  223.6890 N   0  0  0  0  0  0  0  0  0  0  0  0
  138.6130   68.6850  222.6490 C   0  0  0  0  0  0  0  0  0  0  0  0
  137.1700   68.5260  222.9490 C   0  0  0  0  0  0  0  0  0  0  0  0
  136.3620   67.7820  222.0800 C   0  0  0  0  0  0  0  0  0  0  0  0
  135.0070   67.6070  222.3270 C   0  0  0  0  0  0  0  0  0  0  0  0
  134.4500   68.1760  223.4460 C   0  0  0  0  0  0  0  0  0  0  0  0
  135.2060   68.8900  224.2870 N   0  0  0  0  0  0  0  0  0  0  0  0
  136.5280   69.0580  224.0410 C   0  0  0  0  0  0  0  0  0  0  0  0
  139.9936   68.0564  227.3502 H   0  0  0  0  0  0  0  0  0  0  0  0
  141.0060   69.3980  229.2111 H   0  0  0  0  0  0  0  0  0  0  0  0
  141.1881   72.8265  226.5890 H   0  0  0  0  0  0  0  0  0  0  0  0
  138.5196   72.0895  222.0854 H   0  0  0  0  0  0  0  0  0  0  0  0
  140.2317   70.4453  220.6365 H   0  0  0  0  0  0  0  0  0  0  0  0
  140.1355   73.9725  221.1369 H   0  0  0  0  0  0  0  0  0  0  0  0
  141.9024   75.6143  220.8061 H   0  0  0  0  0  0  0  0  0  0  0  0
  144.2662   74.8651  220.5704 H   0  0  0  0  0  0  0  0  0  0  0  0
  145.5510   72.0120  221.4500 H   0  0  0  0  0  0  0  0  0  0  0  0
  142.9817   70.7959  221.0209 H   0  0  0  0  0  0  0  0  0  0  0  0
  138.7341   69.1910  221.6798 H   0  0  0  0  0  0  0  0  0  0  0  0
  139.0932   67.6963  222.6041 H   0  0  0  0  0  0  0  0  0  0  0  0
  136.8098   67.3273  221.1841 H   0  0  0  0  0  0  0  0  0  0  0  0
  134.3867   67.0193  221.6343 H   0  0  0  0  0  0  0  0  0  0  0  0
  133.3775   68.0439  223.6514 H   0  0  0  0  0  0  0  0  0  0  0  0
  137.1187   69.6521  224.7538 H   0  0  0  0  0  0  0  0  0  0  0  0
  1  2  2  0
  2  3  1  0
  3  4  2  0
  4  5  1  0
  5  6  2  0
  6  7  1  0
  6  8  1  0
  8  9  2  0
  9 10  1  0
 10 11  2  0
 11 12  1  0
 12 13  2  0
 13 14  1  0
 14 15  2  0
 15 16  1  0
 16 17  2  0
 17 18  1  0
 18 19  1  0
 18 20  2  0
 11 21  1  0
 21 22  1  0
 22 23  1  0
 23 24  2  0
 24 25  1  0
 25 26  2  0
 26 27  1  0
 27 28  2  0
 21  2  1  0
 28 23  1  0
  9  3  1  0
 20 14  1  0
  4 29  1  0
  5 30  1  0
  8 31  1  0
 12 32  1  0
 13 33  1  0
 15 34  1  0
 16 35  1  0
 17 36  1  0
 19 37  1  0
 20 38  1  0
 22 39  1  0
 22 40  1  0
 24 41  1  0
 25 42  1  0
 26 43  1  0
 28 44  1  0
M  END
>  <smiles>  (14) 
O=c1c2ccc(F)cc2nc(/C=C/c2cccc(O)c2)n1Cc1cccnc1

>  <score_type>  (14) 
oracle

>  <origin>  (14) 
autodockgpu

>  <m_score__min__energy>  (14) 
-8.4100000000000001

>  <m_primary>  (14) 
energy

>  <rmsd>  (14) 
11.640742692045094

>  <m_score__min__rmsd>  (14) 
11.640742692045094

>  <meeko>  (14) 
{"free_energy": -7.49, "intermolecular_energy": -9.28, "internal_energy": -0.95, "cluster_size": 19, "cluster_id": 2, "rank_in_cluster": 12}

>  <energy>  (14) 
-7.56

>  <cluster_rmsd>  (14) 
0.83

>  <cluster>  (14) 
1

$$$$

     RDKit          3D

 44 47  0  0  0  0  0  0  0  0999 V2000
  139.2050   67.7310  225.1830 O   0  0  0  0  0  0  0  0  0  0  0  0
  139.5120   68.9220  224.9170 C   0  0  0  0  0  0  0  0  0  0  0  0
  140.0600   69.6380  225.9900 C   0  0  0  0  0  0  0  0  0  0  0  0
  140.2310   69.0520  227.2260 C   0  0  0  0  0  0  0  0  0  0  0  0
  140.7760   69.7640  228.2950 C   0  0  0  0  0  0  0  0  0  0  0  0
  141.1340   71.0760  228.0640 C   0  0  0  0  0  0  0  0  0  0  0  0
  141.6630   71.7790  229.0890 F   0  0  0  0  0  0  0  0  0  0  0  0
  140.9820   71.6990  226.8530 C   0  0  0  0  0  0  0  0  0  0  0  0
  140.4380   70.9540  225.8230 C   0  0  0  0  0  0  0  0  0  0  0  0
  140.2520   71.4790  224.6010 N   0  0  0  0  0  0  0  0  0  0  0  0
  139.7210   70.7660  223.5800 C   0  0  0  0  0  0  0  0  0  0  0  0
  139.6150   71.4700  222.3010 C   0  0  0  0  0  0  0  0  0  0  0  0
  140.5270   71.2700  221.3620 C   0  0  0  0  0  0  0  0  0  0  0  0
  141.6100   72.2070  221.0800 C   0  0  0  0  0  0  0  0  0  0  0  0
  141.3410   73.5790  220.9680 C   0  0  0  0  0  0  0  0  0  0  0  0
  142.2970   74.5070  220.7090 C   0  0  0  0  0  0  0  0  0  0  0  0
  143.6080   74.1070  220.5430 C   0  0  0  0  0  0  0  0  0  0  0  0
  143.9140   72.7800  220.6440 C   0  0  0  0  0  0  0  0  0  0  0  0
  145.2420   72.4110  220.4710 O   0  0  0  0  0  0  0  0  0  0  0  0
  142.9170   71.8430  220.9110 C   0  0  0  0  0  0  0  0  0  0  0  0
  139.3370   69.4830  223.7010 N   0  0  0  0  0  0  0  0  0  0  0  0
  138.7400   68.7170  222.6310 C   0  0  0  0  0  0  0  0  0  0  0  0
  137.2920   68.5490  222.9040 C   0  0  0  0  0  0  0  0  0  0  0  0
  136.4950   67.8450  221.9930 C   0  0  0  0  0  0  0  0  0  0  0  0
  135.1370   67.6620  222.2130 C   0  0  0  0  0  0  0  0  0  0  0  0
  134.5660   68.1850  223.3480 C   0  0  0  0  0  0  0  0  0  0  0  0
  135.3110   68.8610  224.2290 N   0  0  0  0  0  0  0  0  0  0  0  0
  136.6370   69.0350  224.0080 C   0  0  0  0  0  0  0  0  0  0  0  0
  139.9322   68.0035  227.3722 H   0  0  0  0  0  0  0  0  0  0  0  0
  140.9145   69.2981  229.2818 H   0  0  0  0  0  0  0  0  0  0  0  0
  141.2802   72.7476  226.7065 H   0  0  0  0  0  0  0  0  0  0  0  0
  138.7802   72.1632  222.1204 H   0  0  0  0  0  0  0  0  0  0  0  0
  140.4652   70.3494  220.7631 H   0  0  0  0  0  0  0  0  0  0  0  0
  140.3031   73.9200  221.0965 H   0  0  0  0  0  0  0  0  0  0  0  0
  142.0290   75.5711  220.6318 H   0  0  0  0  0  0  0  0  0  0  0  0
  144.3946   74.8465  220.3324 H   0  0  0  0  0  0  0  0  0  0  0  0
  145.6980   71.8730  221.1990 H   0  0  0  0  0  0  0  0  0  0  0  0
  143.1897   70.7801  220.9879 H   0  0  0  0  0  0  0  0  0  0  0  0
  138.8759   69.2482  221.6774 H   0  0  0  0  0  0  0  0  0  0  0  0
  139.2222   67.7303  222.5678 H   0  0  0  0  0  0  0  0  0  0  0  0
  136.9546   67.4286  221.0845 H   0  0  0  0  0  0  0  0  0  0  0  0
  134.5254   67.1052  221.4878 H   0  0  0  0  0  0  0  0  0  0  0  0
  133.4905   68.0469  223.5329 H   0  0  0  0  0  0  0  0  0  0  0  0
  137.2196   69.5960  224.7536 H   0  0  0  0  0  0  0  0  0  0  0  0
  1  2  2  0
  2  3  1  0
  3  4  2  0
  4  5  1  0
  5  6  2  0
  6  7  1  0
  6  8  1  0
  8  9  2  0
  9 10  1  0
 10 11  2  0
 11 12  1  0
 12 13  2  0
 13 14  1  0
 14 15  2  0
 15 16  1  0
 16 17  2  0
 17 18  1  0
 18 19  1  0
 18 20  2  0
 11 21  1  0
 21 22  1  0
 22 23  1  0
 23 24  2  0
 24 25  1  0
 25 26  2  0
 26 27  1  0
 27 28  2  0
 21  2  1  0
 28 23  1  0
  9  3  1  0
 20 14  1  0
  4 29  1  0
  5 30  1  0
  8 31  1  0
 12 32  1  0
 13 33  1  0
 15 34  1  0
 16 35  1  0
 17 36  1  0
 19 37  1  0
 20 38  1  0
 22 39  1  0
 22 40  1  0
 24 41  1  0
 25 42  1  0
 26 43  1  0
 28 44  1  0
M  END
>  <smiles>  (15) 
O=c1c2ccc(F)cc2nc(/C=C/c2cccc(O)c2)n1Cc1cccnc1

>  <score_type>  (15) 
oracle

>  <origin>  (15) 
autodockgpu

>  <m_score__min__energy>  (15) 
-8.4100000000000001

>  <m_primary>  (15) 
energy

>  <rmsd>  (15) 
11.640574094542895

>  <m_score__min__rmsd>  (15) 
11.640574094542895

>  <meeko>  (15) 
{"free_energy": -7.6, "intermolecular_energy": -9.39, "internal_energy": -0.89, "cluster_size": 19, "cluster_id": 2, "rank_in_cluster": 2}

>  <energy>  (15) 
-7.52

>  <cluster_rmsd>  (15) 
0.86

>  <cluster>  (15) 
1

$$$$

     RDKit          3D

 44 47  0  0  0  0  0  0  0  0999 V2000
  138.8470   68.3680  225.1850 O   0  0  0  0  0  0  0  0  0  0  0  0
  139.4130   69.4590  224.9130 C   0  0  0  0  0  0  0  0  0  0  0  0
  140.0790   70.0560  225.9910 C   0  0  0  0  0  0  0  0  0  0  0  0
  140.0910   69.4680  227.2380 C   0  0  0  0  0  0  0  0  0  0  0  0
  140.7540   70.0630  228.3120 C   0  0  0  0  0  0  0  0  0  0  0  0
  141.3950   71.2610  228.0750 C   0  0  0  0  0  0  0  0  0  0  0  0
  142.0410   71.8500  229.1050 F   0  0  0  0  0  0  0  0  0  0  0  0
  141.4100   71.8810  226.8530 C   0  0  0  0  0  0  0  0  0  0  0  0
  140.7400   71.2550  225.8190 C   0  0  0  0  0  0  0  0  0  0  0  0
  140.7000   71.7870  224.5860 N   0  0  0  0  0  0  0  0  0  0  0  0
  140.0500   71.1900  223.5600 C   0  0  0  0  0  0  0  0  0  0  0  0
  140.1290   71.8770  222.2710 C   0  0  0  0  0  0  0  0  0  0  0  0
  141.0590   71.5300  221.3940 C   0  0  0  0  0  0  0  0  0  0  0  0
  142.1850   72.3850  221.0330 C   0  0  0  0  0  0  0  0  0  0  0  0
  141.9890   73.7610  220.8470 C   0  0  0  0  0  0  0  0  0  0  0  0
  142.9890   74.6170  220.5110 C   0  0  0  0  0  0  0  0  0  0  0  0
  144.2700   74.1340  220.3380 C   0  0  0  0  0  0  0  0  0  0  0  0
  144.5050   72.7990  220.5100 C   0  0  0  0  0  0  0  0  0  0  0  0
  145.8050   72.3450  220.3290 O   0  0  0  0  0  0  0  0  0  0  0  0
  143.4650   71.9380  220.8550 C   0  0  0  0  0  0  0  0  0  0  0  0
  139.3930   70.0230  223.6870 N   0  0  0  0  0  0  0  0  0  0  0  0
  138.6670   69.3880  222.6100 C   0  0  0  0  0  0  0  0  0  0  0  0
  137.2360   69.2850  222.9850 C   0  0  0  0  0  0  0  0  0  0  0  0
  136.6120   70.3610  223.6280 C   0  0  0  0  0  0  0  0  0  0  0  0
  135.2730   70.3050  223.9930 C   0  0  0  0  0  0  0  0  0  0  0  0
  134.5500   69.1700  223.7190 C   0  0  0  0  0  0  0  0  0  0  0  0
  135.1300   68.1320  223.1060 N   0  0  0  0  0  0  0  0  0  0  0  0
  136.4370   68.1930  222.7510 C   0  0  0  0  0  0  0  0  0  0  0  0
  139.5682   68.5120  227.3891 H   0  0  0  0  0  0  0  0  0  0  0  0
  140.7650   69.5954  229.3076 H   0  0  0  0  0  0  0  0  0  0  0  0
  141.9333   72.8366  226.7015 H   0  0  0  0  0  0  0  0  0  0  0  0
  139.4172   72.6804  222.0304 H   0  0  0  0  0  0  0  0  0  0  0  0
  140.9782   70.5445  220.9120 H   0  0  0  0  0  0  0  0  0  0  0  0
  140.9755   74.1674  220.9797 H   0  0  0  0  0  0  0  0  0  0  0  0
  142.7788   75.6885  220.3777 H   0  0  0  0  0  0  0  0  0  0  0  0
  145.0904   74.8142  220.0655 H   0  0  0  0  0  0  0  0  0  0  0  0
  146.2680   71.8690  221.0950 H   0  0  0  0  0  0  0  0  0  0  0  0
  143.6800   70.8675  220.9880 H   0  0  0  0  0  0  0  0  0  0  0  0
  138.7656   69.9894  221.6943 H   0  0  0  0  0  0  0  0  0  0  0  0
  139.0762   68.3832  222.4287 H   0  0  0  0  0  0  0  0  0  0  0  0
  137.1935   71.2683  223.8484 H   0  0  0  0  0  0  0  0  0  0  0  0
  134.7972   71.1599  224.4957 H   0  0  0  0  0  0  0  0  0  0  0  0
  133.4893   69.1142  224.0048 H   0  0  0  0  0  0  0  0  0  0  0  0
  136.8812   67.3210  222.2486 H   0  0  0  0  0  0  0  0  0  0  0  0
  1  2  2  0
  2  3  1  0
  3  4  2  0
  4  5  1  0
  5  6  2  0
  6  7  1  0
  6  8  1  0
  8  9  2  0
  9 10  1  0
 10 11  2  0
 11 12  1  0
 12 13  2  0
 13 14  1  0
 14 15  2  0
 15 16  1  0
 16 17  2  0
 17 18  1  0
 18 19  1  0
 18 20  2  0
 11 21  1  0
 21 22  1  0
 22 23  1  0
 23 24  2  0
 24 25  1  0
 25 26  2  0
 26 27  1  0
 27 28  2  0
 21  2  1  0
 28 23  1  0
  9  3  1  0
 20 14  1  0
  4 29  1  0
  5 30  1  0
  8 31  1  0
 12 32  1  0
 13 33  1  0
 15 34  1  0
 16 35  1  0
 17 36  1  0
 19 37  1  0
 20 38  1  0
 22 39  1  0
 22 40  1  0
 24 41  1  0
 25 42  1  0
 26 43  1  0
 28 44  1  0
M  END
>  <smiles>  (16) 
O=c1c2ccc(F)cc2nc(/C=C/c2cccc(O)c2)n1Cc1cccnc1

>  <score_type>  (16) 
oracle

>  <origin>  (16) 
autodockgpu

>  <m_score__min__energy>  (16) 
-8.4100000000000001

>  <m_primary>  (16) 
energy

>  <rmsd>  (16) 
11.205933806691437

>  <m_score__min__rmsd>  (16) 
11.205933806691437

>  <meeko>  (16) 
{"free_energy": -7.64, "intermolecular_energy": -9.43, "internal_energy": -0.97, "cluster_size": 19, "cluster_id": 2, "rank_in_cluster": 1}

>  <energy>  (16) 
-7.21

>  <cluster_rmsd>  (16) 
0.94

>  <cluster>  (16) 
1

$$$$

     RDKit          3D

 44 47  0  0  0  0  0  0  0  0999 V2000
  139.2160   67.7280  225.2100 O   0  0  0  0  0  0  0  0  0  0  0  0
  139.4830   68.9240  224.9210 C   0  0  0  0  0  0  0  0  0  0  0  0
  140.0380   69.6690  225.9690 C   0  0  0  0  0  0  0  0  0  0  0  0
  140.2580   69.1050  227.2070 C   0  0  0  0  0  0  0  0  0  0  0  0
  140.8110   69.8470  228.2520 C   0  0  0  0  0  0  0  0  0  0  0  0
  141.1270   71.1650  227.9950 C   0  0  0  0  0  0  0  0  0  0  0  0
  141.6620   71.8960  228.9960 F   0  0  0  0  0  0  0  0  0  0  0  0
  140.9250   71.7660  226.7800 C   0  0  0  0  0  0  0  0  0  0  0  0
  140.3760   70.9920  225.7750 C   0  0  0  0  0  0  0  0  0  0  0  0
  140.1430   71.4950  224.5510 N   0  0  0  0  0  0  0  0  0  0  0  0
  139.6060   70.7540  223.5540 C   0  0  0  0  0  0  0  0  0  0  0  0
  139.4470   71.4360  222.2690 C   0  0  0  0  0  0  0  0  0  0  0  0
  139.8540   72.6890  222.1340 C   0  0  0  0  0  0  0  0  0  0  0  0
  141.1320   73.0600  221.5330 C   0  0  0  0  0  0  0  0  0  0  0  0
  141.3760   74.3910  221.1680 C   0  0  0  0  0  0  0  0  0  0  0  0
  142.5400   74.8080  220.6060 C   0  0  0  0  0  0  0  0  0  0  0  0
  143.5480   73.8950  220.3710 C   0  0  0  0  0  0  0  0  0  0  0  0
  143.3520   72.5870  220.7110 C   0  0  0  0  0  0  0  0  0  0  0  0
  144.3870   71.6950  220.4610 O   0  0  0  0  0  0  0  0  0  0  0  0
  142.1500   72.1800  221.2870 C   0  0  0  0  0  0  0  0  0  0  0  0
  139.2610   69.4620  223.7030 N   0  0  0  0  0  0  0  0  0  0  0  0
  138.6580   68.6660  222.6580 C   0  0  0  0  0  0  0  0  0  0  0  0
  137.2120   68.5050  222.9460 C   0  0  0  0  0  0  0  0  0  0  0  0
  136.4170   67.7420  222.0800 C   0  0  0  0  0  0  0  0  0  0  0  0
  135.0600   67.5650  222.3150 C   0  0  0  0  0  0  0  0  0  0  0  0
  134.4890   68.1520  223.4180 C   0  0  0  0  0  0  0  0  0  0  0  0
  135.2320   68.8850  224.2550 N   0  0  0  0  0  0  0  0  0  0  0  0
  136.5560   69.0530  224.0200 C   0  0  0  0  0  0  0  0  0  0  0  0
  139.9929   68.0507  227.3748 H   0  0  0  0  0  0  0  0  0  0  0  0
  140.9878   69.3987  229.2408 H   0  0  0  0  0  0  0  0  0  0  0  0
  141.1888   72.8205  226.6116 H   0  0  0  0  0  0  0  0  0  0  0  0
  138.9908   70.9094  221.4178 H   0  0  0  0  0  0  0  0  0  0  0  0
  139.1945   73.4926  222.4936 H   0  0  0  0  0  0  0  0  0  0  0  0
  140.5854   75.1349  221.3455 H   0  0  0  0  0  0  0  0  0  0  0  0
  142.6784   75.8663  220.3399 H   0  0  0  0  0  0  0  0  0  0  0  0
  144.4964   74.2166  219.9160 H   0  0  0  0  0  0  0  0  0  0  0  0
  145.0900   71.5500  221.1760 H   0  0  0  0  0  0  0  0  0  0  0  0
  142.0160   71.1207  221.5514 H   0  0  0  0  0  0  0  0  0  0  0  0
  138.7870   69.1708  221.6892 H   0  0  0  0  0  0  0  0  0  0  0  0
  139.1408   67.6784  222.6181 H   0  0  0  0  0  0  0  0  0  0  0  0
  136.8770   67.2743  221.1970 H   0  0  0  0  0  0  0  0  0  0  0  0
  134.4497   66.9622  221.6264 H   0  0  0  0  0  0  0  0  0  0  0  0
  133.4149   68.0186  223.6141 H   0  0  0  0  0  0  0  0  0  0  0  0
  137.1367   69.6618  224.7286 H   0  0  0  0  0  0  0  0  0  0  0  0
  1  2  2  0
  2  3  1  0
  3  4  2  0
  4  5  1  0
  5  6  2  0
  6  7  1  0
  6  8  1  0
  8  9  2  0
  9 10  1  0
 10 11  2  0
 11 12  1  0
 12 13  2  0
 13 14  1  0
 14 15  2  0
 15 16  1  0
 16 17  2  0
 17 18  1  0
 18 19  1  0
 18 20  2  0
 11 21  1  0
 21 22  1  0
 22 23  1  0
 23 24  2  0
 24 25  1  0
 25 26  2  0
 26 27  1  0
 27 28  2  0
 21  2  1  0
 28 23  1  0
  9  3  1  0
 20 14  1  0
  4 29  1  0
  5 30  1  0
  8 31  1  0
 12 32  1  0
 13 33  1  0
 15 34  1  0
 16 35  1  0
 17 36  1  0
 19 37  1  0
 20 38  1  0
 22 39  1  0
 22 40  1  0
 24 41  1  0
 25 42  1  0
 26 43  1  0
 28 44  1  0
M  END
>  <smiles>  (17) 
O=c1c2ccc(F)cc2nc(/C=C/c2cccc(O)c2)n1Cc1cccnc1

>  <score_type>  (17) 
oracle

>  <origin>  (17) 
autodockgpu

>  <m_score__min__energy>  (17) 
-8.4100000000000001

>  <m_primary>  (17) 
energy

>  <rmsd>  (17) 
11.649513456177088

>  <m_score__min__rmsd>  (17) 
11.649513456177088

>  <meeko>  (17) 
{"free_energy": -7.55, "intermolecular_energy": -9.33, "internal_energy": -0.94, "cluster_size": 19, "cluster_id": 2, "rank_in_cluster": 6}

>  <energy>  (17) 
-7.03

>  <cluster_rmsd>  (17) 
1.45

>  <cluster>  (17) 
1

$$$$

     RDKit          3D

 44 47  0  0  0  0  0  0  0  0999 V2000
  138.2560   68.7460  224.8460 O   0  0  0  0  0  0  0  0  0  0  0  0
  139.0160   69.7190  224.6030 C   0  0  0  0  0  0  0  0  0  0  0  0
  139.7200   70.2030  225.7130 C   0  0  0  0  0  0  0  0  0  0  0  0
  139.5650   69.6350  226.9590 C   0  0  0  0  0  0  0  0  0  0  0  0
  140.2650   70.1160  228.0660 C   0  0  0  0  0  0  0  0  0  0  0  0
  141.1170   71.1820  227.8620 C   0  0  0  0  0  0  0  0  0  0  0  0
  141.8020   71.6600  228.9230 F   0  0  0  0  0  0  0  0  0  0  0  0
  141.3020   71.7770  226.6410 C   0  0  0  0  0  0  0  0  0  0  0  0
  140.5870   71.2660  225.5740 C   0  0  0  0  0  0  0  0  0  0  0  0
  140.7040   71.7840  224.3400 N   0  0  0  0  0  0  0  0  0  0  0  0
  140.0130   71.2980  223.2820 C   0  0  0  0  0  0  0  0  0  0  0  0
  140.2780   71.9480  221.9980 C   0  0  0  0  0  0  0  0  0  0  0  0
  141.2560   71.5040  221.2240 C   0  0  0  0  0  0  0  0  0  0  0  0
  142.4110   72.3130  220.8440 C   0  0  0  0  0  0  0  0  0  0  0  0
  142.2960   73.7080  220.7660 C   0  0  0  0  0  0  0  0  0  0  0  0
  143.3260   74.5220  220.4200 C   0  0  0  0  0  0  0  0  0  0  0  0
  144.5580   73.9740  220.1260 C   0  0  0  0  0  0  0  0  0  0  0  0
  144.7140   72.6180  220.1890 C   0  0  0  0  0  0  0  0  0  0  0  0
  145.9670   72.1000  219.8870 O   0  0  0  0  0  0  0  0  0  0  0  0
  143.6440   71.8010  220.5460 C   0  0  0  0  0  0  0  0  0  0  0  0
  139.1570   70.2650  223.3760 N   0  0  0  0  0  0  0  0  0  0  0  0
  138.3880   69.7550  222.2640 C   0  0  0  0  0  0  0  0  0  0  0  0
  138.9150   68.4230  221.8810 C   0  0  0  0  0  0  0  0  0  0  0  0
  139.8270   68.3200  220.8230 C   0  0  0  0  0  0  0  0  0  0  0  0
  140.3460   67.0910  220.4350 C   0  0  0  0  0  0  0  0  0  0  0  0
  139.9530   65.9570  221.1020 C   0  0  0  0  0  0  0  0  0  0  0  0
  139.0810   66.0360  222.1140 N   0  0  0  0  0  0  0  0  0  0  0  0
  138.5790   67.2380  222.4880 C   0  0  0  0  0  0  0  0  0  0  0  0
  138.8763   68.7863  227.0832 H   0  0  0  0  0  0  0  0  0  0  0  0
  140.1426   69.6636  229.0612 H   0  0  0  0  0  0  0  0  0  0  0  0
  141.9906   72.6256  226.5155 H   0  0  0  0  0  0  0  0  0  0  0  0
  139.6659   72.8036  221.6766 H   0  0  0  0  0  0  0  0  0  0  0  0
  141.1955   70.4722  220.8476 H   0  0  0  0  0  0  0  0  0  0  0  0
  141.3228   74.1659  220.9966 H   0  0  0  0  0  0  0  0  0  0  0  0
  143.1795   75.6112  220.3743 H   0  0  0  0  0  0  0  0  0  0  0  0
  145.4028   74.6200  219.8448 H   0  0  0  0  0  0  0  0  0  0  0  0
  146.3950   71.4480  220.5350 H   0  0  0  0  0  0  0  0  0  0  0  0
  143.7948   70.7123  220.5896 H   0  0  0  0  0  0  0  0  0  0  0  0
  137.3319   69.6629  222.5577 H   0  0  0  0  0  0  0  0  0  0  0  0
  138.4674   70.4447  221.4108 H   0  0  0  0  0  0  0  0  0  0  0  0
  140.1384   69.2298  220.2889 H   0  0  0  0  0  0  0  0  0  0  0  0
  141.0632   67.0272  219.6034 H   0  0  0  0  0  0  0  0  0  0  0  0
  140.3570   64.9786  220.8030 H   0  0  0  0  0  0  0  0  0  0  0  0
  137.8636   67.2659  223.3231 H   0  0  0  0  0  0  0  0  0  0  0  0
  1  2  2  0
  2  3  1  0
  3  4  2  0
  4  5  1  0
  5  6  2  0
  6  7  1  0
  6  8  1  0
  8  9  2  0
  9 10  1  0
 10 11  2  0
 11 12  1  0
 12 13  2  0
 13 14  1  0
 14 15  2  0
 15 16  1  0
 16 17  2  0
 17 18  1  0
 18 19  1  0
 18 20  2  0
 11 21  1  0
 21 22  1  0
 22 23  1  0
 23 24  2  0
 24 25  1  0
 25 26  2  0
 26 27  1  0
 27 28  2  0
 21  2  1  0
 28 23  1  0
  9  3  1  0
 20 14  1  0
  4 29  1  0
  5 30  1  0
  8 31  1  0
 12 32  1  0
 13 33  1  0
 15 34  1  0
 16 35  1  0
 17 36  1  0
 19 37  1  0
 20 38  1  0
 22 39  1  0
 22 40  1  0
 24 41  1  0
 25 42  1  0
 26 43  1  0
 28 44  1  0
M  END
>  <smiles>  (18) 
O=c1c2ccc(F)cc2nc(/C=C/c2cccc(O)c2)n1Cc1cccnc1

>  <score_type>  (18) 
oracle

>  <origin>  (18) 
autodockgpu

>  <m_score__min__energy>  (18) 
-8.4100000000000001

>  <m_primary>  (18) 
energy

>  <rmsd>  (18) 
11.03494136490815

>  <m_score__min__rmsd>  (18) 
11.03494136490815

>  <meeko>  (18) 
{"free_energy": -7.5, "intermolecular_energy": -9.29, "internal_energy": -1.01, "cluster_size": 19, "cluster_id": 2, "rank_in_cluster": 9}

>  <energy>  (18) 
-7.64

>  <cluster_rmsd>  (18) 
0.0

>  <cluster>  (18) 
2

$$$$

     RDKit          3D

 44 47  0  0  0  0  0  0  0  0999 V2000
  142.9070   75.2000  219.4640 O   0  0  0  0  0  0  0  0  0  0  0  0
  142.0660   74.8760  220.3420 C   0  0  0  0  0  0  0  0  0  0  0  0
  141.4230   75.9550  220.9620 C   0  0  0  0  0  0  0  0  0  0  0  0
  141.7160   77.2570  220.6150 C   0  0  0  0  0  0  0  0  0  0  0  0
  141.0770   78.3320  221.2330 C   0  0  0  0  0  0  0  0  0  0  0  0
  140.1420   78.0390  222.2040 C   0  0  0  0  0  0  0  0  0  0  0  0
  139.5150   79.0690  222.8130 F   0  0  0  0  0  0  0  0  0  0  0  0
  139.8200   76.7620  222.5820 C   0  0  0  0  0  0  0  0  0  0  0  0
  140.4790   75.7290  221.9420 C   0  0  0  0  0  0  0  0  0  0  0  0
  140.2280   74.4440  222.2440 N   0  0  0  0  0  0  0  0  0  0  0  0
  140.8620   73.4180  221.6290 C   0  0  0  0  0  0  0  0  0  0  0  0
  140.4520   72.0760  222.0450 C   0  0  0  0  0  0  0  0  0  0  0  0
  139.6580   71.9250  223.0940 C   0  0  0  0  0  0  0  0  0  0  0  0
  139.9380   71.0000  224.1880 C   0  0  0  0  0  0  0  0  0  0  0  0
  140.7420   71.4050  225.2630 C   0  0  0  0  0  0  0  0  0  0  0  0
  141.0430   70.5990  226.3140 C   0  0  0  0  0  0  0  0  0  0  0  0
  140.5450   69.3120  226.3490 C   0  0  0  0  0  0  0  0  0  0  0  0
  139.7570   68.8760  225.3220 C   0  0  0  0  0  0  0  0  0  0  0  0
  139.2730   67.5760  225.3890 O   0  0  0  0  0  0  0  0  0  0  0  0
  139.4600   69.7200  224.2530 C   0  0  0  0  0  0  0  0  0  0  0  0
  141.7900   73.5970  220.6720 N   0  0  0  0  0  0  0  0  0  0  0  0
  142.4990   72.5140  220.0280 C   0  0  0  0  0  0  0  0  0  0  0  0
  143.9500   72.8170  220.0280 C   0  0  0  0  0  0  0  0  0  0  0  0
  144.5780   73.1900  221.2230 C   0  0  0  0  0  0  0  0  0  0  0  0
  145.9350   73.4790  221.2660 C   0  0  0  0  0  0  0  0  0  0  0  0
  146.6740   73.4000  220.1110 C   0  0  0  0  0  0  0  0  0  0  0  0
  146.0910   73.0470  218.9600 N   0  0  0  0  0  0  0  0  0  0  0  0
  144.7660   72.7650  218.9250 C   0  0  0  0  0  0  0  0  0  0  0  0
  142.4679   77.4516  219.8361 H   0  0  0  0  0  0  0  0  0  0  0  0
  141.3093   79.3712  220.9572 H   0  0  0  0  0  0  0  0  0  0  0  0
  139.0690   76.5670  223.3617 H   0  0  0  0  0  0  0  0  0  0  0  0
  140.8026   71.1949  221.4876 H   0  0  0  0  0  0  0  0  0  0  0  0
  138.7394   72.5282  223.1436 H   0  0  0  0  0  0  0  0  0  0  0  0
  141.1494   72.4267  225.2548 H   0  0  0  0  0  0  0  0  0  0  0  0
  141.6791   70.9692  227.1315 H   0  0  0  0  0  0  0  0  0  0  0  0
  140.7796   68.6464  227.1928 H   0  0  0  0  0  0  0  0  0  0  0  0
  139.6870   66.8700  224.7910 H   0  0  0  0  0  0  0  0  0  0  0  0
  138.8228   69.3458  223.4382 H   0  0  0  0  0  0  0  0  0  0  0  0
  142.3181   71.5777  220.5763 H   0  0  0  0  0  0  0  0  0  0  0  0
  142.1436   72.4018  218.9930 H   0  0  0  0  0  0  0  0  0  0  0  0
  143.9837   73.2553  222.1464 H   0  0  0  0  0  0  0  0  0  0  0  0
  146.4128   73.7678  222.2138 H   0  0  0  0  0  0  0  0  0  0  0  0
  147.7499   73.6280  220.1326 H   0  0  0  0  0  0  0  0  0  0  0  0
  144.3202   72.4790  217.9609 H   0  0  0  0  0  0  0  0  0  0  0  0
  1  2  2  0
  2  3  1  0
  3  4  2  0
  4  5  1  0
  5  6  2  0
  6  7  1  0
  6  8  1  0
  8  9  2  0
  9 10  1  0
 10 11  2  0
 11 12  1  0
 12 13  2  0
 13 14  1  0
 14 15  2  0
 15 16  1  0
 16 17  2  0
 17 18  1  0
 18 19  1  0
 18 20  2  0
 11 21  1  0
 21 22  1  0
 22 23  1  0
 23 24  2  0
 24 25  1  0
 25 26  2  0
 26 27  1  0
 27 28  2  0
 21  2  1  0
 28 23  1  0
  9  3  1  0
 20 14  1  0
  4 29  1  0
  5 30  1  0
  8 31  1  0
 12 32  1  0
 13 33  1  0
 15 34  1  0
 16 35  1  0
 17 36  1  0
 19 37  1  0
 20 38  1  0
 22 39  1  0
 22 40  1  0
 24 41  1  0
 25 42  1  0
 26 43  1  0
 28 44  1  0
M  END
>  <smiles>  (19) 
O=c1c2ccc(F)cc2nc(/C=C/c2cccc(O)c2)n1Cc1cccnc1

>  <score_type>  (19) 
oracle

>  <origin>  (19) 
autodockgpu

>  <m_score__min__energy>  (19) 
-8.4100000000000001

>  <m_primary>  (19) 
energy

>  <rmsd>  (19) 
5.963474089667821

>  <m_score__min__rmsd>  (19) 
5.963474089667821

>  <meeko>  (19) 
{"free_energy": -8.36, "intermolecular_energy": -10.15, "internal_energy": -0.81, "cluster_size": 17, "cluster_id": 1, "rank_in_cluster": 2}

>  <energy>  (19) 
-7.6

>  <cluster_rmsd>  (19) 
0.72

>  <cluster>  (19) 
2

$$$$

     RDKit          3D

 44 47  0  0  0  0  0  0  0  0999 V2000
  139.2060   67.7620  225.0590 O   0  0  0  0  0  0  0  0  0  0  0  0
  139.5100   68.9540  224.7960 C   0  0  0  0  0  0  0  0  0  0  0  0
  140.0550   69.6690  225.8700 C   0  0  0  0  0  0  0  0  0  0  0  0
  140.2260   69.0810  227.1060 C   0  0  0  0  0  0  0  0  0  0  0  0
  140.7680   69.7930  228.1770 C   0  0  0  0  0  0  0  0  0  0  0  0
  141.1230   71.1060  227.9490 C   0  0  0  0  0  0  0  0  0  0  0  0
  141.6480   71.8090  228.9760 F   0  0  0  0  0  0  0  0  0  0  0  0
  140.9710   71.7300  226.7390 C   0  0  0  0  0  0  0  0  0  0  0  0
  140.4300   70.9860  225.7070 C   0  0  0  0  0  0  0  0  0  0  0  0
  140.2440   71.5130  224.4850 N   0  0  0  0  0  0  0  0  0  0  0  0
  139.7170   70.8010  223.4620 C   0  0  0  0  0  0  0  0  0  0  0  0
  139.6110   71.5060  222.1840 C   0  0  0  0  0  0  0  0  0  0  0  0
  140.2330   72.6630  222.0170 C   0  0  0  0  0  0  0  0  0  0  0  0
  141.5190   72.7950  221.3400 C   0  0  0  0  0  0  0  0  0  0  0  0
  142.3430   71.6720  221.1720 C   0  0  0  0  0  0  0  0  0  0  0  0
  143.5500   71.7200  220.5530 C   0  0  0  0  0  0  0  0  0  0  0  0
  144.0140   72.9210  220.0550 C   0  0  0  0  0  0  0  0  0  0  0  0
  143.2430   74.0400  220.1970 C   0  0  0  0  0  0  0  0  0  0  0  0
  143.7390   75.2310  219.6840 O   0  0  0  0  0  0  0  0  0  0  0  0
  142.0060   73.9690  220.8360 C   0  0  0  0  0  0  0  0  0  0  0  0
  139.3360   69.5160  223.5810 N   0  0  0  0  0  0  0  0  0  0  0  0
  138.7420   68.7510  222.5080 C   0  0  0  0  0  0  0  0  0  0  0  0
  137.3050   68.5350  222.8040 C   0  0  0  0  0  0  0  0  0  0  0  0
  136.5450   67.7090  221.9670 C   0  0  0  0  0  0  0  0  0  0  0  0
  135.1970   67.4790  222.2110 C   0  0  0  0  0  0  0  0  0  0  0  0
  134.6020   68.0760  223.2950 C   0  0  0  0  0  0  0  0  0  0  0  0
  135.3120   68.8680  224.1050 N   0  0  0  0  0  0  0  0  0  0  0  0
  136.6270   69.0890  223.8620 C   0  0  0  0  0  0  0  0  0  0  0  0
  139.9297   68.0315  227.2502 H   0  0  0  0  0  0  0  0  0  0  0  0
  140.9065   69.3258  229.1632 H   0  0  0  0  0  0  0  0  0  0  0  0
  141.2671   72.7795  226.5945 H   0  0  0  0  0  0  0  0  0  0  0  0
  139.0164   71.0761  221.3645 H   0  0  0  0  0  0  0  0  0  0  0  0
  139.7551   73.5728  222.4093 H   0  0  0  0  0  0  0  0  0  0  0  0
  141.9935   70.7044  221.5613 H   0  0  0  0  0  0  0  0  0  0  0  0
  144.1549   70.8072  220.4488 H   0  0  0  0  0  0  0  0  0  0  0  0
  144.9903   72.9763  219.5512 H   0  0  0  0  0  0  0  0  0  0  0  0
  144.4430   75.1940  218.9550 H   0  0  0  0  0  0  0  0  0  0  0  0
  141.4042   74.8842  220.9377 H   0  0  0  0  0  0  0  0  0  0  0  0
  138.8444   69.3026  221.5618 H   0  0  0  0  0  0  0  0  0  0  0  0
  139.2519   67.7805  222.4183 H   0  0  0  0  0  0  0  0  0  0  0  0
  137.0248   67.2329  221.0992 H   0  0  0  0  0  0  0  0  0  0  0  0
  134.6136   66.8269  221.5443 H   0  0  0  0  0  0  0  0  0  0  0  0
  133.5351   67.9016  223.4981 H   0  0  0  0  0  0  0  0  0  0  0  0
  137.1803   69.7468  224.5484 H   0  0  0  0  0  0  0  0  0  0  0  0
  1  2  2  0
  2  3  1  0
  3  4  2  0
  4  5  1  0
  5  6  2  0
  6  7  1  0
  6  8  1  0
  8  9  2  0
  9 10  1  0
 10 11  2  0
 11 12  1  0
 12 13  2  0
 13 14  1  0
 14 15  2  0
 15 16  1  0
 16 17  2  0
 17 18  1  0
 18 19  1  0
 18 20  2  0
 11 21  1  0
 21 22  1  0
 22 23  1  0
 23 24  2  0
 24 25  1  0
 25 26  2  0
 26 27  1  0
 27 28  2  0
 21  2  1  0
 28 23  1  0
  9  3  1  0
 20 14  1  0
  4 29  1  0
  5 30  1  0
  8 31  1  0
 12 32  1  0
 13 33  1  0
 15 34  1  0
 16 35  1  0
 17 36  1  0
 19 37  1  0
 20 38  1  0
 22 39  1  0
 22 40  1  0
 24 41  1  0
 25 42  1  0
 26 43  1  0
 28 44  1  0
M  END
>  <smiles>  (20) 
O=c1c2ccc(F)cc2nc(/C=C/c2cccc(O)c2)n1Cc1cccnc1

>  <score_type>  (20) 
oracle

>  <origin>  (20) 
autodockgpu

>  <m_score__min__energy>  (20) 
-8.4100000000000001

>  <m_primary>  (20) 
energy

>  <rmsd>  (20) 
11.61602877604818

>  <m_score__min__rmsd>  (20) 
11.61602877604818

>  <meeko>  (20) 
{"free_energy": -7.23, "intermolecular_energy": -9.02, "internal_energy": -0.95, "cluster_size": 19, "cluster_id": 2, "rank_in_cluster": 19}

>  <energy>  (20) 
-7.57

>  <cluster_rmsd>  (20) 
1.81

>  <cluster>  (20) 
2

$$$$

     RDKit          3D

 44 47  0  0  0  0  0  0  0  0999 V2000
  142.3200   75.9260  218.8920 O   0  0  0  0  0  0  0  0  0  0  0  0
  141.7390   75.5020  219.9250 C   0  0  0  0  0  0  0  0  0  0  0  0
  141.1800   76.5010  220.7330 C   0  0  0  0  0  0  0  0  0  0  0  0
  141.2800   77.8330  220.3940 C   0  0  0  0  0  0  0  0  0  0  0  0
  140.7250   78.8280  221.1990 C   0  0  0  0  0  0  0  0  0  0  0  0
  140.0720   78.4240  222.3450 C   0  0  0  0  0  0  0  0  0  0  0  0
  139.5290   79.3750  223.1350 F   0  0  0  0  0  0  0  0  0  0  0  0
  139.9480   77.1120  222.7210 C   0  0  0  0  0  0  0  0  0  0  0  0
  140.5150   76.1610  221.8930 C   0  0  0  0  0  0  0  0  0  0  0  0
  140.4430   74.8510  222.1790 N   0  0  0  0  0  0  0  0  0  0  0  0
  140.9910   73.9040  221.3810 C   0  0  0  0  0  0  0  0  0  0  0  0
  140.7970   72.5190  221.8110 C   0  0  0  0  0  0  0  0  0  0  0  0
  139.7900   72.2140  222.6160 C   0  0  0  0  0  0  0  0  0  0  0  0
  139.9140   71.3000  223.7480 C   0  0  0  0  0  0  0  0  0  0  0  0
  140.6900   71.6590  224.8590 C   0  0  0  0  0  0  0  0  0  0  0  0
  140.8490   70.8600  225.9460 C   0  0  0  0  0  0  0  0  0  0  0  0
  140.2260   69.6290  225.9830 C   0  0  0  0  0  0  0  0  0  0  0  0
  139.4600   69.2400  224.9210 C   0  0  0  0  0  0  0  0  0  0  0  0
  138.8470   67.9960  224.9910 O   0  0  0  0  0  0  0  0  0  0  0  0
  139.3100   70.0750  223.8150 C   0  0  0  0  0  0  0  0  0  0  0  0
  141.6490   74.1940  220.2440 N   0  0  0  0  0  0  0  0  0  0  0  0
  142.2670   73.1980  219.3980 C   0  0  0  0  0  0  0  0  0  0  0  0
  143.7280   73.1840  219.6530 C   0  0  0  0  0  0  0  0  0  0  0  0
  144.2250   73.7250  220.8450 C   0  0  0  0  0  0  0  0  0  0  0  0
  145.5850   73.7290  221.1230 C   0  0  0  0  0  0  0  0  0  0  0  0
  146.4580   73.1920  220.2080 C   0  0  0  0  0  0  0  0  0  0  0  0
  146.0010   72.6720  219.0640 N   0  0  0  0  0  0  0  0  0  0  0  0
  144.6720   72.6710  218.7990 C   0  0  0  0  0  0  0  0  0  0  0  0
  141.8073   78.1170  219.4713 H   0  0  0  0  0  0  0  0  0  0  0  0
  140.8049   79.8918  220.9308 H   0  0  0  0  0  0  0  0  0  0  0  0
  139.4195   76.8275  223.6428 H   0  0  0  0  0  0  0  0  0  0  0  0
  141.4854   71.7331  221.4668 H   0  0  0  0  0  0  0  0  0  0  0  0
  138.8095   72.6731  222.4215 H   0  0  0  0  0  0  0  0  0  0  0  0
  141.1952   72.6361  224.8501 H   0  0  0  0  0  0  0  0  0  0  0  0
  141.4701   71.1919  226.7910 H   0  0  0  0  0  0  0  0  0  0  0  0
  140.3447   68.9701  226.8558 H   0  0  0  0  0  0  0  0  0  0  0  0
  138.1640   67.7470  224.2850 H   0  0  0  0  0  0  0  0  0  0  0  0
  138.6881   69.7390  222.9722 H   0  0  0  0  0  0  0  0  0  0  0  0
  141.8440   72.2082  219.6247 H   0  0  0  0  0  0  0  0  0  0  0  0
  142.0773   73.4395  218.3417 H   0  0  0  0  0  0  0  0  0  0  0  0
  143.5240   74.1553  221.5754 H   0  0  0  0  0  0  0  0  0  0  0  0
  145.9593   74.1570  222.0646 H   0  0  0  0  0  0  0  0  0  0  0  0
  147.5379   73.1898  220.4175 H   0  0  0  0  0  0  0  0  0  0  0  0
  144.3314   72.2355  217.8480 H   0  0  0  0  0  0  0  0  0  0  0  0
  1  2  2  0
  2  3  1  0
  3  4  2  0
  4  5  1  0
  5  6  2  0
  6  7  1  0
  6  8  1  0
  8  9  2  0
  9 10  1  0
 10 11  2  0
 11 12  1  0
 12 13  2  0
 13 14  1  0
 14 15  2  0
 15 16  1  0
 16 17  2  0
 17 18  1  0
 18 19  1  0
 18 20  2  0
 11 21  1  0
 21 22  1  0
 22 23  1  0
 23 24  2  0
 24 25  1  0
 25 26  2  0
 26 27  1  0
 27 28  2  0
 21  2  1  0
 28 23  1  0
  9  3  1  0
 20 14  1  0
  4 29  1  0
  5 30  1  0
  8 31  1  0
 12 32  1  0
 13 33  1  0
 15 34  1  0
 16 35  1  0
 17 36  1  0
 19 37  1  0
 20 38  1  0
 22 39  1  0
 22 40  1  0
 24 41  1  0
 25 42  1  0
 26 43  1  0
 28 44  1  0
M  END
>  <smiles>  (21) 
O=c1c2ccc(F)cc2nc(/C=C/c2cccc(O)c2)n1Cc1cccnc1

>  <score_type>  (21) 
oracle

>  <origin>  (21) 
autodockgpu

>  <m_score__min__energy>  (21) 
-8.4100000000000001

>  <m_primary>  (21) 
energy

>  <rmsd>  (21) 
5.573895642936614

>  <m_score__min__rmsd>  (21) 
5.573895642936614

>  <meeko>  (21) 
{"free_energy": -7.56, "intermolecular_energy": -9.35, "internal_energy": -0.99, "cluster_size": 17, "cluster_id": 1, "rank_in_cluster": 14}

>  <energy>  (21) 
-7.56

>  <cluster_rmsd>  (21) 
0.86

>  <cluster>  (21) 
2

$$$$

     RDKit          3D

 44 47  0  0  0  0  0  0  0  0999 V2000
  139.2000   67.7750  225.3150 O   0  0  0  0  0  0  0  0  0  0  0  0
  139.5300   68.9490  225.0050 C   0  0  0  0  0  0  0  0  0  0  0  0
  140.1200   69.6840  226.0400 C   0  0  0  0  0  0  0  0  0  0  0  0
  140.3060   69.1340  227.2900 C   0  0  0  0  0  0  0  0  0  0  0  0
  140.8940   69.8660  228.3230 C   0  0  0  0  0  0  0  0  0  0  0  0
  141.2780   71.1600  228.0420 C   0  0  0  0  0  0  0  0  0  0  0  0
  141.8480   71.8820  229.0310 F   0  0  0  0  0  0  0  0  0  0  0  0
  141.1130   71.7480  226.8150 C   0  0  0  0  0  0  0  0  0  0  0  0
  140.5270   70.9840  225.8230 C   0  0  0  0  0  0  0  0  0  0  0  0
  140.3240   71.4750  224.5880 N   0  0  0  0  0  0  0  0  0  0  0  0
  139.7530   70.7440  223.6030 C   0  0  0  0  0  0  0  0  0  0  0  0
  139.6340   71.4080  222.3050 C   0  0  0  0  0  0  0  0  0  0  0  0
  140.0020   72.6740  222.1760 C   0  0  0  0  0  0  0  0  0  0  0  0
  141.2330   73.0900  221.5110 C   0  0  0  0  0  0  0  0  0  0  0  0
  141.3960   74.4230  221.1070 C   0  0  0  0  0  0  0  0  0  0  0  0
  142.5130   74.8810  220.4840 C   0  0  0  0  0  0  0  0  0  0  0  0
  143.5530   74.0120  220.2250 C   0  0  0  0  0  0  0  0  0  0  0  0
  143.4360   72.7040  220.6020 C   0  0  0  0  0  0  0  0  0  0  0  0
  144.5010   71.8560  220.3260 O   0  0  0  0  0  0  0  0  0  0  0  0
  142.2810   72.2540  221.2400 C   0  0  0  0  0  0  0  0  0  0  0  0
  139.3410   69.4750  223.7750 N   0  0  0  0  0  0  0  0  0  0  0  0
  138.6990   68.6910  222.7440 C   0  0  0  0  0  0  0  0  0  0  0  0
  137.2460   68.6150  223.0260 C   0  0  0  0  0  0  0  0  0  0  0  0
  136.6820   69.4750  223.9770 C   0  0  0  0  0  0  0  0  0  0  0  0
  135.3240   69.4370  224.2680 C   0  0  0  0  0  0  0  0  0  0  0  0
  134.5230   68.5360  223.6100 C   0  0  0  0  0  0  0  0  0  0  0  0
  135.0440   67.7070  222.7000 N   0  0  0  0  0  0  0  0  0  0  0  0
  136.3700   67.7490  222.4200 C   0  0  0  0  0  0  0  0  0  0  0  0
  139.9850   68.0987  227.4772 H   0  0  0  0  0  0  0  0  0  0  0  0
  141.0449   69.4281  229.3208 H   0  0  0  0  0  0  0  0  0  0  0  0
  141.4332   72.7835  226.6276 H   0  0  0  0  0  0  0  0  0  0  0  0
  139.2399   70.8574  221.4381 H   0  0  0  0  0  0  0  0  0  0  0  0
  139.3455   73.4526  222.5918 H   0  0  0  0  0  0  0  0  0  0  0  0
  140.5791   75.1328  221.3043 H   0  0  0  0  0  0  0  0  0  0  0  0
  142.5878   75.9378  220.1879 H   0  0  0  0  0  0  0  0  0  0  0  0
  144.4642   74.3676  219.7217 H   0  0  0  0  0  0  0  0  0  0  0  0
  145.0790   71.5320  221.0930 H   0  0  0  0  0  0  0  0  0  0  0  0
  142.2105   71.1963  221.5339 H   0  0  0  0  0  0  0  0  0  0  0  0
  138.8598   69.1671  221.7655 H   0  0  0  0  0  0  0  0  0  0  0  0
  139.1269   67.6777  222.7288 H   0  0  0  0  0  0  0  0  0  0  0  0
  137.3266   70.1942  224.5035 H   0  0  0  0  0  0  0  0  0  0  0  0
  134.8956   70.1201  225.0162 H   0  0  0  0  0  0  0  0  0  0  0  0
  133.4466   68.4964  223.8331 H   0  0  0  0  0  0  0  0  0  0  0  0
  136.7651   67.0516  221.6667 H   0  0  0  0  0  0  0  0  0  0  0  0
  1  2  2  0
  2  3  1  0
  3  4  2  0
  4  5  1  0
  5  6  2  0
  6  7  1  0
  6  8  1  0
  8  9  2  0
  9 10  1  0
 10 11  2  0
 11 12  1  0
 12 13  2  0
 13 14  1  0
 14 15  2  0
 15 16  1  0
 16 17  2  0
 17 18  1  0
 18 19  1  0
 18 20  2  0
 11 21  1  0
 21 22  1  0
 22 23  1  0
 23 24  2  0
 24 25  1  0
 25 26  2  0
 26 27  1  0
 27 28  2  0
 21  2  1  0
 28 23  1  0
  9  3  1  0
 20 14  1  0
  4 29  1  0
  5 30  1  0
  8 31  1  0
 12 32  1  0
 13 33  1  0
 15 34  1  0
 16 35  1  0
 17 36  1  0
 19 37  1  0
 20 38  1  0
 22 39  1  0
 22 40  1  0
 24 41  1  0
 25 42  1  0
 26 43  1  0
 28 44  1  0
M  END
>  <smiles>  (22) 
O=c1c2ccc(F)cc2nc(/C=C/c2cccc(O)c2)n1Cc1cccnc1

>  <score_type>  (22) 
oracle

>  <origin>  (22) 
autodockgpu

>  <m_score__min__energy>  (22) 
-8.4100000000000001

>  <m_primary>  (22) 
energy

>  <rmsd>  (22) 
11.572965675265328

>  <m_score__min__rmsd>  (22) 
11.572965675265328

>  <meeko>  (22) 
{"free_energy": -7.49, "intermolecular_energy": -9.28, "internal_energy": -0.97, "cluster_size": 19, "cluster_id": 2, "rank_in_cluster": 11}

>  <energy>  (22) 
-7.56

>  <cluster_rmsd>  (22) 
0.84

>  <cluster>  (22) 
2

$$$$

     RDKit          3D

 44 47  0  0  0  0  0  0  0  0999 V2000
  141.7780   71.5320  219.4360 O   0  0  0  0  0  0  0  0  0  0  0  0
  141.3040   72.3000  220.3130 C   0  0  0  0  0  0  0  0  0  0  0  0
  140.4890   71.6720  221.2630 C   0  0  0  0  0  0  0  0  0  0  0  0
  140.2450   70.3160  221.2090 C   0  0  0  0  0  0  0  0  0  0  0  0
  139.4330   69.6890  222.1550 C   0  0  0  0  0  0  0  0  0  0  0  0
  138.8860   70.4810  223.1430 C   0  0  0  0  0  0  0  0  0  0  0  0
  138.0970   69.8890  224.0660 F   0  0  0  0  0  0  0  0  0  0  0  0
  139.1010   71.8310  223.2350 C   0  0  0  0  0  0  0  0  0  0  0  0
  139.9120   72.4080  222.2760 C   0  0  0  0  0  0  0  0  0  0  0  0
  140.1810   73.7250  222.2860 N   0  0  0  0  0  0  0  0  0  0  0  0
  140.9730   74.3090  221.3560 C   0  0  0  0  0  0  0  0  0  0  0  0
  141.1970   75.7450  221.5240 C   0  0  0  0  0  0  0  0  0  0  0  0
  140.3500   76.4650  222.2430 C   0  0  0  0  0  0  0  0  0  0  0  0
  140.5860   77.8580  222.6080 C   0  0  0  0  0  0  0  0  0  0  0  0
  139.5410   78.6340  223.1300 C   0  0  0  0  0  0  0  0  0  0  0  0
  139.6880   79.9350  223.4920 C   0  0  0  0  0  0  0  0  0  0  0  0
  140.9160   80.5470  223.3480 C   0  0  0  0  0  0  0  0  0  0  0  0
  141.9620   79.8280  222.8430 C   0  0  0  0  0  0  0  0  0  0  0  0
  143.1840   80.4740  222.7120 O   0  0  0  0  0  0  0  0  0  0  0  0
  141.7900   78.4940  222.4780 C   0  0  0  0  0  0  0  0  0  0  0  0
  141.5520   73.6270  220.3520 N   0  0  0  0  0  0  0  0  0  0  0  0
  142.3740   74.2400  219.3330 C   0  0  0  0  0  0  0  0  0  0  0  0
  143.7930   73.8840  219.5750 C   0  0  0  0  0  0  0  0  0  0  0  0
  144.3520   74.1000  220.8410 C   0  0  0  0  0  0  0  0  0  0  0  0
  145.6760   73.7780  221.1090 C   0  0  0  0  0  0  0  0  0  0  0  0
  146.4490   73.2380  220.1110 C   0  0  0  0  0  0  0  0  0  0  0  0
  145.9330   73.0250  218.8960 N   0  0  0  0  0  0  0  0  0  0  0  0
  144.6400   73.3420  218.6410 C   0  0  0  0  0  0  0  0  0  0  0  0
  140.6988   69.7174  220.4054 H   0  0  0  0  0  0  0  0  0  0  0  0
  139.2372   68.6073  222.1144 H   0  0  0  0  0  0  0  0  0  0  0  0
  138.6473   72.4303  224.0381 H   0  0  0  0  0  0  0  0  0  0  0  0
  142.0676   76.2256  221.0538 H   0  0  0  0  0  0  0  0  0  0  0  0
  139.4191   75.9879  222.5832 H   0  0  0  0  0  0  0  0  0  0  0  0
  138.5531   78.1659  223.2524 H   0  0  0  0  0  0  0  0  0  0  0  0
  138.8336   80.4968  223.8973 H   0  0  0  0  0  0  0  0  0  0  0  0
  141.0511   81.6000  223.6360 H   0  0  0  0  0  0  0  0  0  0  0  0
  143.8290   80.1590  221.9960 H   0  0  0  0  0  0  0  0  0  0  0  0
  142.6475   77.9363  222.0735 H   0  0  0  0  0  0  0  0  0  0  0  0
  142.0663   73.8743  218.3423 H   0  0  0  0  0  0  0  0  0  0  0  0
  142.2549   75.3329  219.3687 H   0  0  0  0  0  0  0  0  0  0  0  0
  143.7302   74.5331  221.6384 H   0  0  0  0  0  0  0  0  0  0  0  0
  146.1003   73.9534  222.1086 H   0  0  0  0  0  0  0  0  0  0  0  0
  147.4990   72.9791  220.3122 H   0  0  0  0  0  0  0  0  0  0  0  0
  144.2482   73.1546  217.6304 H   0  0  0  0  0  0  0  0  0  0  0  0
  1  2  2  0
  2  3  1  0
  3  4  2  0
  4  5  1  0
  5  6  2  0
  6  7  1  0
  6  8  1  0
  8  9  2  0
  9 10  1  0
 10 11  2  0
 11 12  1  0
 12 13  2  0
 13 14  1  0
 14 15  2  0
 15 16  1  0
 16 17  2  0
 17 18  1  0
 18 19  1  0
 18 20  2  0
 11 21  1  0
 21 22  1  0
 22 23  1  0
 23 24  2  0
 24 25  1  0
 25 26  2  0
 26 27  1  0
 27 28  2  0
 21  2  1  0
 28 23  1  0
  9  3  1  0
 20 14  1  0
  4 29  1  0
  5 30  1  0
  8 31  1  0
 12 32  1  0
 13 33  1  0
 15 34  1  0
 16 35  1  0
 17 36  1  0
 19 37  1  0
 20 38  1  0
 22 39  1  0
 22 40  1  0
 24 41  1  0
 25 42  1  0
 26 43  1  0
 28 44  1  0
M  END
>  <smiles>  (23) 
O=c1c2ccc(F)cc2nc(/C=C/c2cccc(O)c2)n1Cc1cccnc1

>  <score_type>  (23) 
oracle

>  <origin>  (23) 
autodockgpu

>  <m_score__min__energy>  (23) 
-8.4100000000000001

>  <m_primary>  (23) 
energy

>  <rmsd>  (23) 
8.865728778699928

>  <m_score__min__rmsd>  (23) 
8.865728778699928

>  <meeko>  (23) 
{"free_energy": -7.47, "intermolecular_energy": -9.26, "internal_energy": -0.96, "cluster_size": 2, "cluster_id": 3, "rank_in_cluster": 1}

>  <energy>  (23) 
-7.55

>  <cluster_rmsd>  (23) 
0.86

>  <cluster>  (23) 
2

$$$$

     RDKit          3D

 44 47  0  0  0  0  0  0  0  0999 V2000
  138.2910   68.7140  224.8490 O   0  0  0  0  0  0  0  0  0  0  0  0
  139.0130   69.7260  224.6520 C   0  0  0  0  0  0  0  0  0  0  0  0
  139.7070   70.1780  225.7810 C   0  0  0  0  0  0  0  0  0  0  0  0
  139.5830   69.5410  226.9980 C   0  0  0  0  0  0  0  0  0  0  0  0
  140.2740   69.9920  228.1240 C   0  0  0  0  0  0  0  0  0  0  0  0
  141.0830   71.0980  227.9690 C   0  0  0  0  0  0  0  0  0  0  0  0
  141.7580   71.5460  229.0500 F   0  0  0  0  0  0  0  0  0  0  0  0
  141.2360   71.7610  226.7800 C   0  0  0  0  0  0  0  0  0  0  0  0
  140.5330   71.2790  225.6920 C   0  0  0  0  0  0  0  0  0  0  0  0
  140.6210   71.8640  224.4860 N   0  0  0  0  0  0  0  0  0  0  0  0
  139.9400   71.4080  223.4090 C   0  0  0  0  0  0  0  0  0  0  0  0
  140.1690   72.1320  222.1580 C   0  0  0  0  0  0  0  0  0  0  0  0
  141.1070   71.7180  221.3190 C   0  0  0  0  0  0  0  0  0  0  0  0
  142.2810   72.5120  220.9700 C   0  0  0  0  0  0  0  0  0  0  0  0
  142.1630   73.8980  220.7920 C   0  0  0  0  0  0  0  0  0  0  0  0
  143.2110   74.6990  220.4670 C   0  0  0  0  0  0  0  0  0  0  0  0
  144.4640   74.1470  220.2970 C   0  0  0  0  0  0  0  0  0  0  0  0
  144.6230   72.8000  220.4600 C   0  0  0  0  0  0  0  0  0  0  0  0
  145.8970   72.2760  220.2820 O   0  0  0  0  0  0  0  0  0  0  0  0
  143.5350   71.9950  220.7940 C   0  0  0  0  0  0  0  0  0  0  0  0
  139.1240   70.3390  223.4540 N   0  0  0  0  0  0  0  0  0  0  0  0
  138.3650   69.8580  222.3220 C   0  0  0  0  0  0  0  0  0  0  0  0
  138.9990   68.6220  221.8040 C   0  0  0  0  0  0  0  0  0  0  0  0
  138.6080   67.3790  222.3160 C   0  0  0  0  0  0  0  0  0  0  0  0
  139.1740   66.1970  221.8560 C   0  0  0  0  0  0  0  0  0  0  0  0
  140.1390   66.2530  220.8810 C   0  0  0  0  0  0  0  0  0  0  0  0
  140.5270   67.4310  220.3800 N   0  0  0  0  0  0  0  0  0  0  0  0
  139.9690   68.5810  220.8330 C   0  0  0  0  0  0  0  0  0  0  0  0
  138.9277   68.6616  227.0829 H   0  0  0  0  0  0  0  0  0  0  0  0
  140.1771   69.4856  229.0957 H   0  0  0  0  0  0  0  0  0  0  0  0
  141.8912   72.6405  226.6947 H   0  0  0  0  0  0  0  0  0  0  0  0
  139.5638   73.0178  221.9149 H   0  0  0  0  0  0  0  0  0  0  0  0
  140.9952   70.7239  220.8615 H   0  0  0  0  0  0  0  0  0  0  0  0
  141.1729   74.3594  220.9220 H   0  0  0  0  0  0  0  0  0  0  0  0
  143.0615   75.7814  220.3401 H   0  0  0  0  0  0  0  0  0  0  0  0
  145.3226   74.7824  220.0340 H   0  0  0  0  0  0  0  0  0  0  0  0
  146.2890   71.6880  221.0080 H   0  0  0  0  0  0  0  0  0  0  0  0
  143.6894   70.9132  220.9196 H   0  0  0  0  0  0  0  0  0  0  0  0
  137.3336   69.6395  222.6359 H   0  0  0  0  0  0  0  0  0  0  0  0
  138.3484   70.6249  221.5336 H   0  0  0  0  0  0  0  0  0  0  0  0
  137.8364   67.3376  223.0989 H   0  0  0  0  0  0  0  0  0  0  0  0
  138.8533   65.2286  222.2675 H   0  0  0  0  0  0  0  0  0  0  0  0
  140.5957   65.3237  220.5097 H   0  0  0  0  0  0  0  0  0  0  0  0
  140.3118   69.5320  220.3993 H   0  0  0  0  0  0  0  0  0  0  0  0
  1  2  2  0
  2  3  1  0
  3  4  2  0
  4  5  1  0
  5  6  2  0
  6  7  1  0
  6  8  1  0
  8  9  2  0
  9 10  1  0
 10 11  2  0
 11 12  1  0
 12 13  2  0
 13 14  1  0
 14 15  2  0
 15 16  1  0
 16 17  2  0
 17 18  1  0
 18 19  1  0
 18 20  2  0
 11 21  1  0
 21 22  1  0
 22 23  1  0
 23 24  2  0
 24 25  1  0
 25 26  2  0
 26 27  1  0
 27 28  2  0
 21  2  1  0
 28 23  1  0
  9  3  1  0
 20 14  1  0
  4 29  1  0
  5 30  1  0
  8 31  1  0
 12 32  1  0
 13 33  1  0
 15 34  1  0
 16 35  1  0
 17 36  1  0
 19 37  1  0
 20 38  1  0
 22 39  1  0
 22 40  1  0
 24 41  1  0
 25 42  1  0
 26 43  1  0
 28 44  1  0
M  END
>  <smiles>  (24) 
O=c1c2ccc(F)cc2nc(/C=C/c2cccc(O)c2)n1Cc1cccnc1

>  <score_type>  (24) 
oracle

>  <origin>  (24) 
autodockgpu

>  <m_score__min__energy>  (24) 
-8.4100000000000001

>  <m_primary>  (24) 
energy

>  <rmsd>  (24) 
11.306720516038153

>  <m_score__min__rmsd>  (24) 
11.306720516038153

>  <meeko>  (24) 
{"free_energy": -7.42, "intermolecular_energy": -9.21, "internal_energy": -1.04, "cluster_size": 19, "cluster_id": 2, "rank_in_cluster": 17}

>  <energy>  (24) 
-7.54

>  <cluster_rmsd>  (24) 
1.79

>  <cluster>  (24) 
2

$$$$

     RDKit          3D

 44 47  0  0  0  0  0  0  0  0999 V2000
  140.0290   71.8850  224.8470 O   0  0  0  0  0  0  0  0  0  0  0  0
  139.6080   70.6990  224.8390 C   0  0  0  0  0  0  0  0  0  0  0  0
  140.0160   69.9270  225.9330 C   0  0  0  0  0  0  0  0  0  0  0  0
  140.8190   70.4560  226.9210 C   0  0  0  0  0  0  0  0  0  0  0  0
  141.2280   69.6860  228.0110 C   0  0  0  0  0  0  0  0  0  0  0  0
  140.7960   68.3770  228.0590 C   0  0  0  0  0  0  0  0  0  0  0  0
  141.1820   67.6190  229.1080 F   0  0  0  0  0  0  0  0  0  0  0  0
  139.9980   67.8100  227.1010 C   0  0  0  0  0  0  0  0  0  0  0  0
  139.6180   68.6100  226.0390 C   0  0  0  0  0  0  0  0  0  0  0  0
  138.8360   68.1410  225.0520 N   0  0  0  0  0  0  0  0  0  0  0  0
  138.4540   68.9090  224.0050 C   0  0  0  0  0  0  0  0  0  0  0  0
  137.5730   68.2630  223.0320 C   0  0  0  0  0  0  0  0  0  0  0  0
  136.2770   68.5350  223.0330 C   0  0  0  0  0  0  0  0  0  0  0  0
  135.6440   69.4340  223.9940 C   0  0  0  0  0  0  0  0  0  0  0  0
  134.8500   68.9130  225.0250 C   0  0  0  0  0  0  0  0  0  0  0  0
  134.2320   69.6880  225.9540 C   0  0  0  0  0  0  0  0  0  0  0  0
  134.3770   71.0590  225.9020 C   0  0  0  0  0  0  0  0  0  0  0  0
  135.1430   71.6090  224.9130 C   0  0  0  0  0  0  0  0  0  0  0  0
  135.2670   72.9920  224.8890 O   0  0  0  0  0  0  0  0  0  0  0  0
  135.7680   70.7950  223.9690 C   0  0  0  0  0  0  0  0  0  0  0  0
  138.8220   70.1950  223.8640 N   0  0  0  0  0  0  0  0  0  0  0  0
  138.4490   71.0190  222.7360 C   0  0  0  0  0  0  0  0  0  0  0  0
  139.6520   71.7220  222.2310 C   0  0  0  0  0  0  0  0  0  0  0  0
  140.6540   70.9930  221.5770 C   0  0  0  0  0  0  0  0  0  0  0  0
  141.7950   71.6140  221.0860 C   0  0  0  0  0  0  0  0  0  0  0  0
  141.9410   72.9700  221.2480 C   0  0  0  0  0  0  0  0  0  0  0  0
  140.9950   73.6830  221.8700 N   0  0  0  0  0  0  0  0  0  0  0  0
  139.8840   73.0700  222.3470 C   0  0  0  0  0  0  0  0  0  0  0  0
  141.1435   71.5046  226.8489 H   0  0  0  0  0  0  0  0  0  0  0  0
  141.8690   70.1062  228.8000 H   0  0  0  0  0  0  0  0  0  0  0  0
  139.6729   66.7616  227.1734 H   0  0  0  0  0  0  0  0  0  0  0  0
  137.9864   67.5526  222.3009 H   0  0  0  0  0  0  0  0  0  0  0  0
  135.6440   68.0587  222.2698 H   0  0  0  0  0  0  0  0  0  0  0  0
  134.7209   67.8222  225.0848 H   0  0  0  0  0  0  0  0  0  0  0  0
  133.6201   69.2255  226.7424 H   0  0  0  0  0  0  0  0  0  0  0  0
  133.8828   71.7006  226.6464 H   0  0  0  0  0  0  0  0  0  0  0  0
  136.1890   73.3970  224.7720 H   0  0  0  0  0  0  0  0  0  0  0  0
  136.3783   71.2615  223.1816 H   0  0  0  0  0  0  0  0  0  0  0  0
  138.0307   70.3859  221.9396 H   0  0  0  0  0  0  0  0  0  0  0  0
  137.6931   71.7547  223.0480 H   0  0  0  0  0  0  0  0  0  0  0  0
  140.5345   69.9069  221.4499 H   0  0  0  0  0  0  0  0  0  0  0  0
  142.5719   71.0273  220.5739 H   0  0  0  0  0  0  0  0  0  0  0  0
  142.8409   73.4728  220.8641 H   0  0  0  0  0  0  0  0  0  0  0  0
  139.1273   73.6862  222.8546 H   0  0  0  0  0  0  0  0  0  0  0  0
  1  2  2  0
  2  3  1  0
  3  4  2  0
  4  5  1  0
  5  6  2  0
  6  7  1  0
  6  8  1  0
  8  9  2  0
  9 10  1  0
 10 11  2  0
 11 12  1  0
 12 13  2  0
 13 14  1  0
 14 15  2  0
 15 16  1  0
 16 17  2  0
 17 18  1  0
 18 19  1  0
 18 20  2  0
 11 21  1  0
 21 22  1  0
 22 23  1  0
 23 24  2  0
 24 25  1  0
 25 26  2  0
 26 27  1  0
 27 28  2  0
 21  2  1  0
 28 23  1  0
  9  3  1  0
 20 14  1  0
  4 29  1  0
  5 30  1  0
  8 31  1  0
 12 32  1  0
 13 33  1  0
 15 34  1  0
 16 35  1  0
 17 36  1  0
 19 37  1  0
 20 38  1  0
 22 39  1  0
 22 40  1  0
 24 41  1  0
 25 42  1  0
 26 43  1  0
 28 44  1  0
M  END
>  <smiles>  (25) 
O=c1c2ccc(F)cc2nc(/C=C/c2cccc(O)c2)n1Cc1cccnc1

>  <score_type>  (25) 
oracle

>  <origin>  (25) 
autodockgpu

>  <m_score__min__energy>  (25) 
-8.4100000000000001

>  <m_primary>  (25) 
energy

>  <rmsd>  (25) 
10.594175515362087

>  <m_score__min__rmsd>  (25) 
10.594175515362087

>  <meeko>  (25) 
{"free_energy": -6.78, "intermolecular_energy": -8.57, "internal_energy": -1.05, "cluster_size": 1, "cluster_id": 6, "rank_in_cluster": 1}

>  <energy>  (25) 
-7.52

>  <cluster_rmsd>  (25) 
1.84

>  <cluster>  (25) 
2

$$$$

     RDKit          3D

 44 47  0  0  0  0  0  0  0  0999 V2000
  139.1630   67.7540  225.4620 O   0  0  0  0  0  0  0  0  0  0  0  0
  139.4350   68.9410  225.1460 C   0  0  0  0  0  0  0  0  0  0  0  0
  140.0930   69.6760  226.1400 C   0  0  0  0  0  0  0  0  0  0  0  0
  140.4000   69.1110  227.3600 C   0  0  0  0  0  0  0  0  0  0  0  0
  141.0550   69.8420  228.3510 C   0  0  0  0  0  0  0  0  0  0  0  0
  141.3800   71.1510  228.0620 C   0  0  0  0  0  0  0  0  0  0  0  0
  142.0140   71.8720  229.0110 F   0  0  0  0  0  0  0  0  0  0  0  0
  141.0940   71.7530  226.8650 C   0  0  0  0  0  0  0  0  0  0  0  0
  140.4450   70.9900  225.9120 C   0  0  0  0  0  0  0  0  0  0  0  0
  140.1250   71.4940  224.7090 N   0  0  0  0  0  0  0  0  0  0  0  0
  139.4890   70.7630  223.7630 C   0  0  0  0  0  0  0  0  0  0  0  0
  139.2420   71.4450  222.4920 C   0  0  0  0  0  0  0  0  0  0  0  0
  140.1530   71.4000  221.5320 C   0  0  0  0  0  0  0  0  0  0  0  0
  141.0700   72.4970  221.2410 C   0  0  0  0  0  0  0  0  0  0  0  0
  142.3360   72.2300  220.7000 C   0  0  0  0  0  0  0  0  0  0  0  0
  143.2390   73.2000  220.4030 C   0  0  0  0  0  0  0  0  0  0  0  0
  142.9210   74.5220  220.6380 C   0  0  0  0  0  0  0  0  0  0  0  0
  141.6980   74.8270  221.1640 C   0  0  0  0  0  0  0  0  0  0  0  0
  141.4090   76.1670  221.3880 O   0  0  0  0  0  0  0  0  0  0  0  0
  140.7850   73.8170  221.4610 C   0  0  0  0  0  0  0  0  0  0  0  0
  139.1270   69.4810  223.9470 N   0  0  0  0  0  0  0  0  0  0  0  0
  138.4200   68.6960  222.9600 C   0  0  0  0  0  0  0  0  0  0  0  0
  136.9880   68.6200  223.3370 C   0  0  0  0  0  0  0  0  0  0  0  0
  136.5110   69.4000  224.3980 C   0  0  0  0  0  0  0  0  0  0  0  0
  135.1760   69.3590  224.7800 C   0  0  0  0  0  0  0  0  0  0  0  0
  134.3110   68.5350  224.1040 C   0  0  0  0  0  0  0  0  0  0  0  0
  134.7480   67.7820  223.0890 N   0  0  0  0  0  0  0  0  0  0  0  0
  136.0520   67.8270  222.7200 C   0  0  0  0  0  0  0  0  0  0  0  0
  140.1232   68.0644  227.5552 H   0  0  0  0  0  0  0  0  0  0  0  0
  141.3025   69.3926  229.3240 H   0  0  0  0  0  0  0  0  0  0  0  0
  141.3693   72.8000  226.6702 H   0  0  0  0  0  0  0  0  0  0  0  0
  138.3018   71.9938  222.3345 H   0  0  0  0  0  0  0  0  0  0  0  0
  140.2221   70.4874  220.9217 H   0  0  0  0  0  0  0  0  0  0  0  0
  142.6114   71.1827  220.5066 H   0  0  0  0  0  0  0  0  0  0  0  0
  144.2178   72.9334  219.9777 H   0  0  0  0  0  0  0  0  0  0  0  0
  143.6424   75.3191  220.4050 H   0  0  0  0  0  0  0  0  0  0  0  0
  142.1390   76.7700  221.7530 H   0  0  0  0  0  0  0  0  0  0  0  0
  139.8069   74.0888  221.8846 H   0  0  0  0  0  0  0  0  0  0  0  0
  138.5165   69.1716  221.9728 H   0  0  0  0  0  0  0  0  0  0  0  0
  138.8465   67.6830  222.9167 H   0  0  0  0  0  0  0  0  0  0  0  0
  137.2069   70.0578  224.9393 H   0  0  0  0  0  0  0  0  0  0  0  0
  134.8164   69.9794  225.6142 H   0  0  0  0  0  0  0  0  0  0  0  0
  133.2521   68.4938  224.3990 H   0  0  0  0  0  0  0  0  0  0  0  0
  136.3776   67.1942  221.8812 H   0  0  0  0  0  0  0  0  0  0  0  0
  1  2  2  0
  2  3  1  0
  3  4  2  0
  4  5  1  0
  5  6  2  0
  6  7  1  0
  6  8  1  0
  8  9  2  0
  9 10  1  0
 10 11  2  0
 11 12  1  0
 12 13  2  0
 13 14  1  0
 14 15  2  0
 15 16  1  0
 16 17  2  0
 17 18  1  0
 18 19  1  0
 18 20  2  0
 11 21  1  0
 21 22  1  0
 22 23  1  0
 23 24  2  0
 24 25  1  0
 25 26  2  0
 26 27  1  0
 27 28  2  0
 21  2  1  0
 28 23  1  0
  9  3  1  0
 20 14  1  0
  4 29  1  0
  5 30  1  0
  8 31  1  0
 12 32  1  0
 13 33  1  0
 15 34  1  0
 16 35  1  0
 17 36  1  0
 19 37  1  0
 20 38  1  0
 22 39  1  0
 22 40  1  0
 24 41  1  0
 25 42  1  0
 26 43  1  0
 28 44  1  0
M  END
>  <smiles>  (26) 
O=c1c2ccc(F)cc2nc(/C=C/c2cccc(O)c2)n1Cc1cccnc1

>  <score_type>  (26) 
oracle

>  <origin>  (26) 
autodockgpu

>  <m_score__min__energy>  (26) 
-8.4100000000000001

>  <m_primary>  (26) 
energy

>  <rmsd>  (26) 
11.730280242580994

>  <m_score__min__rmsd>  (26) 
11.730280242580994

>  <meeko>  (26) 
{"free_energy": -7.54, "intermolecular_energy": -9.33, "internal_energy": -0.99, "cluster_size": 19, "cluster_id": 2, "rank_in_cluster": 7}

>  <energy>  (26) 
-7.5

>  <cluster_rmsd>  (26) 
1.76

>  <cluster>  (26) 
2

$$$$

     RDKit          3D

 44 47  0  0  0  0  0  0  0  0999 V2000
  138.1960   76.8010  221.9960 O   0  0  0  0  0  0  0  0  0  0  0  0
  138.8450   77.7180  222.5630 C   0  0  0  0  0  0  0  0  0  0  0  0
  138.0560   78.7230  223.1370 C   0  0  0  0  0  0  0  0  0  0  0  0
  136.6800   78.6800  223.0660 C   0  0  0  0  0  0  0  0  0  0  0  0
  135.8950   79.6810  223.6380 C   0  0  0  0  0  0  0  0  0  0  0  0
  136.5500   80.7140  224.2750 C   0  0  0  0  0  0  0  0  0  0  0  0
  135.8030   81.6910  224.8330 F   0  0  0  0  0  0  0  0  0  0  0  0
  137.9140   80.7980  224.3700 C   0  0  0  0  0  0  0  0  0  0  0  0
  138.6520   79.7830  223.7890 C   0  0  0  0  0  0  0  0  0  0  0  0
  139.9950   79.7790  223.8330 N   0  0  0  0  0  0  0  0  0  0  0  0
  140.7350   78.7950  223.2700 C   0  0  0  0  0  0  0  0  0  0  0  0
  142.1840   78.9170  223.4340 C   0  0  0  0  0  0  0  0  0  0  0  0
  142.8310   79.9140  222.8510 C   0  0  0  0  0  0  0  0  0  0  0  0
  142.2240   80.7990  221.8620 C   0  0  0  0  0  0  0  0  0  0  0  0
  141.6240   82.0000  222.2690 C   0  0  0  0  0  0  0  0  0  0  0  0
  141.0410   82.8710  221.4050 C   0  0  0  0  0  0  0  0  0  0  0  0
  141.0250   82.5840  220.0550 C   0  0  0  0  0  0  0  0  0  0  0  0
  141.5990   81.4250  219.6160 C   0  0  0  0  0  0  0  0  0  0  0  0
  141.5650   81.1670  218.2520 O   0  0  0  0  0  0  0  0  0  0  0  0
  142.1920   80.5440  220.5190 C   0  0  0  0  0  0  0  0  0  0  0  0
  140.1930   77.7470  222.6240 N   0  0  0  0  0  0  0  0  0  0  0  0
  140.9690   76.7050  221.9910 C   0  0  0  0  0  0  0  0  0  0  0  0
  141.3340   77.1370  220.6200 C   0  0  0  0  0  0  0  0  0  0  0  0
  142.5800   76.7780  220.0920 C   0  0  0  0  0  0  0  0  0  0  0  0
  142.9580   77.1600  218.8120 C   0  0  0  0  0  0  0  0  0  0  0  0
  142.0910   77.9070  218.0520 C   0  0  0  0  0  0  0  0  0  0  0  0
  140.8970   78.2600  218.5400 N   0  0  0  0  0  0  0  0  0  0  0  0
  140.5340   77.8830  219.7900 C   0  0  0  0  0  0  0  0  0  0  0  0
  136.1921   77.8408  222.5487 H   0  0  0  0  0  0  0  0  0  0  0  0
  134.7969   79.6478  223.5832 H   0  0  0  0  0  0  0  0  0  0  0  0
  138.4018   81.6376  224.8868 H   0  0  0  0  0  0  0  0  0  0  0  0
  142.7342   78.1822  224.0401 H   0  0  0  0  0  0  0  0  0  0  0  0
  143.8821   80.0845  223.1267 H   0  0  0  0  0  0  0  0  0  0  0  0
  141.6257   82.2486  223.3405 H   0  0  0  0  0  0  0  0  0  0  0  0
  140.5845   83.7993  221.7789 H   0  0  0  0  0  0  0  0  0  0  0  0
  140.5565   83.2790  219.3426 H   0  0  0  0  0  0  0  0  0  0  0  0
  141.3810   80.2200  217.9380 H   0  0  0  0  0  0  0  0  0  0  0  0
  142.6473   79.6170  220.1403 H   0  0  0  0  0  0  0  0  0  0  0  0
  141.8829   76.5202  222.5746 H   0  0  0  0  0  0  0  0  0  0  0  0
  140.3768   75.7792  221.9426 H   0  0  0  0  0  0  0  0  0  0  0  0
  143.2731   76.1815  220.7034 H   0  0  0  0  0  0  0  0  0  0  0  0
  143.9399   76.8681  218.4111 H   0  0  0  0  0  0  0  0  0  0  0  0
  142.3804   78.2164  217.0368 H   0  0  0  0  0  0  0  0  0  0  0  0
  139.5449   78.1913  220.1597 H   0  0  0  0  0  0  0  0  0  0  0  0
  1  2  2  0
  2  3  1  0
  3  4  2  0
  4  5  1  0
  5  6  2  0
  6  7  1  0
  6  8  1  0
  8  9  2  0
  9 10  1  0
 10 11  2  0
 11 12  1  0
 12 13  2  0
 13 14  1  0
 14 15  2  0
 15 16  1  0
 16 17  2  0
 17 18  1  0
 18 19  1  0
 18 20  2  0
 11 21  1  0
 21 22  1  0
 22 23  1  0
 23 24  2  0
 24 25  1  0
 25 26  2  0
 26 27  1  0
 27 28  2  0
 21  2  1  0
 28 23  1  0
  9  3  1  0
 20 14  1  0
  4 29  1  0
  5 30  1  0
  8 31  1  0
 12 32  1  0
 13 33  1  0
 15 34  1  0
 16 35  1  0
 17 36  1  0
 19 37  1  0
 20 38  1  0
 22 39  1  0
 22 40  1  0
 24 41  1  0
 25 42  1  0
 26 43  1  0
 28 44  1  0
M  END
>  <smiles>  (27) 
O=c1c2ccc(F)cc2nc(/C=C/c2cccc(O)c2)n1Cc1cccnc1

>  <score_type>  (27) 
oracle

>  <origin>  (27) 
autodockgpu

>  <m_score__min__energy>  (27) 
-8.4100000000000001

>  <m_primary>  (27) 
energy

>  <rmsd>  (27) 
4.242874452759399

>  <m_score__min__rmsd>  (27) 
4.242874452759399

>  <meeko>  (27) 
{"free_energy": -5.52, "intermolecular_energy": -7.31, "internal_energy": -2.63, "cluster_size": 3, "cluster_id": 10, "rank_in_cluster": 2}

>  <energy>  (27) 
-7.49

>  <cluster_rmsd>  (27) 
1.85

>  <cluster>  (27) 
2

$$$$

     RDKit          3D

 44 47  0  0  0  0  0  0  0  0999 V2000
  141.4840   74.0510  218.7140 O   0  0  0  0  0  0  0  0  0  0  0  0
  141.0550   73.9010  219.8880 C   0  0  0  0  0  0  0  0  0  0  0  0
  140.2250   74.9320  220.3430 C   0  0  0  0  0  0  0  0  0  0  0  0
  139.9250   76.0130  219.5430 C   0  0  0  0  0  0  0  0  0  0  0  0
  139.0980   77.0420  219.9960 C   0  0  0  0  0  0  0  0  0  0  0  0
  138.5950   76.9320  221.2760 C   0  0  0  0  0  0  0  0  0  0  0  0
  137.7930   77.9200  221.7300 F   0  0  0  0  0  0  0  0  0  0  0  0
  138.8670   75.8760  222.1060 C   0  0  0  0  0  0  0  0  0  0  0  0
  139.6900   74.8810  221.6140 C   0  0  0  0  0  0  0  0  0  0  0  0
  140.0110   73.8070  222.3550 N   0  0  0  0  0  0  0  0  0  0  0  0
  140.8160   72.8220  221.8910 C   0  0  0  0  0  0  0  0  0  0  0  0
  141.0420   71.7030  222.8060 C   0  0  0  0  0  0  0  0  0  0  0  0
  140.0140   70.9960  223.2490 C   0  0  0  0  0  0  0  0  0  0  0  0
  139.9710   70.3810  224.5720 C   0  0  0  0  0  0  0  0  0  0  0  0
  140.3890   71.1050  225.6980 C   0  0  0  0  0  0  0  0  0  0  0  0
  140.3760   70.5980  226.9570 C   0  0  0  0  0  0  0  0  0  0  0  0
  139.9360   69.3070  227.1670 C   0  0  0  0  0  0  0  0  0  0  0  0
  139.5200   68.5650  226.0980 C   0  0  0  0  0  0  0  0  0  0  0  0
  139.0840   67.2700  226.3440 O   0  0  0  0  0  0  0  0  0  0  0  0
  139.5410   69.1050  224.8130 C   0  0  0  0  0  0  0  0  0  0  0  0
  141.3580   72.8350  220.6600 N   0  0  0  0  0  0  0  0  0  0  0  0
  142.2450   71.8080  220.1620 C   0  0  0  0  0  0  0  0  0  0  0  0
  143.6300   72.3360  220.1320 C   0  0  0  0  0  0  0  0  0  0  0  0
  143.9290   73.5270  220.8050 C   0  0  0  0  0  0  0  0  0  0  0  0
  145.2150   74.0530  220.8040 C   0  0  0  0  0  0  0  0  0  0  0  0
  146.2090   73.3900  220.1270 C   0  0  0  0  0  0  0  0  0  0  0  0
  145.9420   72.2520  219.4780 N   0  0  0  0  0  0  0  0  0  0  0  0
  144.6860   71.7430  219.4840 C   0  0  0  0  0  0  0  0  0  0  0  0
  140.3453   76.0660  218.5279 H   0  0  0  0  0  0  0  0  0  0  0  0
  138.8571   77.9055  219.3585 H   0  0  0  0  0  0  0  0  0  0  0  0
  138.4477   75.8227  223.1215 H   0  0  0  0  0  0  0  0  0  0  0  0
  142.0637   71.4496  223.1252 H   0  0  0  0  0  0  0  0  0  0  0  0
  139.1467   70.8652  222.5851 H   0  0  0  0  0  0  0  0  0  0  0  0
  140.7453   72.1356  225.5536 H   0  0  0  0  0  0  0  0  0  0  0  0
  140.7141   71.2123  227.8046 H   0  0  0  0  0  0  0  0  0  0  0  0
  139.9204   68.8813  228.1812 H   0  0  0  0  0  0  0  0  0  0  0  0
  139.6860   66.6420  226.8640 H   0  0  0  0  0  0  0  0  0  0  0  0
  139.2020   68.4872  223.9684 H   0  0  0  0  0  0  0  0  0  0  0  0
  142.1998   70.9299  220.8230 H   0  0  0  0  0  0  0  0  0  0  0  0
  141.9385   71.5137  219.1474 H   0  0  0  0  0  0  0  0  0  0  0  0
  143.1302   74.0565  221.3450 H   0  0  0  0  0  0  0  0  0  0  0  0
  145.4342   74.9889  221.3389 H   0  0  0  0  0  0  0  0  0  0  0  0
  147.2307   73.7975  220.1186 H   0  0  0  0  0  0  0  0  0  0  0  0
  144.5023   70.8044  218.9406 H   0  0  0  0  0  0  0  0  0  0  0  0
  1  2  2  0
  2  3  1  0
  3  4  2  0
  4  5  1  0
  5  6  2  0
  6  7  1  0
  6  8  1  0
  8  9  2  0
  9 10  1  0
 10 11  2  0
 11 12  1  0
 12 13  2  0
 13 14  1  0
 14 15  2  0
 15 16  1  0
 16 17  2  0
 17 18  1  0
 18 19  1  0
 18 20  2  0
 11 21  1  0
 21 22  1  0
 22 23  1  0
 23 24  2  0
 24 25  1  0
 25 26  2  0
 26 27  1  0
 27 28  2  0
 21  2  1  0
 28 23  1  0
  9  3  1  0
 20 14  1  0
  4 29  1  0
  5 30  1  0
  8 31  1  0
 12 32  1  0
 13 33  1  0
 15 34  1  0
 16 35  1  0
 17 36  1  0
 19 37  1  0
 20 38  1  0
 22 39  1  0
 22 40  1  0
 24 41  1  0
 25 42  1  0
 26 43  1  0
 28 44  1  0
M  END
>  <smiles>  (28) 
O=c1c2ccc(F)cc2nc(/C=C/c2cccc(O)c2)n1Cc1cccnc1

>  <score_type>  (28) 
oracle

>  <origin>  (28) 
autodockgpu

>  <m_score__min__energy>  (28) 
-8.4100000000000001

>  <m_primary>  (28) 
energy

>  <rmsd>  (28) 
6.137952190163565

>  <m_score__min__rmsd>  (28) 
6.137952190163565

>  <meeko>  (28) 
{"free_energy": -7.61, "intermolecular_energy": -9.4, "internal_energy": -0.9, "cluster_size": 17, "cluster_id": 1, "rank_in_cluster": 11}

>  <energy>  (28) 
-7.49

>  <cluster_rmsd>  (28) 
0.71

>  <cluster>  (28) 
2

$$$$

     RDKit          3D

 44 47  0  0  0  0  0  0  0  0999 V2000
  138.2470   76.7970  221.9700 O   0  0  0  0  0  0  0  0  0  0  0  0
  138.8720   77.7270  222.5430 C   0  0  0  0  0  0  0  0  0  0  0  0
  138.0580   78.7190  223.1040 C   0  0  0  0  0  0  0  0  0  0  0  0
  136.6840   78.6510  223.0140 C   0  0  0  0  0  0  0  0  0  0  0  0
  135.8730   79.6400  223.5720 C   0  0  0  0  0  0  0  0  0  0  0  0
  136.5010   80.6850  224.2150 C   0  0  0  0  0  0  0  0  0  0  0  0
  135.7290   81.6510  224.7610 F   0  0  0  0  0  0  0  0  0  0  0  0
  137.8620   80.7940  224.3290 C   0  0  0  0  0  0  0  0  0  0  0  0
  138.6250   79.7910  223.7610 C   0  0  0  0  0  0  0  0  0  0  0  0
  139.9670   79.8120  223.8230 N   0  0  0  0  0  0  0  0  0  0  0  0
  140.7320   78.8400  223.2730 C   0  0  0  0  0  0  0  0  0  0  0  0
  142.1770   78.9870  223.4560 C   0  0  0  0  0  0  0  0  0  0  0  0
  142.8260   79.9530  222.8240 C   0  0  0  0  0  0  0  0  0  0  0  0
  142.2020   80.8300  221.8380 C   0  0  0  0  0  0  0  0  0  0  0  0
  141.5630   82.0080  222.2510 C   0  0  0  0  0  0  0  0  0  0  0  0
  140.9630   82.8710  221.3910 C   0  0  0  0  0  0  0  0  0  0  0  0
  140.9680   82.5980  220.0380 C   0  0  0  0  0  0  0  0  0  0  0  0
  141.5800   81.4600  219.5920 C   0  0  0  0  0  0  0  0  0  0  0  0
  141.5660   81.2160  218.2250 O   0  0  0  0  0  0  0  0  0  0  0  0
  142.1900   80.5880  220.4920 C   0  0  0  0  0  0  0  0  0  0  0  0
  140.2190   77.7800  222.6230 N   0  0  0  0  0  0  0  0  0  0  0  0
  141.0220   76.7510  222.0030 C   0  0  0  0  0  0  0  0  0  0  0  0
  141.3680   77.1710  220.6230 C   0  0  0  0  0  0  0  0  0  0  0  0
  142.5940   76.7800  220.0700 C   0  0  0  0  0  0  0  0  0  0  0  0
  142.9550   77.1500  218.7810 C   0  0  0  0  0  0  0  0  0  0  0  0
  142.0900   77.9160  218.0380 C   0  0  0  0  0  0  0  0  0  0  0  0
  140.9160   78.2990  218.5490 N   0  0  0  0  0  0  0  0  0  0  0  0
  140.5690   77.9340  219.8080 C   0  0  0  0  0  0  0  0  0  0  0  0
  136.2185   77.8015  222.4928 H   0  0  0  0  0  0  0  0  0  0  0  0
  134.7765   79.5877  223.5016 H   0  0  0  0  0  0  0  0  0  0  0  0
  138.3276   81.6434  224.8503 H   0  0  0  0  0  0  0  0  0  0  0  0
  142.7222   78.2969  224.1167 H   0  0  0  0  0  0  0  0  0  0  0  0
  143.8912   80.1023  223.0542 H   0  0  0  0  0  0  0  0  0  0  0  0
  141.5470   82.2448  223.3251 H   0  0  0  0  0  0  0  0  0  0  0  0
  140.4762   83.7816  221.7702 H   0  0  0  0  0  0  0  0  0  0  0  0
  140.4861   83.2867  219.3284 H   0  0  0  0  0  0  0  0  0  0  0  0
  141.4380   80.2640  217.9010 H   0  0  0  0  0  0  0  0  0  0  0  0
  142.6759   79.6787  220.1086 H   0  0  0  0  0  0  0  0  0  0  0  0
  141.9436   76.6024  222.5848 H   0  0  0  0  0  0  0  0  0  0  0  0
  140.4568   75.8078  221.9726 H   0  0  0  0  0  0  0  0  0  0  0  0
  143.2846   76.1677  220.6685 H   0  0  0  0  0  0  0  0  0  0  0  0
  143.9210   76.8338  218.3605 H   0  0  0  0  0  0  0  0  0  0  0  0
  142.3653   78.2160  217.0161 H   0  0  0  0  0  0  0  0  0  0  0  0
  139.5955   78.2670  220.1970 H   0  0  0  0  0  0  0  0  0  0  0  0
  1  2  2  0
  2  3  1  0
  3  4  2  0
  4  5  1  0
  5  6  2  0
  6  7  1  0
  6  8  1  0
  8  9  2  0
  9 10  1  0
 10 11  2  0
 11 12  1  0
 12 13  2  0
 13 14  1  0
 14 15  2  0
 15 16  1  0
 16 17  2  0
 17 18  1  0
 18 19  1  0
 18 20  2  0
 11 21  1  0
 21 22  1  0
 22 23  1  0
 23 24  2  0
 24 25  1  0
 25 26  2  0
 26 27  1  0
 27 28  2  0
 21  2  1  0
 28 23  1  0
  9  3  1  0
 20 14  1  0
  4 29  1  0
  5 30  1  0
  8 31  1  0
 12 32  1  0
 13 33  1  0
 15 34  1  0
 16 35  1  0
 17 36  1  0
 19 37  1  0
 20 38  1  0
 22 39  1  0
 22 40  1  0
 24 41  1  0
 25 42  1  0
 26 43  1  0
 28 44  1  0
M  END
>  <smiles>  (29) 
O=c1c2ccc(F)cc2nc(/C=C/c2cccc(O)c2)n1Cc1cccnc1

>  <score_type>  (29) 
oracle

>  <origin>  (29) 
autodockgpu

>  <m_score__min__energy>  (29) 
-8.4100000000000001

>  <m_primary>  (29) 
energy

>  <rmsd>  (29) 
4.234678060237339

>  <m_score__min__rmsd>  (29) 
4.234678060237339

>  <meeko>  (29) 
{"free_energy": -5.54, "intermolecular_energy": -7.33, "internal_energy": -2.61, "cluster_size": 3, "cluster_id": 10, "rank_in_cluster": 1}

>  <energy>  (29) 
-7.49

>  <cluster_rmsd>  (29) 
0.79

>  <cluster>  (29) 
2

$$$$

     RDKit          3D

 44 47  0  0  0  0  0  0  0  0999 V2000
  141.9320   74.6390  218.9580 O   0  0  0  0  0  0  0  0  0  0  0  0
  141.3690   74.3100  220.0350 C   0  0  0  0  0  0  0  0  0  0  0  0
  140.6240   75.3300  220.6410 C   0  0  0  0  0  0  0  0  0  0  0  0
  140.5390   76.5840  220.0760 C   0  0  0  0  0  0  0  0  0  0  0  0
  139.7970   77.6000  220.6800 C   0  0  0  0  0  0  0  0  0  0  0  0
  139.1560   77.2990  221.8620 C   0  0  0  0  0  0  0  0  0  0  0  0
  138.4340   78.2720  222.4600 F   0  0  0  0  0  0  0  0  0  0  0  0
  139.2130   76.0670  222.4600 C   0  0  0  0  0  0  0  0  0  0  0  0
  139.9590   75.0910  221.8250 C   0  0  0  0  0  0  0  0  0  0  0  0
  140.0730   73.8530  222.3350 N   0  0  0  0  0  0  0  0  0  0  0  0
  140.7980   72.8840  221.7300 C   0  0  0  0  0  0  0  0  0  0  0  0
  140.7940   71.5790  222.3920 C   0  0  0  0  0  0  0  0  0  0  0  0
  139.8030   71.2570  223.2080 C   0  0  0  0  0  0  0  0  0  0  0  0
  139.9940   70.5320  224.4600 C   0  0  0  0  0  0  0  0  0  0  0  0
  140.7100   71.1220  225.5110 C   0  0  0  0  0  0  0  0  0  0  0  0
  140.9260   70.5070  226.7020 C   0  0  0  0  0  0  0  0  0  0  0  0
  140.4270   69.2380  226.9150 C   0  0  0  0  0  0  0  0  0  0  0  0
  139.7240   68.6260  225.9170 C   0  0  0  0  0  0  0  0  0  0  0  0
  139.2360   67.3490  226.1630 O   0  0  0  0  0  0  0  0  0  0  0  0
  139.5130   69.2740  224.7010 C   0  0  0  0  0  0  0  0  0  0  0  0
  141.4620   73.0770  220.5760 N   0  0  0  0  0  0  0  0  0  0  0  0
  142.2670   72.0630  219.9330 C   0  0  0  0  0  0  0  0  0  0  0  0
  143.6850   72.4960  219.9350 C   0  0  0  0  0  0  0  0  0  0  0  0
  144.1180   73.4370  220.8770 C   0  0  0  0  0  0  0  0  0  0  0  0
  145.4380   73.8670  220.9140 C   0  0  0  0  0  0  0  0  0  0  0  0
  146.3340   73.3590  220.0060 C   0  0  0  0  0  0  0  0  0  0  0  0
  145.9390   72.4590  219.0980 N   0  0  0  0  0  0  0  0  0  0  0  0
  144.6490   72.0440  219.0680 C   0  0  0  0  0  0  0  0  0  0  0  0
  141.0655   76.7878  219.1319 H   0  0  0  0  0  0  0  0  0  0  0  0
  139.7266   78.6014  220.2303 H   0  0  0  0  0  0  0  0  0  0  0  0
  138.6877   75.8633  223.4048 H   0  0  0  0  0  0  0  0  0  0  0  0
  141.6130   70.8671  222.2118 H   0  0  0  0  0  0  0  0  0  0  0  0
  138.7809   71.5515  222.9275 H   0  0  0  0  0  0  0  0  0  0  0  0
  141.1170   72.1332  225.3634 H   0  0  0  0  0  0  0  0  0  0  0  0
  141.4955   71.0173  227.4927 H   0  0  0  0  0  0  0  0  0  0  0  0
  140.5932   68.7269  227.8748 H   0  0  0  0  0  0  0  0  0  0  0  0
  139.4090   66.9260  227.0680 H   0  0  0  0  0  0  0  0  0  0  0  0
  138.9437   68.7594  223.9129 H   0  0  0  0  0  0  0  0  0  0  0  0
  142.1708   71.1140  220.4809 H   0  0  0  0  0  0  0  0  0  0  0  0
  141.9247   71.9196  218.8975 H   0  0  0  0  0  0  0  0  0  0  0  0
  143.3981   73.8439  221.6024 H   0  0  0  0  0  0  0  0  0  0  0  0
  145.7619   74.6058  221.6619 H   0  0  0  0  0  0  0  0  0  0  0  0
  147.3817   73.6936  220.0251 H   0  0  0  0  0  0  0  0  0  0  0  0
  144.3584   71.3045  218.3073 H   0  0  0  0  0  0  0  0  0  0  0  0
  1  2  2  0
  2  3  1  0
  3  4  2  0
  4  5  1  0
  5  6  2  0
  6  7  1  0
  6  8  1  0
  8  9  2  0
  9 10  1  0
 10 11  2  0
 11 12  1  0
 12 13  2  0
 13 14  1  0
 14 15  2  0
 15 16  1  0
 16 17  2  0
 17 18  1  0
 18 19  1  0
 18 20  2  0
 11 21  1  0
 21 22  1  0
 22 23  1  0
 23 24  2  0
 24 25  1  0
 25 26  2  0
 26 27  1  0
 27 28  2  0
 21  2  1  0
 28 23  1  0
  9  3  1  0
 20 14  1  0
  4 29  1  0
  5 30  1  0
  8 31  1  0
 12 32  1  0
 13 33  1  0
 15 34  1  0
 16 35  1  0
 17 36  1  0
 19 37  1  0
 20 38  1  0
 22 39  1  0
 22 40  1  0
 24 41  1  0
 25 42  1  0
 26 43  1  0
 28 44  1  0
M  END
>  <smiles>  (30) 
O=c1c2ccc(F)cc2nc(/C=C/c2cccc(O)c2)n1Cc1cccnc1

>  <score_type>  (30) 
oracle

>  <origin>  (30) 
autodockgpu

>  <m_score__min__energy>  (30) 
-8.4100000000000001

>  <m_primary>  (30) 
energy

>  <rmsd>  (30) 
6.012815963019353

>  <m_score__min__rmsd>  (30) 
6.012815963019353

>  <meeko>  (30) 
{"free_energy": -8.2, "intermolecular_energy": -9.99, "internal_energy": -0.86, "cluster_size": 17, "cluster_id": 1, "rank_in_cluster": 6}

>  <energy>  (30) 
-7.49

>  <cluster_rmsd>  (30) 
1.81

>  <cluster>  (30) 
2

$$$$

     RDKit          3D

 44 47  0  0  0  0  0  0  0  0999 V2000
  142.6970   76.1280  219.0840 O   0  0  0  0  0  0  0  0  0  0  0  0
  141.9280   75.6810  219.9750 C   0  0  0  0  0  0  0  0  0  0  0  0
  141.3870   76.6550  220.8230 C   0  0  0  0  0  0  0  0  0  0  0  0
  141.6960   77.9900  220.6670 C   0  0  0  0  0  0  0  0  0  0  0  0
  141.1570   78.9600  221.5120 C   0  0  0  0  0  0  0  0  0  0  0  0
  140.3060   78.5310  222.5080 C   0  0  0  0  0  0  0  0  0  0  0  0
  139.7760   79.4580  223.3350 F   0  0  0  0  0  0  0  0  0  0  0  0
  139.9710   77.2160  222.7000 C   0  0  0  0  0  0  0  0  0  0  0  0
  140.5280   76.2890  221.8380 C   0  0  0  0  0  0  0  0  0  0  0  0
  140.2570   74.9780  221.9490 N   0  0  0  0  0  0  0  0  0  0  0  0
  140.7930   74.0560  221.1150 C   0  0  0  0  0  0  0  0  0  0  0  0
  140.3720   72.6730  221.3430 C   0  0  0  0  0  0  0  0  0  0  0  0
  141.0890   71.8870  222.1320 C   0  0  0  0  0  0  0  0  0  0  0  0
  140.5540   71.2450  223.3290 C   0  0  0  0  0  0  0  0  0  0  0  0
  140.6710   71.8750  224.5760 C   0  0  0  0  0  0  0  0  0  0  0  0
  140.1980   71.3370  225.7300 C   0  0  0  0  0  0  0  0  0  0  0  0
  139.5650   70.1110  225.7000 C   0  0  0  0  0  0  0  0  0  0  0  0
  139.4290   69.4620  224.5060 C   0  0  0  0  0  0  0  0  0  0  0  0
  138.7890   68.2300  224.5120 O   0  0  0  0  0  0  0  0  0  0  0  0
  139.9230   70.0310  223.3330 C   0  0  0  0  0  0  0  0  0  0  0  0
  141.6350   74.3710  220.1150 N   0  0  0  0  0  0  0  0  0  0  0  0
  142.2400   73.3950  219.2370 C   0  0  0  0  0  0  0  0  0  0  0  0
  143.6890   73.3040  219.5390 C   0  0  0  0  0  0  0  0  0  0  0  0
  144.1320   73.4780  220.8560 C   0  0  0  0  0  0  0  0  0  0  0  0
  145.4790   73.3980  221.1810 C   0  0  0  0  0  0  0  0  0  0  0  0
  146.3940   73.1440  220.1880 C   0  0  0  0  0  0  0  0  0  0  0  0
  145.9900   72.9750  218.9250 N   0  0  0  0  0  0  0  0  0  0  0  0
  144.6730   73.0540  218.6140 C   0  0  0  0  0  0  0  0  0  0  0  0
  142.3800   78.2954  219.8615 H   0  0  0  0  0  0  0  0  0  0  0  0
  141.4014   80.0254  221.3885 H   0  0  0  0  0  0  0  0  0  0  0  0
  139.2876   76.9106  223.5061 H   0  0  0  0  0  0  0  0  0  0  0  0
  139.4621   72.2871  220.8602 H   0  0  0  0  0  0  0  0  0  0  0  0
  142.1428   71.7087  221.8717 H   0  0  0  0  0  0  0  0  0  0  0  0
  141.1708   72.8538  224.6221 H   0  0  0  0  0  0  0  0  0  0  0  0
  140.3186   71.8748  226.6820 H   0  0  0  0  0  0  0  0  0  0  0  0
  139.1751   69.6624  226.6256 H   0  0  0  0  0  0  0  0  0  0  0  0
  139.1560   67.4850  223.9300 H   0  0  0  0  0  0  0  0  0  0  0  0
  139.8020   69.4885  222.3838 H   0  0  0  0  0  0  0  0  0  0  0  0
  141.7682   72.4141  219.3957 H   0  0  0  0  0  0  0  0  0  0  0  0
  142.0978   73.6997  218.1897 H   0  0  0  0  0  0  0  0  0  0  0  0
  143.3976   73.6822  221.6490 H   0  0  0  0  0  0  0  0  0  0  0  0
  145.8100   73.5363  222.2209 H   0  0  0  0  0  0  0  0  0  0  0  0
  147.4643   73.0794  220.4335 H   0  0  0  0  0  0  0  0  0  0  0  0
  144.3765   72.9102  217.5645 H   0  0  0  0  0  0  0  0  0  0  0  0
  1  2  2  0
  2  3  1  0
  3  4  2  0
  4  5  1  0
  5  6  2  0
  6  7  1  0
  6  8  1  0
  8  9  2  0
  9 10  1  0
 10 11  2  0
 11 12  1  0
 12 13  2  0
 13 14  1  0
 14 15  2  0
 15 16  1  0
 16 17  2  0
 17 18  1  0
 18 19  1  0
 18 20  2  0
 11 21  1  0
 21 22  1  0
 22 23  1  0
 23 24  2  0
 24 25  1  0
 25 26  2  0
 26 27  1  0
 27 28  2  0
 21  2  1  0
 28 23  1  0
  9  3  1  0
 20 14  1  0
  4 29  1  0
  5 30  1  0
  8 31  1  0
 12 32  1  0
 13 33  1  0
 15 34  1  0
 16 35  1  0
 17 36  1  0
 19 37  1  0
 20 38  1  0
 22 39  1  0
 22 40  1  0
 24 41  1  0
 25 42  1  0
 26 43  1  0
 28 44  1  0
M  END
>  <smiles>  (31) 
O=c1c2ccc(F)cc2nc(/C=C/c2cccc(O)c2)n1Cc1cccnc1

>  <score_type>  (31) 
oracle

>  <origin>  (31) 
autodockgpu

>  <m_score__min__energy>  (31) 
-8.4100000000000001

>  <m_primary>  (31) 
energy

>  <rmsd>  (31) 
5.555104714050494

>  <m_score__min__rmsd>  (31) 
5.555104714050494

>  <meeko>  (31) 
{"free_energy": -7.21, "intermolecular_energy": -9.0, "internal_energy": -1.12, "cluster_size": 17, "cluster_id": 1, "rank_in_cluster": 16}

>  <energy>  (31) 
-7.48

>  <cluster_rmsd>  (31) 
1.75

>  <cluster>  (31) 
2

$$$$

     RDKit          3D

 44 47  0  0  0  0  0  0  0  0999 V2000
  140.7100   74.0110  222.0800 O   0  0  0  0  0  0  0  0  0  0  0  0
  141.3220   74.6740  221.2030 C   0  0  0  0  0  0  0  0  0  0  0  0
  142.4930   74.0710  220.7250 C   0  0  0  0  0  0  0  0  0  0  0  0
  142.9120   72.8480  221.2030 C   0  0  0  0  0  0  0  0  0  0  0  0
  144.0790   72.2470  220.7280 C   0  0  0  0  0  0  0  0  0  0  0  0
  144.7930   72.9270  219.7640 C   0  0  0  0  0  0  0  0  0  0  0  0
  145.9250   72.3590  219.2940 F   0  0  0  0  0  0  0  0  0  0  0  0
  144.4140   74.1430  219.2600 C   0  0  0  0  0  0  0  0  0  0  0  0
  143.2510   74.7000  219.7600 C   0  0  0  0  0  0  0  0  0  0  0  0
  142.8000   75.8890  219.3260 N   0  0  0  0  0  0  0  0  0  0  0  0
  141.6650   76.4500  219.8030 C   0  0  0  0  0  0  0  0  0  0  0  0
  141.2890   77.7310  219.2040 C   0  0  0  0  0  0  0  0  0  0  0  0
  142.1870   78.6980  219.0960 C   0  0  0  0  0  0  0  0  0  0  0  0
  141.9090   80.0950  219.4150 C   0  0  0  0  0  0  0  0  0  0  0  0
  142.0810   81.0850  218.4370 C   0  0  0  0  0  0  0  0  0  0  0  0
  141.8410   82.4030  218.6620 C   0  0  0  0  0  0  0  0  0  0  0  0
  141.4050   82.8140  219.9050 C   0  0  0  0  0  0  0  0  0  0  0  0
  141.2240   81.8810  220.8870 C   0  0  0  0  0  0  0  0  0  0  0  0
  140.7850   82.3280  222.1260 O   0  0  0  0  0  0  0  0  0  0  0  0
  141.4760   80.5340  220.6360 C   0  0  0  0  0  0  0  0  0  0  0  0
  140.8990   75.8710  220.7450 N   0  0  0  0  0  0  0  0  0  0  0  0
  139.7010   76.4720  221.2880 C   0  0  0  0  0  0  0  0  0  0  0  0
  140.0820   77.6000  222.1710 C   0  0  0  0  0  0  0  0  0  0  0  0
  141.3360   77.5960  222.7940 C   0  0  0  0  0  0  0  0  0  0  0  0
  141.7330   78.6350  223.6260 C   0  0  0  0  0  0  0  0  0  0  0  0
  140.8740   79.6850  223.8410 C   0  0  0  0  0  0  0  0  0  0  0  0
  139.6720   79.7060  223.2560 N   0  0  0  0  0  0  0  0  0  0  0  0
  139.2910   78.6890  222.4440 C   0  0  0  0  0  0  0  0  0  0  0  0
  142.3159   72.3362  221.9729 H   0  0  0  0  0  0  0  0  0  0  0  0
  144.4153   71.2707  221.1072 H   0  0  0  0  0  0  0  0  0  0  0  0
  145.0096   74.6550  218.4899 H   0  0  0  0  0  0  0  0  0  0  0  0
  140.2619   77.8904  218.8440 H   0  0  0  0  0  0  0  0  0  0  0  0
  143.1964   78.4345  218.7472 H   0  0  0  0  0  0  0  0  0  0  0  0
  142.4272   80.7794  217.4386 H   0  0  0  0  0  0  0  0  0  0  0  0
  141.9933   83.1382  217.8581 H   0  0  0  0  0  0  0  0  0  0  0  0
  141.2059   83.8776  220.1027 H   0  0  0  0  0  0  0  0  0  0  0  0
  140.1750   81.7300  222.6730 H   0  0  0  0  0  0  0  0  0  0  0  0
  141.3223   79.8024  221.4430 H   0  0  0  0  0  0  0  0  0  0  0  0
  139.0705   76.8437  220.4668 H   0  0  0  0  0  0  0  0  0  0  0  0
  139.1392   75.7228  221.8651 H   0  0  0  0  0  0  0  0  0  0  0  0
  142.0208   76.7527  222.6210 H   0  0  0  0  0  0  0  0  0  0  0  0
  142.7224   78.6172  224.1064 H   0  0  0  0  0  0  0  0  0  0  0  0
  141.1768   80.5134  224.4983 H   0  0  0  0  0  0  0  0  0  0  0  0
  138.2953   78.7389  221.9792 H   0  0  0  0  0  0  0  0  0  0  0  0
  1  2  2  0
  2  3  1  0
  3  4  2  0
  4  5  1  0
  5  6  2  0
  6  7  1  0
  6  8  1  0
  8  9  2  0
  9 10  1  0
 10 11  2  0
 11 12  1  0
 12 13  2  0
 13 14  1  0
 14 15  2  0
 15 16  1  0
 16 17  2  0
 17 18  1  0
 18 19  1  0
 18 20  2  0
 11 21  1  0
 21 22  1  0
 22 23  1  0
 23 24  2  0
 24 25  1  0
 25 26  2  0
 26 27  1  0
 27 28  2  0
 21  2  1  0
 28 23  1  0
  9  3  1  0
 20 14  1  0
  4 29  1  0
  5 30  1  0
  8 31  1  0
 12 32  1  0
 13 33  1  0
 15 34  1  0
 16 35  1  0
 17 36  1  0
 19 37  1  0
 20 38  1  0
 22 39  1  0
 22 40  1  0
 24 41  1  0
 25 42  1  0
 26 43  1  0
 28 44  1  0
M  END
>  <smiles>  (32) 
O=c1c2ccc(F)cc2nc(/C=C/c2cccc(O)c2)n1Cc1cccnc1

>  <score_type>  (32) 
oracle

>  <origin>  (32) 
autodockgpu

>  <m_score__min__energy>  (32) 
-8.4100000000000001

>  <m_primary>  (32) 
energy

>  <rmsd>  (32) 
7.826580435608964

>  <m_score__min__rmsd>  (32) 
7.826580435608964

>  <meeko>  (32) 
{"free_energy": -5.9, "intermolecular_energy": -7.69, "internal_energy": -2.16, "cluster_size": 1, "cluster_id": 8, "rank_in_cluster": 1}

>  <energy>  (32) 
-7.46

>  <cluster_rmsd>  (32) 
1.7

>  <cluster>  (32) 
2

$$$$

     RDKit          3D

 44 47  0  0  0  0  0  0  0  0999 V2000
  142.8070   75.6510  219.3310 O   0  0  0  0  0  0  0  0  0  0  0  0
  141.9980   75.3530  220.2490 C   0  0  0  0  0  0  0  0  0  0  0  0
  141.4680   76.4490  220.9410 C   0  0  0  0  0  0  0  0  0  0  0  0
  141.8280   77.7400  220.6170 C   0  0  0  0  0  0  0  0  0  0  0  0
  141.3010   78.8330  221.3060 C   0  0  0  0  0  0  0  0  0  0  0  0
  140.4070   78.5680  222.3230 C   0  0  0  0  0  0  0  0  0  0  0  0
  139.8880   79.6150  223.0000 F   0  0  0  0  0  0  0  0  0  0  0  0
  140.0220   77.3030  222.6790 C   0  0  0  0  0  0  0  0  0  0  0  0
  140.5700   76.2510  221.9680 C   0  0  0  0  0  0  0  0  0  0  0  0
  140.2500   74.9760  222.2450 N   0  0  0  0  0  0  0  0  0  0  0  0
  140.7760   73.9330  221.5610 C   0  0  0  0  0  0  0  0  0  0  0  0
  140.3010   72.6070  221.9590 C   0  0  0  0  0  0  0  0  0  0  0  0
  141.0630   71.8340  222.7170 C   0  0  0  0  0  0  0  0  0  0  0  0
  140.5740   71.1360  223.9020 C   0  0  0  0  0  0  0  0  0  0  0  0
  140.7590   71.6970  225.1740 C   0  0  0  0  0  0  0  0  0  0  0  0
  140.3310   71.1050  226.3190 C   0  0  0  0  0  0  0  0  0  0  0  0
  139.6780   69.8900  226.2540 C   0  0  0  0  0  0  0  0  0  0  0  0
  139.4770   69.3080  225.0350 C   0  0  0  0  0  0  0  0  0  0  0  0
  138.8180   68.0860  225.0060 O   0  0  0  0  0  0  0  0  0  0  0  0
  139.9250   69.9330  223.8720 C   0  0  0  0  0  0  0  0  0  0  0  0
  141.6560   74.0830  220.5550 N   0  0  0  0  0  0  0  0  0  0  0  0
  142.2510   72.9800  219.8360 C   0  0  0  0  0  0  0  0  0  0  0  0
  143.7270   73.0960  219.9040 C   0  0  0  0  0  0  0  0  0  0  0  0
  144.3380   73.4280  221.1200 C   0  0  0  0  0  0  0  0  0  0  0  0
  145.7180   73.5440  221.2260 C   0  0  0  0  0  0  0  0  0  0  0  0
  146.4950   73.3300  220.1150 C   0  0  0  0  0  0  0  0  0  0  0  0
  145.9300   73.0130  218.9450 N   0  0  0  0  0  0  0  0  0  0  0  0
  144.5830   72.9010  218.8480 C   0  0  0  0  0  0  0  0  0  0  0  0
  142.5442   77.9115  219.7999 H   0  0  0  0  0  0  0  0  0  0  0  0
  141.5866   79.8637  221.0489 H   0  0  0  0  0  0  0  0  0  0  0  0
  139.3065   77.1308  223.4966 H   0  0  0  0  0  0  0  0  0  0  0  0
  139.3130   72.2535  221.6290 H   0  0  0  0  0  0  0  0  0  0  0  0
  142.1202   71.7113  222.4392 H   0  0  0  0  0  0  0  0  0  0  0  0
  141.2766   72.6648  225.2480 H   0  0  0  0  0  0  0  0  0  0  0  0
  140.5033   71.5899  227.2912 H   0  0  0  0  0  0  0  0  0  0  0  0
  139.3244   69.3975  227.1718 H   0  0  0  0  0  0  0  0  0  0  0  0
  138.9230   67.4940  224.1900 H   0  0  0  0  0  0  0  0  0  0  0  0
  139.7513   69.4440  222.9021 H   0  0  0  0  0  0  0  0  0  0  0  0
  141.9349   72.0300  220.2917 H   0  0  0  0  0  0  0  0  0  0  0  0
  141.9256   73.0041  218.7855 H   0  0  0  0  0  0  0  0  0  0  0  0
  143.7126   73.6002  222.0084 H   0  0  0  0  0  0  0  0  0  0  0  0
  146.1825   73.8042  222.1886 H   0  0  0  0  0  0  0  0  0  0  0  0
  147.5889   73.4198  220.1874 H   0  0  0  0  0  0  0  0  0  0  0  0
  144.1518   72.6397  217.8703 H   0  0  0  0  0  0  0  0  0  0  0  0
  1  2  2  0
  2  3  1  0
  3  4  2  0
  4  5  1  0
  5  6  2  0
  6  7  1  0
  6  8  1  0
  8  9  2  0
  9 10  1  0
 10 11  2  0
 11 12  1  0
 12 13  2  0
 13 14  1  0
 14 15  2  0
 15 16  1  0
 16 17  2  0
 17 18  1  0
 18 19  1  0
 18 20  2  0
 11 21  1  0
 21 22  1  0
 22 23  1  0
 23 24  2  0
 24 25  1  0
 25 26  2  0
 26 27  1  0
 27 28  2  0
 21  2  1  0
 28 23  1  0
  9  3  1  0
 20 14  1  0
  4 29  1  0
  5 30  1  0
  8 31  1  0
 12 32  1  0
 13 33  1  0
 15 34  1  0
 16 35  1  0
 17 36  1  0
 19 37  1  0
 20 38  1  0
 22 39  1  0
 22 40  1  0
 24 41  1  0
 25 42  1  0
 26 43  1  0
 28 44  1  0
M  END
>  <smiles>  (33) 
O=c1c2ccc(F)cc2nc(/C=C/c2cccc(O)c2)n1Cc1cccnc1

>  <score_type>  (33) 
oracle

>  <origin>  (33) 
autodockgpu

>  <m_score__min__energy>  (33) 
-8.4100000000000001

>  <m_primary>  (33) 
energy

>  <rmsd>  (33) 
5.648232991339674

>  <m_score__min__rmsd>  (33) 
5.648232991339674

>  <meeko>  (33) 
{"free_energy": -7.6, "intermolecular_energy": -9.39, "internal_energy": -0.96, "cluster_size": 17, "cluster_id": 1, "rank_in_cluster": 13}

>  <energy>  (33) 
-7.44

>  <cluster_rmsd>  (33) 
1.94

>  <cluster>  (33) 
2

$$$$

     RDKit          3D

 44 47  0  0  0  0  0  0  0  0999 V2000
  139.2130   67.6850  225.3590 O   0  0  0  0  0  0  0  0  0  0  0  0
  139.4820   68.8760  225.0530 C   0  0  0  0  0  0  0  0  0  0  0  0
  140.0830   69.6210  226.0760 C   0  0  0  0  0  0  0  0  0  0  0  0
  140.3420   69.0610  227.3090 C   0  0  0  0  0  0  0  0  0  0  0  0
  140.9410   69.8030  228.3280 C   0  0  0  0  0  0  0  0  0  0  0  0
  141.2610   71.1150  228.0520 C   0  0  0  0  0  0  0  0  0  0  0  0
  141.8410   71.8470  229.0280 F   0  0  0  0  0  0  0  0  0  0  0  0
  141.0220   71.7120  226.8420 C   0  0  0  0  0  0  0  0  0  0  0  0
  140.4280   70.9390  225.8620 C   0  0  0  0  0  0  0  0  0  0  0  0
  140.1560   71.4380  224.6450 N   0  0  0  0  0  0  0  0  0  0  0  0
  139.5740   70.6970  223.6720 C   0  0  0  0  0  0  0  0  0  0  0  0
  139.3760   71.3740  222.3900 C   0  0  0  0  0  0  0  0  0  0  0  0
  138.5390   72.3960  222.3070 C   0  0  0  0  0  0  0  0  0  0  0  0
  137.1070   72.2870  222.5690 C   0  0  0  0  0  0  0  0  0  0  0  0
  136.1860   72.4780  221.5280 C   0  0  0  0  0  0  0  0  0  0  0  0
  134.8410   72.3910  221.6980 C   0  0  0  0  0  0  0  0  0  0  0  0
  134.3300   72.1020  222.9470 C   0  0  0  0  0  0  0  0  0  0  0  0
  135.1920   71.9080  223.9890 C   0  0  0  0  0  0  0  0  0  0  0  0
  134.6440   71.6190  225.2320 O   0  0  0  0  0  0  0  0  0  0  0  0
  136.5690   72.0020  223.7930 C   0  0  0  0  0  0  0  0  0  0  0  0
  139.2210   69.4100  223.8410 N   0  0  0  0  0  0  0  0  0  0  0  0
  138.5710   68.6150  222.8240 C   0  0  0  0  0  0  0  0  0  0  0  0
  137.1160   68.5670  223.1030 C   0  0  0  0  0  0  0  0  0  0  0  0
  136.2320   68.1690  222.0920 C   0  0  0  0  0  0  0  0  0  0  0  0
  134.8630   68.1080  222.3130 C   0  0  0  0  0  0  0  0  0  0  0  0
  134.3680   68.4480  223.5480 C   0  0  0  0  0  0  0  0  0  0  0  0
  135.1960   68.8320  224.5250 N   0  0  0  0  0  0  0  0  0  0  0  0
  136.5320   68.8890  224.3030 C   0  0  0  0  0  0  0  0  0  0  0  0
  140.0717   68.0107  227.4928 H   0  0  0  0  0  0  0  0  0  0  0  0
  141.1495   69.3585  229.3123 H   0  0  0  0  0  0  0  0  0  0  0  0
  141.2916   72.7625  226.6582 H   0  0  0  0  0  0  0  0  0  0  0  0
  139.9215   71.0344  221.4972 H   0  0  0  0  0  0  0  0  0  0  0  0
  138.9438   73.3794  222.0258 H   0  0  0  0  0  0  0  0  0  0  0  0
  136.5721   72.7097  220.5244 H   0  0  0  0  0  0  0  0  0  0  0  0
  134.1638   72.5498  220.8459 H   0  0  0  0  0  0  0  0  0  0  0  0
  133.2434   72.0288  223.1015 H   0  0  0  0  0  0  0  0  0  0  0  0
  134.4920   70.6490  225.4850 H   0  0  0  0  0  0  0  0  0  0  0  0
  137.2422   71.8422  224.6481 H   0  0  0  0  0  0  0  0  0  0  0  0
  138.7421   69.0685  221.8365 H   0  0  0  0  0  0  0  0  0  0  0  0
  138.9836   67.5953  222.8304 H   0  0  0  0  0  0  0  0  0  0  0  0
  136.6307   67.8993  221.1029 H   0  0  0  0  0  0  0  0  0  0  0  0
  134.1829   67.7912  221.5086 H   0  0  0  0  0  0  0  0  0  0  0  0
  133.2848   68.4042  223.7344 H   0  0  0  0  0  0  0  0  0  0  0  0
  137.1834   69.2106  225.1290 H   0  0  0  0  0  0  0  0  0  0  0  0
  1  2  2  0
  2  3  1  0
  3  4  2  0
  4  5  1  0
  5  6  2  0
  6  7  1  0
  6  8  1  0
  8  9  2  0
  9 10  1  0
 10 11  2  0
 11 12  1  0
 12 13  2  0
 13 14  1  0
 14 15  2  0
 15 16  1  0
 16 17  2  0
 17 18  1  0
 18 19  1  0
 18 20  2  0
 11 21  1  0
 21 22  1  0
 22 23  1  0
 23 24  2  0
 24 25  1  0
 25 26  2  0
 26 27  1  0
 27 28  2  0
 21  2  1  0
 28 23  1  0
  9  3  1  0
 20 14  1  0
  4 29  1  0
  5 30  1  0
  8 31  1  0
 12 32  1  0
 13 33  1  0
 15 34  1  0
 16 35  1  0
 17 36  1  0
 19 37  1  0
 20 38  1  0
 22 39  1  0
 22 40  1  0
 24 41  1  0
 25 42  1  0
 26 43  1  0
 28 44  1  0
M  END
>  <smiles>  (34) 
O=c1c2ccc(F)cc2nc(/C=C/c2cccc(O)c2)n1Cc1cccnc1

>  <score_type>  (34) 
oracle

>  <origin>  (34) 
autodockgpu

>  <m_score__min__energy>  (34) 
-8.4100000000000001

>  <m_primary>  (34) 
energy

>  <rmsd>  (34) 
11.637447967243775

>  <m_score__min__rmsd>  (34) 
11.637447967243775

>  <meeko>  (34) 
{"free_energy": -5.85, "intermolecular_energy": -7.64, "internal_energy": -2.48, "cluster_size": 2, "cluster_id": 9, "rank_in_cluster": 1}

>  <energy>  (34) 
-7.42

>  <cluster_rmsd>  (34) 
1.82

>  <cluster>  (34) 
2

$$$$

     RDKit          3D

 44 47  0  0  0  0  0  0  0  0999 V2000
  139.2050   67.5910  225.3470 O   0  0  0  0  0  0  0  0  0  0  0  0
  139.4430   68.7870  225.0380 C   0  0  0  0  0  0  0  0  0  0  0  0
  140.0000   69.5570  226.0670 C   0  0  0  0  0  0  0  0  0  0  0  0
  140.2520   69.0130  227.3090 C   0  0  0  0  0  0  0  0  0  0  0  0
  140.8060   69.7800  228.3350 C   0  0  0  0  0  0  0  0  0  0  0  0
  141.0910   71.1000  228.0560 C   0  0  0  0  0  0  0  0  0  0  0  0
  141.6280   71.8550  229.0390 F   0  0  0  0  0  0  0  0  0  0  0  0
  140.8580   71.6810  226.8380 C   0  0  0  0  0  0  0  0  0  0  0  0
  140.3080   70.8840  225.8510 C   0  0  0  0  0  0  0  0  0  0  0  0
  140.0450   71.3660  224.6250 N   0  0  0  0  0  0  0  0  0  0  0  0
  139.5070   70.6020  223.6470 C   0  0  0  0  0  0  0  0  0  0  0  0
  139.3140   71.2640  222.3560 C   0  0  0  0  0  0  0  0  0  0  0  0
  138.6370   72.4000  222.2930 C   0  0  0  0  0  0  0  0  0  0  0  0
  139.2450   73.6810  221.9430 C   0  0  0  0  0  0  0  0  0  0  0  0
  138.4810   74.8560  221.9860 C   0  0  0  0  0  0  0  0  0  0  0  0
  138.9800   76.0800  221.6750 C   0  0  0  0  0  0  0  0  0  0  0  0
  140.3010   76.2010  221.2930 C   0  0  0  0  0  0  0  0  0  0  0  0
  141.0810   75.0810  221.2370 C   0  0  0  0  0  0  0  0  0  0  0  0
  142.4050   75.2380  220.8500 O   0  0  0  0  0  0  0  0  0  0  0  0
  140.5500   73.8340  221.5610 C   0  0  0  0  0  0  0  0  0  0  0  0
  139.1910   69.3050  223.8170 N   0  0  0  0  0  0  0  0  0  0  0  0
  138.5870   68.4840  222.7930 C   0  0  0  0  0  0  0  0  0  0  0  0
  137.1230   68.4190  223.0240 C   0  0  0  0  0  0  0  0  0  0  0  0
  136.3070   67.7580  222.0980 C   0  0  0  0  0  0  0  0  0  0  0  0
  134.9330   67.6720  222.2790 C   0  0  0  0  0  0  0  0  0  0  0  0
  134.3660   68.2500  223.3880 C   0  0  0  0  0  0  0  0  0  0  0  0
  135.1300   68.8860  224.2840 N   0  0  0  0  0  0  0  0  0  0  0  0
  136.4710   68.9660  224.1010 C   0  0  0  0  0  0  0  0  0  0  0  0
  140.0120   67.9556  227.4943 H   0  0  0  0  0  0  0  0  0  0  0  0
  141.0073   69.3487  229.3267 H   0  0  0  0  0  0  0  0  0  0  0  0
  141.0985   72.7382  226.6525 H   0  0  0  0  0  0  0  0  0  0  0  0
  139.7304   70.8188  221.4404 H   0  0  0  0  0  0  0  0  0  0  0  0
  137.5601   72.3779  222.5160 H   0  0  0  0  0  0  0  0  0  0  0  0
  137.4254   74.7826  222.2865 H   0  0  0  0  0  0  0  0  0  0  0  0
  138.3354   76.9698  221.7272 H   0  0  0  0  0  0  0  0  0  0  0  0
  140.7197   77.1855  221.0373 H   0  0  0  0  0  0  0  0  0  0  0  0
  142.9150   76.0520  221.1720 H   0  0  0  0  0  0  0  0  0  0  0  0
  141.1986   72.9471  221.5082 H   0  0  0  0  0  0  0  0  0  0  0  0
  138.7848   68.9235  221.8042 H   0  0  0  0  0  0  0  0  0  0  0  0
  139.0136   67.4708  222.8308 H   0  0  0  0  0  0  0  0  0  0  0  0
  136.7635   67.2976  221.2094 H   0  0  0  0  0  0  0  0  0  0  0  0
  134.3063   67.1472  221.5429 H   0  0  0  0  0  0  0  0  0  0  0  0
  133.2783   68.1900  223.5407 H   0  0  0  0  0  0  0  0  0  0  0  0
  137.0686   69.4978  224.8561 H   0  0  0  0  0  0  0  0  0  0  0  0
  1  2  2  0
  2  3  1  0
  3  4  2  0
  4  5  1  0
  5  6  2  0
  6  7  1  0
  6  8  1  0
  8  9  2  0
  9 10  1  0
 10 11  2  0
 11 12  1  0
 12 13  2  0
 13 14  1  0
 14 15  2  0
 15 16  1  0
 16 17  2  0
 17 18  1  0
 18 19  1  0
 18 20  2  0
 11 21  1  0
 21 22  1  0
 22 23  1  0
 23 24  2  0
 24 25  1  0
 25 26  2  0
 26 27  1  0
 27 28  2  0
 21  2  1  0
 28 23  1  0
  9  3  1  0
 20 14  1  0
  4 29  1  0
  5 30  1  0
  8 31  1  0
 12 32  1  0
 13 33  1  0
 15 34  1  0
 16 35  1  0
 17 36  1  0
 19 37  1  0
 20 38  1  0
 22 39  1  0
 22 40  1  0
 24 41  1  0
 25 42  1  0
 26 43  1  0
 28 44  1  0
M  END
>  <smiles>  (35) 
O=c1c2ccc(F)cc2nc(/C=C/c2cccc(O)c2)n1Cc1cccnc1

>  <score_type>  (35) 
oracle

>  <origin>  (35) 
autodockgpu

>  <m_score__min__energy>  (35) 
-8.4100000000000001

>  <m_primary>  (35) 
energy

>  <rmsd>  (35) 
11.728732944877704

>  <m_score__min__rmsd>  (35) 
11.728732944877704

>  <meeko>  (35) 
{"free_energy": -7.36, "intermolecular_energy": -9.15, "internal_energy": -0.98, "cluster_size": 2, "cluster_id": 4, "rank_in_cluster": 2}

>  <energy>  (35) 
-7.33

>  <cluster_rmsd>  (35) 
1.94

>  <cluster>  (35) 
2

$$$$

     RDKit          3D

 44 47  0  0  0  0  0  0  0  0999 V2000
  139.2040   67.7510  225.1800 O   0  0  0  0  0  0  0  0  0  0  0  0
  139.5100   68.9440  224.9210 C   0  0  0  0  0  0  0  0  0  0  0  0
  140.0660   69.6500  225.9950 C   0  0  0  0  0  0  0  0  0  0  0  0
  140.2450   69.0550  227.2250 C   0  0  0  0  0  0  0  0  0  0  0  0
  140.7980   69.7590  228.2960 C   0  0  0  0  0  0  0  0  0  0  0  0
  141.1560   71.0720  228.0720 C   0  0  0  0  0  0  0  0  0  0  0  0
  141.6930   71.7680  229.0980 F   0  0  0  0  0  0  0  0  0  0  0  0
  140.9960   71.7040  226.8670 C   0  0  0  0  0  0  0  0  0  0  0  0
  140.4450   70.9670  225.8360 C   0  0  0  0  0  0  0  0  0  0  0  0
  140.2500   71.5020  224.6180 N   0  0  0  0  0  0  0  0  0  0  0  0
  139.7120   70.7970  223.5960 C   0  0  0  0  0  0  0  0  0  0  0  0
  139.5980   71.5100  222.3230 C   0  0  0  0  0  0  0  0  0  0  0  0
  140.6600   72.1070  221.8050 C   0  0  0  0  0  0  0  0  0  0  0  0
  140.7350   73.5440  221.5600 C   0  0  0  0  0  0  0  0  0  0  0  0
  139.6870   74.3820  221.9690 C   0  0  0  0  0  0  0  0  0  0  0  0
  139.6890   75.7260  221.7760 C   0  0  0  0  0  0  0  0  0  0  0  0
  140.7640   76.3220  221.1480 C   0  0  0  0  0  0  0  0  0  0  0  0
  141.8070   75.5430  220.7330 C   0  0  0  0  0  0  0  0  0  0  0  0
  142.8720   76.1750  220.1050 O   0  0  0  0  0  0  0  0  0  0  0  0
  141.7850   74.1650  220.9420 C   0  0  0  0  0  0  0  0  0  0  0  0
  139.3280   69.5130  223.7110 N   0  0  0  0  0  0  0  0  0  0  0  0
  138.7220   68.7560  222.6390 C   0  0  0  0  0  0  0  0  0  0  0  0
  137.2830   68.5590  222.9370 C   0  0  0  0  0  0  0  0  0  0  0  0
  136.5020   67.7740  222.0790 C   0  0  0  0  0  0  0  0  0  0  0  0
  135.1520   67.5620  222.3250 C   0  0  0  0  0  0  0  0  0  0  0  0
  134.5740   68.1370  223.4300 C   0  0  0  0  0  0  0  0  0  0  0  0
  135.3040   68.8910  224.2590 N   0  0  0  0  0  0  0  0  0  0  0  0
  136.6210   69.0930  224.0150 C   0  0  0  0  0  0  0  0  0  0  0  0
  139.9465   68.0056  227.3655 H   0  0  0  0  0  0  0  0  0  0  0  0
  140.9424   69.2859  229.2785 H   0  0  0  0  0  0  0  0  0  0  0  0
  141.2935   72.7536  226.7262 H   0  0  0  0  0  0  0  0  0  0  0  0
  138.6323   71.5498  221.7979 H   0  0  0  0  0  0  0  0  0  0  0  0
  141.5314   71.4878  221.5457 H   0  0  0  0  0  0  0  0  0  0  0  0
  138.8202   73.9276  222.4712 H   0  0  0  0  0  0  0  0  0  0  0  0
  138.8397   76.3357  222.1178 H   0  0  0  0  0  0  0  0  0  0  0  0
  140.7808   77.4095  220.9838 H   0  0  0  0  0  0  0  0  0  0  0  0
  143.3390   76.9380  220.5830 H   0  0  0  0  0  0  0  0  0  0  0  0
  142.6372   73.5594  220.5998 H   0  0  0  0  0  0  0  0  0  0  0  0
  138.8302   69.3062  221.6927 H   0  0  0  0  0  0  0  0  0  0  0  0
  139.2188   67.7787  222.5488 H   0  0  0  0  0  0  0  0  0  0  0  0
  136.9672   67.3167  221.1933 H   0  0  0  0  0  0  0  0  0  0  0  0
  134.5527   66.9409  221.6430 H   0  0  0  0  0  0  0  0  0  0  0  0
  133.5051   67.9766  223.6343 H   0  0  0  0  0  0  0  0  0  0  0  0
  137.1907   69.7183  224.7181 H   0  0  0  0  0  0  0  0  0  0  0  0
  1  2  2  0
  2  3  1  0
  3  4  2  0
  4  5  1  0
  5  6  2  0
  6  7  1  0
  6  8  1  0
  8  9  2  0
  9 10  1  0
 10 11  2  0
 11 12  1  0
 12 13  2  0
 13 14  1  0
 14 15  2  0
 15 16  1  0
 16 17  2  0
 17 18  1  0
 18 19  1  0
 18 20  2  0
 11 21  1  0
 21 22  1  0
 22 23  1  0
 23 24  2  0
 24 25  1  0
 25 26  2  0
 26 27  1  0
 27 28  2  0
 21  2  1  0
 28 23  1  0
  9  3  1  0
 20 14  1  0
  4 29  1  0
  5 30  1  0
  8 31  1  0
 12 32  1  0
 13 33  1  0
 15 34  1  0
 16 35  1  0
 17 36  1  0
 19 37  1  0
 20 38  1  0
 22 39  1  0
 22 40  1  0
 24 41  1  0
 25 42  1  0
 26 43  1  0
 28 44  1  0
M  END
>  <smiles>  (36) 
O=c1c2ccc(F)cc2nc(/C=C/c2cccc(O)c2)n1Cc1cccnc1

>  <score_type>  (36) 
oracle

>  <origin>  (36) 
autodockgpu

>  <m_score__min__energy>  (36) 
-8.4100000000000001

>  <m_primary>  (36) 
energy

>  <rmsd>  (36) 
11.667019345966743

>  <m_score__min__rmsd>  (36) 
11.667019345966743

>  <meeko>  (36) 
{"free_energy": -7.49, "intermolecular_energy": -9.28, "internal_energy": -0.88, "cluster_size": 19, "cluster_id": 2, "rank_in_cluster": 10}

>  <energy>  (36) 
-7.23

>  <cluster_rmsd>  (36) 
1.27

>  <cluster>  (36) 
2

$$$$

     RDKit          3D

 44 47  0  0  0  0  0  0  0  0999 V2000
  138.6820   77.0520  222.1000 O   0  0  0  0  0  0  0  0  0  0  0  0
  139.7940   77.2950  221.5630 C   0  0  0  0  0  0  0  0  0  0  0  0
  140.5280   78.3180  222.1760 C   0  0  0  0  0  0  0  0  0  0  0  0
  140.0390   78.9870  223.2770 C   0  0  0  0  0  0  0  0  0  0  0  0
  140.7690   80.0070  223.8880 C   0  0  0  0  0  0  0  0  0  0  0  0
  141.9990   80.3170  223.3450 C   0  0  0  0  0  0  0  0  0  0  0  0
  142.7180   81.3020  223.9240 F   0  0  0  0  0  0  0  0  0  0  0  0
  142.5250   79.6790  222.2530 C   0  0  0  0  0  0  0  0  0  0  0  0
  141.7650   78.6750  221.6810 C   0  0  0  0  0  0  0  0  0  0  0  0
  142.1990   77.9930  220.6080 N   0  0  0  0  0  0  0  0  0  0  0  0
  141.4710   77.0070  220.0340 C   0  0  0  0  0  0  0  0  0  0  0  0
  142.0960   76.3350  218.8940 C   0  0  0  0  0  0  0  0  0  0  0  0
  143.3500   75.9180  218.9820 C   0  0  0  0  0  0  0  0  0  0  0  0
  143.7350   74.6490  219.5930 C   0  0  0  0  0  0  0  0  0  0  0  0
  144.8260   74.5960  220.4730 C   0  0  0  0  0  0  0  0  0  0  0  0
  145.2400   73.4530  221.0770 C   0  0  0  0  0  0  0  0  0  0  0  0
  144.5710   72.2710  220.8300 C   0  0  0  0  0  0  0  0  0  0  0  0
  143.5030   72.2780  219.9790 C   0  0  0  0  0  0  0  0  0  0  0  0
  142.8530   71.0720  219.7530 O   0  0  0  0  0  0  0  0  0  0  0  0
  143.0940   73.4620  219.3690 C   0  0  0  0  0  0  0  0  0  0  0  0
  140.2610   76.6300  220.4840 N   0  0  0  0  0  0  0  0  0  0  0  0
  139.4560   75.6020  219.8640 C   0  0  0  0  0  0  0  0  0  0  0  0
  139.8170   74.2870  220.4470 C   0  0  0  0  0  0  0  0  0  0  0  0
  140.3610   74.2290  221.7360 C   0  0  0  0  0  0  0  0  0  0  0  0
  140.7090   73.0180  222.3190 C   0  0  0  0  0  0  0  0  0  0  0  0
  140.5170   71.8550  221.6140 C   0  0  0  0  0  0  0  0  0  0  0  0
  139.9990   71.8910  220.3810 N   0  0  0  0  0  0  0  0  0  0  0  0
  139.6610   73.0760  219.8180 C   0  0  0  0  0  0  0  0  0  0  0  0
  139.0541   78.7115  223.6820 H   0  0  0  0  0  0  0  0  0  0  0  0
  140.3799   80.5422  224.7667 H   0  0  0  0  0  0  0  0  0  0  0  0
  143.5102   79.9536  221.8481 H   0  0  0  0  0  0  0  0  0  0  0  0
  141.5259   76.1767  217.9667 H   0  0  0  0  0  0  0  0  0  0  0  0
  144.1431   76.5615  218.5733 H   0  0  0  0  0  0  0  0  0  0  0  0
  145.3731   75.5266  220.6841 H   0  0  0  0  0  0  0  0  0  0  0  0
  146.1030   73.4685  221.7589 H   0  0  0  0  0  0  0  0  0  0  0  0
  144.8937   71.3364  221.3120 H   0  0  0  0  0  0  0  0  0  0  0  0
  141.8460   71.0740  219.6360 H   0  0  0  0  0  0  0  0  0  0  0  0
  142.2307   73.4414  218.6877 H   0  0  0  0  0  0  0  0  0  0  0  0
  138.3910   75.8068  220.0479 H   0  0  0  0  0  0  0  0  0  0  0  0
  139.6400   75.5902  218.7796 H   0  0  0  0  0  0  0  0  0  0  0  0
  140.5157   75.1618  222.2980 H   0  0  0  0  0  0  0  0  0  0  0  0
  141.1334   72.9903  223.3334 H   0  0  0  0  0  0  0  0  0  0  0  0
  140.7903   70.8897  222.0651 H   0  0  0  0  0  0  0  0  0  0  0  0
  139.2388   73.0678  218.8023 H   0  0  0  0  0  0  0  0  0  0  0  0
  1  2  2  0
  2  3  1  0
  3  4  2  0
  4  5  1  0
  5  6  2  0
  6  7  1  0
  6  8  1  0
  8  9  2  0
  9 10  1  0
 10 11  2  0
 11 12  1  0
 12 13  2  0
 13 14  1  0
 14 15  2  0
 15 16  1  0
 16 17  2  0
 17 18  1  0
 18 19  1  0
 18 20  2  0
 11 21  1  0
 21 22  1  0
 22 23  1  0
 23 24  2  0
 24 25  1  0
 25 26  2  0
 26 27  1  0
 27 28  2  0
 21  2  1  0
 28 23  1  0
  9  3  1  0
 20 14  1  0
  4 29  1  0
  5 30  1  0
  8 31  1  0
 12 32  1  0
 13 33  1  0
 15 34  1  0
 16 35  1  0
 17 36  1  0
 19 37  1  0
 20 38  1  0
 22 39  1  0
 22 40  1  0
 24 41  1  0
 25 42  1  0
 26 43  1  0
 28 44  1  0
M  END
>  <smiles>  (37) 
O=c1c2ccc(F)cc2nc(/C=C/c2cccc(O)c2)n1Cc1cccnc1

>  <score_type>  (37) 
oracle

>  <origin>  (37) 
autodockgpu

>  <m_score__min__energy>  (37) 
-8.4100000000000001

>  <m_primary>  (37) 
energy

>  <rmsd>  (37) 
4.450099737183771

>  <m_score__min__rmsd>  (37) 
4.450099737183771

>  <meeko>  (37) 
{"free_energy": -5.38, "intermolecular_energy": -7.16, "internal_energy": -2.48, "cluster_size": 1, "cluster_id": 11, "rank_in_cluster": 1}

>  <energy>  (37) 
-7.47

>  <cluster_rmsd>  (37) 
0.0

>  <cluster>  (37) 
3

$$$$

     RDKit          3D

 44 47  0  0  0  0  0  0  0  0999 V2000
  138.1950   68.8270  224.8510 O   0  0  0  0  0  0  0  0  0  0  0  0
  138.9830   69.7760  224.6000 C   0  0  0  0  0  0  0  0  0  0  0  0
  139.6950   70.2530  225.7080 C   0  0  0  0  0  0  0  0  0  0  0  0
  139.5180   69.7050  226.9600 C   0  0  0  0  0  0  0  0  0  0  0  0
  140.2270   70.1810  228.0640 C   0  0  0  0  0  0  0  0  0  0  0  0
  141.1080   71.2200  227.8510 C   0  0  0  0  0  0  0  0  0  0  0  0
  141.8010   71.6920  228.9100 F   0  0  0  0  0  0  0  0  0  0  0  0
  141.3140   71.7950  226.6250 C   0  0  0  0  0  0  0  0  0  0  0  0
  140.5910   71.2910  225.5600 C   0  0  0  0  0  0  0  0  0  0  0  0
  140.7280   71.7910  224.3210 N   0  0  0  0  0  0  0  0  0  0  0  0
  140.0290   71.3110  223.2660 C   0  0  0  0  0  0  0  0  0  0  0  0
  140.3160   71.9380  221.9750 C   0  0  0  0  0  0  0  0  0  0  0  0
  141.3070   71.4790  221.2260 C   0  0  0  0  0  0  0  0  0  0  0  0
  142.4680   72.2800  220.8490 C   0  0  0  0  0  0  0  0  0  0  0  0
  142.3690   73.6780  220.7960 C   0  0  0  0  0  0  0  0  0  0  0  0
  143.4060   74.4850  220.4540 C   0  0  0  0  0  0  0  0  0  0  0  0
  144.6290   73.9270  220.1380 C   0  0  0  0  0  0  0  0  0  0  0  0
  144.7680   72.5690  220.1770 C   0  0  0  0  0  0  0  0  0  0  0  0
  146.0110   72.0410  219.8530 O   0  0  0  0  0  0  0  0  0  0  0  0
  143.6910   71.7580  220.5300 C   0  0  0  0  0  0  0  0  0  0  0  0
  139.1440   70.3030  223.3680 N   0  0  0  0  0  0  0  0  0  0  0  0
  138.3670   69.8000  222.2580 C   0  0  0  0  0  0  0  0  0  0  0  0
  138.9370   68.5060  221.8130 C   0  0  0  0  0  0  0  0  0  0  0  0
  138.5250   67.3200  222.4340 C   0  0  0  0  0  0  0  0  0  0  0  0
  139.0320   66.0870  222.0450 C   0  0  0  0  0  0  0  0  0  0  0  0
  139.9590   66.0340  221.0320 C   0  0  0  0  0  0  0  0  0  0  0  0
  140.3650   67.1560  220.4280 N   0  0  0  0  0  0  0  0  0  0  0  0
  139.8650   68.3560  220.8120 C   0  0  0  0  0  0  0  0  0  0  0  0
  138.8052   68.8776  227.0916 H   0  0  0  0  0  0  0  0  0  0  0  0
  140.0884   69.7446  229.0642 H   0  0  0  0  0  0  0  0  0  0  0  0
  142.0254   72.6236  226.4933 H   0  0  0  0  0  0  0  0  0  0  0  0
  139.7103   72.7881  221.6279 H   0  0  0  0  0  0  0  0  0  0  0  0
  141.2526   70.4399  220.8692 H   0  0  0  0  0  0  0  0  0  0  0  0
  141.4037   74.1436  221.0437 H   0  0  0  0  0  0  0  0  0  0  0  0
  143.2727   75.5766  220.4288 H   0  0  0  0  0  0  0  0  0  0  0  0
  145.4789   74.5671  219.8589 H   0  0  0  0  0  0  0  0  0  0  0  0
  146.4990   71.4810  220.5440 H   0  0  0  0  0  0  0  0  0  0  0  0
  143.8286   70.6669  220.5527 H   0  0  0  0  0  0  0  0  0  0  0  0
  137.3240   69.6533  222.5751 H   0  0  0  0  0  0  0  0  0  0  0  0
  138.3956   70.5220  221.4286 H   0  0  0  0  0  0  0  0  0  0  0  0
  137.7848   67.3662  223.2464 H   0  0  0  0  0  0  0  0  0  0  0  0
  138.6959   65.1647  222.5414 H   0  0  0  0  0  0  0  0  0  0  0  0
  140.3693   65.0635  220.7162 H   0  0  0  0  0  0  0  0  0  0  0  0
  140.2219   69.2583  220.2938 H   0  0  0  0  0  0  0  0  0  0  0  0
  1  2  2  0
  2  3  1  0
  3  4  2  0
  4  5  1  0
  5  6  2  0
  6  7  1  0
  6  8  1  0
  8  9  2  0
  9 10  1  0
 10 11  2  0
 11 12  1  0
 12 13  2  0
 13 14  1  0
 14 15  2  0
 15 16  1  0
 16 17  2  0
 17 18  1  0
 18 19  1  0
 18 20  2  0
 11 21  1  0
 21 22  1  0
 22 23  1  0
 23 24  2  0
 24 25  1  0
 25 26  2  0
 26 27  1  0
 27 28  2  0
 21  2  1  0
 28 23  1  0
  9  3  1  0
 20 14  1  0
  4 29  1  0
  5 30  1  0
  8 31  1  0
 12 32  1  0
 13 33  1  0
 15 34  1  0
 16 35  1  0
 17 36  1  0
 19 37  1  0
 20 38  1  0
 22 39  1  0
 22 40  1  0
 24 41  1  0
 25 42  1  0
 26 43  1  0
 28 44  1  0
M  END
>  <smiles>  (38) 
O=c1c2ccc(F)cc2nc(/C=C/c2cccc(O)c2)n1Cc1cccnc1

>  <score_type>  (38) 
oracle

>  <origin>  (38) 
autodockgpu

>  <m_score__min__energy>  (38) 
-8.4100000000000001

>  <m_primary>  (38) 
energy

>  <rmsd>  (38) 
11.305851437585021

>  <m_score__min__rmsd>  (38) 
11.305851437585021

>  <meeko>  (38) 
{"free_energy": -7.49, "intermolecular_energy": -9.28, "internal_energy": -1.03, "cluster_size": 19, "cluster_id": 2, "rank_in_cluster": 13}

>  <energy>  (38) 
-7.32

>  <cluster_rmsd>  (38) 
0.43

>  <cluster>  (38) 
3

$$$$

     RDKit          3D

 44 47  0  0  0  0  0  0  0  0999 V2000
  138.2720   68.7100  224.9000 O   0  0  0  0  0  0  0  0  0  0  0  0
  139.0230   69.6860  224.6410 C   0  0  0  0  0  0  0  0  0  0  0  0
  139.7300   70.1870  225.7410 C   0  0  0  0  0  0  0  0  0  0  0  0
  139.5880   69.6330  226.9950 C   0  0  0  0  0  0  0  0  0  0  0  0
  140.2920   70.1330  228.0910 C   0  0  0  0  0  0  0  0  0  0  0  0
  141.1330   71.2020  227.8690 C   0  0  0  0  0  0  0  0  0  0  0  0
  141.8210   71.6980  228.9200 F   0  0  0  0  0  0  0  0  0  0  0  0
  141.3060   71.7850  226.6410 C   0  0  0  0  0  0  0  0  0  0  0  0
  140.5880   71.2560  225.5840 C   0  0  0  0  0  0  0  0  0  0  0  0
  140.6930   71.7610  224.3430 N   0  0  0  0  0  0  0  0  0  0  0  0
  139.9990   71.2580  223.2960 C   0  0  0  0  0  0  0  0  0  0  0  0
  140.2500   71.8940  222.0030 C   0  0  0  0  0  0  0  0  0  0  0  0
  141.2650   71.4910  221.2550 C   0  0  0  0  0  0  0  0  0  0  0  0
  142.4050   72.3390  220.9200 C   0  0  0  0  0  0  0  0  0  0  0  0
  142.2280   73.7200  220.7550 C   0  0  0  0  0  0  0  0  0  0  0  0
  143.2410   74.5700  220.4440 C   0  0  0  0  0  0  0  0  0  0  0  0
  144.5180   74.0740  220.2760 C   0  0  0  0  0  0  0  0  0  0  0  0
  144.7350   72.7340  220.4270 C   0  0  0  0  0  0  0  0  0  0  0  0
  146.0310   72.2680  220.2500 O   0  0  0  0  0  0  0  0  0  0  0  0
  143.6810   71.8790  220.7460 C   0  0  0  0  0  0  0  0  0  0  0  0
  139.1520   70.2190  223.4070 N   0  0  0  0  0  0  0  0  0  0  0  0
  138.3800   69.6900  222.3060 C   0  0  0  0  0  0  0  0  0  0  0  0
  138.9210   68.3620  221.9280 C   0  0  0  0  0  0  0  0  0  0  0  0
  139.8180   68.2620  220.8570 C   0  0  0  0  0  0  0  0  0  0  0  0
  140.3500   67.0380  220.4730 C   0  0  0  0  0  0  0  0  0  0  0  0
  139.9840   65.9050  221.1580 C   0  0  0  0  0  0  0  0  0  0  0  0
  139.1280   65.9810  222.1820 N   0  0  0  0  0  0  0  0  0  0  0  0
  138.6130   67.1790  222.5520 C   0  0  0  0  0  0  0  0  0  0  0  0
  138.9068   68.7806  227.1344 H   0  0  0  0  0  0  0  0  0  0  0  0
  140.1802   69.6915  229.0923 H   0  0  0  0  0  0  0  0  0  0  0  0
  141.9870   72.6375  226.5019 H   0  0  0  0  0  0  0  0  0  0  0  0
  139.5961   72.7062  221.6526 H   0  0  0  0  0  0  0  0  0  0  0  0
  141.2486   70.4625  220.8652 H   0  0  0  0  0  0  0  0  0  0  0  0
  141.2180   74.1362  220.8839 H   0  0  0  0  0  0  0  0  0  0  0  0
  143.0449   75.6460  220.3269 H   0  0  0  0  0  0  0  0  0  0  0  0
  145.3495   74.7486  220.0240 H   0  0  0  0  0  0  0  0  0  0  0  0
  146.3620   71.5090  220.8360 H   0  0  0  0  0  0  0  0  0  0  0  0
  143.8815   70.8036  220.8610 H   0  0  0  0  0  0  0  0  0  0  0  0
  137.3280   69.5862  222.6101 H   0  0  0  0  0  0  0  0  0  0  0  0
  138.4429   70.3740  221.4468 H   0  0  0  0  0  0  0  0  0  0  0  0
  140.1068   69.1710  220.3091 H   0  0  0  0  0  0  0  0  0  0  0  0
  141.0554   66.9766  219.6312 H   0  0  0  0  0  0  0  0  0  0  0  0
  140.3976   64.9296  220.8623 H   0  0  0  0  0  0  0  0  0  0  0  0
  137.9104   67.2044  223.3980 H   0  0  0  0  0  0  0  0  0  0  0  0
  1  2  2  0
  2  3  1  0
  3  4  2  0
  4  5  1  0
  5  6  2  0
  6  7  1  0
  6  8  1  0
  8  9  2  0
  9 10  1  0
 10 11  2  0
 11 12  1  0
 12 13  2  0
 13 14  1  0
 14 15  2  0
 15 16  1  0
 16 17  2  0
 17 18  1  0
 18 19  1  0
 18 20  2  0
 11 21  1  0
 21 22  1  0
 22 23  1  0
 23 24  2  0
 24 25  1  0
 25 26  2  0
 26 27  1  0
 27 28  2  0
 21  2  1  0
 28 23  1  0
  9  3  1  0
 20 14  1  0
  4 29  1  0
  5 30  1  0
  8 31  1  0
 12 32  1  0
 13 33  1  0
 15 34  1  0
 16 35  1  0
 17 36  1  0
 19 37  1  0
 20 38  1  0
 22 39  1  0
 22 40  1  0
 24 41  1  0
 25 42  1  0
 26 43  1  0
 28 44  1  0
M  END
>  <smiles>  (39) 
O=c1c2ccc(F)cc2nc(/C=C/c2cccc(O)c2)n1Cc1cccnc1

>  <score_type>  (39) 
oracle

>  <origin>  (39) 
autodockgpu

>  <m_score__min__energy>  (39) 
-8.4100000000000001

>  <m_primary>  (39) 
energy

>  <rmsd>  (39) 
11.065584981892579

>  <m_score__min__rmsd>  (39) 
11.065584981892579

>  <meeko>  (39) 
{"free_energy": -7.48, "intermolecular_energy": -9.27, "internal_energy": -1.01, "cluster_size": 19, "cluster_id": 2, "rank_in_cluster": 14}

>  <energy>  (39) 
-7.39

>  <cluster_rmsd>  (39) 
0.0

>  <cluster>  (39) 
4

$$$$

     RDKit          3D

 44 47  0  0  0  0  0  0  0  0999 V2000
  138.2870   68.6610  224.7510 O   0  0  0  0  0  0  0  0  0  0  0  0
  139.0370   69.6370  224.4880 C   0  0  0  0  0  0  0  0  0  0  0  0
  139.7110   70.1710  225.5940 C   0  0  0  0  0  0  0  0  0  0  0  0
  139.5400   69.6460  226.8560 C   0  0  0  0  0  0  0  0  0  0  0  0
  140.2110   70.1790  227.9580 C   0  0  0  0  0  0  0  0  0  0  0  0
  141.0490   71.2500  227.7320 C   0  0  0  0  0  0  0  0  0  0  0  0
  141.7050   71.7770  228.7880 F   0  0  0  0  0  0  0  0  0  0  0  0
  141.2490   71.8040  226.4950 C   0  0  0  0  0  0  0  0  0  0  0  0
  140.5640   71.2440  225.4330 C   0  0  0  0  0  0  0  0  0  0  0  0
  140.6970   71.7190  224.1830 N   0  0  0  0  0  0  0  0  0  0  0  0
  140.0350   71.1850  223.1310 C   0  0  0  0  0  0  0  0  0  0  0  0
  140.3140   71.7920  221.8290 C   0  0  0  0  0  0  0  0  0  0  0  0
  141.4820   71.5850  221.2420 C   0  0  0  0  0  0  0  0  0  0  0  0
  142.3780   72.6620  220.8320 C   0  0  0  0  0  0  0  0  0  0  0  0
  141.9270   73.9900  220.8330 C   0  0  0  0  0  0  0  0  0  0  0  0
  142.7040   75.0410  220.4650 C   0  0  0  0  0  0  0  0  0  0  0  0
  144.0060   74.8190  220.0650 C   0  0  0  0  0  0  0  0  0  0  0  0
  144.4870   73.5400  220.0490 C   0  0  0  0  0  0  0  0  0  0  0  0
  145.8010   73.3520  219.6410 O   0  0  0  0  0  0  0  0  0  0  0  0
  143.6720   72.4750  220.4310 C   0  0  0  0  0  0  0  0  0  0  0  0
  139.1940   70.1410  223.2450 N   0  0  0  0  0  0  0  0  0  0  0  0
  138.4550   69.5790  222.1380 C   0  0  0  0  0  0  0  0  0  0  0  0
  139.1220   68.3310  221.6940 C   0  0  0  0  0  0  0  0  0  0  0  0
  138.8050   67.1190  222.3190 C   0  0  0  0  0  0  0  0  0  0  0  0
  139.4050   65.9280  221.9310 C   0  0  0  0  0  0  0  0  0  0  0  0
  140.3280   65.9440  220.9150 C   0  0  0  0  0  0  0  0  0  0  0  0
  140.6440   67.0920  220.3060 N   0  0  0  0  0  0  0  0  0  0  0  0
  140.0550   68.2510  220.6900 C   0  0  0  0  0  0  0  0  0  0  0  0
  138.8624   68.7912  226.9980 H   0  0  0  0  0  0  0  0  0  0  0  0
  140.0764   69.7610  228.9665 H   0  0  0  0  0  0  0  0  0  0  0  0
  141.9265   72.6589  226.3529 H   0  0  0  0  0  0  0  0  0  0  0  0
  139.5545   72.4191  221.3392 H   0  0  0  0  0  0  0  0  0  0  0  0
  141.7939   70.5472  221.0532 H   0  0  0  0  0  0  0  0  0  0  0  0
  140.8921   74.1901  221.1476 H   0  0  0  0  0  0  0  0  0  0  0  0
  142.2981   76.0632  220.4856 H   0  0  0  0  0  0  0  0  0  0  0  0
  144.6477   75.6599  219.7632 H   0  0  0  0  0  0  0  0  0  0  0  0
  146.3320   74.1530  219.3190 H   0  0  0  0  0  0  0  0  0  0  0  0
  144.0819   71.4545  220.4092 H   0  0  0  0  0  0  0  0  0  0  0  0
  137.4269   69.3537  222.4578 H   0  0  0  0  0  0  0  0  0  0  0  0
  138.4258   70.2997  221.3075 H   0  0  0  0  0  0  0  0  0  0  0  0
  138.0659   67.1098  223.1337 H   0  0  0  0  0  0  0  0  0  0  0  0
  139.1439   64.9839  222.4315 H   0  0  0  0  0  0  0  0  0  0  0  0
  140.8106   65.0071  220.5999 H   0  0  0  0  0  0  0  0  0  0  0  0
  140.3399   69.1771  220.1692 H   0  0  0  0  0  0  0  0  0  0  0  0
  1  2  2  0
  2  3  1  0
  3  4  2  0
  4  5  1  0
  5  6  2  0
  6  7  1  0
  6  8  1  0
  8  9  2  0
  9 10  1  0
 10 11  2  0
 11 12  1  0
 12 13  2  0
 13 14  1  0
 14 15  2  0
 15 16  1  0
 16 17  2  0
 17 18  1  0
 18 19  1  0
 18 20  2  0
 11 21  1  0
 21 22  1  0
 22 23  1  0
 23 24  2  0
 24 25  1  0
 25 26  2  0
 26 27  1  0
 27 28  2  0
 21  2  1  0
 28 23  1  0
  9  3  1  0
 20 14  1  0
  4 29  1  0
  5 30  1  0
  8 31  1  0
 12 32  1  0
 13 33  1  0
 15 34  1  0
 16 35  1  0
 17 36  1  0
 19 37  1  0
 20 38  1  0
 22 39  1  0
 22 40  1  0
 24 41  1  0
 25 42  1  0
 26 43  1  0
 28 44  1  0
M  END
>  <smiles>  (40) 
O=c1c2ccc(F)cc2nc(/C=C/c2cccc(O)c2)n1Cc1cccnc1

>  <score_type>  (40) 
oracle

>  <origin>  (40) 
autodockgpu

>  <m_score__min__energy>  (40) 
-8.4100000000000001

>  <m_primary>  (40) 
energy

>  <rmsd>  (40) 
11.332446375590417

>  <m_score__min__rmsd>  (40) 
11.332446375590417

>  <meeko>  (40) 
{"free_energy": -7.38, "intermolecular_energy": -9.17, "internal_energy": -1.03, "cluster_size": 1, "cluster_id": 5, "rank_in_cluster": 1}

>  <energy>  (40) 
-7.36

>  <cluster_rmsd>  (40) 
0.83

>  <cluster>  (40) 
4

$$$$

     RDKit          3D

 44 47  0  0  0  0  0  0  0  0999 V2000
  138.2360   68.7420  224.7690 O   0  0  0  0  0  0  0  0  0  0  0  0
  139.0060   69.7090  224.5290 C   0  0  0  0  0  0  0  0  0  0  0  0
  139.6910   70.2020  225.6460 C   0  0  0  0  0  0  0  0  0  0  0  0
  139.5100   69.6500  226.8960 C   0  0  0  0  0  0  0  0  0  0  0  0
  140.1920   70.1420  228.0090 C   0  0  0  0  0  0  0  0  0  0  0  0
  141.0520   71.2010  227.8080 C   0  0  0  0  0  0  0  0  0  0  0  0
  141.7200   71.6890  228.8760 F   0  0  0  0  0  0  0  0  0  0  0  0
  141.2630   71.7810  226.5850 C   0  0  0  0  0  0  0  0  0  0  0  0
  140.5650   71.2610  225.5100 C   0  0  0  0  0  0  0  0  0  0  0  0
  140.7080   71.7640  224.2730 N   0  0  0  0  0  0  0  0  0  0  0  0
  140.0340   71.2680  223.2080 C   0  0  0  0  0  0  0  0  0  0  0  0
  140.3250   71.9010  221.9210 C   0  0  0  0  0  0  0  0  0  0  0  0
  141.4450   71.6070  221.2800 C   0  0  0  0  0  0  0  0  0  0  0  0
  142.3930   72.6140  220.8120 C   0  0  0  0  0  0  0  0  0  0  0  0
  142.0430   73.9720  220.8340 C   0  0  0  0  0  0  0  0  0  0  0  0
  142.8730   74.9620  220.4160 C   0  0  0  0  0  0  0  0  0  0  0  0
  144.1280   74.6430  219.9400 C   0  0  0  0  0  0  0  0  0  0  0  0
  144.5100   73.3320  219.9010 C   0  0  0  0  0  0  0  0  0  0  0  0
  145.7800   73.0450  219.4170 O   0  0  0  0  0  0  0  0  0  0  0  0
  143.6430   72.3310  220.3360 C   0  0  0  0  0  0  0  0  0  0  0  0
  139.1720   70.2400  223.2980 N   0  0  0  0  0  0  0  0  0  0  0  0
  138.4210   69.7200  222.1780 C   0  0  0  0  0  0  0  0  0  0  0  0
  138.9920   68.4120  221.7770 C   0  0  0  0  0  0  0  0  0  0  0  0
  138.5360   67.2410  222.3940 C   0  0  0  0  0  0  0  0  0  0  0  0
  139.0430   65.9960  222.0450 C   0  0  0  0  0  0  0  0  0  0  0  0
  140.0130   65.9160  221.0760 C   0  0  0  0  0  0  0  0  0  0  0  0
  140.4620   67.0230  220.4760 N   0  0  0  0  0  0  0  0  0  0  0  0
  139.9620   68.2350  220.8210 C   0  0  0  0  0  0  0  0  0  0  0  0
  138.8151   68.8061  227.0181 H   0  0  0  0  0  0  0  0  0  0  0  0
  140.0494   69.7026  229.0073 H   0  0  0  0  0  0  0  0  0  0  0  0
  141.9582   72.6247  226.4630 H   0  0  0  0  0  0  0  0  0  0  0  0
  139.6142   72.6198  221.4872 H   0  0  0  0  0  0  0  0  0  0  0  0
  141.6737   70.5480  221.0898 H   0  0  0  0  0  0  0  0  0  0  0  0
  141.0465   74.2488  221.2085 H   0  0  0  0  0  0  0  0  0  0  0  0
  142.5468   76.0117  220.4566 H   0  0  0  0  0  0  0  0  0  0  0  0
  144.8116   75.4334  219.5966 H   0  0  0  0  0  0  0  0  0  0  0  0
  146.3190   73.7900  218.9880 H   0  0  0  0  0  0  0  0  0  0  0  0
  143.9742   71.2828  220.2951 H   0  0  0  0  0  0  0  0  0  0  0  0
  137.3684   69.5888  222.4693 H   0  0  0  0  0  0  0  0  0  0  0  0
  138.4781   70.4238  221.3345 H   0  0  0  0  0  0  0  0  0  0  0  0
  137.7603   67.3083  223.1710 H   0  0  0  0  0  0  0  0  0  0  0  0
  138.6723   65.0855  222.5385 H   0  0  0  0  0  0  0  0  0  0  0  0
  140.4228   64.9355  220.7920 H   0  0  0  0  0  0  0  0  0  0  0  0
  140.3546   69.1250  220.3073 H   0  0  0  0  0  0  0  0  0  0  0  0
  1  2  2  0
  2  3  1  0
  3  4  2  0
  4  5  1  0
  5  6  2  0
  6  7  1  0
  6  8  1  0
  8  9  2  0
  9 10  1  0
 10 11  2  0
 11 12  1  0
 12 13  2  0
 13 14  1  0
 14 15  2  0
 15 16  1  0
 16 17  2  0
 17 18  1  0
 18 19  1  0
 18 20  2  0
 11 21  1  0
 21 22  1  0
 22 23  1  0
 23 24  2  0
 24 25  1  0
 25 26  2  0
 26 27  1  0
 27 28  2  0
 21  2  1  0
 28 23  1  0
  9  3  1  0
 20 14  1  0
  4 29  1  0
  5 30  1  0
  8 31  1  0
 12 32  1  0
 13 33  1  0
 15 34  1  0
 16 35  1  0
 17 36  1  0
 19 37  1  0
 20 38  1  0
 22 39  1  0
 22 40  1  0
 24 41  1  0
 25 42  1  0
 26 43  1  0
 28 44  1  0
M  END
>  <smiles>  (41) 
O=c1c2ccc(F)cc2nc(/C=C/c2cccc(O)c2)n1Cc1cccnc1

>  <score_type>  (41) 
oracle

>  <origin>  (41) 
autodockgpu

>  <m_score__min__energy>  (41) 
-8.4100000000000001

>  <m_primary>  (41) 
energy

>  <rmsd>  (41) 
11.34392979607443

>  <m_score__min__rmsd>  (41) 
11.34392979607443

>  <meeko>  (41) 
{"free_energy": -7.44, "intermolecular_energy": -9.23, "internal_energy": -0.98, "cluster_size": 19, "cluster_id": 2, "rank_in_cluster": 16}

>  <energy>  (41) 
-7.38

>  <cluster_rmsd>  (41) 
0.0

>  <cluster>  (41) 
5

$$$$

     RDKit          3D

 44 47  0  0  0  0  0  0  0  0999 V2000
  141.5430   74.1420  218.7130 O   0  0  0  0  0  0  0  0  0  0  0  0
  141.1110   73.9880  219.8850 C   0  0  0  0  0  0  0  0  0  0  0  0
  140.2910   75.0260  220.3470 C   0  0  0  0  0  0  0  0  0  0  0  0
  140.0050   76.1160  219.5540 C   0  0  0  0  0  0  0  0  0  0  0  0
  139.1900   77.1510  220.0140 C   0  0  0  0  0  0  0  0  0  0  0  0
  138.6840   77.0380  221.2920 C   0  0  0  0  0  0  0  0  0  0  0  0
  137.8930   78.0310  221.7520 F   0  0  0  0  0  0  0  0  0  0  0  0
  138.9420   75.9720  222.1140 C   0  0  0  0  0  0  0  0  0  0  0  0
  139.7540   74.9710  221.6160 C   0  0  0  0  0  0  0  0  0  0  0  0
  140.0620   73.8880  222.3490 N   0  0  0  0  0  0  0  0  0  0  0  0
  140.8550   72.8970  221.8790 C   0  0  0  0  0  0  0  0  0  0  0  0
  141.0670   71.7680  222.7850 C   0  0  0  0  0  0  0  0  0  0  0  0
  140.0260   71.1080  223.2700 C   0  0  0  0  0  0  0  0  0  0  0  0
  140.0400   70.4130  224.5530 C   0  0  0  0  0  0  0  0  0  0  0  0
  140.5130   71.0670  225.7000 C   0  0  0  0  0  0  0  0  0  0  0  0
  140.5550   70.4840  226.9260 C   0  0  0  0  0  0  0  0  0  0  0  0
  140.1160   69.1850  227.0780 C   0  0  0  0  0  0  0  0  0  0  0  0
  139.6470   68.5110  225.9860 C   0  0  0  0  0  0  0  0  0  0  0  0
  139.2140   67.2040  226.1740 O   0  0  0  0  0  0  0  0  0  0  0  0
  139.6130   69.1270  224.7370 C   0  0  0  0  0  0  0  0  0  0  0  0
  141.4000   72.9130  220.6490 N   0  0  0  0  0  0  0  0  0  0  0  0
  142.2750   71.8800  220.1440 C   0  0  0  0  0  0  0  0  0  0  0  0
  143.6650   72.3940  220.1120 C   0  0  0  0  0  0  0  0  0  0  0  0
  143.9910   73.5460  220.8380 C   0  0  0  0  0  0  0  0  0  0  0  0
  145.2820   74.0590  220.8370 C   0  0  0  0  0  0  0  0  0  0  0  0
  146.2550   73.4220  220.1060 C   0  0  0  0  0  0  0  0  0  0  0  0
  145.9620   72.3200  219.4060 N   0  0  0  0  0  0  0  0  0  0  0  0
  144.7000   71.8250  219.4120 C   0  0  0  0  0  0  0  0  0  0  0  0
  140.4269   76.1712  218.5396 H   0  0  0  0  0  0  0  0  0  0  0  0
  138.9603   78.0220  219.3827 H   0  0  0  0  0  0  0  0  0  0  0  0
  138.5201   75.9157  223.1283 H   0  0  0  0  0  0  0  0  0  0  0  0
  142.0882   71.4680  223.0627 H   0  0  0  0  0  0  0  0  0  0  0  0
  139.1018   71.0825  222.6739 H   0  0  0  0  0  0  0  0  0  0  0  0
  140.8676   72.1036  225.6018 H   0  0  0  0  0  0  0  0  0  0  0  0
  140.9367   71.0441  227.7924 H   0  0  0  0  0  0  0  0  0  0  0  0
  140.1432   68.6988  228.0643 H   0  0  0  0  0  0  0  0  0  0  0  0
  139.6950   66.6220  226.8500 H   0  0  0  0  0  0  0  0  0  0  0  0
  139.2315   68.5624  223.8735 H   0  0  0  0  0  0  0  0  0  0  0  0
  142.2230   70.9995  220.8013 H   0  0  0  0  0  0  0  0  0  0  0  0
  141.9626   71.5935  219.1290 H   0  0  0  0  0  0  0  0  0  0  0  0
  143.2092   74.0550  221.4208 H   0  0  0  0  0  0  0  0  0  0  0  0
  145.5221   74.9640  221.4144 H   0  0  0  0  0  0  0  0  0  0  0  0
  147.2804   73.8200  220.0961 H   0  0  0  0  0  0  0  0  0  0  0  0
  144.4940   70.9183  218.8242 H   0  0  0  0  0  0  0  0  0  0  0  0
  1  2  2  0
  2  3  1  0
  3  4  2  0
  4  5  1  0
  5  6  2  0
  6  7  1  0
  6  8  1  0
  8  9  2  0
  9 10  1  0
 10 11  2  0
 11 12  1  0
 12 13  2  0
 13 14  1  0
 14 15  2  0
 15 16  1  0
 16 17  2  0
 17 18  1  0
 18 19  1  0
 18 20  2  0
 11 21  1  0
 21 22  1  0
 22 23  1  0
 23 24  2  0
 24 25  1  0
 25 26  2  0
 26 27  1  0
 27 28  2  0
 21  2  1  0
 28 23  1  0
  9  3  1  0
 20 14  1  0
  4 29  1  0
  5 30  1  0
  8 31  1  0
 12 32  1  0
 13 33  1  0
 15 34  1  0
 16 35  1  0
 17 36  1  0
 19 37  1  0
 20 38  1  0
 22 39  1  0
 22 40  1  0
 24 41  1  0
 25 42  1  0
 26 43  1  0
 28 44  1  0
M  END
>  <smiles>  (42) 
O=c1c2ccc(F)cc2nc(/C=C/c2cccc(O)c2)n1Cc1cccnc1

>  <score_type>  (42) 
oracle

>  <origin>  (42) 
autodockgpu

>  <m_score__min__energy>  (42) 
-8.4100000000000001

>  <m_primary>  (42) 
energy

>  <rmsd>  (42) 
6.103810213931583

>  <m_score__min__rmsd>  (42) 
6.103810213931583

>  <meeko>  (42) 
{"free_energy": -7.76, "intermolecular_energy": -9.55, "internal_energy": -0.91, "cluster_size": 17, "cluster_id": 1, "rank_in_cluster": 9}

>  <energy>  (42) 
-6.78

>  <cluster_rmsd>  (42) 
0.0

>  <cluster>  (42) 
6

$$$$

     RDKit          3D

 44 47  0  0  0  0  0  0  0  0999 V2000
  142.4440   74.8430  219.2390 O   0  0  0  0  0  0  0  0  0  0  0  0
  141.7780   74.4310  220.2250 C   0  0  0  0  0  0  0  0  0  0  0  0
  140.9890   75.4070  220.8470 C   0  0  0  0  0  0  0  0  0  0  0  0
  140.9700   76.7070  220.3900 C   0  0  0  0  0  0  0  0  0  0  0  0
  140.1840   77.6800  221.0100 C   0  0  0  0  0  0  0  0  0  0  0  0
  139.4310   77.2880  222.0960 C   0  0  0  0  0  0  0  0  0  0  0  0
  138.6650   78.2180  222.7070 F   0  0  0  0  0  0  0  0  0  0  0  0
  139.4200   76.0080  222.5850 C   0  0  0  0  0  0  0  0  0  0  0  0
  140.2130   75.0780  221.9390 C   0  0  0  0  0  0  0  0  0  0  0  0
  140.2660   73.7980  222.3460 N   0  0  0  0  0  0  0  0  0  0  0  0
  141.0360   72.8730  221.7270 C   0  0  0  0  0  0  0  0  0  0  0  0
  140.9580   71.5160  222.2670 C   0  0  0  0  0  0  0  0  0  0  0  0
  139.8890   71.1410  222.9540 C   0  0  0  0  0  0  0  0  0  0  0  0
  139.9570   70.5230  224.2750 C   0  0  0  0  0  0  0  0  0  0  0  0
  140.4880   71.2390  225.3570 C   0  0  0  0  0  0  0  0  0  0  0  0
  140.5820   70.7290  226.6130 C   0  0  0  0  0  0  0  0  0  0  0  0
  140.1390   69.4450  226.8620 C   0  0  0  0  0  0  0  0  0  0  0  0
  139.6150   68.7130  225.8350 C   0  0  0  0  0  0  0  0  0  0  0  0
  139.1790   67.4250  226.1190 O   0  0  0  0  0  0  0  0  0  0  0  0
  139.5280   69.2550  224.5540 C   0  0  0  0  0  0  0  0  0  0  0  0
  141.8090   73.1540  220.6620 N   0  0  0  0  0  0  0  0  0  0  0  0
  142.6610   72.1860  220.0090 C   0  0  0  0  0  0  0  0  0  0  0  0
  144.0600   72.6770  220.0330 C   0  0  0  0  0  0  0  0  0  0  0  0
  144.5820   73.2140  221.2160 C   0  0  0  0  0  0  0  0  0  0  0  0
  145.8880   73.6830  221.2810 C   0  0  0  0  0  0  0  0  0  0  0  0
  146.6790   73.6190  220.1600 C   0  0  0  0  0  0  0  0  0  0  0  0
  146.1970   73.1100  219.0210 N   0  0  0  0  0  0  0  0  0  0  0  0
  144.9210   72.6540  218.9640 C   0  0  0  0  0  0  0  0  0  0  0  0
  141.5853   76.9830  219.5210 H   0  0  0  0  0  0  0  0  0  0  0  0
  140.1663   78.7180  220.6464 H   0  0  0  0  0  0  0  0  0  0  0  0
  138.8060   75.7321  223.4550 H   0  0  0  0  0  0  0  0  0  0  0  0
  141.7845   70.8088  222.1032 H   0  0  0  0  0  0  0  0  0  0  0  0
  138.8979   71.3039  222.5054 H   0  0  0  0  0  0  0  0  0  0  0  0
  140.8462   72.2640  225.1806 H   0  0  0  0  0  0  0  0  0  0  0  0
  141.0082   71.3350  227.4261 H   0  0  0  0  0  0  0  0  0  0  0  0
  140.2072   69.0178  227.8733 H   0  0  0  0  0  0  0  0  0  0  0  0
  139.5300   66.9640  226.9510 H   0  0  0  0  0  0  0  0  0  0  0  0
  139.1018   68.6450  223.7439 H   0  0  0  0  0  0  0  0  0  0  0  0
  142.5991   71.2240  220.5388 H   0  0  0  0  0  0  0  0  0  0  0  0
  142.3345   72.0476  218.9677 H   0  0  0  0  0  0  0  0  0  0  0  0
  143.9454   73.2655  222.1116 H   0  0  0  0  0  0  0  0  0  0  0  0
  146.2837   74.1004  222.2186 H   0  0  0  0  0  0  0  0  0  0  0  0
  147.7144   73.9883  220.1992 H   0  0  0  0  0  0  0  0  0  0  0  0
  144.5566   72.2439  218.0106 H   0  0  0  0  0  0  0  0  0  0  0  0
  1  2  2  0
  2  3  1  0
  3  4  2  0
  4  5  1  0
  5  6  2  0
  6  7  1  0
  6  8  1  0
  8  9  2  0
  9 10  1  0
 10 11  2  0
 11 12  1  0
 12 13  2  0
 13 14  1  0
 14 15  2  0
 15 16  1  0
 16 17  2  0
 17 18  1  0
 18 19  1  0
 18 20  2  0
 11 21  1  0
 21 22  1  0
 22 23  1  0
 23 24  2  0
 24 25  1  0
 25 26  2  0
 26 27  1  0
 27 28  2  0
 21  2  1  0
 28 23  1  0
  9  3  1  0
 20 14  1  0
  4 29  1  0
  5 30  1  0
  8 31  1  0
 12 32  1  0
 13 33  1  0
 15 34  1  0
 16 35  1  0
 17 36  1  0
 19 37  1  0
 20 38  1  0
 22 39  1  0
 22 40  1  0
 24 41  1  0
 25 42  1  0
 26 43  1  0
 28 44  1  0
M  END
>  <smiles>  (43) 
O=c1c2ccc(F)cc2nc(/C=C/c2cccc(O)c2)n1Cc1cccnc1

>  <score_type>  (43) 
oracle

>  <origin>  (43) 
autodockgpu

>  <m_score__min__energy>  (43) 
-8.4100000000000001

>  <m_primary>  (43) 
energy

>  <rmsd>  (43) 
6.208901642028002

>  <m_score__min__rmsd>  (43) 
6.208901642028002

>  <meeko>  (43) 
{"free_energy": -8.23, "intermolecular_energy": -10.02, "internal_energy": -0.95, "cluster_size": 17, "cluster_id": 1, "rank_in_cluster": 5}

>  <energy>  (43) 
-6.73

>  <cluster_rmsd>  (43) 
0.0

>  <cluster>  (43) 
7

$$$$

     RDKit          3D

 44 47  0  0  0  0  0  0  0  0999 V2000
  139.0770   67.7830  225.4350 O   0  0  0  0  0  0  0  0  0  0  0  0
  139.3640   68.9640  225.1070 C   0  0  0  0  0  0  0  0  0  0  0  0
  140.0330   69.6980  226.0950 C   0  0  0  0  0  0  0  0  0  0  0  0
  140.3340   69.1400  227.3190 C   0  0  0  0  0  0  0  0  0  0  0  0
  141.0000   69.8720  228.3030 C   0  0  0  0  0  0  0  0  0  0  0  0
  141.3420   71.1740  228.0010 C   0  0  0  0  0  0  0  0  0  0  0  0
  141.9870   71.8950  228.9430 F   0  0  0  0  0  0  0  0  0  0  0  0
  141.0630   71.7690  226.7990 C   0  0  0  0  0  0  0  0  0  0  0  0
  140.4030   71.0050  225.8540 C   0  0  0  0  0  0  0  0  0  0  0  0
  140.0870   71.5030  224.6470 N   0  0  0  0  0  0  0  0  0  0  0  0
  139.4410   70.7720  223.7090 C   0  0  0  0  0  0  0  0  0  0  0  0
  139.2020   71.4450  222.4320 C   0  0  0  0  0  0  0  0  0  0  0  0
  138.2780   72.3910  222.3480 C   0  0  0  0  0  0  0  0  0  0  0  0
  136.8550   72.1470  222.5660 C   0  0  0  0  0  0  0  0  0  0  0  0
  136.1770   72.8220  223.5910 C   0  0  0  0  0  0  0  0  0  0  0  0
  134.8560   72.6460  223.8510 C   0  0  0  0  0  0  0  0  0  0  0  0
  134.1210   71.7650  223.0830 C   0  0  0  0  0  0  0  0  0  0  0  0
  134.7430   71.0870  222.0730 C   0  0  0  0  0  0  0  0  0  0  0  0
  133.9760   70.2090  221.3190 O   0  0  0  0  0  0  0  0  0  0  0  0
  136.1010   71.2820  221.8230 C   0  0  0  0  0  0  0  0  0  0  0  0
  139.0620   69.4960  223.9040 N   0  0  0  0  0  0  0  0  0  0  0  0
  138.3430   68.7120  222.9250 C   0  0  0  0  0  0  0  0  0  0  0  0
  136.9240   68.6020  223.3400 C   0  0  0  0  0  0  0  0  0  0  0  0
  136.4930   69.2500  224.5030 C   0  0  0  0  0  0  0  0  0  0  0  0
  135.1720   69.1740  224.9250 C   0  0  0  0  0  0  0  0  0  0  0  0
  134.2740   68.4450  224.1840 C   0  0  0  0  0  0  0  0  0  0  0  0
  134.6680   67.8180  223.0700 N   0  0  0  0  0  0  0  0  0  0  0  0
  135.9580   67.8970  222.6640 C   0  0  0  0  0  0  0  0  0  0  0  0
  140.0440   68.0989  227.5239 H   0  0  0  0  0  0  0  0  0  0  0  0
  141.2425   69.4287  229.2801 H   0  0  0  0  0  0  0  0  0  0  0  0
  141.3518   72.8105  226.5942 H   0  0  0  0  0  0  0  0  0  0  0  0
  139.7880   71.1663  221.5438 H   0  0  0  0  0  0  0  0  0  0  0  0
  138.5998   73.4135  222.1012 H   0  0  0  0  0  0  0  0  0  0  0  0
  136.7432   73.5289  224.2153 H   0  0  0  0  0  0  0  0  0  0  0  0
  134.3742   73.2021  224.6687 H   0  0  0  0  0  0  0  0  0  0  0  0
  133.0500   71.6112  223.2814 H   0  0  0  0  0  0  0  0  0  0  0  0
  134.0020   69.2210  221.5430 H   0  0  0  0  0  0  0  0  0  0  0  0
  136.5791   70.7238  221.0046 H   0  0  0  0  0  0  0  0  0  0  0  0
  138.4027   69.2041  221.9430 H   0  0  0  0  0  0  0  0  0  0  0  0
  138.7877   67.7084  222.8544 H   0  0  0  0  0  0  0  0  0  0  0  0
  137.2152   69.8314  225.0950 H   0  0  0  0  0  0  0  0  0  0  0  0
  134.8490   69.6909  225.8407 H   0  0  0  0  0  0  0  0  0  0  0  0
  133.2252   68.3764  224.5085 H   0  0  0  0  0  0  0  0  0  0  0  0
  136.2474   67.3684  221.7438 H   0  0  0  0  0  0  0  0  0  0  0  0
  1  2  2  0
  2  3  1  0
  3  4  2  0
  4  5  1  0
  5  6  2  0
  6  7  1  0
  6  8  1  0
  8  9  2  0
  9 10  1  0
 10 11  2  0
 11 12  1  0
 12 13  2  0
 13 14  1  0
 14 15  2  0
 15 16  1  0
 16 17  2  0
 17 18  1  0
 18 19  1  0
 18 20  2  0
 11 21  1  0
 21 22  1  0
 22 23  1  0
 23 24  2  0
 24 25  1  0
 25 26  2  0
 26 27  1  0
 27 28  2  0
 21  2  1  0
 28 23  1  0
  9  3  1  0
 20 14  1  0
  4 29  1  0
  5 30  1  0
  8 31  1  0
 12 32  1  0
 13 33  1  0
 15 34  1  0
 16 35  1  0
 17 36  1  0
 19 37  1  0
 20 38  1  0
 22 39  1  0
 22 40  1  0
 24 41  1  0
 25 42  1  0
 26 43  1  0
 28 44  1  0
M  END
>  <smiles>  (44) 
O=c1c2ccc(F)cc2nc(/C=C/c2cccc(O)c2)n1Cc1cccnc1

>  <score_type>  (44) 
oracle

>  <origin>  (44) 
autodockgpu

>  <m_score__min__energy>  (44) 
-8.4100000000000001

>  <m_primary>  (44) 
energy

>  <rmsd>  (44) 
11.760933376421841

>  <m_score__min__rmsd>  (44) 
11.760933376421841

>  <meeko>  (44) 
{"free_energy": -5.83, "intermolecular_energy": -7.62, "internal_energy": -2.5, "cluster_size": 2, "cluster_id": 9, "rank_in_cluster": 2}

>  <energy>  (44) 
-5.9

>  <cluster_rmsd>  (44) 
0.0

>  <cluster>  (44) 
8

$$$$

     RDKit          3D

 44 47  0  0  0  0  0  0  0  0999 V2000
  139.1880   67.7190  225.3960 O   0  0  0  0  0  0  0  0  0  0  0  0
  139.4700   68.9050  225.0840 C   0  0  0  0  0  0  0  0  0  0  0  0
  140.0860   69.6470  226.0990 C   0  0  0  0  0  0  0  0  0  0  0  0
  140.3460   69.0900  227.3330 C   0  0  0  0  0  0  0  0  0  0  0  0
  140.9590   69.8280  228.3460 C   0  0  0  0  0  0  0  0  0  0  0  0
  141.2940   71.1360  228.0620 C   0  0  0  0  0  0  0  0  0  0  0  0
  141.8880   71.8640  229.0320 F   0  0  0  0  0  0  0  0  0  0  0  0
  141.0550   71.7300  226.8510 C   0  0  0  0  0  0  0  0  0  0  0  0
  140.4450   70.9600  225.8780 C   0  0  0  0  0  0  0  0  0  0  0  0
  140.1720   71.4570  224.6600 N   0  0  0  0  0  0  0  0  0  0  0  0
  139.5760   70.7190  223.6940 C   0  0  0  0  0  0  0  0  0  0  0  0
  139.3780   71.3930  222.4100 C   0  0  0  0  0  0  0  0  0  0  0  0
  139.4660   72.7120  222.3380 C   0  0  0  0  0  0  0  0  0  0  0  0
  140.5810   73.4120  221.7060 C   0  0  0  0  0  0  0  0  0  0  0  0
  141.6710   72.6860  221.2050 C   0  0  0  0  0  0  0  0  0  0  0  0
  142.7410   73.2690  220.6050 C   0  0  0  0  0  0  0  0  0  0  0  0
  142.7810   74.6420  220.4680 C   0  0  0  0  0  0  0  0  0  0  0  0
  141.7390   75.3870  220.9420 C   0  0  0  0  0  0  0  0  0  0  0  0
  141.8110   76.7650  220.7880 O   0  0  0  0  0  0  0  0  0  0  0  0
  140.6500   74.7690  221.5550 C   0  0  0  0  0  0  0  0  0  0  0  0
  139.2090   69.4370  223.8710 N   0  0  0  0  0  0  0  0  0  0  0  0
  138.5430   68.6460  222.8610 C   0  0  0  0  0  0  0  0  0  0  0  0
  137.0950   68.5800  223.1730 C   0  0  0  0  0  0  0  0  0  0  0  0
  136.5710   69.3900  224.1880 C   0  0  0  0  0  0  0  0  0  0  0  0
  135.2200   69.3610  224.5090 C   0  0  0  0  0  0  0  0  0  0  0  0
  134.3850   68.5180  223.8170 C   0  0  0  0  0  0  0  0  0  0  0  0
  134.8680   67.7360  222.8460 N   0  0  0  0  0  0  0  0  0  0  0  0
  136.1880   67.7700  222.5370 C   0  0  0  0  0  0  0  0  0  0  0  0
  140.0647   68.0436  227.5226 H   0  0  0  0  0  0  0  0  0  0  0  0
  141.1668   69.3850  229.3312 H   0  0  0  0  0  0  0  0  0  0  0  0
  141.3367   72.7761  226.6606 H   0  0  0  0  0  0  0  0  0  0  0  0
  139.1566   70.8051  221.5070 H   0  0  0  0  0  0  0  0  0  0  0  0
  138.6561   73.3127  222.7776 H   0  0  0  0  0  0  0  0  0  0  0  0
  141.6589   71.5904  221.3027 H   0  0  0  0  0  0  0  0  0  0  0  0
  143.5704   72.6510  220.2306 H   0  0  0  0  0  0  0  0  0  0  0  0
  143.6401   75.1293  219.9838 H   0  0  0  0  0  0  0  0  0  0  0  0
  142.4960   77.2820  221.3280 H   0  0  0  0  0  0  0  0  0  0  0  0
  139.8228   75.3909  221.9277 H   0  0  0  0  0  0  0  0  0  0  0  0
  138.6864   69.1115  221.8747 H   0  0  0  0  0  0  0  0  0  0  0  0
  138.9657   67.6306  222.8472 H   0  0  0  0  0  0  0  0  0  0  0  0
  137.2425   70.0624  224.7420 H   0  0  0  0  0  0  0  0  0  0  0  0
  134.8236   70.0052  225.3076 H   0  0  0  0  0  0  0  0  0  0  0  0
  133.3133   68.4861  224.0630 H   0  0  0  0  0  0  0  0  0  0  0  0
  136.5513   67.1128  221.7332 H   0  0  0  0  0  0  0  0  0  0  0  0
  1  2  2  0
  2  3  1  0
  3  4  2  0
  4  5  1  0
  5  6  2  0
  6  7  1  0
  6  8  1  0
  8  9  2  0
  9 10  1  0
 10 11  2  0
 11 12  1  0
 12 13  2  0
 13 14  1  0
 14 15  2  0
 15 16  1  0
 16 17  2  0
 17 18  1  0
 18 19  1  0
 18 20  2  0
 11 21  1  0
 21 22  1  0
 22 23  1  0
 23 24  2  0
 24 25  1  0
 25 26  2  0
 26 27  1  0
 27 28  2  0
 21  2  1  0
 28 23  1  0
  9  3  1  0
 20 14  1  0
  4 29  1  0
  5 30  1  0
  8 31  1  0
 12 32  1  0
 13 33  1  0
 15 34  1  0
 16 35  1  0
 17 36  1  0
 19 37  1  0
 20 38  1  0
 22 39  1  0
 22 40  1  0
 24 41  1  0
 25 42  1  0
 26 43  1  0
 28 44  1  0
M  END
>  <smiles>  (45) 
O=c1c2ccc(F)cc2nc(/C=C/c2cccc(O)c2)n1Cc1cccnc1

>  <score_type>  (45) 
oracle

>  <origin>  (45) 
autodockgpu

>  <m_score__min__energy>  (45) 
-8.4100000000000001

>  <m_primary>  (45) 
energy

>  <rmsd>  (45) 
11.677327207901598

>  <m_score__min__rmsd>  (45) 
11.677327207901598

>  <meeko>  (45) 
{"free_energy": -7.52, "intermolecular_energy": -9.31, "internal_energy": -1.01, "cluster_size": 19, "cluster_id": 2, "rank_in_cluster": 8}

>  <energy>  (45) 
-5.85

>  <cluster_rmsd>  (45) 
0.0

>  <cluster>  (45) 
9

$$$$

     RDKit          3D

 44 47  0  0  0  0  0  0  0  0999 V2000
  139.1660   67.7330  225.3000 O   0  0  0  0  0  0  0  0  0  0  0  0
  139.4080   68.9500  225.0890 C   0  0  0  0  0  0  0  0  0  0  0  0
  140.0770   69.6020  226.1320 C   0  0  0  0  0  0  0  0  0  0  0  0
  140.4260   68.9320  227.2860 C   0  0  0  0  0  0  0  0  0  0  0  0
  141.0920   69.5810  228.3260 C   0  0  0  0  0  0  0  0  0  0  0  0
  141.3860   70.9180  228.1530 C   0  0  0  0  0  0  0  0  0  0  0  0
  142.0310   71.5610  229.1500 F   0  0  0  0  0  0  0  0  0  0  0  0
  141.0590   71.6230  227.0240 C   0  0  0  0  0  0  0  0  0  0  0  0
  140.4000   70.9380  226.0200 C   0  0  0  0  0  0  0  0  0  0  0  0
  140.0400   71.5460  224.8770 N   0  0  0  0  0  0  0  0  0  0  0  0
  139.3940   70.8930  223.8830 C   0  0  0  0  0  0  0  0  0  0  0  0
  139.1020   71.6850  222.6870 C   0  0  0  0  0  0  0  0  0  0  0  0
  139.8450   71.5380  221.6020 C   0  0  0  0  0  0  0  0  0  0  0  0
  140.9390   72.4370  221.2470 C   0  0  0  0  0  0  0  0  0  0  0  0
  142.1980   71.9150  220.9160 C   0  0  0  0  0  0  0  0  0  0  0  0
  143.2600   72.6900  220.5760 C   0  0  0  0  0  0  0  0  0  0  0  0
  143.1190   74.0630  220.5470 C   0  0  0  0  0  0  0  0  0  0  0  0
  141.9090   74.6130  220.8620 C   0  0  0  0  0  0  0  0  0  0  0  0
  141.8020   75.9980  220.8230 O   0  0  0  0  0  0  0  0  0  0  0  0
  140.8320   73.8000  221.2080 C   0  0  0  0  0  0  0  0  0  0  0  0
  139.0600   69.5920  223.9540 N   0  0  0  0  0  0  0  0  0  0  0  0
  138.3420   68.8890  222.9150 C   0  0  0  0  0  0  0  0  0  0  0  0
  136.9260   68.7310  223.3250 C   0  0  0  0  0  0  0  0  0  0  0  0
  136.4470   69.4370  224.4360 C   0  0  0  0  0  0  0  0  0  0  0  0
  135.1270   69.3200  224.8510 C   0  0  0  0  0  0  0  0  0  0  0  0
  134.2780   68.4930  224.1570 C   0  0  0  0  0  0  0  0  0  0  0  0
  134.7170   67.8110  223.0940 N   0  0  0  0  0  0  0  0  0  0  0  0
  136.0070   67.9300  222.6940 C   0  0  0  0  0  0  0  0  0  0  0  0
  140.1745   67.8660  227.3882 H   0  0  0  0  0  0  0  0  0  0  0  0
  141.3715   69.0483  229.2469 H   0  0  0  0  0  0  0  0  0  0  0  0
  141.3103   72.6889  226.9210 H   0  0  0  0  0  0  0  0  0  0  0  0
  138.2667   72.4008  222.6903 H   0  0  0  0  0  0  0  0  0  0  0  0
  139.6267   70.6934  220.9319 H   0  0  0  0  0  0  0  0  0  0  0  0
  142.3318   70.8233  220.9326 H   0  0  0  0  0  0  0  0  0  0  0  0
  144.2258   72.2270  220.3255 H   0  0  0  0  0  0  0  0  0  0  0  0
  143.9693   74.7052  220.2740 H   0  0  0  0  0  0  0  0  0  0  0  0
  142.2650   76.5440  221.5410 H   0  0  0  0  0  0  0  0  0  0  0  0
  139.8680   74.2676  221.4570 H   0  0  0  0  0  0  0  0  0  0  0  0
  138.3923   69.4642  221.9787 H   0  0  0  0  0  0  0  0  0  0  0  0
  138.7945   67.8989  222.7568 H   0  0  0  0  0  0  0  0  0  0  0  0
  137.1300   70.0971  224.9907 H   0  0  0  0  0  0  0  0  0  0  0  0
  134.7659   69.8826  225.7246 H   0  0  0  0  0  0  0  0  0  0  0  0
  133.2307   68.3911  224.4776 H   0  0  0  0  0  0  0  0  0  0  0  0
  136.3349   67.3535  221.8164 H   0  0  0  0  0  0  0  0  0  0  0  0
  1  2  2  0
  2  3  1  0
  3  4  2  0
  4  5  1  0
  5  6  2  0
  6  7  1  0
  6  8  1  0
  8  9  2  0
  9 10  1  0
 10 11  2  0
 11 12  1  0
 12 13  2  0
 13 14  1  0
 14 15  2  0
 15 16  1  0
 16 17  2  0
 17 18  1  0
 18 19  1  0
 18 20  2  0
 11 21  1  0
 21 22  1  0
 22 23  1  0
 23 24  2  0
 24 25  1  0
 25 26  2  0
 26 27  1  0
 27 28  2  0
 21  2  1  0
 28 23  1  0
  9  3  1  0
 20 14  1  0
  4 29  1  0
  5 30  1  0
  8 31  1  0
 12 32  1  0
 13 33  1  0
 15 34  1  0
 16 35  1  0
 17 36  1  0
 19 37  1  0
 20 38  1  0
 22 39  1  0
 22 40  1  0
 24 41  1  0
 25 42  1  0
 26 43  1  0
 28 44  1  0
M  END
>  <smiles>  (46) 
O=c1c2ccc(F)cc2nc(/C=C/c2cccc(O)c2)n1Cc1cccnc1

>  <score_type>  (46) 
oracle

>  <origin>  (46) 
autodockgpu

>  <m_score__min__energy>  (46) 
-8.4100000000000001

>  <m_primary>  (46) 
energy

>  <rmsd>  (46) 
11.813180949049306

>  <m_score__min__rmsd>  (46) 
11.813180949049306

>  <meeko>  (46) 
{"free_energy": -7.46, "intermolecular_energy": -9.25, "internal_energy": -1.0, "cluster_size": 19, "cluster_id": 2, "rank_in_cluster": 15}

>  <energy>  (46) 
-5.83

>  <cluster_rmsd>  (46) 
1.29

>  <cluster>  (46) 
9

$$$$

     RDKit          3D

 44 47  0  0  0  0  0  0  0  0999 V2000
  139.2050   67.7410  225.1680 O   0  0  0  0  0  0  0  0  0  0  0  0
  139.4830   68.9340  224.8780 C   0  0  0  0  0  0  0  0  0  0  0  0
  140.0420   69.6760  225.9270 C   0  0  0  0  0  0  0  0  0  0  0  0
  140.2530   69.1110  227.1670 C   0  0  0  0  0  0  0  0  0  0  0  0
  140.8090   69.8500  228.2130 C   0  0  0  0  0  0  0  0  0  0  0  0
  141.1360   71.1640  227.9550 C   0  0  0  0  0  0  0  0  0  0  0  0
  141.6740   71.8930  228.9570 F   0  0  0  0  0  0  0  0  0  0  0  0
  140.9430   71.7660  226.7390 C   0  0  0  0  0  0  0  0  0  0  0  0
  140.3900   70.9960  225.7330 C   0  0  0  0  0  0  0  0  0  0  0  0
  140.1660   71.5000  224.5080 N   0  0  0  0  0  0  0  0  0  0  0  0
  139.6250   70.7620  223.5100 C   0  0  0  0  0  0  0  0  0  0  0  0
  139.4760   71.4440  222.2240 C   0  0  0  0  0  0  0  0  0  0  0  0
  139.8880   72.6950  222.0900 C   0  0  0  0  0  0  0  0  0  0  0  0
  141.1650   73.0620  221.4840 C   0  0  0  0  0  0  0  0  0  0  0  0
  141.4080   74.3910  221.1090 C   0  0  0  0  0  0  0  0  0  0  0  0
  142.5710   74.8040  220.5410 C   0  0  0  0  0  0  0  0  0  0  0  0
  143.5790   73.8890  220.3110 C   0  0  0  0  0  0  0  0  0  0  0  0
  143.3840   72.5840  220.6620 C   0  0  0  0  0  0  0  0  0  0  0  0
  144.4180   71.6900  220.4170 O   0  0  0  0  0  0  0  0  0  0  0  0
  142.1830   72.1810  221.2430 C   0  0  0  0  0  0  0  0  0  0  0  0
  139.2700   69.4730  223.6590 N   0  0  0  0  0  0  0  0  0  0  0  0
  138.6630   68.6810  222.6140 C   0  0  0  0  0  0  0  0  0  0  0  0
  137.2180   68.5170  222.9060 C   0  0  0  0  0  0  0  0  0  0  0  0
  136.4250   67.7420  222.0510 C   0  0  0  0  0  0  0  0  0  0  0  0
  135.0690   67.5610  222.2910 C   0  0  0  0  0  0  0  0  0  0  0  0
  134.4980   68.1560  223.3900 C   0  0  0  0  0  0  0  0  0  0  0  0
  135.2400   68.9000  224.2170 N   0  0  0  0  0  0  0  0  0  0  0  0
  136.5630   69.0720  223.9770 C   0  0  0  0  0  0  0  0  0  0  0  0
  139.9784   68.0592  227.3351 H   0  0  0  0  0  0  0  0  0  0  0  0
  140.9792   69.4017  229.2030 H   0  0  0  0  0  0  0  0  0  0  0  0
  141.2167   72.8180  226.5706 H   0  0  0  0  0  0  0  0  0  0  0  0
  139.0227   70.9185  221.3706 H   0  0  0  0  0  0  0  0  0  0  0  0
  139.2338   73.5007  222.4544 H   0  0  0  0  0  0  0  0  0  0  0  0
  140.6179   75.1362  221.2833 H   0  0  0  0  0  0  0  0  0  0  0  0
  142.7086   75.8602  220.2662 H   0  0  0  0  0  0  0  0  0  0  0  0
  144.5263   74.2070  219.8512 H   0  0  0  0  0  0  0  0  0  0  0  0
  145.1290   71.5590  221.1270 H   0  0  0  0  0  0  0  0  0  0  0  0
  142.0500   71.1237  221.5156 H   0  0  0  0  0  0  0  0  0  0  0  0
  138.7878   69.1897  221.6467 H   0  0  0  0  0  0  0  0  0  0  0  0
  139.1462   67.6938  222.5693 H   0  0  0  0  0  0  0  0  0  0  0  0
  136.8850   67.2671  221.1719 H   0  0  0  0  0  0  0  0  0  0  0  0
  134.4598   66.9489  221.6097 H   0  0  0  0  0  0  0  0  0  0  0  0
  133.4251   68.0196  223.5905 H   0  0  0  0  0  0  0  0  0  0  0  0
  137.1430   69.6897  224.6784 H   0  0  0  0  0  0  0  0  0  0  0  0
  1  2  2  0
  2  3  1  0
  3  4  2  0
  4  5  1  0
  5  6  2  0
  6  7  1  0
  6  8  1  0
  8  9  2  0
  9 10  1  0
 10 11  2  0
 11 12  1  0
 12 13  2  0
 13 14  1  0
 14 15  2  0
 15 16  1  0
 16 17  2  0
 17 18  1  0
 18 19  1  0
 18 20  2  0
 11 21  1  0
 21 22  1  0
 22 23  1  0
 23 24  2  0
 24 25  1  0
 25 26  2  0
 26 27  1  0
 27 28  2  0
 21  2  1  0
 28 23  1  0
  9  3  1  0
 20 14  1  0
  4 29  1  0
  5 30  1  0
  8 31  1  0
 12 32  1  0
 13 33  1  0
 15 34  1  0
 16 35  1  0
 17 36  1  0
 19 37  1  0
 20 38  1  0
 22 39  1  0
 22 40  1  0
 24 41  1  0
 25 42  1  0
 26 43  1  0
 28 44  1  0
M  END
>  <smiles>  (47) 
O=c1c2ccc(F)cc2nc(/C=C/c2cccc(O)c2)n1Cc1cccnc1

>  <score_type>  (47) 
oracle

>  <origin>  (47) 
autodockgpu

>  <m_score__min__energy>  (47) 
-8.4100000000000001

>  <m_primary>  (47) 
energy

>  <rmsd>  (47) 
11.630894312919043

>  <m_score__min__rmsd>  (47) 
11.630894312919043

>  <meeko>  (47) 
{"free_energy": -7.56, "intermolecular_energy": -9.35, "internal_energy": -0.93, "cluster_size": 19, "cluster_id": 2, "rank_in_cluster": 5}

>  <energy>  (47) 
-5.54

>  <cluster_rmsd>  (47) 
0.0

>  <cluster>  (47) 
10

$$$$

     RDKit          3D

 44 47  0  0  0  0  0  0  0  0999 V2000
  139.1790   67.7700  225.4070 O   0  0  0  0  0  0  0  0  0  0  0  0
  139.4200   68.9730  225.1270 C   0  0  0  0  0  0  0  0  0  0  0  0
  140.0800   69.6880  226.1350 C   0  0  0  0  0  0  0  0  0  0  0  0
  140.4200   69.0890  227.3290 C   0  0  0  0  0  0  0  0  0  0  0  0
  141.0760   69.8010  228.3340 C   0  0  0  0  0  0  0  0  0  0  0  0
  141.3690   71.1250  228.0830 C   0  0  0  0  0  0  0  0  0  0  0  0
  142.0030   71.8280  229.0460 F   0  0  0  0  0  0  0  0  0  0  0  0
  141.0500   71.7610  226.9120 C   0  0  0  0  0  0  0  0  0  0  0  0
  140.4000   71.0160  225.9450 C   0  0  0  0  0  0  0  0  0  0  0  0
  140.0490   71.5530  224.7650 N   0  0  0  0  0  0  0  0  0  0  0  0
  139.4130   70.8410  223.8060 C   0  0  0  0  0  0  0  0  0  0  0  0
  139.1290   71.5590  222.5630 C   0  0  0  0  0  0  0  0  0  0  0  0
  139.9970   71.5150  221.5640 C   0  0  0  0  0  0  0  0  0  0  0  0
  140.9570   72.5780  221.2830 C   0  0  0  0  0  0  0  0  0  0  0  0
  142.2200   72.2650  220.7610 C   0  0  0  0  0  0  0  0  0  0  0  0
  143.1610   73.2010  220.4760 C   0  0  0  0  0  0  0  0  0  0  0  0
  142.8860   74.5340  220.7020 C   0  0  0  0  0  0  0  0  0  0  0  0
  141.6670   74.8840  221.2100 C   0  0  0  0  0  0  0  0  0  0  0  0
  141.4230   76.2340  221.4260 O   0  0  0  0  0  0  0  0  0  0  0  0
  140.7150   73.9070  221.4960 C   0  0  0  0  0  0  0  0  0  0  0  0
  139.0800   69.5460  223.9520 N   0  0  0  0  0  0  0  0  0  0  0  0
  138.3730   68.7790  222.9510 C   0  0  0  0  0  0  0  0  0  0  0  0
  136.9470   68.6710  223.3420 C   0  0  0  0  0  0  0  0  0  0  0  0
  136.4760   69.3970  224.4430 C   0  0  0  0  0  0  0  0  0  0  0  0
  135.1470   69.3250  224.8400 C   0  0  0  0  0  0  0  0  0  0  0  0
  134.2810   68.5240  224.1380 C   0  0  0  0  0  0  0  0  0  0  0  0
  134.7130   67.8220  223.0840 N   0  0  0  0  0  0  0  0  0  0  0  0
  136.0110   67.8970  222.7010 C   0  0  0  0  0  0  0  0  0  0  0  0
  140.1696   68.0304  227.4926 H   0  0  0  0  0  0  0  0  0  0  0  0
  141.3484   69.3255  229.2878 H   0  0  0  0  0  0  0  0  0  0  0  0
  141.3004   72.8195  226.7480 H   0  0  0  0  0  0  0  0  0  0  0  0
  138.1969   72.1338  222.4588 H   0  0  0  0  0  0  0  0  0  0  0  0
  139.9944   70.6299  220.9108 H   0  0  0  0  0  0  0  0  0  0  0  0
  142.4604   71.2082  220.5730 H   0  0  0  0  0  0  0  0  0  0  0  0
  144.1365   72.8986  220.0675 H   0  0  0  0  0  0  0  0  0  0  0  0
  143.6380   75.3044  220.4762 H   0  0  0  0  0  0  0  0  0  0  0  0
  142.1260   76.7870  221.9030 H   0  0  0  0  0  0  0  0  0  0  0  0
  139.7409   74.2138  221.9048 H   0  0  0  0  0  0  0  0  0  0  0  0
  138.4508   69.2839  221.9768 H   0  0  0  0  0  0  0  0  0  0  0  0
  138.8137   67.7741  222.8737 H   0  0  0  0  0  0  0  0  0  0  0  0
  137.1724   70.0370  225.0046 H   0  0  0  0  0  0  0  0  0  0  0  0
  134.7927   69.9028  225.7064 H   0  0  0  0  0  0  0  0  0  0  0  0
  133.2263   68.4589  224.4436 H   0  0  0  0  0  0  0  0  0  0  0  0
  136.3318   67.3064  221.8302 H   0  0  0  0  0  0  0  0  0  0  0  0
  1  2  2  0
  2  3  1  0
  3  4  2  0
  4  5  1  0
  5  6  2  0
  6  7  1  0
  6  8  1  0
  8  9  2  0
  9 10  1  0
 10 11  2  0
 11 12  1  0
 12 13  2  0
 13 14  1  0
 14 15  2  0
 15 16  1  0
 16 17  2  0
 17 18  1  0
 18 19  1  0
 18 20  2  0
 11 21  1  0
 21 22  1  0
 22 23  1  0
 23 24  2  0
 24 25  1  0
 25 26  2  0
 26 27  1  0
 27 28  2  0
 21  2  1  0
 28 23  1  0
  9  3  1  0
 20 14  1  0
  4 29  1  0
  5 30  1  0
  8 31  1  0
 12 32  1  0
 13 33  1  0
 15 34  1  0
 16 35  1  0
 17 36  1  0
 19 37  1  0
 20 38  1  0
 22 39  1  0
 22 40  1  0
 24 41  1  0
 25 42  1  0
 26 43  1  0
 28 44  1  0
M  END
>  <smiles>  (48) 
O=c1c2ccc(F)cc2nc(/C=C/c2cccc(O)c2)n1Cc1cccnc1

>  <score_type>  (48) 
oracle

>  <origin>  (48) 
autodockgpu

>  <m_score__min__energy>  (48) 
-8.4100000000000001

>  <m_primary>  (48) 
energy

>  <rmsd>  (48) 
11.742917552787711

>  <m_score__min__rmsd>  (48) 
11.742917552787711

>  <meeko>  (48) 
{"free_energy": -7.57, "intermolecular_energy": -9.36, "internal_energy": -0.99, "cluster_size": 19, "cluster_id": 2, "rank_in_cluster": 3}

>  <energy>  (48) 
-5.52

>  <cluster_rmsd>  (48) 
0.06

>  <cluster>  (48) 
10

$$$$

     RDKit          3D

 44 47  0  0  0  0  0  0  0  0999 V2000
  139.1930   67.7010  225.2180 O   0  0  0  0  0  0  0  0  0  0  0  0
  139.4820   68.8880  224.9170 C   0  0  0  0  0  0  0  0  0  0  0  0
  140.0330   69.6390  225.9620 C   0  0  0  0  0  0  0  0  0  0  0  0
  140.2280   69.0890  227.2110 C   0  0  0  0  0  0  0  0  0  0  0  0
  140.7770   69.8370  228.2530 C   0  0  0  0  0  0  0  0  0  0  0  0
  141.1150   71.1460  227.9830 C   0  0  0  0  0  0  0  0  0  0  0  0
  141.6470   71.8840  228.9820 F   0  0  0  0  0  0  0  0  0  0  0  0
  140.9390   71.7340  226.7580 C   0  0  0  0  0  0  0  0  0  0  0  0
  140.3920   70.9550  225.7560 C   0  0  0  0  0  0  0  0  0  0  0  0
  140.1840   71.4450  224.5220 N   0  0  0  0  0  0  0  0  0  0  0  0
  139.6500   70.6980  223.5270 C   0  0  0  0  0  0  0  0  0  0  0  0
  139.5190   71.3650  222.2310 C   0  0  0  0  0  0  0  0  0  0  0  0
  139.8560   72.6400  222.1090 C   0  0  0  0  0  0  0  0  0  0  0  0
  141.1140   73.0860  221.5180 C   0  0  0  0  0  0  0  0  0  0  0  0
  141.2870   74.4330  221.1690 C   0  0  0  0  0  0  0  0  0  0  0  0
  142.4290   74.9180  220.6160 C   0  0  0  0  0  0  0  0  0  0  0  0
  143.4860   74.0650  220.3770 C   0  0  0  0  0  0  0  0  0  0  0  0
  143.3610   72.7440  220.7030 C   0  0  0  0  0  0  0  0  0  0  0  0
  144.4430   71.9130  220.4480 O   0  0  0  0  0  0  0  0  0  0  0  0
  142.1800   72.2660  221.2690 C   0  0  0  0  0  0  0  0  0  0  0  0
  139.2850   69.4130  223.6880 N   0  0  0  0  0  0  0  0  0  0  0  0
  138.6840   68.6120  222.6460 C   0  0  0  0  0  0  0  0  0  0  0  0
  137.2330   68.4710  222.9190 C   0  0  0  0  0  0  0  0  0  0  0  0
  136.4420   67.6950  222.0620 C   0  0  0  0  0  0  0  0  0  0  0  0
  135.0810   67.5350  222.2840 C   0  0  0  0  0  0  0  0  0  0  0  0
  134.5010   68.1530  223.3640 C   0  0  0  0  0  0  0  0  0  0  0  0
  135.2400   68.8990  224.1930 N   0  0  0  0  0  0  0  0  0  0  0  0
  136.5690   69.0500  223.9710 C   0  0  0  0  0  0  0  0  0  0  0  0
  139.9455   68.0410  227.3894 H   0  0  0  0  0  0  0  0  0  0  0  0
  140.9339   69.3998  229.2501 H   0  0  0  0  0  0  0  0  0  0  0  0
  141.2212   72.7821  226.5795 H   0  0  0  0  0  0  0  0  0  0  0  0
  139.1415   70.8087  221.3603 H   0  0  0  0  0  0  0  0  0  0  0  0
  139.1512   73.4026  222.4719 H   0  0  0  0  0  0  0  0  0  0  0  0
  140.4571   75.1314  221.3521 H   0  0  0  0  0  0  0  0  0  0  0  0
  142.5102   75.9848  220.3603 H   0  0  0  0  0  0  0  0  0  0  0  0
  144.4172   74.4431  219.9299 H   0  0  0  0  0  0  0  0  0  0  0  0
  145.0270   71.6200  221.2240 H   0  0  0  0  0  0  0  0  0  0  0  0
  142.1032   71.1984  221.5227 H   0  0  0  0  0  0  0  0  0  0  0  0
  138.8298   69.1038  221.6729 H   0  0  0  0  0  0  0  0  0  0  0  0
  139.1554   67.6184  222.6236 H   0  0  0  0  0  0  0  0  0  0  0  0
  136.9085   67.2027  221.1960 H   0  0  0  0  0  0  0  0  0  0  0  0
  134.4745   66.9203  221.6026 H   0  0  0  0  0  0  0  0  0  0  0  0
  133.4232   68.0342  223.5487 H   0  0  0  0  0  0  0  0  0  0  0  0
  137.1463   69.6704  224.6723 H   0  0  0  0  0  0  0  0  0  0  0  0
  1  2  2  0
  2  3  1  0
  3  4  2  0
  4  5  1  0
  5  6  2  0
  6  7  1  0
  6  8  1  0
  8  9  2  0
  9 10  1  0
 10 11  2  0
 11 12  1  0
 12 13  2  0
 13 14  1  0
 14 15  2  0
 15 16  1  0
 16 17  2  0
 17 18  1  0
 18 19  1  0
 18 20  2  0
 11 21  1  0
 21 22  1  0
 22 23  1  0
 23 24  2  0
 24 25  1  0
 25 26  2  0
 26 27  1  0
 27 28  2  0
 21  2  1  0
 28 23  1  0
  9  3  1  0
 20 14  1  0
  4 29  1  0
  5 30  1  0
  8 31  1  0
 12 32  1  0
 13 33  1  0
 15 34  1  0
 16 35  1  0
 17 36  1  0
 19 37  1  0
 20 38  1  0
 22 39  1  0
 22 40  1  0
 24 41  1  0
 25 42  1  0
 26 43  1  0
 28 44  1  0
M  END
>  <smiles>  (49) 
O=c1c2ccc(F)cc2nc(/C=C/c2cccc(O)c2)n1Cc1cccnc1

>  <score_type>  (49) 
oracle

>  <origin>  (49) 
autodockgpu

>  <m_score__min__energy>  (49) 
-8.4100000000000001

>  <m_primary>  (49) 
energy

>  <rmsd>  (49) 
11.661840348854659

>  <m_score__min__rmsd>  (49) 
11.661840348854659

>  <meeko>  (49) 
{"free_energy": -7.56, "intermolecular_energy": -9.35, "internal_energy": -0.93, "cluster_size": 19, "cluster_id": 2, "rank_in_cluster": 4}

>  <energy>  (49) 
-5.51

>  <cluster_rmsd>  (49) 
0.08

>  <cluster>  (49) 
10

$$$$

     RDKit          3D

 44 47  0  0  0  0  0  0  0  0999 V2000
  139.2140   67.6620  225.3320 O   0  0  0  0  0  0  0  0  0  0  0  0
  139.4970   68.8480  225.0200 C   0  0  0  0  0  0  0  0  0  0  0  0
  140.0620   69.6060  226.0530 C   0  0  0  0  0  0  0  0  0  0  0  0
  140.2750   69.0630  227.3020 C   0  0  0  0  0  0  0  0  0  0  0  0
  140.8380   69.8180  228.3320 C   0  0  0  0  0  0  0  0  0  0  0  0
  141.1710   71.1260  228.0500 C   0  0  0  0  0  0  0  0  0  0  0  0
  141.7160   71.8700  229.0360 F   0  0  0  0  0  0  0  0  0  0  0  0
  140.9770   71.7060  226.8240 C   0  0  0  0  0  0  0  0  0  0  0  0
  140.4170   70.9210  225.8340 C   0  0  0  0  0  0  0  0  0  0  0  0
  140.1910   71.4030  224.6000 N   0  0  0  0  0  0  0  0  0  0  0  0
  139.6440   70.6500  223.6180 C   0  0  0  0  0  0  0  0  0  0  0  0
  139.4940   71.3090  222.3200 C   0  0  0  0  0  0  0  0  0  0  0  0
  138.8400   72.4570  222.2350 C   0  0  0  0  0  0  0  0  0  0  0  0
  139.4890   73.7360  221.9680 C   0  0  0  0  0  0  0  0  0  0  0  0
  138.8260   74.9360  222.2640 C   0  0  0  0  0  0  0  0  0  0  0  0
  139.3690   76.1610  222.0440 C   0  0  0  0  0  0  0  0  0  0  0  0
  140.6350   76.2580  221.5020 C   0  0  0  0  0  0  0  0  0  0  0  0
  141.3160   75.1140  221.1990 C   0  0  0  0  0  0  0  0  0  0  0  0
  142.5870   75.2470  220.6550 O   0  0  0  0  0  0  0  0  0  0  0  0
  140.7410   73.8660  221.4330 C   0  0  0  0  0  0  0  0  0  0  0  0
  139.2820   69.3660  223.7910 N   0  0  0  0  0  0  0  0  0  0  0  0
  138.6680   68.5580  222.7620 C   0  0  0  0  0  0  0  0  0  0  0  0
  137.2030   68.5180  222.9870 C   0  0  0  0  0  0  0  0  0  0  0  0
  136.3620   68.0450  221.9720 C   0  0  0  0  0  0  0  0  0  0  0  0
  134.9840   67.9900  222.1430 C   0  0  0  0  0  0  0  0  0  0  0  0
  134.4400   68.4100  223.3320 C   0  0  0  0  0  0  0  0  0  0  0  0
  135.2280   68.8660  224.3120 N   0  0  0  0  0  0  0  0  0  0  0  0
  136.5710   68.9170  224.1390 C   0  0  0  0  0  0  0  0  0  0  0  0
  139.9962   68.0157  227.4903 H   0  0  0  0  0  0  0  0  0  0  0  0
  141.0093   69.3867  229.3293 H   0  0  0  0  0  0  0  0  0  0  0  0
  141.2555   72.7533  226.6354 H   0  0  0  0  0  0  0  0  0  0  0  0
  139.9238   70.8514  221.4167 H   0  0  0  0  0  0  0  0  0  0  0  0
  137.7488   72.4458  222.3731 H   0  0  0  0  0  0  0  0  0  0  0  0
  137.8158   74.8821  222.6959 H   0  0  0  0  0  0  0  0  0  0  0  0
  138.8037   77.0703  222.2961 H   0  0  0  0  0  0  0  0  0  0  0  0
  141.0886   77.2429  221.3169 H   0  0  0  0  0  0  0  0  0  0  0  0
  143.1570   76.0380  220.9330 H   0  0  0  0  0  0  0  0  0  0  0  0
  141.3106   72.9596  221.1801 H   0  0  0  0  0  0  0  0  0  0  0  0
  138.8774   68.9966  221.7752 H   0  0  0  0  0  0  0  0  0  0  0  0
  139.0768   67.5374  222.7986 H   0  0  0  0  0  0  0  0  0  0  0  0
  136.8009   67.7104  221.0205 H   0  0  0  0  0  0  0  0  0  0  0  0
  134.3372   67.6148  221.3363 H   0  0  0  0  0  0  0  0  0  0  0  0
  133.3506   68.3712  223.4792 H   0  0  0  0  0  0  0  0  0  0  0  0
  137.1881   69.2985  224.9658 H   0  0  0  0  0  0  0  0  0  0  0  0
  1  2  2  0
  2  3  1  0
  3  4  2  0
  4  5  1  0
  5  6  2  0
  6  7  1  0
  6  8  1  0
  8  9  2  0
  9 10  1  0
 10 11  2  0
 11 12  1  0
 12 13  2  0
 13 14  1  0
 14 15  2  0
 15 16  1  0
 16 17  2  0
 17 18  1  0
 18 19  1  0
 18 20  2  0
 11 21  1  0
 21 22  1  0
 22 23  1  0
 23 24  2  0
 24 25  1  0
 25 26  2  0
 26 27  1  0
 27 28  2  0
 21  2  1  0
 28 23  1  0
  9  3  1  0
 20 14  1  0
  4 29  1  0
  5 30  1  0
  8 31  1  0
 12 32  1  0
 13 33  1  0
 15 34  1  0
 16 35  1  0
 17 36  1  0
 19 37  1  0
 20 38  1  0
 22 39  1  0
 22 40  1  0
 24 41  1  0
 25 42  1  0
 26 43  1  0
 28 44  1  0
M  END
>  <smiles>  (50) 
O=c1c2ccc(F)cc2nc(/C=C/c2cccc(O)c2)n1Cc1cccnc1

>  <score_type>  (50) 
oracle

>  <origin>  (50) 
autodockgpu

>  <m_score__min__energy>  (50) 
-8.4100000000000001

>  <m_primary>  (50) 
energy

>  <rmsd>  (50) 
11.616788875949029

>  <m_score__min__rmsd>  (50) 
11.616788875949029

>  <meeko>  (50) 
{"free_energy": -7.33, "intermolecular_energy": -9.12, "internal_energy": -0.97, "cluster_size": 19, "cluster_id": 2, "rank_in_cluster": 18}

>  <energy>  (50) 
-5.38

>  <cluster_rmsd>  (50) 
0.0

>  <cluster>  (50) 
11

$$$$
