
     RDKit          3D

 48 51  0  0  0  0  0  0  0  0999 V2000
  140.0990   72.5590  220.6160 O   0  0  0  0  0  0  0  0  0  0  0  0
  139.9270   72.9160  221.7980 C   0  0  0  0  0  0  0  0  0  0  0  0
  139.6920   74.2900  222.0820 N   0  0  0  0  0  0  0  0  0  0  0  0
  139.6440   75.2940  221.0340 C   0  0  0  0  0  0  0  0  0  0  0  0
  140.8440   76.1520  221.1790 C   0  0  0  0  0  0  0  0  0  0  0  0
  141.9820   75.7050  220.8680 O   0  0  0  0  0  0  0  0  0  0  0  0
  140.7900   77.4880  221.6600 N   0  0  0  0  0  0  0  0  0  0  0  0
  141.1240   77.7390  223.0480 C   0  0  0  0  0  0  0  0  0  0  0  0
  142.0320   78.9230  223.1140 C   0  0  0  0  0  0  0  0  0  0  0  0
  141.3150   80.1270  222.5990 C   0  0  0  0  0  0  0  0  0  0  0  0
  140.2530   79.8660  221.5900 C   0  0  0  0  0  0  0  0  0  0  0  0
  140.4090   78.5980  220.8060 C   0  0  1  0  0  0  0  0  0  0  0  0
  141.2450   78.7470  219.6080 C   0  0  0  0  0  0  0  0  0  0  0  0
  141.0090   79.4950  218.4610 C   0  0  0  0  0  0  0  0  0  0  0  0
  142.0390   79.3510  217.5980 N   0  0  0  0  0  0  0  0  0  0  0  0
  142.9180   78.5330  218.1690 C   0  0  0  0  0  0  0  0  0  0  0  0
  142.4580   78.1660  219.3660 N   0  0  0  0  0  0  0  0  0  0  0  0
  139.9650   71.9410  222.8870 C   0  0  0  0  0  0  0  0  0  0  0  0
  139.4820   70.6670  222.6720 C   0  0  0  0  0  0  0  0  0  0  0  0
  139.4990   69.7100  223.6770 C   0  0  0  0  0  0  0  0  0  0  0  0
  140.0300   70.1080  224.9090 C   0  0  0  0  0  0  0  0  0  0  0  0
  140.0710   69.1930  225.9480 C   0  0  0  0  0  0  0  0  0  0  0  0
  140.6000   69.6110  227.1520 C   0  0  0  0  0  0  0  0  0  0  0  0
  140.6740   68.4860  228.5020 Cl  0  0  0  0  0  0  0  0  0  0  0  0
  141.0790   70.8840  227.3570 C   0  0  0  0  0  0  0  0  0  0  0  0
  141.0410   71.8030  226.3230 C   0  0  0  0  0  0  0  0  0  0  0  0
  140.5110   71.3840  225.1150 C   0  0  0  0  0  0  0  0  0  0  0  0
  140.4670   72.2650  224.1050 N   0  0  0  0  0  0  0  0  0  0  0  0
  139.5520   74.5360  223.1050 H   0  0  0  0  0  0  0  0  0  0  0  0
  139.6482   74.8070  220.0477 H   0  0  0  0  0  0  0  0  0  0  0  0
  138.7269   75.8956  221.1175 H   0  0  0  0  0  0  0  0  0  0  0  0
  140.2062   77.9438  223.6186 H   0  0  0  0  0  0  0  0  0  0  0  0
  141.6231   76.8587  223.4791 H   0  0  0  0  0  0  0  0  0  0  0  0
  142.3356   79.0949  224.1572 H   0  0  0  0  0  0  0  0  0  0  0  0
  142.9248   78.7361  222.4992 H   0  0  0  0  0  0  0  0  0  0  0  0
  140.8486   80.6344  223.4563 H   0  0  0  0  0  0  0  0  0  0  0  0
  142.0763   80.7298  222.0823 H   0  0  0  0  0  0  0  0  0  0  0  0
  139.2880   79.8231  222.1162 H   0  0  0  0  0  0  0  0  0  0  0  0
  140.3217   80.6849  220.8588 H   0  0  0  0  0  0  0  0  0  0  0  0
  139.4163   78.3489  220.4028 H   0  0  0  0  0  0  0  0  0  0  0  0
  140.1165   80.1126  218.2820 H   0  0  0  0  0  0  0  0  0  0  0  0
  143.8716   78.2106  217.7254 H   0  0  0  0  0  0  0  0  0  0  0  0
  142.9000   77.5280  220.0780 H   0  0  0  0  0  0  0  0  0  0  0  0
  139.0752   70.4043  221.6843 H   0  0  0  0  0  0  0  0  0  0  0  0
  139.1152   68.6921  223.5137 H   0  0  0  0  0  0  0  0  0  0  0  0
  139.6945   68.1677  225.8178 H   0  0  0  0  0  0  0  0  0  0  0  0
  141.4897   71.1698  228.3366 H   0  0  0  0  0  0  0  0  0  0  0  0
  141.4178   72.8278  226.4561 H   0  0  0  0  0  0  0  0  0  0  0  0
  1  2  2  0
  2  3  1  0
  3  4  1  0
  4  5  1  0
  5  6  2  0
  5  7  1  0
  7  8  1  0
  8  9  1  0
  9 10  1  0
 10 11  1  0
 11 12  1  0
 12 13  1  0
 13 14  2  0
 14 15  1  0
 15 16  2  0
 16 17  1  0
  2 18  1  0
 18 19  2  0
 19 20  1  0
 20 21  2  0
 21 22  1  0
 22 23  2  0
 23 24  1  0
 23 25  1  0
 25 26  2  0
 26 27  1  0
 27 28  2  0
 12  7  1  0
 17 13  1  0
 28 18  1  0
 27 21  1  0
  3 29  1  0
  4 30  1  0
  4 31  1  0
  8 32  1  0
  8 33  1  0
  9 34  1  0
  9 35  1  0
 10 36  1  0
 10 37  1  0
 11 38  1  0
 11 39  1  0
 12 40  1  6
 14 41  1  0
 16 42  1  0
 17 43  1  0
 19 44  1  0
 20 45  1  0
 22 46  1  0
 25 47  1  0
 26 48  1  0
M  END
>  <smiles>  (1) 
O=C(NCC(=O)N1CCCC[C@H]1c1cnc[nH]1)c1ccc2cc(Cl)ccc2n1

>  <score_type>  (1) 
oracle

>  <origin>  (1) 
autodockgpu

>  <m_score__min__energy>  (1) 
-8.0800000000000001

>  <m_primary>  (1) 
energy

>  <rmsd>  (1) 
3.478668631780535

>  <m_score__min__rmsd>  (1) 
3.478668631780535

>  <meeko>  (1) 
{"free_energy": -7.79, "intermolecular_energy": -9.28, "internal_energy": -2.08, "cluster_size": 4, "cluster_id": 2, "rank_in_cluster": 1}

>  <energy>  (1) 
-8.08

>  <cluster_rmsd>  (1) 
0.0

>  <cluster>  (1) 
1

$$$$

     RDKit          3D

 48 51  0  0  0  0  0  0  0  0999 V2000
  139.4300   71.9670  220.7110 O   0  0  0  0  0  0  0  0  0  0  0  0
  139.5130   72.3930  221.8790 C   0  0  0  0  0  0  0  0  0  0  0  0
  139.4810   73.7960  222.1120 N   0  0  0  0  0  0  0  0  0  0  0  0
  139.3530   74.7520  221.0270 C   0  0  0  0  0  0  0  0  0  0  0  0
  140.5640   75.6060  221.0350 C   0  0  0  0  0  0  0  0  0  0  0  0
  141.1780   75.8220  222.1150 O   0  0  0  0  0  0  0  0  0  0  0  0
  141.0910   76.2160  219.8650 N   0  0  0  0  0  0  0  0  0  0  0  0
  140.8720   77.6340  219.6630 C   0  0  0  0  0  0  0  0  0  0  0  0
  142.1580   78.2590  219.2320 C   0  0  0  0  0  0  0  0  0  0  0  0
  142.5790   77.6780  217.9220 C   0  0  0  0  0  0  0  0  0  0  0  0
  142.1240   76.2860  217.6570 C   0  0  0  0  0  0  0  0  0  0  0  0
  141.8360   75.4610  218.8730 C   0  0  1  0  0  0  0  0  0  0  0  0
  143.0170   74.7700  219.4080 C   0  0  0  0  0  0  0  0  0  0  0  0
  143.9500   73.9840  218.7440 C   0  0  0  0  0  0  0  0  0  0  0  0
  144.8810   73.5380  219.6150 N   0  0  0  0  0  0  0  0  0  0  0  0
  144.5610   74.0220  220.8120 C   0  0  0  0  0  0  0  0  0  0  0  0
  143.4540   74.7570  220.7030 N   0  0  0  0  0  0  0  0  0  0  0  0
  139.6420   71.4680  223.0040 C   0  0  0  0  0  0  0  0  0  0  0  0
  139.1780   70.1750  222.8750 C   0  0  0  0  0  0  0  0  0  0  0  0
  139.2810   69.2650  223.9180 C   0  0  0  0  0  0  0  0  0  0  0  0
  139.8750   69.7290  225.0960 C   0  0  0  0  0  0  0  0  0  0  0  0
  140.0020   68.8620  226.1690 C   0  0  0  0  0  0  0  0  0  0  0  0
  140.5930   69.3450  227.3190 C   0  0  0  0  0  0  0  0  0  0  0  0
  140.7770   68.2840  228.7090 Cl  0  0  0  0  0  0  0  0  0  0  0  0
  141.0510   70.6370  227.4390 C   0  0  0  0  0  0  0  0  0  0  0  0
  140.9270   71.5080  226.3710 C   0  0  0  0  0  0  0  0  0  0  0  0
  140.3350   71.0240  225.2170 C   0  0  0  0  0  0  0  0  0  0  0  0
  140.2080   71.8570  224.1740 N   0  0  0  0  0  0  0  0  0  0  0  0
  139.5540   74.1010  223.1260 H   0  0  0  0  0  0  0  0  0  0  0  0
  139.2752   74.2210  220.0668 H   0  0  0  0  0  0  0  0  0  0  0  0
  138.4485   75.3643  221.1572 H   0  0  0  0  0  0  0  0  0  0  0  0
  140.1085   77.7838  218.8855 H   0  0  0  0  0  0  0  0  0  0  0  0
  140.5244   78.0972  220.5982 H   0  0  0  0  0  0  0  0  0  0  0  0
  142.0200   79.3450  219.1241 H   0  0  0  0  0  0  0  0  0  0  0  0
  142.9331   78.0613  219.9870 H   0  0  0  0  0  0  0  0  0  0  0  0
  142.1810   78.3214  217.1235 H   0  0  0  0  0  0  0  0  0  0  0  0
  143.6776   77.6334  217.9532 H   0  0  0  0  0  0  0  0  0  0  0  0
  141.2036   76.3385  217.0569 H   0  0  0  0  0  0  0  0  0  0  0  0
  142.9592   75.7871  217.1436 H   0  0  0  0  0  0  0  0  0  0  0  0
  141.1764   74.6413  218.5520 H   0  0  0  0  0  0  0  0  0  0  0  0
  143.9332   73.7581  217.6676 H   0  0  0  0  0  0  0  0  0  0  0  0
  145.1201   73.8443  221.7425 H   0  0  0  0  0  0  0  0  0  0  0  0
  142.9300   75.2810  221.4530 H   0  0  0  0  0  0  0  0  0  0  0  0
  138.7175   69.8593  221.9272 H   0  0  0  0  0  0  0  0  0  0  0  0
  138.9144   68.2323  223.8229 H   0  0  0  0  0  0  0  0  0  0  0  0
  139.6439   67.8238  226.1066 H   0  0  0  0  0  0  0  0  0  0  0  0
  141.5129   70.9754  228.3782 H   0  0  0  0  0  0  0  0  0  0  0  0
  141.2853   72.5459  226.4365 H   0  0  0  0  0  0  0  0  0  0  0  0
  1  2  2  0
  2  3  1  0
  3  4  1  0
  4  5  1  0
  5  6  2  0
  5  7  1  0
  7  8  1  0
  8  9  1  0
  9 10  1  0
 10 11  1  0
 11 12  1  0
 12 13  1  0
 13 14  2  0
 14 15  1  0
 15 16  2  0
 16 17  1  0
  2 18  1  0
 18 19  2  0
 19 20  1  0
 20 21  2  0
 21 22  1  0
 22 23  2  0
 23 24  1  0
 23 25  1  0
 25 26  2  0
 26 27  1  0
 27 28  2  0
 12  7  1  0
 17 13  1  0
 28 18  1  0
 27 21  1  0
  3 29  1  0
  4 30  1  0
  4 31  1  0
  8 32  1  0
  8 33  1  0
  9 34  1  0
  9 35  1  0
 10 36  1  0
 10 37  1  0
 11 38  1  0
 11 39  1  0
 12 40  1  6
 14 41  1  0
 16 42  1  0
 17 43  1  0
 19 44  1  0
 20 45  1  0
 22 46  1  0
 25 47  1  0
 26 48  1  0
M  END
>  <smiles>  (2) 
O=C(NCC(=O)N1CCCC[C@H]1c1cnc[nH]1)c1ccc2cc(Cl)ccc2n1

>  <score_type>  (2) 
oracle

>  <origin>  (2) 
autodockgpu

>  <m_score__min__energy>  (2) 
-8.0800000000000001

>  <m_primary>  (2) 
energy

>  <rmsd>  (2) 
2.5704716487718042

>  <m_score__min__rmsd>  (2) 
2.5704716487718042

>  <meeko>  (2) 
{"free_energy": -7.65, "intermolecular_energy": -9.14, "internal_energy": -2.44, "cluster_size": 23, "cluster_id": 3, "rank_in_cluster": 6}

>  <energy>  (2) 
-8.06

>  <cluster_rmsd>  (2) 
0.11

>  <cluster>  (2) 
1

$$$$

     RDKit          3D

 48 51  0  0  0  0  0  0  0  0999 V2000
  138.9150   71.9940  220.8180 O   0  0  0  0  0  0  0  0  0  0  0  0
  139.2940   72.3970  221.9350 C   0  0  0  0  0  0  0  0  0  0  0  0
  139.5570   73.7820  222.1220 N   0  0  0  0  0  0  0  0  0  0  0  0
  139.3960   74.7460  221.0480 C   0  0  0  0  0  0  0  0  0  0  0  0
  140.5630   75.6590  221.0840 C   0  0  0  0  0  0  0  0  0  0  0  0
  141.3530   75.6360  222.0670 O   0  0  0  0  0  0  0  0  0  0  0  0
  140.8550   76.5860  220.0480 N   0  0  0  0  0  0  0  0  0  0  0  0
  140.1150   76.4930  218.8050 C   0  0  0  0  0  0  0  0  0  0  0  0
  139.6840   77.8650  218.4020 C   0  0  0  0  0  0  0  0  0  0  0  0
  140.8890   78.7090  218.1460 C   0  0  0  0  0  0  0  0  0  0  0  0
  142.1110   78.3410  218.9110 C   0  0  0  0  0  0  0  0  0  0  0  0
  141.8690   77.6150  220.1990 C   0  0  1  0  0  0  0  0  0  0  0  0
  141.6510   78.5070  221.3450 C   0  0  0  0  0  0  0  0  0  0  0  0
  141.3980   79.8730  221.3580 C   0  0  0  0  0  0  0  0  0  0  0  0
  141.2600   80.3030  222.6320 N   0  0  0  0  0  0  0  0  0  0  0  0
  141.4190   79.2460  223.4220 C   0  0  0  0  0  0  0  0  0  0  0  0
  141.6520   78.1700  222.6700 N   0  0  0  0  0  0  0  0  0  0  0  0
  139.4700   71.4630  223.0470 C   0  0  0  0  0  0  0  0  0  0  0  0
  139.0180   70.1660  222.9190 C   0  0  0  0  0  0  0  0  0  0  0  0
  139.1640   69.2470  223.9490 C   0  0  0  0  0  0  0  0  0  0  0  0
  139.7900   69.7080  225.1120 C   0  0  0  0  0  0  0  0  0  0  0  0
  139.9610   68.8330  226.1730 C   0  0  0  0  0  0  0  0  0  0  0  0
  140.5810   69.3130  227.3080 C   0  0  0  0  0  0  0  0  0  0  0  0
  140.8220   68.2410  228.6810 Cl  0  0  0  0  0  0  0  0  0  0  0  0
  141.0260   70.6090  227.4260 C   0  0  0  0  0  0  0  0  0  0  0  0
  140.8580   71.4880  226.3710 C   0  0  0  0  0  0  0  0  0  0  0  0
  140.2370   71.0080  225.2320 C   0  0  0  0  0  0  0  0  0  0  0  0
  140.0680   71.8490  224.2020 N   0  0  0  0  0  0  0  0  0  0  0  0
  139.8770   74.0680  223.0920 H   0  0  0  0  0  0  0  0  0  0  0  0
  139.3573   74.2253  220.0798 H   0  0  0  0  0  0  0  0  0  0  0  0
  138.4606   75.3109  221.1741 H   0  0  0  0  0  0  0  0  0  0  0  0
  140.7573   76.0619  218.0229 H   0  0  0  0  0  0  0  0  0  0  0  0
  139.2346   75.8474  218.9397 H   0  0  0  0  0  0  0  0  0  0  0  0
  139.0771   77.8048  217.4866 H   0  0  0  0  0  0  0  0  0  0  0  0
  139.0861   78.3138  219.2089 H   0  0  0  0  0  0  0  0  0  0  0  0
  141.1280   78.6401  217.0745 H   0  0  0  0  0  0  0  0  0  0  0  0
  140.6209   79.7222  218.4800 H   0  0  0  0  0  0  0  0  0  0  0  0
  142.7315   77.6974  218.2701 H   0  0  0  0  0  0  0  0  0  0  0  0
  142.5944   79.2904  219.1847 H   0  0  0  0  0  0  0  0  0  0  0  0
  142.8036   77.0916  220.4491 H   0  0  0  0  0  0  0  0  0  0  0  0
  141.3214   80.5099  220.4644 H   0  0  0  0  0  0  0  0  0  0  0  0
  141.3667   79.2572  224.5207 H   0  0  0  0  0  0  0  0  0  0  0  0
  141.8220   77.1760  222.9720 H   0  0  0  0  0  0  0  0  0  0  0  0
  138.5325   69.8540  221.9826 H   0  0  0  0  0  0  0  0  0  0  0  0
  138.8064   68.2110  223.8557 H   0  0  0  0  0  0  0  0  0  0  0  0
  139.6141   67.7909  226.1122 H   0  0  0  0  0  0  0  0  0  0  0  0
  141.5126   70.9446  228.3537 H   0  0  0  0  0  0  0  0  0  0  0  0
  141.2053   72.5297  226.4355 H   0  0  0  0  0  0  0  0  0  0  0  0
  1  2  2  0
  2  3  1  0
  3  4  1  0
  4  5  1  0
  5  6  2  0
  5  7  1  0
  7  8  1  0
  8  9  1  0
  9 10  1  0
 10 11  1  0
 11 12  1  0
 12 13  1  0
 13 14  2  0
 14 15  1  0
 15 16  2  0
 16 17  1  0
  2 18  1  0
 18 19  2  0
 19 20  1  0
 20 21  2  0
 21 22  1  0
 22 23  2  0
 23 24  1  0
 23 25  1  0
 25 26  2  0
 26 27  1  0
 27 28  2  0
 12  7  1  0
 17 13  1  0
 28 18  1  0
 27 21  1  0
  3 29  1  0
  4 30  1  0
  4 31  1  0
  8 32  1  0
  8 33  1  0
  9 34  1  0
  9 35  1  0
 10 36  1  0
 10 37  1  0
 11 38  1  0
 11 39  1  0
 12 40  1  1
 14 41  1  0
 16 42  1  0
 17 43  1  0
 19 44  1  0
 20 45  1  0
 22 46  1  0
 25 47  1  0
 26 48  1  0
M  END
>  <smiles>  (3) 
O=C(NCC(=O)N1CCCC[C@H]1c1cnc[nH]1)c1ccc2cc(Cl)ccc2n1

>  <score_type>  (3) 
oracle

>  <origin>  (3) 
autodockgpu

>  <m_score__min__energy>  (3) 
-8.0800000000000001

>  <m_primary>  (3) 
energy

>  <rmsd>  (3) 
1.5230855439349618

>  <m_score__min__rmsd>  (3) 
1.5230855439349618

>  <meeko>  (3) 
{"free_energy": -7.48, "intermolecular_energy": -8.98, "internal_energy": -2.41, "cluster_size": 17, "cluster_id": 1, "rank_in_cluster": 14}

>  <energy>  (3) 
-8.06

>  <cluster_rmsd>  (3) 
1.72

>  <cluster>  (3) 
1

$$$$

     RDKit          3D

 48 51  0  0  0  0  0  0  0  0999 V2000
  139.8830   72.7000  220.7730 O   0  0  0  0  0  0  0  0  0  0  0  0
  139.7050   72.9850  221.9720 C   0  0  0  0  0  0  0  0  0  0  0  0
  139.3850   74.3250  222.3280 N   0  0  0  0  0  0  0  0  0  0  0  0
  139.2560   75.3740  221.3330 C   0  0  0  0  0  0  0  0  0  0  0  0
  140.6140   75.8990  221.0550 C   0  0  0  0  0  0  0  0  0  0  0  0
  141.6150   75.4070  221.6450 O   0  0  0  0  0  0  0  0  0  0  0  0
  140.8650   76.9530  220.1350 N   0  0  0  0  0  0  0  0  0  0  0  0
  140.0330   77.0550  218.9530 C   0  0  0  0  0  0  0  0  0  0  0  0
  139.6270   78.4810  218.7760 C   0  0  0  0  0  0  0  0  0  0  0  0
  140.8420   79.3180  218.5460 C   0  0  0  0  0  0  0  0  0  0  0  0
  142.1010   78.8120  219.1550 C   0  0  0  0  0  0  0  0  0  0  0  0
  141.9260   77.9210  220.3470 C   0  0  1  0  0  0  0  0  0  0  0  0
  141.8280   78.6500  221.6170 C   0  0  0  0  0  0  0  0  0  0  0  0
  141.7940   80.0210  221.8430 C   0  0  0  0  0  0  0  0  0  0  0  0
  141.6990   80.2670  223.1670 N   0  0  0  0  0  0  0  0  0  0  0  0
  141.6710   79.0900  223.7850 C   0  0  0  0  0  0  0  0  0  0  0  0
  141.7470   78.1190  222.8740 N   0  0  0  0  0  0  0  0  0  0  0  0
  139.8230   71.9620  223.0100 C   0  0  0  0  0  0  0  0  0  0  0  0
  139.4270   70.6690  222.7350 C   0  0  0  0  0  0  0  0  0  0  0  0
  139.5210   69.6670  223.6900 C   0  0  0  0  0  0  0  0  0  0  0  0
  140.0360   70.0390  224.9360 C   0  0  0  0  0  0  0  0  0  0  0  0
  140.1520   69.0780  225.9270 C   0  0  0  0  0  0  0  0  0  0  0  0
  140.6640   69.4720  227.1470 C   0  0  0  0  0  0  0  0  0  0  0  0
  140.8310   68.2890  228.4380 Cl  0  0  0  0  0  0  0  0  0  0  0  0
  141.0550   70.7640  227.4130 C   0  0  0  0  0  0  0  0  0  0  0  0
  140.9420   71.7280  226.4270 C   0  0  0  0  0  0  0  0  0  0  0  0
  140.4300   71.3340  225.2040 C   0  0  0  0  0  0  0  0  0  0  0  0
  140.3140   72.2590  224.2390 N   0  0  0  0  0  0  0  0  0  0  0  0
  139.2440   74.5100  223.3640 H   0  0  0  0  0  0  0  0  0  0  0  0
  138.8164   74.9646  220.4115 H   0  0  0  0  0  0  0  0  0  0  0  0
  138.6000   76.1765  221.7012 H   0  0  0  0  0  0  0  0  0  0  0  0
  140.5990   76.7190  218.0717 H   0  0  0  0  0  0  0  0  0  0  0  0
  139.1405   76.4222  219.0667 H   0  0  0  0  0  0  0  0  0  0  0  0
  138.9536   78.5661  217.9104 H   0  0  0  0  0  0  0  0  0  0  0  0
  139.1065   78.8297  219.6802 H   0  0  0  0  0  0  0  0  0  0  0  0
  140.9990   79.3938  217.4599 H   0  0  0  0  0  0  0  0  0  0  0  0
  140.6387   80.2812  219.0368 H   0  0  0  0  0  0  0  0  0  0  0  0
  142.6465   78.2460  218.3855 H   0  0  0  0  0  0  0  0  0  0  0  0
  142.6405   79.6996  219.5169 H   0  0  0  0  0  0  0  0  0  0  0  0
  142.8552   77.3415  220.4510 H   0  0  0  0  0  0  0  0  0  0  0  0
  141.8380   80.7915  221.0591 H   0  0  0  0  0  0  0  0  0  0  0  0
  141.5971   78.9412  224.8724 H   0  0  0  0  0  0  0  0  0  0  0  0
  141.7510   77.0750  223.0180 H   0  0  0  0  0  0  0  0  0  0  0  0
  139.0287   70.4279  221.7384 H   0  0  0  0  0  0  0  0  0  0  0  0
  139.2070   68.6342  223.4783 H   0  0  0  0  0  0  0  0  0  0  0  0
  139.8466   68.0365  225.7479 H   0  0  0  0  0  0  0  0  0  0  0  0
  141.4548   71.0288  228.4030 H   0  0  0  0  0  0  0  0  0  0  0  0
  141.2479   72.7688  226.6089 H   0  0  0  0  0  0  0  0  0  0  0  0
  1  2  2  0
  2  3  1  0
  3  4  1  0
  4  5  1  0
  5  6  2  0
  5  7  1  0
  7  8  1  0
  8  9  1  0
  9 10  1  0
 10 11  1  0
 11 12  1  0
 12 13  1  0
 13 14  2  0
 14 15  1  0
 15 16  2  0
 16 17  1  0
  2 18  1  0
 18 19  2  0
 19 20  1  0
 20 21  2  0
 21 22  1  0
 22 23  2  0
 23 24  1  0
 23 25  1  0
 25 26  2  0
 26 27  1  0
 27 28  2  0
 12  7  1  0
 17 13  1  0
 28 18  1  0
 27 21  1  0
  3 29  1  0
  4 30  1  0
  4 31  1  0
  8 32  1  0
  8 33  1  0
  9 34  1  0
  9 35  1  0
 10 36  1  0
 10 37  1  0
 11 38  1  0
 11 39  1  0
 12 40  1  1
 14 41  1  0
 16 42  1  0
 17 43  1  0
 19 44  1  0
 20 45  1  0
 22 46  1  0
 25 47  1  0
 26 48  1  0
M  END
>  <smiles>  (4) 
O=C(NCC(=O)N1CCCC[C@H]1c1cnc[nH]1)c1ccc2cc(Cl)ccc2n1

>  <score_type>  (4) 
oracle

>  <origin>  (4) 
autodockgpu

>  <m_score__min__energy>  (4) 
-8.0800000000000001

>  <m_primary>  (4) 
energy

>  <rmsd>  (4) 
1.9238430880834958

>  <m_score__min__rmsd>  (4) 
1.9238430880834958

>  <meeko>  (4) 
{"free_energy": -7.72, "intermolecular_energy": -9.21, "internal_energy": -2.1, "cluster_size": 17, "cluster_id": 1, "rank_in_cluster": 10}

>  <energy>  (4) 
-8.06

>  <cluster_rmsd>  (4) 
0.12

>  <cluster>  (4) 
1

$$$$

     RDKit          3D

 48 51  0  0  0  0  0  0  0  0999 V2000
  140.4620   72.2100  220.7350 O   0  0  0  0  0  0  0  0  0  0  0  0
  139.9470   72.5080  221.8290 C   0  0  0  0  0  0  0  0  0  0  0  0
  139.3120   73.7730  221.9780 N   0  0  0  0  0  0  0  0  0  0  0  0
  139.2440   74.7300  220.8880 C   0  0  0  0  0  0  0  0  0  0  0  0
  140.2320   75.7990  221.1660 C   0  0  0  0  0  0  0  0  0  0  0  0
  140.6660   75.9690  222.3380 O   0  0  0  0  0  0  0  0  0  0  0  0
  140.7360   76.6710  220.1630 N   0  0  0  0  0  0  0  0  0  0  0  0
  140.5230   78.0970  220.3130 C   0  0  0  0  0  0  0  0  0  0  0  0
  141.8020   78.8050  220.0110 C   0  0  0  0  0  0  0  0  0  0  0  0
  142.1870   78.5540  218.5910 C   0  0  0  0  0  0  0  0  0  0  0  0
  141.7160   77.2670  218.0110 C   0  0  0  0  0  0  0  0  0  0  0  0
  141.4510   76.1740  219.0010 C   0  0  1  0  0  0  0  0  0  0  0  0
  142.6390   75.3740  219.3250 C   0  0  0  0  0  0  0  0  0  0  0  0
  143.5680   74.7960  218.4690 C   0  0  0  0  0  0  0  0  0  0  0  0
  144.5090   74.1420  219.1850 N   0  0  0  0  0  0  0  0  0  0  0  0
  144.1990   74.2910  220.4690 C   0  0  0  0  0  0  0  0  0  0  0  0
  143.0890   75.0230  220.5680 N   0  0  0  0  0  0  0  0  0  0  0  0
  139.9890   71.5760  222.9550 C   0  0  0  0  0  0  0  0  0  0  0  0
  139.5190   70.2900  222.7880 C   0  0  0  0  0  0  0  0  0  0  0  0
  139.5400   69.3730  223.8300 C   0  0  0  0  0  0  0  0  0  0  0  0
  140.0620   69.8230  225.0470 C   0  0  0  0  0  0  0  0  0  0  0  0
  140.1070   68.9490  226.1200 C   0  0  0  0  0  0  0  0  0  0  0  0
  140.6270   69.4180  227.3100 C   0  0  0  0  0  0  0  0  0  0  0  0
  140.7050   68.3470  228.7020 Cl  0  0  0  0  0  0  0  0  0  0  0  0
  141.0930   70.7030  227.4670 C   0  0  0  0  0  0  0  0  0  0  0  0
  141.0510   71.5820  226.3990 C   0  0  0  0  0  0  0  0  0  0  0  0
  140.5300   71.1110  225.2060 C   0  0  0  0  0  0  0  0  0  0  0  0
  140.4830   71.9520  224.1620 N   0  0  0  0  0  0  0  0  0  0  0  0
  138.8910   73.9730  222.9310 H   0  0  0  0  0  0  0  0  0  0  0  0
  139.4870   74.2331  219.9372 H   0  0  0  0  0  0  0  0  0  0  0  0
  138.2314   75.1521  220.8079 H   0  0  0  0  0  0  0  0  0  0  0  0
  139.7413   78.4302  219.6145 H   0  0  0  0  0  0  0  0  0  0  0  0
  140.2027   78.3226  221.3409 H   0  0  0  0  0  0  0  0  0  0  0  0
  141.6691   79.8854  220.1693 H   0  0  0  0  0  0  0  0  0  0  0  0
  142.5938   78.4312  220.6769 H   0  0  0  0  0  0  0  0  0  0  0  0
  141.7749   79.3706  217.9800 H   0  0  0  0  0  0  0  0  0  0  0  0
  143.2857   78.5011  218.5838 H   0  0  0  0  0  0  0  0  0  0  0  0
  140.7820   77.4630  217.4640 H   0  0  0  0  0  0  0  0  0  0  0  0
  142.5351   76.9050  217.3723 H   0  0  0  0  0  0  0  0  0  0  0  0
  140.7782   75.4555  218.5100 H   0  0  0  0  0  0  0  0  0  0  0  0
  143.5415   74.8611  217.3712 H   0  0  0  0  0  0  0  0  0  0  0  0
  144.7674   73.8766  221.3147 H   0  0  0  0  0  0  0  0  0  0  0  0
  142.5710   75.3280  221.4330 H   0  0  0  0  0  0  0  0  0  0  0  0
  139.1195   69.9850  221.8095 H   0  0  0  0  0  0  0  0  0  0  0  0
  139.1657   68.3462  223.7050 H   0  0  0  0  0  0  0  0  0  0  0  0
  139.7408   67.9159  226.0275 H   0  0  0  0  0  0  0  0  0  0  0  0
  141.4969   71.0300  228.4365 H   0  0  0  0  0  0  0  0  0  0  0  0
  141.4173   72.6148  226.4943 H   0  0  0  0  0  0  0  0  0  0  0  0
  1  2  2  0
  2  3  1  0
  3  4  1  0
  4  5  1  0
  5  6  2  0
  5  7  1  0
  7  8  1  0
  8  9  1  0
  9 10  1  0
 10 11  1  0
 11 12  1  0
 12 13  1  0
 13 14  2  0
 14 15  1  0
 15 16  2  0
 16 17  1  0
  2 18  1  0
 18 19  2  0
 19 20  1  0
 20 21  2  0
 21 22  1  0
 22 23  2  0
 23 24  1  0
 23 25  1  0
 25 26  2  0
 26 27  1  0
 27 28  2  0
 12  7  1  0
 17 13  1  0
 28 18  1  0
 27 21  1  0
  3 29  1  0
  4 30  1  0
  4 31  1  0
  8 32  1  0
  8 33  1  0
  9 34  1  0
  9 35  1  0
 10 36  1  0
 10 37  1  0
 11 38  1  0
 11 39  1  0
 12 40  1  6
 14 41  1  0
 16 42  1  0
 17 43  1  0
 19 44  1  0
 20 45  1  0
 22 46  1  0
 25 47  1  0
 26 48  1  0
M  END
>  <smiles>  (5) 
O=C(NCC(=O)N1CCCC[C@H]1c1cnc[nH]1)c1ccc2cc(Cl)ccc2n1

>  <score_type>  (5) 
oracle

>  <origin>  (5) 
autodockgpu

>  <m_score__min__energy>  (5) 
-8.0800000000000001

>  <m_primary>  (5) 
energy

>  <rmsd>  (5) 
2.6295926025024148

>  <m_score__min__rmsd>  (5) 
2.6295926025024148

>  <meeko>  (5) 
{"free_energy": -7.76, "intermolecular_energy": -9.25, "internal_energy": -2.26, "cluster_size": 23, "cluster_id": 3, "rank_in_cluster": 1}

>  <energy>  (5) 
-7.98

>  <cluster_rmsd>  (5) 
0.24

>  <cluster>  (5) 
1

$$$$

     RDKit          3D

 48 51  0  0  0  0  0  0  0  0999 V2000
  140.7350   72.3650  220.9020 O   0  0  0  0  0  0  0  0  0  0  0  0
  140.1160   72.6120  221.9540 C   0  0  0  0  0  0  0  0  0  0  0  0
  139.4160   73.8450  222.0770 N   0  0  0  0  0  0  0  0  0  0  0  0
  139.4000   74.8280  221.0090 C   0  0  0  0  0  0  0  0  0  0  0  0
  140.7510   75.4320  220.9330 C   0  0  0  0  0  0  0  0  0  0  0  0
  141.4500   75.5500  221.9770 O   0  0  0  0  0  0  0  0  0  0  0  0
  141.3250   75.9010  219.7210 N   0  0  0  0  0  0  0  0  0  0  0  0
  141.1960   77.3070  219.3910 C   0  0  0  0  0  0  0  0  0  0  0  0
  142.5210   77.8120  218.9240 C   0  0  0  0  0  0  0  0  0  0  0  0
  142.9160   77.0920  217.6770 C   0  0  0  0  0  0  0  0  0  0  0  0
  142.3780   75.7120  217.5290 C   0  0  0  0  0  0  0  0  0  0  0  0
  142.0300   75.0170  218.8100 C   0  0  1  0  0  0  0  0  0  0  0  0
  143.1610   74.3070  219.4200 C   0  0  0  0  0  0  0  0  0  0  0  0
  144.4310   74.0750  218.9080 C   0  0  0  0  0  0  0  0  0  0  0  0
  145.1680   73.3780  219.8000 N   0  0  0  0  0  0  0  0  0  0  0  0
  144.3970   73.1630  220.8620 C   0  0  0  0  0  0  0  0  0  0  0  0
  143.2000   73.7110  220.6500 N   0  0  0  0  0  0  0  0  0  0  0  0
  140.1020   71.6520  223.0570 C   0  0  0  0  0  0  0  0  0  0  0  0
  139.5830   70.3900  222.8500 C   0  0  0  0  0  0  0  0  0  0  0  0
  139.5510   69.4480  223.8690 C   0  0  0  0  0  0  0  0  0  0  0  0
  140.0700   69.8470  225.1040 C   0  0  0  0  0  0  0  0  0  0  0  0
  140.0630   68.9450  226.1570 C   0  0  0  0  0  0  0  0  0  0  0  0
  140.5810   69.3640  227.3650 C   0  0  0  0  0  0  0  0  0  0  0  0
  140.5940   68.2570  228.7310 Cl  0  0  0  0  0  0  0  0  0  0  0  0
  141.0960   70.6250  227.5620 C   0  0  0  0  0  0  0  0  0  0  0  0
  141.1070   71.5300  226.5150 C   0  0  0  0  0  0  0  0  0  0  0  0
  140.5870   71.1110  225.3030 C   0  0  0  0  0  0  0  0  0  0  0  0
  140.5910   71.9770  224.2800 N   0  0  0  0  0  0  0  0  0  0  0  0
  138.9070   74.0010  222.9940 H   0  0  0  0  0  0  0  0  0  0  0  0
  139.1533   74.3402  220.0544 H   0  0  0  0  0  0  0  0  0  0  0  0
  138.6429   75.6008  221.2078 H   0  0  0  0  0  0  0  0  0  0  0  0
  140.4495   77.4330  218.5930 H   0  0  0  0  0  0  0  0  0  0  0  0
  140.8705   77.8718  220.2770 H   0  0  0  0  0  0  0  0  0  0  0  0
  142.4508   78.8903  218.7183 H   0  0  0  0  0  0  0  0  0  0  0  0
  143.2764   77.6362  219.7041 H   0  0  0  0  0  0  0  0  0  0  0  0
  142.5655   77.6849  216.8193 H   0  0  0  0  0  0  0  0  0  0  0  0
  144.0094   76.9831  217.7279 H   0  0  0  0  0  0  0  0  0  0  0  0
  141.4673   75.7669  216.9145 H   0  0  0  0  0  0  0  0  0  0  0  0
  143.1846   75.1197  217.0723 H   0  0  0  0  0  0  0  0  0  0  0  0
  141.3243   74.2131  218.5535 H   0  0  0  0  0  0  0  0  0  0  0  0
  144.7846   74.4095  217.9216 H   0  0  0  0  0  0  0  0  0  0  0  0
  144.6984   72.6201  221.7699 H   0  0  0  0  0  0  0  0  0  0  0  0
  142.3570   73.7260  221.2820 H   0  0  0  0  0  0  0  0  0  0  0  0
  139.1871   70.1256  221.8584 H   0  0  0  0  0  0  0  0  0  0  0  0
  139.1388   68.4402  223.7128 H   0  0  0  0  0  0  0  0  0  0  0  0
  139.6581   67.9297  226.0334 H   0  0  0  0  0  0  0  0  0  0  0  0
  141.4964   70.9118  228.5456 H   0  0  0  0  0  0  0  0  0  0  0  0
  141.5138   72.5442  226.6415 H   0  0  0  0  0  0  0  0  0  0  0  0
  1  2  2  0
  2  3  1  0
  3  4  1  0
  4  5  1  0
  5  6  2  0
  5  7  1  0
  7  8  1  0
  8  9  1  0
  9 10  1  0
 10 11  1  0
 11 12  1  0
 12 13  1  0
 13 14  2  0
 14 15  1  0
 15 16  2  0
 16 17  1  0
  2 18  1  0
 18 19  2  0
 19 20  1  0
 20 21  2  0
 21 22  1  0
 22 23  2  0
 23 24  1  0
 23 25  1  0
 25 26  2  0
 26 27  1  0
 27 28  2  0
 12  7  1  0
 17 13  1  0
 28 18  1  0
 27 21  1  0
  3 29  1  0
  4 30  1  0
  4 31  1  0
  8 32  1  0
  8 33  1  0
  9 34  1  0
  9 35  1  0
 10 36  1  0
 10 37  1  0
 11 38  1  0
 11 39  1  0
 12 40  1  6
 14 41  1  0
 16 42  1  0
 17 43  1  0
 19 44  1  0
 20 45  1  0
 22 46  1  0
 25 47  1  0
 26 48  1  0
M  END
>  <smiles>  (6) 
O=C(NCC(=O)N1CCCC[C@H]1c1cnc[nH]1)c1ccc2cc(Cl)ccc2n1

>  <score_type>  (6) 
oracle

>  <origin>  (6) 
autodockgpu

>  <m_score__min__energy>  (6) 
-8.0800000000000001

>  <m_primary>  (6) 
energy

>  <rmsd>  (6) 
2.8165192456886996

>  <m_score__min__rmsd>  (6) 
2.8165192456886996

>  <meeko>  (6) 
{"free_energy": -7.32, "intermolecular_energy": -8.81, "internal_energy": -2.87, "cluster_size": 23, "cluster_id": 3, "rank_in_cluster": 18}

>  <energy>  (6) 
-7.9

>  <cluster_rmsd>  (6) 
1.91

>  <cluster>  (6) 
1

$$$$

     RDKit          3D

 48 51  0  0  0  0  0  0  0  0999 V2000
  140.7690   72.6480  220.9120 O   0  0  0  0  0  0  0  0  0  0  0  0
  140.3030   72.9740  222.0210 C   0  0  0  0  0  0  0  0  0  0  0  0
  139.8690   74.3130  222.2270 N   0  0  0  0  0  0  0  0  0  0  0  0
  139.9490   75.3150  221.1800 C   0  0  0  0  0  0  0  0  0  0  0  0
  139.6270   76.6280  221.7890 C   0  0  0  0  0  0  0  0  0  0  0  0
  138.4790   76.8380  222.2670 O   0  0  0  0  0  0  0  0  0  0  0  0
  140.5610   77.6960  221.8700 N   0  0  0  0  0  0  0  0  0  0  0  0
  141.5350   77.8480  220.8070 C   0  0  0  0  0  0  0  0  0  0  0  0
  141.5960   79.2880  220.4180 C   0  0  0  0  0  0  0  0  0  0  0  0
  142.0690   80.0970  221.5800 C   0  0  0  0  0  0  0  0  0  0  0  0
  141.7540   79.5430  222.9250 C   0  0  0  0  0  0  0  0  0  0  0  0
  140.5680   78.6300  222.9820 C   0  0  1  0  0  0  0  0  0  0  0  0
  139.2940   79.3320  223.1820 C   0  0  0  0  0  0  0  0  0  0  0  0
  138.8880   80.1270  224.2460 C   0  0  0  0  0  0  0  0  0  0  0  0
  137.6340   80.5810  224.0290 N   0  0  0  0  0  0  0  0  0  0  0  0
  137.2370   80.0940  222.8580 C   0  0  0  0  0  0  0  0  0  0  0  0
  138.2160   79.3490  222.3420 N   0  0  0  0  0  0  0  0  0  0  0  0
  140.2020   71.9980  223.1050 C   0  0  0  0  0  0  0  0  0  0  0  0
  139.5930   70.7830  222.8670 C   0  0  0  0  0  0  0  0  0  0  0  0
  139.4740   69.8280  223.8680 C   0  0  0  0  0  0  0  0  0  0  0  0
  140.0040   70.1650  225.1180 C   0  0  0  0  0  0  0  0  0  0  0  0
  139.9130   69.2480  226.1530 C   0  0  0  0  0  0  0  0  0  0  0  0
  140.4430   69.6050  227.3760 C   0  0  0  0  0  0  0  0  0  0  0  0
  140.3520   68.4760  228.7210 Cl  0  0  0  0  0  0  0  0  0  0  0  0
  141.0480   70.8200  227.6030 C   0  0  0  0  0  0  0  0  0  0  0  0
  141.1420   71.7400  226.5740 C   0  0  0  0  0  0  0  0  0  0  0  0
  140.6110   71.3820  225.3470 C   0  0  0  0  0  0  0  0  0  0  0  0
  140.6950   72.2640  224.3410 N   0  0  0  0  0  0  0  0  0  0  0  0
  139.4820   74.5330  223.1900 H   0  0  0  0  0  0  0  0  0  0  0  0
  140.9647   75.3363  220.7583 H   0  0  0  0  0  0  0  0  0  0  0  0
  139.2435   75.0825  220.3687 H   0  0  0  0  0  0  0  0  0  0  0  0
  142.5230   77.5175  221.1599 H   0  0  0  0  0  0  0  0  0  0  0  0
  141.2431   77.2370  219.9401 H   0  0  0  0  0  0  0  0  0  0  0  0
  142.2939   79.4115  219.5767 H   0  0  0  0  0  0  0  0  0  0  0  0
  140.5947   79.6294  220.1164 H   0  0  0  0  0  0  0  0  0  0  0  0
  143.1620   80.1931  221.5019 H   0  0  0  0  0  0  0  0  0  0  0  0
  141.5305   81.0541  221.5171 H   0  0  0  0  0  0  0  0  0  0  0  0
  142.6323   78.9806  223.2746 H   0  0  0  0  0  0  0  0  0  0  0  0
  141.5020   80.4071  223.5573 H   0  0  0  0  0  0  0  0  0  0  0  0
  140.6781   78.0234  223.8930 H   0  0  0  0  0  0  0  0  0  0  0  0
  139.4970   80.3534  225.1336 H   0  0  0  0  0  0  0  0  0  0  0  0
  136.2585   80.2759  222.3895 H   0  0  0  0  0  0  0  0  0  0  0  0
  138.2350   78.8200  221.4310 H   0  0  0  0  0  0  0  0  0  0  0  0
  139.1941   70.5667  221.8650 H   0  0  0  0  0  0  0  0  0  0  0  0
  138.9885   68.8576  223.6875 H   0  0  0  0  0  0  0  0  0  0  0  0
  139.4345   68.2687  226.0046 H   0  0  0  0  0  0  0  0  0  0  0  0
  141.4546   71.0584  228.5969 H   0  0  0  0  0  0  0  0  0  0  0  0
  141.6206   72.7188  226.7253 H   0  0  0  0  0  0  0  0  0  0  0  0
  1  2  2  0
  2  3  1  0
  3  4  1  0
  4  5  1  0
  5  6  2  0
  5  7  1  0
  7  8  1  0
  8  9  1  0
  9 10  1  0
 10 11  1  0
 11 12  1  0
 12 13  1  0
 13 14  2  0
 14 15  1  0
 15 16  2  0
 16 17  1  0
  2 18  1  0
 18 19  2  0
 19 20  1  0
 20 21  2  0
 21 22  1  0
 22 23  2  0
 23 24  1  0
 23 25  1  0
 25 26  2  0
 26 27  1  0
 27 28  2  0
 12  7  1  0
 17 13  1  0
 28 18  1  0
 27 21  1  0
  3 29  1  0
  4 30  1  0
  4 31  1  0
  8 32  1  0
  8 33  1  0
  9 34  1  0
  9 35  1  0
 10 36  1  0
 10 37  1  0
 11 38  1  0
 11 39  1  0
 12 40  1  1
 14 41  1  0
 16 42  1  0
 17 43  1  0
 19 44  1  0
 20 45  1  0
 22 46  1  0
 25 47  1  0
 26 48  1  0
M  END
>  <smiles>  (7) 
O=C(NCC(=O)N1CCCC[C@H]1c1cnc[nH]1)c1ccc2cc(Cl)ccc2n1

>  <score_type>  (7) 
oracle

>  <origin>  (7) 
autodockgpu

>  <m_score__min__energy>  (7) 
-8.0800000000000001

>  <m_primary>  (7) 
energy

>  <rmsd>  (7) 
3.2986740222599304

>  <m_score__min__rmsd>  (7) 
3.2986740222599304

>  <meeko>  (7) 
{"free_energy": -7.98, "intermolecular_energy": -9.47, "internal_energy": -1.85, "cluster_size": 17, "cluster_id": 1, "rank_in_cluster": 5}

>  <energy>  (7) 
-7.84

>  <cluster_rmsd>  (7) 
1.72

>  <cluster>  (7) 
1

$$$$

     RDKit          3D

 48 51  0  0  0  0  0  0  0  0999 V2000
  140.6850   73.7620  222.0080 O   0  0  0  0  0  0  0  0  0  0  0  0
  139.9740   72.7390  221.9750 C   0  0  0  0  0  0  0  0  0  0  0  0
  139.1210   72.5210  220.8570 N   0  0  0  0  0  0  0  0  0  0  0  0
  139.0530   73.4560  219.7490 C   0  0  0  0  0  0  0  0  0  0  0  0
  140.4270   73.6240  219.2180 C   0  0  0  0  0  0  0  0  0  0  0  0
  141.0210   72.6490  218.6820 O   0  0  0  0  0  0  0  0  0  0  0  0
  141.1360   74.8530  219.2780 N   0  0  0  0  0  0  0  0  0  0  0  0
  140.4300   76.0410  219.7160 C   0  0  0  0  0  0  0  0  0  0  0  0
  141.2870   76.7710  220.6970 C   0  0  0  0  0  0  0  0  0  0  0  0
  142.5430   77.2170  220.0260 C   0  0  0  0  0  0  0  0  0  0  0  0
  143.0010   76.3760  218.8870 C   0  0  0  0  0  0  0  0  0  0  0  0
  142.5380   74.9510  218.9130 C   0  0  1  0  0  0  0  0  0  0  0  0
  143.4200   74.0600  219.6770 C   0  0  0  0  0  0  0  0  0  0  0  0
  144.8070   74.0580  219.7610 C   0  0  0  0  0  0  0  0  0  0  0  0
  145.2170   73.0650  220.5790 N   0  0  0  0  0  0  0  0  0  0  0  0
  144.1280   72.4390  221.0130 C   0  0  0  0  0  0  0  0  0  0  0  0
  143.0510   73.0210  220.4850 N   0  0  0  0  0  0  0  0  0  0  0  0
  140.0090   71.7680  223.0680 C   0  0  0  0  0  0  0  0  0  0  0  0
  139.5390   70.4890  222.8530 C   0  0  0  0  0  0  0  0  0  0  0  0
  139.5530   69.5360  223.8620 C   0  0  0  0  0  0  0  0  0  0  0  0
  140.0680   69.9430  225.0970 C   0  0  0  0  0  0  0  0  0  0  0  0
  140.1060   69.0320  226.1400 C   0  0  0  0  0  0  0  0  0  0  0  0
  140.6190   69.4590  227.3480 C   0  0  0  0  0  0  0  0  0  0  0  0
  140.6880   68.3400  228.7030 Cl  0  0  0  0  0  0  0  0  0  0  0  0
  141.0850   70.7370  227.5530 C   0  0  0  0  0  0  0  0  0  0  0  0
  141.0500   71.6520  226.5160 C   0  0  0  0  0  0  0  0  0  0  0  0
  140.5360   71.2240  225.3040 C   0  0  0  0  0  0  0  0  0  0  0  0
  140.4960   72.1010  224.2900 N   0  0  0  0  0  0  0  0  0  0  0  0
  138.5390   71.6340  220.8830 H   0  0  0  0  0  0  0  0  0  0  0  0
  138.3934   73.0590  218.9633 H   0  0  0  0  0  0  0  0  0  0  0  0
  138.6478   74.4223  220.0838 H   0  0  0  0  0  0  0  0  0  0  0  0
  140.2227   76.6886  218.8514 H   0  0  0  0  0  0  0  0  0  0  0  0
  139.4768   75.7590  220.1871 H   0  0  0  0  0  0  0  0  0  0  0  0
  140.7431   77.6483  221.0772 H   0  0  0  0  0  0  0  0  0  0  0  0
  141.5364   76.1026  221.5343 H   0  0  0  0  0  0  0  0  0  0  0  0
  142.3803   78.2373  219.6485 H   0  0  0  0  0  0  0  0  0  0  0  0
  143.3322   77.1435  220.7887 H   0  0  0  0  0  0  0  0  0  0  0  0
  142.6341   76.8351  217.9571 H   0  0  0  0  0  0  0  0  0  0  0  0
  144.0980   76.3395  218.9592 H   0  0  0  0  0  0  0  0  0  0  0  0
  142.6142   74.5733  217.8827 H   0  0  0  0  0  0  0  0  0  0  0  0
  145.4724   74.7611  219.2386 H   0  0  0  0  0  0  0  0  0  0  0  0
  144.1170   71.5785  221.6981 H   0  0  0  0  0  0  0  0  0  0  0  0
  142.0350   72.7780  220.6170 H   0  0  0  0  0  0  0  0  0  0  0  0
  139.1452   70.2190  221.8620 H   0  0  0  0  0  0  0  0  0  0  0  0
  139.1788   68.5145  223.6989 H   0  0  0  0  0  0  0  0  0  0  0  0
  139.7397   68.0030  226.0097 H   0  0  0  0  0  0  0  0  0  0  0  0
  141.4832   71.0297  228.5358 H   0  0  0  0  0  0  0  0  0  0  0  0
  141.4166   72.6805  226.6494 H   0  0  0  0  0  0  0  0  0  0  0  0
  1  2  2  0
  2  3  1  0
  3  4  1  0
  4  5  1  0
  5  6  2  0
  5  7  1  0
  7  8  1  0
  8  9  1  0
  9 10  1  0
 10 11  1  0
 11 12  1  0
 12 13  1  0
 13 14  2  0
 14 15  1  0
 15 16  2  0
 16 17  1  0
  2 18  1  0
 18 19  2  0
 19 20  1  0
 20 21  2  0
 21 22  1  0
 22 23  2  0
 23 24  1  0
 23 25  1  0
 25 26  2  0
 26 27  1  0
 27 28  2  0
 12  7  1  0
 17 13  1  0
 28 18  1  0
 27 21  1  0
  3 29  1  0
  4 30  1  0
  4 31  1  0
  8 32  1  0
  8 33  1  0
  9 34  1  0
  9 35  1  0
 10 36  1  0
 10 37  1  0
 11 38  1  0
 11 39  1  0
 12 40  1  6
 14 41  1  0
 16 42  1  0
 17 43  1  0
 19 44  1  0
 20 45  1  0
 22 46  1  0
 25 47  1  0
 26 48  1  0
M  END
>  <smiles>  (8) 
O=C(NCC(=O)N1CCCC[C@H]1c1cnc[nH]1)c1ccc2cc(Cl)ccc2n1

>  <score_type>  (8) 
oracle

>  <origin>  (8) 
autodockgpu

>  <m_score__min__energy>  (8) 
-8.0800000000000001

>  <m_primary>  (8) 
energy

>  <rmsd>  (8) 
3.0625046276885426

>  <m_score__min__rmsd>  (8) 
3.0625046276885426

>  <meeko>  (8) 
{"free_energy": -6.85, "intermolecular_energy": -8.34, "internal_energy": -2.82, "cluster_size": 23, "cluster_id": 3, "rank_in_cluster": 21}

>  <energy>  (8) 
-7.79

>  <cluster_rmsd>  (8) 
1.63

>  <cluster>  (8) 
1

$$$$

     RDKit          3D

 48 51  0  0  0  0  0  0  0  0999 V2000
  140.1260   72.1240  220.7290 O   0  0  0  0  0  0  0  0  0  0  0  0
  139.7960   72.4750  221.8780 C   0  0  0  0  0  0  0  0  0  0  0  0
  139.3250   73.8010  222.0920 N   0  0  0  0  0  0  0  0  0  0  0  0
  139.2160   74.7610  221.0080 C   0  0  0  0  0  0  0  0  0  0  0  0
  139.8750   76.0130  221.4490 C   0  0  0  0  0  0  0  0  0  0  0  0
  139.9040   76.3150  222.6730 O   0  0  0  0  0  0  0  0  0  0  0  0
  140.4950   76.9210  220.5490 N   0  0  0  0  0  0  0  0  0  0  0  0
  140.3360   78.3440  220.7800 C   0  0  0  0  0  0  0  0  0  0  0  0
  141.6650   79.0050  220.6260 C   0  0  0  0  0  0  0  0  0  0  0  0
  142.1490   78.8280  219.2250 C   0  0  0  0  0  0  0  0  0  0  0  0
  141.6680   77.6070  218.5240 C   0  0  0  0  0  0  0  0  0  0  0  0
  141.2770   76.4670  219.4140 C   0  0  1  0  0  0  0  0  0  0  0  0
  142.3980   75.5880  219.7710 C   0  0  0  0  0  0  0  0  0  0  0  0
  143.7630   75.8450  219.7270 C   0  0  0  0  0  0  0  0  0  0  0  0
  144.4490   74.7580  220.1430 N   0  0  0  0  0  0  0  0  0  0  0  0
  143.5550   73.8220  220.4480 C   0  0  0  0  0  0  0  0  0  0  0  0
  142.3300   74.3030  220.2320 N   0  0  0  0  0  0  0  0  0  0  0  0
  139.8870   71.5420  223.0000 C   0  0  0  0  0  0  0  0  0  0  0  0
  139.4750   70.2370  222.8320 C   0  0  0  0  0  0  0  0  0  0  0  0
  139.5440   69.3190  223.8700 C   0  0  0  0  0  0  0  0  0  0  0  0
  140.0520   69.7880  225.0860 C   0  0  0  0  0  0  0  0  0  0  0  0
  140.1430   68.9140  226.1560 C   0  0  0  0  0  0  0  0  0  0  0  0
  140.6480   69.4030  227.3440 C   0  0  0  0  0  0  0  0  0  0  0  0
  140.7840   68.3330  228.7330 Cl  0  0  0  0  0  0  0  0  0  0  0  0
  141.0560   70.7070  227.5030 C   0  0  0  0  0  0  0  0  0  0  0  0
  140.9680   71.5860  226.4380 C   0  0  0  0  0  0  0  0  0  0  0  0
  140.4620   71.0960  225.2460 C   0  0  0  0  0  0  0  0  0  0  0  0
  140.3700   71.9360  224.2060 N   0  0  0  0  0  0  0  0  0  0  0  0
  139.0580   74.0440  223.0890 H   0  0  0  0  0  0  0  0  0  0  0  0
  139.7162   74.3704  220.1096 H   0  0  0  0  0  0  0  0  0  0  0  0
  138.1601   74.9467  220.7617 H   0  0  0  0  0  0  0  0  0  0  0  0
  139.6282   78.7610  220.0485 H   0  0  0  0  0  0  0  0  0  0  0  0
  139.9461   78.5179  221.7938 H   0  0  0  0  0  0  0  0  0  0  0  0
  141.5688   80.0781  220.8480 H   0  0  0  0  0  0  0  0  0  0  0  0
  142.3841   78.5496  221.3228 H   0  0  0  0  0  0  0  0  0  0  0  0
  141.8233   79.7023  218.6423 H   0  0  0  0  0  0  0  0  0  0  0  0
  143.2414   78.7207  219.2972 H   0  0  0  0  0  0  0  0  0  0  0  0
  140.7898   77.8847  217.9226 H   0  0  0  0  0  0  0  0  0  0  0  0
  142.5176   77.2466  217.9255 H   0  0  0  0  0  0  0  0  0  0  0  0
  140.6134   75.8173  218.8245 H   0  0  0  0  0  0  0  0  0  0  0  0
  144.2173   76.7925  219.4018 H   0  0  0  0  0  0  0  0  0  0  0  0
  143.7884   72.8130  220.8189 H   0  0  0  0  0  0  0  0  0  0  0  0
  141.3990   73.8290  220.3690 H   0  0  0  0  0  0  0  0  0  0  0  0
  139.0836   69.9171  221.8550 H   0  0  0  0  0  0  0  0  0  0  0  0
  139.2163   68.2766  223.7433 H   0  0  0  0  0  0  0  0  0  0  0  0
  139.8237   67.8655  226.0626 H   0  0  0  0  0  0  0  0  0  0  0  0
  141.4500   71.0491  228.4714 H   0  0  0  0  0  0  0  0  0  0  0  0
  141.2878   72.6340  226.5347 H   0  0  0  0  0  0  0  0  0  0  0  0
  1  2  2  0
  2  3  1  0
  3  4  1  0
  4  5  1  0
  5  6  2  0
  5  7  1  0
  7  8  1  0
  8  9  1  0
  9 10  1  0
 10 11  1  0
 11 12  1  0
 12 13  1  0
 13 14  2  0
 14 15  1  0
 15 16  2  0
 16 17  1  0
  2 18  1  0
 18 19  2  0
 19 20  1  0
 20 21  2  0
 21 22  1  0
 22 23  2  0
 23 24  1  0
 23 25  1  0
 25 26  2  0
 26 27  1  0
 27 28  2  0
 12  7  1  0
 17 13  1  0
 28 18  1  0
 27 21  1  0
  3 29  1  0
  4 30  1  0
  4 31  1  0
  8 32  1  0
  8 33  1  0
  9 34  1  0
  9 35  1  0
 10 36  1  0
 10 37  1  0
 11 38  1  0
 11 39  1  0
 12 40  1  6
 14 41  1  0
 16 42  1  0
 17 43  1  0
 19 44  1  0
 20 45  1  0
 22 46  1  0
 25 47  1  0
 26 48  1  0
M  END
>  <smiles>  (9) 
O=C(NCC(=O)N1CCCC[C@H]1c1cnc[nH]1)c1ccc2cc(Cl)ccc2n1

>  <score_type>  (9) 
oracle

>  <origin>  (9) 
autodockgpu

>  <m_score__min__energy>  (9) 
-8.0800000000000001

>  <m_primary>  (9) 
energy

>  <rmsd>  (9) 
2.8239860209713514

>  <m_score__min__rmsd>  (9) 
2.8239860209713514

>  <meeko>  (9) 
{"free_energy": -7.48, "intermolecular_energy": -8.97, "internal_energy": -2.5, "cluster_size": 23, "cluster_id": 3, "rank_in_cluster": 12}

>  <energy>  (9) 
-7.77

>  <cluster_rmsd>  (9) 
1.78

>  <cluster>  (9) 
1

$$$$

     RDKit          3D

 48 51  0  0  0  0  0  0  0  0999 V2000
  141.1110   73.1430  221.4370 O   0  0  0  0  0  0  0  0  0  0  0  0
  140.1310   73.0250  222.1980 C   0  0  0  0  0  0  0  0  0  0  0  0
  139.0220   73.9020  222.0460 N   0  0  0  0  0  0  0  0  0  0  0  0
  138.9940   74.9340  221.0250 C   0  0  0  0  0  0  0  0  0  0  0  0
  140.1710   75.8090  221.2380 C   0  0  0  0  0  0  0  0  0  0  0  0
  140.7300   75.8520  222.3680 O   0  0  0  0  0  0  0  0  0  0  0  0
  140.7250   76.6270  220.2160 N   0  0  0  0  0  0  0  0  0  0  0  0
  140.5180   78.0600  220.2870 C   0  0  0  0  0  0  0  0  0  0  0  0
  141.8150   78.7440  220.0070 C   0  0  0  0  0  0  0  0  0  0  0  0
  142.2580   78.4210  218.6180 C   0  0  0  0  0  0  0  0  0  0  0  0
  141.8010   77.1100  218.0820 C   0  0  0  0  0  0  0  0  0  0  0  0
  141.4850   76.0690  219.1120 C   0  0  1  0  0  0  0  0  0  0  0  0
  142.6510   75.2780  219.5260 C   0  0  0  0  0  0  0  0  0  0  0  0
  143.7110   74.8110  218.7590 C   0  0  0  0  0  0  0  0  0  0  0  0
  144.5730   74.1210  219.5380 N   0  0  0  0  0  0  0  0  0  0  0  0
  144.0850   74.1400  220.7750 C   0  0  0  0  0  0  0  0  0  0  0  0
  142.9420   74.8250  220.7820 N   0  0  0  0  0  0  0  0  0  0  0  0
  140.1140   71.9990  223.2400 C   0  0  0  0  0  0  0  0  0  0  0  0
  139.6110   70.7480  222.9510 C   0  0  0  0  0  0  0  0  0  0  0  0
  139.5750   69.7450  223.9100 C   0  0  0  0  0  0  0  0  0  0  0  0
  140.0740   70.0730  225.1740 C   0  0  0  0  0  0  0  0  0  0  0  0
  140.0620   69.1090  226.1700 C   0  0  0  0  0  0  0  0  0  0  0  0
  140.5610   69.4590  227.4080 C   0  0  0  0  0  0  0  0  0  0  0  0
  140.5680   68.2720  228.7050 Cl  0  0  0  0  0  0  0  0  0  0  0  0
  141.0590   70.7100  227.6880 C   0  0  0  0  0  0  0  0  0  0  0  0
  141.0740   71.6780  226.6980 C   0  0  0  0  0  0  0  0  0  0  0  0
  140.5750   71.3270  225.4560 C   0  0  0  0  0  0  0  0  0  0  0  0
  140.5830   72.2550  224.4880 N   0  0  0  0  0  0  0  0  0  0  0  0
  138.2170   73.7550  222.7210 H   0  0  0  0  0  0  0  0  0  0  0  0
  139.0439   74.4750  220.0266 H   0  0  0  0  0  0  0  0  0  0  0  0
  138.0633   75.5166  221.0908 H   0  0  0  0  0  0  0  0  0  0  0  0
  139.7702   78.3637  219.5397 H   0  0  0  0  0  0  0  0  0  0  0  0
  140.1555   78.3378  221.2877 H   0  0  0  0  0  0  0  0  0  0  0  0
  141.6850   79.8317  220.1069 H   0  0  0  0  0  0  0  0  0  0  0  0
  142.5743   78.3983  220.7239 H   0  0  0  0  0  0  0  0  0  0  0  0
  141.8791   79.2092  217.9508 H   0  0  0  0  0  0  0  0  0  0  0  0
  143.3555   78.3608  218.6603 H   0  0  0  0  0  0  0  0  0  0  0  0
  140.8927   77.2849  217.4867 H   0  0  0  0  0  0  0  0  0  0  0  0
  142.6433   76.7116  217.4973 H   0  0  0  0  0  0  0  0  0  0  0  0
  140.8281   75.3314  218.6278 H   0  0  0  0  0  0  0  0  0  0  0  0
  143.8308   74.9780  217.6784 H   0  0  0  0  0  0  0  0  0  0  0  0
  144.5504   73.6662  221.6519 H   0  0  0  0  0  0  0  0  0  0  0  0
  142.2990   75.0320  221.5910 H   0  0  0  0  0  0  0  0  0  0  0  0
  139.2305   70.5406  221.9399 H   0  0  0  0  0  0  0  0  0  0  0  0
  139.1749   68.7449  223.6871 H   0  0  0  0  0  0  0  0  0  0  0  0
  139.6682   68.0996  225.9800 H   0  0  0  0  0  0  0  0  0  0  0  0
  141.4432   70.9403  228.6927 H   0  0  0  0  0  0  0  0  0  0  0  0
  141.4674   72.6869  226.8914 H   0  0  0  0  0  0  0  0  0  0  0  0
  1  2  2  0
  2  3  1  0
  3  4  1  0
  4  5  1  0
  5  6  2  0
  5  7  1  0
  7  8  1  0
  8  9  1  0
  9 10  1  0
 10 11  1  0
 11 12  1  0
 12 13  1  0
 13 14  2  0
 14 15  1  0
 15 16  2  0
 16 17  1  0
  2 18  1  0
 18 19  2  0
 19 20  1  0
 20 21  2  0
 21 22  1  0
 22 23  2  0
 23 24  1  0
 23 25  1  0
 25 26  2  0
 26 27  1  0
 27 28  2  0
 12  7  1  0
 17 13  1  0
 28 18  1  0
 27 21  1  0
  3 29  1  0
  4 30  1  0
  4 31  1  0
  8 32  1  0
  8 33  1  0
  9 34  1  0
  9 35  1  0
 10 36  1  0
 10 37  1  0
 11 38  1  0
 11 39  1  0
 12 40  1  6
 14 41  1  0
 16 42  1  0
 17 43  1  0
 19 44  1  0
 20 45  1  0
 22 46  1  0
 25 47  1  0
 26 48  1  0
M  END
>  <smiles>  (10) 
O=C(NCC(=O)N1CCCC[C@H]1c1cnc[nH]1)c1ccc2cc(Cl)ccc2n1

>  <score_type>  (10) 
oracle

>  <origin>  (10) 
autodockgpu

>  <m_score__min__energy>  (10) 
-8.0800000000000001

>  <m_primary>  (10) 
energy

>  <rmsd>  (10) 
2.6914318342830788

>  <m_score__min__rmsd>  (10) 
2.6914318342830788

>  <meeko>  (10) 
{"free_energy": -7.6, "intermolecular_energy": -9.1, "internal_energy": -2.57, "cluster_size": 23, "cluster_id": 3, "rank_in_cluster": 7}

>  <energy>  (10) 
-7.72

>  <cluster_rmsd>  (10) 
1.76

>  <cluster>  (10) 
1

$$$$

     RDKit          3D

 48 51  0  0  0  0  0  0  0  0999 V2000
  139.2140   73.8830  220.3300 O   0  0  0  0  0  0  0  0  0  0  0  0
  139.3260   73.9110  221.5710 C   0  0  0  0  0  0  0  0  0  0  0  0
  139.3840   75.1680  222.2350 N   0  0  0  0  0  0  0  0  0  0  0  0
  139.3150   76.4240  221.5110 C   0  0  0  0  0  0  0  0  0  0  0  0
  140.6600   77.0440  221.5560 C   0  0  0  0  0  0  0  0  0  0  0  0
  141.6610   76.4160  221.1150 O   0  0  0  0  0  0  0  0  0  0  0  0
  140.8980   78.3430  222.0820 N   0  0  0  0  0  0  0  0  0  0  0  0
  141.4930   78.4590  223.3990 C   0  0  0  0  0  0  0  0  0  0  0  0
  142.5740   79.4870  223.3460 C   0  0  0  0  0  0  0  0  0  0  0  0
  141.9830   80.8130  223.0000 C   0  0  0  0  0  0  0  0  0  0  0  0
  140.7410   80.7740  222.1810 C   0  0  0  0  0  0  0  0  0  0  0  0
  140.5630   79.5460  221.3420 C   0  0  1  0  0  0  0  0  0  0  0  0
  141.2030   79.6360  220.0230 C   0  0  0  0  0  0  0  0  0  0  0  0
  140.9410   80.5150  218.9790 C   0  0  0  0  0  0  0  0  0  0  0  0
  141.7630   80.2520  217.9400 N   0  0  0  0  0  0  0  0  0  0  0  0
  142.5350   79.2310  218.2990 C   0  0  0  0  0  0  0  0  0  0  0  0
  142.2130   78.8550  219.5370 N   0  0  0  0  0  0  0  0  0  0  0  0
  139.3990   72.6720  222.3440 C   0  0  0  0  0  0  0  0  0  0  0  0
  138.7020   71.5630  221.9120 C   0  0  0  0  0  0  0  0  0  0  0  0
  138.7430   70.3670  222.6150 C   0  0  0  0  0  0  0  0  0  0  0  0
  139.5240   70.3510  223.7750 C   0  0  0  0  0  0  0  0  0  0  0  0
  139.6000   69.1820  224.5150 C   0  0  0  0  0  0  0  0  0  0  0  0
  140.3790   69.1930  225.6550 C   0  0  0  0  0  0  0  0  0  0  0  0
  140.5080   67.7350  226.6290 Cl  0  0  0  0  0  0  0  0  0  0  0  0
  141.0700   70.3050  226.0780 C   0  0  0  0  0  0  0  0  0  0  0  0
  140.9980   71.4760  225.3430 C   0  0  0  0  0  0  0  0  0  0  0  0
  140.2180   71.4650  224.2000 C   0  0  0  0  0  0  0  0  0  0  0  0
  140.1390   72.5920  223.4780 N   0  0  0  0  0  0  0  0  0  0  0  0
  139.4800   75.1310  223.2920 H   0  0  0  0  0  0  0  0  0  0  0  0
  139.0224   76.2391  220.4669 H   0  0  0  0  0  0  0  0  0  0  0  0
  138.5679   77.0907  221.9662 H   0  0  0  0  0  0  0  0  0  0  0  0
  140.7263   78.7650  224.1261 H   0  0  0  0  0  0  0  0  0  0  0  0
  141.9117   77.4899  223.7082 H   0  0  0  0  0  0  0  0  0  0  0  0
  143.0681   79.5504  224.3267 H   0  0  0  0  0  0  0  0  0  0  0  0
  143.3122   79.2038  222.5812 H   0  0  0  0  0  0  0  0  0  0  0  0
  141.7512   81.3350  223.9401 H   0  0  0  0  0  0  0  0  0  0  0  0
  142.7347   81.3226  222.3793 H   0  0  0  0  0  0  0  0  0  0  0  0
  139.8817   80.8459  222.8640 H   0  0  0  0  0  0  0  0  0  0  0  0
  140.8165   81.6147  221.4756 H   0  0  0  0  0  0  0  0  0  0  0  0
  139.4907   79.4745  221.1072 H   0  0  0  0  0  0  0  0  0  0  0  0
  140.1778   81.3070  218.9962 H   0  0  0  0  0  0  0  0  0  0  0  0
  143.3146   78.7702  217.6746 H   0  0  0  0  0  0  0  0  0  0  0  0
  142.6250   78.0820  220.1220 H   0  0  0  0  0  0  0  0  0  0  0  0
  138.1019   71.6277  220.9924 H   0  0  0  0  0  0  0  0  0  0  0  0
  138.1900   69.4780  222.2774 H   0  0  0  0  0  0  0  0  0  0  0  0
  139.0583   68.2762  224.2049 H   0  0  0  0  0  0  0  0  0  0  0  0
  141.6762   70.2639  226.9950 H   0  0  0  0  0  0  0  0  0  0  0  0
  141.5401   72.3806  225.6556 H   0  0  0  0  0  0  0  0  0  0  0  0
  1  2  2  0
  2  3  1  0
  3  4  1  0
  4  5  1  0
  5  6  2  0
  5  7  1  0
  7  8  1  0
  8  9  1  0
  9 10  1  0
 10 11  1  0
 11 12  1  0
 12 13  1  0
 13 14  2  0
 14 15  1  0
 15 16  2  0
 16 17  1  0
  2 18  1  0
 18 19  2  0
 19 20  1  0
 20 21  2  0
 21 22  1  0
 22 23  2  0
 23 24  1  0
 23 25  1  0
 25 26  2  0
 26 27  1  0
 27 28  2  0
 12  7  1  0
 17 13  1  0
 28 18  1  0
 27 21  1  0
  3 29  1  0
  4 30  1  0
  4 31  1  0
  8 32  1  0
  8 33  1  0
  9 34  1  0
  9 35  1  0
 10 36  1  0
 10 37  1  0
 11 38  1  0
 11 39  1  0
 12 40  1  6
 14 41  1  0
 16 42  1  0
 17 43  1  0
 19 44  1  0
 20 45  1  0
 22 46  1  0
 25 47  1  0
 26 48  1  0
M  END
>  <smiles>  (11) 
O=C(NCC(=O)N1CCCC[C@H]1c1cnc[nH]1)c1ccc2cc(Cl)ccc2n1

>  <score_type>  (11) 
oracle

>  <origin>  (11) 
autodockgpu

>  <m_score__min__energy>  (11) 
-8.0800000000000001

>  <m_primary>  (11) 
energy

>  <rmsd>  (11) 
4.086948724217409

>  <m_score__min__rmsd>  (11) 
4.086948724217409

>  <meeko>  (11) 
{"free_energy": -7.51, "intermolecular_energy": -9.0, "internal_energy": -2.09, "cluster_size": 4, "cluster_id": 2, "rank_in_cluster": 3}

>  <energy>  (11) 
-7.65

>  <cluster_rmsd>  (11) 
1.81

>  <cluster>  (11) 
1

$$$$

     RDKit          3D

 48 51  0  0  0  0  0  0  0  0999 V2000
  139.8060   72.4810  220.2450 O   0  0  0  0  0  0  0  0  0  0  0  0
  140.3620   72.7510  221.3270 C   0  0  0  0  0  0  0  0  0  0  0  0
  141.1550   73.9280  221.4270 N   0  0  0  0  0  0  0  0  0  0  0  0
  141.3350   74.8300  220.3030 C   0  0  0  0  0  0  0  0  0  0  0  0
  142.1230   74.1120  219.2730 C   0  0  0  0  0  0  0  0  0  0  0  0
  141.5890   73.7960  218.1750 O   0  0  0  0  0  0  0  0  0  0  0  0
  143.4850   73.7480  219.4520 N   0  0  0  0  0  0  0  0  0  0  0  0
  144.3200   74.5800  220.2960 C   0  0  0  0  0  0  0  0  0  0  0  0
  145.1130   73.6970  221.2020 C   0  0  0  0  0  0  0  0  0  0  0  0
  146.0160   72.8320  220.3880 C   0  0  0  0  0  0  0  0  0  0  0  0
  145.5410   72.5130  219.0140 C   0  0  0  0  0  0  0  0  0  0  0  0
  144.0570   72.5750  218.8160 C   0  0  1  0  0  0  0  0  0  0  0  0
  143.3680   71.3200  219.1410 C   0  0  0  0  0  0  0  0  0  0  0  0
  143.9040   70.0970  219.5240 C   0  0  0  0  0  0  0  0  0  0  0  0
  142.9120   69.2030  219.7270 N   0  0  0  0  0  0  0  0  0  0  0  0
  141.7640   69.8270  219.4830 C   0  0  0  0  0  0  0  0  0  0  0  0
  142.0200   71.0890  219.1330 N   0  0  0  0  0  0  0  0  0  0  0  0
  140.2080   71.8730  222.4870 C   0  0  0  0  0  0  0  0  0  0  0  0
  139.5740   70.6580  222.3370 C   0  0  0  0  0  0  0  0  0  0  0  0
  139.4060   69.7940  223.4100 C   0  0  0  0  0  0  0  0  0  0  0  0
  139.9130   70.2230  224.6410 C   0  0  0  0  0  0  0  0  0  0  0  0
  139.7730   69.4000  225.7470 C   0  0  0  0  0  0  0  0  0  0  0  0
  140.2830   69.8470  226.9490 C   0  0  0  0  0  0  0  0  0  0  0  0
  140.1300   68.8390  228.3820 Cl  0  0  0  0  0  0  0  0  0  0  0  0
  140.9130   71.0620  227.0890 C   0  0  0  0  0  0  0  0  0  0  0  0
  141.0570   71.8890  225.9890 C   0  0  0  0  0  0  0  0  0  0  0  0
  140.5460   71.4410  224.7830 C   0  0  0  0  0  0  0  0  0  0  0  0
  140.6780   72.2320  223.7080 N   0  0  0  0  0  0  0  0  0  0  0  0
  141.6040   74.1080  222.3710 H   0  0  0  0  0  0  0  0  0  0  0  0
  140.3558   75.1180  219.8928 H   0  0  0  0  0  0  0  0  0  0  0  0
  141.8578   75.7440  220.6214 H   0  0  0  0  0  0  0  0  0  0  0  0
  145.0009   75.1763  219.6708 H   0  0  0  0  0  0  0  0  0  0  0  0
  143.6927   75.2609  220.8901 H   0  0  0  0  0  0  0  0  0  0  0  0
  145.7147   74.3164  221.8834 H   0  0  0  0  0  0  0  0  0  0  0  0
  144.4298   73.0648  221.7882 H   0  0  0  0  0  0  0  0  0  0  0  0
  146.9853   73.3446  220.2996 H   0  0  0  0  0  0  0  0  0  0  0  0
  146.0660   71.8695  220.9181 H   0  0  0  0  0  0  0  0  0  0  0  0
  146.0061   73.2282  218.3196 H   0  0  0  0  0  0  0  0  0  0  0  0
  145.8278   71.4672  218.8296 H   0  0  0  0  0  0  0  0  0  0  0  0
  143.8837   72.6953  217.7364 H   0  0  0  0  0  0  0  0  0  0  0  0
  144.9772   69.8876  219.6441 H   0  0  0  0  0  0  0  0  0  0  0  0
  140.7637   69.3756  219.5576 H   0  0  0  0  0  0  0  0  0  0  0  0
  141.3450   71.8540  218.8740 H   0  0  0  0  0  0  0  0  0  0  0  0
  139.1935   70.3674  221.3466 H   0  0  0  0  0  0  0  0  0  0  0  0
  138.9009   68.8232  223.2983 H   0  0  0  0  0  0  0  0  0  0  0  0
  139.2724   68.4236  225.6696 H   0  0  0  0  0  0  0  0  0  0  0  0
  141.3001   71.3743  228.0701 H   0  0  0  0  0  0  0  0  0  0  0  0
  141.5582   72.8648  226.0698 H   0  0  0  0  0  0  0  0  0  0  0  0
  1  2  2  0
  2  3  1  0
  3  4  1  0
  4  5  1  0
  5  6  2  0
  5  7  1  0
  7  8  1  0
  8  9  1  0
  9 10  1  0
 10 11  1  0
 11 12  1  0
 12 13  1  0
 13 14  2  0
 14 15  1  0
 15 16  2  0
 16 17  1  0
  2 18  1  0
 18 19  2  0
 19 20  1  0
 20 21  2  0
 21 22  1  0
 22 23  2  0
 23 24  1  0
 23 25  1  0
 25 26  2  0
 26 27  1  0
 27 28  2  0
 12  7  1  0
 17 13  1  0
 28 18  1  0
 27 21  1  0
  3 29  1  0
  4 30  1  0
  4 31  1  0
  8 32  1  0
  8 33  1  0
  9 34  1  0
  9 35  1  0
 10 36  1  0
 10 37  1  0
 11 38  1  0
 11 39  1  0
 12 40  1  6
 14 41  1  0
 16 42  1  0
 17 43  1  0
 19 44  1  0
 20 45  1  0
 22 46  1  0
 25 47  1  0
 26 48  1  0
M  END
>  <smiles>  (12) 
O=C(NCC(=O)N1CCCC[C@H]1c1cnc[nH]1)c1ccc2cc(Cl)ccc2n1

>  <score_type>  (12) 
oracle

>  <origin>  (12) 
autodockgpu

>  <m_score__min__energy>  (12) 
-8.0800000000000001

>  <m_primary>  (12) 
energy

>  <rmsd>  (12) 
4.795402361848179

>  <m_score__min__rmsd>  (12) 
4.795402361848179

>  <meeko>  (12) 
{"free_energy": -6.05, "intermolecular_energy": -7.54, "internal_energy": -3.46, "cluster_size": 3, "cluster_id": 6, "rank_in_cluster": 2}

>  <energy>  (12) 
-7.65

>  <cluster_rmsd>  (12) 
1.62

>  <cluster>  (12) 
1

$$$$

     RDKit          3D

 48 51  0  0  0  0  0  0  0  0999 V2000
  138.8760   71.6320  220.9130 O   0  0  0  0  0  0  0  0  0  0  0  0
  139.2690   72.0720  222.0100 C   0  0  0  0  0  0  0  0  0  0  0  0
  139.5260   73.4640  222.1510 N   0  0  0  0  0  0  0  0  0  0  0  0
  139.3420   74.3940  221.0510 C   0  0  0  0  0  0  0  0  0  0  0  0
  140.3460   75.4730  221.2020 C   0  0  0  0  0  0  0  0  0  0  0  0
  140.8010   75.7580  222.3440 O   0  0  0  0  0  0  0  0  0  0  0  0
  140.8420   76.2300  220.1070 N   0  0  0  0  0  0  0  0  0  0  0  0
  140.5620   77.6520  220.0630 C   0  0  0  0  0  0  0  0  0  0  0  0
  141.8180   78.3750  219.7040 C   0  0  0  0  0  0  0  0  0  0  0  0
  142.2580   77.9610  218.3390 C   0  0  0  0  0  0  0  0  0  0  0  0
  141.8620   76.5890  217.9210 C   0  0  0  0  0  0  0  0  0  0  0  0
  141.6150   75.6220  219.0390 C   0  0  1  0  0  0  0  0  0  0  0  0
  142.8260   74.9280  219.4940 C   0  0  0  0  0  0  0  0  0  0  0  0
  143.7750   74.2400  218.7500 C   0  0  0  0  0  0  0  0  0  0  0  0
  144.7340   73.7500  219.5660 N   0  0  0  0  0  0  0  0  0  0  0  0
  144.4150   74.1100  220.8060 C   0  0  0  0  0  0  0  0  0  0  0  0
  143.2810   74.8120  220.7780 N   0  0  0  0  0  0  0  0  0  0  0  0
  139.4670   71.1740  223.1470 C   0  0  0  0  0  0  0  0  0  0  0  0
  139.0380   69.8660  223.0600 C   0  0  0  0  0  0  0  0  0  0  0  0
  139.2070   68.9800  224.1150 C   0  0  0  0  0  0  0  0  0  0  0  0
  139.8300   69.4840  225.2610 C   0  0  0  0  0  0  0  0  0  0  0  0
  140.0230   68.6430  226.3440 C   0  0  0  0  0  0  0  0  0  0  0  0
  140.6410   69.1660  227.4620 C   0  0  0  0  0  0  0  0  0  0  0  0
  140.9090   68.1390  228.8640 Cl  0  0  0  0  0  0  0  0  0  0  0  0
  141.0650   70.4730  227.5400 C   0  0  0  0  0  0  0  0  0  0  0  0
  140.8750   71.3190  226.4610 C   0  0  0  0  0  0  0  0  0  0  0  0
  140.2560   70.7940  225.3400 C   0  0  0  0  0  0  0  0  0  0  0  0
  140.0650   71.6030  224.2870 N   0  0  0  0  0  0  0  0  0  0  0  0
  139.8580   73.7810  223.1080 H   0  0  0  0  0  0  0  0  0  0  0  0
  139.4907   73.8751  220.0926 H   0  0  0  0  0  0  0  0  0  0  0  0
  138.3238   74.8100  221.0639 H   0  0  0  0  0  0  0  0  0  0  0  0
  139.7892   77.8541  219.3067 H   0  0  0  0  0  0  0  0  0  0  0  0
  140.1995   77.9937  221.0437 H   0  0  0  0  0  0  0  0  0  0  0  0
  141.6332   79.4593  219.7165 H   0  0  0  0  0  0  0  0  0  0  0  0
  142.6040   78.1284  220.4330 H   0  0  0  0  0  0  0  0  0  0  0  0
  141.8299   78.6711  217.6162 H   0  0  0  0  0  0  0  0  0  0  0  0
  143.3577   77.9600  218.3663 H   0  0  0  0  0  0  0  0  0  0  0  0
  140.9375   76.6679  217.3302 H   0  0  0  0  0  0  0  0  0  0  0  0
  142.7154   76.1866  217.3555 H   0  0  0  0  0  0  0  0  0  0  0  0
  140.9904   74.8143  218.6298 H   0  0  0  0  0  0  0  0  0  0  0  0
  143.7499   74.1126  217.6577 H   0  0  0  0  0  0  0  0  0  0  0  0
  144.9935   73.8677  221.7097 H   0  0  0  0  0  0  0  0  0  0  0  0
  142.7510   75.2460  221.5780 H   0  0  0  0  0  0  0  0  0  0  0  0
  138.5524   69.5182  222.1363 H   0  0  0  0  0  0  0  0  0  0  0  0
  138.8683   67.9353  224.0528 H   0  0  0  0  0  0  0  0  0  0  0  0
  139.6949   67.5935  226.3144 H   0  0  0  0  0  0  0  0  0  0  0  0
  141.5519   70.8431  228.4543 H   0  0  0  0  0  0  0  0  0  0  0  0
  141.2034   72.3683  226.4933 H   0  0  0  0  0  0  0  0  0  0  0  0
  1  2  2  0
  2  3  1  0
  3  4  1  0
  4  5  1  0
  5  6  2  0
  5  7  1  0
  7  8  1  0
  8  9  1  0
  9 10  1  0
 10 11  1  0
 11 12  1  0
 12 13  1  0
 13 14  2  0
 14 15  1  0
 15 16  2  0
 16 17  1  0
  2 18  1  0
 18 19  2  0
 19 20  1  0
 20 21  2  0
 21 22  1  0
 22 23  2  0
 23 24  1  0
 23 25  1  0
 25 26  2  0
 26 27  1  0
 27 28  2  0
 12  7  1  0
 17 13  1  0
 28 18  1  0
 27 21  1  0
  3 29  1  0
  4 30  1  0
  4 31  1  0
  8 32  1  0
  8 33  1  0
  9 34  1  0
  9 35  1  0
 10 36  1  0
 10 37  1  0
 11 38  1  0
 11 39  1  0
 12 40  1  6
 14 41  1  0
 16 42  1  0
 17 43  1  0
 19 44  1  0
 20 45  1  0
 22 46  1  0
 25 47  1  0
 26 48  1  0
M  END
>  <smiles>  (13) 
O=C(NCC(=O)N1CCCC[C@H]1c1cnc[nH]1)c1ccc2cc(Cl)ccc2n1

>  <score_type>  (13) 
oracle

>  <origin>  (13) 
autodockgpu

>  <m_score__min__energy>  (13) 
-8.0800000000000001

>  <m_primary>  (13) 
energy

>  <rmsd>  (13) 
2.488049824152993

>  <m_score__min__rmsd>  (13) 
2.488049824152993

>  <meeko>  (13) 
{"free_energy": -7.46, "intermolecular_energy": -8.95, "internal_energy": -2.67, "cluster_size": 23, "cluster_id": 3, "rank_in_cluster": 14}

>  <energy>  (13) 
-7.6

>  <cluster_rmsd>  (13) 
1.75

>  <cluster>  (13) 
1

$$$$

     RDKit          3D

 48 51  0  0  0  0  0  0  0  0999 V2000
  139.3920   72.0220  220.7210 O   0  0  0  0  0  0  0  0  0  0  0  0
  139.5010   72.4470  221.8870 C   0  0  0  0  0  0  0  0  0  0  0  0
  139.4850   73.8510  222.1200 N   0  0  0  0  0  0  0  0  0  0  0  0
  139.3430   74.8070  221.0370 C   0  0  0  0  0  0  0  0  0  0  0  0
  140.0590   76.0430  221.4310 C   0  0  0  0  0  0  0  0  0  0  0  0
  140.3660   76.2370  222.6390 O   0  0  0  0  0  0  0  0  0  0  0  0
  140.4320   77.0530  220.5040 N   0  0  0  0  0  0  0  0  0  0  0  0
  139.6280   77.2320  219.3120 C   0  0  0  0  0  0  0  0  0  0  0  0
  139.3810   78.6910  219.1160 C   0  0  0  0  0  0  0  0  0  0  0  0
  140.6820   79.3890  218.8900 C   0  0  0  0  0  0  0  0  0  0  0  0
  141.8730   78.7570  219.5190 C   0  0  0  0  0  0  0  0  0  0  0  0
  141.5900   77.9030  220.7170 C   0  0  1  0  0  0  0  0  0  0  0  0
  141.5590   78.6540  221.9800 C   0  0  0  0  0  0  0  0  0  0  0  0
  142.5550   79.4210  222.5690 C   0  0  0  0  0  0  0  0  0  0  0  0
  142.1080   79.9410  223.7330 N   0  0  0  0  0  0  0  0  0  0  0  0
  140.8570   79.5210  223.8950 C   0  0  0  0  0  0  0  0  0  0  0  0
  140.5160   78.7550  222.8580 N   0  0  0  0  0  0  0  0  0  0  0  0
  139.6440   71.5220  223.0100 C   0  0  0  0  0  0  0  0  0  0  0  0
  139.2020   70.2220  222.8780 C   0  0  0  0  0  0  0  0  0  0  0  0
  139.3190   69.3110  223.9190 C   0  0  0  0  0  0  0  0  0  0  0  0
  139.9050   69.7830  225.0980 C   0  0  0  0  0  0  0  0  0  0  0  0
  140.0470   68.9150  226.1690 C   0  0  0  0  0  0  0  0  0  0  0  0
  140.6290   69.4060  227.3200 C   0  0  0  0  0  0  0  0  0  0  0  0
  140.8300   68.3440  228.7080 Cl  0  0  0  0  0  0  0  0  0  0  0  0
  141.0660   70.7040  227.4430 C   0  0  0  0  0  0  0  0  0  0  0  0
  140.9280   71.5760  226.3770 C   0  0  0  0  0  0  0  0  0  0  0  0
  140.3450   71.0850  225.2220 C   0  0  0  0  0  0  0  0  0  0  0  0
  140.2040   71.9180  224.1810 N   0  0  0  0  0  0  0  0  0  0  0  0
  139.5810   74.1560  223.1310 H   0  0  0  0  0  0  0  0  0  0  0  0
  139.7821   74.3972  220.1154 H   0  0  0  0  0  0  0  0  0  0  0  0
  138.2806   75.0205  220.8482 H   0  0  0  0  0  0  0  0  0  0  0  0
  140.1629   76.8268  218.4404 H   0  0  0  0  0  0  0  0  0  0  0  0
  138.6708   76.7013  219.4224 H   0  0  0  0  0  0  0  0  0  0  0  0
  138.7289   78.8386  218.2425 H   0  0  0  0  0  0  0  0  0  0  0  0
  138.8932   79.1043  220.0111 H   0  0  0  0  0  0  0  0  0  0  0  0
  140.8571   79.4338  217.8049 H   0  0  0  0  0  0  0  0  0  0  0  0
  140.5794   80.3747  219.3674 H   0  0  0  0  0  0  0  0  0  0  0  0
  142.3629   78.1275  218.7616 H   0  0  0  0  0  0  0  0  0  0  0  0
  142.5010   79.5853  219.8788 H   0  0  0  0  0  0  0  0  0  0  0  0
  142.4493   77.2265  220.8357 H   0  0  0  0  0  0  0  0  0  0  0  0
  143.5593   79.5816  222.1500 H   0  0  0  0  0  0  0  0  0  0  0  0
  140.2072   79.7662  224.7480 H   0  0  0  0  0  0  0  0  0  0  0  0
  139.6040   78.2630  222.6690 H   0  0  0  0  0  0  0  0  0  0  0  0
  138.7478   69.9008  221.9291 H   0  0  0  0  0  0  0  0  0  0  0  0
  138.9693   68.2726  223.8217 H   0  0  0  0  0  0  0  0  0  0  0  0
  139.7075   67.8707  226.1039 H   0  0  0  0  0  0  0  0  0  0  0  0
  141.5226   71.0473  228.3830 H   0  0  0  0  0  0  0  0  0  0  0  0
  141.2688   72.6196  226.4453 H   0  0  0  0  0  0  0  0  0  0  0  0
  1  2  2  0
  2  3  1  0
  3  4  1  0
  4  5  1  0
  5  6  2  0
  5  7  1  0
  7  8  1  0
  8  9  1  0
  9 10  1  0
 10 11  1  0
 11 12  1  0
 12 13  1  0
 13 14  2  0
 14 15  1  0
 15 16  2  0
 16 17  1  0
  2 18  1  0
 18 19  2  0
 19 20  1  0
 20 21  2  0
 21 22  1  0
 22 23  2  0
 23 24  1  0
 23 25  1  0
 25 26  2  0
 26 27  1  0
 27 28  2  0
 12  7  1  0
 17 13  1  0
 28 18  1  0
 27 21  1  0
  3 29  1  0
  4 30  1  0
  4 31  1  0
  8 32  1  0
  8 33  1  0
  9 34  1  0
  9 35  1  0
 10 36  1  0
 10 37  1  0
 11 38  1  0
 11 39  1  0
 12 40  1  1
 14 41  1  0
 16 42  1  0
 17 43  1  0
 19 44  1  0
 20 45  1  0
 22 46  1  0
 25 47  1  0
 26 48  1  0
M  END
>  <smiles>  (14) 
O=C(NCC(=O)N1CCCC[C@H]1c1cnc[nH]1)c1ccc2cc(Cl)ccc2n1

>  <score_type>  (14) 
oracle

>  <origin>  (14) 
autodockgpu

>  <m_score__min__energy>  (14) 
-8.0800000000000001

>  <m_primary>  (14) 
energy

>  <rmsd>  (14) 
1.8554562724973092

>  <m_score__min__rmsd>  (14) 
1.8554562724973092

>  <meeko>  (14) 
{"free_energy": -7.65, "intermolecular_energy": -9.14, "internal_energy": -2.35, "cluster_size": 17, "cluster_id": 1, "rank_in_cluster": 12}

>  <energy>  (14) 
-7.48

>  <cluster_rmsd>  (14) 
1.89

>  <cluster>  (14) 
1

$$$$

     RDKit          3D

 48 51  0  0  0  0  0  0  0  0999 V2000
  139.2170   71.8820  220.7540 O   0  0  0  0  0  0  0  0  0  0  0  0
  139.3970   72.3170  221.9080 C   0  0  0  0  0  0  0  0  0  0  0  0
  139.4490   73.7220  222.1220 N   0  0  0  0  0  0  0  0  0  0  0  0
  139.2970   74.6710  221.0340 C   0  0  0  0  0  0  0  0  0  0  0  0
  140.3050   75.7410  221.2260 C   0  0  0  0  0  0  0  0  0  0  0  0
  140.7770   75.9650  222.3730 O   0  0  0  0  0  0  0  0  0  0  0  0
  140.7840   76.5540  220.1640 N   0  0  0  0  0  0  0  0  0  0  0  0
  140.5700   77.9860  220.2360 C   0  0  0  0  0  0  0  0  0  0  0  0
  141.8410   78.6780  219.8680 C   0  0  0  0  0  0  0  0  0  0  0  0
  142.1970   78.3470  218.4560 C   0  0  0  0  0  0  0  0  0  0  0  0
  141.7170   77.0280  217.9610 C   0  0  0  0  0  0  0  0  0  0  0  0
  141.4770   75.9930  219.0180 C   0  0  1  0  0  0  0  0  0  0  0  0
  142.6730   75.2150  219.3620 C   0  0  0  0  0  0  0  0  0  0  0  0
  143.5910   74.5970  218.5210 C   0  0  0  0  0  0  0  0  0  0  0  0
  144.5460   73.9840  219.2530 N   0  0  0  0  0  0  0  0  0  0  0  0
  144.2570   74.1970  220.5330 C   0  0  0  0  0  0  0  0  0  0  0  0
  143.1450   74.9290  220.6130 N   0  0  0  0  0  0  0  0  0  0  0  0
  139.5540   71.4000  223.0360 C   0  0  0  0  0  0  0  0  0  0  0  0
  139.1080   70.0990  222.9190 C   0  0  0  0  0  0  0  0  0  0  0  0
  139.2370   69.1960  223.9650 C   0  0  0  0  0  0  0  0  0  0  0  0
  139.8400   69.6750  225.1320 C   0  0  0  0  0  0  0  0  0  0  0  0
  139.9940   68.8150  226.2080 C   0  0  0  0  0  0  0  0  0  0  0  0
  140.5930   69.3120  227.3470 C   0  0  0  0  0  0  0  0  0  0  0  0
  140.8110   68.2610  228.7400 Cl  0  0  0  0  0  0  0  0  0  0  0  0
  141.0340   70.6110  227.4550 C   0  0  0  0  0  0  0  0  0  0  0  0
  140.8830   71.4750  226.3840 C   0  0  0  0  0  0  0  0  0  0  0  0
  140.2840   70.9770  225.2410 C   0  0  0  0  0  0  0  0  0  0  0  0
  140.1310   71.8030  224.1960 N   0  0  0  0  0  0  0  0  0  0  0  0
  139.6040   74.0350  223.1240 H   0  0  0  0  0  0  0  0  0  0  0  0
  139.4645   74.1668  220.0708 H   0  0  0  0  0  0  0  0  0  0  0  0
  138.2816   75.0940  221.0304 H   0  0  0  0  0  0  0  0  0  0  0  0
  139.7735   78.2771  219.5354 H   0  0  0  0  0  0  0  0  0  0  0  0
  140.2698   78.2698  221.2555 H   0  0  0  0  0  0  0  0  0  0  0  0
  141.7086   79.7655  219.9675 H   0  0  0  0  0  0  0  0  0  0  0  0
  142.6475   78.3442  220.5375 H   0  0  0  0  0  0  0  0  0  0  0  0
  141.7699   79.1267  217.8082 H   0  0  0  0  0  0  0  0  0  0  0  0
  143.2955   78.2957  218.4281 H   0  0  0  0  0  0  0  0  0  0  0  0
  140.7706   77.1909  217.4245 H   0  0  0  0  0  0  0  0  0  0  0  0
  142.5228   76.6313  217.3259 H   0  0  0  0  0  0  0  0  0  0  0  0
  140.7969   75.2458  218.5830 H   0  0  0  0  0  0  0  0  0  0  0  0
  143.5462   74.6059  217.4219 H   0  0  0  0  0  0  0  0  0  0  0  0
  144.8414   73.8285  221.3890 H   0  0  0  0  0  0  0  0  0  0  0  0
  142.6400   75.2750  221.4700 H   0  0  0  0  0  0  0  0  0  0  0  0
  138.6412   69.7715  221.9783 H   0  0  0  0  0  0  0  0  0  0  0  0
  138.8834   68.1578  223.8804 H   0  0  0  0  0  0  0  0  0  0  0  0
  139.6502   67.7714  226.1555 H   0  0  0  0  0  0  0  0  0  0  0  0
  141.5035   70.9606  228.3863 H   0  0  0  0  0  0  0  0  0  0  0  0
  141.2265   72.5185  226.4399 H   0  0  0  0  0  0  0  0  0  0  0  0
  1  2  2  0
  2  3  1  0
  3  4  1  0
  4  5  1  0
  5  6  2  0
  5  7  1  0
  7  8  1  0
  8  9  1  0
  9 10  1  0
 10 11  1  0
 11 12  1  0
 12 13  1  0
 13 14  2  0
 14 15  1  0
 15 16  2  0
 16 17  1  0
  2 18  1  0
 18 19  2  0
 19 20  1  0
 20 21  2  0
 21 22  1  0
 22 23  2  0
 23 24  1  0
 23 25  1  0
 25 26  2  0
 26 27  1  0
 27 28  2  0
 12  7  1  0
 17 13  1  0
 28 18  1  0
 27 21  1  0
  3 29  1  0
  4 30  1  0
  4 31  1  0
  8 32  1  0
  8 33  1  0
  9 34  1  0
  9 35  1  0
 10 36  1  0
 10 37  1  0
 11 38  1  0
 11 39  1  0
 12 40  1  6
 14 41  1  0
 16 42  1  0
 17 43  1  0
 19 44  1  0
 20 45  1  0
 22 46  1  0
 25 47  1  0
 26 48  1  0
M  END
>  <smiles>  (15) 
O=C(NCC(=O)N1CCCC[C@H]1c1cnc[nH]1)c1ccc2cc(Cl)ccc2n1

>  <score_type>  (15) 
oracle

>  <origin>  (15) 
autodockgpu

>  <m_score__min__energy>  (15) 
-8.0800000000000001

>  <m_primary>  (15) 
energy

>  <rmsd>  (15) 
2.571374924533505

>  <m_score__min__rmsd>  (15) 
2.571374924533505

>  <meeko>  (15) 
{"free_energy": -7.56, "intermolecular_energy": -9.05, "internal_energy": -2.58, "cluster_size": 23, "cluster_id": 3, "rank_in_cluster": 9}

>  <energy>  (15) 
-7.44

>  <cluster_rmsd>  (15) 
1.59

>  <cluster>  (15) 
1

$$$$

     RDKit          3D

 48 51  0  0  0  0  0  0  0  0999 V2000
  140.5800   72.6710  220.9050 O   0  0  0  0  0  0  0  0  0  0  0  0
  139.9790   72.8920  221.9740 C   0  0  0  0  0  0  0  0  0  0  0  0
  139.2580   74.1090  222.1280 N   0  0  0  0  0  0  0  0  0  0  0  0
  139.2000   75.1050  221.0730 C   0  0  0  0  0  0  0  0  0  0  0  0
  140.4350   75.9210  221.1570 C   0  0  0  0  0  0  0  0  0  0  0  0
  141.2570   75.7290  222.0940 O   0  0  0  0  0  0  0  0  0  0  0  0
  140.7590   76.9370  220.2180 N   0  0  0  0  0  0  0  0  0  0  0  0
  139.9970   77.0120  218.9870 C   0  0  0  0  0  0  0  0  0  0  0  0
  139.6300   78.4370  218.7380 C   0  0  0  0  0  0  0  0  0  0  0  0
  140.8720   79.2440  218.5480 C   0  0  0  0  0  0  0  0  0  0  0  0
  142.0850   78.7380  219.2460 C   0  0  0  0  0  0  0  0  0  0  0  0
  141.8250   77.8930  220.4560 C   0  0  1  0  0  0  0  0  0  0  0  0
  141.6690   78.6690  221.6930 C   0  0  0  0  0  0  0  0  0  0  0  0
  141.4650   80.0340  221.8530 C   0  0  0  0  0  0  0  0  0  0  0  0
  141.3760   80.3350  223.1670 N   0  0  0  0  0  0  0  0  0  0  0  0
  141.5180   79.1970  223.8410 C   0  0  0  0  0  0  0  0  0  0  0  0
  141.6930   78.1980  222.9760 N   0  0  0  0  0  0  0  0  0  0  0  0
  140.0080   71.9170  223.0630 C   0  0  0  0  0  0  0  0  0  0  0  0
  139.5310   70.6410  222.8440 C   0  0  0  0  0  0  0  0  0  0  0  0
  139.5400   69.6850  223.8500 C   0  0  0  0  0  0  0  0  0  0  0  0
  140.0550   70.0860  225.0870 C   0  0  0  0  0  0  0  0  0  0  0  0
  140.0870   69.1710  226.1270 C   0  0  0  0  0  0  0  0  0  0  0  0
  140.6000   69.5920  227.3370 C   0  0  0  0  0  0  0  0  0  0  0  0
  140.6630   68.4680  228.6880 Cl  0  0  0  0  0  0  0  0  0  0  0  0
  141.0730   70.8670  227.5470 C   0  0  0  0  0  0  0  0  0  0  0  0
  141.0430   71.7850  226.5120 C   0  0  0  0  0  0  0  0  0  0  0  0
  140.5290   71.3640  225.2990 C   0  0  0  0  0  0  0  0  0  0  0  0
  140.4940   72.2440  224.2870 N   0  0  0  0  0  0  0  0  0  0  0  0
  138.7660   74.2430  223.0580 H   0  0  0  0  0  0  0  0  0  0  0  0
  139.1439   74.6096  220.0924 H   0  0  0  0  0  0  0  0  0  0  0  0
  138.3094   75.7398  221.1902 H   0  0  0  0  0  0  0  0  0  0  0  0
  140.6051   76.6349  218.1516 H   0  0  0  0  0  0  0  0  0  0  0  0
  139.0871   76.3997  219.0714 H   0  0  0  0  0  0  0  0  0  0  0  0
  139.0078   78.5029  217.8333 H   0  0  0  0  0  0  0  0  0  0  0  0
  139.0670   78.8269  219.5989 H   0  0  0  0  0  0  0  0  0  0  0  0
  141.0915   79.2774  217.4707 H   0  0  0  0  0  0  0  0  0  0  0  0
  140.6602   80.2281  218.9915 H   0  0  0  0  0  0  0  0  0  0  0  0
  142.6625   78.1357  218.5292 H   0  0  0  0  0  0  0  0  0  0  0  0
  142.6202   79.6284  219.6076 H   0  0  0  0  0  0  0  0  0  0  0  0
  142.7354   77.3012  220.6321 H   0  0  0  0  0  0  0  0  0  0  0  0
  141.3874   80.7616  221.0317 H   0  0  0  0  0  0  0  0  0  0  0  0
  141.4948   79.0965  224.9362 H   0  0  0  0  0  0  0  0  0  0  0  0
  141.8350   77.1720  223.1690 H   0  0  0  0  0  0  0  0  0  0  0  0
  139.1357   70.3761  221.8522 H   0  0  0  0  0  0  0  0  0  0  0  0
  139.1620   68.6655  223.6833 H   0  0  0  0  0  0  0  0  0  0  0  0
  139.7162   68.1441  225.9928 H   0  0  0  0  0  0  0  0  0  0  0  0
  141.4722   71.1545  228.5308 H   0  0  0  0  0  0  0  0  0  0  0  0
  141.4141   72.8114  226.6489 H   0  0  0  0  0  0  0  0  0  0  0  0
  1  2  2  0
  2  3  1  0
  3  4  1  0
  4  5  1  0
  5  6  2  0
  5  7  1  0
  7  8  1  0
  8  9  1  0
  9 10  1  0
 10 11  1  0
 11 12  1  0
 12 13  1  0
 13 14  2  0
 14 15  1  0
 15 16  2  0
 16 17  1  0
  2 18  1  0
 18 19  2  0
 19 20  1  0
 20 21  2  0
 21 22  1  0
 22 23  2  0
 23 24  1  0
 23 25  1  0
 25 26  2  0
 26 27  1  0
 27 28  2  0
 12  7  1  0
 17 13  1  0
 28 18  1  0
 27 21  1  0
  3 29  1  0
  4 30  1  0
  4 31  1  0
  8 32  1  0
  8 33  1  0
  9 34  1  0
  9 35  1  0
 10 36  1  0
 10 37  1  0
 11 38  1  0
 11 39  1  0
 12 40  1  1
 14 41  1  0
 16 42  1  0
 17 43  1  0
 19 44  1  0
 20 45  1  0
 22 46  1  0
 25 47  1  0
 26 48  1  0
M  END
>  <smiles>  (16) 
O=C(NCC(=O)N1CCCC[C@H]1c1cnc[nH]1)c1ccc2cc(Cl)ccc2n1

>  <score_type>  (16) 
oracle

>  <origin>  (16) 
autodockgpu

>  <m_score__min__energy>  (16) 
-8.0800000000000001

>  <m_primary>  (16) 
energy

>  <rmsd>  (16) 
1.8662432148461576

>  <m_score__min__rmsd>  (16) 
1.8662432148461576

>  <meeko>  (16) 
{"free_energy": -8.06, "intermolecular_energy": -9.55, "internal_energy": -1.93, "cluster_size": 17, "cluster_id": 1, "rank_in_cluster": 3}

>  <energy>  (16) 
-7.42

>  <cluster_rmsd>  (16) 
1.75

>  <cluster>  (16) 
1

$$$$

     RDKit          3D

 48 51  0  0  0  0  0  0  0  0999 V2000
  140.6700   72.4850  221.0060 O   0  0  0  0  0  0  0  0  0  0  0  0
  140.0040   72.6650  222.0440 C   0  0  0  0  0  0  0  0  0  0  0  0
  139.2090   73.8390  222.1660 N   0  0  0  0  0  0  0  0  0  0  0  0
  139.1490   74.8380  221.1150 C   0  0  0  0  0  0  0  0  0  0  0  0
  140.4190   75.6020  221.1480 C   0  0  0  0  0  0  0  0  0  0  0  0
  141.0560   75.7230  222.2300 O   0  0  0  0  0  0  0  0  0  0  0  0
  140.9790   76.2270  220.0010 N   0  0  0  0  0  0  0  0  0  0  0  0
  140.8140   77.6580  219.8400 C   0  0  0  0  0  0  0  0  0  0  0  0
  142.1260   78.2470  219.4380 C   0  0  0  0  0  0  0  0  0  0  0  0
  142.5360   77.6900  218.1150 C   0  0  0  0  0  0  0  0  0  0  0  0
  142.0330   76.3250  217.8040 C   0  0  0  0  0  0  0  0  0  0  0  0
  141.7040   75.4750  218.9920 C   0  0  1  0  0  0  0  0  0  0  0  0
  142.8530   74.7250  219.5150 C   0  0  0  0  0  0  0  0  0  0  0  0
  144.0970   74.5090  218.9360 C   0  0  0  0  0  0  0  0  0  0  0  0
  144.8650   73.7620  219.7580 N   0  0  0  0  0  0  0  0  0  0  0  0
  144.1400   73.5000  220.8420 C   0  0  0  0  0  0  0  0  0  0  0  0
  142.9400   74.0680  220.7110 N   0  0  0  0  0  0  0  0  0  0  0  0
  140.0320   71.6850  223.1290 C   0  0  0  0  0  0  0  0  0  0  0  0
  139.5470   70.4130  222.9060 C   0  0  0  0  0  0  0  0  0  0  0  0
  139.5550   69.4530  223.9080 C   0  0  0  0  0  0  0  0  0  0  0  0
  140.0770   69.8450  225.1450 C   0  0  0  0  0  0  0  0  0  0  0  0
  140.1090   68.9260  226.1810 C   0  0  0  0  0  0  0  0  0  0  0  0
  140.6290   69.3380  227.3910 C   0  0  0  0  0  0  0  0  0  0  0  0
  140.6910   68.2090  228.7370 Cl  0  0  0  0  0  0  0  0  0  0  0  0
  141.1090   70.6100  227.6040 C   0  0  0  0  0  0  0  0  0  0  0  0
  141.0810   71.5330  226.5730 C   0  0  0  0  0  0  0  0  0  0  0  0
  140.5590   71.1200  225.3600 C   0  0  0  0  0  0  0  0  0  0  0  0
  140.5250   72.0040  224.3530 N   0  0  0  0  0  0  0  0  0  0  0  0
  138.6640   73.9390  223.0710 H   0  0  0  0  0  0  0  0  0  0  0  0
  139.0321   74.3472  220.1375 H   0  0  0  0  0  0  0  0  0  0  0  0
  138.2911   75.5090  221.2691 H   0  0  0  0  0  0  0  0  0  0  0  0
  140.0634   77.8591  219.0614 H   0  0  0  0  0  0  0  0  0  0  0  0
  140.4752   78.1058  220.7859 H   0  0  0  0  0  0  0  0  0  0  0  0
  142.0295   79.3401  219.3618 H   0  0  0  0  0  0  0  0  0  0  0  0
  142.8867   77.9983  220.1927 H   0  0  0  0  0  0  0  0  0  0  0  0
  142.1688   78.3713  217.3334 H   0  0  0  0  0  0  0  0  0  0  0  0
  143.6319   77.6033  218.1537 H   0  0  0  0  0  0  0  0  0  0  0  0
  141.1206   76.4294  217.1985 H   0  0  0  0  0  0  0  0  0  0  0  0
  142.8539   75.8114  217.2822 H   0  0  0  0  0  0  0  0  0  0  0  0
  141.0175   74.6907  218.6405 H   0  0  0  0  0  0  0  0  0  0  0  0
  144.4103   74.8902  217.9529 H   0  0  0  0  0  0  0  0  0  0  0  0
  144.4759   72.9098  221.7074 H   0  0  0  0  0  0  0  0  0  0  0  0
  142.1260   74.0580  221.3790 H   0  0  0  0  0  0  0  0  0  0  0  0
  139.1462   70.1547  221.9147 H   0  0  0  0  0  0  0  0  0  0  0  0
  139.1707   68.4364  223.7382 H   0  0  0  0  0  0  0  0  0  0  0  0
  139.7323   67.9017  226.0437 H   0  0  0  0  0  0  0  0  0  0  0  0
  141.5125   70.8915  228.5878 H   0  0  0  0  0  0  0  0  0  0  0  0
  141.4595   72.5563  226.7127 H   0  0  0  0  0  0  0  0  0  0  0  0
  1  2  2  0
  2  3  1  0
  3  4  1  0
  4  5  1  0
  5  6  2  0
  5  7  1  0
  7  8  1  0
  8  9  1  0
  9 10  1  0
 10 11  1  0
 11 12  1  0
 12 13  1  0
 13 14  2  0
 14 15  1  0
 15 16  2  0
 16 17  1  0
  2 18  1  0
 18 19  2  0
 19 20  1  0
 20 21  2  0
 21 22  1  0
 22 23  2  0
 23 24  1  0
 23 25  1  0
 25 26  2  0
 26 27  1  0
 27 28  2  0
 12  7  1  0
 17 13  1  0
 28 18  1  0
 27 21  1  0
  3 29  1  0
  4 30  1  0
  4 31  1  0
  8 32  1  0
  8 33  1  0
  9 34  1  0
  9 35  1  0
 10 36  1  0
 10 37  1  0
 11 38  1  0
 11 39  1  0
 12 40  1  6
 14 41  1  0
 16 42  1  0
 17 43  1  0
 19 44  1  0
 20 45  1  0
 22 46  1  0
 25 47  1  0
 26 48  1  0
M  END
>  <smiles>  (17) 
O=C(NCC(=O)N1CCCC[C@H]1c1cnc[nH]1)c1ccc2cc(Cl)ccc2n1

>  <score_type>  (17) 
oracle

>  <origin>  (17) 
autodockgpu

>  <m_score__min__energy>  (17) 
-8.0800000000000001

>  <m_primary>  (17) 
energy

>  <rmsd>  (17) 
2.7017496663447123

>  <m_score__min__rmsd>  (17) 
2.7017496663447123

>  <meeko>  (17) 
{"free_energy": -7.36, "intermolecular_energy": -8.85, "internal_energy": -2.83, "cluster_size": 23, "cluster_id": 3, "rank_in_cluster": 17}

>  <energy>  (17) 
-7.07

>  <cluster_rmsd>  (17) 
1.76

>  <cluster>  (17) 
1

$$$$

     RDKit          3D

 48 51  0  0  0  0  0  0  0  0999 V2000
  139.7860   72.0840  220.6400 O   0  0  0  0  0  0  0  0  0  0  0  0
  139.7410   72.5170  221.8070 C   0  0  0  0  0  0  0  0  0  0  0  0
  139.6020   73.9160  222.0250 N   0  0  0  0  0  0  0  0  0  0  0  0
  139.5080   74.8590  220.9250 C   0  0  0  0  0  0  0  0  0  0  0  0
  139.8030   76.2080  221.4640 C   0  0  0  0  0  0  0  0  0  0  0  0
  139.7710   76.4130  222.7080 O   0  0  0  0  0  0  0  0  0  0  0  0
  140.1280   77.3180  220.6390 N   0  0  0  0  0  0  0  0  0  0  0  0
  139.2020   77.6990  219.5910 C   0  0  0  0  0  0  0  0  0  0  0  0
  139.0290   79.1820  219.6220 C   0  0  0  0  0  0  0  0  0  0  0  0
  140.3350   79.8410  219.3290 C   0  0  0  0  0  0  0  0  0  0  0  0
  141.5490   79.0710  219.7130 C   0  0  0  0  0  0  0  0  0  0  0  0
  141.3560   78.0740  220.8140 C   0  0  1  0  0  0  0  0  0  0  0  0
  141.5230   78.6410  222.1580 C   0  0  0  0  0  0  0  0  0  0  0  0
  141.5160   79.9730  222.5560 C   0  0  0  0  0  0  0  0  0  0  0  0
  141.7050   80.0550  223.8910 N   0  0  0  0  0  0  0  0  0  0  0  0
  141.8310   78.8130  224.3470 C   0  0  0  0  0  0  0  0  0  0  0  0
  141.7240   77.9610  223.3270 N   0  0  0  0  0  0  0  0  0  0  0  0
  139.8300   71.6050  222.9470 C   0  0  0  0  0  0  0  0  0  0  0  0
  139.3710   70.3110  222.8170 C   0  0  0  0  0  0  0  0  0  0  0  0
  139.4370   69.4120  223.8730 C   0  0  0  0  0  0  0  0  0  0  0  0
  139.9900   69.8900  225.0650 C   0  0  0  0  0  0  0  0  0  0  0  0
  140.0790   69.0360  226.1520 C   0  0  0  0  0  0  0  0  0  0  0  0
  140.6290   69.5320  227.3160 C   0  0  0  0  0  0  0  0  0  0  0  0
  140.7650   68.4870  228.7240 Cl  0  0  0  0  0  0  0  0  0  0  0  0
  141.0840   70.8250  227.4370 C   0  0  0  0  0  0  0  0  0  0  0  0
  140.9970   71.6840  226.3550 C   0  0  0  0  0  0  0  0  0  0  0  0
  140.4460   71.1870  225.1870 C   0  0  0  0  0  0  0  0  0  0  0  0
  140.3560   72.0080  224.1310 N   0  0  0  0  0  0  0  0  0  0  0  0
  139.5690   74.2270  223.0390 H   0  0  0  0  0  0  0  0  0  0  0  0
  140.2384   74.5990  220.1447 H   0  0  0  0  0  0  0  0  0  0  0  0
  138.5029   74.8328  220.4788 H   0  0  0  0  0  0  0  0  0  0  0  0
  139.6030   77.3933  218.6134 H   0  0  0  0  0  0  0  0  0  0  0  0
  138.2321   77.2048  219.7494 H   0  0  0  0  0  0  0  0  0  0  0  0
  138.2894   79.4808  218.8646 H   0  0  0  0  0  0  0  0  0  0  0  0
  138.6783   79.4896  220.6182 H   0  0  0  0  0  0  0  0  0  0  0  0
  140.3829   80.0289  218.2462 H   0  0  0  0  0  0  0  0  0  0  0  0
  140.3535   80.7538  219.9425 H   0  0  0  0  0  0  0  0  0  0  0  0
  141.9030   78.5297  218.8232 H   0  0  0  0  0  0  0  0  0  0  0  0
  142.2680   79.8101  220.0961 H   0  0  0  0  0  0  0  0  0  0  0  0
  142.1789   77.3486  220.7323 H   0  0  0  0  0  0  0  0  0  0  0  0
  141.3772   80.8325  221.8837 H   0  0  0  0  0  0  0  0  0  0  0  0
  141.9970   78.5328  225.3977 H   0  0  0  0  0  0  0  0  0  0  0  0
  141.7760   76.9090  223.3340 H   0  0  0  0  0  0  0  0  0  0  0  0
  138.9440   69.9846  221.8573 H   0  0  0  0  0  0  0  0  0  0  0  0
  139.0734   68.3783  223.7770 H   0  0  0  0  0  0  0  0  0  0  0  0
  139.7230   67.9971  226.0892 H   0  0  0  0  0  0  0  0  0  0  0  0
  141.5141   71.1738  228.3875 H   0  0  0  0  0  0  0  0  0  0  0  0
  141.3526   72.7228  226.4212 H   0  0  0  0  0  0  0  0  0  0  0  0
  1  2  2  0
  2  3  1  0
  3  4  1  0
  4  5  1  0
  5  6  2  0
  5  7  1  0
  7  8  1  0
  8  9  1  0
  9 10  1  0
 10 11  1  0
 11 12  1  0
 12 13  1  0
 13 14  2  0
 14 15  1  0
 15 16  2  0
 16 17  1  0
  2 18  1  0
 18 19  2  0
 19 20  1  0
 20 21  2  0
 21 22  1  0
 22 23  2  0
 23 24  1  0
 23 25  1  0
 25 26  2  0
 26 27  1  0
 27 28  2  0
 12  7  1  0
 17 13  1  0
 28 18  1  0
 27 21  1  0
  3 29  1  0
  4 30  1  0
  4 31  1  0
  8 32  1  0
  8 33  1  0
  9 34  1  0
  9 35  1  0
 10 36  1  0
 10 37  1  0
 11 38  1  0
 11 39  1  0
 12 40  1  6
 14 41  1  0
 16 42  1  0
 17 43  1  0
 19 44  1  0
 20 45  1  0
 22 46  1  0
 25 47  1  0
 26 48  1  0
M  END
>  <smiles>  (18) 
O=C(NCC(=O)N1CCCC[C@H]1c1cnc[nH]1)c1ccc2cc(Cl)ccc2n1

>  <score_type>  (18) 
oracle

>  <origin>  (18) 
autodockgpu

>  <m_score__min__energy>  (18) 
-8.0800000000000001

>  <m_primary>  (18) 
energy

>  <rmsd>  (18) 
2.1239763997255916

>  <m_score__min__rmsd>  (18) 
2.1239763997255916

>  <meeko>  (18) 
{"free_energy": -7.79, "intermolecular_energy": -9.28, "internal_energy": -2.41, "cluster_size": 17, "cluster_id": 1, "rank_in_cluster": 8}

>  <energy>  (18) 
-7.79

>  <cluster_rmsd>  (18) 
0.0

>  <cluster>  (18) 
2

$$$$

     RDKit          3D

 48 51  0  0  0  0  0  0  0  0999 V2000
  140.6430   72.3380  220.6890 O   0  0  0  0  0  0  0  0  0  0  0  0
  140.2590   72.7280  221.8080 C   0  0  0  0  0  0  0  0  0  0  0  0
  139.9040   74.0950  221.9840 N   0  0  0  0  0  0  0  0  0  0  0  0
  139.9740   75.0530  220.8950 C   0  0  0  0  0  0  0  0  0  0  0  0
  139.8170   76.4070  221.4770 C   0  0  0  0  0  0  0  0  0  0  0  0
  139.7100   76.5500  222.7260 O   0  0  0  0  0  0  0  0  0  0  0  0
  139.7770   77.5900  220.6900 N   0  0  0  0  0  0  0  0  0  0  0  0
  138.5560   77.9070  219.9760 C   0  0  0  0  0  0  0  0  0  0  0  0
  138.2460   79.3530  220.1790 C   0  0  0  0  0  0  0  0  0  0  0  0
  139.3390   80.1820  219.5910 C   0  0  0  0  0  0  0  0  0  0  0  0
  140.6850   79.5490  219.5580 C   0  0  0  0  0  0  0  0  0  0  0  0
  140.9180   78.4800  220.5820 C   0  0  1  0  0  0  0  0  0  0  0  0
  141.4010   78.9950  221.8700 C   0  0  0  0  0  0  0  0  0  0  0  0
  141.5680   80.3110  222.2820 C   0  0  0  0  0  0  0  0  0  0  0  0
  142.0380   80.3400  223.5480 N   0  0  0  0  0  0  0  0  0  0  0  0
  142.1730   79.0790  223.9460 C   0  0  0  0  0  0  0  0  0  0  0  0
  141.7970   78.2670  222.9570 N   0  0  0  0  0  0  0  0  0  0  0  0
  140.1720   71.8000  222.9340 C   0  0  0  0  0  0  0  0  0  0  0  0
  139.5870   70.5640  222.7490 C   0  0  0  0  0  0  0  0  0  0  0  0
  139.4830   69.6520  223.7910 C   0  0  0  0  0  0  0  0  0  0  0  0
  140.0010   70.0550  225.0260 C   0  0  0  0  0  0  0  0  0  0  0  0
  139.9230   69.1830  226.1000 C   0  0  0  0  0  0  0  0  0  0  0  0
  140.4410   69.6050  227.3080 C   0  0  0  0  0  0  0  0  0  0  0  0
  140.3670   68.5360  228.7020 Cl  0  0  0  0  0  0  0  0  0  0  0  0
  141.0220   70.8400  227.4830 C   0  0  0  0  0  0  0  0  0  0  0  0
  141.1020   71.7150  226.4140 C   0  0  0  0  0  0  0  0  0  0  0  0
  140.5830   71.2930  225.2030 C   0  0  0  0  0  0  0  0  0  0  0  0
  140.6540   72.1310  224.1580 N   0  0  0  0  0  0  0  0  0  0  0  0
  139.5850   74.3710  222.9580 H   0  0  0  0  0  0  0  0  0  0  0  0
  140.9468   74.9735  220.3877 H   0  0  0  0  0  0  0  0  0  0  0  0
  139.1827   74.8563  220.1566 H   0  0  0  0  0  0  0  0  0  0  0  0
  138.6909   77.7042  218.9033 H   0  0  0  0  0  0  0  0  0  0  0  0
  137.7285   77.2890  220.3547 H   0  0  0  0  0  0  0  0  0  0  0  0
  137.2940   79.5971  219.6849 H   0  0  0  0  0  0  0  0  0  0  0  0
  138.1640   79.5634  221.2556 H   0  0  0  0  0  0  0  0  0  0  0  0
  139.0565   80.4287  218.5569 H   0  0  0  0  0  0  0  0  0  0  0  0
  139.4367   81.0581  220.2490 H   0  0  0  0  0  0  0  0  0  0  0  0
  140.8254   79.1020  218.5628 H   0  0  0  0  0  0  0  0  0  0  0  0
  141.4025   80.3505  219.7880 H   0  0  0  0  0  0  0  0  0  0  0  0
  141.7539   77.8654  220.2165 H   0  0  0  0  0  0  0  0  0  0  0  0
  141.3499   81.1976  221.6685 H   0  0  0  0  0  0  0  0  0  0  0  0
  142.5366   78.7568  224.9329 H   0  0  0  0  0  0  0  0  0  0  0  0
  141.7780   77.2150  222.9360 H   0  0  0  0  0  0  0  0  0  0  0  0
  139.1954   70.2959  221.7566 H   0  0  0  0  0  0  0  0  0  0  0  0
  139.0178   68.6649  223.6524 H   0  0  0  0  0  0  0  0  0  0  0  0
  139.4642   68.1889  225.9937 H   0  0  0  0  0  0  0  0  0  0  0  0
  141.4204   71.1299  228.4665 H   0  0  0  0  0  0  0  0  0  0  0  0
  141.5610   72.7087  226.5230 H   0  0  0  0  0  0  0  0  0  0  0  0
  1  2  2  0
  2  3  1  0
  3  4  1  0
  4  5  1  0
  5  6  2  0
  5  7  1  0
  7  8  1  0
  8  9  1  0
  9 10  1  0
 10 11  1  0
 11 12  1  0
 12 13  1  0
 13 14  2  0
 14 15  1  0
 15 16  2  0
 16 17  1  0
  2 18  1  0
 18 19  2  0
 19 20  1  0
 20 21  2  0
 21 22  1  0
 22 23  2  0
 23 24  1  0
 23 25  1  0
 25 26  2  0
 26 27  1  0
 27 28  2  0
 12  7  1  0
 17 13  1  0
 28 18  1  0
 27 21  1  0
  3 29  1  0
  4 30  1  0
  4 31  1  0
  8 32  1  0
  8 33  1  0
  9 34  1  0
  9 35  1  0
 10 36  1  0
 10 37  1  0
 11 38  1  0
 11 39  1  0
 12 40  1  6
 14 41  1  0
 16 42  1  0
 17 43  1  0
 19 44  1  0
 20 45  1  0
 22 46  1  0
 25 47  1  0
 26 48  1  0
M  END
>  <smiles>  (19) 
O=C(NCC(=O)N1CCCC[C@H]1c1cnc[nH]1)c1ccc2cc(Cl)ccc2n1

>  <score_type>  (19) 
oracle

>  <origin>  (19) 
autodockgpu

>  <m_score__min__energy>  (19) 
-8.0800000000000001

>  <m_primary>  (19) 
energy

>  <rmsd>  (19) 
2.4069502231797735

>  <m_score__min__rmsd>  (19) 
2.4069502231797735

>  <meeko>  (19) 
{"free_energy": -7.6, "intermolecular_energy": -9.1, "internal_energy": -2.43, "cluster_size": 17, "cluster_id": 1, "rank_in_cluster": 13}

>  <energy>  (19) 
-7.64

>  <cluster_rmsd>  (19) 
0.87

>  <cluster>  (19) 
2

$$$$

     RDKit          3D

 48 51  0  0  0  0  0  0  0  0999 V2000
  139.8210   72.0960  220.7050 O   0  0  0  0  0  0  0  0  0  0  0  0
  139.7590   72.4990  221.8820 C   0  0  0  0  0  0  0  0  0  0  0  0
  139.5820   73.8880  222.1340 N   0  0  0  0  0  0  0  0  0  0  0  0
  139.4690   74.8550  221.0570 C   0  0  0  0  0  0  0  0  0  0  0  0
  140.7650   75.5660  220.9530 C   0  0  0  0  0  0  0  0  0  0  0  0
  141.4280   75.8270  221.9940 O   0  0  0  0  0  0  0  0  0  0  0  0
  141.3230   75.9850  219.7150 N   0  0  0  0  0  0  0  0  0  0  0  0
  141.2360   77.3860  219.3540 C   0  0  0  0  0  0  0  0  0  0  0  0
  142.5660   77.8300  218.8400 C   0  0  0  0  0  0  0  0  0  0  0  0
  142.9020   77.0660  217.6030 C   0  0  0  0  0  0  0  0  0  0  0  0
  142.3110   75.7040  217.5030 C   0  0  0  0  0  0  0  0  0  0  0  0
  141.9720   75.0540  218.8100 C   0  0  1  0  0  0  0  0  0  0  0  0
  143.0920   74.3170  219.4090 C   0  0  0  0  0  0  0  0  0  0  0  0
  143.8570   73.2910  218.8680 C   0  0  0  0  0  0  0  0  0  0  0  0
  144.7900   72.8930  219.7600 N   0  0  0  0  0  0  0  0  0  0  0  0
  144.6350   73.6390  220.8490 C   0  0  0  0  0  0  0  0  0  0  0  0
  143.6280   74.4920  220.6540 N   0  0  0  0  0  0  0  0  0  0  0  0
  139.8670   71.5620  223.0000 C   0  0  0  0  0  0  0  0  0  0  0  0
  139.4640   70.2540  222.8280 C   0  0  0  0  0  0  0  0  0  0  0  0
  139.5490   69.3320  223.8620 C   0  0  0  0  0  0  0  0  0  0  0  0
  140.0620   69.8000  225.0760 C   0  0  0  0  0  0  0  0  0  0  0  0
  140.1690   68.9220  226.1420 C   0  0  0  0  0  0  0  0  0  0  0  0
  140.6790   69.4090  227.3280 C   0  0  0  0  0  0  0  0  0  0  0  0
  140.8340   68.3340  228.7100 Cl  0  0  0  0  0  0  0  0  0  0  0  0
  141.0780   70.7160  227.4890 C   0  0  0  0  0  0  0  0  0  0  0  0
  140.9740   71.5990  226.4290 C   0  0  0  0  0  0  0  0  0  0  0  0
  140.4630   71.1100  225.2390 C   0  0  0  0  0  0  0  0  0  0  0  0
  140.3560   71.9550  224.2030 N   0  0  0  0  0  0  0  0  0  0  0  0
  139.5360   74.1740  223.1550 H   0  0  0  0  0  0  0  0  0  0  0  0
  139.2479   74.3385  220.1113 H   0  0  0  0  0  0  0  0  0  0  0  0
  138.6546   75.5658  221.2609 H   0  0  0  0  0  0  0  0  0  0  0  0
  140.4733   77.5206  218.5729 H   0  0  0  0  0  0  0  0  0  0  0  0
  140.9550   77.9836  220.2337 H   0  0  0  0  0  0  0  0  0  0  0  0
  142.5294   78.9047  218.6085 H   0  0  0  0  0  0  0  0  0  0  0  0
  143.3347   77.6455  219.6049 H   0  0  0  0  0  0  0  0  0  0  0  0
  142.5513   77.6504  216.7396 H   0  0  0  0  0  0  0  0  0  0  0  0
  143.9916   76.9179  217.6298 H   0  0  0  0  0  0  0  0  0  0  0  0
  141.3871   75.7774  216.9105 H   0  0  0  0  0  0  0  0  0  0  0  0
  143.0830   75.0714  217.0406 H   0  0  0  0  0  0  0  0  0  0  0  0
  141.2313   74.2704  218.5924 H   0  0  0  0  0  0  0  0  0  0  0  0
  143.7227   72.8659  217.8624 H   0  0  0  0  0  0  0  0  0  0  0  0
  145.2402   73.5649  221.7646 H   0  0  0  0  0  0  0  0  0  0  0  0
  143.2410   75.2200  221.3090 H   0  0  0  0  0  0  0  0  0  0  0  0
  139.0676   69.9355  221.8526 H   0  0  0  0  0  0  0  0  0  0  0  0
  139.2294   68.2873  223.7333 H   0  0  0  0  0  0  0  0  0  0  0  0
  139.8577   67.8713  226.0462 H   0  0  0  0  0  0  0  0  0  0  0  0
  141.4776   71.0570  228.4555 H   0  0  0  0  0  0  0  0  0  0  0  0
  141.2854   72.6493  226.5280 H   0  0  0  0  0  0  0  0  0  0  0  0
  1  2  2  0
  2  3  1  0
  3  4  1  0
  4  5  1  0
  5  6  2  0
  5  7  1  0
  7  8  1  0
  8  9  1  0
  9 10  1  0
 10 11  1  0
 11 12  1  0
 12 13  1  0
 13 14  2  0
 14 15  1  0
 15 16  2  0
 16 17  1  0
  2 18  1  0
 18 19  2  0
 19 20  1  0
 20 21  2  0
 21 22  1  0
 22 23  2  0
 23 24  1  0
 23 25  1  0
 25 26  2  0
 26 27  1  0
 27 28  2  0
 12  7  1  0
 17 13  1  0
 28 18  1  0
 27 21  1  0
  3 29  1  0
  4 30  1  0
  4 31  1  0
  8 32  1  0
  8 33  1  0
  9 34  1  0
  9 35  1  0
 10 36  1  0
 10 37  1  0
 11 38  1  0
 11 39  1  0
 12 40  1  6
 14 41  1  0
 16 42  1  0
 17 43  1  0
 19 44  1  0
 20 45  1  0
 22 46  1  0
 25 47  1  0
 26 48  1  0
M  END
>  <smiles>  (20) 
O=C(NCC(=O)N1CCCC[C@H]1c1cnc[nH]1)c1ccc2cc(Cl)ccc2n1

>  <score_type>  (20) 
oracle

>  <origin>  (20) 
autodockgpu

>  <m_score__min__energy>  (20) 
-8.0800000000000001

>  <m_primary>  (20) 
energy

>  <rmsd>  (20) 
2.6887753733600372

>  <m_score__min__rmsd>  (20) 
2.6887753733600372

>  <meeko>  (20) 
{"free_energy": -7.58, "intermolecular_energy": -9.07, "internal_energy": -2.44, "cluster_size": 23, "cluster_id": 3, "rank_in_cluster": 8}

>  <energy>  (20) 
-7.51

>  <cluster_rmsd>  (20) 
1.02

>  <cluster>  (20) 
2

$$$$

     RDKit          3D

 48 51  0  0  0  0  0  0  0  0999 V2000
  139.2560   73.7330  220.2870 O   0  0  0  0  0  0  0  0  0  0  0  0
  139.3800   73.7980  221.5250 C   0  0  0  0  0  0  0  0  0  0  0  0
  139.4580   75.0740  222.1500 N   0  0  0  0  0  0  0  0  0  0  0  0
  139.3950   76.3080  221.3870 C   0  0  0  0  0  0  0  0  0  0  0  0
  140.7130   76.9760  221.5030 C   0  0  0  0  0  0  0  0  0  0  0  0
  141.7490   76.4120  221.0550 O   0  0  0  0  0  0  0  0  0  0  0  0
  140.8860   78.2510  222.1060 N   0  0  0  0  0  0  0  0  0  0  0  0
  141.4700   78.3180  223.4310 C   0  0  0  0  0  0  0  0  0  0  0  0
  142.5010   79.3970  223.4450 C   0  0  0  0  0  0  0  0  0  0  0  0
  141.8480   80.7120  223.1740 C   0  0  0  0  0  0  0  0  0  0  0  0
  140.6120   80.6620  222.3470 C   0  0  0  0  0  0  0  0  0  0  0  0
  140.4960   79.4780  221.4360 C   0  0  1  0  0  0  0  0  0  0  0  0
  141.1350   79.6770  220.1290 C   0  0  0  0  0  0  0  0  0  0  0  0
  140.8450   80.6110  219.1420 C   0  0  0  0  0  0  0  0  0  0  0  0
  141.6780   80.4460  218.0920 N   0  0  0  0  0  0  0  0  0  0  0  0
  142.4870   79.4330  218.3880 C   0  0  0  0  0  0  0  0  0  0  0  0
  142.1760   78.9660  219.5980 N   0  0  0  0  0  0  0  0  0  0  0  0
  139.4460   72.5830  222.3360 C   0  0  0  0  0  0  0  0  0  0  0  0
  138.8210   71.4370  221.8900 C   0  0  0  0  0  0  0  0  0  0  0  0
  138.8590   70.2620  222.6280 C   0  0  0  0  0  0  0  0  0  0  0  0
  139.5610   70.3060  223.8360 C   0  0  0  0  0  0  0  0  0  0  0  0
  139.6300   69.1600  224.6130 C   0  0  0  0  0  0  0  0  0  0  0  0
  140.3290   69.2310  225.8010 C   0  0  0  0  0  0  0  0  0  0  0  0
  140.4460   67.8040  226.8220 Cl  0  0  0  0  0  0  0  0  0  0  0  0
  140.9480   70.3790  226.2380 C   0  0  0  0  0  0  0  0  0  0  0  0
  140.8830   71.5270  225.4670 C   0  0  0  0  0  0  0  0  0  0  0  0
  140.1830   71.4570  224.2750 C   0  0  0  0  0  0  0  0  0  0  0  0
  140.1110   72.5610  223.5180 N   0  0  0  0  0  0  0  0  0  0  0  0
  139.5630   75.0700  223.2060 H   0  0  0  0  0  0  0  0  0  0  0  0
  139.1791   76.0855  220.3316 H   0  0  0  0  0  0  0  0  0  0  0  0
  138.5970   76.9596  221.7725 H   0  0  0  0  0  0  0  0  0  0  0  0
  140.6870   78.5445  224.1697 H   0  0  0  0  0  0  0  0  0  0  0  0
  141.9332   77.3534  223.6858 H   0  0  0  0  0  0  0  0  0  0  0  0
  142.9884   79.4258  224.4307 H   0  0  0  0  0  0  0  0  0  0  0  0
  143.2544   79.1947  222.6695 H   0  0  0  0  0  0  0  0  0  0  0  0
  141.5886   81.1660  224.1418 H   0  0  0  0  0  0  0  0  0  0  0  0
  142.5762   81.2927  222.5888 H   0  0  0  0  0  0  0  0  0  0  0  0
  139.7482   80.6522  223.0280 H   0  0  0  0  0  0  0  0  0  0  0  0
  140.6490   81.5455  221.6927 H   0  0  0  0  0  0  0  0  0  0  0  0
  139.4293   79.3684  221.1909 H   0  0  0  0  0  0  0  0  0  0  0  0
  140.0537   81.3724  219.2064 H   0  0  0  0  0  0  0  0  0  0  0  0
  143.2848   79.0427  217.7390 H   0  0  0  0  0  0  0  0  0  0  0  0
  142.6140   78.1730  220.1340 H   0  0  0  0  0  0  0  0  0  0  0  0
  138.2822   71.4546  220.9312 H   0  0  0  0  0  0  0  0  0  0  0  0
  138.3625   69.3440  222.2804 H   0  0  0  0  0  0  0  0  0  0  0  0
  139.1443   68.2261  224.2937 H   0  0  0  0  0  0  0  0  0  0  0  0
  141.4914   70.3849  227.1944 H   0  0  0  0  0  0  0  0  0  0  0  0
  141.3693   72.4595  225.7895 H   0  0  0  0  0  0  0  0  0  0  0  0
  1  2  2  0
  2  3  1  0
  3  4  1  0
  4  5  1  0
  5  6  2  0
  5  7  1  0
  7  8  1  0
  8  9  1  0
  9 10  1  0
 10 11  1  0
 11 12  1  0
 12 13  1  0
 13 14  2  0
 14 15  1  0
 15 16  2  0
 16 17  1  0
  2 18  1  0
 18 19  2  0
 19 20  1  0
 20 21  2  0
 21 22  1  0
 22 23  2  0
 23 24  1  0
 23 25  1  0
 25 26  2  0
 26 27  1  0
 27 28  2  0
 12  7  1  0
 17 13  1  0
 28 18  1  0
 27 21  1  0
  3 29  1  0
  4 30  1  0
  4 31  1  0
  8 32  1  0
  8 33  1  0
  9 34  1  0
  9 35  1  0
 10 36  1  0
 10 37  1  0
 11 38  1  0
 11 39  1  0
 12 40  1  6
 14 41  1  0
 16 42  1  0
 17 43  1  0
 19 44  1  0
 20 45  1  0
 22 46  1  0
 25 47  1  0
 26 48  1  0
M  END
>  <smiles>  (21) 
O=C(NCC(=O)N1CCCC[C@H]1c1cnc[nH]1)c1ccc2cc(Cl)ccc2n1

>  <score_type>  (21) 
oracle

>  <origin>  (21) 
autodockgpu

>  <m_score__min__energy>  (21) 
-8.0800000000000001

>  <m_primary>  (21) 
energy

>  <rmsd>  (21) 
4.0450402790965105

>  <m_score__min__rmsd>  (21) 
4.0450402790965105

>  <meeko>  (21) 
{"free_energy": -7.46, "intermolecular_energy": -8.95, "internal_energy": -2.11, "cluster_size": 4, "cluster_id": 2, "rank_in_cluster": 4}

>  <energy>  (21) 
-7.46

>  <cluster_rmsd>  (21) 
0.98

>  <cluster>  (21) 
2

$$$$

     RDKit          3D

 48 51  0  0  0  0  0  0  0  0999 V2000
  139.1370   70.8310  221.1640 O   0  0  0  0  0  0  0  0  0  0  0  0
  138.9630   71.5070  222.1970 C   0  0  0  0  0  0  0  0  0  0  0  0
  138.2110   72.7130  222.1210 N   0  0  0  0  0  0  0  0  0  0  0  0
  137.6370   73.1820  220.8730 C   0  0  0  0  0  0  0  0  0  0  0  0
  138.7410   73.7210  220.0440 C   0  0  0  0  0  0  0  0  0  0  0  0
  139.0430   73.1640  218.9540 O   0  0  0  0  0  0  0  0  0  0  0  0
  139.5030   74.8620  220.4150 N   0  0  0  0  0  0  0  0  0  0  0  0
  138.8920   75.8540  221.2770 C   0  0  0  0  0  0  0  0  0  0  0  0
  139.8680   76.2260  222.3440 C   0  0  0  0  0  0  0  0  0  0  0  0
  141.0710   76.8530  221.7190 C   0  0  0  0  0  0  0  0  0  0  0  0
  141.3820   76.4150  220.3310 C   0  0  0  0  0  0  0  0  0  0  0  0
  140.8660   75.0600  219.9540 C   0  0  1  0  0  0  0  0  0  0  0  0
  141.7800   73.9640  220.3010 C   0  0  0  0  0  0  0  0  0  0  0  0
  143.1460   74.0080  220.5520 C   0  0  0  0  0  0  0  0  0  0  0  0
  143.6010   72.7680  220.8350 N   0  0  0  0  0  0  0  0  0  0  0  0
  142.5610   71.9430  220.7690 C   0  0  0  0  0  0  0  0  0  0  0  0
  141.4700   72.6420  220.4530 N   0  0  0  0  0  0  0  0  0  0  0  0
  139.5220   71.0730  223.4770 C   0  0  0  0  0  0  0  0  0  0  0  0
  140.4020   71.8990  224.1450 C   0  0  0  0  0  0  0  0  0  0  0  0
  140.9560   71.5270  225.3620 C   0  0  0  0  0  0  0  0  0  0  0  0
  140.5740   70.2800  225.8670 C   0  0  0  0  0  0  0  0  0  0  0  0
  141.0970   69.8590  227.0790 C   0  0  0  0  0  0  0  0  0  0  0  0
  140.7030   68.6240  227.5550 C   0  0  0  0  0  0  0  0  0  0  0  0
  141.3400   68.0440  229.0880 Cl  0  0  0  0  0  0  0  0  0  0  0  0
  139.8250   67.8080  226.8800 C   0  0  0  0  0  0  0  0  0  0  0  0
  139.2990   68.2230  225.6690 C   0  0  0  0  0  0  0  0  0  0  0  0
  139.6930   69.4600  225.1920 C   0  0  0  0  0  0  0  0  0  0  0  0
  139.1910   69.8750  224.0200 N   0  0  0  0  0  0  0  0  0  0  0  0
  138.0960   73.2460  223.0310 H   0  0  0  0  0  0  0  0  0  0  0  0
  137.1476   72.3479  220.3488 H   0  0  0  0  0  0  0  0  0  0  0  0
  136.8831   73.9600  221.0639 H   0  0  0  0  0  0  0  0  0  0  0  0
  138.6297   76.7452  220.6880 H   0  0  0  0  0  0  0  0  0  0  0  0
  137.9777   75.4444  221.7311 H   0  0  0  0  0  0  0  0  0  0  0  0
  139.3997   76.9407  223.0368 H   0  0  0  0  0  0  0  0  0  0  0  0
  140.1691   75.3242  222.8972 H   0  0  0  0  0  0  0  0  0  0  0  0
  140.9140   77.9416  221.7023 H   0  0  0  0  0  0  0  0  0  0  0  0
  141.9268   76.5339  222.3319 H   0  0  0  0  0  0  0  0  0  0  0  0
  140.9459   77.1492  219.6377 H   0  0  0  0  0  0  0  0  0  0  0  0
  142.4785   76.3489  220.2725 H   0  0  0  0  0  0  0  0  0  0  0  0
  140.8274   75.0301  218.8551 H   0  0  0  0  0  0  0  0  0  0  0  0
  143.7646   74.9171  220.5244 H   0  0  0  0  0  0  0  0  0  0  0  0
  142.5947   70.8579  220.9465 H   0  0  0  0  0  0  0  0  0  0  0  0
  140.4820   72.3030  220.3200 H   0  0  0  0  0  0  0  0  0  0  0  0
  140.6697   72.8709  223.7048 H   0  0  0  0  0  0  0  0  0  0  0  0
  141.6589   72.1790  225.9012 H   0  0  0  0  0  0  0  0  0  0  0  0
  141.8022   70.4872  227.6430 H   0  0  0  0  0  0  0  0  0  0  0  0
  139.5427   66.8314  227.3003 H   0  0  0  0  0  0  0  0  0  0  0  0
  138.5941   67.5927  225.1070 H   0  0  0  0  0  0  0  0  0  0  0  0
  1  2  2  0
  2  3  1  0
  3  4  1  0
  4  5  1  0
  5  6  2  0
  5  7  1  0
  7  8  1  0
  8  9  1  0
  9 10  1  0
 10 11  1  0
 11 12  1  0
 12 13  1  0
 13 14  2  0
 14 15  1  0
 15 16  2  0
 16 17  1  0
  2 18  1  0
 18 19  2  0
 19 20  1  0
 20 21  2  0
 21 22  1  0
 22 23  2  0
 23 24  1  0
 23 25  1  0
 25 26  2  0
 26 27  1  0
 27 28  2  0
 12  7  1  0
 17 13  1  0
 28 18  1  0
 27 21  1  0
  3 29  1  0
  4 30  1  0
  4 31  1  0
  8 32  1  0
  8 33  1  0
  9 34  1  0
  9 35  1  0
 10 36  1  0
 10 37  1  0
 11 38  1  0
 11 39  1  0
 12 40  1  6
 14 41  1  0
 16 42  1  0
 17 43  1  0
 19 44  1  0
 20 45  1  0
 22 46  1  0
 25 47  1  0
 26 48  1  0
M  END
>  <smiles>  (22) 
O=C(NCC(=O)N1CCCC[C@H]1c1cnc[nH]1)c1ccc2cc(Cl)ccc2n1

>  <score_type>  (22) 
oracle

>  <origin>  (22) 
autodockgpu

>  <m_score__min__energy>  (22) 
-8.0800000000000001

>  <m_primary>  (22) 
energy

>  <rmsd>  (22) 
3.701636452588287

>  <m_score__min__rmsd>  (22) 
3.701636452588287

>  <meeko>  (22) 
{"free_energy": -6.54, "intermolecular_energy": -8.03, "internal_energy": -3.07, "cluster_size": 23, "cluster_id": 3, "rank_in_cluster": 23}

>  <energy>  (22) 
-7.76

>  <cluster_rmsd>  (22) 
0.0

>  <cluster>  (22) 
3

$$$$

     RDKit          3D

 48 51  0  0  0  0  0  0  0  0999 V2000
  140.2630   72.7490  220.8230 O   0  0  0  0  0  0  0  0  0  0  0  0
  139.9670   73.0180  222.0020 C   0  0  0  0  0  0  0  0  0  0  0  0
  139.5830   74.3470  222.3380 N   0  0  0  0  0  0  0  0  0  0  0  0
  139.5240   75.4030  221.3430 C   0  0  0  0  0  0  0  0  0  0  0  0
  139.3750   76.6900  222.0630 C   0  0  0  0  0  0  0  0  0  0  0  0
  138.3110   76.9440  222.6910 O   0  0  0  0  0  0  0  0  0  0  0  0
  140.3890   77.6850  222.0900 N   0  0  0  0  0  0  0  0  0  0  0  0
  141.3850   77.6890  221.0360 C   0  0  0  0  0  0  0  0  0  0  0  0
  141.5640   79.0910  220.5540 C   0  0  0  0  0  0  0  0  0  0  0  0
  142.0840   79.9370  221.6680 C   0  0  0  0  0  0  0  0  0  0  0  0
  141.7090   79.5020  223.0400 C   0  0  0  0  0  0  0  0  0  0  0  0
  140.4540   78.6890  223.1360 C   0  0  1  0  0  0  0  0  0  0  0  0
  139.2370   79.5000  223.2660 C   0  0  0  0  0  0  0  0  0  0  0  0
  138.9200   80.4630  224.2170 C   0  0  0  0  0  0  0  0  0  0  0  0
  137.6930   80.9690  223.9680 N   0  0  0  0  0  0  0  0  0  0  0  0
  137.2250   80.3520  222.8870 C   0  0  0  0  0  0  0  0  0  0  0  0
  138.1340   79.4750  222.4580 N   0  0  0  0  0  0  0  0  0  0  0  0
  140.0100   71.9870  223.0380 C   0  0  0  0  0  0  0  0  0  0  0  0
  139.5590   70.7160  222.7480 C   0  0  0  0  0  0  0  0  0  0  0  0
  139.5820   69.7080  223.7010 C   0  0  0  0  0  0  0  0  0  0  0  0
  140.0850   70.0510  224.9610 C   0  0  0  0  0  0  0  0  0  0  0  0
  140.1310   69.0820  225.9500 C   0  0  0  0  0  0  0  0  0  0  0  0
  140.6320   69.4460  227.1830 C   0  0  0  0  0  0  0  0  0  0  0  0
  140.7110   68.2530  228.4720 Cl  0  0  0  0  0  0  0  0  0  0  0  0
  141.0780   70.7170  227.4640 C   0  0  0  0  0  0  0  0  0  0  0  0
  141.0350   71.6890  226.4800 C   0  0  0  0  0  0  0  0  0  0  0  0
  140.5340   71.3240  225.2430 C   0  0  0  0  0  0  0  0  0  0  0  0
  140.4860   72.2560  224.2800 N   0  0  0  0  0  0  0  0  0  0  0  0
  139.3410   74.5180  223.3570 H   0  0  0  0  0  0  0  0  0  0  0  0
  140.4498   75.4106  220.7489 H   0  0  0  0  0  0  0  0  0  0  0  0
  138.6772   75.2426  220.6595 H   0  0  0  0  0  0  0  0  0  0  0  0
  142.3396   77.3069  221.4269 H   0  0  0  0  0  0  0  0  0  0  0  0
  141.0563   77.0458  220.2064 H   0  0  0  0  0  0  0  0  0  0  0  0
  142.2802   79.1032  219.7192 H   0  0  0  0  0  0  0  0  0  0  0  0
  140.5965   79.4879  220.2127 H   0  0  0  0  0  0  0  0  0  0  0  0
  143.1821   79.9421  221.6038 H   0  0  0  0  0  0  0  0  0  0  0  0
  141.6235   80.9267  221.5318 H   0  0  0  0  0  0  0  0  0  0  0  0
  142.5359   78.8985  223.4426 H   0  0  0  0  0  0  0  0  0  0  0  0
  141.5170   80.4240  223.6084 H   0  0  0  0  0  0  0  0  0  0  0  0
  140.5033   78.1383  224.0870 H   0  0  0  0  0  0  0  0  0  0  0  0
  139.5719   80.7677  225.0490 H   0  0  0  0  0  0  0  0  0  0  0  0
  136.2455   80.5354  222.4213 H   0  0  0  0  0  0  0  0  0  0  0  0
  138.0880   78.8240  221.6320 H   0  0  0  0  0  0  0  0  0  0  0  0
  139.1735   70.4974  221.7412 H   0  0  0  0  0  0  0  0  0  0  0  0
  139.2236   68.6923  223.4778 H   0  0  0  0  0  0  0  0  0  0  0  0
  139.7800   68.0572  225.7588 H   0  0  0  0  0  0  0  0  0  0  0  0
  141.4662   70.9589  228.4644 H   0  0  0  0  0  0  0  0  0  0  0  0
  141.3859   72.7133  226.6739 H   0  0  0  0  0  0  0  0  0  0  0  0
  1  2  2  0
  2  3  1  0
  3  4  1  0
  4  5  1  0
  5  6  2  0
  5  7  1  0
  7  8  1  0
  8  9  1  0
  9 10  1  0
 10 11  1  0
 11 12  1  0
 12 13  1  0
 13 14  2  0
 14 15  1  0
 15 16  2  0
 16 17  1  0
  2 18  1  0
 18 19  2  0
 19 20  1  0
 20 21  2  0
 21 22  1  0
 22 23  2  0
 23 24  1  0
 23 25  1  0
 25 26  2  0
 26 27  1  0
 27 28  2  0
 12  7  1  0
 17 13  1  0
 28 18  1  0
 27 21  1  0
  3 29  1  0
  4 30  1  0
  4 31  1  0
  8 32  1  0
  8 33  1  0
  9 34  1  0
  9 35  1  0
 10 36  1  0
 10 37  1  0
 11 38  1  0
 11 39  1  0
 12 40  1  1
 14 41  1  0
 16 42  1  0
 17 43  1  0
 19 44  1  0
 20 45  1  0
 22 46  1  0
 25 47  1  0
 26 48  1  0
M  END
>  <smiles>  (23) 
O=C(NCC(=O)N1CCCC[C@H]1c1cnc[nH]1)c1ccc2cc(Cl)ccc2n1

>  <score_type>  (23) 
oracle

>  <origin>  (23) 
autodockgpu

>  <m_score__min__energy>  (23) 
-8.0800000000000001

>  <m_primary>  (23) 
energy

>  <rmsd>  (23) 
3.3004428594978417

>  <m_score__min__rmsd>  (23) 
3.3004428594978417

>  <meeko>  (23) 
{"free_energy": -8.06, "intermolecular_energy": -9.55, "internal_energy": -1.89, "cluster_size": 17, "cluster_id": 1, "rank_in_cluster": 2}

>  <energy>  (23) 
-7.71

>  <cluster_rmsd>  (23) 
0.77

>  <cluster>  (23) 
3

$$$$

     RDKit          3D

 48 51  0  0  0  0  0  0  0  0999 V2000
  140.8640   72.3180  220.7880 O   0  0  0  0  0  0  0  0  0  0  0  0
  140.2490   72.6300  221.8260 C   0  0  0  0  0  0  0  0  0  0  0  0
  139.6180   73.9030  221.9050 N   0  0  0  0  0  0  0  0  0  0  0  0
  139.6680   74.8540  220.8090 C   0  0  0  0  0  0  0  0  0  0  0  0
  141.0610   75.3510  220.7080 C   0  0  0  0  0  0  0  0  0  0  0  0
  141.7650   75.4730  221.7470 O   0  0  0  0  0  0  0  0  0  0  0  0
  141.6690   75.7110  219.4750 N   0  0  0  0  0  0  0  0  0  0  0  0
  141.5920   77.0910  219.0400 C   0  0  0  0  0  0  0  0  0  0  0  0
  142.9410   77.5170  218.5620 C   0  0  0  0  0  0  0  0  0  0  0  0
  143.3310   76.6940  217.3790 C   0  0  0  0  0  0  0  0  0  0  0  0
  142.7500   75.3250  217.3230 C   0  0  0  0  0  0  0  0  0  0  0  0
  142.3580   74.7390  218.6450 C   0  0  1  0  0  0  0  0  0  0  0  0
  143.4550   74.0400  219.3270 C   0  0  0  0  0  0  0  0  0  0  0  0
  144.7370   73.7590  218.8680 C   0  0  0  0  0  0  0  0  0  0  0  0
  145.4300   73.0950  219.8180 N   0  0  0  0  0  0  0  0  0  0  0  0
  144.6220   72.9470  220.8630 C   0  0  0  0  0  0  0  0  0  0  0  0
  143.4430   73.5050  220.5850 N   0  0  0  0  0  0  0  0  0  0  0  0
  140.1710   71.7050  222.9550 C   0  0  0  0  0  0  0  0  0  0  0  0
  139.5830   70.4690  222.7790 C   0  0  0  0  0  0  0  0  0  0  0  0
  139.4880   69.5600  223.8240 C   0  0  0  0  0  0  0  0  0  0  0  0
  140.0160   69.9660  225.0540 C   0  0  0  0  0  0  0  0  0  0  0  0
  139.9480   69.0970  226.1310 C   0  0  0  0  0  0  0  0  0  0  0  0
  140.4770   69.5220  227.3330 C   0  0  0  0  0  0  0  0  0  0  0  0
  140.4140   68.4560  228.7310 Cl  0  0  0  0  0  0  0  0  0  0  0  0
  141.0600   70.7570  227.4990 C   0  0  0  0  0  0  0  0  0  0  0  0
  141.1320   71.6290  226.4270 C   0  0  0  0  0  0  0  0  0  0  0  0
  140.6020   71.2040  225.2220 C   0  0  0  0  0  0  0  0  0  0  0  0
  140.6640   72.0380  224.1740 N   0  0  0  0  0  0  0  0  0  0  0  0
  139.1090   74.1140  222.8110 H   0  0  0  0  0  0  0  0  0  0  0  0
  139.3774   74.3597  219.8703 H   0  0  0  0  0  0  0  0  0  0  0  0
  138.9733   75.6875  220.9896 H   0  0  0  0  0  0  0  0  0  0  0  0
  140.8633   77.1810  218.2209 H   0  0  0  0  0  0  0  0  0  0  0  0
  141.2706   77.7305  219.8753 H   0  0  0  0  0  0  0  0  0  0  0  0
  142.9106   78.5788  218.2764 H   0  0  0  0  0  0  0  0  0  0  0  0
  143.6774   77.3754  219.3668 H   0  0  0  0  0  0  0  0  0  0  0  0
  143.0139   77.2326  216.4738 H   0  0  0  0  0  0  0  0  0  0  0  0
  144.4192   76.5539  217.4579 H   0  0  0  0  0  0  0  0  0  0  0  0
  141.8520   75.3631  216.6889 H   0  0  0  0  0  0  0  0  0  0  0  0
  143.5437   74.6748  216.9265 H   0  0  0  0  0  0  0  0  0  0  0  0
  141.6297   73.9417  218.4355 H   0  0  0  0  0  0  0  0  0  0  0  0
  145.1286   74.0363  217.8782 H   0  0  0  0  0  0  0  0  0  0  0  0
  144.8838   72.4448  221.8060 H   0  0  0  0  0  0  0  0  0  0  0  0
  142.5810   73.5670  221.1870 H   0  0  0  0  0  0  0  0  0  0  0  0
  139.1816   70.1987  221.7912 H   0  0  0  0  0  0  0  0  0  0  0  0
  139.0220   68.5724  223.6917 H   0  0  0  0  0  0  0  0  0  0  0  0
  139.4883   68.1026  226.0316 H   0  0  0  0  0  0  0  0  0  0  0  0
  141.4666   71.0496  228.4783 H   0  0  0  0  0  0  0  0  0  0  0  0
  141.5932   72.6224  226.5292 H   0  0  0  0  0  0  0  0  0  0  0  0
  1  2  2  0
  2  3  1  0
  3  4  1  0
  4  5  1  0
  5  6  2  0
  5  7  1  0
  7  8  1  0
  8  9  1  0
  9 10  1  0
 10 11  1  0
 11 12  1  0
 12 13  1  0
 13 14  2  0
 14 15  1  0
 15 16  2  0
 16 17  1  0
  2 18  1  0
 18 19  2  0
 19 20  1  0
 20 21  2  0
 21 22  1  0
 22 23  2  0
 23 24  1  0
 23 25  1  0
 25 26  2  0
 26 27  1  0
 27 28  2  0
 12  7  1  0
 17 13  1  0
 28 18  1  0
 27 21  1  0
  3 29  1  0
  4 30  1  0
  4 31  1  0
  8 32  1  0
  8 33  1  0
  9 34  1  0
  9 35  1  0
 10 36  1  0
 10 37  1  0
 11 38  1  0
 11 39  1  0
 12 40  1  6
 14 41  1  0
 16 42  1  0
 17 43  1  0
 19 44  1  0
 20 45  1  0
 22 46  1  0
 25 47  1  0
 26 48  1  0
M  END
>  <smiles>  (24) 
O=C(NCC(=O)N1CCCC[C@H]1c1cnc[nH]1)c1ccc2cc(Cl)ccc2n1

>  <score_type>  (24) 
oracle

>  <origin>  (24) 
autodockgpu

>  <m_score__min__energy>  (24) 
-8.0800000000000001

>  <m_primary>  (24) 
energy

>  <rmsd>  (24) 
2.978506675943283

>  <m_score__min__rmsd>  (24) 
2.978506675943283

>  <meeko>  (24) 
{"free_energy": -7.2, "intermolecular_energy": -8.7, "internal_energy": -2.87, "cluster_size": 23, "cluster_id": 3, "rank_in_cluster": 19}

>  <energy>  (24) 
-7.69

>  <cluster_rmsd>  (24) 
0.62

>  <cluster>  (24) 
3

$$$$

     RDKit          3D

 48 51  0  0  0  0  0  0  0  0999 V2000
  138.9210   71.7140  220.8220 O   0  0  0  0  0  0  0  0  0  0  0  0
  139.2800   72.1450  221.9350 C   0  0  0  0  0  0  0  0  0  0  0  0
  139.5030   73.5410  222.1000 N   0  0  0  0  0  0  0  0  0  0  0  0
  139.3220   74.4820  221.0100 C   0  0  0  0  0  0  0  0  0  0  0  0
  140.3050   75.5760  221.1920 C   0  0  0  0  0  0  0  0  0  0  0  0
  140.7310   75.8570  222.3460 O   0  0  0  0  0  0  0  0  0  0  0  0
  140.8120   76.3510  220.1150 N   0  0  0  0  0  0  0  0  0  0  0  0
  140.5530   77.7770  220.1040 C   0  0  0  0  0  0  0  0  0  0  0  0
  141.8200   78.4900  219.7620 C   0  0  0  0  0  0  0  0  0  0  0  0
  142.2530   78.1010  218.3870 C   0  0  0  0  0  0  0  0  0  0  0  0
  141.8370   76.7450  217.9370 C   0  0  0  0  0  0  0  0  0  0  0  0
  141.5750   75.7570  219.0320 C   0  0  1  0  0  0  0  0  0  0  0  0
  142.7760   75.0340  219.4710 C   0  0  0  0  0  0  0  0  0  0  0  0
  143.7320   74.3760  218.7090 C   0  0  0  0  0  0  0  0  0  0  0  0
  144.6760   73.8420  219.5140 N   0  0  0  0  0  0  0  0  0  0  0  0
  144.3420   74.1450  220.7650 C   0  0  0  0  0  0  0  0  0  0  0  0
  143.2130   74.8550  220.7540 N   0  0  0  0  0  0  0  0  0  0  0  0
  139.4750   71.2350  223.0630 C   0  0  0  0  0  0  0  0  0  0  0  0
  139.0490   69.9270  222.9590 C   0  0  0  0  0  0  0  0  0  0  0  0
  139.2140   69.0300  224.0050 C   0  0  0  0  0  0  0  0  0  0  0  0
  139.8300   69.5240  225.1590 C   0  0  0  0  0  0  0  0  0  0  0  0
  140.0190   68.6710  226.2350 C   0  0  0  0  0  0  0  0  0  0  0  0
  140.6290   69.1830  227.3610 C   0  0  0  0  0  0  0  0  0  0  0  0
  140.8920   68.1410  228.7530 Cl  0  0  0  0  0  0  0  0  0  0  0  0
  141.0500   70.4900  227.4560 C   0  0  0  0  0  0  0  0  0  0  0  0
  140.8640   71.3470  226.3860 C   0  0  0  0  0  0  0  0  0  0  0  0
  140.2520   70.8340  225.2550 C   0  0  0  0  0  0  0  0  0  0  0  0
  140.0650   71.6530  224.2110 N   0  0  0  0  0  0  0  0  0  0  0  0
  139.8070   73.8510  223.0680 H   0  0  0  0  0  0  0  0  0  0  0  0
  139.4956   73.9785  220.0475 H   0  0  0  0  0  0  0  0  0  0  0  0
  138.2968   74.8808  221.0112 H   0  0  0  0  0  0  0  0  0  0  0  0
  139.7836   78.0079  219.3525 H   0  0  0  0  0  0  0  0  0  0  0  0
  140.1951   78.1011  221.0924 H   0  0  0  0  0  0  0  0  0  0  0  0
  141.6514   79.5763  219.8000 H   0  0  0  0  0  0  0  0  0  0  0  0
  142.6024   78.2155  220.4848 H   0  0  0  0  0  0  0  0  0  0  0  0
  141.8349   78.8339  217.6813 H   0  0  0  0  0  0  0  0  0  0  0  0
  143.3525   78.0830  218.4136 H   0  0  0  0  0  0  0  0  0  0  0  0
  140.9142   76.8512  217.3478 H   0  0  0  0  0  0  0  0  0  0  0  0
  142.6845   76.3430  217.3624 H   0  0  0  0  0  0  0  0  0  0  0  0
  140.9373   74.9697  218.6035 H   0  0  0  0  0  0  0  0  0  0  0  0
  143.7221   74.3007  217.6116 H   0  0  0  0  0  0  0  0  0  0  0  0
  144.9061   73.8565  221.6642 H   0  0  0  0  0  0  0  0  0  0  0  0
  142.6740   75.2540  221.5660 H   0  0  0  0  0  0  0  0  0  0  0  0
  138.5692   69.5884  222.0289 H   0  0  0  0  0  0  0  0  0  0  0  0
  138.8779   67.9853  223.9302 H   0  0  0  0  0  0  0  0  0  0  0  0
  139.6935   67.6211  226.1923 H   0  0  0  0  0  0  0  0  0  0  0  0
  141.5313   70.8508  228.3769 H   0  0  0  0  0  0  0  0  0  0  0  0
  141.1901   72.3965  226.4321 H   0  0  0  0  0  0  0  0  0  0  0  0
  1  2  2  0
  2  3  1  0
  3  4  1  0
  4  5  1  0
  5  6  2  0
  5  7  1  0
  7  8  1  0
  8  9  1  0
  9 10  1  0
 10 11  1  0
 11 12  1  0
 12 13  1  0
 13 14  2  0
 14 15  1  0
 15 16  2  0
 16 17  1  0
  2 18  1  0
 18 19  2  0
 19 20  1  0
 20 21  2  0
 21 22  1  0
 22 23  2  0
 23 24  1  0
 23 25  1  0
 25 26  2  0
 26 27  1  0
 27 28  2  0
 12  7  1  0
 17 13  1  0
 28 18  1  0
 27 21  1  0
  3 29  1  0
  4 30  1  0
  4 31  1  0
  8 32  1  0
  8 33  1  0
  9 34  1  0
  9 35  1  0
 10 36  1  0
 10 37  1  0
 11 38  1  0
 11 39  1  0
 12 40  1  6
 14 41  1  0
 16 42  1  0
 17 43  1  0
 19 44  1  0
 20 45  1  0
 22 46  1  0
 25 47  1  0
 26 48  1  0
M  END
>  <smiles>  (25) 
O=C(NCC(=O)N1CCCC[C@H]1c1cnc[nH]1)c1ccc2cc(Cl)ccc2n1

>  <score_type>  (25) 
oracle

>  <origin>  (25) 
autodockgpu

>  <m_score__min__energy>  (25) 
-8.0800000000000001

>  <m_primary>  (25) 
energy

>  <rmsd>  (25) 
2.508291109079969

>  <m_score__min__rmsd>  (25) 
2.508291109079969

>  <meeko>  (25) 
{"free_energy": -7.46, "intermolecular_energy": -8.96, "internal_energy": -2.67, "cluster_size": 23, "cluster_id": 3, "rank_in_cluster": 13}

>  <energy>  (25) 
-7.69

>  <cluster_rmsd>  (25) 
0.59

>  <cluster>  (25) 
3

$$$$

     RDKit          3D

 48 51  0  0  0  0  0  0  0  0999 V2000
  139.1010   71.5140  221.0210 O   0  0  0  0  0  0  0  0  0  0  0  0
  139.3260   71.9760  222.1560 C   0  0  0  0  0  0  0  0  0  0  0  0
  139.3400   73.3870  222.3430 N   0  0  0  0  0  0  0  0  0  0  0  0
  139.0970   74.3090  221.2480 C   0  0  0  0  0  0  0  0  0  0  0  0
  140.1220   75.3770  221.3240 C   0  0  0  0  0  0  0  0  0  0  0  0
  140.3260   75.9790  222.4130 O   0  0  0  0  0  0  0  0  0  0  0  0
  140.9100   75.7770  220.2120 N   0  0  0  0  0  0  0  0  0  0  0  0
  141.1420   77.1920  219.9990 C   0  0  0  0  0  0  0  0  0  0  0  0
  142.5890   77.3980  219.6930 C   0  0  0  0  0  0  0  0  0  0  0  0
  142.9350   76.6890  218.4260 C   0  0  0  0  0  0  0  0  0  0  0  0
  142.1140   75.4890  218.1110 C   0  0  0  0  0  0  0  0  0  0  0  0
  141.4850   74.8130  219.2900 C   0  0  1  0  0  0  0  0  0  0  0  0
  142.3530   73.8160  219.9300 C   0  0  0  0  0  0  0  0  0  0  0  0
  143.7070   73.8950  220.2290 C   0  0  0  0  0  0  0  0  0  0  0  0
  144.1160   72.7500  220.8180 N   0  0  0  0  0  0  0  0  0  0  0  0
  143.0570   71.9500  220.8980 C   0  0  0  0  0  0  0  0  0  0  0  0
  142.0000   72.5720  220.3730 N   0  0  0  0  0  0  0  0  0  0  0  0
  139.5750   71.0870  223.2890 C   0  0  0  0  0  0  0  0  0  0  0  0
  139.2780   69.7440  223.1750 C   0  0  0  0  0  0  0  0  0  0  0  0
  139.4990   68.8650  224.2260 C   0  0  0  0  0  0  0  0  0  0  0  0
  140.0350   69.4120  225.3960 C   0  0  0  0  0  0  0  0  0  0  0  0
  140.2750   68.5790  226.4760 C   0  0  0  0  0  0  0  0  0  0  0  0
  140.8040   69.1440  227.6190 C   0  0  0  0  0  0  0  0  0  0  0  0
  141.1270   68.1290  229.0170 Cl  0  0  0  0  0  0  0  0  0  0  0  0
  141.0960   70.4850  227.7240 C   0  0  0  0  0  0  0  0  0  0  0  0
  140.8590   71.3230  226.6480 C   0  0  0  0  0  0  0  0  0  0  0  0
  140.3280   70.7560  225.5020 C   0  0  0  0  0  0  0  0  0  0  0  0
  140.0930   71.5560  224.4520 N   0  0  0  0  0  0  0  0  0  0  0  0
  139.5370   73.7230  223.3300 H   0  0  0  0  0  0  0  0  0  0  0  0
  139.1778   73.7795  220.2872 H   0  0  0  0  0  0  0  0  0  0  0  0
  138.0867   74.7379  221.3217 H   0  0  0  0  0  0  0  0  0  0  0  0
  140.5311   77.5445  219.1549 H   0  0  0  0  0  0  0  0  0  0  0  0
  140.8649   77.7577  220.9008 H   0  0  0  0  0  0  0  0  0  0  0  0
  142.7901   78.4734  219.5782 H   0  0  0  0  0  0  0  0  0  0  0  0
  143.1987   76.9970  220.5161 H   0  0  0  0  0  0  0  0  0  0  0  0
  142.8205   77.4033  217.5974 H   0  0  0  0  0  0  0  0  0  0  0  0
  143.9629   76.3210  218.5605 H   0  0  0  0  0  0  0  0  0  0  0  0
  141.3091   75.7983  217.4280 H   0  0  0  0  0  0  0  0  0  0  0  0
  142.8065   74.7543  217.6745 H   0  0  0  0  0  0  0  0  0  0  0  0
  140.6450   74.2174  218.9033 H   0  0  0  0  0  0  0  0  0  0  0  0
  144.3509   74.7614  220.0176 H   0  0  0  0  0  0  0  0  0  0  0  0
  143.0531   70.9376  221.3281 H   0  0  0  0  0  0  0  0  0  0  0  0
  141.0100   72.2270  220.2760 H   0  0  0  0  0  0  0  0  0  0  0  0
  138.8579   69.3628  222.2326 H   0  0  0  0  0  0  0  0  0  0  0  0
  139.2646   67.7935  224.1430 H   0  0  0  0  0  0  0  0  0  0  0  0
  140.0516   67.5032  226.4247 H   0  0  0  0  0  0  0  0  0  0  0  0
  141.5152   70.8884  228.6575 H   0  0  0  0  0  0  0  0  0  0  0  0
  141.0840   72.3984  226.7014 H   0  0  0  0  0  0  0  0  0  0  0  0
  1  2  2  0
  2  3  1  0
  3  4  1  0
  4  5  1  0
  5  6  2  0
  5  7  1  0
  7  8  1  0
  8  9  1  0
  9 10  1  0
 10 11  1  0
 11 12  1  0
 12 13  1  0
 13 14  2  0
 14 15  1  0
 15 16  2  0
 16 17  1  0
  2 18  1  0
 18 19  2  0
 19 20  1  0
 20 21  2  0
 21 22  1  0
 22 23  2  0
 23 24  1  0
 23 25  1  0
 25 26  2  0
 26 27  1  0
 27 28  2  0
 12  7  1  0
 17 13  1  0
 28 18  1  0
 27 21  1  0
  3 29  1  0
  4 30  1  0
  4 31  1  0
  8 32  1  0
  8 33  1  0
  9 34  1  0
  9 35  1  0
 10 36  1  0
 10 37  1  0
 11 38  1  0
 11 39  1  0
 12 40  1  6
 14 41  1  0
 16 42  1  0
 17 43  1  0
 19 44  1  0
 20 45  1  0
 22 46  1  0
 25 47  1  0
 26 48  1  0
M  END
>  <smiles>  (26) 
O=C(NCC(=O)N1CCCC[C@H]1c1cnc[nH]1)c1ccc2cc(Cl)ccc2n1

>  <score_type>  (26) 
oracle

>  <origin>  (26) 
autodockgpu

>  <m_score__min__energy>  (26) 
-8.0800000000000001

>  <m_primary>  (26) 
energy

>  <rmsd>  (26) 
2.9472700216791172

>  <m_score__min__rmsd>  (26) 
2.9472700216791172

>  <meeko>  (26) 
{"free_energy": -6.96, "intermolecular_energy": -8.45, "internal_energy": -2.7, "cluster_size": 23, "cluster_id": 3, "rank_in_cluster": 20}

>  <energy>  (26) 
-7.65

>  <cluster_rmsd>  (26) 
0.55

>  <cluster>  (26) 
3

$$$$

     RDKit          3D

 48 51  0  0  0  0  0  0  0  0999 V2000
  139.6800   72.1840  220.5680 O   0  0  0  0  0  0  0  0  0  0  0  0
  140.2500   72.4730  221.6380 C   0  0  0  0  0  0  0  0  0  0  0  0
  140.9940   73.6820  221.7250 N   0  0  0  0  0  0  0  0  0  0  0  0
  141.1100   74.5950  220.6020 C   0  0  0  0  0  0  0  0  0  0  0  0
  141.8170   73.8800  219.5130 C   0  0  0  0  0  0  0  0  0  0  0  0
  141.1750   73.4620  218.5110 O   0  0  0  0  0  0  0  0  0  0  0  0
  143.2160   73.6300  219.5290 N   0  0  0  0  0  0  0  0  0  0  0  0
  144.0700   74.5140  220.2970 C   0  0  0  0  0  0  0  0  0  0  0  0
  145.0300   73.6860  221.0840 C   0  0  0  0  0  0  0  0  0  0  0  0
  145.9040   72.9160  220.1500 C   0  0  0  0  0  0  0  0  0  0  0  0
  145.3040   72.5830  218.8290 C   0  0  0  0  0  0  0  0  0  0  0  0
  143.8070   72.5220  218.8010 C   0  0  1  0  0  0  0  0  0  0  0  0
  143.2650   71.2070  219.1650 C   0  0  0  0  0  0  0  0  0  0  0  0
  143.9400   70.0250  219.4400 C   0  0  0  0  0  0  0  0  0  0  0  0
  143.0560   69.0470  219.7330 N   0  0  0  0  0  0  0  0  0  0  0  0
  141.8400   69.5790  219.6500 C   0  0  0  0  0  0  0  0  0  0  0  0
  141.9500   70.8650  219.3130 N   0  0  0  0  0  0  0  0  0  0  0  0
  140.1600   71.5840  222.7960 C   0  0  0  0  0  0  0  0  0  0  0  0
  139.5680   70.3460  222.6560 C   0  0  0  0  0  0  0  0  0  0  0  0
  139.4620   69.4720  223.7290 C   0  0  0  0  0  0  0  0  0  0  0  0
  139.9860   69.9140  224.9480 C   0  0  0  0  0  0  0  0  0  0  0  0
  139.9060   69.0820  226.0530 C   0  0  0  0  0  0  0  0  0  0  0  0
  140.4310   69.5420  227.2440 C   0  0  0  0  0  0  0  0  0  0  0  0
  140.3550   68.5230  228.6740 Cl  0  0  0  0  0  0  0  0  0  0  0  0
  141.0190   70.7790  227.3730 C   0  0  0  0  0  0  0  0  0  0  0  0
  141.1020   71.6160  226.2740 C   0  0  0  0  0  0  0  0  0  0  0  0
  140.5760   71.1540  225.0800 C   0  0  0  0  0  0  0  0  0  0  0  0
  140.6490   71.9550  224.0070 N   0  0  0  0  0  0  0  0  0  0  0  0
  141.4580   73.8760  222.6600 H   0  0  0  0  0  0  0  0  0  0  0  0
  140.1094   74.9004  220.2622 H   0  0  0  0  0  0  0  0  0  0  0  0
  141.6654   75.4982  220.8948 H   0  0  0  0  0  0  0  0  0  0  0  0
  144.6243   75.1770  219.6164 H   0  0  0  0  0  0  0  0  0  0  0  0
  143.4603   75.1283  220.9759 H   0  0  0  0  0  0  0  0  0  0  0  0
  145.6516   74.3419  221.7113 H   0  0  0  0  0  0  0  0  0  0  0  0
  144.4723   72.9872  221.7249 H   0  0  0  0  0  0  0  0  0  0  0  0
  146.8112   73.5111  219.9685 H   0  0  0  0  0  0  0  0  0  0  0  0
  146.0936   71.9517  220.6441 H   0  0  0  0  0  0  0  0  0  0  0  0
  145.6262   73.3480  218.1072 H   0  0  0  0  0  0  0  0  0  0  0  0
  145.6537   71.5693  218.5837 H   0  0  0  0  0  0  0  0  0  0  0  0
  143.5028   72.6472  217.7514 H   0  0  0  0  0  0  0  0  0  0  0  0
  145.0331   69.9033  219.4219 H   0  0  0  0  0  0  0  0  0  0  0  0
  140.8956   69.0446  219.8302 H   0  0  0  0  0  0  0  0  0  0  0  0
  141.1890   71.5770  219.1620 H   0  0  0  0  0  0  0  0  0  0  0  0
  139.1721   70.0455  221.6747 H   0  0  0  0  0  0  0  0  0  0  0  0
  138.9906   68.4835  223.6260 H   0  0  0  0  0  0  0  0  0  0  0  0
  139.4398   68.0881  225.9836 H   0  0  0  0  0  0  0  0  0  0  0  0
  141.4212   71.1012  228.3448 H   0  0  0  0  0  0  0  0  0  0  0  0
  141.5679   72.6098  226.3466 H   0  0  0  0  0  0  0  0  0  0  0  0
  1  2  2  0
  2  3  1  0
  3  4  1  0
  4  5  1  0
  5  6  2  0
  5  7  1  0
  7  8  1  0
  8  9  1  0
  9 10  1  0
 10 11  1  0
 11 12  1  0
 12 13  1  0
 13 14  2  0
 14 15  1  0
 15 16  2  0
 16 17  1  0
  2 18  1  0
 18 19  2  0
 19 20  1  0
 20 21  2  0
 21 22  1  0
 22 23  2  0
 23 24  1  0
 23 25  1  0
 25 26  2  0
 26 27  1  0
 27 28  2  0
 12  7  1  0
 17 13  1  0
 28 18  1  0
 27 21  1  0
  3 29  1  0
  4 30  1  0
  4 31  1  0
  8 32  1  0
  8 33  1  0
  9 34  1  0
  9 35  1  0
 10 36  1  0
 10 37  1  0
 11 38  1  0
 11 39  1  0
 12 40  1  6
 14 41  1  0
 16 42  1  0
 17 43  1  0
 19 44  1  0
 20 45  1  0
 22 46  1  0
 25 47  1  0
 26 48  1  0
M  END
>  <smiles>  (27) 
O=C(NCC(=O)N1CCCC[C@H]1c1cnc[nH]1)c1ccc2cc(Cl)ccc2n1

>  <score_type>  (27) 
oracle

>  <origin>  (27) 
autodockgpu

>  <m_score__min__energy>  (27) 
-8.0800000000000001

>  <m_primary>  (27) 
energy

>  <rmsd>  (27) 
4.67565906163362

>  <m_score__min__rmsd>  (27) 
4.67565906163362

>  <meeko>  (27) 
{"free_energy": -6.17, "intermolecular_energy": -7.67, "internal_energy": -3.36, "cluster_size": 3, "cluster_id": 6, "rank_in_cluster": 1}

>  <energy>  (27) 
-7.65

>  <cluster_rmsd>  (27) 
0.59

>  <cluster>  (27) 
3

$$$$

     RDKit          3D

 48 51  0  0  0  0  0  0  0  0999 V2000
  141.1320   73.0600  221.4050 O   0  0  0  0  0  0  0  0  0  0  0  0
  140.1710   72.9720  222.1930 C   0  0  0  0  0  0  0  0  0  0  0  0
  139.0820   73.8790  222.0670 N   0  0  0  0  0  0  0  0  0  0  0  0
  139.0540   74.9080  221.0430 C   0  0  0  0  0  0  0  0  0  0  0  0
  140.0940   75.9080  221.3820 C   0  0  0  0  0  0  0  0  0  0  0  0
  140.5220   75.9980  222.5650 O   0  0  0  0  0  0  0  0  0  0  0  0
  140.6550   76.7990  220.4270 N   0  0  0  0  0  0  0  0  0  0  0  0
  140.4870   78.2250  220.6270 C   0  0  0  0  0  0  0  0  0  0  0  0
  141.7980   78.8980  220.3870 C   0  0  0  0  0  0  0  0  0  0  0  0
  142.2120   78.6880  218.9680 C   0  0  0  0  0  0  0  0  0  0  0  0
  141.7120   77.4420  218.3260 C   0  0  0  0  0  0  0  0  0  0  0  0
  141.3830   76.3220  219.2660 C   0  0  1  0  0  0  0  0  0  0  0  0
  142.5340   75.4680  219.5880 C   0  0  0  0  0  0  0  0  0  0  0  0
  143.5870   75.0700  218.7750 C   0  0  0  0  0  0  0  0  0  0  0  0
  144.4340   74.2820  219.4710 N   0  0  0  0  0  0  0  0  0  0  0  0
  143.9440   74.1710  220.7020 C   0  0  0  0  0  0  0  0  0  0  0  0
  142.8130   74.8720  220.7860 N   0  0  0  0  0  0  0  0  0  0  0  0
  140.1540   71.9510  223.2400 C   0  0  0  0  0  0  0  0  0  0  0  0
  139.6560   70.6970  222.9550 C   0  0  0  0  0  0  0  0  0  0  0  0
  139.6210   69.6980  223.9180 C   0  0  0  0  0  0  0  0  0  0  0  0
  140.1150   70.0340  225.1830 C   0  0  0  0  0  0  0  0  0  0  0  0
  140.1040   69.0750  226.1830 C   0  0  0  0  0  0  0  0  0  0  0  0
  140.5970   69.4330  227.4210 C   0  0  0  0  0  0  0  0  0  0  0  0
  140.6050   68.2510  228.7230 Cl  0  0  0  0  0  0  0  0  0  0  0  0
  141.0910   70.6870  227.6960 C   0  0  0  0  0  0  0  0  0  0  0  0
  141.1050   71.6490  226.7020 C   0  0  0  0  0  0  0  0  0  0  0  0
  140.6110   71.2920  225.4600 C   0  0  0  0  0  0  0  0  0  0  0  0
  140.6180   72.2140  224.4870 N   0  0  0  0  0  0  0  0  0  0  0  0
  138.2920   73.7570  222.7650 H   0  0  0  0  0  0  0  0  0  0  0  0
  139.2674   74.4640  220.0595 H   0  0  0  0  0  0  0  0  0  0  0  0
  138.0624   75.3822  220.9998 H   0  0  0  0  0  0  0  0  0  0  0  0
  139.7371   78.6122  219.9215 H   0  0  0  0  0  0  0  0  0  0  0  0
  140.1459   78.4226  221.6539 H   0  0  0  0  0  0  0  0  0  0  0  0
  141.6987   79.9756  220.5845 H   0  0  0  0  0  0  0  0  0  0  0  0
  142.5579   78.4711  221.0580 H   0  0  0  0  0  0  0  0  0  0  0  0
  141.8452   79.5418  218.3794 H   0  0  0  0  0  0  0  0  0  0  0  0
  143.3080   78.5959  218.9866 H   0  0  0  0  0  0  0  0  0  0  0  0
  140.8002   77.6922  217.7639 H   0  0  0  0  0  0  0  0  0  0  0  0
  142.5344   77.0756  217.6940 H   0  0  0  0  0  0  0  0  0  0  0  0
  140.6989   75.6470  218.7309 H   0  0  0  0  0  0  0  0  0  0  0  0
  143.7125   75.3547  217.7199 H   0  0  0  0  0  0  0  0  0  0  0  0
  144.3989   73.5933  221.5201 H   0  0  0  0  0  0  0  0  0  0  0  0
  142.1720   74.9990  221.6120 H   0  0  0  0  0  0  0  0  0  0  0  0
  139.2788   70.4841  221.9439 H   0  0  0  0  0  0  0  0  0  0  0  0
  139.2258   68.6953  223.6982 H   0  0  0  0  0  0  0  0  0  0  0  0
  139.7156   68.0629  225.9963 H   0  0  0  0  0  0  0  0  0  0  0  0
  141.4726   70.9234  228.7002 H   0  0  0  0  0  0  0  0  0  0  0  0
  141.4944   72.6601  226.8920 H   0  0  0  0  0  0  0  0  0  0  0  0
  1  2  2  0
  2  3  1  0
  3  4  1  0
  4  5  1  0
  5  6  2  0
  5  7  1  0
  7  8  1  0
  8  9  1  0
  9 10  1  0
 10 11  1  0
 11 12  1  0
 12 13  1  0
 13 14  2  0
 14 15  1  0
 15 16  2  0
 16 17  1  0
  2 18  1  0
 18 19  2  0
 19 20  1  0
 20 21  2  0
 21 22  1  0
 22 23  2  0
 23 24  1  0
 23 25  1  0
 25 26  2  0
 26 27  1  0
 27 28  2  0
 12  7  1  0
 17 13  1  0
 28 18  1  0
 27 21  1  0
  3 29  1  0
  4 30  1  0
  4 31  1  0
  8 32  1  0
  8 33  1  0
  9 34  1  0
  9 35  1  0
 10 36  1  0
 10 37  1  0
 11 38  1  0
 11 39  1  0
 12 40  1  6
 14 41  1  0
 16 42  1  0
 17 43  1  0
 19 44  1  0
 20 45  1  0
 22 46  1  0
 25 47  1  0
 26 48  1  0
M  END
>  <smiles>  (28) 
O=C(NCC(=O)N1CCCC[C@H]1c1cnc[nH]1)c1ccc2cc(Cl)ccc2n1

>  <score_type>  (28) 
oracle

>  <origin>  (28) 
autodockgpu

>  <m_score__min__energy>  (28) 
-8.0800000000000001

>  <m_primary>  (28) 
energy

>  <rmsd>  (28) 
2.750283290327875

>  <m_score__min__rmsd>  (28) 
2.750283290327875

>  <meeko>  (28) 
{"free_energy": -7.52, "intermolecular_energy": -9.01, "internal_energy": -2.65, "cluster_size": 23, "cluster_id": 3, "rank_in_cluster": 10}

>  <energy>  (28) 
-7.6

>  <cluster_rmsd>  (28) 
0.41

>  <cluster>  (28) 
3

$$$$

     RDKit          3D

 48 51  0  0  0  0  0  0  0  0999 V2000
  139.1840   72.0420  220.7230 O   0  0  0  0  0  0  0  0  0  0  0  0
  139.3720   72.4580  221.8830 C   0  0  0  0  0  0  0  0  0  0  0  0
  139.4410   73.8600  222.1160 N   0  0  0  0  0  0  0  0  0  0  0  0
  139.2960   74.8250  221.0410 C   0  0  0  0  0  0  0  0  0  0  0  0
  140.3310   75.8690  221.2320 C   0  0  0  0  0  0  0  0  0  0  0  0
  140.9380   75.9630  222.3330 O   0  0  0  0  0  0  0  0  0  0  0  0
  140.6920   76.7970  220.2190 N   0  0  0  0  0  0  0  0  0  0  0  0
  139.9600   76.7780  218.9670 C   0  0  0  0  0  0  0  0  0  0  0  0
  139.6220   78.1830  218.5910 C   0  0  0  0  0  0  0  0  0  0  0  0
  140.8800   78.9540  218.3650 C   0  0  0  0  0  0  0  0  0  0  0  0
  142.0680   78.4930  219.1320 C   0  0  0  0  0  0  0  0  0  0  0  0
  141.7670   77.7560  220.4010 C   0  0  1  0  0  0  0  0  0  0  0  0
  141.5950   78.6350  221.5650 C   0  0  0  0  0  0  0  0  0  0  0  0
  141.2730   79.9860  221.6040 C   0  0  0  0  0  0  0  0  0  0  0  0
  141.2140   80.4080  222.8860 N   0  0  0  0  0  0  0  0  0  0  0  0
  141.4900   79.3610  223.6570 C   0  0  0  0  0  0  0  0  0  0  0  0
  141.7180   78.2990  222.8840 N   0  0  0  0  0  0  0  0  0  0  0  0
  139.5220   71.5240  222.9980 C   0  0  0  0  0  0  0  0  0  0  0  0
  139.0640   70.2290  222.8630 C   0  0  0  0  0  0  0  0  0  0  0  0
  139.1860   69.3100  223.8960 C   0  0  0  0  0  0  0  0  0  0  0  0
  139.7950   69.7670  225.0690 C   0  0  0  0  0  0  0  0  0  0  0  0
  139.9420   68.8910  226.1320 C   0  0  0  0  0  0  0  0  0  0  0  0
  140.5450   69.3670  227.2780 C   0  0  0  0  0  0  0  0  0  0  0  0
  140.7560   68.2950  228.6560 Cl  0  0  0  0  0  0  0  0  0  0  0  0
  140.9980   70.6610  227.4040 C   0  0  0  0  0  0  0  0  0  0  0  0
  140.8540   71.5410  226.3460 C   0  0  0  0  0  0  0  0  0  0  0  0
  140.2490   71.0640  225.1960 C   0  0  0  0  0  0  0  0  0  0  0  0
  140.1030   71.9060  224.1630 N   0  0  0  0  0  0  0  0  0  0  0  0
  139.6020   74.1570  223.1220 H   0  0  0  0  0  0  0  0  0  0  0  0
  139.4389   74.3286  220.0698 H   0  0  0  0  0  0  0  0  0  0  0  0
  138.2906   75.2710  221.0558 H   0  0  0  0  0  0  0  0  0  0  0  0
  140.5814   76.3235  218.1813 H   0  0  0  0  0  0  0  0  0  0  0  0
  139.0389   76.1872  219.0793 H   0  0  0  0  0  0  0  0  0  0  0  0
  139.0221   78.1816  217.6690 H   0  0  0  0  0  0  0  0  0  0  0  0
  139.0458   78.6512  219.4026 H   0  0  0  0  0  0  0  0  0  0  0  0
  141.1252   78.8936  217.2944 H   0  0  0  0  0  0  0  0  0  0  0  0
  140.6729   79.9745  218.7195 H   0  0  0  0  0  0  0  0  0  0  0  0
  142.6532   77.8254  218.4825 H   0  0  0  0  0  0  0  0  0  0  0  0
  142.6078   79.4036  219.4310 H   0  0  0  0  0  0  0  0  0  0  0  0
  142.6639   77.1685  220.6468 H   0  0  0  0  0  0  0  0  0  0  0  0
  141.0928   80.6181  220.7220 H   0  0  0  0  0  0  0  0  0  0  0  0
  141.5247   79.3695  224.7564 H   0  0  0  0  0  0  0  0  0  0  0  0
  141.9630   77.3140  223.1670 H   0  0  0  0  0  0  0  0  0  0  0  0
  138.5931   69.9192  221.9184 H   0  0  0  0  0  0  0  0  0  0  0  0
  138.8227   68.2764  223.7972 H   0  0  0  0  0  0  0  0  0  0  0  0
  139.5899   67.8511  226.0647 H   0  0  0  0  0  0  0  0  0  0  0  0
  141.4714   70.9931  228.3398 H   0  0  0  0  0  0  0  0  0  0  0  0
  141.2070   72.5805  226.4161 H   0  0  0  0  0  0  0  0  0  0  0  0
  1  2  2  0
  2  3  1  0
  3  4  1  0
  4  5  1  0
  5  6  2  0
  5  7  1  0
  7  8  1  0
  8  9  1  0
  9 10  1  0
 10 11  1  0
 11 12  1  0
 12 13  1  0
 13 14  2  0
 14 15  1  0
 15 16  2  0
 16 17  1  0
  2 18  1  0
 18 19  2  0
 19 20  1  0
 20 21  2  0
 21 22  1  0
 22 23  2  0
 23 24  1  0
 23 25  1  0
 25 26  2  0
 26 27  1  0
 27 28  2  0
 12  7  1  0
 17 13  1  0
 28 18  1  0
 27 21  1  0
  3 29  1  0
  4 30  1  0
  4 31  1  0
  8 32  1  0
  8 33  1  0
  9 34  1  0
  9 35  1  0
 10 36  1  0
 10 37  1  0
 11 38  1  0
 11 39  1  0
 12 40  1  1
 14 41  1  0
 16 42  1  0
 17 43  1  0
 19 44  1  0
 20 45  1  0
 22 46  1  0
 25 47  1  0
 26 48  1  0
M  END
>  <smiles>  (29) 
O=C(NCC(=O)N1CCCC[C@H]1c1cnc[nH]1)c1ccc2cc(Cl)ccc2n1

>  <score_type>  (29) 
oracle

>  <origin>  (29) 
autodockgpu

>  <m_score__min__energy>  (29) 
-8.0800000000000001

>  <m_primary>  (29) 
energy

>  <rmsd>  (29) 
1.6328051932429948

>  <m_score__min__rmsd>  (29) 
1.6328051932429948

>  <meeko>  (29) 
{"free_energy": -7.77, "intermolecular_energy": -9.26, "internal_energy": -2.27, "cluster_size": 17, "cluster_id": 1, "rank_in_cluster": 9}

>  <energy>  (29) 
-7.58

>  <cluster_rmsd>  (29) 
0.81

>  <cluster>  (29) 
3

$$$$

     RDKit          3D

 48 51  0  0  0  0  0  0  0  0999 V2000
  140.5930   72.7960  220.9290 O   0  0  0  0  0  0  0  0  0  0  0  0
  140.1260   73.0360  222.0590 C   0  0  0  0  0  0  0  0  0  0  0  0
  139.6060   74.3310  222.3360 N   0  0  0  0  0  0  0  0  0  0  0  0
  139.6010   75.3860  221.3390 C   0  0  0  0  0  0  0  0  0  0  0  0
  139.4390   76.6760  222.0500 C   0  0  0  0  0  0  0  0  0  0  0  0
  138.3840   76.9110  222.7010 O   0  0  0  0  0  0  0  0  0  0  0  0
  140.4290   77.6950  222.0440 N   0  0  0  0  0  0  0  0  0  0  0  0
  141.3910   77.7210  220.9590 C   0  0  0  0  0  0  0  0  0  0  0  0
  141.5210   79.1250  220.4700 C   0  0  0  0  0  0  0  0  0  0  0  0
  142.0560   79.9860  221.5660 C   0  0  0  0  0  0  0  0  0  0  0  0
  141.7360   79.5440  222.9500 C   0  0  0  0  0  0  0  0  0  0  0  0
  140.5040   78.7020  223.0870 C   0  0  1  0  0  0  0  0  0  0  0  0
  139.2730   79.4830  223.2550 C   0  0  0  0  0  0  0  0  0  0  0  0
  138.9620   80.4360  224.2180 C   0  0  0  0  0  0  0  0  0  0  0  0
  137.7160   80.9140  224.0070 N   0  0  0  0  0  0  0  0  0  0  0  0
  137.2320   80.2890  222.9380 C   0  0  0  0  0  0  0  0  0  0  0  0
  138.1480   79.4350  222.4800 N   0  0  0  0  0  0  0  0  0  0  0  0
  140.1090   72.0040  223.0950 C   0  0  0  0  0  0  0  0  0  0  0  0
  139.6000   70.7560  222.8000 C   0  0  0  0  0  0  0  0  0  0  0  0
  139.5650   69.7480  223.7540 C   0  0  0  0  0  0  0  0  0  0  0  0
  140.0700   70.0670  225.0180 C   0  0  0  0  0  0  0  0  0  0  0  0
  140.0590   69.0980  226.0080 C   0  0  0  0  0  0  0  0  0  0  0  0
  140.5640   69.4390  227.2470 C   0  0  0  0  0  0  0  0  0  0  0  0
  140.5720   68.2440  228.5370 Cl  0  0  0  0  0  0  0  0  0  0  0  0
  141.0690   70.6870  227.5310 C   0  0  0  0  0  0  0  0  0  0  0  0
  141.0830   71.6590  226.5470 C   0  0  0  0  0  0  0  0  0  0  0  0
  140.5770   71.3180  225.3050 C   0  0  0  0  0  0  0  0  0  0  0  0
  140.5840   72.2510  224.3420 N   0  0  0  0  0  0  0  0  0  0  0  0
  139.2220   74.4780  223.3140 H   0  0  0  0  0  0  0  0  0  0  0  0
  140.5503   75.3810  220.7833 H   0  0  0  0  0  0  0  0  0  0  0  0
  138.7804   75.2352  220.6221 H   0  0  0  0  0  0  0  0  0  0  0  0
  142.3663   77.3628  221.3201 H   0  0  0  0  0  0  0  0  0  0  0  0
  141.0518   77.0685  220.1409 H   0  0  0  0  0  0  0  0  0  0  0  0
  142.2097   79.1524  219.6127 H   0  0  0  0  0  0  0  0  0  0  0  0
  140.5339   79.4980  220.1593 H   0  0  0  0  0  0  0  0  0  0  0  0
  143.1510   80.0179  221.4664 H   0  0  0  0  0  0  0  0  0  0  0  0
  141.5675   80.9640  221.4437 H   0  0  0  0  0  0  0  0  0  0  0  0
  142.5894   78.9605  223.3258 H   0  0  0  0  0  0  0  0  0  0  0  0
  141.5412   80.4619  223.5240 H   0  0  0  0  0  0  0  0  0  0  0  0
  140.5974   78.1551  224.0368 H   0  0  0  0  0  0  0  0  0  0  0  0
  139.6311   80.7538  225.0312 H   0  0  0  0  0  0  0  0  0  0  0  0
  136.2354   80.4505  222.5013 H   0  0  0  0  0  0  0  0  0  0  0  0
  138.0920   78.7850  221.6530 H   0  0  0  0  0  0  0  0  0  0  0  0
  139.2145   70.5558  221.7894 H   0  0  0  0  0  0  0  0  0  0  0  0
  139.1610   68.7503  223.5272 H   0  0  0  0  0  0  0  0  0  0  0  0
  139.6614   68.0910  225.8136 H   0  0  0  0  0  0  0  0  0  0  0  0
  141.4594   70.9104  228.5348 H   0  0  0  0  0  0  0  0  0  0  0  0
  141.4813   72.6652  226.7443 H   0  0  0  0  0  0  0  0  0  0  0  0
  1  2  2  0
  2  3  1  0
  3  4  1  0
  4  5  1  0
  5  6  2  0
  5  7  1  0
  7  8  1  0
  8  9  1  0
  9 10  1  0
 10 11  1  0
 11 12  1  0
 12 13  1  0
 13 14  2  0
 14 15  1  0
 15 16  2  0
 16 17  1  0
  2 18  1  0
 18 19  2  0
 19 20  1  0
 20 21  2  0
 21 22  1  0
 22 23  2  0
 23 24  1  0
 23 25  1  0
 25 26  2  0
 26 27  1  0
 27 28  2  0
 12  7  1  0
 17 13  1  0
 28 18  1  0
 27 21  1  0
  3 29  1  0
  4 30  1  0
  4 31  1  0
  8 32  1  0
  8 33  1  0
  9 34  1  0
  9 35  1  0
 10 36  1  0
 10 37  1  0
 11 38  1  0
 11 39  1  0
 12 40  1  1
 14 41  1  0
 16 42  1  0
 17 43  1  0
 19 44  1  0
 20 45  1  0
 22 46  1  0
 25 47  1  0
 26 48  1  0
M  END
>  <smiles>  (30) 
O=C(NCC(=O)N1CCCC[C@H]1c1cnc[nH]1)c1ccc2cc(Cl)ccc2n1

>  <score_type>  (30) 
oracle

>  <origin>  (30) 
autodockgpu

>  <m_score__min__energy>  (30) 
-8.0800000000000001

>  <m_primary>  (30) 
energy

>  <rmsd>  (30) 
3.285948743547066

>  <m_score__min__rmsd>  (30) 
3.285948743547066

>  <meeko>  (30) 
{"free_energy": -8.08, "intermolecular_energy": -9.57, "internal_energy": -1.88, "cluster_size": 17, "cluster_id": 1, "rank_in_cluster": 1}

>  <energy>  (30) 
-7.56

>  <cluster_rmsd>  (30) 
0.37

>  <cluster>  (30) 
3

$$$$

     RDKit          3D

 48 51  0  0  0  0  0  0  0  0999 V2000
  139.1560   71.4680  220.8870 O   0  0  0  0  0  0  0  0  0  0  0  0
  139.4660   71.9360  222.0000 C   0  0  0  0  0  0  0  0  0  0  0  0
  139.6820   73.3360  222.1300 N   0  0  0  0  0  0  0  0  0  0  0  0
  139.5510   74.2410  221.0020 C   0  0  0  0  0  0  0  0  0  0  0  0
  140.5260   75.3410  221.1930 C   0  0  0  0  0  0  0  0  0  0  0  0
  140.9380   75.6270  222.3500 O   0  0  0  0  0  0  0  0  0  0  0  0
  141.0410   76.1160  220.1190 N   0  0  0  0  0  0  0  0  0  0  0  0
  140.7580   77.5380  220.0920 C   0  0  0  0  0  0  0  0  0  0  0  0
  142.0190   78.2690  219.7690 C   0  0  0  0  0  0  0  0  0  0  0  0
  142.4850   77.8770  218.4060 C   0  0  0  0  0  0  0  0  0  0  0  0
  142.1000   76.5110  217.9580 C   0  0  0  0  0  0  0  0  0  0  0  0
  141.8350   75.5270  219.0560 C   0  0  1  0  0  0  0  0  0  0  0  0
  143.0390   74.8280  219.5240 C   0  0  0  0  0  0  0  0  0  0  0  0
  144.0140   74.1690  218.7850 C   0  0  0  0  0  0  0  0  0  0  0  0
  144.9530   73.6620  219.6120 N   0  0  0  0  0  0  0  0  0  0  0  0
  144.5980   73.9820  220.8530 C   0  0  0  0  0  0  0  0  0  0  0  0
  143.4600   74.6770  220.8150 N   0  0  0  0  0  0  0  0  0  0  0  0
  139.6090   71.0630  223.1640 C   0  0  0  0  0  0  0  0  0  0  0  0
  139.1440   69.7660  223.1000 C   0  0  0  0  0  0  0  0  0  0  0  0
  139.2590   68.9040  224.1810 C   0  0  0  0  0  0  0  0  0  0  0  0
  139.8670   69.4210  225.3300 C   0  0  0  0  0  0  0  0  0  0  0  0
  140.0070   68.6040  226.4390 C   0  0  0  0  0  0  0  0  0  0  0  0
  140.6110   69.1390  227.5590 C   0  0  0  0  0  0  0  0  0  0  0  0
  140.8120   68.1420  228.9940 Cl  0  0  0  0  0  0  0  0  0  0  0  0
  141.0700   70.4350  227.6150 C   0  0  0  0  0  0  0  0  0  0  0  0
  140.9330   71.2560  226.5100 C   0  0  0  0  0  0  0  0  0  0  0  0
  140.3280   70.7200  225.3870 C   0  0  0  0  0  0  0  0  0  0  0  0
  140.1890   71.5050  224.3090 N   0  0  0  0  0  0  0  0  0  0  0  0
  139.9430   73.6780  223.1000 H   0  0  0  0  0  0  0  0  0  0  0  0
  139.7676   73.7064  220.0653 H   0  0  0  0  0  0  0  0  0  0  0  0
  138.5271   74.6388  220.9433 H   0  0  0  0  0  0  0  0  0  0  0  0
  139.9996   77.7503  219.3241 H   0  0  0  0  0  0  0  0  0  0  0  0
  140.3753   77.8635  221.0706 H   0  0  0  0  0  0  0  0  0  0  0  0
  141.8318   79.3526  219.7952 H   0  0  0  0  0  0  0  0  0  0  0  0
  142.7916   78.0129  220.5089 H   0  0  0  0  0  0  0  0  0  0  0  0
  142.0690   78.5979  217.6868 H   0  0  0  0  0  0  0  0  0  0  0  0
  143.5839   77.8769  218.4545 H   0  0  0  0  0  0  0  0  0  0  0  0
  141.1864   76.5974  217.3515 H   0  0  0  0  0  0  0  0  0  0  0  0
  142.9640   76.1193  217.4011 H   0  0  0  0  0  0  0  0  0  0  0  0
  141.2203   74.7250  218.6214 H   0  0  0  0  0  0  0  0  0  0  0  0
  144.0199   74.0745  217.6891 H   0  0  0  0  0  0  0  0  0  0  0  0
  145.1535   73.7163  221.7645 H   0  0  0  0  0  0  0  0  0  0  0  0
  142.9050   75.0820  221.6130 H   0  0  0  0  0  0  0  0  0  0  0  0
  138.6724   69.4078  222.1730 H   0  0  0  0  0  0  0  0  0  0  0  0
  138.8913   67.8682  224.1369 H   0  0  0  0  0  0  0  0  0  0  0  0
  139.6491   67.5639  226.4279 H   0  0  0  0  0  0  0  0  0  0  0  0
  141.5428   70.8157  228.5324 H   0  0  0  0  0  0  0  0  0  0  0  0
  141.2916   72.2958  226.5236 H   0  0  0  0  0  0  0  0  0  0  0  0
  1  2  2  0
  2  3  1  0
  3  4  1  0
  4  5  1  0
  5  6  2  0
  5  7  1  0
  7  8  1  0
  8  9  1  0
  9 10  1  0
 10 11  1  0
 11 12  1  0
 12 13  1  0
 13 14  2  0
 14 15  1  0
 15 16  2  0
 16 17  1  0
  2 18  1  0
 18 19  2  0
 19 20  1  0
 20 21  2  0
 21 22  1  0
 22 23  2  0
 23 24  1  0
 23 25  1  0
 25 26  2  0
 26 27  1  0
 27 28  2  0
 12  7  1  0
 17 13  1  0
 28 18  1  0
 27 21  1  0
  3 29  1  0
  4 30  1  0
  4 31  1  0
  8 32  1  0
  8 33  1  0
  9 34  1  0
  9 35  1  0
 10 36  1  0
 10 37  1  0
 11 38  1  0
 11 39  1  0
 12 40  1  6
 14 41  1  0
 16 42  1  0
 17 43  1  0
 19 44  1  0
 20 45  1  0
 22 46  1  0
 25 47  1  0
 26 48  1  0
M  END
>  <smiles>  (31) 
O=C(NCC(=O)N1CCCC[C@H]1c1cnc[nH]1)c1ccc2cc(Cl)ccc2n1

>  <score_type>  (31) 
oracle

>  <origin>  (31) 
autodockgpu

>  <m_score__min__energy>  (31) 
-8.0800000000000001

>  <m_primary>  (31) 
energy

>  <rmsd>  (31) 
2.5517473699160047

>  <m_score__min__rmsd>  (31) 
2.5517473699160047

>  <meeko>  (31) 
{"free_energy": -7.44, "intermolecular_energy": -8.94, "internal_energy": -2.67, "cluster_size": 23, "cluster_id": 3, "rank_in_cluster": 15}

>  <energy>  (31) 
-7.52

>  <cluster_rmsd>  (31) 
0.43

>  <cluster>  (31) 
3

$$$$

     RDKit          3D

 48 51  0  0  0  0  0  0  0  0999 V2000
  139.1920   72.0440  220.7730 O   0  0  0  0  0  0  0  0  0  0  0  0
  139.3730   72.4610  221.9320 C   0  0  0  0  0  0  0  0  0  0  0  0
  139.4310   73.8640  222.1660 N   0  0  0  0  0  0  0  0  0  0  0  0
  139.2820   74.8270  221.0900 C   0  0  0  0  0  0  0  0  0  0  0  0
  140.3050   75.8820  221.2860 C   0  0  0  0  0  0  0  0  0  0  0  0
  140.9900   75.9080  222.3450 O   0  0  0  0  0  0  0  0  0  0  0  0
  140.5690   76.8950  220.3260 N   0  0  0  0  0  0  0  0  0  0  0  0
  139.7650   76.9340  219.1200 C   0  0  0  0  0  0  0  0  0  0  0  0
  139.3500   78.3460  218.8680 C   0  0  0  0  0  0  0  0  0  0  0  0
  140.5620   79.1840  218.6280 C   0  0  0  0  0  0  0  0  0  0  0  0
  141.8100   78.7210  219.2910 C   0  0  0  0  0  0  0  0  0  0  0  0
  141.6140   77.8840  220.5180 C   0  0  1  0  0  0  0  0  0  0  0  0
  141.4770   78.6700  221.7510 C   0  0  0  0  0  0  0  0  0  0  0  0
  141.1890   80.0200  221.9030 C   0  0  0  0  0  0  0  0  0  0  0  0
  141.1560   80.3380  223.2160 N   0  0  0  0  0  0  0  0  0  0  0  0
  141.4150   79.2260  223.8960 C   0  0  0  0  0  0  0  0  0  0  0  0
  141.6080   78.2240  223.0360 N   0  0  0  0  0  0  0  0  0  0  0  0
  139.5280   71.5280  223.0480 C   0  0  0  0  0  0  0  0  0  0  0  0
  139.0690   70.2340  222.9160 C   0  0  0  0  0  0  0  0  0  0  0  0
  139.1950   69.3160  223.9500 C   0  0  0  0  0  0  0  0  0  0  0  0
  139.8090   69.7740  225.1200 C   0  0  0  0  0  0  0  0  0  0  0  0
  139.9600   68.8990  226.1840 C   0  0  0  0  0  0  0  0  0  0  0  0
  140.5690   69.3760  227.3270 C   0  0  0  0  0  0  0  0  0  0  0  0
  140.7850   68.3050  228.7040 Cl  0  0  0  0  0  0  0  0  0  0  0  0
  141.0220   70.6690  227.4480 C   0  0  0  0  0  0  0  0  0  0  0  0
  140.8740   71.5490  226.3900 C   0  0  0  0  0  0  0  0  0  0  0  0
  140.2640   71.0700  225.2440 C   0  0  0  0  0  0  0  0  0  0  0  0
  140.1140   71.9110  224.2100 N   0  0  0  0  0  0  0  0  0  0  0  0
  139.5870   74.1620  223.1720 H   0  0  0  0  0  0  0  0  0  0  0  0
  139.4353   74.3318  220.1198 H   0  0  0  0  0  0  0  0  0  0  0  0
  138.2720   75.2626  221.0993 H   0  0  0  0  0  0  0  0  0  0  0  0
  140.3557   76.5641  218.2690 H   0  0  0  0  0  0  0  0  0  0  0  0
  138.8760   76.2975  219.2409 H   0  0  0  0  0  0  0  0  0  0  0  0
  138.6965   78.3842  217.9840 H   0  0  0  0  0  0  0  0  0  0  0  0
  138.8050   78.7304  219.7428 H   0  0  0  0  0  0  0  0  0  0  0  0
  140.7453   79.2097  217.5437 H   0  0  0  0  0  0  0  0  0  0  0  0
  140.3373   80.1673  219.0670 H   0  0  0  0  0  0  0  0  0  0  0  0
  142.3808   78.1265  218.5624 H   0  0  0  0  0  0  0  0  0  0  0  0
  142.3309   79.6305  219.6249 H   0  0  0  0  0  0  0  0  0  0  0  0
  142.5462   77.3204  220.6706 H   0  0  0  0  0  0  0  0  0  0  0  0
  141.0138   80.7255  221.0774 H   0  0  0  0  0  0  0  0  0  0  0  0
  141.4626   79.1445  224.9919 H   0  0  0  0  0  0  0  0  0  0  0  0
  141.8320   77.2150  223.2360 H   0  0  0  0  0  0  0  0  0  0  0  0
  138.5941   69.9234  221.9736 H   0  0  0  0  0  0  0  0  0  0  0  0
  138.8309   68.2825  223.8539 H   0  0  0  0  0  0  0  0  0  0  0  0
  139.6064   67.8594  226.1197 H   0  0  0  0  0  0  0  0  0  0  0  0
  141.4997   71.0021  228.3812 H   0  0  0  0  0  0  0  0  0  0  0  0
  141.2274   72.5885  226.4575 H   0  0  0  0  0  0  0  0  0  0  0  0
  1  2  2  0
  2  3  1  0
  3  4  1  0
  4  5  1  0
  5  6  2  0
  5  7  1  0
  7  8  1  0
  8  9  1  0
  9 10  1  0
 10 11  1  0
 11 12  1  0
 12 13  1  0
 13 14  2  0
 14 15  1  0
 15 16  2  0
 16 17  1  0
  2 18  1  0
 18 19  2  0
 19 20  1  0
 20 21  2  0
 21 22  1  0
 22 23  2  0
 23 24  1  0
 23 25  1  0
 25 26  2  0
 26 27  1  0
 27 28  2  0
 12  7  1  0
 17 13  1  0
 28 18  1  0
 27 21  1  0
  3 29  1  0
  4 30  1  0
  4 31  1  0
  8 32  1  0
  8 33  1  0
  9 34  1  0
  9 35  1  0
 10 36  1  0
 10 37  1  0
 11 38  1  0
 11 39  1  0
 12 40  1  1
 14 41  1  0
 16 42  1  0
 17 43  1  0
 19 44  1  0
 20 45  1  0
 22 46  1  0
 25 47  1  0
 26 48  1  0
M  END
>  <smiles>  (32) 
O=C(NCC(=O)N1CCCC[C@H]1c1cnc[nH]1)c1ccc2cc(Cl)ccc2n1

>  <score_type>  (32) 
oracle

>  <origin>  (32) 
autodockgpu

>  <m_score__min__energy>  (32) 
-8.0800000000000001

>  <m_primary>  (32) 
energy

>  <rmsd>  (32) 
1.7157351381410952

>  <m_score__min__rmsd>  (32) 
1.7157351381410952

>  <meeko>  (32) 
{"free_energy": -7.84, "intermolecular_energy": -9.33, "internal_energy": -2.25, "cluster_size": 17, "cluster_id": 1, "rank_in_cluster": 7}

>  <energy>  (32) 
-7.51

>  <cluster_rmsd>  (32) 
0.47

>  <cluster>  (32) 
3

$$$$

     RDKit          3D

 48 51  0  0  0  0  0  0  0  0999 V2000
  140.1420   72.0090  220.6770 O   0  0  0  0  0  0  0  0  0  0  0  0
  139.9180   72.4130  221.8340 C   0  0  0  0  0  0  0  0  0  0  0  0
  139.6000   73.7850  222.0420 N   0  0  0  0  0  0  0  0  0  0  0  0
  139.5260   74.7310  220.9430 C   0  0  0  0  0  0  0  0  0  0  0  0
  140.8070   75.4760  220.9050 C   0  0  0  0  0  0  0  0  0  0  0  0
  141.4470   75.6880  221.9710 O   0  0  0  0  0  0  0  0  0  0  0  0
  141.3750   75.9810  219.7050 N   0  0  0  0  0  0  0  0  0  0  0  0
  141.2190   77.3910  219.4040 C   0  0  0  0  0  0  0  0  0  0  0  0
  142.5360   77.9310  218.9520 C   0  0  0  0  0  0  0  0  0  0  0  0
  142.9480   77.2450  217.6910 C   0  0  0  0  0  0  0  0  0  0  0  0
  142.4370   75.8580  217.5130 C   0  0  0  0  0  0  0  0  0  0  0  0
  142.0990   75.1300  218.7780 C   0  0  1  0  0  0  0  0  0  0  0  0
  143.2420   74.4290  219.3770 C   0  0  0  0  0  0  0  0  0  0  0  0
  144.1250   73.5310  218.7910 C   0  0  0  0  0  0  0  0  0  0  0  0
  145.0350   73.1200  219.7010 N   0  0  0  0  0  0  0  0  0  0  0  0
  144.7500   73.7340  220.8460 C   0  0  0  0  0  0  0  0  0  0  0  0
  143.6850   74.5160  220.6670 N   0  0  0  0  0  0  0  0  0  0  0  0
  139.9790   71.4970  222.9720 C   0  0  0  0  0  0  0  0  0  0  0  0
  139.5280   70.2020  222.8240 C   0  0  0  0  0  0  0  0  0  0  0  0
  139.5680   69.2990  223.8770 C   0  0  0  0  0  0  0  0  0  0  0  0
  140.0870   69.7740  225.0860 C   0  0  0  0  0  0  0  0  0  0  0  0
  140.1500   68.9150  226.1710 C   0  0  0  0  0  0  0  0  0  0  0  0
  140.6670   69.4080  227.3520 C   0  0  0  0  0  0  0  0  0  0  0  0
  140.7680   68.3570  228.7590 Cl  0  0  0  0  0  0  0  0  0  0  0  0
  141.1130   70.7020  227.4910 C   0  0  0  0  0  0  0  0  0  0  0  0
  141.0530   71.5650  226.4110 C   0  0  0  0  0  0  0  0  0  0  0  0
  140.5360   71.0710  225.2260 C   0  0  0  0  0  0  0  0  0  0  0  0
  140.4710   71.8970  224.1720 N   0  0  0  0  0  0  0  0  0  0  0  0
  139.4190   74.0730  223.0470 H   0  0  0  0  0  0  0  0  0  0  0  0
  139.3766   74.1935  219.9950 H   0  0  0  0  0  0  0  0  0  0  0  0
  138.6817   75.4218  221.0844 H   0  0  0  0  0  0  0  0  0  0  0  0
  140.4726   77.5191  218.6062 H   0  0  0  0  0  0  0  0  0  0  0  0
  140.8794   77.9309  220.3002 H   0  0  0  0  0  0  0  0  0  0  0  0
  142.4460   79.0119  218.7690 H   0  0  0  0  0  0  0  0  0  0  0  0
  143.2924   77.7531  219.7306 H   0  0  0  0  0  0  0  0  0  0  0  0
  142.5881   77.8488  216.8449 H   0  0  0  0  0  0  0  0  0  0  0  0
  144.0432   77.1563  217.7424 H   0  0  0  0  0  0  0  0  0  0  0  0
  141.5271   75.9081  216.8969 H   0  0  0  0  0  0  0  0  0  0  0  0
  143.2562   75.2909  217.0468 H   0  0  0  0  0  0  0  0  0  0  0  0
  141.4096   74.3184  218.5023 H   0  0  0  0  0  0  0  0  0  0  0  0
  144.0887   73.2031  217.7416 H   0  0  0  0  0  0  0  0  0  0  0  0
  145.3039   73.6157  221.7890 H   0  0  0  0  0  0  0  0  0  0  0  0
  143.1970   75.1390  221.3620 H   0  0  0  0  0  0  0  0  0  0  0  0
  139.1285   69.8784  221.8516 H   0  0  0  0  0  0  0  0  0  0  0  0
  139.2105   68.2646  223.7668 H   0  0  0  0  0  0  0  0  0  0  0  0
  139.7998   67.8751  226.0939 H   0  0  0  0  0  0  0  0  0  0  0  0
  141.5148   71.0484  228.4546 H   0  0  0  0  0  0  0  0  0  0  0  0
  141.4031   72.6047  226.4913 H   0  0  0  0  0  0  0  0  0  0  0  0
  1  2  2  0
  2  3  1  0
  3  4  1  0
  4  5  1  0
  5  6  2  0
  5  7  1  0
  7  8  1  0
  8  9  1  0
  9 10  1  0
 10 11  1  0
 11 12  1  0
 12 13  1  0
 13 14  2  0
 14 15  1  0
 15 16  2  0
 16 17  1  0
  2 18  1  0
 18 19  2  0
 19 20  1  0
 20 21  2  0
 21 22  1  0
 22 23  2  0
 23 24  1  0
 23 25  1  0
 25 26  2  0
 26 27  1  0
 27 28  2  0
 12  7  1  0
 17 13  1  0
 28 18  1  0
 27 21  1  0
  3 29  1  0
  4 30  1  0
  4 31  1  0
  8 32  1  0
  8 33  1  0
  9 34  1  0
  9 35  1  0
 10 36  1  0
 10 37  1  0
 11 38  1  0
 11 39  1  0
 12 40  1  6
 14 41  1  0
 16 42  1  0
 17 43  1  0
 19 44  1  0
 20 45  1  0
 22 46  1  0
 25 47  1  0
 26 48  1  0
M  END
>  <smiles>  (33) 
O=C(NCC(=O)N1CCCC[C@H]1c1cnc[nH]1)c1ccc2cc(Cl)ccc2n1

>  <score_type>  (33) 
oracle

>  <origin>  (33) 
autodockgpu

>  <m_score__min__energy>  (33) 
-8.0800000000000001

>  <m_primary>  (33) 
energy

>  <rmsd>  (33) 
2.693018097063939

>  <m_score__min__rmsd>  (33) 
2.693018097063939

>  <meeko>  (33) 
{"free_energy": -7.71, "intermolecular_energy": -9.2, "internal_energy": -2.35, "cluster_size": 23, "cluster_id": 3, "rank_in_cluster": 2}

>  <energy>  (33) 
-7.48

>  <cluster_rmsd>  (33) 
0.67

>  <cluster>  (33) 
3

$$$$

     RDKit          3D

 48 51  0  0  0  0  0  0  0  0999 V2000
  140.7770   72.4740  220.7770 O   0  0  0  0  0  0  0  0  0  0  0  0
  140.3070   72.8320  221.8740 C   0  0  0  0  0  0  0  0  0  0  0  0
  139.8690   74.1760  222.0380 N   0  0  0  0  0  0  0  0  0  0  0  0
  139.9490   75.1460  220.9620 C   0  0  0  0  0  0  0  0  0  0  0  0
  139.6110   76.4740  221.5270 C   0  0  0  0  0  0  0  0  0  0  0  0
  139.2080   76.5690  222.7190 O   0  0  0  0  0  0  0  0  0  0  0  0
  139.7150   77.6820  220.7870 N   0  0  0  0  0  0  0  0  0  0  0  0
  138.5440   78.1670  220.0830 C   0  0  0  0  0  0  0  0  0  0  0  0
  138.4050   79.6310  220.3400 C   0  0  0  0  0  0  0  0  0  0  0  0
  139.5920   80.3480  219.7870 C   0  0  0  0  0  0  0  0  0  0  0  0
  140.8550   79.5630  219.7330 C   0  0  0  0  0  0  0  0  0  0  0  0
  140.9540   78.4360  220.7150 C   0  0  1  0  0  0  0  0  0  0  0  0
  141.4850   78.8410  222.0230 C   0  0  0  0  0  0  0  0  0  0  0  0
  142.5020   79.7400  222.3170 C   0  0  0  0  0  0  0  0  0  0  0  0
  142.6750   79.8200  223.6540 N   0  0  0  0  0  0  0  0  0  0  0  0
  141.7940   78.9940  224.2130 C   0  0  0  0  0  0  0  0  0  0  0  0
  141.0790   78.4060  223.2540 N   0  0  0  0  0  0  0  0  0  0  0  0
  140.2060   71.8890  222.9880 C   0  0  0  0  0  0  0  0  0  0  0  0
  139.5930   70.6690  222.7880 C   0  0  0  0  0  0  0  0  0  0  0  0
  139.4750   69.7450  223.8170 C   0  0  0  0  0  0  0  0  0  0  0  0
  140.0070   70.1180  225.0550 C   0  0  0  0  0  0  0  0  0  0  0  0
  139.9160   69.2330  226.1170 C   0  0  0  0  0  0  0  0  0  0  0  0
  140.4500   69.6260  227.3280 C   0  0  0  0  0  0  0  0  0  0  0  0
  140.3600   68.5380  228.7070 Cl  0  0  0  0  0  0  0  0  0  0  0  0
  141.0580   70.8450  227.5170 C   0  0  0  0  0  0  0  0  0  0  0  0
  141.1530   71.7340  226.4610 C   0  0  0  0  0  0  0  0  0  0  0  0
  140.6180   71.3400  225.2470 C   0  0  0  0  0  0  0  0  0  0  0  0
  140.7020   72.1920  224.2140 N   0  0  0  0  0  0  0  0  0  0  0  0
  139.4780   74.4240  222.9930 H   0  0  0  0  0  0  0  0  0  0  0  0
  140.9680   75.1632  220.5480 H   0  0  0  0  0  0  0  0  0  0  0  0
  139.2519   74.8826  220.1529 H   0  0  0  0  0  0  0  0  0  0  0  0
  138.6609   77.9899  219.0037 H   0  0  0  0  0  0  0  0  0  0  0  0
  137.6472   77.6370  220.4364 H   0  0  0  0  0  0  0  0  0  0  0  0
  137.4918   80.0037  219.8531 H   0  0  0  0  0  0  0  0  0  0  0  0
  138.3412   79.8087  221.4237 H   0  0  0  0  0  0  0  0  0  0  0  0
  139.3476   80.6653  218.7625 H   0  0  0  0  0  0  0  0  0  0  0  0
  139.7870   81.1809  220.4785 H   0  0  0  0  0  0  0  0  0  0  0  0
  140.9492   79.1410  218.7216 H   0  0  0  0  0  0  0  0  0  0  0  0
  141.6597   80.2654  219.9959 H   0  0  0  0  0  0  0  0  0  0  0  0
  141.7143   77.7423  220.3268 H   0  0  0  0  0  0  0  0  0  0  0  0
  143.0812   80.3038  221.5709 H   0  0  0  0  0  0  0  0  0  0  0  0
  141.6749   78.8238  225.2932 H   0  0  0  0  0  0  0  0  0  0  0  0
  140.3020   77.7000  223.3450 H   0  0  0  0  0  0  0  0  0  0  0  0
  139.1902   70.4241  221.7941 H   0  0  0  0  0  0  0  0  0  0  0  0
  138.9883   68.7701  223.6663 H   0  0  0  0  0  0  0  0  0  0  0  0
  139.4348   68.2509  225.9994 H   0  0  0  0  0  0  0  0  0  0  0  0
  141.4667   71.1119  228.5027 H   0  0  0  0  0  0  0  0  0  0  0  0
  141.6349   72.7154  226.5817 H   0  0  0  0  0  0  0  0  0  0  0  0
  1  2  2  0
  2  3  1  0
  3  4  1  0
  4  5  1  0
  5  6  2  0
  5  7  1  0
  7  8  1  0
  8  9  1  0
  9 10  1  0
 10 11  1  0
 11 12  1  0
 12 13  1  0
 13 14  2  0
 14 15  1  0
 15 16  2  0
 16 17  1  0
  2 18  1  0
 18 19  2  0
 19 20  1  0
 20 21  2  0
 21 22  1  0
 22 23  2  0
 23 24  1  0
 23 25  1  0
 25 26  2  0
 26 27  1  0
 27 28  2  0
 12  7  1  0
 17 13  1  0
 28 18  1  0
 27 21  1  0
  3 29  1  0
  4 30  1  0
  4 31  1  0
  8 32  1  0
  8 33  1  0
  9 34  1  0
  9 35  1  0
 10 36  1  0
 10 37  1  0
 11 38  1  0
 11 39  1  0
 12 40  1  6
 14 41  1  0
 16 42  1  0
 17 43  1  0
 19 44  1  0
 20 45  1  0
 22 46  1  0
 25 47  1  0
 26 48  1  0
M  END
>  <smiles>  (34) 
O=C(NCC(=O)N1CCCC[C@H]1c1cnc[nH]1)c1ccc2cc(Cl)ccc2n1

>  <score_type>  (34) 
oracle

>  <origin>  (34) 
autodockgpu

>  <m_score__min__energy>  (34) 
-8.0800000000000001

>  <m_primary>  (34) 
energy

>  <rmsd>  (34) 
2.532970307346149

>  <m_score__min__rmsd>  (34) 
2.532970307346149

>  <meeko>  (34) 
{"free_energy": -7.42, "intermolecular_energy": -8.91, "internal_energy": -2.48, "cluster_size": 17, "cluster_id": 1, "rank_in_cluster": 16}

>  <energy>  (34) 
-7.46

>  <cluster_rmsd>  (34) 
0.53

>  <cluster>  (34) 
3

$$$$

     RDKit          3D

 48 51  0  0  0  0  0  0  0  0999 V2000
  140.3890   72.2880  220.8230 O   0  0  0  0  0  0  0  0  0  0  0  0
  139.9030   72.5730  221.9340 C   0  0  0  0  0  0  0  0  0  0  0  0
  139.2820   73.8400  222.1180 N   0  0  0  0  0  0  0  0  0  0  0  0
  139.1960   74.8150  221.0460 C   0  0  0  0  0  0  0  0  0  0  0  0
  140.4590   75.5910  221.0410 C   0  0  0  0  0  0  0  0  0  0  0  0
  141.0770   75.7990  222.1210 O   0  0  0  0  0  0  0  0  0  0  0  0
  141.0340   76.1310  219.8590 N   0  0  0  0  0  0  0  0  0  0  0  0
  140.9250   77.5570  219.6240 C   0  0  0  0  0  0  0  0  0  0  0  0
  142.2560   78.0710  219.1820 C   0  0  0  0  0  0  0  0  0  0  0  0
  142.6320   77.4290  217.8880 C   0  0  0  0  0  0  0  0  0  0  0  0
  142.0710   76.0710  217.6530 C   0  0  0  0  0  0  0  0  0  0  0  0
  141.7190   75.2980  218.8870 C   0  0  1  0  0  0  0  0  0  0  0  0
  142.8420   74.5310  219.4410 C   0  0  0  0  0  0  0  0  0  0  0  0
  143.6280   73.5610  218.8310 C   0  0  0  0  0  0  0  0  0  0  0  0
  144.5560   73.1070  219.7020 N   0  0  0  0  0  0  0  0  0  0  0  0
  144.3770   73.7630  220.8440 C   0  0  0  0  0  0  0  0  0  0  0  0
  143.3600   74.6140  220.7030 N   0  0  0  0  0  0  0  0  0  0  0  0
  139.9650   71.6220  223.0430 C   0  0  0  0  0  0  0  0  0  0  0  0
  139.5260   70.3280  222.8510 C   0  0  0  0  0  0  0  0  0  0  0  0
  139.5670   69.3940  223.8770 C   0  0  0  0  0  0  0  0  0  0  0  0
  140.0740   69.8350  225.1030 C   0  0  0  0  0  0  0  0  0  0  0  0
  140.1370   68.9430  226.1620 C   0  0  0  0  0  0  0  0  0  0  0  0
  140.6410   69.4040  227.3610 C   0  0  0  0  0  0  0  0  0  0  0  0
  140.7420   68.3100  228.7340 Cl  0  0  0  0  0  0  0  0  0  0  0  0
  141.0750   70.6970  227.5430 C   0  0  0  0  0  0  0  0  0  0  0  0
  141.0150   71.5920  226.4900 C   0  0  0  0  0  0  0  0  0  0  0  0
  140.5100   71.1310  225.2870 C   0  0  0  0  0  0  0  0  0  0  0  0
  140.4450   71.9880  224.2580 N   0  0  0  0  0  0  0  0  0  0  0  0
  138.8860   74.0280  223.0840 H   0  0  0  0  0  0  0  0  0  0  0  0
  139.0679   74.3014  220.0817 H   0  0  0  0  0  0  0  0  0  0  0  0
  138.3346   75.4816  221.1994 H   0  0  0  0  0  0  0  0  0  0  0  0
  140.1759   77.7473  218.8413 H   0  0  0  0  0  0  0  0  0  0  0  0
  140.6134   78.0670  220.5475 H   0  0  0  0  0  0  0  0  0  0  0  0
  142.2021   79.1615  219.0484 H   0  0  0  0  0  0  0  0  0  0  0  0
  143.0129   77.8322  219.9436 H   0  0  0  0  0  0  0  0  0  0  0  0
  142.2864   78.0827  217.0737 H   0  0  0  0  0  0  0  0  0  0  0  0
  143.7238   77.2996  217.9242 H   0  0  0  0  0  0  0  0  0  0  0  0
  141.1579   76.1810  217.0496 H   0  0  0  0  0  0  0  0  0  0  0  0
  142.8655   75.4976  217.1529 H   0  0  0  0  0  0  0  0  0  0  0  0
  140.9989   74.5241  218.5828 H   0  0  0  0  0  0  0  0  0  0  0  0
  143.5121   73.2143  217.7935 H   0  0  0  0  0  0  0  0  0  0  0  0
  144.9723   73.6259  221.7588 H   0  0  0  0  0  0  0  0  0  0  0  0
  142.9550   75.2840  221.4080 H   0  0  0  0  0  0  0  0  0  0  0  0
  139.1362   70.0310  221.8662 H   0  0  0  0  0  0  0  0  0  0  0  0
  139.2187   68.3606  223.7330 H   0  0  0  0  0  0  0  0  0  0  0  0
  139.7968   67.9029  226.0505 H   0  0  0  0  0  0  0  0  0  0  0  0
  141.4672   71.0169  228.5197 H   0  0  0  0  0  0  0  0  0  0  0  0
  141.3560   72.6315  226.6047 H   0  0  0  0  0  0  0  0  0  0  0  0
  1  2  2  0
  2  3  1  0
  3  4  1  0
  4  5  1  0
  5  6  2  0
  5  7  1  0
  7  8  1  0
  8  9  1  0
  9 10  1  0
 10 11  1  0
 11 12  1  0
 12 13  1  0
 13 14  2  0
 14 15  1  0
 15 16  2  0
 16 17  1  0
  2 18  1  0
 18 19  2  0
 19 20  1  0
 20 21  2  0
 21 22  1  0
 22 23  2  0
 23 24  1  0
 23 25  1  0
 25 26  2  0
 26 27  1  0
 27 28  2  0
 12  7  1  0
 17 13  1  0
 28 18  1  0
 27 21  1  0
  3 29  1  0
  4 30  1  0
  4 31  1  0
  8 32  1  0
  8 33  1  0
  9 34  1  0
  9 35  1  0
 10 36  1  0
 10 37  1  0
 11 38  1  0
 11 39  1  0
 12 40  1  6
 14 41  1  0
 16 42  1  0
 17 43  1  0
 19 44  1  0
 20 45  1  0
 22 46  1  0
 25 47  1  0
 26 48  1  0
M  END
>  <smiles>  (35) 
O=C(NCC(=O)N1CCCC[C@H]1c1cnc[nH]1)c1ccc2cc(Cl)ccc2n1

>  <score_type>  (35) 
oracle

>  <origin>  (35) 
autodockgpu

>  <m_score__min__energy>  (35) 
-8.0800000000000001

>  <m_primary>  (35) 
energy

>  <rmsd>  (35) 
2.6082451520004737

>  <m_score__min__rmsd>  (35) 
2.6082451520004737

>  <meeko>  (35) 
{"free_energy": -7.69, "intermolecular_energy": -9.18, "internal_energy": -2.38, "cluster_size": 23, "cluster_id": 3, "rank_in_cluster": 4}

>  <energy>  (35) 
-7.46

>  <cluster_rmsd>  (35) 
0.61

>  <cluster>  (35) 
3

$$$$

     RDKit          3D

 48 51  0  0  0  0  0  0  0  0999 V2000
  139.5960   73.9830  222.2650 O   0  0  0  0  0  0  0  0  0  0  0  0
  140.7070   74.2660  221.7770 C   0  0  0  0  0  0  0  0  0  0  0  0
  141.1500   75.6180  221.7910 N   0  0  0  0  0  0  0  0  0  0  0  0
  140.3450   76.6830  222.3600 C   0  0  0  0  0  0  0  0  0  0  0  0
  140.6920   77.9370  221.6500 C   0  0  0  0  0  0  0  0  0  0  0  0
  141.6850   77.9700  220.8730 O   0  0  0  0  0  0  0  0  0  0  0  0
  139.9510   79.1410  221.7950 N   0  0  0  0  0  0  0  0  0  0  0  0
  138.5330   79.0530  222.0830 C   0  0  0  0  0  0  0  0  0  0  0  0
  138.2060   80.0190  223.1730 C   0  0  0  0  0  0  0  0  0  0  0  0
  138.4840   81.4090  222.7060 C   0  0  0  0  0  0  0  0  0  0  0  0
  139.5510   81.5440  221.6780 C   0  0  0  0  0  0  0  0  0  0  0  0
  140.5710   80.4470  221.6620 C   0  0  1  0  0  0  0  0  0  0  0  0
  141.6930   80.6740  222.5820 C   0  0  0  0  0  0  0  0  0  0  0  0
  141.7920   81.5660  223.6430 C   0  0  0  0  0  0  0  0  0  0  0  0
  143.0030   81.4500  224.2300 N   0  0  0  0  0  0  0  0  0  0  0  0
  143.6720   80.5100  223.5690 C   0  0  0  0  0  0  0  0  0  0  0  0
  142.9040   80.0390  222.5860 N   0  0  0  0  0  0  0  0  0  0  0  0
  141.5530   73.2260  221.1930 C   0  0  0  0  0  0  0  0  0  0  0  0
  141.0160   71.9820  220.9320 C   0  0  0  0  0  0  0  0  0  0  0  0
  141.7830   70.9660  220.3790 C   0  0  0  0  0  0  0  0  0  0  0  0
  143.1190   71.2730  220.1030 C   0  0  0  0  0  0  0  0  0  0  0  0
  143.9310   70.2960  219.5500 C   0  0  0  0  0  0  0  0  0  0  0  0
  145.2450   70.6250  219.2870 C   0  0  0  0  0  0  0  0  0  0  0  0
  146.3150   69.4190  218.5860 Cl  0  0  0  0  0  0  0  0  0  0  0  0
  145.7720   71.8680  219.5520 C   0  0  0  0  0  0  0  0  0  0  0  0
  144.9670   72.8490  220.1040 C   0  0  0  0  0  0  0  0  0  0  0  0
  143.6490   72.5190  220.3670 C   0  0  0  0  0  0  0  0  0  0  0  0
  142.8580   73.4600  220.9020 N   0  0  0  0  0  0  0  0  0  0  0  0
  142.1030   75.7990  221.3610 H   0  0  0  0  0  0  0  0  0  0  0  0
  139.2767   76.4587  222.2244 H   0  0  0  0  0  0  0  0  0  0  0  0
  140.5426   76.7824  223.4375 H   0  0  0  0  0  0  0  0  0  0  0  0
  137.9557   79.3034  221.1808 H   0  0  0  0  0  0  0  0  0  0  0  0
  138.2770   78.0308  222.3984 H   0  0  0  0  0  0  0  0  0  0  0  0
  137.1423   79.9270  223.4376 H   0  0  0  0  0  0  0  0  0  0  0  0
  138.8239   79.7984  224.0559 H   0  0  0  0  0  0  0  0  0  0  0  0
  137.5537   81.8155  222.2826 H   0  0  0  0  0  0  0  0  0  0  0  0
  138.8484   81.9543  223.5891 H   0  0  0  0  0  0  0  0  0  0  0  0
  139.0684   81.5730  220.6899 H   0  0  0  0  0  0  0  0  0  0  0  0
  140.0994   82.4638  221.9296 H   0  0  0  0  0  0  0  0  0  0  0  0
  141.0405   80.4643  220.6674 H   0  0  0  0  0  0  0  0  0  0  0  0
  141.0015   82.2631  223.9581 H   0  0  0  0  0  0  0  0  0  0  0  0
  144.6947   80.1748  223.7966 H   0  0  0  0  0  0  0  0  0  0  0  0
  143.1220   79.2920  221.8750 H   0  0  0  0  0  0  0  0  0  0  0  0
  139.9584   71.7916  221.1670 H   0  0  0  0  0  0  0  0  0  0  0  0
  141.3621   69.9717  220.1689 H   0  0  0  0  0  0  0  0  0  0  0  0
  143.5412   69.2916  219.3280 H   0  0  0  0  0  0  0  0  0  0  0  0
  146.8274   72.0808  219.3264 H   0  0  0  0  0  0  0  0  0  0  0  0
  145.3596   73.8524  220.3252 H   0  0  0  0  0  0  0  0  0  0  0  0
  1  2  2  0
  2  3  1  0
  3  4  1  0
  4  5  1  0
  5  6  2  0
  5  7  1  0
  7  8  1  0
  8  9  1  0
  9 10  1  0
 10 11  1  0
 11 12  1  0
 12 13  1  0
 13 14  2  0
 14 15  1  0
 15 16  2  0
 16 17  1  0
  2 18  1  0
 18 19  2  0
 19 20  1  0
 20 21  2  0
 21 22  1  0
 22 23  2  0
 23 24  1  0
 23 25  1  0
 25 26  2  0
 26 27  1  0
 27 28  2  0
 12  7  1  0
 17 13  1  0
 28 18  1  0
 27 21  1  0
  3 29  1  0
  4 30  1  0
  4 31  1  0
  8 32  1  0
  8 33  1  0
  9 34  1  0
  9 35  1  0
 10 36  1  0
 10 37  1  0
 11 38  1  0
 11 39  1  0
 12 40  1  6
 14 41  1  0
 16 42  1  0
 17 43  1  0
 19 44  1  0
 20 45  1  0
 22 46  1  0
 25 47  1  0
 26 48  1  0
M  END
>  <smiles>  (36) 
O=C(NCC(=O)N1CCCC[C@H]1c1cnc[nH]1)c1ccc2cc(Cl)ccc2n1

>  <score_type>  (36) 
oracle

>  <origin>  (36) 
autodockgpu

>  <m_score__min__energy>  (36) 
-8.0800000000000001

>  <m_primary>  (36) 
energy

>  <rmsd>  (36) 
5.894028031345897

>  <m_score__min__rmsd>  (36) 
5.894028031345897

>  <meeko>  (36) 
{"free_energy": -6.96, "intermolecular_energy": -8.45, "internal_energy": -2.6, "cluster_size": 1, "cluster_id": 4, "rank_in_cluster": 1}

>  <energy>  (36) 
-7.44

>  <cluster_rmsd>  (36) 
0.68

>  <cluster>  (36) 
3

$$$$

     RDKit          3D

 48 51  0  0  0  0  0  0  0  0999 V2000
  138.9490   72.0360  220.7270 O   0  0  0  0  0  0  0  0  0  0  0  0
  139.5490   72.3850  221.7620 C   0  0  0  0  0  0  0  0  0  0  0  0
  140.1570   73.6700  221.8130 N   0  0  0  0  0  0  0  0  0  0  0  0
  140.0990   74.5920  220.6930 C   0  0  0  0  0  0  0  0  0  0  0  0
  140.6770   75.8810  221.1420 C   0  0  0  0  0  0  0  0  0  0  0  0
  141.0900   76.0100  222.3270 O   0  0  0  0  0  0  0  0  0  0  0  0
  140.7970   77.0140  220.2940 N   0  0  0  0  0  0  0  0  0  0  0  0
  139.9010   77.1310  219.1600 C   0  0  0  0  0  0  0  0  0  0  0  0
  139.3760   78.5280  219.1090 C   0  0  0  0  0  0  0  0  0  0  0  0
  140.5070   79.4760  218.8870 C   0  0  0  0  0  0  0  0  0  0  0  0
  141.8320   79.0340  219.4000 C   0  0  0  0  0  0  0  0  0  0  0  0
  141.7880   78.0500  220.5290 C   0  0  1  0  0  0  0  0  0  0  0  0
  141.6970   78.6770  221.8530 C   0  0  0  0  0  0  0  0  0  0  0  0
  142.5490   79.5980  222.4490 C   0  0  0  0  0  0  0  0  0  0  0  0
  142.0950   79.9160  223.6800 N   0  0  0  0  0  0  0  0  0  0  0  0
  140.9790   79.2210  223.8790 C   0  0  0  0  0  0  0  0  0  0  0  0
  140.7300   78.4790  222.7990 N   0  0  0  0  0  0  0  0  0  0  0  0
  139.6320   71.4900  222.9150 C   0  0  0  0  0  0  0  0  0  0  0  0
  139.0860   70.2260  222.8330 C   0  0  0  0  0  0  0  0  0  0  0  0
  139.1430   69.3450  223.9040 C   0  0  0  0  0  0  0  0  0  0  0  0
  139.7800   69.8080  225.0600 C   0  0  0  0  0  0  0  0  0  0  0  0
  139.8650   68.9690  226.1590 C   0  0  0  0  0  0  0  0  0  0  0  0
  140.4990   69.4500  227.2870 C   0  0  0  0  0  0  0  0  0  0  0  0
  140.6330   68.4240  228.7090 Cl  0  0  0  0  0  0  0  0  0  0  0  0
  141.0410   70.7130  227.3590 C   0  0  0  0  0  0  0  0  0  0  0  0
  140.9590   71.5550  226.2650 C   0  0  0  0  0  0  0  0  0  0  0  0
  140.3240   71.0740  225.1340 C   0  0  0  0  0  0  0  0  0  0  0  0
  140.2370   71.8800  224.0660 N   0  0  0  0  0  0  0  0  0  0  0  0
  140.6540   73.9130  222.7180 H   0  0  0  0  0  0  0  0  0  0  0  0
  140.6813   74.1938  219.8490 H   0  0  0  0  0  0  0  0  0  0  0  0
  139.0597   74.7302  220.3603 H   0  0  0  0  0  0  0  0  0  0  0  0
  140.4469   76.9062  218.2318 H   0  0  0  0  0  0  0  0  0  0  0  0
  139.0679   76.4203  219.2647 H   0  0  0  0  0  0  0  0  0  0  0  0
  138.6541   78.6186  218.2840 H   0  0  0  0  0  0  0  0  0  0  0  0
  138.8776   78.7676  220.0599 H   0  0  0  0  0  0  0  0  0  0  0  0
  140.6022   79.6402  217.8035 H   0  0  0  0  0  0  0  0  0  0  0  0
  140.2533   80.3826  219.4560 H   0  0  0  0  0  0  0  0  0  0  0  0
  142.3811   78.5706  218.5671 H   0  0  0  0  0  0  0  0  0  0  0  0
  142.3175   79.9354  219.8021 H   0  0  0  0  0  0  0  0  0  0  0  0
  142.7643   77.5435  220.5471 H   0  0  0  0  0  0  0  0  0  0  0  0
  143.4590   80.0077  221.9864 H   0  0  0  0  0  0  0  0  0  0  0  0
  140.3606   79.2529  224.7881 H   0  0  0  0  0  0  0  0  0  0  0  0
  139.9320   77.8150  222.6220 H   0  0  0  0  0  0  0  0  0  0  0  0
  138.5957   69.9099  221.9004 H   0  0  0  0  0  0  0  0  0  0  0  0
  138.7099   68.3355  223.8467 H   0  0  0  0  0  0  0  0  0  0  0  0
  139.4417   67.9540  226.1337 H   0  0  0  0  0  0  0  0  0  0  0  0
  141.5365   71.0507  228.2812 H   0  0  0  0  0  0  0  0  0  0  0  0
  141.3830   72.5696  226.2931 H   0  0  0  0  0  0  0  0  0  0  0  0
  1  2  2  0
  2  3  1  0
  3  4  1  0
  4  5  1  0
  5  6  2  0
  5  7  1  0
  7  8  1  0
  8  9  1  0
  9 10  1  0
 10 11  1  0
 11 12  1  0
 12 13  1  0
 13 14  2  0
 14 15  1  0
 15 16  2  0
 16 17  1  0
  2 18  1  0
 18 19  2  0
 19 20  1  0
 20 21  2  0
 21 22  1  0
 22 23  2  0
 23 24  1  0
 23 25  1  0
 25 26  2  0
 26 27  1  0
 27 28  2  0
 12  7  1  0
 17 13  1  0
 28 18  1  0
 27 21  1  0
  3 29  1  0
  4 30  1  0
  4 31  1  0
  8 32  1  0
  8 33  1  0
  9 34  1  0
  9 35  1  0
 10 36  1  0
 10 37  1  0
 11 38  1  0
 11 39  1  0
 12 40  1  1
 14 41  1  0
 16 42  1  0
 17 43  1  0
 19 44  1  0
 20 45  1  0
 22 46  1  0
 25 47  1  0
 26 48  1  0
M  END
>  <smiles>  (37) 
O=C(NCC(=O)N1CCCC[C@H]1c1cnc[nH]1)c1ccc2cc(Cl)ccc2n1

>  <score_type>  (37) 
oracle

>  <origin>  (37) 
autodockgpu

>  <m_score__min__energy>  (37) 
-8.0800000000000001

>  <m_primary>  (37) 
energy

>  <rmsd>  (37) 
1.9319815039207566

>  <m_score__min__rmsd>  (37) 
1.9319815039207566

>  <meeko>  (37) 
{"free_energy": -7.07, "intermolecular_energy": -8.56, "internal_energy": -2.53, "cluster_size": 17, "cluster_id": 1, "rank_in_cluster": 17}

>  <energy>  (37) 
-7.38

>  <cluster_rmsd>  (37) 
0.56

>  <cluster>  (37) 
3

$$$$

     RDKit          3D

 48 51  0  0  0  0  0  0  0  0999 V2000
  140.2540   72.7560  220.8160 O   0  0  0  0  0  0  0  0  0  0  0  0
  139.9620   73.0230  221.9980 C   0  0  0  0  0  0  0  0  0  0  0  0
  139.5770   74.3500  222.3370 N   0  0  0  0  0  0  0  0  0  0  0  0
  139.5130   75.4080  221.3440 C   0  0  0  0  0  0  0  0  0  0  0  0
  139.3670   76.6940  222.0670 C   0  0  0  0  0  0  0  0  0  0  0  0
  138.3030   76.9490  222.6950 O   0  0  0  0  0  0  0  0  0  0  0  0
  140.3820   77.6880  222.0960 N   0  0  0  0  0  0  0  0  0  0  0  0
  141.3800   77.6900  221.0440 C   0  0  0  0  0  0  0  0  0  0  0  0
  141.5630   79.0910  220.5620 C   0  0  0  0  0  0  0  0  0  0  0  0
  142.0820   79.9370  221.6780 C   0  0  0  0  0  0  0  0  0  0  0  0
  141.7030   79.5020  223.0490 C   0  0  0  0  0  0  0  0  0  0  0  0
  140.4470   78.6910  223.1430 C   0  0  1  0  0  0  0  0  0  0  0  0
  139.2300   79.5040  223.2700 C   0  0  0  0  0  0  0  0  0  0  0  0
  138.9140   80.4680  224.2190 C   0  0  0  0  0  0  0  0  0  0  0  0
  137.6880   80.9760  223.9690 N   0  0  0  0  0  0  0  0  0  0  0  0
  137.2210   80.3590  222.8870 C   0  0  0  0  0  0  0  0  0  0  0  0
  138.1290   79.4800  222.4610 N   0  0  0  0  0  0  0  0  0  0  0  0
  140.0110   71.9900  223.0320 C   0  0  0  0  0  0  0  0  0  0  0  0
  139.5710   70.7160  222.7380 C   0  0  0  0  0  0  0  0  0  0  0  0
  139.6000   69.7060  223.6890 C   0  0  0  0  0  0  0  0  0  0  0  0
  140.0960   70.0500  224.9500 C   0  0  0  0  0  0  0  0  0  0  0  0
  140.1460   69.0800  225.9380 C   0  0  0  0  0  0  0  0  0  0  0  0
  140.6400   69.4470  227.1740 C   0  0  0  0  0  0  0  0  0  0  0  0
  140.7250   68.2510  228.4610 Cl  0  0  0  0  0  0  0  0  0  0  0  0
  141.0740   70.7210  227.4580 C   0  0  0  0  0  0  0  0  0  0  0  0
  141.0260   71.6940  226.4760 C   0  0  0  0  0  0  0  0  0  0  0  0
  140.5320   71.3280  225.2370 C   0  0  0  0  0  0  0  0  0  0  0  0
  140.4800   72.2610  224.2760 N   0  0  0  0  0  0  0  0  0  0  0  0
  139.3390   74.5200  223.3570 H   0  0  0  0  0  0  0  0  0  0  0  0
  140.4359   75.4169  220.7456 H   0  0  0  0  0  0  0  0  0  0  0  0
  138.6629   75.2486  220.6643 H   0  0  0  0  0  0  0  0  0  0  0  0
  142.3330   77.3061  221.4369 H   0  0  0  0  0  0  0  0  0  0  0  0
  141.0514   77.0475  220.2138 H   0  0  0  0  0  0  0  0  0  0  0  0
  142.2815   79.1014  219.7291 H   0  0  0  0  0  0  0  0  0  0  0  0
  140.5973   79.4897  220.2178 H   0  0  0  0  0  0  0  0  0  0  0  0
  143.1803   79.9407  221.6164 H   0  0  0  0  0  0  0  0  0  0  0  0
  141.6234   80.9274  221.5409 H   0  0  0  0  0  0  0  0  0  0  0  0
  142.5282   78.8972  223.4531 H   0  0  0  0  0  0  0  0  0  0  0  0
  141.5107   80.4244  223.6167 H   0  0  0  0  0  0  0  0  0  0  0  0
  140.4944   78.1406  224.0942 H   0  0  0  0  0  0  0  0  0  0  0  0
  139.5660   80.7725  225.0510 H   0  0  0  0  0  0  0  0  0  0  0  0
  136.2430   80.5441  222.4188 H   0  0  0  0  0  0  0  0  0  0  0  0
  138.0830   78.8290  221.6350 H   0  0  0  0  0  0  0  0  0  0  0  0
  139.1897   70.4965  221.7298 H   0  0  0  0  0  0  0  0  0  0  0  0
  139.2509   68.6877  223.4625 H   0  0  0  0  0  0  0  0  0  0  0  0
  139.8038   68.0527  225.7444 H   0  0  0  0  0  0  0  0  0  0  0  0
  141.4569   70.9646  228.4600 H   0  0  0  0  0  0  0  0  0  0  0  0
  141.3680   72.7207  226.6731 H   0  0  0  0  0  0  0  0  0  0  0  0
  1  2  2  0
  2  3  1  0
  3  4  1  0
  4  5  1  0
  5  6  2  0
  5  7  1  0
  7  8  1  0
  8  9  1  0
  9 10  1  0
 10 11  1  0
 11 12  1  0
 12 13  1  0
 13 14  2  0
 14 15  1  0
 15 16  2  0
 16 17  1  0
  2 18  1  0
 18 19  2  0
 19 20  1  0
 20 21  2  0
 21 22  1  0
 22 23  2  0
 23 24  1  0
 23 25  1  0
 25 26  2  0
 26 27  1  0
 27 28  2  0
 12  7  1  0
 17 13  1  0
 28 18  1  0
 27 21  1  0
  3 29  1  0
  4 30  1  0
  4 31  1  0
  8 32  1  0
  8 33  1  0
  9 34  1  0
  9 35  1  0
 10 36  1  0
 10 37  1  0
 11 38  1  0
 11 39  1  0
 12 40  1  1
 14 41  1  0
 16 42  1  0
 17 43  1  0
 19 44  1  0
 20 45  1  0
 22 46  1  0
 25 47  1  0
 26 48  1  0
M  END
>  <smiles>  (38) 
O=C(NCC(=O)N1CCCC[C@H]1c1cnc[nH]1)c1ccc2cc(Cl)ccc2n1

>  <score_type>  (38) 
oracle

>  <origin>  (38) 
autodockgpu

>  <m_score__min__energy>  (38) 
-8.0800000000000001

>  <m_primary>  (38) 
energy

>  <rmsd>  (38) 
3.304688524642409

>  <m_score__min__rmsd>  (38) 
3.304688524642409

>  <meeko>  (38) 
{"free_energy": -8.06, "intermolecular_energy": -9.55, "internal_energy": -1.9, "cluster_size": 17, "cluster_id": 1, "rank_in_cluster": 4}

>  <energy>  (38) 
-7.36

>  <cluster_rmsd>  (38) 
0.58

>  <cluster>  (38) 
3

$$$$

     RDKit          3D

 48 51  0  0  0  0  0  0  0  0999 V2000
  139.4820   72.5270  220.5420 O   0  0  0  0  0  0  0  0  0  0  0  0
  140.1380   72.7440  221.5790 C   0  0  0  0  0  0  0  0  0  0  0  0
  140.9400   73.9170  221.6620 N   0  0  0  0  0  0  0  0  0  0  0  0
  141.0160   74.8730  220.5730 C   0  0  0  0  0  0  0  0  0  0  0  0
  141.6440   74.1890  219.4170 C   0  0  0  0  0  0  0  0  0  0  0  0
  140.9500   73.8900  218.4070 O   0  0  0  0  0  0  0  0  0  0  0  0
  143.0200   73.8380  219.3770 N   0  0  0  0  0  0  0  0  0  0  0  0
  143.9700   74.6740  220.0850 C   0  0  0  0  0  0  0  0  0  0  0  0
  144.9040   73.7950  220.8480 C   0  0  0  0  0  0  0  0  0  0  0  0
  145.6760   72.9440  219.8950 C   0  0  0  0  0  0  0  0  0  0  0  0
  144.9930   72.6280  218.6110 C   0  0  0  0  0  0  0  0  0  0  0  0
  143.4970   72.6750  218.6500 C   0  0  1  0  0  0  0  0  0  0  0  0
  142.8790   71.4110  219.0700 C   0  0  0  0  0  0  0  0  0  0  0  0
  143.4850   70.2110  219.4180 C   0  0  0  0  0  0  0  0  0  0  0  0
  142.5450   69.2970  219.7430 N   0  0  0  0  0  0  0  0  0  0  0  0
  141.3610   69.8870  219.6090 C   0  0  0  0  0  0  0  0  0  0  0  0
  141.5450   71.1470  219.2100 N   0  0  0  0  0  0  0  0  0  0  0  0
  140.0910   71.8100  222.7030 C   0  0  0  0  0  0  0  0  0  0  0  0
  139.5380   70.5600  222.5220 C   0  0  0  0  0  0  0  0  0  0  0  0
  139.4730   69.6420  223.5610 C   0  0  0  0  0  0  0  0  0  0  0  0
  139.9960   70.0540  224.7910 C   0  0  0  0  0  0  0  0  0  0  0  0
  139.9570   69.1770  225.8630 C   0  0  0  0  0  0  0  0  0  0  0  0
  140.4800   69.6090  227.0650 C   0  0  0  0  0  0  0  0  0  0  0  0
  140.4540   68.5330  228.4560 Cl  0  0  0  0  0  0  0  0  0  0  0  0
  141.0300   70.8580  227.2360 C   0  0  0  0  0  0  0  0  0  0  0  0
  141.0720   71.7390  226.1700 C   0  0  0  0  0  0  0  0  0  0  0  0
  140.5480   71.3070  224.9640 C   0  0  0  0  0  0  0  0  0  0  0  0
  140.5820   72.1500  223.9220 N   0  0  0  0  0  0  0  0  0  0  0  0
  141.4760   74.0500  222.5680 H   0  0  0  0  0  0  0  0  0  0  0  0
  140.0059   75.2146  220.3029 H   0  0  0  0  0  0  0  0  0  0  0  0
  141.6090   75.7504  220.8707 H   0  0  0  0  0  0  0  0  0  0  0  0
  144.5380   75.2809  219.3646 H   0  0  0  0  0  0  0  0  0  0  0  0
  143.4377   75.3447  220.7755 H   0  0  0  0  0  0  0  0  0  0  0  0
  145.5996   74.4170  221.4305 H   0  0  0  0  0  0  0  0  0  0  0  0
  144.3281   73.1523  221.5301 H   0  0  0  0  0  0  0  0  0  0  0  0
  146.6142   73.4674  219.6586 H   0  0  0  0  0  0  0  0  0  0  0  0
  145.8186   71.9791  220.4035 H   0  0  0  0  0  0  0  0  0  0  0  0
  145.3356   73.3523  217.8573 H   0  0  0  0  0  0  0  0  0  0  0  0
  145.2572   71.5864  218.3759 H   0  0  0  0  0  0  0  0  0  0  0  0
  143.1560   72.7997  217.6116 H   0  0  0  0  0  0  0  0  0  0  0  0
  144.5702   70.0313  219.4276 H   0  0  0  0  0  0  0  0  0  0  0  0
  140.3864   69.4127  219.7968 H   0  0  0  0  0  0  0  0  0  0  0  0
  140.8250   71.8890  219.0090 H   0  0  0  0  0  0  0  0  0  0  0  0
  139.1402   70.2847  221.5341 H   0  0  0  0  0  0  0  0  0  0  0  0
  139.0333   68.6430  223.4243 H   0  0  0  0  0  0  0  0  0  0  0  0
  139.5241   68.1711  225.7596 H   0  0  0  0  0  0  0  0  0  0  0  0
  141.4343   71.1549  228.2150 H   0  0  0  0  0  0  0  0  0  0  0  0
  141.5053   72.7444  226.2769 H   0  0  0  0  0  0  0  0  0  0  0  0
  1  2  2  0
  2  3  1  0
  3  4  1  0
  4  5  1  0
  5  6  2  0
  5  7  1  0
  7  8  1  0
  8  9  1  0
  9 10  1  0
 10 11  1  0
 11 12  1  0
 12 13  1  0
 13 14  2  0
 14 15  1  0
 15 16  2  0
 16 17  1  0
  2 18  1  0
 18 19  2  0
 19 20  1  0
 20 21  2  0
 21 22  1  0
 22 23  2  0
 23 24  1  0
 23 25  1  0
 25 26  2  0
 26 27  1  0
 27 28  2  0
 12  7  1  0
 17 13  1  0
 28 18  1  0
 27 21  1  0
  3 29  1  0
  4 30  1  0
  4 31  1  0
  8 32  1  0
  8 33  1  0
  9 34  1  0
  9 35  1  0
 10 36  1  0
 10 37  1  0
 11 38  1  0
 11 39  1  0
 12 40  1  6
 14 41  1  0
 16 42  1  0
 17 43  1  0
 19 44  1  0
 20 45  1  0
 22 46  1  0
 25 47  1  0
 26 48  1  0
M  END
>  <smiles>  (39) 
O=C(NCC(=O)N1CCCC[C@H]1c1cnc[nH]1)c1ccc2cc(Cl)ccc2n1

>  <score_type>  (39) 
oracle

>  <origin>  (39) 
autodockgpu

>  <m_score__min__energy>  (39) 
-8.0800000000000001

>  <m_primary>  (39) 
energy

>  <rmsd>  (39) 
4.5536072590656795

>  <m_score__min__rmsd>  (39) 
4.5536072590656795

>  <meeko>  (39) 
{"free_energy": -6.04, "intermolecular_energy": -7.53, "internal_energy": -3.43, "cluster_size": 3, "cluster_id": 6, "rank_in_cluster": 3}

>  <energy>  (39) 
-7.32

>  <cluster_rmsd>  (39) 
0.85

>  <cluster>  (39) 
3

$$$$

     RDKit          3D

 48 51  0  0  0  0  0  0  0  0999 V2000
  140.7040   72.4790  221.0320 O   0  0  0  0  0  0  0  0  0  0  0  0
  140.0110   72.6460  222.0540 C   0  0  0  0  0  0  0  0  0  0  0  0
  139.1970   73.8080  222.1610 N   0  0  0  0  0  0  0  0  0  0  0  0
  139.1470   74.8090  221.1110 C   0  0  0  0  0  0  0  0  0  0  0  0
  140.3940   75.6070  221.1900 C   0  0  0  0  0  0  0  0  0  0  0  0
  140.9980   75.7270  222.2900 O   0  0  0  0  0  0  0  0  0  0  0  0
  140.9670   76.2630  220.0680 N   0  0  0  0  0  0  0  0  0  0  0  0
  140.8180   77.7010  219.9540 C   0  0  0  0  0  0  0  0  0  0  0  0
  142.1380   78.2890  219.5800 C   0  0  0  0  0  0  0  0  0  0  0  0
  142.5510   77.7730  218.2420 C   0  0  0  0  0  0  0  0  0  0  0  0
  142.0360   76.4240  217.8820 C   0  0  0  0  0  0  0  0  0  0  0  0
  141.6910   75.5380  219.0390 C   0  0  1  0  0  0  0  0  0  0  0  0
  142.8290   74.7590  219.5430 C   0  0  0  0  0  0  0  0  0  0  0  0
  144.0630   74.5230  218.9500 C   0  0  0  0  0  0  0  0  0  0  0  0
  144.8220   73.7510  219.7570 N   0  0  0  0  0  0  0  0  0  0  0  0
  144.1020   73.4940  220.8450 C   0  0  0  0  0  0  0  0  0  0  0  0
  142.9130   74.0880  220.7310 N   0  0  0  0  0  0  0  0  0  0  0  0
  140.0290   71.6640  223.1370 C   0  0  0  0  0  0  0  0  0  0  0  0
  139.5480   70.3910  222.9060 C   0  0  0  0  0  0  0  0  0  0  0  0
  139.5460   69.4280  223.9050 C   0  0  0  0  0  0  0  0  0  0  0  0
  140.0540   69.8180  225.1480 C   0  0  0  0  0  0  0  0  0  0  0  0
  140.0750   68.8960  226.1820 C   0  0  0  0  0  0  0  0  0  0  0  0
  140.5820   69.3060  227.3990 C   0  0  0  0  0  0  0  0  0  0  0  0
  140.6310   68.1730  228.7420 Cl  0  0  0  0  0  0  0  0  0  0  0  0
  141.0580   70.5780  227.6200 C   0  0  0  0  0  0  0  0  0  0  0  0
  141.0400   71.5040  226.5920 C   0  0  0  0  0  0  0  0  0  0  0  0
  140.5320   71.0930  225.3720 C   0  0  0  0  0  0  0  0  0  0  0  0
  140.5080   71.9800  224.3660 N   0  0  0  0  0  0  0  0  0  0  0  0
  138.6290   73.8970  223.0530 H   0  0  0  0  0  0  0  0  0  0  0  0
  139.0775   74.3186  220.1288 H   0  0  0  0  0  0  0  0  0  0  0  0
  138.2665   75.4562  221.2370 H   0  0  0  0  0  0  0  0  0  0  0  0
  140.0745   77.9361  219.1781 H   0  0  0  0  0  0  0  0  0  0  0  0
  140.4780   78.1205  220.9124 H   0  0  0  0  0  0  0  0  0  0  0  0
  142.0532   79.3850  219.5402 H   0  0  0  0  0  0  0  0  0  0  0  0
  142.8911   78.0067  220.3304 H   0  0  0  0  0  0  0  0  0  0  0  0
  142.1959   78.4840  217.4815 H   0  0  0  0  0  0  0  0  0  0  0  0
  143.6457   77.6738  218.2844 H   0  0  0  0  0  0  0  0  0  0  0  0
  141.1285   76.5581  217.2750 H   0  0  0  0  0  0  0  0  0  0  0  0
  142.8548   75.9197  217.3479 H   0  0  0  0  0  0  0  0  0  0  0  0
  140.9989   74.7728  218.6576 H   0  0  0  0  0  0  0  0  0  0  0  0
  144.3756   74.9081  217.9682 H   0  0  0  0  0  0  0  0  0  0  0  0
  144.4336   72.8887  221.7016 H   0  0  0  0  0  0  0  0  0  0  0  0
  142.1060   74.0880  221.4070 H   0  0  0  0  0  0  0  0  0  0  0  0
  139.1584   70.1347  221.9098 H   0  0  0  0  0  0  0  0  0  0  0  0
  139.1649   68.4114  223.7284 H   0  0  0  0  0  0  0  0  0  0  0  0
  139.7003   67.8718  226.0382 H   0  0  0  0  0  0  0  0  0  0  0  0
  141.4508   70.8573  228.6088 H   0  0  0  0  0  0  0  0  0  0  0  0
  141.4151   72.5276  226.7388 H   0  0  0  0  0  0  0  0  0  0  0  0
  1  2  2  0
  2  3  1  0
  3  4  1  0
  4  5  1  0
  5  6  2  0
  5  7  1  0
  7  8  1  0
  8  9  1  0
  9 10  1  0
 10 11  1  0
 11 12  1  0
 12 13  1  0
 13 14  2  0
 14 15  1  0
 15 16  2  0
 16 17  1  0
  2 18  1  0
 18 19  2  0
 19 20  1  0
 20 21  2  0
 21 22  1  0
 22 23  2  0
 23 24  1  0
 23 25  1  0
 25 26  2  0
 26 27  1  0
 27 28  2  0
 12  7  1  0
 17 13  1  0
 28 18  1  0
 27 21  1  0
  3 29  1  0
  4 30  1  0
  4 31  1  0
  8 32  1  0
  8 33  1  0
  9 34  1  0
  9 35  1  0
 10 36  1  0
 10 37  1  0
 11 38  1  0
 11 39  1  0
 12 40  1  6
 14 41  1  0
 16 42  1  0
 17 43  1  0
 19 44  1  0
 20 45  1  0
 22 46  1  0
 25 47  1  0
 26 48  1  0
M  END
>  <smiles>  (40) 
O=C(NCC(=O)N1CCCC[C@H]1c1cnc[nH]1)c1ccc2cc(Cl)ccc2n1

>  <score_type>  (40) 
oracle

>  <origin>  (40) 
autodockgpu

>  <m_score__min__energy>  (40) 
-8.0800000000000001

>  <m_primary>  (40) 
energy

>  <rmsd>  (40) 
2.707327790317616

>  <m_score__min__rmsd>  (40) 
2.707327790317616

>  <meeko>  (40) 
{"free_energy": -7.38, "intermolecular_energy": -8.87, "internal_energy": -2.83, "cluster_size": 23, "cluster_id": 3, "rank_in_cluster": 16}

>  <energy>  (40) 
-7.2

>  <cluster_rmsd>  (40) 
1.07

>  <cluster>  (40) 
3

$$$$

     RDKit          3D

 48 51  0  0  0  0  0  0  0  0999 V2000
  139.7220   73.7890  220.3610 O   0  0  0  0  0  0  0  0  0  0  0  0
  139.5450   73.8410  221.5940 C   0  0  0  0  0  0  0  0  0  0  0  0
  139.3240   75.1020  222.2130 N   0  0  0  0  0  0  0  0  0  0  0  0
  139.2950   76.3370  221.4500 C   0  0  0  0  0  0  0  0  0  0  0  0
  140.6690   76.8950  221.4450 C   0  0  0  0  0  0  0  0  0  0  0  0
  141.6430   76.1720  221.0980 O   0  0  0  0  0  0  0  0  0  0  0  0
  140.9640   78.2330  221.8200 N   0  0  0  0  0  0  0  0  0  0  0  0
  141.4760   78.4840  223.1530 C   0  0  0  0  0  0  0  0  0  0  0  0
  142.6310   79.4250  223.0520 C   0  0  0  0  0  0  0  0  0  0  0  0
  142.1610   80.7290  222.4970 C   0  0  0  0  0  0  0  0  0  0  0  0
  140.9780   80.6620  221.5980 C   0  0  0  0  0  0  0  0  0  0  0  0
  140.7670   79.3480  220.9100 C   0  0  1  0  0  0  0  0  0  0  0  0
  141.4980   79.2240  219.6430 C   0  0  0  0  0  0  0  0  0  0  0  0
  141.3460   79.9480  218.4670 C   0  0  0  0  0  0  0  0  0  0  0  0
  142.2250   79.5100  217.5390 N   0  0  0  0  0  0  0  0  0  0  0  0
  142.9270   78.5290  218.0970 C   0  0  0  0  0  0  0  0  0  0  0  0
  142.5060   78.3480  219.3490 N   0  0  0  0  0  0  0  0  0  0  0  0
  139.5650   72.6230  222.4030 C   0  0  0  0  0  0  0  0  0  0  0  0
  138.8380   71.5250  221.9920 C   0  0  0  0  0  0  0  0  0  0  0  0
  138.8270   70.3490  222.7300 C   0  0  0  0  0  0  0  0  0  0  0  0
  139.5890   70.3420  223.9020 C   0  0  0  0  0  0  0  0  0  0  0  0
  139.6150   69.1940  224.6770 C   0  0  0  0  0  0  0  0  0  0  0  0
  140.3740   69.2130  225.8290 C   0  0  0  0  0  0  0  0  0  0  0  0
  140.4390   67.7810  226.8470 Cl  0  0  0  0  0  0  0  0  0  0  0  0
  141.0960   70.3140  226.2320 C   0  0  0  0  0  0  0  0  0  0  0  0
  141.0750   71.4630  225.4620 C   0  0  0  0  0  0  0  0  0  0  0  0
  140.3130   71.4450  224.3070 C   0  0  0  0  0  0  0  0  0  0  0  0
  140.2830   72.5520  223.5520 N   0  0  0  0  0  0  0  0  0  0  0  0
  139.1800   75.0860  223.2640 H   0  0  0  0  0  0  0  0  0  0  0  0
  138.9694   76.1332  220.4192 H   0  0  0  0  0  0  0  0  0  0  0  0
  138.5900   77.0517  221.8997 H   0  0  0  0  0  0  0  0  0  0  0  0
  140.6867   78.9319  223.7746 H   0  0  0  0  0  0  0  0  0  0  0  0
  141.8008   77.5396  223.6141 H   0  0  0  0  0  0  0  0  0  0  0  0
  143.0622   79.5854  224.0512 H   0  0  0  0  0  0  0  0  0  0  0  0
  143.3964   78.9974  222.3877 H   0  0  0  0  0  0  0  0  0  0  0  0
  141.9049   81.3832  223.3434 H   0  0  0  0  0  0  0  0  0  0  0  0
  142.9874   81.1039  221.8753 H   0  0  0  0  0  0  0  0  0  0  0  0
  140.0824   80.8780  222.1991 H   0  0  0  0  0  0  0  0  0  0  0  0
  141.1623   81.3959  220.7996 H   0  0  0  0  0  0  0  0  0  0  0  0
  139.7103   79.3138  220.6063 H   0  0  0  0  0  0  0  0  0  0  0  0
  140.6177   80.7580  218.3140 H   0  0  0  0  0  0  0  0  0  0  0  0
  143.7276   77.9576  217.6044 H   0  0  0  0  0  0  0  0  0  0  0  0
  142.8440   77.6560  220.0680 H   0  0  0  0  0  0  0  0  0  0  0  0
  138.2553   71.5823  221.0608 H   0  0  0  0  0  0  0  0  0  0  0  0
  138.2493   69.4695  222.4095 H   0  0  0  0  0  0  0  0  0  0  0  0
  139.0494   68.2973  224.3837 H   0  0  0  0  0  0  0  0  0  0  0  0
  141.6855   70.2801  227.1600 H   0  0  0  0  0  0  0  0  0  0  0  0
  141.6429   72.3577  225.7569 H   0  0  0  0  0  0  0  0  0  0  0  0
  1  2  2  0
  2  3  1  0
  3  4  1  0
  4  5  1  0
  5  6  2  0
  5  7  1  0
  7  8  1  0
  8  9  1  0
  9 10  1  0
 10 11  1  0
 11 12  1  0
 12 13  1  0
 13 14  2  0
 14 15  1  0
 15 16  2  0
 16 17  1  0
  2 18  1  0
 18 19  2  0
 19 20  1  0
 20 21  2  0
 21 22  1  0
 22 23  2  0
 23 24  1  0
 23 25  1  0
 25 26  2  0
 26 27  1  0
 27 28  2  0
 12  7  1  0
 17 13  1  0
 28 18  1  0
 27 21  1  0
  3 29  1  0
  4 30  1  0
  4 31  1  0
  8 32  1  0
  8 33  1  0
  9 34  1  0
  9 35  1  0
 10 36  1  0
 10 37  1  0
 11 38  1  0
 11 39  1  0
 12 40  1  6
 14 41  1  0
 16 42  1  0
 17 43  1  0
 19 44  1  0
 20 45  1  0
 22 46  1  0
 25 47  1  0
 26 48  1  0
M  END
>  <smiles>  (41) 
O=C(NCC(=O)N1CCCC[C@H]1c1cnc[nH]1)c1ccc2cc(Cl)ccc2n1

>  <score_type>  (41) 
oracle

>  <origin>  (41) 
autodockgpu

>  <m_score__min__energy>  (41) 
-8.0800000000000001

>  <m_primary>  (41) 
energy

>  <rmsd>  (41) 
3.9505538454942717

>  <m_score__min__rmsd>  (41) 
3.9505538454942717

>  <meeko>  (41) 
{"free_energy": -7.64, "intermolecular_energy": -9.13, "internal_energy": -2.02, "cluster_size": 4, "cluster_id": 2, "rank_in_cluster": 2}

>  <energy>  (41) 
-6.96

>  <cluster_rmsd>  (41) 
1.35

>  <cluster>  (41) 
3

$$$$

     RDKit          3D

 48 51  0  0  0  0  0  0  0  0999 V2000
  140.6670   73.6820  222.0860 O   0  0  0  0  0  0  0  0  0  0  0  0
  139.9670   72.6520  222.0350 C   0  0  0  0  0  0  0  0  0  0  0  0
  139.1280   72.4370  220.9060 N   0  0  0  0  0  0  0  0  0  0  0  0
  139.0620   73.3830  219.8070 C   0  0  0  0  0  0  0  0  0  0  0  0
  140.4350   73.5470  219.2730 C   0  0  0  0  0  0  0  0  0  0  0  0
  141.0250   72.5710  218.7350 O   0  0  0  0  0  0  0  0  0  0  0  0
  141.1490   74.7750  219.3330 N   0  0  0  0  0  0  0  0  0  0  0  0
  140.4450   75.9660  219.7650 C   0  0  0  0  0  0  0  0  0  0  0  0
  141.3000   76.6950  220.7480 C   0  0  0  0  0  0  0  0  0  0  0  0
  142.5610   77.1350  220.0810 C   0  0  0  0  0  0  0  0  0  0  0  0
  143.0210   76.2900  218.9450 C   0  0  0  0  0  0  0  0  0  0  0  0
  142.5530   74.8670  218.9730 C   0  0  1  0  0  0  0  0  0  0  0  0
  143.4290   73.9740  219.7430 C   0  0  0  0  0  0  0  0  0  0  0  0
  144.8150   73.9680  219.8320 C   0  0  0  0  0  0  0  0  0  0  0  0
  145.2190   72.9750  220.6540 N   0  0  0  0  0  0  0  0  0  0  0  0
  144.1250   72.3540  221.0860 C   0  0  0  0  0  0  0  0  0  0  0  0
  143.0520   72.9390  220.5520 N   0  0  0  0  0  0  0  0  0  0  0  0
  140.0010   71.6700  223.1180 C   0  0  0  0  0  0  0  0  0  0  0  0
  139.5130   70.3990  222.8950 C   0  0  0  0  0  0  0  0  0  0  0  0
  139.5250   69.4370  223.8950 C   0  0  0  0  0  0  0  0  0  0  0  0
  140.0560   69.8250  225.1290 C   0  0  0  0  0  0  0  0  0  0  0  0
  140.0930   68.9030  226.1630 C   0  0  0  0  0  0  0  0  0  0  0  0
  140.6220   69.3130  227.3700 C   0  0  0  0  0  0  0  0  0  0  0  0
  140.6900   68.1800  228.7130 Cl  0  0  0  0  0  0  0  0  0  0  0  0
  141.1050   70.5830  227.5830 C   0  0  0  0  0  0  0  0  0  0  0  0
  141.0720   71.5090  226.5550 C   0  0  0  0  0  0  0  0  0  0  0  0
  140.5420   71.0990  225.3440 C   0  0  0  0  0  0  0  0  0  0  0  0
  140.5030   71.9850  224.3390 N   0  0  0  0  0  0  0  0  0  0  0  0
  138.5550   71.5440  220.9160 H   0  0  0  0  0  0  0  0  0  0  0  0
  138.3971   72.9977  219.0200 H   0  0  0  0  0  0  0  0  0  0  0  0
  138.6641   74.3487  220.1522 H   0  0  0  0  0  0  0  0  0  0  0  0
  140.2437   76.6124  218.8980 H   0  0  0  0  0  0  0  0  0  0  0  0
  139.4887   75.6883  220.2323 H   0  0  0  0  0  0  0  0  0  0  0  0
  140.7577   77.5751  221.1238 H   0  0  0  0  0  0  0  0  0  0  0  0
  141.5432   76.0278  221.5880 H   0  0  0  0  0  0  0  0  0  0  0  0
  142.4037   78.1552  219.7009 H   0  0  0  0  0  0  0  0  0  0  0  0
  143.3467   77.0597  220.8472 H   0  0  0  0  0  0  0  0  0  0  0  0
  142.6591   76.7482  218.0127 H   0  0  0  0  0  0  0  0  0  0  0  0
  144.1177   76.2504  219.0209 H   0  0  0  0  0  0  0  0  0  0  0  0
  142.6322   74.4866  217.9439 H   0  0  0  0  0  0  0  0  0  0  0  0
  145.4844   74.6680  219.3105 H   0  0  0  0  0  0  0  0  0  0  0  0
  144.1080   71.4955  221.7735 H   0  0  0  0  0  0  0  0  0  0  0  0
  142.0350   72.7000  220.6820 H   0  0  0  0  0  0  0  0  0  0  0  0
  139.1065   70.1432  221.9054 H   0  0  0  0  0  0  0  0  0  0  0  0
  139.1369   68.4218  223.7257 H   0  0  0  0  0  0  0  0  0  0  0  0
  139.7138   67.8795  226.0264 H   0  0  0  0  0  0  0  0  0  0  0  0
  141.5152   70.8612  228.5650 H   0  0  0  0  0  0  0  0  0  0  0  0
  141.4524   72.5316  226.6950 H   0  0  0  0  0  0  0  0  0  0  0  0
  1  2  2  0
  2  3  1  0
  3  4  1  0
  4  5  1  0
  5  6  2  0
  5  7  1  0
  7  8  1  0
  8  9  1  0
  9 10  1  0
 10 11  1  0
 11 12  1  0
 12 13  1  0
 13 14  2  0
 14 15  1  0
 15 16  2  0
 16 17  1  0
  2 18  1  0
 18 19  2  0
 19 20  1  0
 20 21  2  0
 21 22  1  0
 22 23  2  0
 23 24  1  0
 23 25  1  0
 25 26  2  0
 26 27  1  0
 27 28  2  0
 12  7  1  0
 17 13  1  0
 28 18  1  0
 27 21  1  0
  3 29  1  0
  4 30  1  0
  4 31  1  0
  8 32  1  0
  8 33  1  0
  9 34  1  0
  9 35  1  0
 10 36  1  0
 10 37  1  0
 11 38  1  0
 11 39  1  0
 12 40  1  6
 14 41  1  0
 16 42  1  0
 17 43  1  0
 19 44  1  0
 20 45  1  0
 22 46  1  0
 25 47  1  0
 26 48  1  0
M  END
>  <smiles>  (42) 
O=C(NCC(=O)N1CCCC[C@H]1c1cnc[nH]1)c1ccc2cc(Cl)ccc2n1

>  <score_type>  (42) 
oracle

>  <origin>  (42) 
autodockgpu

>  <m_score__min__energy>  (42) 
-8.0800000000000001

>  <m_primary>  (42) 
energy

>  <rmsd>  (42) 
3.0713227329175594

>  <m_score__min__rmsd>  (42) 
3.0713227329175594

>  <meeko>  (42) 
{"free_energy": -6.84, "intermolecular_energy": -8.33, "internal_energy": -2.81, "cluster_size": 23, "cluster_id": 3, "rank_in_cluster": 22}

>  <energy>  (42) 
-6.85

>  <cluster_rmsd>  (42) 
1.5

>  <cluster>  (42) 
3

$$$$

     RDKit          3D

 48 51  0  0  0  0  0  0  0  0999 V2000
  139.6380   71.9880  220.6990 O   0  0  0  0  0  0  0  0  0  0  0  0
  139.6380   72.4150  221.8700 C   0  0  0  0  0  0  0  0  0  0  0  0
  139.5470   73.8170  222.0990 N   0  0  0  0  0  0  0  0  0  0  0  0
  139.4520   74.7680  221.0070 C   0  0  0  0  0  0  0  0  0  0  0  0
  140.7230   75.5300  220.9620 C   0  0  0  0  0  0  0  0  0  0  0  0
  141.4320   75.6380  221.9990 O   0  0  0  0  0  0  0  0  0  0  0  0
  141.2050   76.1640  219.7850 N   0  0  0  0  0  0  0  0  0  0  0  0
  140.9480   77.5790  219.6050 C   0  0  0  0  0  0  0  0  0  0  0  0
  142.2060   78.2400  219.1480 C   0  0  0  0  0  0  0  0  0  0  0  0
  142.6070   77.6830  217.8220 C   0  0  0  0  0  0  0  0  0  0  0  0
  142.1780   76.2840  217.5520 C   0  0  0  0  0  0  0  0  0  0  0  0
  141.9420   75.4380  218.7660 C   0  0  1  0  0  0  0  0  0  0  0  0
  143.1520   74.7700  219.2630 C   0  0  0  0  0  0  0  0  0  0  0  0
  144.0640   73.9810  218.5740 C   0  0  0  0  0  0  0  0  0  0  0  0
  145.0360   73.5620  219.4130 N   0  0  0  0  0  0  0  0  0  0  0  0
  144.7620   74.0650  220.6130 C   0  0  0  0  0  0  0  0  0  0  0  0
  143.6430   74.7860  220.5380 N   0  0  0  0  0  0  0  0  0  0  0  0
  139.7320   71.4940  223.0020 C   0  0  0  0  0  0  0  0  0  0  0  0
  139.2600   70.2050  222.8670 C   0  0  0  0  0  0  0  0  0  0  0  0
  139.3290   69.2980  223.9150 C   0  0  0  0  0  0  0  0  0  0  0  0
  139.8990   69.7620  225.1050 C   0  0  0  0  0  0  0  0  0  0  0  0
  139.9930   68.8990  226.1850 C   0  0  0  0  0  0  0  0  0  0  0  0
  140.5600   69.3820  227.3470 C   0  0  0  0  0  0  0  0  0  0  0  0
  140.7010   68.3250  228.7450 Cl  0  0  0  0  0  0  0  0  0  0  0  0
  141.0260   70.6700  227.4720 C   0  0  0  0  0  0  0  0  0  0  0  0
  140.9360   71.5380  226.3980 C   0  0  0  0  0  0  0  0  0  0  0  0
  140.3680   71.0540  225.2320 C   0  0  0  0  0  0  0  0  0  0  0  0
  140.2740   71.8840  224.1830 N   0  0  0  0  0  0  0  0  0  0  0  0
  139.5520   74.1230  223.1150 H   0  0  0  0  0  0  0  0  0  0  0  0
  139.3013   74.2341  220.0571 H   0  0  0  0  0  0  0  0  0  0  0  0
  138.6004   75.4472  221.1602 H   0  0  0  0  0  0  0  0  0  0  0  0
  140.1609   77.7190  218.8495 H   0  0  0  0  0  0  0  0  0  0  0  0
  140.6152   78.0231  220.5547 H   0  0  0  0  0  0  0  0  0  0  0  0
  142.0384   79.3232  219.0553 H   0  0  0  0  0  0  0  0  0  0  0  0
  143.0051   78.0543  219.8808 H   0  0  0  0  0  0  0  0  0  0  0  0
  142.1744   78.3256  217.0410 H   0  0  0  0  0  0  0  0  0  0  0  0
  143.7068   77.6633  217.8259 H   0  0  0  0  0  0  0  0  0  0  0  0
  141.2409   76.3214  216.9772 H   0  0  0  0  0  0  0  0  0  0  0  0
  143.0105   75.8111  217.0104 H   0  0  0  0  0  0  0  0  0  0  0  0
  141.2952   74.6055  218.4521 H   0  0  0  0  0  0  0  0  0  0  0  0
  144.0036   73.7340  217.5038 H   0  0  0  0  0  0  0  0  0  0  0  0
  145.3623   73.9110  221.5218 H   0  0  0  0  0  0  0  0  0  0  0  0
  143.1470   75.3180  221.2990 H   0  0  0  0  0  0  0  0  0  0  0  0
  138.8200   69.8897  221.9094 H   0  0  0  0  0  0  0  0  0  0  0  0
  138.9551   68.2683  223.8151 H   0  0  0  0  0  0  0  0  0  0  0  0
  139.6279   67.8635  226.1185 H   0  0  0  0  0  0  0  0  0  0  0  0
  141.4679   71.0084  228.4208 H   0  0  0  0  0  0  0  0  0  0  0  0
  141.3018   72.5730  226.4681 H   0  0  0  0  0  0  0  0  0  0  0  0
  1  2  2  0
  2  3  1  0
  3  4  1  0
  4  5  1  0
  5  6  2  0
  5  7  1  0
  7  8  1  0
  8  9  1  0
  9 10  1  0
 10 11  1  0
 11 12  1  0
 12 13  1  0
 13 14  2  0
 14 15  1  0
 15 16  2  0
 16 17  1  0
  2 18  1  0
 18 19  2  0
 19 20  1  0
 20 21  2  0
 21 22  1  0
 22 23  2  0
 23 24  1  0
 23 25  1  0
 25 26  2  0
 26 27  1  0
 27 28  2  0
 12  7  1  0
 17 13  1  0
 28 18  1  0
 27 21  1  0
  3 29  1  0
  4 30  1  0
  4 31  1  0
  8 32  1  0
  8 33  1  0
  9 34  1  0
  9 35  1  0
 10 36  1  0
 10 37  1  0
 11 38  1  0
 11 39  1  0
 12 40  1  6
 14 41  1  0
 16 42  1  0
 17 43  1  0
 19 44  1  0
 20 45  1  0
 22 46  1  0
 25 47  1  0
 26 48  1  0
M  END
>  <smiles>  (43) 
O=C(NCC(=O)N1CCCC[C@H]1c1cnc[nH]1)c1ccc2cc(Cl)ccc2n1

>  <score_type>  (43) 
oracle

>  <origin>  (43) 
autodockgpu

>  <m_score__min__energy>  (43) 
-8.0800000000000001

>  <m_primary>  (43) 
energy

>  <rmsd>  (43) 
2.612719498743794

>  <m_score__min__rmsd>  (43) 
2.612719498743794

>  <meeko>  (43) 
{"free_energy": -7.69, "intermolecular_energy": -9.18, "internal_energy": -2.35, "cluster_size": 23, "cluster_id": 3, "rank_in_cluster": 3}

>  <energy>  (43) 
-6.84

>  <cluster_rmsd>  (43) 
1.52

>  <cluster>  (43) 
3

$$$$

     RDKit          3D

 48 51  0  0  0  0  0  0  0  0999 V2000
  138.1240   77.1160  222.8190 O   0  0  0  0  0  0  0  0  0  0  0  0
  138.9540   77.2460  221.8990 C   0  0  0  0  0  0  0  0  0  0  0  0
  138.9540   78.4410  221.1270 N   0  0  0  0  0  0  0  0  0  0  0  0
  138.0160   79.5190  221.3800 C   0  0  0  0  0  0  0  0  0  0  0  0
  138.7850   80.6690  221.9120 C   0  0  0  0  0  0  0  0  0  0  0  0
  138.3070   81.8340  221.8450 O   0  0  0  0  0  0  0  0  0  0  0  0
  140.0660   80.5350  222.5110 N   0  0  0  0  0  0  0  0  0  0  0  0
  140.1600   79.9090  223.8150 C   0  0  0  0  0  0  0  0  0  0  0  0
  141.2870   78.9300  223.7950 C   0  0  0  0  0  0  0  0  0  0  0  0
  142.5700   79.6540  223.5500 C   0  0  0  0  0  0  0  0  0  0  0  0
  142.4620   80.9140  222.7660 C   0  0  0  0  0  0  0  0  0  0  0  0
  141.2740   81.0060  221.8580 C   0  0  1  0  0  0  0  0  0  0  0  0
  141.5030   80.4230  220.5290 C   0  0  0  0  0  0  0  0  0  0  0  0
  141.4370   81.0300  219.2810 C   0  0  0  0  0  0  0  0  0  0  0  0
  141.7200   80.1290  218.3160 N   0  0  0  0  0  0  0  0  0  0  0  0
  141.9620   78.9690  218.9200 C   0  0  0  0  0  0  0  0  0  0  0  0
  141.8370   79.1300  220.2380 N   0  0  0  0  0  0  0  0  0  0  0  0
  139.9190   76.1870  221.6070 C   0  0  0  0  0  0  0  0  0  0  0  0
  139.6340   74.8890  221.9780 C   0  0  0  0  0  0  0  0  0  0  0  0
  140.5220   73.8540  221.7210 C   0  0  0  0  0  0  0  0  0  0  0  0
  141.7110   74.1990  221.0710 C   0  0  0  0  0  0  0  0  0  0  0  0
  142.6340   73.2050  220.7900 C   0  0  0  0  0  0  0  0  0  0  0  0
  143.7990   73.5720  220.1480 C   0  0  0  0  0  0  0  0  0  0  0  0
  145.0020   72.3470  219.7690 Cl  0  0  0  0  0  0  0  0  0  0  0  0
  144.0750   74.8700  219.7830 C   0  0  0  0  0  0  0  0  0  0  0  0
  143.1580   75.8680  220.0600 C   0  0  0  0  0  0  0  0  0  0  0  0
  141.9900   75.5000  220.7040 C   0  0  0  0  0  0  0  0  0  0  0  0
  141.0920   76.4570  220.9800 N   0  0  0  0  0  0  0  0  0  0  0  0
  139.6830   78.4970  220.3570 H   0  0  0  0  0  0  0  0  0  0  0  0
  137.5128   79.8052  220.4446 H   0  0  0  0  0  0  0  0  0  0  0  0
  137.2489   79.2012  222.1016 H   0  0  0  0  0  0  0  0  0  0  0  0
  140.3489   80.6755  224.5810 H   0  0  0  0  0  0  0  0  0  0  0  0
  139.2183   79.3921  224.0518 H   0  0  0  0  0  0  0  0  0  0  0  0
  141.3383   78.4099  224.7629 H   0  0  0  0  0  0  0  0  0  0  0  0
  141.1210   78.1957  222.9930 H   0  0  0  0  0  0  0  0  0  0  0  0
  143.0102   79.9011  224.5273 H   0  0  0  0  0  0  0  0  0  0  0  0
  143.1853   78.9749  222.9415 H   0  0  0  0  0  0  0  0  0  0  0  0
  142.4120   81.7524  223.4763 H   0  0  0  0  0  0  0  0  0  0  0  0
  143.3461   80.9408  222.1120 H   0  0  0  0  0  0  0  0  0  0  0  0
  141.1146   82.0746  221.6514 H   0  0  0  0  0  0  0  0  0  0  0  0
  141.1907   82.0876  219.1052 H   0  0  0  0  0  0  0  0  0  0  0  0
  142.2233   78.0280  218.4138 H   0  0  0  0  0  0  0  0  0  0  0  0
  141.9600   78.4200  221.0060 H   0  0  0  0  0  0  0  0  0  0  0  0
  138.6840   74.6702  222.4876 H   0  0  0  0  0  0  0  0  0  0  0  0
  140.3021   72.8166  222.0133 H   0  0  0  0  0  0  0  0  0  0  0  0
  142.4446   72.1581  221.0693 H   0  0  0  0  0  0  0  0  0  0  0  0
  145.0195   75.1125  219.2739 H   0  0  0  0  0  0  0  0  0  0  0  0
  143.3500   76.9140  219.7790 H   0  0  0  0  0  0  0  0  0  0  0  0
  1  2  2  0
  2  3  1  0
  3  4  1  0
  4  5  1  0
  5  6  2  0
  5  7  1  0
  7  8  1  0
  8  9  1  0
  9 10  1  0
 10 11  1  0
 11 12  1  0
 12 13  1  0
 13 14  2  0
 14 15  1  0
 15 16  2  0
 16 17  1  0
  2 18  1  0
 18 19  2  0
 19 20  1  0
 20 21  2  0
 21 22  1  0
 22 23  2  0
 23 24  1  0
 23 25  1  0
 25 26  2  0
 26 27  1  0
 27 28  2  0
 12  7  1  0
 17 13  1  0
 28 18  1  0
 27 21  1  0
  3 29  1  0
  4 30  1  0
  4 31  1  0
  8 32  1  0
  8 33  1  0
  9 34  1  0
  9 35  1  0
 10 36  1  0
 10 37  1  0
 11 38  1  0
 11 39  1  0
 12 40  1  6
 14 41  1  0
 16 42  1  0
 17 43  1  0
 19 44  1  0
 20 45  1  0
 22 46  1  0
 25 47  1  0
 26 48  1  0
M  END
>  <smiles>  (44) 
O=C(NCC(=O)N1CCCC[C@H]1c1cnc[nH]1)c1ccc2cc(Cl)ccc2n1

>  <score_type>  (44) 
oracle

>  <origin>  (44) 
autodockgpu

>  <m_score__min__energy>  (44) 
-8.0800000000000001

>  <m_primary>  (44) 
energy

>  <rmsd>  (44) 
6.737473867114454

>  <m_score__min__rmsd>  (44) 
6.737473867114454

>  <meeko>  (44) 
{"free_energy": -5.94, "intermolecular_energy": -7.43, "internal_energy": -3.29, "cluster_size": 1, "cluster_id": 7, "rank_in_cluster": 1}

>  <energy>  (44) 
-6.54

>  <cluster_rmsd>  (44) 
1.73

>  <cluster>  (44) 
3

$$$$

     RDKit          3D

 48 51  0  0  0  0  0  0  0  0999 V2000
  138.9450   71.7520  220.7880 O   0  0  0  0  0  0  0  0  0  0  0  0
  139.2480   72.1930  221.9130 C   0  0  0  0  0  0  0  0  0  0  0  0
  139.3760   73.5980  222.0970 N   0  0  0  0  0  0  0  0  0  0  0  0
  139.1630   74.5380  221.0110 C   0  0  0  0  0  0  0  0  0  0  0  0
  139.7100   75.8480  221.4360 C   0  0  0  0  0  0  0  0  0  0  0  0
  139.7260   76.1600  222.6580 O   0  0  0  0  0  0  0  0  0  0  0  0
  140.2340   76.8030  220.5240 N   0  0  0  0  0  0  0  0  0  0  0  0
  139.5580   76.9930  219.2550 C   0  0  0  0  0  0  0  0  0  0  0  0
  139.4260   78.4580  218.9990 C   0  0  0  0  0  0  0  0  0  0  0  0
  140.7840   79.0670  218.8810 C   0  0  0  0  0  0  0  0  0  0  0  0
  141.8670   78.3820  219.6380 C   0  0  0  0  0  0  0  0  0  0  0  0
  141.4180   77.5870  220.8250 C   0  0  1  0  0  0  0  0  0  0  0  0
  141.3170   78.3770  222.0590 C   0  0  0  0  0  0  0  0  0  0  0  0
  142.3180   79.0250  222.7710 C   0  0  0  0  0  0  0  0  0  0  0  0
  141.7900   79.6380  223.8530 N   0  0  0  0  0  0  0  0  0  0  0  0
  140.4830   79.3960  223.8430 C   0  0  0  0  0  0  0  0  0  0  0  0
  140.1870   78.6460  222.7800 N   0  0  0  0  0  0  0  0  0  0  0  0
  139.4710   71.2860  223.0370 C   0  0  0  0  0  0  0  0  0  0  0  0
  139.0840   69.9660  222.9290 C   0  0  0  0  0  0  0  0  0  0  0  0
  139.2770   69.0700  223.9720 C   0  0  0  0  0  0  0  0  0  0  0  0
  139.8810   69.5780  225.1270 C   0  0  0  0  0  0  0  0  0  0  0  0
  140.0970   68.7270  226.1980 C   0  0  0  0  0  0  0  0  0  0  0  0
  140.6950   69.2530  227.3260 C   0  0  0  0  0  0  0  0  0  0  0  0
  140.9910   68.2140  228.7130 Cl  0  0  0  0  0  0  0  0  0  0  0  0
  141.0760   70.5710  227.4240 C   0  0  0  0  0  0  0  0  0  0  0  0
  140.8630   71.4260  226.3570 C   0  0  0  0  0  0  0  0  0  0  0  0
  140.2640   70.8990  225.2270 C   0  0  0  0  0  0  0  0  0  0  0  0
  140.0510   71.7160  224.1850 N   0  0  0  0  0  0  0  0  0  0  0  0
  139.6350   73.9170  223.0750 H   0  0  0  0  0  0  0  0  0  0  0  0
  139.6837   74.1901  220.1067 H   0  0  0  0  0  0  0  0  0  0  0  0
  138.0909   74.6243  220.7806 H   0  0  0  0  0  0  0  0  0  0  0  0
  140.1449   76.5276  218.4494 H   0  0  0  0  0  0  0  0  0  0  0  0
  138.5624   76.5263  219.2865 H   0  0  0  0  0  0  0  0  0  0  0  0
  138.8698   78.6181  218.0636 H   0  0  0  0  0  0  0  0  0  0  0  0
  138.8843   78.9286  219.8328 H   0  0  0  0  0  0  0  0  0  0  0  0
  141.0632   79.0666  217.8170 H   0  0  0  0  0  0  0  0  0  0  0  0
  140.7009   80.0720  219.3203 H   0  0  0  0  0  0  0  0  0  0  0  0
  142.3835   77.6988  218.9478 H   0  0  0  0  0  0  0  0  0  0  0  0
  142.5111   79.1807  220.0345 H   0  0  0  0  0  0  0  0  0  0  0  0
  142.2176   76.8639  221.0435 H   0  0  0  0  0  0  0  0  0  0  0  0
  143.3827   79.0373  222.4949 H   0  0  0  0  0  0  0  0  0  0  0  0
  139.7614   79.7562  224.5910 H   0  0  0  0  0  0  0  0  0  0  0  0
  139.2510   78.2750  222.4720 H   0  0  0  0  0  0  0  0  0  0  0  0
  138.6133   69.6166  221.9982 H   0  0  0  0  0  0  0  0  0  0  0  0
  138.9711   68.0163  223.8942 H   0  0  0  0  0  0  0  0  0  0  0  0
  139.8023   67.6682  226.1517 H   0  0  0  0  0  0  0  0  0  0  0  0
  141.5474   70.9433  228.3455 H   0  0  0  0  0  0  0  0  0  0  0  0
  141.1588   72.4844  226.4056 H   0  0  0  0  0  0  0  0  0  0  0  0
  1  2  2  0
  2  3  1  0
  3  4  1  0
  4  5  1  0
  5  6  2  0
  5  7  1  0
  7  8  1  0
  8  9  1  0
  9 10  1  0
 10 11  1  0
 11 12  1  0
 12 13  1  0
 13 14  2  0
 14 15  1  0
 15 16  2  0
 16 17  1  0
  2 18  1  0
 18 19  2  0
 19 20  1  0
 20 21  2  0
 21 22  1  0
 22 23  2  0
 23 24  1  0
 23 25  1  0
 25 26  2  0
 26 27  1  0
 27 28  2  0
 12  7  1  0
 17 13  1  0
 28 18  1  0
 27 21  1  0
  3 29  1  0
  4 30  1  0
  4 31  1  0
  8 32  1  0
  8 33  1  0
  9 34  1  0
  9 35  1  0
 10 36  1  0
 10 37  1  0
 11 38  1  0
 11 39  1  0
 12 40  1  1
 14 41  1  0
 16 42  1  0
 17 43  1  0
 19 44  1  0
 20 45  1  0
 22 46  1  0
 25 47  1  0
 26 48  1  0
M  END
>  <smiles>  (45) 
O=C(NCC(=O)N1CCCC[C@H]1c1cnc[nH]1)c1ccc2cc(Cl)ccc2n1

>  <score_type>  (45) 
oracle

>  <origin>  (45) 
autodockgpu

>  <m_score__min__energy>  (45) 
-8.0800000000000001

>  <m_primary>  (45) 
energy

>  <rmsd>  (45) 
1.7056768482493188

>  <m_score__min__rmsd>  (45) 
1.7056768482493188

>  <meeko>  (45) 
{"free_energy": -7.44, "intermolecular_energy": -8.93, "internal_energy": -2.4, "cluster_size": 17, "cluster_id": 1, "rank_in_cluster": 15}

>  <energy>  (45) 
-6.96

>  <cluster_rmsd>  (45) 
0.0

>  <cluster>  (45) 
4

$$$$

     RDKit          3D

 48 51  0  0  0  0  0  0  0  0999 V2000
  139.0100   72.0320  220.7590 O   0  0  0  0  0  0  0  0  0  0  0  0
  139.3110   72.4400  221.8970 C   0  0  0  0  0  0  0  0  0  0  0  0
  139.4870   73.8360  222.1110 N   0  0  0  0  0  0  0  0  0  0  0  0
  139.3240   74.8030  221.0410 C   0  0  0  0  0  0  0  0  0  0  0  0
  140.3720   75.8380  221.2060 C   0  0  0  0  0  0  0  0  0  0  0  0
  141.0070   75.9270  222.2920 O   0  0  0  0  0  0  0  0  0  0  0  0
  140.7150   76.7650  220.1850 N   0  0  0  0  0  0  0  0  0  0  0  0
  139.9780   76.7260  218.9370 C   0  0  0  0  0  0  0  0  0  0  0  0
  139.6170   78.1230  218.5520 C   0  0  0  0  0  0  0  0  0  0  0  0
  140.8630   78.9110  218.3150 C   0  0  0  0  0  0  0  0  0  0  0  0
  142.0610   78.4730  219.0810 C   0  0  0  0  0  0  0  0  0  0  0  0
  141.7760   77.7410  220.3570 C   0  0  1  0  0  0  0  0  0  0  0  0
  141.5950   78.6260  221.5140 C   0  0  0  0  0  0  0  0  0  0  0  0
  141.2870   79.9800  221.5450 C   0  0  0  0  0  0  0  0  0  0  0  0
  141.2130   80.4070  222.8240 N   0  0  0  0  0  0  0  0  0  0  0  0
  141.4670   79.3600  223.6030 C   0  0  0  0  0  0  0  0  0  0  0  0
  141.6960   78.2920  222.8360 N   0  0  0  0  0  0  0  0  0  0  0  0
  139.4860   71.5040  223.0060 C   0  0  0  0  0  0  0  0  0  0  0  0
  139.0520   70.2020  222.8680 C   0  0  0  0  0  0  0  0  0  0  0  0
  139.1970   69.2800  223.8950 C   0  0  0  0  0  0  0  0  0  0  0  0
  139.8040   69.7430  225.0680 C   0  0  0  0  0  0  0  0  0  0  0  0
  139.9740   68.8640  226.1250 C   0  0  0  0  0  0  0  0  0  0  0  0
  140.5740   69.3460  227.2710 C   0  0  0  0  0  0  0  0  0  0  0  0
  140.8130   68.2710  228.6410 Cl  0  0  0  0  0  0  0  0  0  0  0  0
  141.0030   70.6470  227.4000 C   0  0  0  0  0  0  0  0  0  0  0  0
  140.8360   71.5300  226.3470 C   0  0  0  0  0  0  0  0  0  0  0  0
  140.2340   71.0470  225.1980 C   0  0  0  0  0  0  0  0  0  0  0  0
  140.0660   71.8910  224.1700 N   0  0  0  0  0  0  0  0  0  0  0  0
  139.7430   74.1270  223.0990 H   0  0  0  0  0  0  0  0  0  0  0  0
  139.4382   74.3061  220.0663 H   0  0  0  0  0  0  0  0  0  0  0  0
  138.3233   75.2579  221.0817 H   0  0  0  0  0  0  0  0  0  0  0  0
  140.6027   76.2751  218.1519 H   0  0  0  0  0  0  0  0  0  0  0  0
  139.0664   76.1225  219.0581 H   0  0  0  0  0  0  0  0  0  0  0  0
  139.0135   78.1057  217.6325 H   0  0  0  0  0  0  0  0  0  0  0  0
  139.0369   78.5887  219.3623 H   0  0  0  0  0  0  0  0  0  0  0  0
  141.1049   78.8462  217.2439 H   0  0  0  0  0  0  0  0  0  0  0  0
  140.6423   79.9311  218.6626 H   0  0  0  0  0  0  0  0  0  0  0  0
  142.6534   77.8092  218.4341 H   0  0  0  0  0  0  0  0  0  0  0  0
  142.5884   79.3937  219.3712 H   0  0  0  0  0  0  0  0  0  0  0  0
  142.6821   77.1689  220.6052 H   0  0  0  0  0  0  0  0  0  0  0  0
  141.1270   80.6113  220.6585 H   0  0  0  0  0  0  0  0  0  0  0  0
  141.4854   79.3720  224.7028 H   0  0  0  0  0  0  0  0  0  0  0  0
  141.9270   77.3070  223.1260 H   0  0  0  0  0  0  0  0  0  0  0  0
  138.5814   69.8881  221.9246 H   0  0  0  0  0  0  0  0  0  0  0  0
  138.8530   68.2402  223.7925 H   0  0  0  0  0  0  0  0  0  0  0  0
  139.6422   67.8177  226.0536 H   0  0  0  0  0  0  0  0  0  0  0  0
  141.4759   70.9835  228.3344 H   0  0  0  0  0  0  0  0  0  0  0  0
  141.1691   72.5758  226.4206 H   0  0  0  0  0  0  0  0  0  0  0  0
  1  2  2  0
  2  3  1  0
  3  4  1  0
  4  5  1  0
  5  6  2  0
  5  7  1  0
  7  8  1  0
  8  9  1  0
  9 10  1  0
 10 11  1  0
 11 12  1  0
 12 13  1  0
 13 14  2  0
 14 15  1  0
 15 16  2  0
 16 17  1  0
  2 18  1  0
 18 19  2  0
 19 20  1  0
 20 21  2  0
 21 22  1  0
 22 23  2  0
 23 24  1  0
 23 25  1  0
 25 26  2  0
 26 27  1  0
 27 28  2  0
 12  7  1  0
 17 13  1  0
 28 18  1  0
 27 21  1  0
  3 29  1  0
  4 30  1  0
  4 31  1  0
  8 32  1  0
  8 33  1  0
  9 34  1  0
  9 35  1  0
 10 36  1  0
 10 37  1  0
 11 38  1  0
 11 39  1  0
 12 40  1  1
 14 41  1  0
 16 42  1  0
 17 43  1  0
 19 44  1  0
 20 45  1  0
 22 46  1  0
 25 47  1  0
 26 48  1  0
M  END
>  <smiles>  (46) 
O=C(NCC(=O)N1CCCC[C@H]1c1cnc[nH]1)c1ccc2cc(Cl)ccc2n1

>  <score_type>  (46) 
oracle

>  <origin>  (46) 
autodockgpu

>  <m_score__min__energy>  (46) 
-8.0800000000000001

>  <m_primary>  (46) 
energy

>  <rmsd>  (46) 
1.6080240102676913

>  <m_score__min__rmsd>  (46) 
1.6080240102676913

>  <meeko>  (46) 
{"free_energy": -7.65, "intermolecular_energy": -9.14, "internal_energy": -2.35, "cluster_size": 17, "cluster_id": 1, "rank_in_cluster": 11}

>  <energy>  (46) 
-6.45

>  <cluster_rmsd>  (46) 
0.0

>  <cluster>  (46) 
5

$$$$

     RDKit          3D

 48 51  0  0  0  0  0  0  0  0999 V2000
  142.9960   79.8750  218.1990 O   0  0  0  0  0  0  0  0  0  0  0  0
  142.2750   78.8920  218.4550 C   0  0  0  0  0  0  0  0  0  0  0  0
  140.9360   79.1050  218.8880 N   0  0  0  0  0  0  0  0  0  0  0  0
  140.3820   80.4380  219.0400 C   0  0  0  0  0  0  0  0  0  0  0  0
  140.0860   80.6400  220.4790 C   0  0  0  0  0  0  0  0  0  0  0  0
  138.9100   80.9050  220.8510 O   0  0  0  0  0  0  0  0  0  0  0  0
  141.0750   80.5510  221.4940 N   0  0  0  0  0  0  0  0  0  0  0  0
  141.3200   81.7120  222.3280 C   0  0  0  0  0  0  0  0  0  0  0  0
  141.3990   81.2690  223.7510 C   0  0  0  0  0  0  0  0  0  0  0  0
  142.5570   80.3420  223.9200 C   0  0  0  0  0  0  0  0  0  0  0  0
  142.9390   79.5580  222.7150 C   0  0  0  0  0  0  0  0  0  0  0  0
  141.8430   79.3390  221.7170 C   0  0  1  0  0  0  0  0  0  0  0  0
  141.0230   78.1530  221.9940 C   0  0  0  0  0  0  0  0  0  0  0  0
  139.7670   78.0720  222.5820 C   0  0  0  0  0  0  0  0  0  0  0  0
  139.3720   76.7820  222.6490 N   0  0  0  0  0  0  0  0  0  0  0  0
  140.3440   76.0460  222.1180 C   0  0  0  0  0  0  0  0  0  0  0  0
  141.3330   76.8490  221.7240 N   0  0  0  0  0  0  0  0  0  0  0  0
  142.7890   77.5300  218.3150 C   0  0  0  0  0  0  0  0  0  0  0  0
  142.8960   76.9720  217.0580 C   0  0  0  0  0  0  0  0  0  0  0  0
  143.3800   75.6830  216.8800 C   0  0  0  0  0  0  0  0  0  0  0  0
  143.7480   74.9900  218.0370 C   0  0  0  0  0  0  0  0  0  0  0  0
  144.2370   73.6990  217.9170 C   0  0  0  0  0  0  0  0  0  0  0  0
  144.5940   73.0370  219.0740 C   0  0  0  0  0  0  0  0  0  0  0  0
  145.2190   71.3960  218.9740 Cl  0  0  0  0  0  0  0  0  0  0  0  0
  144.4820   73.6010  220.3230 C   0  0  0  0  0  0  0  0  0  0  0  0
  143.9950   74.8900  220.4510 C   0  0  0  0  0  0  0  0  0  0  0  0
  143.6380   75.5550  219.2910 C   0  0  0  0  0  0  0  0  0  0  0  0
  143.1630   76.8040  219.3990 N   0  0  0  0  0  0  0  0  0  0  0  0
  140.3690   78.2320  219.0910 H   0  0  0  0  0  0  0  0  0  0  0  0
  141.1105   81.1880  218.6982 H   0  0  0  0  0  0  0  0  0  0  0  0
  139.4673   80.5467  218.4388 H   0  0  0  0  0  0  0  0  0  0  0  0
  142.2684   82.1856  222.0343 H   0  0  0  0  0  0  0  0  0  0  0  0
  140.5048   82.4405  222.2063 H   0  0  0  0  0  0  0  0  0  0  0  0
  141.5335   82.1460  224.4012 H   0  0  0  0  0  0  0  0  0  0  0  0
  140.4695   80.7485  224.0251 H   0  0  0  0  0  0  0  0  0  0  0  0
  143.4281   80.9416  224.2228 H   0  0  0  0  0  0  0  0  0  0  0  0
  142.2409   79.6023  224.6702 H   0  0  0  0  0  0  0  0  0  0  0  0
  143.7575   80.0908  222.2088 H   0  0  0  0  0  0  0  0  0  0  0  0
  143.2208   78.5593  223.0799 H   0  0  0  0  0  0  0  0  0  0  0  0
  142.3293   79.1026  220.7591 H   0  0  0  0  0  0  0  0  0  0  0  0
  139.1809   78.9312  222.9400 H   0  0  0  0  0  0  0  0  0  0  0  0
  140.3338   74.9505  222.0196 H   0  0  0  0  0  0  0  0  0  0  0  0
  142.2480   76.5970  221.2670 H   0  0  0  0  0  0  0  0  0  0  0  0
  142.5919   77.5599  216.1794 H   0  0  0  0  0  0  0  0  0  0  0  0
  143.4692   75.2308  215.8812 H   0  0  0  0  0  0  0  0  0  0  0  0
  144.3372   73.2181  216.9328 H   0  0  0  0  0  0  0  0  0  0  0  0
  144.7779   73.0306  221.2158 H   0  0  0  0  0  0  0  0  0  0  0  0
  143.8955   75.3677  221.4369 H   0  0  0  0  0  0  0  0  0  0  0  0
  1  2  2  0
  2  3  1  0
  3  4  1  0
  4  5  1  0
  5  6  2  0
  5  7  1  0
  7  8  1  0
  8  9  1  0
  9 10  1  0
 10 11  1  0
 11 12  1  0
 12 13  1  0
 13 14  2  0
 14 15  1  0
 15 16  2  0
 16 17  1  0
  2 18  1  0
 18 19  2  0
 19 20  1  0
 20 21  2  0
 21 22  1  0
 22 23  2  0
 23 24  1  0
 23 25  1  0
 25 26  2  0
 26 27  1  0
 27 28  2  0
 12  7  1  0
 17 13  1  0
 28 18  1  0
 27 21  1  0
  3 29  1  0
  4 30  1  0
  4 31  1  0
  8 32  1  0
  8 33  1  0
  9 34  1  0
  9 35  1  0
 10 36  1  0
 10 37  1  0
 11 38  1  0
 11 39  1  0
 12 40  1  6
 14 41  1  0
 16 42  1  0
 17 43  1  0
 19 44  1  0
 20 45  1  0
 22 46  1  0
 25 47  1  0
 26 48  1  0
M  END
>  <smiles>  (47) 
O=C(NCC(=O)N1CCCC[C@H]1c1cnc[nH]1)c1ccc2cc(Cl)ccc2n1

>  <score_type>  (47) 
oracle

>  <origin>  (47) 
autodockgpu

>  <m_score__min__energy>  (47) 
-8.0800000000000001

>  <m_primary>  (47) 
energy

>  <rmsd>  (47) 
8.085390716038475

>  <m_score__min__rmsd>  (47) 
8.085390716038475

>  <meeko>  (47) 
{"free_energy": -6.45, "intermolecular_energy": -7.95, "internal_energy": -2.64, "cluster_size": 1, "cluster_id": 5, "rank_in_cluster": 1}

>  <energy>  (47) 
-6.17

>  <cluster_rmsd>  (47) 
0.0

>  <cluster>  (47) 
6

$$$$

     RDKit          3D

 48 51  0  0  0  0  0  0  0  0999 V2000
  139.4950   71.9590  220.6970 O   0  0  0  0  0  0  0  0  0  0  0  0
  139.5690   72.3840  221.8660 C   0  0  0  0  0  0  0  0  0  0  0  0
  139.5330   73.7880  222.0980 N   0  0  0  0  0  0  0  0  0  0  0  0
  139.4110   74.7430  221.0120 C   0  0  0  0  0  0  0  0  0  0  0  0
  140.5860   75.6450  221.0730 C   0  0  0  0  0  0  0  0  0  0  0  0
  141.1610   75.8590  222.1750 O   0  0  0  0  0  0  0  0  0  0  0  0
  141.1190   76.3030  219.9320 N   0  0  0  0  0  0  0  0  0  0  0  0
  140.9060   77.7300  219.7920 C   0  0  0  0  0  0  0  0  0  0  0  0
  142.1950   78.3680  219.3920 C   0  0  0  0  0  0  0  0  0  0  0  0
  142.6170   77.8440  218.0600 C   0  0  0  0  0  0  0  0  0  0  0  0
  142.1580   76.4670  217.7320 C   0  0  0  0  0  0  0  0  0  0  0  0
  141.8640   75.5900  218.9110 C   0  0  1  0  0  0  0  0  0  0  0  0
  143.0400   74.8720  219.4180 C   0  0  0  0  0  0  0  0  0  0  0  0
  143.9740   74.1140  218.7220 C   0  0  0  0  0  0  0  0  0  0  0  0
  144.9000   73.6260  219.5750 N   0  0  0  0  0  0  0  0  0  0  0  0
  144.5760   74.0550  220.7920 C   0  0  0  0  0  0  0  0  0  0  0  0
  143.4720   74.7980  220.7130 N   0  0  0  0  0  0  0  0  0  0  0  0
  139.6910   71.4600  222.9920 C   0  0  0  0  0  0  0  0  0  0  0  0
  139.2300   70.1660  222.8600 C   0  0  0  0  0  0  0  0  0  0  0  0
  139.3260   69.2560  223.9040 C   0  0  0  0  0  0  0  0  0  0  0  0
  139.9120   69.7220  225.0850 C   0  0  0  0  0  0  0  0  0  0  0  0
  140.0330   68.8550  226.1590 C   0  0  0  0  0  0  0  0  0  0  0  0
  140.6150   69.3390  227.3130 C   0  0  0  0  0  0  0  0  0  0  0  0
  140.7910   68.2780  228.7040 Cl  0  0  0  0  0  0  0  0  0  0  0  0
  141.0710   70.6310  227.4360 C   0  0  0  0  0  0  0  0  0  0  0  0
  140.9530   71.5020  226.3670 C   0  0  0  0  0  0  0  0  0  0  0  0
  140.3700   71.0170  225.2090 C   0  0  0  0  0  0  0  0  0  0  0  0
  140.2490   71.8500  224.1660 N   0  0  0  0  0  0  0  0  0  0  0  0
  139.5990   74.0930  223.1130 H   0  0  0  0  0  0  0  0  0  0  0  0
  139.3941   74.2140  220.0477 H   0  0  0  0  0  0  0  0  0  0  0  0
  138.4779   75.3178  221.1065 H   0  0  0  0  0  0  0  0  0  0  0  0
  140.1450   77.9169  219.0201 H   0  0  0  0  0  0  0  0  0  0  0  0
  140.5580   78.1529  220.7459 H   0  0  0  0  0  0  0  0  0  0  0  0
  142.0613   79.4582  219.3316 H   0  0  0  0  0  0  0  0  0  0  0  0
  142.9674   78.1342  220.1395 H   0  0  0  0  0  0  0  0  0  0  0  0
  142.2236   78.5236  217.2897 H   0  0  0  0  0  0  0  0  0  0  0  0
  143.7154   77.7935  218.0925 H   0  0  0  0  0  0  0  0  0  0  0  0
  141.2393   76.5492  217.1326 H   0  0  0  0  0  0  0  0  0  0  0  0
  142.9923   75.9882  217.1985 H   0  0  0  0  0  0  0  0  0  0  0  0
  141.2029   74.7871  218.5528 H   0  0  0  0  0  0  0  0  0  0  0  0
  143.9609   73.9376  217.6363 H   0  0  0  0  0  0  0  0  0  0  0  0
  145.1304   73.8322  221.7156 H   0  0  0  0  0  0  0  0  0  0  0  0
  142.9470   75.2880  221.4830 H   0  0  0  0  0  0  0  0  0  0  0  0
  138.7775   69.8493  221.9087 H   0  0  0  0  0  0  0  0  0  0  0  0
  138.9604   68.2230  223.8073 H   0  0  0  0  0  0  0  0  0  0  0  0
  139.6773   67.8161  226.0941 H   0  0  0  0  0  0  0  0  0  0  0  0
  141.5266   70.9697  228.3782 H   0  0  0  0  0  0  0  0  0  0  0  0
  141.3091   72.5405  226.4350 H   0  0  0  0  0  0  0  0  0  0  0  0
  1  2  2  0
  2  3  1  0
  3  4  1  0
  4  5  1  0
  5  6  2  0
  5  7  1  0
  7  8  1  0
  8  9  1  0
  9 10  1  0
 10 11  1  0
 11 12  1  0
 12 13  1  0
 13 14  2  0
 14 15  1  0
 15 16  2  0
 16 17  1  0
  2 18  1  0
 18 19  2  0
 19 20  1  0
 20 21  2  0
 21 22  1  0
 22 23  2  0
 23 24  1  0
 23 25  1  0
 25 26  2  0
 26 27  1  0
 27 28  2  0
 12  7  1  0
 17 13  1  0
 28 18  1  0
 27 21  1  0
  3 29  1  0
  4 30  1  0
  4 31  1  0
  8 32  1  0
  8 33  1  0
  9 34  1  0
  9 35  1  0
 10 36  1  0
 10 37  1  0
 11 38  1  0
 11 39  1  0
 12 40  1  6
 14 41  1  0
 16 42  1  0
 17 43  1  0
 19 44  1  0
 20 45  1  0
 22 46  1  0
 25 47  1  0
 26 48  1  0
M  END
>  <smiles>  (48) 
O=C(NCC(=O)N1CCCC[C@H]1c1cnc[nH]1)c1ccc2cc(Cl)ccc2n1

>  <score_type>  (48) 
oracle

>  <origin>  (48) 
autodockgpu

>  <m_score__min__energy>  (48) 
-8.0800000000000001

>  <m_primary>  (48) 
energy

>  <rmsd>  (48) 
2.598437441921476

>  <m_score__min__rmsd>  (48) 
2.598437441921476

>  <meeko>  (48) 
{"free_energy": -7.65, "intermolecular_energy": -9.14, "internal_energy": -2.45, "cluster_size": 23, "cluster_id": 3, "rank_in_cluster": 5}

>  <energy>  (48) 
-6.05

>  <cluster_rmsd>  (48) 
0.39

>  <cluster>  (48) 
6

$$$$

     RDKit          3D

 48 51  0  0  0  0  0  0  0  0999 V2000
  139.0250   71.7920  220.8120 O   0  0  0  0  0  0  0  0  0  0  0  0
  139.3170   72.2320  221.9400 C   0  0  0  0  0  0  0  0  0  0  0  0
  139.4670   73.6350  222.1230 N   0  0  0  0  0  0  0  0  0  0  0  0
  139.2890   74.5740  221.0310 C   0  0  0  0  0  0  0  0  0  0  0  0
  140.2710   75.6690  221.2140 C   0  0  0  0  0  0  0  0  0  0  0  0
  140.6870   75.9580  222.3690 O   0  0  0  0  0  0  0  0  0  0  0  0
  140.7890   76.4360  220.1360 N   0  0  0  0  0  0  0  0  0  0  0  0
  140.5530   77.8660  220.1250 C   0  0  0  0  0  0  0  0  0  0  0  0
  141.8300   78.5590  219.7810 C   0  0  0  0  0  0  0  0  0  0  0  0
  142.2550   78.1630  218.4060 C   0  0  0  0  0  0  0  0  0  0  0  0
  141.8170   76.8140  217.9570 C   0  0  0  0  0  0  0  0  0  0  0  0
  141.5410   75.8290  219.0520 C   0  0  1  0  0  0  0  0  0  0  0  0
  142.7310   75.0880  219.4900 C   0  0  0  0  0  0  0  0  0  0  0  0
  143.6890   74.4350  218.7240 C   0  0  0  0  0  0  0  0  0  0  0  0
  144.6200   73.8780  219.5290 N   0  0  0  0  0  0  0  0  0  0  0  0
  144.2760   74.1620  220.7820 C   0  0  0  0  0  0  0  0  0  0  0  0
  143.1540   74.8820  220.7730 N   0  0  0  0  0  0  0  0  0  0  0  0
  139.5050   71.3230  223.0710 C   0  0  0  0  0  0  0  0  0  0  0  0
  139.0620   70.0210  222.9740 C   0  0  0  0  0  0  0  0  0  0  0  0
  139.2200   69.1250  224.0230 C   0  0  0  0  0  0  0  0  0  0  0  0
  139.8490   69.6150  225.1720 C   0  0  0  0  0  0  0  0  0  0  0  0
  140.0330   68.7640  226.2500 C   0  0  0  0  0  0  0  0  0  0  0  0
  140.6560   69.2730  227.3710 C   0  0  0  0  0  0  0  0  0  0  0  0
  140.9130   68.2320  228.7650 Cl  0  0  0  0  0  0  0  0  0  0  0  0
  141.0940   70.5740  227.4580 C   0  0  0  0  0  0  0  0  0  0  0  0
  140.9140   71.4290  226.3860 C   0  0  0  0  0  0  0  0  0  0  0  0
  140.2890   70.9200  225.2610 C   0  0  0  0  0  0  0  0  0  0  0  0
  140.1070   71.7380  224.2140 N   0  0  0  0  0  0  0  0  0  0  0  0
  139.7160   73.9520  223.1040 H   0  0  0  0  0  0  0  0  0  0  0  0
  139.4658   74.0689  220.0699 H   0  0  0  0  0  0  0  0  0  0  0  0
  138.2637   74.9723  221.0285 H   0  0  0  0  0  0  0  0  0  0  0  0
  139.7862   78.1089  219.3746 H   0  0  0  0  0  0  0  0  0  0  0  0
  140.2021   78.1957  221.1140 H   0  0  0  0  0  0  0  0  0  0  0  0
  141.6782   79.6478  219.8188 H   0  0  0  0  0  0  0  0  0  0  0  0
  142.6091   78.2726  220.5028 H   0  0  0  0  0  0  0  0  0  0  0  0
  141.8477   78.9023  217.7007 H   0  0  0  0  0  0  0  0  0  0  0  0
  143.3541   78.1275  218.4313 H   0  0  0  0  0  0  0  0  0  0  0  0
  140.8950   76.9350  217.3693 H   0  0  0  0  0  0  0  0  0  0  0  0
  142.6576   76.3990  217.3815 H   0  0  0  0  0  0  0  0  0  0  0  0
  140.8915   75.0511  218.6242 H   0  0  0  0  0  0  0  0  0  0  0  0
  143.6892   74.3798  217.6254 H   0  0  0  0  0  0  0  0  0  0  0  0
  144.8286   73.8525  221.6814 H   0  0  0  0  0  0  0  0  0  0  0  0
  142.6110   75.2710  221.5870 H   0  0  0  0  0  0  0  0  0  0  0  0
  138.5737   69.6853  222.0472 H   0  0  0  0  0  0  0  0  0  0  0  0
  138.8690   68.0848  223.9539 H   0  0  0  0  0  0  0  0  0  0  0  0
  139.6939   67.7182  226.2133 H   0  0  0  0  0  0  0  0  0  0  0  0
  141.5846   70.9323  228.3750 H   0  0  0  0  0  0  0  0  0  0  0  0
  141.2547   72.4741  226.4260 H   0  0  0  0  0  0  0  0  0  0  0  0
  1  2  2  0
  2  3  1  0
  3  4  1  0
  4  5  1  0
  5  6  2  0
  5  7  1  0
  7  8  1  0
  8  9  1  0
  9 10  1  0
 10 11  1  0
 11 12  1  0
 12 13  1  0
 13 14  2  0
 14 15  1  0
 15 16  2  0
 16 17  1  0
  2 18  1  0
 18 19  2  0
 19 20  1  0
 20 21  2  0
 21 22  1  0
 22 23  2  0
 23 24  1  0
 23 25  1  0
 25 26  2  0
 26 27  1  0
 27 28  2  0
 12  7  1  0
 17 13  1  0
 28 18  1  0
 27 21  1  0
  3 29  1  0
  4 30  1  0
  4 31  1  0
  8 32  1  0
  8 33  1  0
  9 34  1  0
  9 35  1  0
 10 36  1  0
 10 37  1  0
 11 38  1  0
 11 39  1  0
 12 40  1  6
 14 41  1  0
 16 42  1  0
 17 43  1  0
 19 44  1  0
 20 45  1  0
 22 46  1  0
 25 47  1  0
 26 48  1  0
M  END
>  <smiles>  (49) 
O=C(NCC(=O)N1CCCC[C@H]1c1cnc[nH]1)c1ccc2cc(Cl)ccc2n1

>  <score_type>  (49) 
oracle

>  <origin>  (49) 
autodockgpu

>  <m_score__min__energy>  (49) 
-8.0800000000000001

>  <m_primary>  (49) 
energy

>  <rmsd>  (49) 
2.5210619729184467

>  <m_score__min__rmsd>  (49) 
2.5210619729184467

>  <meeko>  (49) 
{"free_energy": -7.51, "intermolecular_energy": -9.0, "internal_energy": -2.62, "cluster_size": 23, "cluster_id": 3, "rank_in_cluster": 11}

>  <energy>  (49) 
-6.04

>  <cluster_rmsd>  (49) 
0.35

>  <cluster>  (49) 
6

$$$$

     RDKit          3D

 48 51  0  0  0  0  0  0  0  0999 V2000
  140.3470   72.2990  220.8210 O   0  0  0  0  0  0  0  0  0  0  0  0
  139.8280   72.5660  221.9220 C   0  0  0  0  0  0  0  0  0  0  0  0
  139.1540   73.8080  222.0890 N   0  0  0  0  0  0  0  0  0  0  0  0
  139.0500   74.7770  221.0130 C   0  0  0  0  0  0  0  0  0  0  0  0
  140.1460   75.7600  221.1860 C   0  0  0  0  0  0  0  0  0  0  0  0
  140.5480   76.0600  222.3430 O   0  0  0  0  0  0  0  0  0  0  0  0
  140.7890   76.4050  220.0950 N   0  0  0  0  0  0  0  0  0  0  0  0
  140.2520   76.2140  218.7620 C   0  0  0  0  0  0  0  0  0  0  0  0
  140.1930   77.5400  218.0770 C   0  0  0  0  0  0  0  0  0  0  0  0
  141.5750   78.0860  217.9320 C   0  0  0  0  0  0  0  0  0  0  0  0
  142.5530   77.6530  218.9660 C   0  0  0  0  0  0  0  0  0  0  0  0
  141.9610   77.2410  220.2790 C   0  0  1  0  0  0  0  0  0  0  0  0
  141.7610   78.3590  221.2100 C   0  0  0  0  0  0  0  0  0  0  0  0
  141.5150   79.6980  220.9340 C   0  0  0  0  0  0  0  0  0  0  0  0
  141.3920   80.3910  222.0870 N   0  0  0  0  0  0  0  0  0  0  0  0
  141.5550   79.5260  223.0840 C   0  0  0  0  0  0  0  0  0  0  0  0
  141.7740   78.3120  222.5760 N   0  0  0  0  0  0  0  0  0  0  0  0
  139.9050   71.6210  223.0350 C   0  0  0  0  0  0  0  0  0  0  0  0
  139.4680   70.3250  222.8550 C   0  0  0  0  0  0  0  0  0  0  0  0
  139.5230   69.3960  223.8840 C   0  0  0  0  0  0  0  0  0  0  0  0
  140.0430   69.8450  225.1030 C   0  0  0  0  0  0  0  0  0  0  0  0
  140.1210   68.9580  226.1650 C   0  0  0  0  0  0  0  0  0  0  0  0
  140.6390   69.4260  227.3550 C   0  0  0  0  0  0  0  0  0  0  0  0
  140.7590   68.3400  228.7330 Cl  0  0  0  0  0  0  0  0  0  0  0  0
  141.0720   70.7210  227.5250 C   0  0  0  0  0  0  0  0  0  0  0  0
  140.9970   71.6110  226.4690 C   0  0  0  0  0  0  0  0  0  0  0  0
  140.4780   71.1430  225.2750 C   0  0  0  0  0  0  0  0  0  0  0  0
  140.3990   71.9950  224.2420 N   0  0  0  0  0  0  0  0  0  0  0  0
  138.7310   73.9820  223.0460 H   0  0  0  0  0  0  0  0  0  0  0  0
  139.1504   74.2707  220.0416 H   0  0  0  0  0  0  0  0  0  0  0  0
  138.0723   75.2804  221.0403 H   0  0  0  0  0  0  0  0  0  0  0  0
  140.9028   75.5325  218.1945 H   0  0  0  0  0  0  0  0  0  0  0  0
  139.2443   75.7771  218.8221 H   0  0  0  0  0  0  0  0  0  0  0  0
  139.7401   77.4190  217.0819 H   0  0  0  0  0  0  0  0  0  0  0  0
  139.5845   78.2350  218.6742 H   0  0  0  0  0  0  0  0  0  0  0  0
  141.9605   77.7730  216.9505 H   0  0  0  0  0  0  0  0  0  0  0  0
  141.4798   79.1757  218.0479 H   0  0  0  0  0  0  0  0  0  0  0  0
  143.1152   76.7973  218.5639 H   0  0  0  0  0  0  0  0  0  0  0  0
  143.1782   78.5327  219.1786 H   0  0  0  0  0  0  0  0  0  0  0  0
  142.7099   76.6126  220.7832 H   0  0  0  0  0  0  0  0  0  0  0  0
  141.4326   80.1301  219.9258 H   0  0  0  0  0  0  0  0  0  0  0  0
  141.5156   79.7720  224.1554 H   0  0  0  0  0  0  0  0  0  0  0  0
  141.9420   77.4040  223.0820 H   0  0  0  0  0  0  0  0  0  0  0  0
  139.0680   70.0221  221.8761 H   0  0  0  0  0  0  0  0  0  0  0  0
  139.1761   68.3610  223.7487 H   0  0  0  0  0  0  0  0  0  0  0  0
  139.7816   67.9167  226.0627 H   0  0  0  0  0  0  0  0  0  0  0  0
  141.4755   71.0465  228.4952 H   0  0  0  0  0  0  0  0  0  0  0  0
  141.3372   72.6517  226.5745 H   0  0  0  0  0  0  0  0  0  0  0  0
  1  2  2  0
  2  3  1  0
  3  4  1  0
  4  5  1  0
  5  6  2  0
  5  7  1  0
  7  8  1  0
  8  9  1  0
  9 10  1  0
 10 11  1  0
 11 12  1  0
 12 13  1  0
 13 14  2  0
 14 15  1  0
 15 16  2  0
 16 17  1  0
  2 18  1  0
 18 19  2  0
 19 20  1  0
 20 21  2  0
 21 22  1  0
 22 23  2  0
 23 24  1  0
 23 25  1  0
 25 26  2  0
 26 27  1  0
 27 28  2  0
 12  7  1  0
 17 13  1  0
 28 18  1  0
 27 21  1  0
  3 29  1  0
  4 30  1  0
  4 31  1  0
  8 32  1  0
  8 33  1  0
  9 34  1  0
  9 35  1  0
 10 36  1  0
 10 37  1  0
 11 38  1  0
 11 39  1  0
 12 40  1  1
 14 41  1  0
 16 42  1  0
 17 43  1  0
 19 44  1  0
 20 45  1  0
 22 46  1  0
 25 47  1  0
 26 48  1  0
M  END
>  <smiles>  (50) 
O=C(NCC(=O)N1CCCC[C@H]1c1cnc[nH]1)c1ccc2cc(Cl)ccc2n1

>  <score_type>  (50) 
oracle

>  <origin>  (50) 
autodockgpu

>  <m_score__min__energy>  (50) 
-8.0800000000000001

>  <m_primary>  (50) 
energy

>  <rmsd>  (50) 
1.459882064497892

>  <m_score__min__rmsd>  (50) 
1.459882064497892

>  <meeko>  (50) 
{"free_energy": -7.9, "intermolecular_energy": -9.39, "internal_energy": -1.86, "cluster_size": 17, "cluster_id": 1, "rank_in_cluster": 6}

>  <energy>  (50) 
-5.94

>  <cluster_rmsd>  (50) 
0.0

>  <cluster>  (50) 
7

$$$$
