
     RDKit          3D

 55 58  0  0  0  0  0  0  0  0999 V2000
  139.5760   70.9290  221.2750 O   0  0  0  0  0  0  0  0  0  0  0  0
  139.4210   71.6640  222.2960 C   0  0  0  0  0  0  0  0  0  0  0  0
  138.9420   73.0120  222.1930 N   0  0  0  0  0  0  0  0  0  0  0  0
  138.6160   73.5820  220.8870 C   0  0  0  0  0  0  0  0  0  0  0  0
  139.8170   74.0270  220.1770 C   0  0  0  0  0  0  0  0  0  0  0  0
  139.6840   74.1030  218.8870 O   0  0  0  0  0  0  0  0  0  0  0  0
  141.0700   74.3780  220.6610 N   0  0  0  0  0  0  0  0  0  0  0  0
  142.0800   73.2680  220.6330 C   0  0  0  0  0  0  0  0  0  0  0  0
  143.4490   73.8980  220.5370 C   0  0  0  0  0  0  0  0  0  0  0  0
  143.5140   75.1670  219.7680 C   0  0  0  0  0  0  0  0  0  0  0  0
  142.4460   76.1760  220.0680 C   0  0  0  0  0  0  0  0  0  0  0  0
  141.5770   75.6060  221.1870 C   0  0  1  0  0  0  0  0  0  0  0  0
  140.6230   76.5850  221.7320 C   0  0  0  0  0  0  0  0  0  0  0  0
  141.0730   77.3280  222.7900 O   0  0  0  0  0  0  0  0  0  0  0  0
  141.2480   78.6250  223.0710 C   0  0  0  0  0  0  0  0  0  0  0  0
  140.2960   79.5650  223.3860 C   0  0  0  0  0  0  0  0  0  0  0  0
  140.5950   80.8890  223.6640 C   0  0  0  0  0  0  0  0  0  0  0  0
  141.8980   81.3300  223.6320 C   0  0  0  0  0  0  0  0  0  0  0  0
  142.8760   80.4140  223.3190 C   0  0  0  0  0  0  0  0  0  0  0  0
  142.5720   79.1120  223.0470 C   0  0  0  0  0  0  0  0  0  0  0  0
  139.7400   71.1280  223.6360 C   0  0  0  0  0  0  0  0  0  0  0  0
  139.4870   69.7990  223.9040 C   0  0  0  0  0  0  0  0  0  0  0  0
  139.7570   69.2260  225.1310 C   0  0  0  0  0  0  0  0  0  0  0  0
  140.3040   70.0580  226.1010 C   0  0  0  0  0  0  0  0  0  0  0  0
  140.6080   69.5720  227.3600 C   0  0  0  0  0  0  0  0  0  0  0  0
  141.1470   70.3660  228.3360 C   0  0  0  0  0  0  0  0  0  0  0  0
  141.3960   71.6980  228.0570 C   0  0  0  0  0  0  0  0  0  0  0  0
  141.0990   72.1800  226.8160 C   0  0  0  0  0  0  0  0  0  0  0  0
  140.5530   71.3880  225.8210 C   0  0  0  0  0  0  0  0  0  0  0  0
  140.2680   71.8940  224.6030 N   0  0  0  0  0  0  0  0  0  0  0  0
  138.8460   73.5410  223.0850 H   0  0  0  0  0  0  0  0  0  0  0  0
  138.1060   72.8182  220.2816 H   0  0  0  0  0  0  0  0  0  0  0  0
  137.9671   74.4559  221.0458 H   0  0  0  0  0  0  0  0  0  0  0  0
  142.0060   72.6703  221.5535 H   0  0  0  0  0  0  0  0  0  0  0  0
  141.8997   72.6035  219.7751 H   0  0  0  0  0  0  0  0  0  0  0  0
  143.8010   74.1021  221.5590 H   0  0  0  0  0  0  0  0  0  0  0  0
  144.0756   73.1791  219.9888 H   0  0  0  0  0  0  0  0  0  0  0  0
  144.4872   75.6360  219.9753 H   0  0  0  0  0  0  0  0  0  0  0  0
  143.3646   74.8827  218.7159 H   0  0  0  0  0  0  0  0  0  0  0  0
  142.9037   77.1220  220.3928 H   0  0  0  0  0  0  0  0  0  0  0  0
  141.8407   76.3774  219.1719 H   0  0  0  0  0  0  0  0  0  0  0  0
  142.1268   75.3791  222.1123 H   0  0  0  0  0  0  0  0  0  0  0  0
  140.3519   77.2791  220.9228 H   0  0  0  0  0  0  0  0  0  0  0  0
  139.7774   75.9965  222.1175 H   0  0  0  0  0  0  0  0  0  0  0  0
  139.2426   79.2500  223.4191 H   0  0  0  0  0  0  0  0  0  0  0  0
  139.7859   81.5918  223.9118 H   0  0  0  0  0  0  0  0  0  0  0  0
  142.1492   82.3787  223.8492 H   0  0  0  0  0  0  0  0  0  0  0  0
  143.9265   80.7387  223.2874 H   0  0  0  0  0  0  0  0  0  0  0  0
  143.3883   78.4172  222.8002 H   0  0  0  0  0  0  0  0  0  0  0  0
  139.0539   69.1720  223.1107 H   0  0  0  0  0  0  0  0  0  0  0  0
  139.5496   68.1644  225.3308 H   0  0  0  0  0  0  0  0  0  0  0  0
  140.4102   68.5134  227.5840 H   0  0  0  0  0  0  0  0  0  0  0  0
  141.3789   69.9510  229.3280 H   0  0  0  0  0  0  0  0  0  0  0  0
  141.8268   72.3582  228.8242 H   0  0  0  0  0  0  0  0  0  0  0  0
  141.3013   73.2390  226.5976 H   0  0  0  0  0  0  0  0  0  0  0  0
  1  2  2  0
  2  3  1  0
  3  4  1  0
  4  5  1  0
  5  6  2  0
  5  7  1  0
  7  8  1  0
  8  9  1  0
  9 10  1  0
 10 11  1  0
 11 12  1  0
 12 13  1  0
 13 14  1  0
 14 15  1  0
 15 16  2  0
 16 17  1  0
 17 18  2  0
 18 19  1  0
 19 20  2  0
  2 21  1  0
 21 22  2  0
 22 23  1  0
 23 24  2  0
 24 25  1  0
 25 26  2  0
 26 27  1  0
 27 28  2  0
 28 29  1  0
 29 30  2  0
 12  7  1  0
 20 15  1  0
 30 21  1  0
 29 24  1  0
  3 31  1  0
  4 32  1  0
  4 33  1  0
  8 34  1  0
  8 35  1  0
  9 36  1  0
  9 37  1  0
 10 38  1  0
 10 39  1  0
 11 40  1  0
 11 41  1  0
 12 42  1  1
 13 43  1  0
 13 44  1  0
 16 45  1  0
 17 46  1  0
 18 47  1  0
 19 48  1  0
 20 49  1  0
 22 50  1  0
 23 51  1  0
 25 52  1  0
 26 53  1  0
 27 54  1  0
 28 55  1  0
M  END
>  <smiles>  (1) 
O=C(NCC(=O)N1CCCC[C@H]1COc1ccccc1)c1ccc2ccccc2n1

>  <score_type>  (1) 
oracle

>  <origin>  (1) 
autodockgpu

>  <m_score__min__energy>  (1) 
-9.1300000000000008

>  <m_primary>  (1) 
energy

>  <rmsd>  (1) 
2.4691721462122835

>  <m_score__min__rmsd>  (1) 
2.4691721462122835

>  <meeko>  (1) 
{"free_energy": -8.9, "intermolecular_energy": -10.99, "internal_energy": -1.72, "cluster_size": 32, "cluster_id": 1, "rank_in_cluster": 6}

>  <energy>  (1) 
-9.13

>  <cluster_rmsd>  (1) 
0.0

>  <cluster>  (1) 
1

$$$$

     RDKit          3D

 55 58  0  0  0  0  0  0  0  0999 V2000
  140.3000   71.0230  221.2720 O   0  0  0  0  0  0  0  0  0  0  0  0
  140.0320   71.6760  222.3250 C   0  0  0  0  0  0  0  0  0  0  0  0
  139.8010   73.0910  222.2990 N   0  0  0  0  0  0  0  0  0  0  0  0
  139.8700   73.8280  221.0390 C   0  0  0  0  0  0  0  0  0  0  0  0
  140.5400   75.1190  221.2050 C   0  0  0  0  0  0  0  0  0  0  0  0
  140.3020   75.7100  222.3380 O   0  0  0  0  0  0  0  0  0  0  0  0
  141.3860   75.8110  220.3490 N   0  0  0  0  0  0  0  0  0  0  0  0
  142.7830   75.2670  220.2830 C   0  0  0  0  0  0  0  0  0  0  0  0
  143.3540   75.6330  218.9330 C   0  0  0  0  0  0  0  0  0  0  0  0
  142.3720   75.6790  217.8180 C   0  0  0  0  0  0  0  0  0  0  0  0
  141.0840   76.3920  218.1020 C   0  0  0  0  0  0  0  0  0  0  0  0
  141.1730   76.9540  219.5190 C   0  0  1  0  0  0  0  0  0  0  0  0
  140.0650   77.8660  219.8480 C   0  0  0  0  0  0  0  0  0  0  0  0
  140.0720   78.3760  221.1180 O   0  0  0  0  0  0  0  0  0  0  0  0
  140.9500   78.9880  221.9230 C   0  0  0  0  0  0  0  0  0  0  0  0
  141.8510   79.9760  221.6040 C   0  0  0  0  0  0  0  0  0  0  0  0
  142.7160   80.5430  222.5270 C   0  0  0  0  0  0  0  0  0  0  0  0
  142.7080   80.1250  223.8370 C   0  0  0  0  0  0  0  0  0  0  0  0
  141.8180   79.1360  224.1890 C   0  0  0  0  0  0  0  0  0  0  0  0
  140.9700   78.5840  223.2740 C   0  0  0  0  0  0  0  0  0  0  0  0
  139.9540   70.9700  223.6210 C   0  0  0  0  0  0  0  0  0  0  0  0
  139.4420   69.6900  223.6570 C   0  0  0  0  0  0  0  0  0  0  0  0
  139.3360   68.9680  224.8290 C   0  0  0  0  0  0  0  0  0  0  0  0
  139.7750   69.5940  225.9900 C   0  0  0  0  0  0  0  0  0  0  0  0
  139.7080   68.9470  227.2110 C   0  0  0  0  0  0  0  0  0  0  0  0
  140.1310   69.5380  228.3720 C   0  0  0  0  0  0  0  0  0  0  0  0
  140.6420   70.8220  228.3240 C   0  0  0  0  0  0  0  0  0  0  0  0
  140.7100   71.4620  227.1220 C   0  0  0  0  0  0  0  0  0  0  0  0
  140.2850   70.8770  225.9410 C   0  0  0  0  0  0  0  0  0  0  0  0
  140.3640   71.5370  224.7670 N   0  0  0  0  0  0  0  0  0  0  0  0
  139.5870   73.5440  223.2130 H   0  0  0  0  0  0  0  0  0  0  0  0
  140.4279   73.2282  220.3049 H   0  0  0  0  0  0  0  0  0  0  0  0
  138.8425   74.0158  220.6939 H   0  0  0  0  0  0  0  0  0  0  0  0
  143.3959   75.7100  221.0818 H   0  0  0  0  0  0  0  0  0  0  0  0
  142.7785   74.1752  220.4167 H   0  0  0  0  0  0  0  0  0  0  0  0
  143.8176   76.6269  219.0185 H   0  0  0  0  0  0  0  0  0  0  0  0
  144.0660   74.8343  218.6778 H   0  0  0  0  0  0  0  0  0  0  0  0
  142.8537   76.1818  216.9665 H   0  0  0  0  0  0  0  0  0  0  0  0
  142.0939   74.6322  217.6260 H   0  0  0  0  0  0  0  0  0  0  0  0
  140.9413   77.2109  217.3815 H   0  0  0  0  0  0  0  0  0  0  0  0
  140.2316   75.7027  218.0116 H   0  0  0  0  0  0  0  0  0  0  0  0
  142.0112   77.6490  219.6754 H   0  0  0  0  0  0  0  0  0  0  0  0
  140.1027   78.7108  219.1446 H   0  0  0  0  0  0  0  0  0  0  0  0
  139.1483   77.2627  219.7728 H   0  0  0  0  0  0  0  0  0  0  0  0
  141.8874   80.3345  220.5647 H   0  0  0  0  0  0  0  0  0  0  0  0
  143.4132   81.3323  222.2095 H   0  0  0  0  0  0  0  0  0  0  0  0
  143.3900   80.5663  224.5787 H   0  0  0  0  0  0  0  0  0  0  0  0
  141.7898   78.7831  225.2305 H   0  0  0  0  0  0  0  0  0  0  0  0
  140.2768   77.7953  223.6018 H   0  0  0  0  0  0  0  0  0  0  0  0
  139.1057   69.2273  222.7174 H   0  0  0  0  0  0  0  0  0  0  0  0
  138.9246   67.9479  224.8434 H   0  0  0  0  0  0  0  0  0  0  0  0
  139.3021   67.9254  227.2507 H   0  0  0  0  0  0  0  0  0  0  0  0
  140.0652   68.9990  229.3286 H   0  0  0  0  0  0  0  0  0  0  0  0
  140.9884   71.3196  229.2418 H   0  0  0  0  0  0  0  0  0  0  0  0
  141.1184   72.4828  227.0891 H   0  0  0  0  0  0  0  0  0  0  0  0
  1  2  2  0
  2  3  1  0
  3  4  1  0
  4  5  1  0
  5  6  2  0
  5  7  1  0
  7  8  1  0
  8  9  1  0
  9 10  1  0
 10 11  1  0
 11 12  1  0
 12 13  1  0
 13 14  1  0
 14 15  1  0
 15 16  2  0
 16 17  1  0
 17 18  2  0
 18 19  1  0
 19 20  2  0
  2 21  1  0
 21 22  2  0
 22 23  1  0
 23 24  2  0
 24 25  1  0
 25 26  2  0
 26 27  1  0
 27 28  2  0
 28 29  1  0
 29 30  2  0
 12  7  1  0
 20 15  1  0
 30 21  1  0
 29 24  1  0
  3 31  1  0
  4 32  1  0
  4 33  1  0
  8 34  1  0
  8 35  1  0
  9 36  1  0
  9 37  1  0
 10 38  1  0
 10 39  1  0
 11 40  1  0
 11 41  1  0
 12 42  1  6
 13 43  1  0
 13 44  1  0
 16 45  1  0
 17 46  1  0
 18 47  1  0
 19 48  1  0
 20 49  1  0
 22 50  1  0
 23 51  1  0
 25 52  1  0
 26 53  1  0
 27 54  1  0
 28 55  1  0
M  END
>  <smiles>  (2) 
O=C(NCC(=O)N1CCCC[C@H]1COc1ccccc1)c1ccc2ccccc2n1

>  <score_type>  (2) 
oracle

>  <origin>  (2) 
autodockgpu

>  <m_score__min__energy>  (2) 
-9.1300000000000008

>  <m_primary>  (2) 
energy

>  <rmsd>  (2) 
2.0321479477417363

>  <m_score__min__rmsd>  (2) 
2.0321479477417363

>  <meeko>  (2) 
{"free_energy": -8.59, "intermolecular_energy": -10.67, "internal_energy": -2.08, "cluster_size": 32, "cluster_id": 1, "rank_in_cluster": 20}

>  <energy>  (2) 
-9.03

>  <cluster_rmsd>  (2) 
1.17

>  <cluster>  (2) 
1

$$$$

     RDKit          3D

 55 58  0  0  0  0  0  0  0  0999 V2000
  140.8110   71.5040  221.3360 O   0  0  0  0  0  0  0  0  0  0  0  0
  140.3550   72.0910  222.3630 C   0  0  0  0  0  0  0  0  0  0  0  0
  139.9460   73.4650  222.3300 N   0  0  0  0  0  0  0  0  0  0  0  0
  140.0460   74.2370  221.0930 C   0  0  0  0  0  0  0  0  0  0  0  0
  140.0400   75.6770  221.3540 C   0  0  0  0  0  0  0  0  0  0  0  0
  139.9240   75.9990  222.6070 O   0  0  0  0  0  0  0  0  0  0  0  0
  140.1360   76.7510  220.4780 N   0  0  0  0  0  0  0  0  0  0  0  0
  138.8230   77.2160  219.9190 C   0  0  0  0  0  0  0  0  0  0  0  0
  138.9670   78.6770  219.5660 C   0  0  0  0  0  0  0  0  0  0  0  0
  139.8760   79.4570  220.4450 C   0  0  0  0  0  0  0  0  0  0  0  0
  141.1950   78.8180  220.7650 C   0  0  0  0  0  0  0  0  0  0  0  0
  141.2590   77.4950  220.0050 C   0  0  1  0  0  0  0  0  0  0  0  0
  142.5900   76.8670  220.0530 C   0  0  0  0  0  0  0  0  0  0  0  0
  142.6050   75.4990  219.9950 O   0  0  0  0  0  0  0  0  0  0  0  0
  143.5060   74.5230  220.1560 C   0  0  0  0  0  0  0  0  0  0  0  0
  144.8430   74.6390  220.4570 C   0  0  0  0  0  0  0  0  0  0  0  0
  145.6870   73.5500  220.6040 C   0  0  0  0  0  0  0  0  0  0  0  0
  145.2070   72.2710  220.4480 C   0  0  0  0  0  0  0  0  0  0  0  0
  143.8720   72.1190  220.1460 C   0  0  0  0  0  0  0  0  0  0  0  0
  143.0490   73.1970  220.0030 C   0  0  0  0  0  0  0  0  0  0  0  0
  140.2380   71.3480  223.6350 C   0  0  0  0  0  0  0  0  0  0  0  0
  139.6440   70.1040  223.6330 C   0  0  0  0  0  0  0  0  0  0  0  0
  139.4980   69.3510  224.7810 C   0  0  0  0  0  0  0  0  0  0  0  0
  139.9830   69.9080  225.9590 C   0  0  0  0  0  0  0  0  0  0  0  0
  139.8810   69.2260  227.1580 C   0  0  0  0  0  0  0  0  0  0  0  0
  140.3490   69.7470  228.3340 C   0  0  0  0  0  0  0  0  0  0  0  0
  140.9430   70.9970  228.3250 C   0  0  0  0  0  0  0  0  0  0  0  0
  141.0460   71.6710  227.1440 C   0  0  0  0  0  0  0  0  0  0  0  0
  140.5760   71.1560  225.9480 C   0  0  0  0  0  0  0  0  0  0  0  0
  140.6920   71.8470  224.7960 N   0  0  0  0  0  0  0  0  0  0  0  0
  139.5830   73.8640  223.2220 H   0  0  0  0  0  0  0  0  0  0  0  0
  140.9826   73.9710  220.5811 H   0  0  0  0  0  0  0  0  0  0  0  0
  139.1739   73.9975  220.4668 H   0  0  0  0  0  0  0  0  0  0  0  0
  138.5724   76.6358  219.0187 H   0  0  0  0  0  0  0  0  0  0  0  0
  138.0185   77.0748  220.6558 H   0  0  0  0  0  0  0  0  0  0  0  0
  139.3512   78.7416  218.5373 H   0  0  0  0  0  0  0  0  0  0  0  0
  137.9681   79.1199  219.6926 H   0  0  0  0  0  0  0  0  0  0  0  0
  140.0796   80.4178  219.9496 H   0  0  0  0  0  0  0  0  0  0  0  0
  139.3506   79.5470  221.4072 H   0  0  0  0  0  0  0  0  0  0  0  0
  142.0179   79.4747  220.4462 H   0  0  0  0  0  0  0  0  0  0  0  0
  141.2916   78.6486  221.8476 H   0  0  0  0  0  0  0  0  0  0  0  0
  141.1635   77.5979  218.9140 H   0  0  0  0  0  0  0  0  0  0  0  0
  143.1738   77.2475  219.2019 H   0  0  0  0  0  0  0  0  0  0  0  0
  143.0093   77.1294  221.0355 H   0  0  0  0  0  0  0  0  0  0  0  0
  145.2634   75.6471  220.5876 H   0  0  0  0  0  0  0  0  0  0  0  0
  146.7479   73.7097  220.8471 H   0  0  0  0  0  0  0  0  0  0  0  0
  145.8672   71.3984  220.5606 H   0  0  0  0  0  0  0  0  0  0  0  0
  143.4609   71.1069  220.0174 H   0  0  0  0  0  0  0  0  0  0  0  0
  141.9900   73.0264  219.7594 H   0  0  0  0  0  0  0  0  0  0  0  0
  139.2725   69.6961  222.6814 H   0  0  0  0  0  0  0  0  0  0  0  0
  139.0216   68.3596  224.7645 H   0  0  0  0  0  0  0  0  0  0  0  0
  139.4084   68.2327  227.1667 H   0  0  0  0  0  0  0  0  0  0  0  0
  140.2544   69.1807  229.2722 H   0  0  0  0  0  0  0  0  0  0  0  0
  141.3261   71.4400  229.2561 H   0  0  0  0  0  0  0  0  0  0  0  0
  141.5213   72.6630  227.1416 H   0  0  0  0  0  0  0  0  0  0  0  0
  1  2  2  0
  2  3  1  0
  3  4  1  0
  4  5  1  0
  5  6  2  0
  5  7  1  0
  7  8  1  0
  8  9  1  0
  9 10  1  0
 10 11  1  0
 11 12  1  0
 12 13  1  0
 13 14  1  0
 14 15  1  0
 15 16  2  0
 16 17  1  0
 17 18  2  0
 18 19  1  0
 19 20  2  0
  2 21  1  0
 21 22  2  0
 22 23  1  0
 23 24  2  0
 24 25  1  0
 25 26  2  0
 26 27  1  0
 27 28  2  0
 28 29  1  0
 29 30  2  0
 12  7  1  0
 20 15  1  0
 30 21  1  0
 29 24  1  0
  3 31  1  0
  4 32  1  0
  4 33  1  0
  8 34  1  0
  8 35  1  0
  9 36  1  0
  9 37  1  0
 10 38  1  0
 10 39  1  0
 11 40  1  0
 11 41  1  0
 12 42  1  6
 13 43  1  0
 13 44  1  0
 16 45  1  0
 17 46  1  0
 18 47  1  0
 19 48  1  0
 20 49  1  0
 22 50  1  0
 23 51  1  0
 25 52  1  0
 26 53  1  0
 27 54  1  0
 28 55  1  0
M  END
>  <smiles>  (3) 
O=C(NCC(=O)N1CCCC[C@H]1COc1ccccc1)c1ccc2ccccc2n1

>  <score_type>  (3) 
oracle

>  <origin>  (3) 
autodockgpu

>  <m_score__min__energy>  (3) 
-9.1300000000000008

>  <m_primary>  (3) 
energy

>  <rmsd>  (3) 
2.088941519374498

>  <m_score__min__rmsd>  (3) 
2.088941519374498

>  <meeko>  (3) 
{"free_energy": -7.98, "intermolecular_energy": -10.06, "internal_energy": -2.4, "cluster_size": 13, "cluster_id": 4, "rank_in_cluster": 7}

>  <energy>  (3) 
-9.0

>  <cluster_rmsd>  (3) 
1.08

>  <cluster>  (3) 
1

$$$$

     RDKit          3D

 55 58  0  0  0  0  0  0  0  0999 V2000
  140.9030   71.4460  221.3590 O   0  0  0  0  0  0  0  0  0  0  0  0
  140.4020   72.0130  222.3760 C   0  0  0  0  0  0  0  0  0  0  0  0
  140.0020   73.3900  222.3550 N   0  0  0  0  0  0  0  0  0  0  0  0
  140.1650   74.1880  221.1420 C   0  0  0  0  0  0  0  0  0  0  0  0
  140.1940   75.6210  221.4380 C   0  0  0  0  0  0  0  0  0  0  0  0
  139.9510   75.9210  222.6790 O   0  0  0  0  0  0  0  0  0  0  0  0
  140.4390   76.7080  220.6090 N   0  0  0  0  0  0  0  0  0  0  0  0
  141.6810   76.5860  219.7760 C   0  0  0  0  0  0  0  0  0  0  0  0
  141.4840   77.4240  218.5350 C   0  0  0  0  0  0  0  0  0  0  0  0
  140.0890   77.4970  218.0310 C   0  0  0  0  0  0  0  0  0  0  0  0
  139.0270   77.7490  219.0600 C   0  0  0  0  0  0  0  0  0  0  0  0
  139.7260   77.9290  220.4050 C   0  0  1  0  0  0  0  0  0  0  0  0
  138.8210   78.4010  221.4660 C   0  0  0  0  0  0  0  0  0  0  0  0
  139.3550   79.3040  222.3460 O   0  0  0  0  0  0  0  0  0  0  0  0
  140.5770   79.6640  222.7570 C   0  0  0  0  0  0  0  0  0  0  0  0
  141.7600   78.9770  222.6160 C   0  0  0  0  0  0  0  0  0  0  0  0
  142.9760   79.4510  223.0820 C   0  0  0  0  0  0  0  0  0  0  0  0
  143.0500   80.6650  223.7240 C   0  0  0  0  0  0  0  0  0  0  0  0
  141.8830   81.3790  223.8810 C   0  0  0  0  0  0  0  0  0  0  0  0
  140.6910   80.9040  223.4200 C   0  0  0  0  0  0  0  0  0  0  0  0
  140.2200   71.2430  223.6240 C   0  0  0  0  0  0  0  0  0  0  0  0
  139.5750   70.0250  223.5730 C   0  0  0  0  0  0  0  0  0  0  0  0
  139.3680   69.2490  224.6950 C   0  0  0  0  0  0  0  0  0  0  0  0
  139.8440   69.7540  225.9000 C   0  0  0  0  0  0  0  0  0  0  0  0
  139.6820   69.0460  227.0770 C   0  0  0  0  0  0  0  0  0  0  0  0
  140.1390   69.5160  228.2790 C   0  0  0  0  0  0  0  0  0  0  0  0
  140.7850   70.7390  228.3190 C   0  0  0  0  0  0  0  0  0  0  0  0
  140.9470   71.4390  227.1600 C   0  0  0  0  0  0  0  0  0  0  0  0
  140.4880   70.9760  225.9390 C   0  0  0  0  0  0  0  0  0  0  0  0
  140.6630   71.6920  224.8090 N   0  0  0  0  0  0  0  0  0  0  0  0
  139.6000   73.7710  223.2380 H   0  0  0  0  0  0  0  0  0  0  0  0
  141.1092   73.9055  220.6534 H   0  0  0  0  0  0  0  0  0  0  0  0
  139.3065   73.9907  220.4832 H   0  0  0  0  0  0  0  0  0  0  0  0
  142.5497   76.9531  220.3422 H   0  0  0  0  0  0  0  0  0  0  0  0
  141.8635   75.5351  219.5070 H   0  0  0  0  0  0  0  0  0  0  0  0
  141.8175   78.4477  218.7602 H   0  0  0  0  0  0  0  0  0  0  0  0
  142.0677   76.9335  217.7421 H   0  0  0  0  0  0  0  0  0  0  0  0
  140.0409   78.3107  217.2924 H   0  0  0  0  0  0  0  0  0  0  0  0
  139.8712   76.5001  217.6201 H   0  0  0  0  0  0  0  0  0  0  0  0
  138.4644   78.6590  218.8042 H   0  0  0  0  0  0  0  0  0  0  0  0
  138.3189   76.9082  219.1004 H   0  0  0  0  0  0  0  0  0  0  0  0
  140.4524   78.7548  220.4274 H   0  0  0  0  0  0  0  0  0  0  0  0
  137.9523   78.8729  220.9836 H   0  0  0  0  0  0  0  0  0  0  0  0
  138.5721   77.5120  222.0641 H   0  0  0  0  0  0  0  0  0  0  0  0
  141.7400   78.0018  222.1075 H   0  0  0  0  0  0  0  0  0  0  0  0
  143.8876   78.8526  222.9375 H   0  0  0  0  0  0  0  0  0  0  0  0
  144.0087   81.0524  224.0993 H   0  0  0  0  0  0  0  0  0  0  0  0
  141.9131   82.3539  224.3895 H   0  0  0  0  0  0  0  0  0  0  0  0
  139.7852   81.5097  223.5705 H   0  0  0  0  0  0  0  0  0  0  0  0
  139.2120   69.6585  222.6015 H   0  0  0  0  0  0  0  0  0  0  0  0
  138.8521   68.2791  224.6390 H   0  0  0  0  0  0  0  0  0  0  0  0
  139.1692   68.0733  227.0464 H   0  0  0  0  0  0  0  0  0  0  0  0
  139.9948   68.9303  229.1989 H   0  0  0  0  0  0  0  0  0  0  0  0
  141.1621   71.1404  229.2712 H   0  0  0  0  0  0  0  0  0  0  0  0
  141.4628   72.4099  227.1969 H   0  0  0  0  0  0  0  0  0  0  0  0
  1  2  2  0
  2  3  1  0
  3  4  1  0
  4  5  1  0
  5  6  2  0
  5  7  1  0
  7  8  1  0
  8  9  1  0
  9 10  1  0
 10 11  1  0
 11 12  1  0
 12 13  1  0
 13 14  1  0
 14 15  1  0
 15 16  2  0
 16 17  1  0
 17 18  2  0
 18 19  1  0
 19 20  2  0
  2 21  1  0
 21 22  2  0
 22 23  1  0
 23 24  2  0
 24 25  1  0
 25 26  2  0
 26 27  1  0
 27 28  2  0
 28 29  1  0
 29 30  2  0
 12  7  1  0
 20 15  1  0
 30 21  1  0
 29 24  1  0
  3 31  1  0
  4 32  1  0
  4 33  1  0
  8 34  1  0
  8 35  1  0
  9 36  1  0
  9 37  1  0
 10 38  1  0
 10 39  1  0
 11 40  1  0
 11 41  1  0
 12 42  1  6
 13 43  1  0
 13 44  1  0
 16 45  1  0
 17 46  1  0
 18 47  1  0
 19 48  1  0
 20 49  1  0
 22 50  1  0
 23 51  1  0
 25 52  1  0
 26 53  1  0
 27 54  1  0
 28 55  1  0
M  END
>  <smiles>  (4) 
O=C(NCC(=O)N1CCCC[C@H]1COc1ccccc1)c1ccc2ccccc2n1

>  <score_type>  (4) 
oracle

>  <origin>  (4) 
autodockgpu

>  <m_score__min__energy>  (4) 
-9.1300000000000008

>  <m_primary>  (4) 
energy

>  <rmsd>  (4) 
2.2438213876564106

>  <m_score__min__rmsd>  (4) 
2.2438213876564106

>  <meeko>  (4) 
{"free_energy": -8.36, "intermolecular_energy": -10.45, "internal_energy": -2.15, "cluster_size": 32, "cluster_id": 1, "rank_in_cluster": 29}

>  <energy>  (4) 
-8.97

>  <cluster_rmsd>  (4) 
0.29

>  <cluster>  (4) 
1

$$$$

     RDKit          3D

 55 58  0  0  0  0  0  0  0  0999 V2000
  138.5780   72.4310  222.0030 O   0  0  0  0  0  0  0  0  0  0  0  0
  139.7000   72.1280  222.5080 C   0  0  0  0  0  0  0  0  0  0  0  0
  140.9350   72.5350  221.9040 N   0  0  0  0  0  0  0  0  0  0  0  0
  140.9330   73.3190  220.6710 C   0  0  0  0  0  0  0  0  0  0  0  0
  142.1110   74.1820  220.5780 C   0  0  0  0  0  0  0  0  0  0  0  0
  143.2410   73.5810  220.8020 O   0  0  0  0  0  0  0  0  0  0  0  0
  142.2140   75.5370  220.2890 N   0  0  0  0  0  0  0  0  0  0  0  0
  143.2810   75.8790  219.2910 C   0  0  0  0  0  0  0  0  0  0  0  0
  142.8720   77.1610  218.6060 C   0  0  0  0  0  0  0  0  0  0  0  0
  141.4080   77.3510  218.4310 C   0  0  0  0  0  0  0  0  0  0  0  0
  140.5570   77.0510  219.6290 C   0  0  0  0  0  0  0  0  0  0  0  0
  141.4930   76.6710  220.7740 C   0  0  1  0  0  0  0  0  0  0  0  0
  140.8040   76.5650  222.0700 C   0  0  0  0  0  0  0  0  0  0  0  0
  140.3540   77.7430  222.6020 O   0  0  0  0  0  0  0  0  0  0  0  0
  140.8880   78.9060  222.9960 C   0  0  0  0  0  0  0  0  0  0  0  0
  140.2400   80.0280  223.4570 C   0  0  0  0  0  0  0  0  0  0  0  0
  140.9000   81.1840  223.8420 C   0  0  0  0  0  0  0  0  0  0  0  0
  142.2710   81.2570  223.7760 C   0  0  0  0  0  0  0  0  0  0  0  0
  142.9510   80.1510  223.3180 C   0  0  0  0  0  0  0  0  0  0  0  0
  142.2930   79.0170  222.9410 C   0  0  0  0  0  0  0  0  0  0  0  0
  139.7490   71.3350  223.7540 C   0  0  0  0  0  0  0  0  0  0  0  0
  139.1810   70.0790  223.7720 C   0  0  0  0  0  0  0  0  0  0  0  0
  139.1870   69.2790  224.8970 C   0  0  0  0  0  0  0  0  0  0  0  0
  139.8000   69.8010  226.0310 C   0  0  0  0  0  0  0  0  0  0  0  0
  139.8540   69.0710  227.2050 C   0  0  0  0  0  0  0  0  0  0  0  0
  140.4510   69.5570  228.3370 C   0  0  0  0  0  0  0  0  0  0  0  0
  141.0170   70.8190  228.3080 C   0  0  0  0  0  0  0  0  0  0  0  0
  140.9660   71.5400  227.1520 C   0  0  0  0  0  0  0  0  0  0  0  0
  140.3660   71.0610  226.0000 C   0  0  0  0  0  0  0  0  0  0  0  0
  140.3300   71.7990  224.8720 N   0  0  0  0  0  0  0  0  0  0  0  0
  141.8100   72.2400  222.3900 H   0  0  0  0  0  0  0  0  0  0  0  0
  140.9251   72.6323  219.8117 H   0  0  0  0  0  0  0  0  0  0  0  0
  140.0380   73.9585  220.6720 H   0  0  0  0  0  0  0  0  0  0  0  0
  144.2438   76.0188  219.8044 H   0  0  0  0  0  0  0  0  0  0  0  0
  143.3966   75.0685  218.5563 H   0  0  0  0  0  0  0  0  0  0  0  0
  143.2544   78.0019  219.2032 H   0  0  0  0  0  0  0  0  0  0  0  0
  143.2947   77.1111  217.5917 H   0  0  0  0  0  0  0  0  0  0  0  0
  141.2362   78.4008  218.1508 H   0  0  0  0  0  0  0  0  0  0  0  0
  141.1049   76.6241  217.6631 H   0  0  0  0  0  0  0  0  0  0  0  0
  139.9690   77.9391  219.9037 H   0  0  0  0  0  0  0  0  0  0  0  0
  139.8580   76.2300  219.4116 H   0  0  0  0  0  0  0  0  0  0  0  0
  142.2221   77.4512  221.0379 H   0  0  0  0  0  0  0  0  0  0  0  0
  139.9371   75.9009  221.9383 H   0  0  0  0  0  0  0  0  0  0  0  0
  141.5549   76.1842  222.7780 H   0  0  0  0  0  0  0  0  0  0  0  0
  139.1422   80.0067  223.5235 H   0  0  0  0  0  0  0  0  0  0  0  0
  140.3232   82.0485  224.2026 H   0  0  0  0  0  0  0  0  0  0  0  0
  142.8069   82.1686  224.0790 H   0  0  0  0  0  0  0  0  0  0  0  0
  144.0487   80.1824  223.2547 H   0  0  0  0  0  0  0  0  0  0  0  0
  142.8791   78.1585  222.5812 H   0  0  0  0  0  0  0  0  0  0  0  0
  138.7051   69.7001  222.8555 H   0  0  0  0  0  0  0  0  0  0  0  0
  138.7297   68.2785  224.8965 H   0  0  0  0  0  0  0  0  0  0  0  0
  139.4028   68.0681  227.2296 H   0  0  0  0  0  0  0  0  0  0  0  0
  140.4802   68.9531  229.2559 H   0  0  0  0  0  0  0  0  0  0  0  0
  141.5009   71.2345  229.2042 H   0  0  0  0  0  0  0  0  0  0  0  0
  141.4196   72.5420  227.1339 H   0  0  0  0  0  0  0  0  0  0  0  0
  1  2  2  0
  2  3  1  0
  3  4  1  0
  4  5  1  0
  5  6  2  0
  5  7  1  0
  7  8  1  0
  8  9  1  0
  9 10  1  0
 10 11  1  0
 11 12  1  0
 12 13  1  0
 13 14  1  0
 14 15  1  0
 15 16  2  0
 16 17  1  0
 17 18  2  0
 18 19  1  0
 19 20  2  0
  2 21  1  0
 21 22  2  0
 22 23  1  0
 23 24  2  0
 24 25  1  0
 25 26  2  0
 26 27  1  0
 27 28  2  0
 28 29  1  0
 29 30  2  0
 12  7  1  0
 20 15  1  0
 30 21  1  0
 29 24  1  0
  3 31  1  0
  4 32  1  0
  4 33  1  0
  8 34  1  0
  8 35  1  0
  9 36  1  0
  9 37  1  0
 10 38  1  0
 10 39  1  0
 11 40  1  0
 11 41  1  0
 12 42  1  1
 13 43  1  0
 13 44  1  0
 16 45  1  0
 17 46  1  0
 18 47  1  0
 19 48  1  0
 20 49  1  0
 22 50  1  0
 23 51  1  0
 25 52  1  0
 26 53  1  0
 27 54  1  0
 28 55  1  0
M  END
>  <smiles>  (5) 
O=C(NCC(=O)N1CCCC[C@H]1COc1ccccc1)c1ccc2ccccc2n1

>  <score_type>  (5) 
oracle

>  <origin>  (5) 
autodockgpu

>  <m_score__min__energy>  (5) 
-9.1300000000000008

>  <m_primary>  (5) 
energy

>  <rmsd>  (5) 
2.5844931689217

>  <m_score__min__rmsd>  (5) 
2.5844931689217

>  <meeko>  (5) 
{"free_energy": -8.45, "intermolecular_energy": -10.54, "internal_energy": -1.68, "cluster_size": 32, "cluster_id": 1, "rank_in_cluster": 27}

>  <energy>  (5) 
-8.95

>  <cluster_rmsd>  (5) 
1.02

>  <cluster>  (5) 
1

$$$$

     RDKit          3D

 55 58  0  0  0  0  0  0  0  0999 V2000
  139.3660   70.6460  221.2780 O   0  0  0  0  0  0  0  0  0  0  0  0
  139.2540   71.3950  222.2940 C   0  0  0  0  0  0  0  0  0  0  0  0
  138.8180   72.7570  222.1860 N   0  0  0  0  0  0  0  0  0  0  0  0
  138.4860   73.3250  220.8810 C   0  0  0  0  0  0  0  0  0  0  0  0
  139.4370   74.3670  220.4880 C   0  0  0  0  0  0  0  0  0  0  0  0
  138.9590   75.2520  219.6660 O   0  0  0  0  0  0  0  0  0  0  0  0
  140.7630   74.5590  220.8520 N   0  0  0  0  0  0  0  0  0  0  0  0
  141.6170   73.3290  220.7590 C   0  0  0  0  0  0  0  0  0  0  0  0
  143.0410   73.7760  220.5310 C   0  0  0  0  0  0  0  0  0  0  0  0
  143.1970   75.0190  219.7310 C   0  0  0  0  0  0  0  0  0  0  0  0
  142.2980   76.1600  220.1020 C   0  0  0  0  0  0  0  0  0  0  0  0
  141.4670   75.7170  221.3050 C   0  0  1  0  0  0  0  0  0  0  0  0
  140.6980   76.8160  221.9100 C   0  0  0  0  0  0  0  0  0  0  0  0
  141.1940   78.0750  221.7000 O   0  0  0  0  0  0  0  0  0  0  0  0
  141.6400   79.0890  222.4500 C   0  0  0  0  0  0  0  0  0  0  0  0
  142.9410   79.4320  222.7320 C   0  0  0  0  0  0  0  0  0  0  0  0
  143.2890   80.5140  223.5260 C   0  0  0  0  0  0  0  0  0  0  0  0
  142.3160   81.3110  224.0810 C   0  0  0  0  0  0  0  0  0  0  0  0
  141.0010   80.9940  223.8190 C   0  0  0  0  0  0  0  0  0  0  0  0
  140.6690   79.9280  223.0370 C   0  0  0  0  0  0  0  0  0  0  0  0
  139.5810   70.8620  223.6330 C   0  0  0  0  0  0  0  0  0  0  0  0
  139.3200   69.5360  223.9090 C   0  0  0  0  0  0  0  0  0  0  0  0
  139.5960   68.9660  225.1350 C   0  0  0  0  0  0  0  0  0  0  0  0
  140.1590   69.7980  226.0980 C   0  0  0  0  0  0  0  0  0  0  0  0
  140.4700   69.3140  227.3560 C   0  0  0  0  0  0  0  0  0  0  0  0
  141.0240   70.1070  228.3240 C   0  0  0  0  0  0  0  0  0  0  0  0
  141.2810   71.4360  228.0370 C   0  0  0  0  0  0  0  0  0  0  0  0
  140.9760   71.9150  226.7970 C   0  0  0  0  0  0  0  0  0  0  0  0
  140.4150   71.1240  225.8090 C   0  0  0  0  0  0  0  0  0  0  0  0
  140.1240   71.6280  224.5920 N   0  0  0  0  0  0  0  0  0  0  0  0
  138.7560   73.2980  223.0750 H   0  0  0  0  0  0  0  0  0  0  0  0
  138.5037   72.5233  220.1280 H   0  0  0  0  0  0  0  0  0  0  0  0
  137.4865   73.7795  220.9481 H   0  0  0  0  0  0  0  0  0  0  0  0
  141.5498   72.7545  221.6946 H   0  0  0  0  0  0  0  0  0  0  0  0
  141.2780   72.6857  219.9337 H   0  0  0  0  0  0  0  0  0  0  0  0
  143.5058   73.9440  221.5137 H   0  0  0  0  0  0  0  0  0  0  0  0
  143.5206   72.9766  219.9470 H   0  0  0  0  0  0  0  0  0  0  0  0
  144.2367   75.3610  219.8409 H   0  0  0  0  0  0  0  0  0  0  0  0
  142.9177   74.7453  218.7029 H   0  0  0  0  0  0  0  0  0  0  0  0
  142.9000   77.0421  220.3656 H   0  0  0  0  0  0  0  0  0  0  0  0
  141.6456   76.4295  219.2584 H   0  0  0  0  0  0  0  0  0  0  0  0
  142.0641   75.4302  222.1832 H   0  0  0  0  0  0  0  0  0  0  0  0
  139.6786   76.7816  221.4982 H   0  0  0  0  0  0  0  0  0  0  0  0
  140.7466   76.6525  222.9967 H   0  0  0  0  0  0  0  0  0  0  0  0
  143.7471   78.8166  222.3059 H   0  0  0  0  0  0  0  0  0  0  0  0
  144.3500   80.7361  223.7130 H   0  0  0  0  0  0  0  0  0  0  0  0
  142.5784   82.1724  224.7127 H   0  0  0  0  0  0  0  0  0  0  0  0
  140.2017   81.6146  224.2502 H   0  0  0  0  0  0  0  0  0  0  0  0
  139.6052   79.7139  222.8569 H   0  0  0  0  0  0  0  0  0  0  0  0
  138.8751   68.9093  223.1221 H   0  0  0  0  0  0  0  0  0  0  0  0
  139.3817   67.9069  225.3408 H   0  0  0  0  0  0  0  0  0  0  0  0
  140.2654   68.2579  227.5856 H   0  0  0  0  0  0  0  0  0  0  0  0
  141.2615   69.6940  229.3155 H   0  0  0  0  0  0  0  0  0  0  0  0
  141.7244   72.0959  228.7972 H   0  0  0  0  0  0  0  0  0  0  0  0
  141.1840   72.9717  226.5730 H   0  0  0  0  0  0  0  0  0  0  0  0
  1  2  2  0
  2  3  1  0
  3  4  1  0
  4  5  1  0
  5  6  2  0
  5  7  1  0
  7  8  1  0
  8  9  1  0
  9 10  1  0
 10 11  1  0
 11 12  1  0
 12 13  1  0
 13 14  1  0
 14 15  1  0
 15 16  2  0
 16 17  1  0
 17 18  2  0
 18 19  1  0
 19 20  2  0
  2 21  1  0
 21 22  2  0
 22 23  1  0
 23 24  2  0
 24 25  1  0
 25 26  2  0
 26 27  1  0
 27 28  2  0
 28 29  1  0
 29 30  2  0
 12  7  1  0
 20 15  1  0
 30 21  1  0
 29 24  1  0
  3 31  1  0
  4 32  1  0
  4 33  1  0
  8 34  1  0
  8 35  1  0
  9 36  1  0
  9 37  1  0
 10 38  1  0
 10 39  1  0
 11 40  1  0
 11 41  1  0
 12 42  1  1
 13 43  1  0
 13 44  1  0
 16 45  1  0
 17 46  1  0
 18 47  1  0
 19 48  1  0
 20 49  1  0
 22 50  1  0
 23 51  1  0
 25 52  1  0
 26 53  1  0
 27 54  1  0
 28 55  1  0
M  END
>  <smiles>  (6) 
O=C(NCC(=O)N1CCCC[C@H]1COc1ccccc1)c1ccc2ccccc2n1

>  <score_type>  (6) 
oracle

>  <origin>  (6) 
autodockgpu

>  <m_score__min__energy>  (6) 
-9.1300000000000008

>  <m_primary>  (6) 
energy

>  <rmsd>  (6) 
2.3710066816234767

>  <m_score__min__rmsd>  (6) 
2.3710066816234767

>  <meeko>  (6) 
{"free_energy": -8.72, "intermolecular_energy": -10.81, "internal_energy": -1.65, "cluster_size": 32, "cluster_id": 1, "rank_in_cluster": 14}

>  <energy>  (6) 
-8.9

>  <cluster_rmsd>  (6) 
1.29

>  <cluster>  (6) 
1

$$$$

     RDKit          3D

 55 58  0  0  0  0  0  0  0  0999 V2000
  139.5040   70.9550  221.2620 O   0  0  0  0  0  0  0  0  0  0  0  0
  139.4570   71.7100  222.2790 C   0  0  0  0  0  0  0  0  0  0  0  0
  139.1530   73.1070  222.1710 N   0  0  0  0  0  0  0  0  0  0  0  0
  138.8850   73.7060  220.8650 C   0  0  0  0  0  0  0  0  0  0  0  0
  139.8570   74.7520  220.5420 C   0  0  0  0  0  0  0  0  0  0  0  0
  139.3370   75.8430  220.0630 O   0  0  0  0  0  0  0  0  0  0  0  0
  141.2400   74.7650  220.6630 N   0  0  0  0  0  0  0  0  0  0  0  0
  141.8360   73.4650  221.1170 C   0  0  0  0  0  0  0  0  0  0  0  0
  143.2500   73.4020  220.5920 C   0  0  0  0  0  0  0  0  0  0  0  0
  143.4720   74.0620  219.2800 C   0  0  0  0  0  0  0  0  0  0  0  0
  142.8670   75.4240  219.1150 C   0  0  0  0  0  0  0  0  0  0  0  0
  142.2050   75.7950  220.4410 C   0  0  1  0  0  0  0  0  0  0  0  0
  141.7620   77.1980  220.4900 C   0  0  0  0  0  0  0  0  0  0  0  0
  141.4800   77.6890  221.7370 O   0  0  0  0  0  0  0  0  0  0  0  0
  141.6870   78.8280  222.4090 C   0  0  0  0  0  0  0  0  0  0  0  0
  142.8840   79.4060  222.7580 C   0  0  0  0  0  0  0  0  0  0  0  0
  142.9790   80.5980  223.4570 C   0  0  0  0  0  0  0  0  0  0  0  0
  141.8430   81.2710  223.8440 C   0  0  0  0  0  0  0  0  0  0  0  0
  140.6270   80.7180  223.5110 C   0  0  0  0  0  0  0  0  0  0  0  0
  140.5440   79.5440  222.8220 C   0  0  0  0  0  0  0  0  0  0  0  0
  139.7230   71.1460  223.6190 C   0  0  0  0  0  0  0  0  0  0  0  0
  139.3980   69.8290  223.8690 C   0  0  0  0  0  0  0  0  0  0  0  0
  139.6150   69.2320  225.0940 C   0  0  0  0  0  0  0  0  0  0  0  0
  140.1850   70.0260  226.0830 C   0  0  0  0  0  0  0  0  0  0  0  0
  140.4390   69.5130  227.3430 C   0  0  0  0  0  0  0  0  0  0  0  0
  140.9980   70.2700  228.3370 C   0  0  0  0  0  0  0  0  0  0  0  0
  141.3190   71.5900  228.0760 C   0  0  0  0  0  0  0  0  0  0  0  0
  141.0700   72.0980  226.8350 C   0  0  0  0  0  0  0  0  0  0  0  0
  140.5050   71.3440  225.8210 C   0  0  0  0  0  0  0  0  0  0  0  0
  140.2700   71.8760  224.6040 N   0  0  0  0  0  0  0  0  0  0  0  0
  139.1370   73.6500  223.0600 H   0  0  0  0  0  0  0  0  0  0  0  0
  138.9357   72.9217  220.0954 H   0  0  0  0  0  0  0  0  0  0  0  0
  137.8849   74.1631  220.8949 H   0  0  0  0  0  0  0  0  0  0  0  0
  141.8417   73.4187  222.2160 H   0  0  0  0  0  0  0  0  0  0  0  0
  141.2459   72.6171  220.7391 H   0  0  0  0  0  0  0  0  0  0  0  0
  143.9079   73.8840  221.3301 H   0  0  0  0  0  0  0  0  0  0  0  0
  143.4682   72.3353  220.4356 H   0  0  0  0  0  0  0  0  0  0  0  0
  144.5578   74.1564  219.1309 H   0  0  0  0  0  0  0  0  0  0  0  0
  142.9680   73.4236  218.5395 H   0  0  0  0  0  0  0  0  0  0  0  0
  143.6504   76.1558  218.8684 H   0  0  0  0  0  0  0  0  0  0  0  0
  142.1288   75.4243  218.2995 H   0  0  0  0  0  0  0  0  0  0  0  0
  142.8918   75.8085  221.3001 H   0  0  0  0  0  0  0  0  0  0  0  0
  142.5585   77.8192  220.0545 H   0  0  0  0  0  0  0  0  0  0  0  0
  140.8141   77.2325  219.9330 H   0  0  0  0  0  0  0  0  0  0  0  0
  143.8142   78.8959  222.4673 H   0  0  0  0  0  0  0  0  0  0  0  0
  143.9688   81.0092  223.7043 H   0  0  0  0  0  0  0  0  0  0  0  0
  141.9043   82.2181  224.4002 H   0  0  0  0  0  0  0  0  0  0  0  0
  139.7020   81.2344  223.8072 H   0  0  0  0  0  0  0  0  0  0  0  0
  139.5497   79.1408  222.5796 H   0  0  0  0  0  0  0  0  0  0  0  0
  138.9489   69.2322  223.0615 H   0  0  0  0  0  0  0  0  0  0  0  0
  139.3503   68.1805  225.2789 H   0  0  0  0  0  0  0  0  0  0  0  0
  140.1836   68.4637  227.5523 H   0  0  0  0  0  0  0  0  0  0  0  0
  141.1892   69.8350  229.3291 H   0  0  0  0  0  0  0  0  0  0  0  0
  141.7683   72.2204  228.8575 H   0  0  0  0  0  0  0  0  0  0  0  0
  141.3283   73.1478  226.6320 H   0  0  0  0  0  0  0  0  0  0  0  0
  1  2  2  0
  2  3  1  0
  3  4  1  0
  4  5  1  0
  5  6  2  0
  5  7  1  0
  7  8  1  0
  8  9  1  0
  9 10  1  0
 10 11  1  0
 11 12  1  0
 12 13  1  0
 13 14  1  0
 14 15  1  0
 15 16  2  0
 16 17  1  0
 17 18  2  0
 18 19  1  0
 19 20  2  0
  2 21  1  0
 21 22  2  0
 22 23  1  0
 23 24  2  0
 24 25  1  0
 25 26  2  0
 26 27  1  0
 27 28  2  0
 28 29  1  0
 29 30  2  0
 12  7  1  0
 20 15  1  0
 30 21  1  0
 29 24  1  0
  3 31  1  0
  4 32  1  0
  4 33  1  0
  8 34  1  0
  8 35  1  0
  9 36  1  0
  9 37  1  0
 10 38  1  0
 10 39  1  0
 11 40  1  0
 11 41  1  0
 12 42  1  1
 13 43  1  0
 13 44  1  0
 16 45  1  0
 17 46  1  0
 18 47  1  0
 19 48  1  0
 20 49  1  0
 22 50  1  0
 23 51  1  0
 25 52  1  0
 26 53  1  0
 27 54  1  0
 28 55  1  0
M  END
>  <smiles>  (7) 
O=C(NCC(=O)N1CCCC[C@H]1COc1ccccc1)c1ccc2ccccc2n1

>  <score_type>  (7) 
oracle

>  <origin>  (7) 
autodockgpu

>  <m_score__min__energy>  (7) 
-9.1300000000000008

>  <m_primary>  (7) 
energy

>  <rmsd>  (7) 
2.3327175309107506

>  <m_score__min__rmsd>  (7) 
2.3327175309107506

>  <meeko>  (7) 
{"free_energy": -8.64, "intermolecular_energy": -10.73, "internal_energy": -1.52, "cluster_size": 32, "cluster_id": 1, "rank_in_cluster": 17}

>  <energy>  (7) 
-8.88

>  <cluster_rmsd>  (7) 
0.6

>  <cluster>  (7) 
1

$$$$

     RDKit          3D

 55 58  0  0  0  0  0  0  0  0999 V2000
  140.3060   71.4330  221.2840 O   0  0  0  0  0  0  0  0  0  0  0  0
  140.0550   72.0570  222.3590 C   0  0  0  0  0  0  0  0  0  0  0  0
  139.7620   73.4610  222.3680 N   0  0  0  0  0  0  0  0  0  0  0  0
  139.7460   74.2210  221.1200 C   0  0  0  0  0  0  0  0  0  0  0  0
  141.0920   74.6370  220.7240 C   0  0  0  0  0  0  0  0  0  0  0  0
  142.0240   73.7680  220.9790 O   0  0  0  0  0  0  0  0  0  0  0  0
  141.5320   75.8090  220.1220 N   0  0  0  0  0  0  0  0  0  0  0  0
  143.0240   75.9290  220.0120 C   0  0  0  0  0  0  0  0  0  0  0  0
  143.3260   76.8250  218.8350 C   0  0  0  0  0  0  0  0  0  0  0  0
  142.3640   76.7390  217.7060 C   0  0  0  0  0  0  0  0  0  0  0  0
  140.9100   76.7570  218.0740 C   0  0  0  0  0  0  0  0  0  0  0  0
  140.8230   76.9290  219.5900 C   0  0  1  0  0  0  0  0  0  0  0  0
  139.4530   77.1840  220.0630 C   0  0  0  0  0  0  0  0  0  0  0  0
  139.3480   77.7590  221.3010 O   0  0  0  0  0  0  0  0  0  0  0  0
  140.1000   78.5440  222.0820 C   0  0  0  0  0  0  0  0  0  0  0  0
  140.0350   79.9080  222.2330 C   0  0  0  0  0  0  0  0  0  0  0  0
  140.8690   80.6210  223.0790 C   0  0  0  0  0  0  0  0  0  0  0  0
  141.8250   79.9720  223.8240 C   0  0  0  0  0  0  0  0  0  0  0  0
  141.9180   78.6040  223.6950 C   0  0  0  0  0  0  0  0  0  0  0  0
  141.0930   77.9110  222.8600 C   0  0  0  0  0  0  0  0  0  0  0  0
  140.0620   71.3280  223.6440 C   0  0  0  0  0  0  0  0  0  0  0  0
  139.5620   70.0440  223.6890 C   0  0  0  0  0  0  0  0  0  0  0  0
  139.5340   69.3000  224.8520 C   0  0  0  0  0  0  0  0  0  0  0  0
  140.0410   69.9090  225.9950 C   0  0  0  0  0  0  0  0  0  0  0  0
  140.0540   69.2400  227.2050 C   0  0  0  0  0  0  0  0  0  0  0  0
  140.5460   69.8120  228.3480 C   0  0  0  0  0  0  0  0  0  0  0  0
  141.0450   71.1010  228.2910 C   0  0  0  0  0  0  0  0  0  0  0  0
  141.0340   71.7630  227.0990 C   0  0  0  0  0  0  0  0  0  0  0  0
  140.5390   71.1960  225.9370 C   0  0  0  0  0  0  0  0  0  0  0  0
  140.5410   71.8760  224.7720 N   0  0  0  0  0  0  0  0  0  0  0  0
  139.5680   73.8900  223.2980 H   0  0  0  0  0  0  0  0  0  0  0  0
  139.3185   73.5924  220.3249 H   0  0  0  0  0  0  0  0  0  0  0  0
  139.1390   75.1250  221.2760 H   0  0  0  0  0  0  0  0  0  0  0  0
  143.4335   76.3694  220.9331 H   0  0  0  0  0  0  0  0  0  0  0  0
  143.4811   74.9386  219.8700 H   0  0  0  0  0  0  0  0  0  0  0  0
  143.3363   77.8648  219.1938 H   0  0  0  0  0  0  0  0  0  0  0  0
  144.2933   76.4858  218.4359 H   0  0  0  0  0  0  0  0  0  0  0  0
  142.5522   77.5929  217.0386 H   0  0  0  0  0  0  0  0  0  0  0  0
  142.5391   75.7565  217.2433 H   0  0  0  0  0  0  0  0  0  0  0  0
  140.4055   77.5952  217.5712 H   0  0  0  0  0  0  0  0  0  0  0  0
  140.4191   75.8238  217.7607 H   0  0  0  0  0  0  0  0  0  0  0  0
  141.3011   77.8449  219.9675 H   0  0  0  0  0  0  0  0  0  0  0  0
  138.9644   77.8516  219.3381 H   0  0  0  0  0  0  0  0  0  0  0  0
  138.9783   76.1956  220.1511 H   0  0  0  0  0  0  0  0  0  0  0  0
  139.2826   80.4622  221.6527 H   0  0  0  0  0  0  0  0  0  0  0  0
  140.7656   81.7135  223.1551 H   0  0  0  0  0  0  0  0  0  0  0  0
  142.4927   80.5264  224.4999 H   0  0  0  0  0  0  0  0  0  0  0  0
  142.6745   78.0587  224.2785 H   0  0  0  0  0  0  0  0  0  0  0  0
  141.2052   76.8190  222.7900 H   0  0  0  0  0  0  0  0  0  0  0  0
  139.1708   69.5954  222.7639 H   0  0  0  0  0  0  0  0  0  0  0  0
  139.1308   68.2768  224.8734 H   0  0  0  0  0  0  0  0  0  0  0  0
  139.6564   68.2154  227.2511 H   0  0  0  0  0  0  0  0  0  0  0  0
  140.5444   69.2551  229.2966 H   0  0  0  0  0  0  0  0  0  0  0  0
  141.4449   71.5849  229.1943 H   0  0  0  0  0  0  0  0  0  0  0  0
  141.4338   72.7870  227.0591 H   0  0  0  0  0  0  0  0  0  0  0  0
  1  2  2  0
  2  3  1  0
  3  4  1  0
  4  5  1  0
  5  6  2  0
  5  7  1  0
  7  8  1  0
  8  9  1  0
  9 10  1  0
 10 11  1  0
 11 12  1  0
 12 13  1  0
 13 14  1  0
 14 15  1  0
 15 16  2  0
 16 17  1  0
 17 18  2  0
 18 19  1  0
 19 20  2  0
  2 21  1  0
 21 22  2  0
 22 23  1  0
 23 24  2  0
 24 25  1  0
 25 26  2  0
 26 27  1  0
 27 28  2  0
 28 29  1  0
 29 30  2  0
 12  7  1  0
 20 15  1  0
 30 21  1  0
 29 24  1  0
  3 31  1  0
  4 32  1  0
  4 33  1  0
  8 34  1  0
  8 35  1  0
  9 36  1  0
  9 37  1  0
 10 38  1  0
 10 39  1  0
 11 40  1  0
 11 41  1  0
 12 42  1  6
 13 43  1  0
 13 44  1  0
 16 45  1  0
 17 46  1  0
 18 47  1  0
 19 48  1  0
 20 49  1  0
 22 50  1  0
 23 51  1  0
 25 52  1  0
 26 53  1  0
 27 54  1  0
 28 55  1  0
M  END
>  <smiles>  (8) 
O=C(NCC(=O)N1CCCC[C@H]1COc1ccccc1)c1ccc2ccccc2n1

>  <score_type>  (8) 
oracle

>  <origin>  (8) 
autodockgpu

>  <m_score__min__energy>  (8) 
-9.1300000000000008

>  <m_primary>  (8) 
energy

>  <rmsd>  (8) 
2.211320199243048

>  <m_score__min__rmsd>  (8) 
2.211320199243048

>  <meeko>  (8) 
{"free_energy": -8.08, "intermolecular_energy": -10.17, "internal_energy": -1.76, "cluster_size": 32, "cluster_id": 1, "rank_in_cluster": 30}

>  <energy>  (8) 
-8.87

>  <cluster_rmsd>  (8) 
1.33

>  <cluster>  (8) 
1

$$$$

     RDKit          3D

 55 58  0  0  0  0  0  0  0  0999 V2000
  140.0960   70.5860  221.5920 O   0  0  0  0  0  0  0  0  0  0  0  0
  139.7010   71.3300  222.5400 C   0  0  0  0  0  0  0  0  0  0  0  0
  138.9540   72.5300  222.2990 N   0  0  0  0  0  0  0  0  0  0  0  0
  138.6230   72.9330  220.9340 C   0  0  0  0  0  0  0  0  0  0  0  0
  139.7800   73.5090  220.2460 C   0  0  0  0  0  0  0  0  0  0  0  0
  139.6580   73.5840  218.9550 O   0  0  0  0  0  0  0  0  0  0  0  0
  140.9830   73.9850  220.7510 N   0  0  0  0  0  0  0  0  0  0  0  0
  142.1190   73.0070  220.6740 C   0  0  0  0  0  0  0  0  0  0  0  0
  143.4020   73.8010  220.6140 C   0  0  0  0  0  0  0  0  0  0  0  0
  143.3130   75.1040  219.9070 C   0  0  0  0  0  0  0  0  0  0  0  0
  142.1310   75.9620  220.2510 C   0  0  0  0  0  0  0  0  0  0  0  0
  141.3390   75.2370  221.3370 C   0  0  1  0  0  0  0  0  0  0  0  0
  140.2750   76.0680  221.9250 C   0  0  0  0  0  0  0  0  0  0  0  0
  140.3770   77.4140  221.6980 O   0  0  0  0  0  0  0  0  0  0  0  0
  141.1370   78.4250  222.1360 C   0  0  0  0  0  0  0  0  0  0  0  0
  141.7160   79.4350  221.4050 C   0  0  0  0  0  0  0  0  0  0  0  0
  142.4860   80.4390  221.9690 C   0  0  0  0  0  0  0  0  0  0  0  0
  142.7100   80.4650  223.3260 C   0  0  0  0  0  0  0  0  0  0  0  0
  142.1450   79.4680  224.0880 C   0  0  0  0  0  0  0  0  0  0  0  0
  141.3880   78.4830  223.5240 C   0  0  0  0  0  0  0  0  0  0  0  0
  140.0150   70.9600  223.9360 C   0  0  0  0  0  0  0  0  0  0  0  0
  140.7000   71.8570  224.7290 C   0  0  0  0  0  0  0  0  0  0  0  0
  141.0290   71.5840  226.0420 C   0  0  0  0  0  0  0  0  0  0  0  0
  140.6350   70.3460  226.5400 C   0  0  0  0  0  0  0  0  0  0  0  0
  140.9210   69.9860  227.8440 C   0  0  0  0  0  0  0  0  0  0  0  0
  140.5470   68.7750  228.3630 C   0  0  0  0  0  0  0  0  0  0  0  0
  139.8600   67.8830  227.5580 C   0  0  0  0  0  0  0  0  0  0  0  0
  139.5770   68.2360  226.2720 C   0  0  0  0  0  0  0  0  0  0  0  0
  139.9500   69.4560  225.7350 C   0  0  0  0  0  0  0  0  0  0  0  0
  139.6550   69.7770  224.4580 N   0  0  0  0  0  0  0  0  0  0  0  0
  138.6720   73.0780  223.1390 H   0  0  0  0  0  0  0  0  0  0  0  0
  138.2783   72.0506  220.3750 H   0  0  0  0  0  0  0  0  0  0  0  0
  137.8355   73.6995  220.9832 H   0  0  0  0  0  0  0  0  0  0  0  0
  142.1189   72.3612  221.5644 H   0  0  0  0  0  0  0  0  0  0  0  0
  142.0185   72.3676  219.7846 H   0  0  0  0  0  0  0  0  0  0  0  0
  143.7284   73.9966  221.6461 H   0  0  0  0  0  0  0  0  0  0  0  0
  144.1095   73.1898  220.0345 H   0  0  0  0  0  0  0  0  0  0  0  0
  144.2230   75.6761  220.1407 H   0  0  0  0  0  0  0  0  0  0  0  0
  143.1975   74.8550  218.8418 H   0  0  0  0  0  0  0  0  0  0  0  0
  142.4719   76.9392  220.6236 H   0  0  0  0  0  0  0  0  0  0  0  0
  141.5046   76.1331  219.3631 H   0  0  0  0  0  0  0  0  0  0  0  0
  141.9135   75.0317  222.2523 H   0  0  0  0  0  0  0  0  0  0  0  0
  139.3139   75.7279  221.5120 H   0  0  0  0  0  0  0  0  0  0  0  0
  140.3637   75.9409  223.0140 H   0  0  0  0  0  0  0  0  0  0  0  0
  141.5599   79.4465  220.3162 H   0  0  0  0  0  0  0  0  0  0  0  0
  142.9208   81.2200  221.3280 H   0  0  0  0  0  0  0  0  0  0  0  0
  143.3202   81.2560  223.7865 H   0  0  0  0  0  0  0  0  0  0  0  0
  142.3073   79.4652  225.1760 H   0  0  0  0  0  0  0  0  0  0  0  0
  140.9580   77.7065  224.1738 H   0  0  0  0  0  0  0  0  0  0  0  0
  140.9951   72.8257  224.2995 H   0  0  0  0  0  0  0  0  0  0  0  0
  141.5753   72.3090  226.6632 H   0  0  0  0  0  0  0  0  0  0  0  0
  141.4662   70.6946  228.4848 H   0  0  0  0  0  0  0  0  0  0  0  0
  140.7890   68.5152  229.4041 H   0  0  0  0  0  0  0  0  0  0  0  0
  139.5471   66.9040  227.9500 H   0  0  0  0  0  0  0  0  0  0  0  0
  139.0309   67.5235  225.6363 H   0  0  0  0  0  0  0  0  0  0  0  0
  1  2  2  0
  2  3  1  0
  3  4  1  0
  4  5  1  0
  5  6  2  0
  5  7  1  0
  7  8  1  0
  8  9  1  0
  9 10  1  0
 10 11  1  0
 11 12  1  0
 12 13  1  0
 13 14  1  0
 14 15  1  0
 15 16  2  0
 16 17  1  0
 17 18  2  0
 18 19  1  0
 19 20  2  0
  2 21  1  0
 21 22  2  0
 22 23  1  0
 23 24  2  0
 24 25  1  0
 25 26  2  0
 26 27  1  0
 27 28  2  0
 28 29  1  0
 29 30  2  0
 12  7  1  0
 20 15  1  0
 30 21  1  0
 29 24  1  0
  3 31  1  0
  4 32  1  0
  4 33  1  0
  8 34  1  0
  8 35  1  0
  9 36  1  0
  9 37  1  0
 10 38  1  0
 10 39  1  0
 11 40  1  0
 11 41  1  0
 12 42  1  1
 13 43  1  0
 13 44  1  0
 16 45  1  0
 17 46  1  0
 18 47  1  0
 19 48  1  0
 20 49  1  0
 22 50  1  0
 23 51  1  0
 25 52  1  0
 26 53  1  0
 27 54  1  0
 28 55  1  0
M  END
>  <smiles>  (9) 
O=C(NCC(=O)N1CCCC[C@H]1COc1ccccc1)c1ccc2ccccc2n1

>  <score_type>  (9) 
oracle

>  <origin>  (9) 
autodockgpu

>  <m_score__min__energy>  (9) 
-9.1300000000000008

>  <m_primary>  (9) 
energy

>  <rmsd>  (9) 
3.3557135345939586

>  <m_score__min__rmsd>  (9) 
3.3557135345939586

>  <meeko>  (9) 
{"free_energy": -8.6, "intermolecular_energy": -10.69, "internal_energy": -1.68, "cluster_size": 32, "cluster_id": 1, "rank_in_cluster": 19}

>  <energy>  (9) 
-8.83

>  <cluster_rmsd>  (9) 
1.43

>  <cluster>  (9) 
1

$$$$

     RDKit          3D

 55 58  0  0  0  0  0  0  0  0999 V2000
  138.4030   70.8070  221.7240 O   0  0  0  0  0  0  0  0  0  0  0  0
  139.0030   71.3200  222.7160 C   0  0  0  0  0  0  0  0  0  0  0  0
  139.4100   72.6950  222.7250 N   0  0  0  0  0  0  0  0  0  0  0  0
  139.1420   73.5530  221.5730 C   0  0  0  0  0  0  0  0  0  0  0  0
  139.9500   74.7730  221.6090 C   0  0  0  0  0  0  0  0  0  0  0  0
  141.0710   74.6600  222.2550 O   0  0  0  0  0  0  0  0  0  0  0  0
  139.7090   76.0290  221.0660 N   0  0  0  0  0  0  0  0  0  0  0  0
  138.8540   76.9210  221.9190 C   0  0  0  0  0  0  0  0  0  0  0  0
  139.2070   78.3500  221.5830 C   0  0  0  0  0  0  0  0  0  0  0  0
  140.6260   78.5840  221.2100 C   0  0  0  0  0  0  0  0  0  0  0  0
  141.2230   77.6100  220.2390 C   0  0  0  0  0  0  0  0  0  0  0  0
  140.1230   76.6300  219.8380 C   0  0  1  0  0  0  0  0  0  0  0  0
  140.5120   75.7520  218.7220 C   0  0  0  0  0  0  0  0  0  0  0  0
  141.8490   75.4790  218.6180 O   0  0  0  0  0  0  0  0  0  0  0  0
  142.7700   74.8150  219.3280 C   0  0  0  0  0  0  0  0  0  0  0  0
  143.9950   75.2630  219.7630 C   0  0  0  0  0  0  0  0  0  0  0  0
  144.8720   74.4830  220.5000 C   0  0  0  0  0  0  0  0  0  0  0  0
  144.5420   73.1910  220.8360 C   0  0  0  0  0  0  0  0  0  0  0  0
  143.3220   72.7120  220.4150 C   0  0  0  0  0  0  0  0  0  0  0  0
  142.4650   73.4860  219.6900 C   0  0  0  0  0  0  0  0  0  0  0  0
  139.2960   70.4870  223.9010 C   0  0  0  0  0  0  0  0  0  0  0  0
  138.9400   69.1550  223.8890 C   0  0  0  0  0  0  0  0  0  0  0  0
  139.1800   68.3150  224.9580 C   0  0  0  0  0  0  0  0  0  0  0  0
  139.8070   68.8760  226.0650 C   0  0  0  0  0  0  0  0  0  0  0  0
  140.0880   68.1110  227.1820 C   0  0  0  0  0  0  0  0  0  0  0  0
  140.7030   68.6340  228.2880 C   0  0  0  0  0  0  0  0  0  0  0  0
  141.0560   69.9720  228.2890 C   0  0  0  0  0  0  0  0  0  0  0  0
  140.7800   70.7290  227.1880 C   0  0  0  0  0  0  0  0  0  0  0  0
  140.1580   70.2130  226.0650 C   0  0  0  0  0  0  0  0  0  0  0  0
  139.8980   70.9870  224.9910 N   0  0  0  0  0  0  0  0  0  0  0  0
  139.8980   73.0300  223.5840 H   0  0  0  0  0  0  0  0  0  0  0  0
  139.3752   72.9976  220.6526 H   0  0  0  0  0  0  0  0  0  0  0  0
  138.0811   73.8426  221.5996 H   0  0  0  0  0  0  0  0  0  0  0  0
  137.7907   76.7372  221.7054 H   0  0  0  0  0  0  0  0  0  0  0  0
  139.0310   76.7202  222.9859 H   0  0  0  0  0  0  0  0  0  0  0  0
  138.5773   78.6656  220.7381 H   0  0  0  0  0  0  0  0  0  0  0  0
  139.0352   78.9293  222.5022 H   0  0  0  0  0  0  0  0  0  0  0  0
  140.6952   79.5874  220.7646 H   0  0  0  0  0  0  0  0  0  0  0  0
  141.1996   78.4620  222.1406 H   0  0  0  0  0  0  0  0  0  0  0  0
  141.5928   78.1436  219.3510 H   0  0  0  0  0  0  0  0  0  0  0  0
  142.0697   77.0767  220.6959 H   0  0  0  0  0  0  0  0  0  0  0  0
  139.2441   77.1046  219.3772 H   0  0  0  0  0  0  0  0  0  0  0  0
  139.9807   74.7965  218.8431 H   0  0  0  0  0  0  0  0  0  0  0  0
  140.2460   76.2982  217.8050 H   0  0  0  0  0  0  0  0  0  0  0  0
  144.2938   76.2918  219.5136 H   0  0  0  0  0  0  0  0  0  0  0  0
  145.8387   74.9003  220.8184 H   0  0  0  0  0  0  0  0  0  0  0  0
  145.2292   72.5620  221.4210 H   0  0  0  0  0  0  0  0  0  0  0  0
  143.0321   71.6818  220.6692 H   0  0  0  0  0  0  0  0  0  0  0  0
  141.5012   73.0588  219.3761 H   0  0  0  0  0  0  0  0  0  0  0  0
  138.4466   68.7466  222.9947 H   0  0  0  0  0  0  0  0  0  0  0  0
  138.8895   67.2543  224.9351 H   0  0  0  0  0  0  0  0  0  0  0  0
  139.8083   67.0472  227.1822 H   0  0  0  0  0  0  0  0  0  0  0  0
  140.9132   68.0003  229.1622 H   0  0  0  0  0  0  0  0  0  0  0  0
  141.5514   70.4183  229.1639 H   0  0  0  0  0  0  0  0  0  0  0  0
  141.0633   71.7919  227.1934 H   0  0  0  0  0  0  0  0  0  0  0  0
  1  2  2  0
  2  3  1  0
  3  4  1  0
  4  5  1  0
  5  6  2  0
  5  7  1  0
  7  8  1  0
  8  9  1  0
  9 10  1  0
 10 11  1  0
 11 12  1  0
 12 13  1  0
 13 14  1  0
 14 15  1  0
 15 16  2  0
 16 17  1  0
 17 18  2  0
 18 19  1  0
 19 20  2  0
  2 21  1  0
 21 22  2  0
 22 23  1  0
 23 24  2  0
 24 25  1  0
 25 26  2  0
 26 27  1  0
 27 28  2  0
 28 29  1  0
 29 30  2  0
 12  7  1  0
 20 15  1  0
 30 21  1  0
 29 24  1  0
  3 31  1  0
  4 32  1  0
  4 33  1  0
  8 34  1  0
  8 35  1  0
  9 36  1  0
  9 37  1  0
 10 38  1  0
 10 39  1  0
 11 40  1  0
 11 41  1  0
 12 42  1  6
 13 43  1  0
 13 44  1  0
 16 45  1  0
 17 46  1  0
 18 47  1  0
 19 48  1  0
 20 49  1  0
 22 50  1  0
 23 51  1  0
 25 52  1  0
 26 53  1  0
 27 54  1  0
 28 55  1  0
M  END
>  <smiles>  (10) 
O=C(NCC(=O)N1CCCC[C@H]1COc1ccccc1)c1ccc2ccccc2n1

>  <score_type>  (10) 
oracle

>  <origin>  (10) 
autodockgpu

>  <m_score__min__energy>  (10) 
-9.1300000000000008

>  <m_primary>  (10) 
energy

>  <rmsd>  (10) 
2.2111637660530685

>  <m_score__min__rmsd>  (10) 
2.2111637660530685

>  <meeko>  (10) 
{"free_energy": -7.39, "intermolecular_energy": -9.47, "internal_energy": -2.5, "cluster_size": 13, "cluster_id": 4, "rank_in_cluster": 13}

>  <energy>  (10) 
-8.82

>  <cluster_rmsd>  (10) 
1.17

>  <cluster>  (10) 
1

$$$$

     RDKit          3D

 55 58  0  0  0  0  0  0  0  0999 V2000
  139.8290   70.9140  221.1770 O   0  0  0  0  0  0  0  0  0  0  0  0
  140.1460   71.5660  222.2170 C   0  0  0  0  0  0  0  0  0  0  0  0
  140.6340   72.9120  222.1460 N   0  0  0  0  0  0  0  0  0  0  0  0
  140.7820   73.5780  220.8540 C   0  0  0  0  0  0  0  0  0  0  0  0
  141.1770   74.9780  221.0100 C   0  0  0  0  0  0  0  0  0  0  0  0
  140.9850   75.4640  222.2000 O   0  0  0  0  0  0  0  0  0  0  0  0
  141.7200   75.8690  220.0930 N   0  0  0  0  0  0  0  0  0  0  0  0
  143.1440   75.5800  219.7170 C   0  0  0  0  0  0  0  0  0  0  0  0
  143.3740   76.1400  218.3330 C   0  0  0  0  0  0  0  0  0  0  0  0
  142.1970   76.0990  217.4260 C   0  0  0  0  0  0  0  0  0  0  0  0
  140.8960   76.5560  218.0130 C   0  0  0  0  0  0  0  0  0  0  0  0
  141.1730   77.0170  219.4430 C   0  0  1  0  0  0  0  0  0  0  0  0
  140.0240   77.6970  220.0630 C   0  0  0  0  0  0  0  0  0  0  0  0
  140.2910   78.9080  220.6430 O   0  0  0  0  0  0  0  0  0  0  0  0
  141.0520   79.3660  221.6440 C   0  0  0  0  0  0  0  0  0  0  0  0
  141.8070   80.5140  221.6820 C   0  0  0  0  0  0  0  0  0  0  0  0
  142.5590   80.8940  222.7830 C   0  0  0  0  0  0  0  0  0  0  0  0
  142.5810   80.1130  223.9150 C   0  0  0  0  0  0  0  0  0  0  0  0
  141.8360   78.9550  223.9080 C   0  0  0  0  0  0  0  0  0  0  0  0
  141.0990   78.5890  222.8210 C   0  0  0  0  0  0  0  0  0  0  0  0
  140.0130   70.9310  223.5450 C   0  0  0  0  0  0  0  0  0  0  0  0
  139.3970   69.7000  223.6410 C   0  0  0  0  0  0  0  0  0  0  0  0
  139.2350   69.0450  224.8450 C   0  0  0  0  0  0  0  0  0  0  0  0
  139.7270   69.6870  225.9770 C   0  0  0  0  0  0  0  0  0  0  0  0
  139.6100   69.1060  227.2270 C   0  0  0  0  0  0  0  0  0  0  0  0
  140.0840   69.7130  228.3590 C   0  0  0  0  0  0  0  0  0  0  0  0
  140.7000   70.9470  228.2500 C   0  0  0  0  0  0  0  0  0  0  0  0
  140.8170   71.5220  227.0190 C   0  0  0  0  0  0  0  0  0  0  0  0
  140.3420   70.9200  225.8670 C   0  0  0  0  0  0  0  0  0  0  0  0
  140.4720   71.5140  224.6630 N   0  0  0  0  0  0  0  0  0  0  0  0
  140.8700   73.3700  223.0530 H   0  0  0  0  0  0  0  0  0  0  0  0
  141.5514   73.0535  220.2684 H   0  0  0  0  0  0  0  0  0  0  0  0
  139.8096   73.5508  220.3404 H   0  0  0  0  0  0  0  0  0  0  0  0
  143.8261   76.0603  220.4340 H   0  0  0  0  0  0  0  0  0  0  0  0
  143.3351   74.4968  219.7320 H   0  0  0  0  0  0  0  0  0  0  0  0
  143.6847   77.1899  218.4388 H   0  0  0  0  0  0  0  0  0  0  0  0
  144.1374   75.4983  217.8689 H   0  0  0  0  0  0  0  0  0  0  0  0
  142.4181   76.7394  216.5594 H   0  0  0  0  0  0  0  0  0  0  0  0
  142.0523   75.0372  217.1776 H   0  0  0  0  0  0  0  0  0  0  0  0
  140.4897   77.3899  217.4218 H   0  0  0  0  0  0  0  0  0  0  0  0
  140.1598   75.7388  218.0056 H   0  0  0  0  0  0  0  0  0  0  0  0
  141.9068   77.8330  219.5186 H   0  0  0  0  0  0  0  0  0  0  0  0
  139.2649   77.8563  219.2830 H   0  0  0  0  0  0  0  0  0  0  0  0
  139.6935   77.0400  220.8810 H   0  0  0  0  0  0  0  0  0  0  0  0
  141.8150   81.1637  220.7944 H   0  0  0  0  0  0  0  0  0  0  0  0
  143.1419   81.8263  222.7511 H   0  0  0  0  0  0  0  0  0  0  0  0
  143.1732   80.4034  224.7953 H   0  0  0  0  0  0  0  0  0  0  0  0
  141.8355   78.3107  224.7996 H   0  0  0  0  0  0  0  0  0  0  0  0
  140.5202   77.6545  222.8630 H   0  0  0  0  0  0  0  0  0  0  0  0
  139.0211   69.2230  222.7239 H   0  0  0  0  0  0  0  0  0  0  0  0
  138.7413   68.0639  224.9065 H   0  0  0  0  0  0  0  0  0  0  0  0
  139.1204   68.1248  227.3143 H   0  0  0  0  0  0  0  0  0  0  0  0
  139.9767   69.2270  229.3400 H   0  0  0  0  0  0  0  0  0  0  0  0
  141.0897   71.4569  229.1434 H   0  0  0  0  0  0  0  0  0  0  0  0
  141.3083   72.5029  226.9386 H   0  0  0  0  0  0  0  0  0  0  0  0
  1  2  2  0
  2  3  1  0
  3  4  1  0
  4  5  1  0
  5  6  2  0
  5  7  1  0
  7  8  1  0
  8  9  1  0
  9 10  1  0
 10 11  1  0
 11 12  1  0
 12 13  1  0
 13 14  1  0
 14 15  1  0
 15 16  2  0
 16 17  1  0
 17 18  2  0
 18 19  1  0
 19 20  2  0
  2 21  1  0
 21 22  2  0
 22 23  1  0
 23 24  2  0
 24 25  1  0
 25 26  2  0
 26 27  1  0
 27 28  2  0
 28 29  1  0
 29 30  2  0
 12  7  1  0
 20 15  1  0
 30 21  1  0
 29 24  1  0
  3 31  1  0
  4 32  1  0
  4 33  1  0
  8 34  1  0
  8 35  1  0
  9 36  1  0
  9 37  1  0
 10 38  1  0
 10 39  1  0
 11 40  1  0
 11 41  1  0
 12 42  1  6
 13 43  1  0
 13 44  1  0
 16 45  1  0
 17 46  1  0
 18 47  1  0
 19 48  1  0
 20 49  1  0
 22 50  1  0
 23 51  1  0
 25 52  1  0
 26 53  1  0
 27 54  1  0
 28 55  1  0
M  END
>  <smiles>  (11) 
O=C(NCC(=O)N1CCCC[C@H]1COc1ccccc1)c1ccc2ccccc2n1

>  <score_type>  (11) 
oracle

>  <origin>  (11) 
autodockgpu

>  <m_score__min__energy>  (11) 
-9.1300000000000008

>  <m_primary>  (11) 
energy

>  <rmsd>  (11) 
2.2155775539833975

>  <m_score__min__rmsd>  (11) 
2.2155775539833975

>  <meeko>  (11) 
{"free_energy": -8.0, "intermolecular_energy": -10.09, "internal_energy": -2.33, "cluster_size": 32, "cluster_id": 1, "rank_in_cluster": 32}

>  <energy>  (11) 
-8.79

>  <cluster_rmsd>  (11) 
0.52

>  <cluster>  (11) 
1

$$$$

     RDKit          3D

 55 58  0  0  0  0  0  0  0  0999 V2000
  140.5910   73.3530  222.2930 O   0  0  0  0  0  0  0  0  0  0  0  0
  140.6470   72.0880  222.3480 C   0  0  0  0  0  0  0  0  0  0  0  0
  140.9820   71.2950  221.2010 N   0  0  0  0  0  0  0  0  0  0  0  0
  141.2700   71.9350  219.9190 C   0  0  0  0  0  0  0  0  0  0  0  0
  142.6810   71.8010  219.5530 C   0  0  0  0  0  0  0  0  0  0  0  0
  143.0590   70.5850  219.2970 O   0  0  0  0  0  0  0  0  0  0  0  0
  143.6770   72.7620  219.4370 N   0  0  0  0  0  0  0  0  0  0  0  0
  143.3630   74.0650  220.1120 C   0  0  0  0  0  0  0  0  0  0  0  0
  144.6750   74.7190  220.4760 C   0  0  0  0  0  0  0  0  0  0  0  0
  145.7740   73.7840  220.8320 C   0  0  0  0  0  0  0  0  0  0  0  0
  145.9610   72.6080  219.9220 C   0  0  0  0  0  0  0  0  0  0  0  0
  144.9480   72.7410  218.7870 C   0  0  1  0  0  0  0  0  0  0  0  0
  145.1680   71.7700  217.7020 C   0  0  0  0  0  0  0  0  0  0  0  0
  145.9860   70.7150  218.0050 O   0  0  0  0  0  0  0  0  0  0  0  0
  145.8400   69.4240  218.3290 C   0  0  0  0  0  0  0  0  0  0  0  0
  146.3260   68.7630  219.4310 C   0  0  0  0  0  0  0  0  0  0  0  0
  146.1080   67.4150  219.6680 C   0  0  0  0  0  0  0  0  0  0  0  0
  145.3740   66.6620  218.7820 C   0  0  0  0  0  0  0  0  0  0  0  0
  144.8730   67.2950  217.6660 C   0  0  0  0  0  0  0  0  0  0  0  0
  145.0930   68.6220  217.4410 C   0  0  0  0  0  0  0  0  0  0  0  0
  140.3620   71.3990  223.6240 C   0  0  0  0  0  0  0  0  0  0  0  0
  139.5890   70.2570  223.6110 C   0  0  0  0  0  0  0  0  0  0  0  0
  139.2790   69.5600  224.7620 C   0  0  0  0  0  0  0  0  0  0  0  0
  139.7870   70.0640  225.9540 C   0  0  0  0  0  0  0  0  0  0  0  0
  139.5290   69.4320  227.1560 C   0  0  0  0  0  0  0  0  0  0  0  0
  140.0150   69.9040  228.3460 C   0  0  0  0  0  0  0  0  0  0  0  0
  140.7880   71.0510  228.3470 C   0  0  0  0  0  0  0  0  0  0  0  0
  141.0450   71.6760  227.1630 C   0  0  0  0  0  0  0  0  0  0  0  0
  140.5600   71.2100  225.9530 C   0  0  0  0  0  0  0  0  0  0  0  0
  140.8310   71.8510  224.7980 N   0  0  0  0  0  0  0  0  0  0  0  0
  141.0040   70.2620  221.3390 H   0  0  0  0  0  0  0  0  0  0  0  0
  140.6530   71.4649  219.1391 H   0  0  0  0  0  0  0  0  0  0  0  0
  141.0394   73.0066  220.0107 H   0  0  0  0  0  0  0  0  0  0  0  0
  142.7971   74.7148  219.4282 H   0  0  0  0  0  0  0  0  0  0  0  0
  142.7527   73.8967  221.0116 H   0  0  0  0  0  0  0  0  0  0  0  0
  145.0053   75.3198  219.6158 H   0  0  0  0  0  0  0  0  0  0  0  0
  144.4775   75.3142  221.3798 H   0  0  0  0  0  0  0  0  0  0  0  0
  146.7133   74.3565  220.8384 H   0  0  0  0  0  0  0  0  0  0  0  0
  145.4963   73.3603  221.8084 H   0  0  0  0  0  0  0  0  0  0  0  0
  146.9830   72.6066  219.5151 H   0  0  0  0  0  0  0  0  0  0  0  0
  145.8085   71.6661  220.4694 H   0  0  0  0  0  0  0  0  0  0  0  0
  145.0461   73.6676  218.2024 H   0  0  0  0  0  0  0  0  0  0  0  0
  144.1887   71.3645  217.4080 H   0  0  0  0  0  0  0  0  0  0  0  0
  145.6798   72.3255  216.9023 H   0  0  0  0  0  0  0  0  0  0  0  0
  146.9182   69.3326  220.1623 H   0  0  0  0  0  0  0  0  0  0  0  0
  146.5248   66.9445  220.5707 H   0  0  0  0  0  0  0  0  0  0  0  0
  145.1932   65.5914  218.9583 H   0  0  0  0  0  0  0  0  0  0  0  0
  144.2822   66.7173  216.9399 H   0  0  0  0  0  0  0  0  0  0  0  0
  144.6731   69.0832  216.5350 H   0  0  0  0  0  0  0  0  0  0  0  0
  139.2053   69.8878  222.6484 H   0  0  0  0  0  0  0  0  0  0  0  0
  138.6605   68.6507  224.7370 H   0  0  0  0  0  0  0  0  0  0  0  0
  138.9134   68.5204  227.1566 H   0  0  0  0  0  0  0  0  0  0  0  0
  139.7940   69.3789  229.2870 H   0  0  0  0  0  0  0  0  0  0  0  0
  141.1894   71.4529  229.2890 H   0  0  0  0  0  0  0  0  0  0  0  0
  141.6621   72.5866  227.1693 H   0  0  0  0  0  0  0  0  0  0  0  0
  1  2  2  0
  2  3  1  0
  3  4  1  0
  4  5  1  0
  5  6  2  0
  5  7  1  0
  7  8  1  0
  8  9  1  0
  9 10  1  0
 10 11  1  0
 11 12  1  0
 12 13  1  0
 13 14  1  0
 14 15  1  0
 15 16  2  0
 16 17  1  0
 17 18  2  0
 18 19  1  0
 19 20  2  0
  2 21  1  0
 21 22  2  0
 22 23  1  0
 23 24  2  0
 24 25  1  0
 25 26  2  0
 26 27  1  0
 27 28  2  0
 28 29  1  0
 29 30  2  0
 12  7  1  0
 20 15  1  0
 30 21  1  0
 29 24  1  0
  3 31  1  0
  4 32  1  0
  4 33  1  0
  8 34  1  0
  8 35  1  0
  9 36  1  0
  9 37  1  0
 10 38  1  0
 10 39  1  0
 11 40  1  0
 11 41  1  0
 12 42  1  6
 13 43  1  0
 13 44  1  0
 16 45  1  0
 17 46  1  0
 18 47  1  0
 19 48  1  0
 20 49  1  0
 22 50  1  0
 23 51  1  0
 25 52  1  0
 26 53  1  0
 27 54  1  0
 28 55  1  0
M  END
>  <smiles>  (12) 
O=C(NCC(=O)N1CCCC[C@H]1COc1ccccc1)c1ccc2ccccc2n1

>  <score_type>  (12) 
oracle

>  <origin>  (12) 
autodockgpu

>  <m_score__min__energy>  (12) 
-9.1300000000000008

>  <m_primary>  (12) 
energy

>  <rmsd>  (12) 
3.98955200523558

>  <m_score__min__rmsd>  (12) 
3.98955200523558

>  <meeko>  (12) 
{"free_energy": -8.49, "intermolecular_energy": -10.58, "internal_energy": -1.68, "cluster_size": 1, "cluster_id": 2, "rank_in_cluster": 1}

>  <energy>  (12) 
-8.74

>  <cluster_rmsd>  (12) 
1.08

>  <cluster>  (12) 
1

$$$$

     RDKit          3D

 55 58  0  0  0  0  0  0  0  0999 V2000
  139.5630   70.8190  221.2790 O   0  0  0  0  0  0  0  0  0  0  0  0
  139.3030   71.5330  222.2920 C   0  0  0  0  0  0  0  0  0  0  0  0
  138.7200   72.8380  222.1690 N   0  0  0  0  0  0  0  0  0  0  0  0
  138.4060   73.3850  220.8510 C   0  0  0  0  0  0  0  0  0  0  0  0
  139.5900   73.9560  220.2070 C   0  0  0  0  0  0  0  0  0  0  0  0
  139.4980   74.0770  218.9170 O   0  0  0  0  0  0  0  0  0  0  0  0
  140.7930   74.3860  220.7530 N   0  0  0  0  0  0  0  0  0  0  0  0
  141.8650   73.3370  220.7980 C   0  0  0  0  0  0  0  0  0  0  0  0
  143.1990   74.0440  220.7680 C   0  0  0  0  0  0  0  0  0  0  0  0
  143.2330   75.3060  219.9840 C   0  0  0  0  0  0  0  0  0  0  0  0
  142.0930   76.2540  220.2090 C   0  0  0  0  0  0  0  0  0  0  0  0
  141.1980   75.6470  221.2880 C   0  0  1  0  0  0  0  0  0  0  0  0
  140.1600   76.5760  221.7650 C   0  0  0  0  0  0  0  0  0  0  0  0
  140.5570   77.4720  222.7200 O   0  0  0  0  0  0  0  0  0  0  0  0
  141.3110   78.5770  222.7720 C   0  0  0  0  0  0  0  0  0  0  0  0
  141.7100   79.3840  221.7340 C   0  0  0  0  0  0  0  0  0  0  0  0
  142.4940   80.5140  221.9070 C   0  0  0  0  0  0  0  0  0  0  0  0
  142.9160   80.8830  223.1630 C   0  0  0  0  0  0  0  0  0  0  0  0
  142.5340   80.0950  224.2250 C   0  0  0  0  0  0  0  0  0  0  0  0
  141.7630   78.9850  224.0450 C   0  0  0  0  0  0  0  0  0  0  0  0
  139.6050   71.0190  223.6450 C   0  0  0  0  0  0  0  0  0  0  0  0
  139.2520   69.7250  223.9640 C   0  0  0  0  0  0  0  0  0  0  0  0
  139.5010   69.1740  225.2050 C   0  0  0  0  0  0  0  0  0  0  0  0
  140.1330   69.9920  226.1360 C   0  0  0  0  0  0  0  0  0  0  0  0
  140.4230   69.5250  227.4050 C   0  0  0  0  0  0  0  0  0  0  0  0
  141.0440   70.3060  228.3430 C   0  0  0  0  0  0  0  0  0  0  0  0
  141.3940   71.6030  228.0120 C   0  0  0  0  0  0  0  0  0  0  0  0
  141.1100   72.0650  226.7610 C   0  0  0  0  0  0  0  0  0  0  0  0
  140.4820   71.2870  225.8040 C   0  0  0  0  0  0  0  0  0  0  0  0
  140.2140   71.7730  224.5740 N   0  0  0  0  0  0  0  0  0  0  0  0
  138.5410   73.3530  223.0570 H   0  0  0  0  0  0  0  0  0  0  0  0
  138.0081   72.5797  220.2161 H   0  0  0  0  0  0  0  0  0  0  0  0
  137.6646   74.1873  220.9799 H   0  0  0  0  0  0  0  0  0  0  0  0
  141.7739   72.7474  221.7222 H   0  0  0  0  0  0  0  0  0  0  0  0
  141.7716   72.6530  219.9416 H   0  0  0  0  0  0  0  0  0  0  0  0
  143.4814   74.2805  221.8045 H   0  0  0  0  0  0  0  0  0  0  0  0
  143.8958   73.3563  220.2665 H   0  0  0  0  0  0  0  0  0  0  0  0
  144.1641   75.8340  220.2375 H   0  0  0  0  0  0  0  0  0  0  0  0
  143.1594   75.0007  218.9298 H   0  0  0  0  0  0  0  0  0  0  0  0
  142.4760   77.2294  220.5435 H   0  0  0  0  0  0  0  0  0  0  0  0
  141.5277   76.4084  219.2781 H   0  0  0  0  0  0  0  0  0  0  0  0
  141.7073   75.4630  222.2455 H   0  0  0  0  0  0  0  0  0  0  0  0
  139.7932   77.1462  220.8987 H   0  0  0  0  0  0  0  0  0  0  0  0
  139.3940   75.9483  222.2438 H   0  0  0  0  0  0  0  0  0  0  0  0
  141.3914   79.1202  220.7147 H   0  0  0  0  0  0  0  0  0  0  0  0
  142.7804   81.1194  221.0344 H   0  0  0  0  0  0  0  0  0  0  0  0
  143.5379   81.7777  223.3137 H   0  0  0  0  0  0  0  0  0  0  0  0
  142.8577   80.3666  225.2406 H   0  0  0  0  0  0  0  0  0  0  0  0
  141.4832   78.3858  224.9240 H   0  0  0  0  0  0  0  0  0  0  0  0
  138.7534   69.1087  223.2013 H   0  0  0  0  0  0  0  0  0  0  0  0
  139.2140   68.1397  225.4457 H   0  0  0  0  0  0  0  0  0  0  0  0
  140.1461   68.4937  227.6693 H   0  0  0  0  0  0  0  0  0  0  0  0
  141.2614   69.9079  229.3451 H   0  0  0  0  0  0  0  0  0  0  0  0
  141.8937   72.2514  228.7467 H   0  0  0  0  0  0  0  0  0  0  0  0
  141.3910   73.0965  226.5022 H   0  0  0  0  0  0  0  0  0  0  0  0
  1  2  2  0
  2  3  1  0
  3  4  1  0
  4  5  1  0
  5  6  2  0
  5  7  1  0
  7  8  1  0
  8  9  1  0
  9 10  1  0
 10 11  1  0
 11 12  1  0
 12 13  1  0
 13 14  1  0
 14 15  1  0
 15 16  2  0
 16 17  1  0
 17 18  2  0
 18 19  1  0
 19 20  2  0
  2 21  1  0
 21 22  2  0
 22 23  1  0
 23 24  2  0
 24 25  1  0
 25 26  2  0
 26 27  1  0
 27 28  2  0
 28 29  1  0
 29 30  2  0
 12  7  1  0
 20 15  1  0
 30 21  1  0
 29 24  1  0
  3 31  1  0
  4 32  1  0
  4 33  1  0
  8 34  1  0
  8 35  1  0
  9 36  1  0
  9 37  1  0
 10 38  1  0
 10 39  1  0
 11 40  1  0
 11 41  1  0
 12 42  1  1
 13 43  1  0
 13 44  1  0
 16 45  1  0
 17 46  1  0
 18 47  1  0
 19 48  1  0
 20 49  1  0
 22 50  1  0
 23 51  1  0
 25 52  1  0
 26 53  1  0
 27 54  1  0
 28 55  1  0
M  END
>  <smiles>  (13) 
O=C(NCC(=O)N1CCCC[C@H]1COc1ccccc1)c1ccc2ccccc2n1

>  <score_type>  (13) 
oracle

>  <origin>  (13) 
autodockgpu

>  <m_score__min__energy>  (13) 
-9.1300000000000008

>  <m_primary>  (13) 
energy

>  <rmsd>  (13) 
2.4419018627868248

>  <m_score__min__rmsd>  (13) 
2.4419018627868248

>  <meeko>  (13) 
{"free_energy": -8.65, "intermolecular_energy": -10.74, "internal_energy": -1.77, "cluster_size": 32, "cluster_id": 1, "rank_in_cluster": 16}

>  <energy>  (13) 
-8.73

>  <cluster_rmsd>  (13) 
1.42

>  <cluster>  (13) 
1

$$$$

     RDKit          3D

 55 58  0  0  0  0  0  0  0  0999 V2000
  140.8900   71.5570  221.3500 O   0  0  0  0  0  0  0  0  0  0  0  0
  140.3870   72.1500  222.3510 C   0  0  0  0  0  0  0  0  0  0  0  0
  139.9890   73.5260  222.2940 N   0  0  0  0  0  0  0  0  0  0  0  0
  140.1560   74.2930  221.0610 C   0  0  0  0  0  0  0  0  0  0  0  0
  140.3830   75.7130  221.3350 C   0  0  0  0  0  0  0  0  0  0  0  0
  140.1090   76.0790  222.5510 O   0  0  0  0  0  0  0  0  0  0  0  0
  140.8420   76.7290  220.5060 N   0  0  0  0  0  0  0  0  0  0  0  0
  142.2770   76.5890  220.0900 C   0  0  0  0  0  0  0  0  0  0  0  0
  142.4400   77.2980  218.7660 C   0  0  0  0  0  0  0  0  0  0  0  0
  141.2550   77.2560  217.8710 C   0  0  0  0  0  0  0  0  0  0  0  0
  139.9320   77.5520  218.5130 C   0  0  0  0  0  0  0  0  0  0  0  0
  140.1990   77.8900  219.9790 C   0  0  1  0  0  0  0  0  0  0  0  0
  139.0120   78.4150  220.6740 C   0  0  0  0  0  0  0  0  0  0  0  0
  139.2580   79.1110  221.8270 O   0  0  0  0  0  0  0  0  0  0  0  0
  140.3320   79.5430  222.4990 C   0  0  0  0  0  0  0  0  0  0  0  0
  141.0970   78.8570  223.4130 C   0  0  0  0  0  0  0  0  0  0  0  0
  142.1980   79.4080  224.0500 C   0  0  0  0  0  0  0  0  0  0  0  0
  142.5790   80.7030  223.7860 C   0  0  0  0  0  0  0  0  0  0  0  0
  141.8330   81.4170  222.8760 C   0  0  0  0  0  0  0  0  0  0  0  0
  140.7520   80.8670  222.2540 C   0  0  0  0  0  0  0  0  0  0  0  0
  140.2010   71.4120  223.6190 C   0  0  0  0  0  0  0  0  0  0  0  0
  139.5610   70.1910  223.5960 C   0  0  0  0  0  0  0  0  0  0  0  0
  139.3510   69.4440  224.7370 C   0  0  0  0  0  0  0  0  0  0  0  0
  139.8180   69.9820  225.9310 C   0  0  0  0  0  0  0  0  0  0  0  0
  139.6520   69.3050  227.1260 C   0  0  0  0  0  0  0  0  0  0  0  0
  140.1010   69.8090  228.3170 C   0  0  0  0  0  0  0  0  0  0  0  0
  140.7420   71.0350  228.3280 C   0  0  0  0  0  0  0  0  0  0  0  0
  140.9070   71.7050  227.1520 C   0  0  0  0  0  0  0  0  0  0  0  0
  140.4580   71.2070  225.9410 C   0  0  0  0  0  0  0  0  0  0  0  0
  140.6360   71.8940  224.7930 N   0  0  0  0  0  0  0  0  0  0  0  0
  139.5850   73.9310  223.1660 H   0  0  0  0  0  0  0  0  0  0  0  0
  141.0185   73.8943  220.5068 H   0  0  0  0  0  0  0  0  0  0  0  0
  139.2323   74.2003  220.4709 H   0  0  0  0  0  0  0  0  0  0  0  0
  142.9327   77.0480  220.8445 H   0  0  0  0  0  0  0  0  0  0  0  0
  142.5502   75.5276  219.9960 H   0  0  0  0  0  0  0  0  0  0  0  0
  142.6723   78.3532  218.9724 H   0  0  0  0  0  0  0  0  0  0  0  0
  143.2414   76.7651  218.2333 H   0  0  0  0  0  0  0  0  0  0  0  0
  141.4124   77.9935  217.0702 H   0  0  0  0  0  0  0  0  0  0  0  0
  141.1868   76.2158  217.5199 H   0  0  0  0  0  0  0  0  0  0  0  0
  139.4539   78.4064  218.0115 H   0  0  0  0  0  0  0  0  0  0  0  0
  139.2590   76.6858  218.4312 H   0  0  0  0  0  0  0  0  0  0  0  0
  140.8709   78.7480  220.1288 H   0  0  0  0  0  0  0  0  0  0  0  0
  138.4837   79.0859  219.9806 H   0  0  0  0  0  0  0  0  0  0  0  0
  138.4269   77.5336  220.9752 H   0  0  0  0  0  0  0  0  0  0  0  0
  140.8214   77.8189  223.6505 H   0  0  0  0  0  0  0  0  0  0  0  0
  142.7704   78.8059  224.7710 H   0  0  0  0  0  0  0  0  0  0  0  0
  143.4501   81.1526  224.2850 H   0  0  0  0  0  0  0  0  0  0  0  0
  142.1155   82.4548  222.6455 H   0  0  0  0  0  0  0  0  0  0  0  0
  140.1867   81.4779  221.5348 H   0  0  0  0  0  0  0  0  0  0  0  0
  139.2046   69.7978  222.6324 H   0  0  0  0  0  0  0  0  0  0  0  0
  138.8393   68.4708  224.7036 H   0  0  0  0  0  0  0  0  0  0  0  0
  139.1427   68.3300  227.1190 H   0  0  0  0  0  0  0  0  0  0  0  0
  139.9543   69.2475  229.2514 H   0  0  0  0  0  0  0  0  0  0  0  0
  141.1129   71.4627  229.2711 H   0  0  0  0  0  0  0  0  0  0  0  0
  141.4169   72.6796  227.1661 H   0  0  0  0  0  0  0  0  0  0  0  0
  1  2  2  0
  2  3  1  0
  3  4  1  0
  4  5  1  0
  5  6  2  0
  5  7  1  0
  7  8  1  0
  8  9  1  0
  9 10  1  0
 10 11  1  0
 11 12  1  0
 12 13  1  0
 13 14  1  0
 14 15  1  0
 15 16  2  0
 16 17  1  0
 17 18  2  0
 18 19  1  0
 19 20  2  0
  2 21  1  0
 21 22  2  0
 22 23  1  0
 23 24  2  0
 24 25  1  0
 25 26  2  0
 26 27  1  0
 27 28  2  0
 28 29  1  0
 29 30  2  0
 12  7  1  0
 20 15  1  0
 30 21  1  0
 29 24  1  0
  3 31  1  0
  4 32  1  0
  4 33  1  0
  8 34  1  0
  8 35  1  0
  9 36  1  0
  9 37  1  0
 10 38  1  0
 10 39  1  0
 11 40  1  0
 11 41  1  0
 12 42  1  6
 13 43  1  0
 13 44  1  0
 16 45  1  0
 17 46  1  0
 18 47  1  0
 19 48  1  0
 20 49  1  0
 22 50  1  0
 23 51  1  0
 25 52  1  0
 26 53  1  0
 27 54  1  0
 28 55  1  0
M  END
>  <smiles>  (14) 
O=C(NCC(=O)N1CCCC[C@H]1COc1ccccc1)c1ccc2ccccc2n1

>  <score_type>  (14) 
oracle

>  <origin>  (14) 
autodockgpu

>  <m_score__min__energy>  (14) 
-9.1300000000000008

>  <m_primary>  (14) 
energy

>  <rmsd>  (14) 
2.2818740878813504

>  <m_score__min__rmsd>  (14) 
2.2818740878813504

>  <meeko>  (14) 
{"free_energy": -8.46, "intermolecular_energy": -10.55, "internal_energy": -2.21, "cluster_size": 32, "cluster_id": 1, "rank_in_cluster": 26}

>  <energy>  (14) 
-8.72

>  <cluster_rmsd>  (14) 
1.3

>  <cluster>  (14) 
1

$$$$

     RDKit          3D

 55 58  0  0  0  0  0  0  0  0999 V2000
  137.0700   76.9780  222.5320 O   0  0  0  0  0  0  0  0  0  0  0  0
  138.3360   76.9350  222.5110 C   0  0  0  0  0  0  0  0  0  0  0  0
  139.0470   75.7360  222.1770 N   0  0  0  0  0  0  0  0  0  0  0  0
  138.3190   74.5120  221.8490 C   0  0  0  0  0  0  0  0  0  0  0  0
  139.1390   73.3200  222.0720 C   0  0  0  0  0  0  0  0  0  0  0  0
  140.4180   73.5140  221.9570 O   0  0  0  0  0  0  0  0  0  0  0  0
  138.7700   72.0180  222.3860 N   0  0  0  0  0  0  0  0  0  0  0  0
  137.3500   71.6760  222.0400 C   0  0  0  0  0  0  0  0  0  0  0  0
  137.2830   70.1850  221.8080 C   0  0  0  0  0  0  0  0  0  0  0  0
  138.5040   69.5770  221.2190 C   0  0  0  0  0  0  0  0  0  0  0  0
  139.8090   69.9970  221.8270 C   0  0  0  0  0  0  0  0  0  0  0  0
  139.4930   70.9420  222.9850 C   0  0  1  0  0  0  0  0  0  0  0  0
  140.6710   71.2580  223.8080 C   0  0  0  0  0  0  0  0  0  0  0  0
  140.5110   71.1060  225.1590 O   0  0  0  0  0  0  0  0  0  0  0  0
  140.4910   70.0930  226.0340 C   0  0  0  0  0  0  0  0  0  0  0  0
  140.2780   68.7570  225.7860 C   0  0  0  0  0  0  0  0  0  0  0  0
  140.2820   67.7890  226.7780 C   0  0  0  0  0  0  0  0  0  0  0  0
  140.5060   68.1360  228.0900 C   0  0  0  0  0  0  0  0  0  0  0  0
  140.7220   69.4660  228.3720 C   0  0  0  0  0  0  0  0  0  0  0  0
  140.7150   70.4130  227.3900 C   0  0  0  0  0  0  0  0  0  0  0  0
  139.1130   78.1500  222.8370 C   0  0  0  0  0  0  0  0  0  0  0  0
  138.4400   79.3250  223.1010 C   0  0  0  0  0  0  0  0  0  0  0  0
  139.0950   80.4990  223.4130 C   0  0  0  0  0  0  0  0  0  0  0  0
  140.4840   80.4480  223.4500 C   0  0  0  0  0  0  0  0  0  0  0  0
  141.2250   81.5760  223.7540 C   0  0  0  0  0  0  0  0  0  0  0  0
  142.5930   81.5580  223.7980 C   0  0  0  0  0  0  0  0  0  0  0  0
  143.2580   80.3740  223.5310 C   0  0  0  0  0  0  0  0  0  0  0  0
  142.5300   79.2610  223.2320 C   0  0  0  0  0  0  0  0  0  0  0  0
  141.1470   79.2650  223.1830 C   0  0  0  0  0  0  0  0  0  0  0  0
  140.4540   78.1470  222.8840 N   0  0  0  0  0  0  0  0  0  0  0  0
  140.0880   75.7940  222.1850 H   0  0  0  0  0  0  0  0  0  0  0  0
  137.4210   74.4507  222.4813 H   0  0  0  0  0  0  0  0  0  0  0  0
  138.0481   74.5483  220.7835 H   0  0  0  0  0  0  0  0  0  0  0  0
  136.6838   71.9569  222.8690 H   0  0  0  0  0  0  0  0  0  0  0  0
  137.0294   72.2218  221.1404 H   0  0  0  0  0  0  0  0  0  0  0  0
  137.0950   69.6988  222.7766 H   0  0  0  0  0  0  0  0  0  0  0  0
  136.4806   70.0282  221.0720 H   0  0  0  0  0  0  0  0  0  0  0  0
  138.4201   68.4853  221.3242 H   0  0  0  0  0  0  0  0  0  0  0  0
  138.5364   69.9289  220.1773 H   0  0  0  0  0  0  0  0  0  0  0  0
  140.3511   69.1151  222.1991 H   0  0  0  0  0  0  0  0  0  0  0  0
  140.4413   70.4983  221.0793 H   0  0  0  0  0  0  0  0  0  0  0  0
  138.8587   70.4995  223.7672 H   0  0  0  0  0  0  0  0  0  0  0  0
  141.4923   70.5994  223.4890 H   0  0  0  0  0  0  0  0  0  0  0  0
  140.8688   72.3283  223.6487 H   0  0  0  0  0  0  0  0  0  0  0  0
  140.0953   68.4409  224.7483 H   0  0  0  0  0  0  0  0  0  0  0  0
  140.1048   66.7359  226.5142 H   0  0  0  0  0  0  0  0  0  0  0  0
  140.5123   67.3771  228.8863 H   0  0  0  0  0  0  0  0  0  0  0  0
  140.9044   69.7721  229.4127 H   0  0  0  0  0  0  0  0  0  0  0  0
  140.8902   71.4635  227.6651 H   0  0  0  0  0  0  0  0  0  0  0  0
  137.3407   79.3262  223.0613 H   0  0  0  0  0  0  0  0  0  0  0  0
  138.5456   81.4288  223.6220 H   0  0  0  0  0  0  0  0  0  0  0  0
  140.6979   82.5176  223.9672 H   0  0  0  0  0  0  0  0  0  0  0  0
  143.1556   82.4712  224.0420 H   0  0  0  0  0  0  0  0  0  0  0  0
  144.3568   80.3317  223.5596 H   0  0  0  0  0  0  0  0  0  0  0  0
  143.0631   78.3222  223.0212 H   0  0  0  0  0  0  0  0  0  0  0  0
  1  2  2  0
  2  3  1  0
  3  4  1  0
  4  5  1  0
  5  6  2  0
  5  7  1  0
  7  8  1  0
  8  9  1  0
  9 10  1  0
 10 11  1  0
 11 12  1  0
 12 13  1  0
 13 14  1  0
 14 15  1  0
 15 16  2  0
 16 17  1  0
 17 18  2  0
 18 19  1  0
 19 20  2  0
  2 21  1  0
 21 22  2  0
 22 23  1  0
 23 24  2  0
 24 25  1  0
 25 26  2  0
 26 27  1  0
 27 28  2  0
 28 29  1  0
 29 30  2  0
 12  7  1  0
 20 15  1  0
 30 21  1  0
 29 24  1  0
  3 31  1  0
  4 32  1  0
  4 33  1  0
  8 34  1  0
  8 35  1  0
  9 36  1  0
  9 37  1  0
 10 38  1  0
 10 39  1  0
 11 40  1  0
 11 41  1  0
 12 42  1  1
 13 43  1  0
 13 44  1  0
 16 45  1  0
 17 46  1  0
 18 47  1  0
 19 48  1  0
 20 49  1  0
 22 50  1  0
 23 51  1  0
 25 52  1  0
 26 53  1  0
 27 54  1  0
 28 55  1  0
M  END
>  <smiles>  (15) 
O=C(NCC(=O)N1CCCC[C@H]1COc1ccccc1)c1ccc2ccccc2n1

>  <score_type>  (15) 
oracle

>  <origin>  (15) 
autodockgpu

>  <m_score__min__energy>  (15) 
-9.1300000000000008

>  <m_primary>  (15) 
energy

>  <rmsd>  (15) 
8.394050775506201

>  <m_score__min__rmsd>  (15) 
8.394050775506201

>  <meeko>  (15) 
{"free_energy": -7.8, "intermolecular_energy": -9.89, "internal_energy": -2.03, "cluster_size": 2, "cluster_id": 5, "rank_in_cluster": 2}

>  <energy>  (15) 
-8.67

>  <cluster_rmsd>  (15) 
1.37

>  <cluster>  (15) 
1

$$$$

     RDKit          3D

 55 58  0  0  0  0  0  0  0  0999 V2000
  138.9470   70.6240  221.5790 O   0  0  0  0  0  0  0  0  0  0  0  0
  139.3370   71.2180  222.6290 C   0  0  0  0  0  0  0  0  0  0  0  0
  139.5910   72.6290  222.6500 N   0  0  0  0  0  0  0  0  0  0  0  0
  139.4030   73.4320  221.4440 C   0  0  0  0  0  0  0  0  0  0  0  0
  139.3300   74.8610  221.7530 C   0  0  0  0  0  0  0  0  0  0  0  0
  140.3860   75.3430  222.3350 O   0  0  0  0  0  0  0  0  0  0  0  0
  138.3140   75.7810  221.5240 N   0  0  0  0  0  0  0  0  0  0  0  0
  136.9330   75.2610  221.7960 C   0  0  0  0  0  0  0  0  0  0  0  0
  136.0610   76.4420  222.1480 C   0  0  0  0  0  0  0  0  0  0  0  0
  136.7450   77.5460  222.8700 C   0  0  0  0  0  0  0  0  0  0  0  0
  138.0760   77.9670  222.3230 C   0  0  0  0  0  0  0  0  0  0  0  0
  138.3420   77.1350  221.0710 C   0  0  1  0  0  0  0  0  0  0  0  0
  139.5130   77.5990  220.3090 C   0  0  0  0  0  0  0  0  0  0  0  0
  140.6890   77.6630  221.0070 O   0  0  0  0  0  0  0  0  0  0  0  0
  141.2270   78.4490  221.9470 C   0  0  0  0  0  0  0  0  0  0  0  0
  141.2470   78.2570  223.3080 C   0  0  0  0  0  0  0  0  0  0  0  0
  141.8400   79.1430  224.1930 C   0  0  0  0  0  0  0  0  0  0  0  0
  142.4500   80.2850  223.7310 C   0  0  0  0  0  0  0  0  0  0  0  0
  142.4470   80.5080  222.3720 C   0  0  0  0  0  0  0  0  0  0  0  0
  141.8610   79.6310  221.5090 C   0  0  0  0  0  0  0  0  0  0  0  0
  139.5420   70.4430  223.8710 C   0  0  0  0  0  0  0  0  0  0  0  0
  139.1160   69.1330  223.9220 C   0  0  0  0  0  0  0  0  0  0  0  0
  139.2710   68.3470  225.0460 C   0  0  0  0  0  0  0  0  0  0  0  0
  139.8850   68.9410  226.1440 C   0  0  0  0  0  0  0  0  0  0  0  0
  140.0840   68.2300  227.3140 C   0  0  0  0  0  0  0  0  0  0  0  0
  140.6840   68.7870  228.4110 C   0  0  0  0  0  0  0  0  0  0  0  0
  141.1070   70.1030  228.3490 C   0  0  0  0  0  0  0  0  0  0  0  0
  140.9130   70.8060  227.1960 C   0  0  0  0  0  0  0  0  0  0  0  0
  140.3070   70.2550  226.0800 C   0  0  0  0  0  0  0  0  0  0  0  0
  140.1290   70.9760  224.9540 N   0  0  0  0  0  0  0  0  0  0  0  0
  139.9100   73.0310  223.5580 H   0  0  0  0  0  0  0  0  0  0  0  0
  140.2491   73.2569  220.7633 H   0  0  0  0  0  0  0  0  0  0  0  0
  138.4535   73.1326  220.9763 H   0  0  0  0  0  0  0  0  0  0  0  0
  136.5389   74.7574  220.9010 H   0  0  0  0  0  0  0  0  0  0  0  0
  136.9498   74.5340  222.6213 H   0  0  0  0  0  0  0  0  0  0  0  0
  135.6500   76.8511  221.2132 H   0  0  0  0  0  0  0  0  0  0  0  0
  135.2943   76.0582  222.8371 H   0  0  0  0  0  0  0  0  0  0  0  0
  136.0810   78.4227  222.8501 H   0  0  0  0  0  0  0  0  0  0  0  0
  136.9496   77.1573  223.8785 H   0  0  0  0  0  0  0  0  0  0  0  0
  138.0551   79.0363  222.0658 H   0  0  0  0  0  0  0  0  0  0  0  0
  138.8689   77.8087  223.0689 H   0  0  0  0  0  0  0  0  0  0  0  0
  137.5798   77.2464  220.2858 H   0  0  0  0  0  0  0  0  0  0  0  0
  139.6594   76.9116  219.4628 H   0  0  0  0  0  0  0  0  0  0  0  0
  139.2854   78.6329  220.0102 H   0  0  0  0  0  0  0  0  0  0  0  0
  140.7680   77.3543  223.7151 H   0  0  0  0  0  0  0  0  0  0  0  0
  141.8225   78.9312  225.2723 H   0  0  0  0  0  0  0  0  0  0  0  0
  142.9243   80.9964  224.4231 H   0  0  0  0  0  0  0  0  0  0  0  0
  142.9281   81.4138  221.9744 H   0  0  0  0  0  0  0  0  0  0  0  0
  141.8830   79.8527  220.4318 H   0  0  0  0  0  0  0  0  0  0  0  0
  138.6346   68.6978  223.0338 H   0  0  0  0  0  0  0  0  0  0  0  0
  138.9262   67.3028  225.0723 H   0  0  0  0  0  0  0  0  0  0  0  0
  139.7493   67.1834  227.3643 H   0  0  0  0  0  0  0  0  0  0  0  0
  140.8278   68.1972  229.3283 H   0  0  0  0  0  0  0  0  0  0  0  0
  141.5922   70.5751  229.2160 H   0  0  0  0  0  0  0  0  0  0  0  0
  141.2514   71.8517  227.1514 H   0  0  0  0  0  0  0  0  0  0  0  0
  1  2  2  0
  2  3  1  0
  3  4  1  0
  4  5  1  0
  5  6  2  0
  5  7  1  0
  7  8  1  0
  8  9  1  0
  9 10  1  0
 10 11  1  0
 11 12  1  0
 12 13  1  0
 13 14  1  0
 14 15  1  0
 15 16  2  0
 16 17  1  0
 17 18  2  0
 18 19  1  0
 19 20  2  0
  2 21  1  0
 21 22  2  0
 22 23  1  0
 23 24  2  0
 24 25  1  0
 25 26  2  0
 26 27  1  0
 27 28  2  0
 28 29  1  0
 29 30  2  0
 12  7  1  0
 20 15  1  0
 30 21  1  0
 29 24  1  0
  3 31  1  0
  4 32  1  0
  4 33  1  0
  8 34  1  0
  8 35  1  0
  9 36  1  0
  9 37  1  0
 10 38  1  0
 10 39  1  0
 11 40  1  0
 11 41  1  0
 12 42  1  6
 13 43  1  0
 13 44  1  0
 16 45  1  0
 17 46  1  0
 18 47  1  0
 19 48  1  0
 20 49  1  0
 22 50  1  0
 23 51  1  0
 25 52  1  0
 26 53  1  0
 27 54  1  0
 28 55  1  0
M  END
>  <smiles>  (16) 
O=C(NCC(=O)N1CCCC[C@H]1COc1ccccc1)c1ccc2ccccc2n1

>  <score_type>  (16) 
oracle

>  <origin>  (16) 
autodockgpu

>  <m_score__min__energy>  (16) 
-9.1300000000000008

>  <m_primary>  (16) 
energy

>  <rmsd>  (16) 
2.709066654270908

>  <m_score__min__rmsd>  (16) 
2.709066654270908

>  <meeko>  (16) 
{"free_energy": -8.28, "intermolecular_energy": -10.37, "internal_energy": -1.91, "cluster_size": 2, "cluster_id": 3, "rank_in_cluster": 1}

>  <energy>  (16) 
-8.65

>  <cluster_rmsd>  (16) 
1.28

>  <cluster>  (16) 
1

$$$$

     RDKit          3D

 55 58  0  0  0  0  0  0  0  0999 V2000
  137.0350   76.9690  222.0910 O   0  0  0  0  0  0  0  0  0  0  0  0
  138.2790   76.8250  222.2880 C   0  0  0  0  0  0  0  0  0  0  0  0
  138.9290   75.5570  222.1270 N   0  0  0  0  0  0  0  0  0  0  0  0
  138.1620   74.3780  221.7280 C   0  0  0  0  0  0  0  0  0  0  0  0
  138.8800   73.1390  222.0310 C   0  0  0  0  0  0  0  0  0  0  0  0
  140.1290   73.3010  222.3450 O   0  0  0  0  0  0  0  0  0  0  0  0
  138.4400   71.8220  222.0350 N   0  0  0  0  0  0  0  0  0  0  0  0
  137.6770   71.4180  220.8070 C   0  0  0  0  0  0  0  0  0  0  0  0
  137.8400   69.9270  220.6370 C   0  0  0  0  0  0  0  0  0  0  0  0
  139.1450   69.3740  221.0840 C   0  0  0  0  0  0  0  0  0  0  0  0
  139.6410   69.8500  222.4170 C   0  0  0  0  0  0  0  0  0  0  0  0
  138.5750   70.7760  222.9990 C   0  0  1  0  0  0  0  0  0  0  0  0
  138.8330   71.1420  224.4020 C   0  0  0  0  0  0  0  0  0  0  0  0
  139.9780   70.6290  224.9490 O   0  0  0  0  0  0  0  0  0  0  0  0
  140.3060   69.8830  226.0100 C   0  0  0  0  0  0  0  0  0  0  0  0
  140.3250   68.5120  226.1150 C   0  0  0  0  0  0  0  0  0  0  0  0
  140.6880   67.8420  227.2720 C   0  0  0  0  0  0  0  0  0  0  0  0
  141.0540   68.5430  228.3970 C   0  0  0  0  0  0  0  0  0  0  0  0
  141.0450   69.9180  228.3260 C   0  0  0  0  0  0  0  0  0  0  0  0
  140.6870   70.5690  227.1830 C   0  0  0  0  0  0  0  0  0  0  0  0
  139.0930   77.9900  222.6940 C   0  0  0  0  0  0  0  0  0  0  0  0
  138.4580   79.1170  223.1710 C   0  0  0  0  0  0  0  0  0  0  0  0
  139.1490   80.2440  223.5690 C   0  0  0  0  0  0  0  0  0  0  0  0
  140.5350   80.1940  223.4690 C   0  0  0  0  0  0  0  0  0  0  0  0
  141.3100   81.2760  223.8450 C   0  0  0  0  0  0  0  0  0  0  0  0
  142.6770   81.2580  223.7570 C   0  0  0  0  0  0  0  0  0  0  0  0
  143.3030   80.1220  223.2770 C   0  0  0  0  0  0  0  0  0  0  0  0
  142.5410   79.0530  222.9060 C   0  0  0  0  0  0  0  0  0  0  0  0
  141.1590   79.0590  222.9890 C   0  0  0  0  0  0  0  0  0  0  0  0
  140.4320   77.9860  222.6130 N   0  0  0  0  0  0  0  0  0  0  0  0
  139.9550   75.5330  222.3110 H   0  0  0  0  0  0  0  0  0  0  0  0
  137.2037   74.3762  222.2680 H   0  0  0  0  0  0  0  0  0  0  0  0
  138.0008   74.4247  220.6409 H   0  0  0  0  0  0  0  0  0  0  0  0
  136.6125   71.6674  220.9281 H   0  0  0  0  0  0  0  0  0  0  0  0
  138.0578   71.9510  219.9233 H   0  0  0  0  0  0  0  0  0  0  0  0
  137.0455   69.4307  221.2136 H   0  0  0  0  0  0  0  0  0  0  0  0
  137.7847   69.7372  219.5549 H   0  0  0  0  0  0  0  0  0  0  0  0
  139.0472   68.2794  221.1330 H   0  0  0  0  0  0  0  0  0  0  0  0
  139.8835   69.7287  220.3499 H   0  0  0  0  0  0  0  0  0  0  0  0
  139.7997   68.9921  223.0870 H   0  0  0  0  0  0  0  0  0  0  0  0
  140.5980   70.3812  222.3074 H   0  0  0  0  0  0  0  0  0  0  0  0
  137.5905   70.3028  223.1293 H   0  0  0  0  0  0  0  0  0  0  0  0
  138.8932   72.2388  224.4594 H   0  0  0  0  0  0  0  0  0  0  0  0
  138.0042   70.7094  224.9816 H   0  0  0  0  0  0  0  0  0  0  0  0
  140.0373   67.9170  225.2356 H   0  0  0  0  0  0  0  0  0  0  0  0
  140.6834   66.7422  227.2909 H   0  0  0  0  0  0  0  0  0  0  0  0
  141.3440   68.0230  229.3220 H   0  0  0  0  0  0  0  0  0  0  0  0
  141.3330   70.5042  229.2111 H   0  0  0  0  0  0  0  0  0  0  0  0
  140.6954   71.6689  227.1747 H   0  0  0  0  0  0  0  0  0  0  0  0
  137.3600   79.1183  223.2369 H   0  0  0  0  0  0  0  0  0  0  0  0
  138.6291   81.1369  223.9464 H   0  0  0  0  0  0  0  0  0  0  0  0
  140.8129   82.1799  224.2269 H   0  0  0  0  0  0  0  0  0  0  0  0
  143.2678   82.1338  224.0635 H   0  0  0  0  0  0  0  0  0  0  0  0
  144.3992   80.0811  223.1955 H   0  0  0  0  0  0  0  0  0  0  0  0
  143.0440   78.1515  222.5263 H   0  0  0  0  0  0  0  0  0  0  0  0
  1  2  2  0
  2  3  1  0
  3  4  1  0
  4  5  1  0
  5  6  2  0
  5  7  1  0
  7  8  1  0
  8  9  1  0
  9 10  1  0
 10 11  1  0
 11 12  1  0
 12 13  1  0
 13 14  1  0
 14 15  1  0
 15 16  2  0
 16 17  1  0
 17 18  2  0
 18 19  1  0
 19 20  2  0
  2 21  1  0
 21 22  2  0
 22 23  1  0
 23 24  2  0
 24 25  1  0
 25 26  2  0
 26 27  1  0
 27 28  2  0
 28 29  1  0
 29 30  2  0
 12  7  1  0
 20 15  1  0
 30 21  1  0
 29 24  1  0
  3 31  1  0
  4 32  1  0
  4 33  1  0
  8 34  1  0
  8 35  1  0
  9 36  1  0
  9 37  1  0
 10 38  1  0
 10 39  1  0
 11 40  1  0
 11 41  1  0
 12 42  1  1
 13 43  1  0
 13 44  1  0
 16 45  1  0
 17 46  1  0
 18 47  1  0
 19 48  1  0
 20 49  1  0
 22 50  1  0
 23 51  1  0
 25 52  1  0
 26 53  1  0
 27 54  1  0
 28 55  1  0
M  END
>  <smiles>  (17) 
O=C(NCC(=O)N1CCCC[C@H]1COc1ccccc1)c1ccc2ccccc2n1

>  <score_type>  (17) 
oracle

>  <origin>  (17) 
autodockgpu

>  <m_score__min__energy>  (17) 
-9.1300000000000008

>  <m_primary>  (17) 
energy

>  <rmsd>  (17) 
8.314379726494373

>  <m_score__min__rmsd>  (17) 
8.314379726494373

>  <meeko>  (17) 
{"free_energy": -7.99, "intermolecular_energy": -10.08, "internal_energy": -2.05, "cluster_size": 2, "cluster_id": 5, "rank_in_cluster": 1}

>  <energy>  (17) 
-8.64

>  <cluster_rmsd>  (17) 
1.16

>  <cluster>  (17) 
1

$$$$

     RDKit          3D

 55 58  0  0  0  0  0  0  0  0999 V2000
  139.9420   70.8680  221.1590 O   0  0  0  0  0  0  0  0  0  0  0  0
  140.2010   71.5420  222.2010 C   0  0  0  0  0  0  0  0  0  0  0  0
  140.6400   72.9060  222.1300 N   0  0  0  0  0  0  0  0  0  0  0  0
  140.8040   73.5630  220.8350 C   0  0  0  0  0  0  0  0  0  0  0  0
  141.1100   74.9860  220.9870 C   0  0  0  0  0  0  0  0  0  0  0  0
  140.8300   75.4770  222.1570 O   0  0  0  0  0  0  0  0  0  0  0  0
  141.6490   75.8930  220.0840 N   0  0  0  0  0  0  0  0  0  0  0  0
  143.0870   75.6420  219.7360 C   0  0  0  0  0  0  0  0  0  0  0  0
  143.3310   76.2120  218.3590 C   0  0  0  0  0  0  0  0  0  0  0  0
  142.1740   76.1450  217.4280 C   0  0  0  0  0  0  0  0  0  0  0  0
  140.8500   76.5670  217.9900 C   0  0  0  0  0  0  0  0  0  0  0  0
  141.0870   77.0300  219.4260 C   0  0  1  0  0  0  0  0  0  0  0  0
  139.9080   77.6780  220.0250 C   0  0  0  0  0  0  0  0  0  0  0  0
  140.1550   78.8230  220.7330 O   0  0  0  0  0  0  0  0  0  0  0  0
  140.9000   79.1800  221.7860 C   0  0  0  0  0  0  0  0  0  0  0  0
  141.0030   78.5580  223.0070 C   0  0  0  0  0  0  0  0  0  0  0  0
  141.8150   79.0190  224.0310 C   0  0  0  0  0  0  0  0  0  0  0  0
  142.5730   80.1540  223.8610 C   0  0  0  0  0  0  0  0  0  0  0  0
  142.4920   80.8020  222.6490 C   0  0  0  0  0  0  0  0  0  0  0  0
  141.6900   80.3410  221.6470 C   0  0  0  0  0  0  0  0  0  0  0  0
  140.0510   70.9160  223.5310 C   0  0  0  0  0  0  0  0  0  0  0  0
  139.4310   69.6880  223.6280 C   0  0  0  0  0  0  0  0  0  0  0  0
  139.2540   69.0410  224.8340 C   0  0  0  0  0  0  0  0  0  0  0  0
  139.7330   69.6890  225.9670 C   0  0  0  0  0  0  0  0  0  0  0  0
  139.6000   69.1170  227.2190 C   0  0  0  0  0  0  0  0  0  0  0  0
  140.0610   69.7300  228.3530 C   0  0  0  0  0  0  0  0  0  0  0  0
  140.6810   70.9620  228.2440 C   0  0  0  0  0  0  0  0  0  0  0  0
  140.8140   71.5290  227.0110 C   0  0  0  0  0  0  0  0  0  0  0  0
  140.3520   70.9200  225.8570 C   0  0  0  0  0  0  0  0  0  0  0  0
  140.4980   71.5060  224.6510 N   0  0  0  0  0  0  0  0  0  0  0  0
  140.8300   73.3810  223.0380 H   0  0  0  0  0  0  0  0  0  0  0  0
  141.6269   73.0773  220.2901 H   0  0  0  0  0  0  0  0  0  0  0  0
  139.8580   73.4721  220.2812 H   0  0  0  0  0  0  0  0  0  0  0  0
  143.7418   76.1372  220.4681 H   0  0  0  0  0  0  0  0  0  0  0  0
  143.3052   74.5640  219.7515 H   0  0  0  0  0  0  0  0  0  0  0  0
  143.6134   77.2689  218.4741 H   0  0  0  0  0  0  0  0  0  0  0  0
  144.1193   75.5909  217.9087 H   0  0  0  0  0  0  0  0  0  0  0  0
  142.3964   76.7941  216.5682 H   0  0  0  0  0  0  0  0  0  0  0  0
  142.0611   75.0809  217.1731 H   0  0  0  0  0  0  0  0  0  0  0  0
  140.4345   77.3923  217.3931 H   0  0  0  0  0  0  0  0  0  0  0  0
  140.1348   75.7316  217.9655 H   0  0  0  0  0  0  0  0  0  0  0  0
  141.7987   77.8637  219.5183 H   0  0  0  0  0  0  0  0  0  0  0  0
  139.2101   77.9273  219.2121 H   0  0  0  0  0  0  0  0  0  0  0  0
  139.5069   76.9567  220.7523 H   0  0  0  0  0  0  0  0  0  0  0  0
  140.4106   77.6475  223.1805 H   0  0  0  0  0  0  0  0  0  0  0  0
  141.8535   78.4738  224.9856 H   0  0  0  0  0  0  0  0  0  0  0  0
  143.2215   80.5310  224.6656 H   0  0  0  0  0  0  0  0  0  0  0  0
  143.0876   81.7121  222.4852 H   0  0  0  0  0  0  0  0  0  0  0  0
  141.6578   80.8939  220.6966 H   0  0  0  0  0  0  0  0  0  0  0  0
  139.0638   69.2062  222.7098 H   0  0  0  0  0  0  0  0  0  0  0  0
  138.7584   68.0609  224.8959 H   0  0  0  0  0  0  0  0  0  0  0  0
  139.1076   68.1373  227.3066 H   0  0  0  0  0  0  0  0  0  0  0  0
  139.9403   69.2504  229.3356 H   0  0  0  0  0  0  0  0  0  0  0  0
  141.0611   71.4766  229.1388 H   0  0  0  0  0  0  0  0  0  0  0  0
  141.3077   72.5087  226.9303 H   0  0  0  0  0  0  0  0  0  0  0  0
  1  2  2  0
  2  3  1  0
  3  4  1  0
  4  5  1  0
  5  6  2  0
  5  7  1  0
  7  8  1  0
  8  9  1  0
  9 10  1  0
 10 11  1  0
 11 12  1  0
 12 13  1  0
 13 14  1  0
 14 15  1  0
 15 16  2  0
 16 17  1  0
 17 18  2  0
 18 19  1  0
 19 20  2  0
  2 21  1  0
 21 22  2  0
 22 23  1  0
 23 24  2  0
 24 25  1  0
 25 26  2  0
 26 27  1  0
 27 28  2  0
 28 29  1  0
 29 30  2  0
 12  7  1  0
 20 15  1  0
 30 21  1  0
 29 24  1  0
  3 31  1  0
  4 32  1  0
  4 33  1  0
  8 34  1  0
  8 35  1  0
  9 36  1  0
  9 37  1  0
 10 38  1  0
 10 39  1  0
 11 40  1  0
 11 41  1  0
 12 42  1  6
 13 43  1  0
 13 44  1  0
 16 45  1  0
 17 46  1  0
 18 47  1  0
 19 48  1  0
 20 49  1  0
 22 50  1  0
 23 51  1  0
 25 52  1  0
 26 53  1  0
 27 54  1  0
 28 55  1  0
M  END
>  <smiles>  (18) 
O=C(NCC(=O)N1CCCC[C@H]1COc1ccccc1)c1ccc2ccccc2n1

>  <score_type>  (18) 
oracle

>  <origin>  (18) 
autodockgpu

>  <m_score__min__energy>  (18) 
-9.1300000000000008

>  <m_primary>  (18) 
energy

>  <rmsd>  (18) 
2.2140913147085244

>  <m_score__min__rmsd>  (18) 
2.2140913147085244

>  <meeko>  (18) 
{"free_energy": -8.03, "intermolecular_energy": -10.12, "internal_energy": -2.32, "cluster_size": 32, "cluster_id": 1, "rank_in_cluster": 31}

>  <energy>  (18) 
-8.63

>  <cluster_rmsd>  (18) 
1.27

>  <cluster>  (18) 
1

$$$$

     RDKit          3D

 55 58  0  0  0  0  0  0  0  0999 V2000
  140.3260   71.6430  221.1290 O   0  0  0  0  0  0  0  0  0  0  0  0
  140.0560   72.1960  222.2370 C   0  0  0  0  0  0  0  0  0  0  0  0
  139.7500   73.5940  222.3300 N   0  0  0  0  0  0  0  0  0  0  0  0
  139.7430   74.4310  221.1310 C   0  0  0  0  0  0  0  0  0  0  0  0
  139.7730   75.8550  221.4670 C   0  0  0  0  0  0  0  0  0  0  0  0
  139.6070   76.1170  222.7280 O   0  0  0  0  0  0  0  0  0  0  0  0
  139.9480   76.9680  220.6550 N   0  0  0  0  0  0  0  0  0  0  0  0
  138.8860   78.0180  220.8020 C   0  0  0  0  0  0  0  0  0  0  0  0
  139.4990   79.3450  220.4240 C   0  0  0  0  0  0  0  0  0  0  0  0
  140.9400   79.4980  220.7530 C   0  0  0  0  0  0  0  0  0  0  0  0
  141.8250   78.3420  220.3940 C   0  0  0  0  0  0  0  0  0  0  0  0
  140.9550   77.2970  219.6970 C   0  0  1  0  0  0  0  0  0  0  0  0
  141.7380   76.2060  219.0940 C   0  0  0  0  0  0  0  0  0  0  0  0
  142.8480   75.8150  219.7920 O   0  0  0  0  0  0  0  0  0  0  0  0
  143.4390   74.6600  220.1240 C   0  0  0  0  0  0  0  0  0  0  0  0
  142.8830   73.4040  220.1800 C   0  0  0  0  0  0  0  0  0  0  0  0
  143.5970   72.2710  220.5360 C   0  0  0  0  0  0  0  0  0  0  0  0
  144.9310   72.3610  220.8580 C   0  0  0  0  0  0  0  0  0  0  0  0
  145.5180   73.6050  220.8130 C   0  0  0  0  0  0  0  0  0  0  0  0
  144.8080   74.7150  220.4620 C   0  0  0  0  0  0  0  0  0  0  0  0
  140.0530   71.3880  223.4740 C   0  0  0  0  0  0  0  0  0  0  0  0
  139.5770   70.0950  223.4290 C   0  0  0  0  0  0  0  0  0  0  0  0
  139.5420   69.2790  224.5420 C   0  0  0  0  0  0  0  0  0  0  0  0
  140.0150   69.8240  225.7310 C   0  0  0  0  0  0  0  0  0  0  0  0
  140.0190   69.0810  226.8970 C   0  0  0  0  0  0  0  0  0  0  0  0
  140.4780   69.5900  228.0830 C   0  0  0  0  0  0  0  0  0  0  0  0
  140.9530   70.8890  228.1170 C   0  0  0  0  0  0  0  0  0  0  0  0
  140.9510   71.6230  226.9680 C   0  0  0  0  0  0  0  0  0  0  0  0
  140.4890   71.1220  225.7630 C   0  0  0  0  0  0  0  0  0  0  0  0
  140.4990   71.8740  224.6430 N   0  0  0  0  0  0  0  0  0  0  0  0
  139.5400   73.9620  223.2820 H   0  0  0  0  0  0  0  0  0  0  0  0
  140.6266   74.1894  220.5220 H   0  0  0  0  0  0  0  0  0  0  0  0
  138.8153   74.2283  220.5757 H   0  0  0  0  0  0  0  0  0  0  0  0
  138.0406   77.7921  220.1354 H   0  0  0  0  0  0  0  0  0  0  0  0
  138.5120   78.0463  221.8361 H   0  0  0  0  0  0  0  0  0  0  0  0
  139.3831   79.4753  219.3379 H   0  0  0  0  0  0  0  0  0  0  0  0
  138.9699   80.1039  221.0191 H   0  0  0  0  0  0  0  0  0  0  0  0
  141.3138   80.3853  220.2211 H   0  0  0  0  0  0  0  0  0  0  0  0
  140.9861   79.5761  221.8493 H   0  0  0  0  0  0  0  0  0  0  0  0
  142.6245   78.6772  219.7169 H   0  0  0  0  0  0  0  0  0  0  0  0
  142.2933   77.9181  221.2946 H   0  0  0  0  0  0  0  0  0  0  0  0
  140.4531   77.6612  218.7885 H   0  0  0  0  0  0  0  0  0  0  0  0
  141.0775   75.3322  218.9927 H   0  0  0  0  0  0  0  0  0  0  0  0
  142.1097   76.5984  218.1359 H   0  0  0  0  0  0  0  0  0  0  0  0
  141.8177   73.2928  219.9296 H   0  0  0  0  0  0  0  0  0  0  0  0
  143.0935   71.2933  220.5612 H   0  0  0  0  0  0  0  0  0  0  0  0
  145.5091   71.4692  221.1418 H   0  0  0  0  0  0  0  0  0  0  0  0
  146.5838   73.7061  221.0658 H   0  0  0  0  0  0  0  0  0  0  0  0
  145.3207   75.6880  220.4416 H   0  0  0  0  0  0  0  0  0  0  0  0
  139.2113   69.6986  222.4703 H   0  0  0  0  0  0  0  0  0  0  0  0
  139.1591   68.2491  224.4910 H   0  0  0  0  0  0  0  0  0  0  0  0
  139.6415   68.0481  226.8715 H   0  0  0  0  0  0  0  0  0  0  0  0
  140.4691   68.9750  228.9950 H   0  0  0  0  0  0  0  0  0  0  0  0
  141.3264   71.3228  229.0563 H   0  0  0  0  0  0  0  0  0  0  0  0
  141.3317   72.6545  226.9998 H   0  0  0  0  0  0  0  0  0  0  0  0
  1  2  2  0
  2  3  1  0
  3  4  1  0
  4  5  1  0
  5  6  2  0
  5  7  1  0
  7  8  1  0
  8  9  1  0
  9 10  1  0
 10 11  1  0
 11 12  1  0
 12 13  1  0
 13 14  1  0
 14 15  1  0
 15 16  2  0
 16 17  1  0
 17 18  2  0
 18 19  1  0
 19 20  2  0
  2 21  1  0
 21 22  2  0
 22 23  1  0
 23 24  2  0
 24 25  1  0
 25 26  2  0
 26 27  1  0
 27 28  2  0
 28 29  1  0
 29 30  2  0
 12  7  1  0
 20 15  1  0
 30 21  1  0
 29 24  1  0
  3 31  1  0
  4 32  1  0
  4 33  1  0
  8 34  1  0
  8 35  1  0
  9 36  1  0
  9 37  1  0
 10 38  1  0
 10 39  1  0
 11 40  1  0
 11 41  1  0
 12 42  1  6
 13 43  1  0
 13 44  1  0
 16 45  1  0
 17 46  1  0
 18 47  1  0
 19 48  1  0
 20 49  1  0
 22 50  1  0
 23 51  1  0
 25 52  1  0
 26 53  1  0
 27 54  1  0
 28 55  1  0
M  END
>  <smiles>  (19) 
O=C(NCC(=O)N1CCCC[C@H]1COc1ccccc1)c1ccc2ccccc2n1

>  <score_type>  (19) 
oracle

>  <origin>  (19) 
autodockgpu

>  <m_score__min__energy>  (19) 
-9.1300000000000008

>  <m_primary>  (19) 
energy

>  <rmsd>  (19) 
2.2273482805175626

>  <m_score__min__rmsd>  (19) 
2.2273482805175626

>  <meeko>  (19) 
{"free_energy": -7.83, "intermolecular_energy": -9.91, "internal_energy": -2.51, "cluster_size": 13, "cluster_id": 4, "rank_in_cluster": 10}

>  <energy>  (19) 
-8.6

>  <cluster_rmsd>  (19) 
1.34

>  <cluster>  (19) 
1

$$$$

     RDKit          3D

 55 58  0  0  0  0  0  0  0  0999 V2000
  140.6490   71.5260  221.2960 O   0  0  0  0  0  0  0  0  0  0  0  0
  140.2580   72.1150  222.3480 C   0  0  0  0  0  0  0  0  0  0  0  0
  139.8840   73.4990  222.3450 N   0  0  0  0  0  0  0  0  0  0  0  0
  139.9450   74.2790  221.1100 C   0  0  0  0  0  0  0  0  0  0  0  0
  140.0670   75.7120  221.3820 C   0  0  0  0  0  0  0  0  0  0  0  0
  140.0860   76.0230  222.6430 O   0  0  0  0  0  0  0  0  0  0  0  0
  140.1650   76.7890  220.5110 N   0  0  0  0  0  0  0  0  0  0  0  0
  138.9120   77.6070  220.3920 C   0  0  0  0  0  0  0  0  0  0  0  0
  139.3160   79.0080  219.9970 C   0  0  0  0  0  0  0  0  0  0  0  0
  140.6220   79.4690  220.5350 C   0  0  0  0  0  0  0  0  0  0  0  0
  141.7600   78.4990  220.4260 C   0  0  0  0  0  0  0  0  0  0  0  0
  141.2410   77.2610  219.6980 C   0  0  1  0  0  0  0  0  0  0  0  0
  142.3100   76.3190  219.3290 C   0  0  0  0  0  0  0  0  0  0  0  0
  142.5510   75.3120  220.2250 O   0  0  0  0  0  0  0  0  0  0  0  0
  143.4980   74.3880  220.4270 C   0  0  0  0  0  0  0  0  0  0  0  0
  143.3410   73.0350  220.6130 C   0  0  0  0  0  0  0  0  0  0  0  0
  144.4030   72.1660  220.8110 C   0  0  0  0  0  0  0  0  0  0  0  0
  145.6940   72.6370  220.8310 C   0  0  0  0  0  0  0  0  0  0  0  0
  145.8860   73.9890  220.6480 C   0  0  0  0  0  0  0  0  0  0  0  0
  144.8360   74.8360  220.4540 C   0  0  0  0  0  0  0  0  0  0  0  0
  140.1830   71.3650  223.6190 C   0  0  0  0  0  0  0  0  0  0  0  0
  139.6210   70.1050  223.6210 C   0  0  0  0  0  0  0  0  0  0  0  0
  139.5150   69.3440  224.7680 C   0  0  0  0  0  0  0  0  0  0  0  0
  140.0060   69.9090  225.9400 C   0  0  0  0  0  0  0  0  0  0  0  0
  139.9420   69.2200  227.1380 C   0  0  0  0  0  0  0  0  0  0  0  0
  140.4170   69.7490  228.3080 C   0  0  0  0  0  0  0  0  0  0  0  0
  140.9780   71.0140  228.2940 C   0  0  0  0  0  0  0  0  0  0  0  0
  141.0430   71.6950  227.1140 C   0  0  0  0  0  0  0  0  0  0  0  0
  140.5660   71.1720  225.9250 C   0  0  0  0  0  0  0  0  0  0  0  0
  140.6430   71.8710  224.7730 N   0  0  0  0  0  0  0  0  0  0  0  0
  139.5750   73.9000  223.2560 H   0  0  0  0  0  0  0  0  0  0  0  0
  140.8164   73.9516  220.5240 H   0  0  0  0  0  0  0  0  0  0  0  0
  139.0113   74.1134  220.5525 H   0  0  0  0  0  0  0  0  0  0  0  0
  138.2542   77.1756  219.6231 H   0  0  0  0  0  0  0  0  0  0  0  0
  138.3658   77.6175  221.3467 H   0  0  0  0  0  0  0  0  0  0  0  0
  139.3672   79.0498  218.8990 H   0  0  0  0  0  0  0  0  0  0  0  0
  138.5566   79.6762  220.4292 H   0  0  0  0  0  0  0  0  0  0  0  0
  140.9057   80.3823  219.9916 H   0  0  0  0  0  0  0  0  0  0  0  0
  140.4618   79.6164  221.6133 H   0  0  0  0  0  0  0  0  0  0  0  0
  142.5853   78.9510  219.8563 H   0  0  0  0  0  0  0  0  0  0  0  0
  142.1374   78.2314  221.4240 H   0  0  0  0  0  0  0  0  0  0  0  0
  140.8448   77.4631  218.6919 H   0  0  0  0  0  0  0  0  0  0  0  0
  142.0371   75.8580  218.3682 H   0  0  0  0  0  0  0  0  0  0  0  0
  143.2341   76.9145  219.2924 H   0  0  0  0  0  0  0  0  0  0  0  0
  142.3219   72.6212  220.6043 H   0  0  0  0  0  0  0  0  0  0  0  0
  144.2110   71.0922  220.9531 H   0  0  0  0  0  0  0  0  0  0  0  0
  146.5449   71.9577  220.9877 H   0  0  0  0  0  0  0  0  0  0  0  0
  146.9088   74.3936  220.6587 H   0  0  0  0  0  0  0  0  0  0  0  0
  145.0389   75.9079  220.3133 H   0  0  0  0  0  0  0  0  0  0  0  0
  139.2436   69.6916  222.6741 H   0  0  0  0  0  0  0  0  0  0  0  0
  139.0645   68.3406  224.7555 H   0  0  0  0  0  0  0  0  0  0  0  0
  139.4951   68.2149  227.1509 H   0  0  0  0  0  0  0  0  0  0  0  0
  140.3537   69.1769  229.2454 H   0  0  0  0  0  0  0  0  0  0  0  0
  141.3655   71.4634  229.2202 H   0  0  0  0  0  0  0  0  0  0  0  0
  141.4921   72.6991  227.1073 H   0  0  0  0  0  0  0  0  0  0  0  0
  1  2  2  0
  2  3  1  0
  3  4  1  0
  4  5  1  0
  5  6  2  0
  5  7  1  0
  7  8  1  0
  8  9  1  0
  9 10  1  0
 10 11  1  0
 11 12  1  0
 12 13  1  0
 13 14  1  0
 14 15  1  0
 15 16  2  0
 16 17  1  0
 17 18  2  0
 18 19  1  0
 19 20  2  0
  2 21  1  0
 21 22  2  0
 22 23  1  0
 23 24  2  0
 24 25  1  0
 25 26  2  0
 26 27  1  0
 27 28  2  0
 28 29  1  0
 29 30  2  0
 12  7  1  0
 20 15  1  0
 30 21  1  0
 29 24  1  0
  3 31  1  0
  4 32  1  0
  4 33  1  0
  8 34  1  0
  8 35  1  0
  9 36  1  0
  9 37  1  0
 10 38  1  0
 10 39  1  0
 11 40  1  0
 11 41  1  0
 12 42  1  6
 13 43  1  0
 13 44  1  0
 16 45  1  0
 17 46  1  0
 18 47  1  0
 19 48  1  0
 20 49  1  0
 22 50  1  0
 23 51  1  0
 25 52  1  0
 26 53  1  0
 27 54  1  0
 28 55  1  0
M  END
>  <smiles>  (20) 
O=C(NCC(=O)N1CCCC[C@H]1COc1ccccc1)c1ccc2ccccc2n1

>  <score_type>  (20) 
oracle

>  <origin>  (20) 
autodockgpu

>  <m_score__min__energy>  (20) 
-9.1300000000000008

>  <m_primary>  (20) 
energy

>  <rmsd>  (20) 
2.123051342802764

>  <m_score__min__rmsd>  (20) 
2.123051342802764

>  <meeko>  (20) 
{"free_energy": -8.19, "intermolecular_energy": -10.28, "internal_energy": -2.36, "cluster_size": 13, "cluster_id": 4, "rank_in_cluster": 2}

>  <energy>  (20) 
-8.59

>  <cluster_rmsd>  (20) 
0.79

>  <cluster>  (20) 
1

$$$$

     RDKit          3D

 55 58  0  0  0  0  0  0  0  0999 V2000
  140.6450   71.4100  221.3460 O   0  0  0  0  0  0  0  0  0  0  0  0
  140.2420   72.0010  222.3930 C   0  0  0  0  0  0  0  0  0  0  0  0
  139.8660   73.3840  222.3820 N   0  0  0  0  0  0  0  0  0  0  0  0
  139.9390   74.1610  221.1470 C   0  0  0  0  0  0  0  0  0  0  0  0
  140.8490   75.3000  221.2770 C   0  0  0  0  0  0  0  0  0  0  0  0
  140.6720   76.0130  222.3490 O   0  0  0  0  0  0  0  0  0  0  0  0
  141.8680   75.7390  220.4420 N   0  0  0  0  0  0  0  0  0  0  0  0
  143.0690   74.8400  220.4020 C   0  0  0  0  0  0  0  0  0  0  0  0
  143.7450   75.0390  219.0670 C   0  0  0  0  0  0  0  0  0  0  0  0
  142.8360   75.3450  217.9320 C   0  0  0  0  0  0  0  0  0  0  0  0
  141.7810   76.3780  218.1920 C   0  0  0  0  0  0  0  0  0  0  0  0
  141.9870   76.8970  219.6140 C   0  0  1  0  0  0  0  0  0  0  0  0
  141.1570   78.0730  219.9250 C   0  0  0  0  0  0  0  0  0  0  0  0
  141.8370   79.1910  220.3270 O   0  0  0  0  0  0  0  0  0  0  0  0
  141.9040   79.9530  221.4250 C   0  0  0  0  0  0  0  0  0  0  0  0
  141.4760   81.2490  221.5890 C   0  0  0  0  0  0  0  0  0  0  0  0
  141.5940   81.9450  222.7810 C   0  0  0  0  0  0  0  0  0  0  0  0
  142.1630   81.3480  223.8820 C   0  0  0  0  0  0  0  0  0  0  0  0
  142.6030   80.0500  223.7510 C   0  0  0  0  0  0  0  0  0  0  0  0
  142.4830   79.3730  222.5730 C   0  0  0  0  0  0  0  0  0  0  0  0
  140.1540   71.2540  223.6650 C   0  0  0  0  0  0  0  0  0  0  0  0
  139.5680   70.0050  223.6700 C   0  0  0  0  0  0  0  0  0  0  0  0
  139.4490   69.2480  224.8180 C   0  0  0  0  0  0  0  0  0  0  0  0
  139.9540   69.8040  225.9880 C   0  0  0  0  0  0  0  0  0  0  0  0
  139.8790   69.1180  227.1870 C   0  0  0  0  0  0  0  0  0  0  0  0
  140.3660   69.6390  228.3560 C   0  0  0  0  0  0  0  0  0  0  0  0
  140.9510   70.8920  228.3390 C   0  0  0  0  0  0  0  0  0  0  0  0
  141.0270   71.5710  227.1580 C   0  0  0  0  0  0  0  0  0  0  0  0
  140.5380   71.0560  225.9700 C   0  0  0  0  0  0  0  0  0  0  0  0
  140.6270   71.7520  224.8180 N   0  0  0  0  0  0  0  0  0  0  0  0
  139.5470   73.7870  223.2900 H   0  0  0  0  0  0  0  0  0  0  0  0
  140.2971   73.5093  220.3365 H   0  0  0  0  0  0  0  0  0  0  0  0
  138.9336   74.5488  220.9259 H   0  0  0  0  0  0  0  0  0  0  0  0
  143.7612   75.1026  221.2156 H   0  0  0  0  0  0  0  0  0  0  0  0
  142.7691   73.7894  220.5299 H   0  0  0  0  0  0  0  0  0  0  0  0
  144.4554   75.8728  219.1672 H   0  0  0  0  0  0  0  0  0  0  0  0
  144.2224   74.0786  218.8227 H   0  0  0  0  0  0  0  0  0  0  0  0
  143.4532   75.6988  217.0930 H   0  0  0  0  0  0  0  0  0  0  0  0
  142.2914   74.4110  217.7294 H   0  0  0  0  0  0  0  0  0  0  0  0
  141.8792   77.2044  217.4727 H   0  0  0  0  0  0  0  0  0  0  0  0
  140.7769   75.9430  218.0800 H   0  0  0  0  0  0  0  0  0  0  0  0
  142.9770   77.3425  219.7913 H   0  0  0  0  0  0  0  0  0  0  0  0
  140.5858   78.3318  219.0213 H   0  0  0  0  0  0  0  0  0  0  0  0
  140.5308   77.7797  220.7805 H   0  0  0  0  0  0  0  0  0  0  0  0
  141.0163   81.7595  220.7299 H   0  0  0  0  0  0  0  0  0  0  0  0
  141.2306   82.9811  222.8475 H   0  0  0  0  0  0  0  0  0  0  0  0
  142.2630   81.8891  224.8345 H   0  0  0  0  0  0  0  0  0  0  0  0
  143.0615   79.5478  224.6156 H   0  0  0  0  0  0  0  0  0  0  0  0
  142.8508   78.3379  222.5162 H   0  0  0  0  0  0  0  0  0  0  0  0
  139.1814   69.5975  222.7243 H   0  0  0  0  0  0  0  0  0  0  0  0
  138.9780   68.2540  224.8077 H   0  0  0  0  0  0  0  0  0  0  0  0
  139.4130   68.1217  227.2018 H   0  0  0  0  0  0  0  0  0  0  0  0
  140.2930   69.0695  229.2943 H   0  0  0  0  0  0  0  0  0  0  0  0
  141.3492   71.3347  229.2639 H   0  0  0  0  0  0  0  0  0  0  0  0
  141.4951   72.5664  227.1497 H   0  0  0  0  0  0  0  0  0  0  0  0
  1  2  2  0
  2  3  1  0
  3  4  1  0
  4  5  1  0
  5  6  2  0
  5  7  1  0
  7  8  1  0
  8  9  1  0
  9 10  1  0
 10 11  1  0
 11 12  1  0
 12 13  1  0
 13 14  1  0
 14 15  1  0
 15 16  2  0
 16 17  1  0
 17 18  2  0
 18 19  1  0
 19 20  2  0
  2 21  1  0
 21 22  2  0
 22 23  1  0
 23 24  2  0
 24 25  1  0
 25 26  2  0
 26 27  1  0
 27 28  2  0
 28 29  1  0
 29 30  2  0
 12  7  1  0
 20 15  1  0
 30 21  1  0
 29 24  1  0
  3 31  1  0
  4 32  1  0
  4 33  1  0
  8 34  1  0
  8 35  1  0
  9 36  1  0
  9 37  1  0
 10 38  1  0
 10 39  1  0
 11 40  1  0
 11 41  1  0
 12 42  1  6
 13 43  1  0
 13 44  1  0
 16 45  1  0
 17 46  1  0
 18 47  1  0
 19 48  1  0
 20 49  1  0
 22 50  1  0
 23 51  1  0
 25 52  1  0
 26 53  1  0
 27 54  1  0
 28 55  1  0
M  END
>  <smiles>  (21) 
O=C(NCC(=O)N1CCCC[C@H]1COc1ccccc1)c1ccc2ccccc2n1

>  <score_type>  (21) 
oracle

>  <origin>  (21) 
autodockgpu

>  <m_score__min__energy>  (21) 
-9.1300000000000008

>  <m_primary>  (21) 
energy

>  <rmsd>  (21) 
2.2158362948588466

>  <m_score__min__rmsd>  (21) 
2.2158362948588466

>  <meeko>  (21) 
{"free_energy": -8.88, "intermolecular_energy": -10.97, "internal_energy": -1.68, "cluster_size": 32, "cluster_id": 1, "rank_in_cluster": 7}

>  <energy>  (21) 
-8.54

>  <cluster_rmsd>  (21) 
0.92

>  <cluster>  (21) 
1

$$$$

     RDKit          3D

 55 58  0  0  0  0  0  0  0  0999 V2000
  140.8840   71.4440  221.4120 O   0  0  0  0  0  0  0  0  0  0  0  0
  140.3360   72.0170  222.4010 C   0  0  0  0  0  0  0  0  0  0  0  0
  139.8950   73.3800  222.3370 N   0  0  0  0  0  0  0  0  0  0  0  0
  140.0700   74.1570  221.1110 C   0  0  0  0  0  0  0  0  0  0  0  0
  141.1120   75.1740  221.2600 C   0  0  0  0  0  0  0  0  0  0  0  0
  141.0210   75.8850  222.3440 O   0  0  0  0  0  0  0  0  0  0  0  0
  142.1780   75.5000  220.4310 N   0  0  0  0  0  0  0  0  0  0  0  0
  143.3170   74.5240  220.4730 C   0  0  0  0  0  0  0  0  0  0  0  0
  144.0380   74.6050  219.1490 C   0  0  0  0  0  0  0  0  0  0  0  0
  143.1780   74.9070  217.9740 C   0  0  0  0  0  0  0  0  0  0  0  0
  142.1870   76.0180  218.1490 C   0  0  0  0  0  0  0  0  0  0  0  0
  142.3930   76.6000  219.5470 C   0  0  1  0  0  0  0  0  0  0  0  0
  141.6350   77.8420  219.7710 C   0  0  0  0  0  0  0  0  0  0  0  0
  141.4180   78.1790  221.0800 O   0  0  0  0  0  0  0  0  0  0  0  0
  141.6350   79.2400  221.8660 C   0  0  0  0  0  0  0  0  0  0  0  0
  141.5260   80.5730  221.5470 C   0  0  0  0  0  0  0  0  0  0  0  0
  141.7740   81.5940  222.4500 C   0  0  0  0  0  0  0  0  0  0  0  0
  142.1520   81.3070  223.7400 C   0  0  0  0  0  0  0  0  0  0  0  0
  142.2720   79.9810  224.0920 C   0  0  0  0  0  0  0  0  0  0  0  0
  142.0260   78.9820  223.1970 C   0  0  0  0  0  0  0  0  0  0  0  0
  140.1410   71.2690  223.6600 C   0  0  0  0  0  0  0  0  0  0  0  0
  139.5410   70.0280  223.6170 C   0  0  0  0  0  0  0  0  0  0  0  0
  139.3250   69.2710  224.7510 C   0  0  0  0  0  0  0  0  0  0  0  0
  139.7440   69.8190  225.9580 C   0  0  0  0  0  0  0  0  0  0  0  0
  139.5680   69.1320  227.1460 C   0  0  0  0  0  0  0  0  0  0  0  0
  139.9700   69.6460  228.3500 C   0  0  0  0  0  0  0  0  0  0  0  0
  140.5700   70.8910  228.3810 C   0  0  0  0  0  0  0  0  0  0  0  0
  140.7450   71.5710  227.2120 C   0  0  0  0  0  0  0  0  0  0  0  0
  140.3430   71.0640  225.9880 C   0  0  0  0  0  0  0  0  0  0  0  0
  140.5290   71.7600  224.8480 N   0  0  0  0  0  0  0  0  0  0  0  0
  139.4560   73.7680  223.1990 H   0  0  0  0  0  0  0  0  0  0  0  0
  140.3506   73.4759  220.2940 H   0  0  0  0  0  0  0  0  0  0  0  0
  139.1211   74.6675  220.8896 H   0  0  0  0  0  0  0  0  0  0  0  0
  144.0046   74.7852  221.2909 H   0  0  0  0  0  0  0  0  0  0  0  0
  142.9447   73.5038  220.6479 H   0  0  0  0  0  0  0  0  0  0  0  0
  144.7996   75.3951  219.2246 H   0  0  0  0  0  0  0  0  0  0  0  0
  144.4573   73.6040  218.9695 H   0  0  0  0  0  0  0  0  0  0  0  0
  143.8373   75.1741  217.1350 H   0  0  0  0  0  0  0  0  0  0  0  0
  142.5781   74.0003  217.8066 H   0  0  0  0  0  0  0  0  0  0  0  0
  142.3563   76.7956  217.3896 H   0  0  0  0  0  0  0  0  0  0  0  0
  141.1594   75.6431  218.0325 H   0  0  0  0  0  0  0  0  0  0  0  0
  143.4057   76.9894  219.7284 H   0  0  0  0  0  0  0  0  0  0  0  0
  142.1893   78.6659  219.2977 H   0  0  0  0  0  0  0  0  0  0  0  0
  140.6390   77.6666  219.3383 H   0  0  0  0  0  0  0  0  0  0  0  0
  141.2268   80.8423  220.5233 H   0  0  0  0  0  0  0  0  0  0  0  0
  141.6677   82.6418  222.1324 H   0  0  0  0  0  0  0  0  0  0  0  0
  142.3517   82.1088  224.4661 H   0  0  0  0  0  0  0  0  0  0  0  0
  142.5730   79.7220  225.1178 H   0  0  0  0  0  0  0  0  0  0  0  0
  142.1363   77.9377  223.5244 H   0  0  0  0  0  0  0  0  0  0  0  0
  139.2229   69.6267  222.6435 H   0  0  0  0  0  0  0  0  0  0  0  0
  138.8448   68.2826  224.7020 H   0  0  0  0  0  0  0  0  0  0  0  0
  139.0900   68.1416  227.1227 H   0  0  0  0  0  0  0  0  0  0  0  0
  139.8177   69.0766  229.2788 H   0  0  0  0  0  0  0  0  0  0  0  0
  140.9015   71.3269  229.3350 H   0  0  0  0  0  0  0  0  0  0  0  0
  141.2241   72.5607  227.2427 H   0  0  0  0  0  0  0  0  0  0  0  0
  1  2  2  0
  2  3  1  0
  3  4  1  0
  4  5  1  0
  5  6  2  0
  5  7  1  0
  7  8  1  0
  8  9  1  0
  9 10  1  0
 10 11  1  0
 11 12  1  0
 12 13  1  0
 13 14  1  0
 14 15  1  0
 15 16  2  0
 16 17  1  0
 17 18  2  0
 18 19  1  0
 19 20  2  0
  2 21  1  0
 21 22  2  0
 22 23  1  0
 23 24  2  0
 24 25  1  0
 25 26  2  0
 26 27  1  0
 27 28  2  0
 28 29  1  0
 29 30  2  0
 12  7  1  0
 20 15  1  0
 30 21  1  0
 29 24  1  0
  3 31  1  0
  4 32  1  0
  4 33  1  0
  8 34  1  0
  8 35  1  0
  9 36  1  0
  9 37  1  0
 10 38  1  0
 10 39  1  0
 11 40  1  0
 11 41  1  0
 12 42  1  6
 13 43  1  0
 13 44  1  0
 16 45  1  0
 17 46  1  0
 18 47  1  0
 19 48  1  0
 20 49  1  0
 22 50  1  0
 23 51  1  0
 25 52  1  0
 26 53  1  0
 27 54  1  0
 28 55  1  0
M  END
>  <smiles>  (22) 
O=C(NCC(=O)N1CCCC[C@H]1COc1ccccc1)c1ccc2ccccc2n1

>  <score_type>  (22) 
oracle

>  <origin>  (22) 
autodockgpu

>  <m_score__min__energy>  (22) 
-9.1300000000000008

>  <m_primary>  (22) 
energy

>  <rmsd>  (22) 
2.3532981391755783

>  <m_score__min__rmsd>  (22) 
2.3532981391755783

>  <meeko>  (22) 
{"free_energy": -8.97, "intermolecular_energy": -11.05, "internal_energy": -1.63, "cluster_size": 32, "cluster_id": 1, "rank_in_cluster": 4}

>  <energy>  (22) 
-8.52

>  <cluster_rmsd>  (22) 
0.91

>  <cluster>  (22) 
1

$$$$

     RDKit          3D

 55 58  0  0  0  0  0  0  0  0999 V2000
  141.4200   71.9130  221.6170 O   0  0  0  0  0  0  0  0  0  0  0  0
  140.5260   72.2780  222.4370 C   0  0  0  0  0  0  0  0  0  0  0  0
  139.7460   73.4630  222.2280 N   0  0  0  0  0  0  0  0  0  0  0  0
  139.9670   74.2940  221.0470 C   0  0  0  0  0  0  0  0  0  0  0  0
  141.0720   75.2330  221.2460 C   0  0  0  0  0  0  0  0  0  0  0  0
  141.0060   75.9200  222.3470 O   0  0  0  0  0  0  0  0  0  0  0  0
  142.1750   75.5080  220.4480 N   0  0  0  0  0  0  0  0  0  0  0  0
  143.2930   74.5140  220.5710 C   0  0  0  0  0  0  0  0  0  0  0  0
  144.0650   74.5310  219.2740 C   0  0  0  0  0  0  0  0  0  0  0  0
  143.2590   74.8040  218.0560 C   0  0  0  0  0  0  0  0  0  0  0  0
  142.2840   75.9390  218.1510 C   0  0  0  0  0  0  0  0  0  0  0  0
  142.4460   76.5700  219.5320 C   0  0  1  0  0  0  0  0  0  0  0  0
  141.7050   77.8330  219.6800 C   0  0  0  0  0  0  0  0  0  0  0  0
  141.2690   78.1230  220.9450 O   0  0  0  0  0  0  0  0  0  0  0  0
  141.6180   78.9550  221.9330 C   0  0  0  0  0  0  0  0  0  0  0  0
  141.7990   78.6670  223.2650 C   0  0  0  0  0  0  0  0  0  0  0  0
  142.1660   79.6150  224.2060 C   0  0  0  0  0  0  0  0  0  0  0  0
  142.3680   80.9240  223.8340 C   0  0  0  0  0  0  0  0  0  0  0  0
  142.1940   81.2460  222.5070 C   0  0  0  0  0  0  0  0  0  0  0  0
  141.8330   80.3060  221.5880 C   0  0  0  0  0  0  0  0  0  0  0  0
  140.2700   71.4670  223.6460 C   0  0  0  0  0  0  0  0  0  0  0  0
  139.5720   70.2850  223.5260 C   0  0  0  0  0  0  0  0  0  0  0  0
  139.2940   69.4750  224.6080 C   0  0  0  0  0  0  0  0  0  0  0  0
  139.7560   69.9070  225.8460 C   0  0  0  0  0  0  0  0  0  0  0  0
  139.5250   69.1600  226.9880 C   0  0  0  0  0  0  0  0  0  0  0  0
  139.9670   69.5590  228.2210 C   0  0  0  0  0  0  0  0  0  0  0  0
  140.6670   70.7480  228.3300 C   0  0  0  0  0  0  0  0  0  0  0  0
  140.8970   71.4860  227.2070 C   0  0  0  0  0  0  0  0  0  0  0  0
  140.4550   71.0940  225.9550 C   0  0  0  0  0  0  0  0  0  0  0  0
  140.6970   71.8460  224.8610 N   0  0  0  0  0  0  0  0  0  0  0  0
  139.0330   73.6850  222.9560 H   0  0  0  0  0  0  0  0  0  0  0  0
  140.2016   73.6432  220.1918 H   0  0  0  0  0  0  0  0  0  0  0  0
  139.0520   74.8752  220.8601 H   0  0  0  0  0  0  0  0  0  0  0  0
  143.9539   74.7944  221.4044 H   0  0  0  0  0  0  0  0  0  0  0  0
  142.8948   73.5081  220.7699 H   0  0  0  0  0  0  0  0  0  0  0  0
  144.8391   75.3088  219.3500 H   0  0  0  0  0  0  0  0  0  0  0  0
  144.4692   73.5157  219.1486 H   0  0  0  0  0  0  0  0  0  0  0  0
  143.9560   75.0275  217.2349 H   0  0  0  0  0  0  0  0  0  0  0  0
  142.6487   73.9027  217.8974 H   0  0  0  0  0  0  0  0  0  0  0  0
  142.4979   76.6840  217.3704 H   0  0  0  0  0  0  0  0  0  0  0  0
  141.2547   75.5780  218.0087 H   0  0  0  0  0  0  0  0  0  0  0  0
  143.4582   76.9481  219.7379 H   0  0  0  0  0  0  0  0  0  0  0  0
  142.3641   78.6512  219.3543 H   0  0  0  0  0  0  0  0  0  0  0  0
  140.7970   77.7201  219.0694 H   0  0  0  0  0  0  0  0  0  0  0  0
  141.6445   77.6309  223.6007 H   0  0  0  0  0  0  0  0  0  0  0  0
  142.2968   79.3193  225.2574 H   0  0  0  0  0  0  0  0  0  0  0  0
  142.6585   81.6868  224.5714 H   0  0  0  0  0  0  0  0  0  0  0  0
  142.3497   82.2849  222.1809 H   0  0  0  0  0  0  0  0  0  0  0  0
  141.7047   80.6120  220.5392 H   0  0  0  0  0  0  0  0  0  0  0  0
  139.2231   69.9754  222.5298 H   0  0  0  0  0  0  0  0  0  0  0  0
  138.7347   68.5344  224.4965 H   0  0  0  0  0  0  0  0  0  0  0  0
  138.9683   68.2152  226.9023 H   0  0  0  0  0  0  0  0  0  0  0  0
  139.7688   68.9440  229.1112 H   0  0  0  0  0  0  0  0  0  0  0  0
  141.0325   71.0926  229.3086 H   0  0  0  0  0  0  0  0  0  0  0  0
  141.4553   72.4293  227.2993 H   0  0  0  0  0  0  0  0  0  0  0  0
  1  2  2  0
  2  3  1  0
  3  4  1  0
  4  5  1  0
  5  6  2  0
  5  7  1  0
  7  8  1  0
  8  9  1  0
  9 10  1  0
 10 11  1  0
 11 12  1  0
 12 13  1  0
 13 14  1  0
 14 15  1  0
 15 16  2  0
 16 17  1  0
 17 18  2  0
 18 19  1  0
 19 20  2  0
  2 21  1  0
 21 22  2  0
 22 23  1  0
 23 24  2  0
 24 25  1  0
 25 26  2  0
 26 27  1  0
 27 28  2  0
 28 29  1  0
 29 30  2  0
 12  7  1  0
 20 15  1  0
 30 21  1  0
 29 24  1  0
  3 31  1  0
  4 32  1  0
  4 33  1  0
  8 34  1  0
  8 35  1  0
  9 36  1  0
  9 37  1  0
 10 38  1  0
 10 39  1  0
 11 40  1  0
 11 41  1  0
 12 42  1  6
 13 43  1  0
 13 44  1  0
 16 45  1  0
 17 46  1  0
 18 47  1  0
 19 48  1  0
 20 49  1  0
 22 50  1  0
 23 51  1  0
 25 52  1  0
 26 53  1  0
 27 54  1  0
 28 55  1  0
M  END
>  <smiles>  (23) 
O=C(NCC(=O)N1CCCC[C@H]1COc1ccccc1)c1ccc2ccccc2n1

>  <score_type>  (23) 
oracle

>  <origin>  (23) 
autodockgpu

>  <m_score__min__energy>  (23) 
-9.1300000000000008

>  <m_primary>  (23) 
energy

>  <rmsd>  (23) 
2.4036174048277252

>  <m_score__min__rmsd>  (23) 
2.4036174048277252

>  <meeko>  (23) 
{"free_energy": -9.13, "intermolecular_energy": -11.22, "internal_energy": -1.6, "cluster_size": 32, "cluster_id": 1, "rank_in_cluster": 1}

>  <energy>  (23) 
-8.51

>  <cluster_rmsd>  (23) 
0.86

>  <cluster>  (23) 
1

$$$$

     RDKit          3D

 55 58  0  0  0  0  0  0  0  0999 V2000
  141.2640   72.1910  221.8470 O   0  0  0  0  0  0  0  0  0  0  0  0
  140.2570   72.2960  222.6090 C   0  0  0  0  0  0  0  0  0  0  0  0
  139.2380   73.2800  222.3850 N   0  0  0  0  0  0  0  0  0  0  0  0
  139.3370   74.2020  221.2550 C   0  0  0  0  0  0  0  0  0  0  0  0
  140.2930   75.2790  221.5200 C   0  0  0  0  0  0  0  0  0  0  0  0
  141.4440   74.8810  221.9710 O   0  0  0  0  0  0  0  0  0  0  0  0
  140.1660   76.6540  221.3670 N   0  0  0  0  0  0  0  0  0  0  0  0
  139.2270   77.3030  222.3420 C   0  0  0  0  0  0  0  0  0  0  0  0
  139.6640   78.7380  222.5110 C   0  0  0  0  0  0  0  0  0  0  0  0
  141.1270   78.9750  222.4050 C   0  0  0  0  0  0  0  0  0  0  0  0
  141.8240   78.3020  221.2610 C   0  0  0  0  0  0  0  0  0  0  0  0
  140.7620   77.5680  220.4450 C   0  0  1  0  0  0  0  0  0  0  0  0
  141.2750   77.0450  219.1680 C   0  0  0  0  0  0  0  0  0  0  0  0
  142.5590   76.5720  219.1930 O   0  0  0  0  0  0  0  0  0  0  0  0
  143.1770   75.4360  219.5370 C   0  0  0  0  0  0  0  0  0  0  0  0
  144.3900   75.2830  220.1670 C   0  0  0  0  0  0  0  0  0  0  0  0
  144.9350   74.0480  220.4790 C   0  0  0  0  0  0  0  0  0  0  0  0
  144.2640   72.8900  220.1610 C   0  0  0  0  0  0  0  0  0  0  0  0
  143.0470   73.0080  219.5290 C   0  0  0  0  0  0  0  0  0  0  0  0
  142.5180   74.2280  219.2250 C   0  0  0  0  0  0  0  0  0  0  0  0
  140.1170   71.3840  223.7640 C   0  0  0  0  0  0  0  0  0  0  0  0
  139.4560   70.1860  223.5960 C   0  0  0  0  0  0  0  0  0  0  0  0
  139.2850   69.2840  224.6270 C   0  0  0  0  0  0  0  0  0  0  0  0
  139.8180   69.6380  225.8610 C   0  0  0  0  0  0  0  0  0  0  0  0
  139.6950   68.7960  226.9520 C   0  0  0  0  0  0  0  0  0  0  0  0
  140.2080   69.1170  228.1810 C   0  0  0  0  0  0  0  0  0  0  0  0
  140.8690   70.3220  228.3380 C   0  0  0  0  0  0  0  0  0  0  0  0
  140.9920   71.1540  227.2640 C   0  0  0  0  0  0  0  0  0  0  0  0
  140.4780   70.8420  226.0170 C   0  0  0  0  0  0  0  0  0  0  0  0
  140.6140   71.6860  224.9730 N   0  0  0  0  0  0  0  0  0  0  0  0
  138.4470   73.2930  223.0630 H   0  0  0  0  0  0  0  0  0  0  0  0
  139.6659   73.6434  220.3663 H   0  0  0  0  0  0  0  0  0  0  0  0
  138.3472   74.6532  221.0915 H   0  0  0  0  0  0  0  0  0  0  0  0
  138.1988   77.2675  221.9528 H   0  0  0  0  0  0  0  0  0  0  0  0
  139.2484   76.7765  223.3076 H   0  0  0  0  0  0  0  0  0  0  0  0
  139.1658   79.3381  221.7353 H   0  0  0  0  0  0  0  0  0  0  0  0
  139.3844   79.0214  223.5364 H   0  0  0  0  0  0  0  0  0  0  0  0
  141.2852   80.0589  222.3039 H   0  0  0  0  0  0  0  0  0  0  0  0
  141.5634   78.5373  223.3149 H   0  0  0  0  0  0  0  0  0  0  0  0
  142.3274   79.0525  220.6339 H   0  0  0  0  0  0  0  0  0  0  0  0
  142.5843   77.5980  221.6303 H   0  0  0  0  0  0  0  0  0  0  0  0
  139.9686   78.2193  220.0496 H   0  0  0  0  0  0  0  0  0  0  0  0
  140.6177   76.2217  218.8516 H   0  0  0  0  0  0  0  0  0  0  0  0
  141.2840   77.9000  218.4760 H   0  0  0  0  0  0  0  0  0  0  0  0
  144.9560   76.1868  220.4368 H   0  0  0  0  0  0  0  0  0  0  0  0
  145.9105   73.9931  220.9843 H   0  0  0  0  0  0  0  0  0  0  0  0
  144.6857   71.9034  220.4035 H   0  0  0  0  0  0  0  0  0  0  0  0
  142.4886   72.0983  219.2632 H   0  0  0  0  0  0  0  0  0  0  0  0
  141.5426   74.2716  218.7184 H   0  0  0  0  0  0  0  0  0  0  0  0
  139.0498   69.9397  222.6038 H   0  0  0  0  0  0  0  0  0  0  0  0
  138.7534   68.3324  224.4793 H   0  0  0  0  0  0  0  0  0  0  0  0
  139.1684   67.8381  226.8286 H   0  0  0  0  0  0  0  0  0  0  0  0
  140.0960   68.4269  229.0303 H   0  0  0  0  0  0  0  0  0  0  0  0
  141.2892   70.6051  229.3144 H   0  0  0  0  0  0  0  0  0  0  0  0
  141.5202   72.1101  227.3939 H   0  0  0  0  0  0  0  0  0  0  0  0
  1  2  2  0
  2  3  1  0
  3  4  1  0
  4  5  1  0
  5  6  2  0
  5  7  1  0
  7  8  1  0
  8  9  1  0
  9 10  1  0
 10 11  1  0
 11 12  1  0
 12 13  1  0
 13 14  1  0
 14 15  1  0
 15 16  2  0
 16 17  1  0
 17 18  2  0
 18 19  1  0
 19 20  2  0
  2 21  1  0
 21 22  2  0
 22 23  1  0
 23 24  2  0
 24 25  1  0
 25 26  2  0
 26 27  1  0
 27 28  2  0
 28 29  1  0
 29 30  2  0
 12  7  1  0
 20 15  1  0
 30 21  1  0
 29 24  1  0
  3 31  1  0
  4 32  1  0
  4 33  1  0
  8 34  1  0
  8 35  1  0
  9 36  1  0
  9 37  1  0
 10 38  1  0
 10 39  1  0
 11 40  1  0
 11 41  1  0
 12 42  1  6
 13 43  1  0
 13 44  1  0
 16 45  1  0
 17 46  1  0
 18 47  1  0
 19 48  1  0
 20 49  1  0
 22 50  1  0
 23 51  1  0
 25 52  1  0
 26 53  1  0
 27 54  1  0
 28 55  1  0
M  END
>  <smiles>  (24) 
O=C(NCC(=O)N1CCCC[C@H]1COc1ccccc1)c1ccc2ccccc2n1

>  <score_type>  (24) 
oracle

>  <origin>  (24) 
autodockgpu

>  <m_score__min__energy>  (24) 
-9.1300000000000008

>  <m_primary>  (24) 
energy

>  <rmsd>  (24) 
2.522886004386869

>  <m_score__min__rmsd>  (24) 
2.522886004386869

>  <meeko>  (24) 
{"free_energy": -8.28, "intermolecular_energy": -10.36, "internal_energy": -2.0, "cluster_size": 13, "cluster_id": 4, "rank_in_cluster": 1}

>  <energy>  (24) 
-8.51

>  <cluster_rmsd>  (24) 
0.93

>  <cluster>  (24) 
1

$$$$

     RDKit          3D

 55 58  0  0  0  0  0  0  0  0999 V2000
  140.0760   71.0800  221.2220 O   0  0  0  0  0  0  0  0  0  0  0  0
  139.9290   71.7610  222.2810 C   0  0  0  0  0  0  0  0  0  0  0  0
  139.7000   73.1770  222.2440 N   0  0  0  0  0  0  0  0  0  0  0  0
  139.6300   73.8810  220.9660 C   0  0  0  0  0  0  0  0  0  0  0  0
  140.0430   75.2790  221.0960 C   0  0  0  0  0  0  0  0  0  0  0  0
  140.0810   75.7200  222.3180 O   0  0  0  0  0  0  0  0  0  0  0  0
  140.3980   76.2080  220.1260 N   0  0  0  0  0  0  0  0  0  0  0  0
  139.7910   77.5670  220.3160 C   0  0  0  0  0  0  0  0  0  0  0  0
  140.7100   78.5730  219.6660 C   0  0  0  0  0  0  0  0  0  0  0  0
  142.1570   78.2400  219.7170 C   0  0  0  0  0  0  0  0  0  0  0  0
  142.5220   76.8290  219.3650 C   0  0  0  0  0  0  0  0  0  0  0  0
  141.2350   76.1060  218.9730 C   0  0  1  0  0  0  0  0  0  0  0  0
  141.4760   74.7750  218.3930 C   0  0  0  0  0  0  0  0  0  0  0  0
  142.1050   73.8750  219.2110 O   0  0  0  0  0  0  0  0  0  0  0  0
  143.3620   73.6060  219.5850 C   0  0  0  0  0  0  0  0  0  0  0  0
  143.8300   73.3060  220.8420 C   0  0  0  0  0  0  0  0  0  0  0  0
  145.1630   73.0390  221.1150 C   0  0  0  0  0  0  0  0  0  0  0  0
  146.0980   73.0660  220.1070 C   0  0  0  0  0  0  0  0  0  0  0  0
  145.6620   73.3630  218.8350 C   0  0  0  0  0  0  0  0  0  0  0  0
  144.3490   73.6240  218.5770 C   0  0  0  0  0  0  0  0  0  0  0  0
  139.9940   71.0900  223.5960 C   0  0  0  0  0  0  0  0  0  0  0  0
  139.5660   69.7830  223.7030 C   0  0  0  0  0  0  0  0  0  0  0  0
  139.5950   69.0900  224.8960 C   0  0  0  0  0  0  0  0  0  0  0  0
  140.0830   69.7740  226.0040 C   0  0  0  0  0  0  0  0  0  0  0  0
  140.1500   69.1590  227.2420 C   0  0  0  0  0  0  0  0  0  0  0  0
  140.6250   69.8060  228.3510 C   0  0  0  0  0  0  0  0  0  0  0  0
  141.0510   71.1170  228.2320 C   0  0  0  0  0  0  0  0  0  0  0  0
  140.9870   71.7250  227.0130 C   0  0  0  0  0  0  0  0  0  0  0  0
  140.5090   71.0830  225.8840 C   0  0  0  0  0  0  0  0  0  0  0  0
  140.4570   71.7120  224.6910 N   0  0  0  0  0  0  0  0  0  0  0  0
  139.5920   73.6540  223.1640 H   0  0  0  0  0  0  0  0  0  0  0  0
  140.2924   73.3789  220.2455 H   0  0  0  0  0  0  0  0  0  0  0  0
  138.5859   73.8621  220.6203 H   0  0  0  0  0  0  0  0  0  0  0  0
  138.7990   77.6042  219.8420 H   0  0  0  0  0  0  0  0  0  0  0  0
  139.6702   77.7896  221.3864 H   0  0  0  0  0  0  0  0  0  0  0  0
  140.4198   78.6644  218.6089 H   0  0  0  0  0  0  0  0  0  0  0  0
  140.5930   79.5049  220.2386 H   0  0  0  0  0  0  0  0  0  0  0  0
  142.6803   78.9073  219.0163 H   0  0  0  0  0  0  0  0  0  0  0  0
  142.4527   78.3681  220.7687 H   0  0  0  0  0  0  0  0  0  0  0  0
  143.2280   76.8230  218.5215 H   0  0  0  0  0  0  0  0  0  0  0  0
  143.0028   76.3288  220.2186 H   0  0  0  0  0  0  0  0  0  0  0  0
  140.7026   76.5613  218.1249 H   0  0  0  0  0  0  0  0  0  0  0  0
  140.5025   74.3495  218.1080 H   0  0  0  0  0  0  0  0  0  0  0  0
  142.1581   74.9368  217.5453 H   0  0  0  0  0  0  0  0  0  0  0  0
  143.1106   73.2762  221.6736 H   0  0  0  0  0  0  0  0  0  0  0  0
  145.4743   72.8043  222.1436 H   0  0  0  0  0  0  0  0  0  0  0  0
  147.1588   72.8573  220.3100 H   0  0  0  0  0  0  0  0  0  0  0  0
  146.3886   73.3902  218.0096 H   0  0  0  0  0  0  0  0  0  0  0  0
  144.0481   73.8572  217.5450 H   0  0  0  0  0  0  0  0  0  0  0  0
  139.1876   69.2743  222.8041 H   0  0  0  0  0  0  0  0  0  0  0  0
  139.2492   68.0482  224.9670 H   0  0  0  0  0  0  0  0  0  0  0  0
  139.8107   68.1170  227.3380 H   0  0  0  0  0  0  0  0  0  0  0  0
  140.6674   69.2913  229.3222 H   0  0  0  0  0  0  0  0  0  0  0  0
  141.4355   71.6607  229.1075 H   0  0  0  0  0  0  0  0  0  0  0  0
  141.3288   72.7667  226.9236 H   0  0  0  0  0  0  0  0  0  0  0  0
  1  2  2  0
  2  3  1  0
  3  4  1  0
  4  5  1  0
  5  6  2  0
  5  7  1  0
  7  8  1  0
  8  9  1  0
  9 10  1  0
 10 11  1  0
 11 12  1  0
 12 13  1  0
 13 14  1  0
 14 15  1  0
 15 16  2  0
 16 17  1  0
 17 18  2  0
 18 19  1  0
 19 20  2  0
  2 21  1  0
 21 22  2  0
 22 23  1  0
 23 24  2  0
 24 25  1  0
 25 26  2  0
 26 27  1  0
 27 28  2  0
 28 29  1  0
 29 30  2  0
 12  7  1  0
 20 15  1  0
 30 21  1  0
 29 24  1  0
  3 31  1  0
  4 32  1  0
  4 33  1  0
  8 34  1  0
  8 35  1  0
  9 36  1  0
  9 37  1  0
 10 38  1  0
 10 39  1  0
 11 40  1  0
 11 41  1  0
 12 42  1  6
 13 43  1  0
 13 44  1  0
 16 45  1  0
 17 46  1  0
 18 47  1  0
 19 48  1  0
 20 49  1  0
 22 50  1  0
 23 51  1  0
 25 52  1  0
 26 53  1  0
 27 54  1  0
 28 55  1  0
M  END
>  <smiles>  (25) 
O=C(NCC(=O)N1CCCC[C@H]1COc1ccccc1)c1ccc2ccccc2n1

>  <score_type>  (25) 
oracle

>  <origin>  (25) 
autodockgpu

>  <m_score__min__energy>  (25) 
-9.1300000000000008

>  <m_primary>  (25) 
energy

>  <rmsd>  (25) 
1.998204149466995

>  <m_score__min__rmsd>  (25) 
1.998204149466995

>  <meeko>  (25) 
{"free_energy": -7.66, "intermolecular_energy": -9.75, "internal_energy": -2.46, "cluster_size": 13, "cluster_id": 4, "rank_in_cluster": 12}

>  <energy>  (25) 
-8.49

>  <cluster_rmsd>  (25) 
1.95

>  <cluster>  (25) 
1

$$$$

     RDKit          3D

 55 58  0  0  0  0  0  0  0  0999 V2000
  140.8260   71.5260  221.3340 O   0  0  0  0  0  0  0  0  0  0  0  0
  140.3490   72.0970  222.3600 C   0  0  0  0  0  0  0  0  0  0  0  0
  139.9250   73.4660  222.3350 N   0  0  0  0  0  0  0  0  0  0  0  0
  140.0330   74.2520  221.1070 C   0  0  0  0  0  0  0  0  0  0  0  0
  140.0460   75.6890  221.3850 C   0  0  0  0  0  0  0  0  0  0  0  0
  139.9700   75.9970  222.6450 O   0  0  0  0  0  0  0  0  0  0  0  0
  140.1260   76.7730  220.5200 N   0  0  0  0  0  0  0  0  0  0  0  0
  138.8030   77.2440  219.9920 C   0  0  0  0  0  0  0  0  0  0  0  0
  138.9420   78.7090  219.6520 C   0  0  0  0  0  0  0  0  0  0  0  0
  139.8680   79.4790  220.5230 C   0  0  0  0  0  0  0  0  0  0  0  0
  141.1920   78.8360  220.8100 C   0  0  0  0  0  0  0  0  0  0  0  0
  141.2410   77.5210  220.0340 C   0  0  1  0  0  0  0  0  0  0  0  0
  142.5720   76.8920  220.0490 C   0  0  0  0  0  0  0  0  0  0  0  0
  142.5860   75.5270  219.9490 O   0  0  0  0  0  0  0  0  0  0  0  0
  143.4690   74.5410  220.1440 C   0  0  0  0  0  0  0  0  0  0  0  0
  144.7960   74.6420  220.4910 C   0  0  0  0  0  0  0  0  0  0  0  0
  145.6220   73.5440  220.6710 C   0  0  0  0  0  0  0  0  0  0  0  0
  145.1320   72.2690  220.5040 C   0  0  0  0  0  0  0  0  0  0  0  0
  143.8060   72.1330  220.1570 C   0  0  0  0  0  0  0  0  0  0  0  0
  143.0010   73.2200  219.9810 C   0  0  0  0  0  0  0  0  0  0  0  0
  140.2230   71.3400  223.6230 C   0  0  0  0  0  0  0  0  0  0  0  0
  139.6250   70.0980  223.6040 C   0  0  0  0  0  0  0  0  0  0  0  0
  139.4710   69.3330  224.7420 C   0  0  0  0  0  0  0  0  0  0  0  0
  139.9520   69.8740  225.9290 C   0  0  0  0  0  0  0  0  0  0  0  0
  139.8410   69.1790  227.1200 C   0  0  0  0  0  0  0  0  0  0  0  0
  140.3040   69.6860  228.3040 C   0  0  0  0  0  0  0  0  0  0  0  0
  140.9020   70.9340  228.3120 C   0  0  0  0  0  0  0  0  0  0  0  0
  141.0130   71.6210  227.1400 C   0  0  0  0  0  0  0  0  0  0  0  0
  140.5490   71.1200  225.9360 C   0  0  0  0  0  0  0  0  0  0  0  0
  140.6720   71.8250  224.7920 N   0  0  0  0  0  0  0  0  0  0  0  0
  139.5450   73.8520  223.2260 H   0  0  0  0  0  0  0  0  0  0  0  0
  140.9653   73.9802  220.5903 H   0  0  0  0  0  0  0  0  0  0  0  0
  139.1567   74.0314  220.4797 H   0  0  0  0  0  0  0  0  0  0  0  0
  138.5344   76.6736  219.0906 H   0  0  0  0  0  0  0  0  0  0  0  0
  138.0126   77.0950  220.7424 H   0  0  0  0  0  0  0  0  0  0  0  0
  139.3075   78.7843  218.6172 H   0  0  0  0  0  0  0  0  0  0  0  0
  137.9460   79.1514  219.8014 H   0  0  0  0  0  0  0  0  0  0  0  0
  140.0625   80.4455  220.0351 H   0  0  0  0  0  0  0  0  0  0  0  0
  139.3610   79.5582  221.4960 H   0  0  0  0  0  0  0  0  0  0  0  0
  142.0089   79.4960  220.4828 H   0  0  0  0  0  0  0  0  0  0  0  0
  141.3090   78.6543  221.8885 H   0  0  0  0  0  0  0  0  0  0  0  0
  141.1255   77.6354  218.9461 H   0  0  0  0  0  0  0  0  0  0  0  0
  143.1471   77.2984  219.2039 H   0  0  0  0  0  0  0  0  0  0  0  0
  143.0015   77.1242  221.0347 H   0  0  0  0  0  0  0  0  0  0  0  0
  145.2235   75.6456  220.6329 H   0  0  0  0  0  0  0  0  0  0  0  0
  146.6758   73.6925  220.9491 H   0  0  0  0  0  0  0  0  0  0  0  0
  145.7770   71.3888  220.6428 H   0  0  0  0  0  0  0  0  0  0  0  0
  143.3869   71.1254  220.0187 H   0  0  0  0  0  0  0  0  0  0  0  0
  141.9490   73.0609  219.7019 H   0  0  0  0  0  0  0  0  0  0  0  0
  139.2569   69.7021  222.6460 H   0  0  0  0  0  0  0  0  0  0  0  0
  138.9912   68.3436  224.7116 H   0  0  0  0  0  0  0  0  0  0  0  0
  139.3654   68.1871  227.1153 H   0  0  0  0  0  0  0  0  0  0  0  0
  140.2023   69.1099  229.2356 H   0  0  0  0  0  0  0  0  0  0  0  0
  141.2820   71.3650  229.2500 H   0  0  0  0  0  0  0  0  0  0  0  0
  141.4899   72.6122  227.1514 H   0  0  0  0  0  0  0  0  0  0  0  0
  1  2  2  0
  2  3  1  0
  3  4  1  0
  4  5  1  0
  5  6  2  0
  5  7  1  0
  7  8  1  0
  8  9  1  0
  9 10  1  0
 10 11  1  0
 11 12  1  0
 12 13  1  0
 13 14  1  0
 14 15  1  0
 15 16  2  0
 16 17  1  0
 17 18  2  0
 18 19  1  0
 19 20  2  0
  2 21  1  0
 21 22  2  0
 22 23  1  0
 23 24  2  0
 24 25  1  0
 25 26  2  0
 26 27  1  0
 27 28  2  0
 28 29  1  0
 29 30  2  0
 12  7  1  0
 20 15  1  0
 30 21  1  0
 29 24  1  0
  3 31  1  0
  4 32  1  0
  4 33  1  0
  8 34  1  0
  8 35  1  0
  9 36  1  0
  9 37  1  0
 10 38  1  0
 10 39  1  0
 11 40  1  0
 11 41  1  0
 12 42  1  6
 13 43  1  0
 13 44  1  0
 16 45  1  0
 17 46  1  0
 18 47  1  0
 19 48  1  0
 20 49  1  0
 22 50  1  0
 23 51  1  0
 25 52  1  0
 26 53  1  0
 27 54  1  0
 28 55  1  0
M  END
>  <smiles>  (26) 
O=C(NCC(=O)N1CCCC[C@H]1COc1ccccc1)c1ccc2ccccc2n1

>  <score_type>  (26) 
oracle

>  <origin>  (26) 
autodockgpu

>  <m_score__min__energy>  (26) 
-9.1300000000000008

>  <m_primary>  (26) 
energy

>  <rmsd>  (26) 
2.1003391372438127

>  <m_score__min__rmsd>  (26) 
2.1003391372438127

>  <meeko>  (26) 
{"free_energy": -7.95, "intermolecular_energy": -10.03, "internal_energy": -2.4, "cluster_size": 13, "cluster_id": 4, "rank_in_cluster": 9}

>  <energy>  (26) 
-8.46

>  <cluster_rmsd>  (26) 
1.1

>  <cluster>  (26) 
1

$$$$

     RDKit          3D

 55 58  0  0  0  0  0  0  0  0999 V2000
  139.3210   71.3190  221.0950 O   0  0  0  0  0  0  0  0  0  0  0  0
  139.4650   71.9830  222.1650 C   0  0  0  0  0  0  0  0  0  0  0  0
  139.4130   73.4160  222.1800 N   0  0  0  0  0  0  0  0  0  0  0  0
  139.1900   74.1600  220.9420 C   0  0  0  0  0  0  0  0  0  0  0  0
  140.3450   74.0760  220.0460 C   0  0  0  0  0  0  0  0  0  0  0  0
  140.0710   73.6450  218.8520 O   0  0  0  0  0  0  0  0  0  0  0  0
  141.6810   74.3820  220.2680 N   0  0  0  0  0  0  0  0  0  0  0  0
  142.4700   73.2840  220.9190 C   0  0  0  0  0  0  0  0  0  0  0  0
  143.9140   73.4550  220.5120 C   0  0  0  0  0  0  0  0  0  0  0  0
  144.1300   74.0050  219.1490 C   0  0  0  0  0  0  0  0  0  0  0  0
  143.2930   75.1920  218.7760 C   0  0  0  0  0  0  0  0  0  0  0  0
  142.4460   75.5570  219.9940 C   0  0  1  0  0  0  0  0  0  0  0  0
  141.7380   76.8380  219.8400 C   0  0  0  0  0  0  0  0  0  0  0  0
  141.1600   77.3390  220.9750 O   0  0  0  0  0  0  0  0  0  0  0  0
  141.4460   78.2760  221.8880 C   0  0  0  0  0  0  0  0  0  0  0  0
  141.3780   78.1790  223.2570 C   0  0  0  0  0  0  0  0  0  0  0  0
  141.7040   79.2210  224.1110 C   0  0  0  0  0  0  0  0  0  0  0  0
  142.1210   80.4310  223.6060 C   0  0  0  0  0  0  0  0  0  0  0  0
  142.1990   80.5600  222.2380 C   0  0  0  0  0  0  0  0  0  0  0  0
  141.8760   79.5300  221.4050 C   0  0  0  0  0  0  0  0  0  0  0  0
  139.6940   71.2710  223.4400 C   0  0  0  0  0  0  0  0  0  0  0  0
  139.3900   69.9280  223.5220 C   0  0  0  0  0  0  0  0  0  0  0  0
  139.5750   69.1960  224.6770 C   0  0  0  0  0  0  0  0  0  0  0  0
  140.0920   69.8790  225.7730 C   0  0  0  0  0  0  0  0  0  0  0  0
  140.3110   69.2260  226.9730 C   0  0  0  0  0  0  0  0  0  0  0  0
  140.8180   69.8710  228.0700 C   0  0  0  0  0  0  0  0  0  0  0  0
  141.1190   71.2180  227.9760 C   0  0  0  0  0  0  0  0  0  0  0  0
  140.9040   71.8630  226.7940 C   0  0  0  0  0  0  0  0  0  0  0  0
  140.3920   71.2240  225.6790 C   0  0  0  0  0  0  0  0  0  0  0  0
  140.1900   71.8900  224.5230 N   0  0  0  0  0  0  0  0  0  0  0  0
  139.5430   73.8770  223.1060 H   0  0  0  0  0  0  0  0  0  0  0  0
  138.3099   73.7443  220.4295 H   0  0  0  0  0  0  0  0  0  0  0  0
  139.0318   75.2175  221.2004 H   0  0  0  0  0  0  0  0  0  0  0  0
  142.3780   73.3541  222.0129 H   0  0  0  0  0  0  0  0  0  0  0  0
  142.0941   72.2995  220.6036 H   0  0  0  0  0  0  0  0  0  0  0  0
  144.3915   74.1355  221.2323 H   0  0  0  0  0  0  0  0  0  0  0  0
  144.3488   72.4446  220.5040 H   0  0  0  0  0  0  0  0  0  0  0  0
  145.1866   74.3005  219.0695 H   0  0  0  0  0  0  0  0  0  0  0  0
  143.8317   73.2040  218.4566 H   0  0  0  0  0  0  0  0  0  0  0  0
  143.9411   76.0375  218.5021 H   0  0  0  0  0  0  0  0  0  0  0  0
  142.6514   74.9583  217.9136 H   0  0  0  0  0  0  0  0  0  0  0  0
  143.0314   75.7989  220.8934 H   0  0  0  0  0  0  0  0  0  0  0  0
  142.4611   77.5813  219.4730 H   0  0  0  0  0  0  0  0  0  0  0  0
  140.9089   76.6396  219.1449 H   0  0  0  0  0  0  0  0  0  0  0  0
  141.0483   77.2265  223.6974 H   0  0  0  0  0  0  0  0  0  0  0  0
  141.6288   79.0796  225.1993 H   0  0  0  0  0  0  0  0  0  0  0  0
  142.3829   81.2661  224.2724 H   0  0  0  0  0  0  0  0  0  0  0  0
  142.5296   81.5163  221.8066 H   0  0  0  0  0  0  0  0  0  0  0  0
  141.9534   79.6820  220.3183 H   0  0  0  0  0  0  0  0  0  0  0  0
  138.9850   69.4216  222.6334 H   0  0  0  0  0  0  0  0  0  0  0  0
  139.3261   68.1258  224.7285 H   0  0  0  0  0  0  0  0  0  0  0  0
  140.0704   68.1553  227.0485 H   0  0  0  0  0  0  0  0  0  0  0  0
  140.9832   69.3262  229.0112 H   0  0  0  0  0  0  0  0  0  0  0  0
  141.5258   71.7607  228.8420 H   0  0  0  0  0  0  0  0  0  0  0  0
  141.1473   72.9335  226.7244 H   0  0  0  0  0  0  0  0  0  0  0  0
  1  2  2  0
  2  3  1  0
  3  4  1  0
  4  5  1  0
  5  6  2  0
  5  7  1  0
  7  8  1  0
  8  9  1  0
  9 10  1  0
 10 11  1  0
 11 12  1  0
 12 13  1  0
 13 14  1  0
 14 15  1  0
 15 16  2  0
 16 17  1  0
 17 18  2  0
 18 19  1  0
 19 20  2  0
  2 21  1  0
 21 22  2  0
 22 23  1  0
 23 24  2  0
 24 25  1  0
 25 26  2  0
 26 27  1  0
 27 28  2  0
 28 29  1  0
 29 30  2  0
 12  7  1  0
 20 15  1  0
 30 21  1  0
 29 24  1  0
  3 31  1  0
  4 32  1  0
  4 33  1  0
  8 34  1  0
  8 35  1  0
  9 36  1  0
  9 37  1  0
 10 38  1  0
 10 39  1  0
 11 40  1  0
 11 41  1  0
 12 42  1  1
 13 43  1  0
 13 44  1  0
 16 45  1  0
 17 46  1  0
 18 47  1  0
 19 48  1  0
 20 49  1  0
 22 50  1  0
 23 51  1  0
 25 52  1  0
 26 53  1  0
 27 54  1  0
 28 55  1  0
M  END
>  <smiles>  (27) 
O=C(NCC(=O)N1CCCC[C@H]1COc1ccccc1)c1ccc2ccccc2n1

>  <score_type>  (27) 
oracle

>  <origin>  (27) 
autodockgpu

>  <m_score__min__energy>  (27) 
-9.1300000000000008

>  <m_primary>  (27) 
energy

>  <rmsd>  (27) 
2.470169893180061

>  <m_score__min__rmsd>  (27) 
2.470169893180061

>  <meeko>  (27) 
{"free_energy": -8.43, "intermolecular_energy": -10.52, "internal_energy": -1.9, "cluster_size": 32, "cluster_id": 1, "rank_in_cluster": 28}

>  <energy>  (27) 
-8.45

>  <cluster_rmsd>  (27) 
1.37

>  <cluster>  (27) 
1

$$$$

     RDKit          3D

 55 58  0  0  0  0  0  0  0  0999 V2000
  140.6940   71.3250  221.2750 O   0  0  0  0  0  0  0  0  0  0  0  0
  140.2860   71.9730  222.2860 C   0  0  0  0  0  0  0  0  0  0  0  0
  139.9590   73.3670  222.2090 N   0  0  0  0  0  0  0  0  0  0  0  0
  140.0900   74.0890  220.9450 C   0  0  0  0  0  0  0  0  0  0  0  0
  140.4520   75.4910  221.1590 C   0  0  0  0  0  0  0  0  0  0  0  0
  140.1190   75.9640  222.3230 O   0  0  0  0  0  0  0  0  0  0  0  0
  141.0920   76.3940  220.3200 N   0  0  0  0  0  0  0  0  0  0  0  0
  142.5490   76.1100  220.0980 C   0  0  0  0  0  0  0  0  0  0  0  0
  142.9280   76.6900  218.7560 C   0  0  0  0  0  0  0  0  0  0  0  0
  141.8570   76.6640  217.7260 C   0  0  0  0  0  0  0  0  0  0  0  0
  140.4990   77.1140  218.1740 C   0  0  0  0  0  0  0  0  0  0  0  0
  140.6190   77.5530  219.6320 C   0  0  1  0  0  0  0  0  0  0  0  0
  139.4090   78.2240  220.1330 C   0  0  0  0  0  0  0  0  0  0  0  0
  139.5840   79.0260  221.2290 O   0  0  0  0  0  0  0  0  0  0  0  0
  140.6070   79.4360  221.9880 C   0  0  0  0  0  0  0  0  0  0  0  0
  141.5180   80.4320  221.7240 C   0  0  0  0  0  0  0  0  0  0  0  0
  142.5430   80.7750  222.5910 C   0  0  0  0  0  0  0  0  0  0  0  0
  142.6960   80.1120  223.7860 C   0  0  0  0  0  0  0  0  0  0  0  0
  141.8000   79.1080  224.0800 C   0  0  0  0  0  0  0  0  0  0  0  0
  140.7950   78.7770  223.2210 C   0  0  0  0  0  0  0  0  0  0  0  0
  140.1390   71.2830  223.5840 C   0  0  0  0  0  0  0  0  0  0  0  0
  139.5610   70.0310  223.6170 C   0  0  0  0  0  0  0  0  0  0  0  0
  139.3900   69.3250  224.7900 C   0  0  0  0  0  0  0  0  0  0  0  0
  139.8320   69.9370  225.9580 C   0  0  0  0  0  0  0  0  0  0  0  0
  139.7020   69.3040  227.1810 C   0  0  0  0  0  0  0  0  0  0  0  0
  140.1270   69.8810  228.3480 C   0  0  0  0  0  0  0  0  0  0  0  0
  140.7060   71.1370  228.3030 C   0  0  0  0  0  0  0  0  0  0  0  0
  140.8360   71.7630  227.0990 C   0  0  0  0  0  0  0  0  0  0  0  0
  140.4100   71.1910  225.9120 C   0  0  0  0  0  0  0  0  0  0  0  0
  140.5510   71.8360  224.7360 N   0  0  0  0  0  0  0  0  0  0  0  0
  139.6310   73.8170  223.0900 H   0  0  0  0  0  0  0  0  0  0  0  0
  140.8711   73.6074  220.3384 H   0  0  0  0  0  0  0  0  0  0  0  0
  139.1182   74.0598  220.4304 H   0  0  0  0  0  0  0  0  0  0  0  0
  143.1479   76.5796  220.8922 H   0  0  0  0  0  0  0  0  0  0  0  0
  142.7389   75.0267  220.1182 H   0  0  0  0  0  0  0  0  0  0  0  0
  143.2251   77.7378  218.9106 H   0  0  0  0  0  0  0  0  0  0  0  0
  143.7375   76.0542  218.3682 H   0  0  0  0  0  0  0  0  0  0  0  0
  142.1711   77.3168  216.8982 H   0  0  0  0  0  0  0  0  0  0  0  0
  141.7405   75.6061  217.4480 H   0  0  0  0  0  0  0  0  0  0  0  0
  140.1594   77.9572  217.5546 H   0  0  0  0  0  0  0  0  0  0  0  0
  139.7678   76.2983  218.0738 H   0  0  0  0  0  0  0  0  0  0  0  0
  141.3401   78.3666  219.7997 H   0  0  0  0  0  0  0  0  0  0  0  0
  139.0067   78.8462  219.3200 H   0  0  0  0  0  0  0  0  0  0  0  0
  138.7325   77.4191  220.4562 H   0  0  0  0  0  0  0  0  0  0  0  0
  141.4284   80.9841  220.7768 H   0  0  0  0  0  0  0  0  0  0  0  0
  143.2390   81.5831  222.3216 H   0  0  0  0  0  0  0  0  0  0  0  0
  143.5057   80.3743  224.4828 H   0  0  0  0  0  0  0  0  0  0  0  0
  141.8978   78.5611  225.0294 H   0  0  0  0  0  0  0  0  0  0  0  0
  140.1054   77.9665  223.4993 H   0  0  0  0  0  0  0  0  0  0  0  0
  139.2238   69.5785  222.6728 H   0  0  0  0  0  0  0  0  0  0  0  0
  138.9269   68.3273  224.8008 H   0  0  0  0  0  0  0  0  0  0  0  0
  139.2425   68.3052  227.2174 H   0  0  0  0  0  0  0  0  0  0  0  0
  140.0099   69.3541  229.3065 H   0  0  0  0  0  0  0  0  0  0  0  0
  141.0563   71.6233  229.2254 H   0  0  0  0  0  0  0  0  0  0  0  0
  141.2972   72.7612  227.0692 H   0  0  0  0  0  0  0  0  0  0  0  0
  1  2  2  0
  2  3  1  0
  3  4  1  0
  4  5  1  0
  5  6  2  0
  5  7  1  0
  7  8  1  0
  8  9  1  0
  9 10  1  0
 10 11  1  0
 11 12  1  0
 12 13  1  0
 13 14  1  0
 14 15  1  0
 15 16  2  0
 16 17  1  0
 17 18  2  0
 18 19  1  0
 19 20  2  0
  2 21  1  0
 21 22  2  0
 22 23  1  0
 23 24  2  0
 24 25  1  0
 25 26  2  0
 26 27  1  0
 27 28  2  0
 28 29  1  0
 29 30  2  0
 12  7  1  0
 20 15  1  0
 30 21  1  0
 29 24  1  0
  3 31  1  0
  4 32  1  0
  4 33  1  0
  8 34  1  0
  8 35  1  0
  9 36  1  0
  9 37  1  0
 10 38  1  0
 10 39  1  0
 11 40  1  0
 11 41  1  0
 12 42  1  6
 13 43  1  0
 13 44  1  0
 16 45  1  0
 17 46  1  0
 18 47  1  0
 19 48  1  0
 20 49  1  0
 22 50  1  0
 23 51  1  0
 25 52  1  0
 26 53  1  0
 27 54  1  0
 28 55  1  0
M  END
>  <smiles>  (28) 
O=C(NCC(=O)N1CCCC[C@H]1COc1ccccc1)c1ccc2ccccc2n1

>  <score_type>  (28) 
oracle

>  <origin>  (28) 
autodockgpu

>  <m_score__min__energy>  (28) 
-9.1300000000000008

>  <m_primary>  (28) 
energy

>  <rmsd>  (28) 
2.1599076338956693

>  <m_score__min__rmsd>  (28) 
2.1599076338956693

>  <meeko>  (28) 
{"free_energy": -8.51, "intermolecular_energy": -10.6, "internal_energy": -2.24, "cluster_size": 32, "cluster_id": 1, "rank_in_cluster": 24}

>  <energy>  (28) 
-8.43

>  <cluster_rmsd>  (28) 
1.08

>  <cluster>  (28) 
1

$$$$

     RDKit          3D

 55 58  0  0  0  0  0  0  0  0999 V2000
  139.9620   71.2080  221.2400 O   0  0  0  0  0  0  0  0  0  0  0  0
  139.8460   71.8700  222.3150 C   0  0  0  0  0  0  0  0  0  0  0  0
  139.6200   73.2860  222.3100 N   0  0  0  0  0  0  0  0  0  0  0  0
  139.5160   74.0140  221.0470 C   0  0  0  0  0  0  0  0  0  0  0  0
  140.8300   74.2290  220.4390 C   0  0  0  0  0  0  0  0  0  0  0  0
  141.3080   73.2000  219.8060 O   0  0  0  0  0  0  0  0  0  0  0  0
  141.6460   75.3540  220.4300 N   0  0  0  0  0  0  0  0  0  0  0  0
  143.0890   75.0710  220.1320 C   0  0  0  0  0  0  0  0  0  0  0  0
  143.6830   76.3190  219.5230 C   0  0  0  0  0  0  0  0  0  0  0  0
  142.7530   77.1260  218.6910 C   0  0  0  0  0  0  0  0  0  0  0  0
  141.3920   77.3710  219.2710 C   0  0  0  0  0  0  0  0  0  0  0  0
  141.3640   76.7350  220.6590 C   0  0  1  0  0  0  0  0  0  0  0  0
  140.1610   77.0900  221.4310 C   0  0  0  0  0  0  0  0  0  0  0  0
  140.3840   77.7500  222.6090 O   0  0  0  0  0  0  0  0  0  0  0  0
  140.9260   78.9120  222.9920 C   0  0  0  0  0  0  0  0  0  0  0  0
  140.2890   80.0310  223.4740 C   0  0  0  0  0  0  0  0  0  0  0  0
  140.9570   81.1870  223.8460 C   0  0  0  0  0  0  0  0  0  0  0  0
  142.3270   81.2630  223.7420 C   0  0  0  0  0  0  0  0  0  0  0  0
  142.9950   80.1600  223.2620 C   0  0  0  0  0  0  0  0  0  0  0  0
  142.3290   79.0260  222.8990 C   0  0  0  0  0  0  0  0  0  0  0  0
  139.9450   71.1740  223.6150 C   0  0  0  0  0  0  0  0  0  0  0  0
  139.5270   69.8640  223.7080 C   0  0  0  0  0  0  0  0  0  0  0  0
  139.5870   69.1480  224.8860 C   0  0  0  0  0  0  0  0  0  0  0  0
  140.0980   69.8150  225.9950 C   0  0  0  0  0  0  0  0  0  0  0  0
  140.1970   69.1770  227.2190 C   0  0  0  0  0  0  0  0  0  0  0  0
  140.6940   69.8060  228.3290 C   0  0  0  0  0  0  0  0  0  0  0  0
  141.1110   71.1210  228.2250 C   0  0  0  0  0  0  0  0  0  0  0  0
  141.0150   71.7520  227.0190 C   0  0  0  0  0  0  0  0  0  0  0  0
  140.5140   71.1280  225.8900 C   0  0  0  0  0  0  0  0  0  0  0  0
  140.4310   71.7780  224.7110 N   0  0  0  0  0  0  0  0  0  0  0  0
  139.5370   73.7470  223.2410 H   0  0  0  0  0  0  0  0  0  0  0  0
  138.8913   73.4345  220.3513 H   0  0  0  0  0  0  0  0  0  0  0  0
  139.0671   74.9970  221.2525 H   0  0  0  0  0  0  0  0  0  0  0  0
  143.6210   74.8171  221.0607 H   0  0  0  0  0  0  0  0  0  0  0  0
  143.1809   74.2217  219.4391 H   0  0  0  0  0  0  0  0  0  0  0  0
  144.0461   76.9569  220.3423 H   0  0  0  0  0  0  0  0  0  0  0  0
  144.4781   75.9767  218.8443 H   0  0  0  0  0  0  0  0  0  0  0  0
  143.2237   78.1042  218.5135 H   0  0  0  0  0  0  0  0  0  0  0  0
  142.5834   76.5344  217.7793 H   0  0  0  0  0  0  0  0  0  0  0  0
  141.2061   78.4523  219.3494 H   0  0  0  0  0  0  0  0  0  0  0  0
  140.6127   76.9348  218.6289 H   0  0  0  0  0  0  0  0  0  0  0  0
  142.1252   77.1271  221.3495 H   0  0  0  0  0  0  0  0  0  0  0  0
  139.5308   77.7321  220.7981 H   0  0  0  0  0  0  0  0  0  0  0  0
  139.6901   76.1351  221.7074 H   0  0  0  0  0  0  0  0  0  0  0  0
  139.1934   80.0076  223.5692 H   0  0  0  0  0  0  0  0  0  0  0  0
  140.3888   82.0486  224.2265 H   0  0  0  0  0  0  0  0  0  0  0  0
  142.8697   82.1746  224.0327 H   0  0  0  0  0  0  0  0  0  0  0  0
  144.0905   80.1933  223.1688 H   0  0  0  0  0  0  0  0  0  0  0  0
  142.9067   78.1699  222.5203 H   0  0  0  0  0  0  0  0  0  0  0  0
  139.1303   69.3703  222.8086 H   0  0  0  0  0  0  0  0  0  0  0  0
  139.2481   68.1032  224.9453 H   0  0  0  0  0  0  0  0  0  0  0  0
  139.8659   68.1314  227.3028 H   0  0  0  0  0  0  0  0  0  0  0  0
  140.7607   69.2736  229.2893 H   0  0  0  0  0  0  0  0  0  0  0  0
  141.5139   71.6499  229.1013 H   0  0  0  0  0  0  0  0  0  0  0  0
  141.3488   72.7972  226.9412 H   0  0  0  0  0  0  0  0  0  0  0  0
  1  2  2  0
  2  3  1  0
  3  4  1  0
  4  5  1  0
  5  6  2  0
  5  7  1  0
  7  8  1  0
  8  9  1  0
  9 10  1  0
 10 11  1  0
 11 12  1  0
 12 13  1  0
 13 14  1  0
 14 15  1  0
 15 16  2  0
 16 17  1  0
 17 18  2  0
 18 19  1  0
 19 20  2  0
  2 21  1  0
 21 22  2  0
 22 23  1  0
 23 24  2  0
 24 25  1  0
 25 26  2  0
 26 27  1  0
 27 28  2  0
 28 29  1  0
 29 30  2  0
 12  7  1  0
 20 15  1  0
 30 21  1  0
 29 24  1  0
  3 31  1  0
  4 32  1  0
  4 33  1  0
  8 34  1  0
  8 35  1  0
  9 36  1  0
  9 37  1  0
 10 38  1  0
 10 39  1  0
 11 40  1  0
 11 41  1  0
 12 42  1  1
 13 43  1  0
 13 44  1  0
 16 45  1  0
 17 46  1  0
 18 47  1  0
 19 48  1  0
 20 49  1  0
 22 50  1  0
 23 51  1  0
 25 52  1  0
 26 53  1  0
 27 54  1  0
 28 55  1  0
M  END
>  <smiles>  (29) 
O=C(NCC(=O)N1CCCC[C@H]1COc1ccccc1)c1ccc2ccccc2n1

>  <score_type>  (29) 
oracle

>  <origin>  (29) 
autodockgpu

>  <m_score__min__energy>  (29) 
-9.1300000000000008

>  <m_primary>  (29) 
energy

>  <rmsd>  (29) 
2.32660141271831

>  <m_score__min__rmsd>  (29) 
2.32660141271831

>  <meeko>  (29) 
{"free_energy": -9.0, "intermolecular_energy": -11.09, "internal_energy": -1.57, "cluster_size": 32, "cluster_id": 1, "rank_in_cluster": 3}

>  <energy>  (29) 
-8.36

>  <cluster_rmsd>  (29) 
1.34

>  <cluster>  (29) 
1

$$$$

     RDKit          3D

 55 58  0  0  0  0  0  0  0  0999 V2000
  140.7730   71.4240  221.2860 O   0  0  0  0  0  0  0  0  0  0  0  0
  140.3380   72.0520  222.2980 C   0  0  0  0  0  0  0  0  0  0  0  0
  139.9520   73.4310  222.2250 N   0  0  0  0  0  0  0  0  0  0  0  0
  140.0530   74.1600  220.9620 C   0  0  0  0  0  0  0  0  0  0  0  0
  140.1790   75.6020  221.1810 C   0  0  0  0  0  0  0  0  0  0  0  0
  140.1630   75.9630  222.4280 O   0  0  0  0  0  0  0  0  0  0  0  0
  140.3110   76.6430  220.2700 N   0  0  0  0  0  0  0  0  0  0  0  0
  139.0130   77.1470  219.7110 C   0  0  0  0  0  0  0  0  0  0  0  0
  139.2170   78.5880  219.3100 C   0  0  0  0  0  0  0  0  0  0  0  0
  140.1700   79.3550  220.1540 C   0  0  0  0  0  0  0  0  0  0  0  0
  141.4630   78.6690  220.4790 C   0  0  0  0  0  0  0  0  0  0  0  0
  141.4610   77.3210  219.7620 C   0  0  1  0  0  0  0  0  0  0  0  0
  142.7630   76.6380  219.8160 C   0  0  0  0  0  0  0  0  0  0  0  0
  142.7190   75.2950  220.0770 O   0  0  0  0  0  0  0  0  0  0  0  0
  143.5940   74.2850  220.1590 C   0  0  0  0  0  0  0  0  0  0  0  0
  143.3640   72.9420  219.9760 C   0  0  0  0  0  0  0  0  0  0  0  0
  144.3550   71.9780  220.0840 C   0  0  0  0  0  0  0  0  0  0  0  0
  145.6460   72.3390  220.3900 C   0  0  0  0  0  0  0  0  0  0  0  0
  145.9100   73.6760  220.5810 C   0  0  0  0  0  0  0  0  0  0  0  0
  144.9290   74.6180  220.4720 C   0  0  0  0  0  0  0  0  0  0  0  0
  140.2210   71.3530  223.5950 C   0  0  0  0  0  0  0  0  0  0  0  0
  139.6220   70.1110  223.6360 C   0  0  0  0  0  0  0  0  0  0  0  0
  139.4750   69.3980  224.8090 C   0  0  0  0  0  0  0  0  0  0  0  0
  139.9660   69.9920  225.9660 C   0  0  0  0  0  0  0  0  0  0  0  0
  139.8640   69.3510  227.1880 C   0  0  0  0  0  0  0  0  0  0  0  0
  140.3370   69.9100  228.3450 C   0  0  0  0  0  0  0  0  0  0  0  0
  140.9360   71.1560  228.2920 C   0  0  0  0  0  0  0  0  0  0  0  0
  141.0390   71.7900  227.0890 C   0  0  0  0  0  0  0  0  0  0  0  0
  140.5640   71.2370  225.9120 C   0  0  0  0  0  0  0  0  0  0  0  0
  140.6800   71.8890  224.7370 N   0  0  0  0  0  0  0  0  0  0  0  0
  139.6060   73.8650  223.1070 H   0  0  0  0  0  0  0  0  0  0  0  0
  140.9375   73.8035  220.4137 H   0  0  0  0  0  0  0  0  0  0  0  0
  139.1340   73.9785  220.3854 H   0  0  0  0  0  0  0  0  0  0  0  0
  138.7261   76.5503  218.8326 H   0  0  0  0  0  0  0  0  0  0  0  0
  138.2119   77.0644  220.4603 H   0  0  0  0  0  0  0  0  0  0  0  0
  139.5915   78.6029  218.2758 H   0  0  0  0  0  0  0  0  0  0  0  0
  138.2401   79.0784  219.4331 H   0  0  0  0  0  0  0  0  0  0  0  0
  140.4090   80.2900  219.6262 H   0  0  0  0  0  0  0  0  0  0  0  0
  139.6611   79.4985  221.1186 H   0  0  0  0  0  0  0  0  0  0  0  0
  142.3095   79.2786  220.1300 H   0  0  0  0  0  0  0  0  0  0  0  0
  141.5649   78.5295  221.5654 H   0  0  0  0  0  0  0  0  0  0  0  0
  141.3581   77.3920  218.6691 H   0  0  0  0  0  0  0  0  0  0  0  0
  143.2581   76.7772  218.8436 H   0  0  0  0  0  0  0  0  0  0  0  0
  143.3035   77.0898  220.6608 H   0  0  0  0  0  0  0  0  0  0  0  0
  142.3424   72.6156  219.7316 H   0  0  0  0  0  0  0  0  0  0  0  0
  144.1068   70.9184  219.9239 H   0  0  0  0  0  0  0  0  0  0  0  0
  146.4412   71.5843  220.4792 H   0  0  0  0  0  0  0  0  0  0  0  0
  146.9345   73.9922  220.8269 H   0  0  0  0  0  0  0  0  0  0  0  0
  145.1881   75.6747  220.6339 H   0  0  0  0  0  0  0  0  0  0  0  0
  139.2476   69.6725  222.6993 H   0  0  0  0  0  0  0  0  0  0  0  0
  138.9934   68.4092  224.8272 H   0  0  0  0  0  0  0  0  0  0  0  0
  139.3876   68.3605  227.2314 H   0  0  0  0  0  0  0  0  0  0  0  0
  140.2422   69.3764  229.3022 H   0  0  0  0  0  0  0  0  0  0  0  0
  141.3235   71.6283  229.2068 H   0  0  0  0  0  0  0  0  0  0  0  0
  141.5182   72.7794  227.0524 H   0  0  0  0  0  0  0  0  0  0  0  0
  1  2  2  0
  2  3  1  0
  3  4  1  0
  4  5  1  0
  5  6  2  0
  5  7  1  0
  7  8  1  0
  8  9  1  0
  9 10  1  0
 10 11  1  0
 11 12  1  0
 12 13  1  0
 13 14  1  0
 14 15  1  0
 15 16  2  0
 16 17  1  0
 17 18  2  0
 18 19  1  0
 19 20  2  0
  2 21  1  0
 21 22  2  0
 22 23  1  0
 23 24  2  0
 24 25  1  0
 25 26  2  0
 26 27  1  0
 27 28  2  0
 28 29  1  0
 29 30  2  0
 12  7  1  0
 20 15  1  0
 30 21  1  0
 29 24  1  0
  3 31  1  0
  4 32  1  0
  4 33  1  0
  8 34  1  0
  8 35  1  0
  9 36  1  0
  9 37  1  0
 10 38  1  0
 10 39  1  0
 11 40  1  0
 11 41  1  0
 12 42  1  6
 13 43  1  0
 13 44  1  0
 16 45  1  0
 17 46  1  0
 18 47  1  0
 19 48  1  0
 20 49  1  0
 22 50  1  0
 23 51  1  0
 25 52  1  0
 26 53  1  0
 27 54  1  0
 28 55  1  0
M  END
>  <smiles>  (30) 
O=C(NCC(=O)N1CCCC[C@H]1COc1ccccc1)c1ccc2ccccc2n1

>  <score_type>  (30) 
oracle

>  <origin>  (30) 
autodockgpu

>  <m_score__min__energy>  (30) 
-9.1300000000000008

>  <m_primary>  (30) 
energy

>  <rmsd>  (30) 
2.015598981277983

>  <m_score__min__rmsd>  (30) 
2.015598981277983

>  <meeko>  (30) 
{"free_energy": -8.12, "intermolecular_energy": -10.21, "internal_energy": -2.32, "cluster_size": 13, "cluster_id": 4, "rank_in_cluster": 4}

>  <energy>  (30) 
-8.08

>  <cluster_rmsd>  (30) 
1.09

>  <cluster>  (30) 
1

$$$$

     RDKit          3D

 55 58  0  0  0  0  0  0  0  0999 V2000
  140.3860   70.7800  221.6760 O   0  0  0  0  0  0  0  0  0  0  0  0
  139.7950   71.4050  222.6070 C   0  0  0  0  0  0  0  0  0  0  0  0
  138.9060   72.4980  222.3380 N   0  0  0  0  0  0  0  0  0  0  0  0
  138.6550   72.9260  220.9640 C   0  0  0  0  0  0  0  0  0  0  0  0
  139.3400   74.1820  220.6560 C   0  0  0  0  0  0  0  0  0  0  0  0
  138.5980   75.0740  220.0710 O   0  0  0  0  0  0  0  0  0  0  0  0
  140.6530   74.5720  220.8880 N   0  0  0  0  0  0  0  0  0  0  0  0
  141.6830   73.5670  220.4620 C   0  0  0  0  0  0  0  0  0  0  0  0
  142.9560   74.3200  220.1530 C   0  0  0  0  0  0  0  0  0  0  0  0
  142.7690   75.6830  219.5910 C   0  0  0  0  0  0  0  0  0  0  0  0
  141.7520   76.5460  220.2770 C   0  0  0  0  0  0  0  0  0  0  0  0
  141.2060   75.7560  221.4650 C   0  0  1  0  0  0  0  0  0  0  0  0
  140.3600   76.5670  222.3550 C   0  0  0  0  0  0  0  0  0  0  0  0
  141.0250   77.4170  223.1960 O   0  0  0  0  0  0  0  0  0  0  0  0
  141.3470   78.7170  223.2210 C   0  0  0  0  0  0  0  0  0  0  0  0
  142.5830   79.2910  223.0470 C   0  0  0  0  0  0  0  0  0  0  0  0
  142.8000   80.6590  223.0900 C   0  0  0  0  0  0  0  0  0  0  0  0
  141.7540   81.5230  223.3160 C   0  0  0  0  0  0  0  0  0  0  0  0
  140.5020   80.9790  223.4960 C   0  0  0  0  0  0  0  0  0  0  0  0
  140.2980   79.6320  223.4520 C   0  0  0  0  0  0  0  0  0  0  0  0
  140.0210   71.0060  224.0120 C   0  0  0  0  0  0  0  0  0  0  0  0
  140.6290   71.8960  224.8720 C   0  0  0  0  0  0  0  0  0  0  0  0
  140.8740   71.5960  226.1970 C   0  0  0  0  0  0  0  0  0  0  0  0
  140.4760   70.3380  226.6360 C   0  0  0  0  0  0  0  0  0  0  0  0
  140.6800   69.9500  227.9480 C   0  0  0  0  0  0  0  0  0  0  0  0
  140.2990   68.7180  228.4100 C   0  0  0  0  0  0  0  0  0  0  0  0
  139.6900   67.8330  227.5380 C   0  0  0  0  0  0  0  0  0  0  0  0
  139.4870   68.2140  226.2450 C   0  0  0  0  0  0  0  0  0  0  0  0
  139.8670   69.4550  225.7640 C   0  0  0  0  0  0  0  0  0  0  0  0
  139.6530   69.8030  224.4780 N   0  0  0  0  0  0  0  0  0  0  0  0
  138.4640   72.9530  223.1660 H   0  0  0  0  0  0  0  0  0  0  0  0
  139.0137   72.1461  220.2762 H   0  0  0  0  0  0  0  0  0  0  0  0
  137.5732   73.0870  220.8466 H   0  0  0  0  0  0  0  0  0  0  0  0
  141.8613   72.8459  221.2733 H   0  0  0  0  0  0  0  0  0  0  0  0
  141.3382   73.0119  219.5771 H   0  0  0  0  0  0  0  0  0  0  0  0
  143.5303   74.4135  221.0865 H   0  0  0  0  0  0  0  0  0  0  0  0
  143.4710   73.7386  219.3740 H   0  0  0  0  0  0  0  0  0  0  0  0
  143.7376   76.2021  219.6392 H   0  0  0  0  0  0  0  0  0  0  0  0
  142.3879   75.5319  218.5703 H   0  0  0  0  0  0  0  0  0  0  0  0
  142.2239   77.4752  220.6289 H   0  0  0  0  0  0  0  0  0  0  0  0
  140.9407   76.8141  219.5842 H   0  0  0  0  0  0  0  0  0  0  0  0
  141.9711   75.4530  222.1950 H   0  0  0  0  0  0  0  0  0  0  0  0
  139.6895   77.1707  221.7258 H   0  0  0  0  0  0  0  0  0  0  0  0
  139.8375   75.8505  223.0058 H   0  0  0  0  0  0  0  0  0  0  0  0
  143.4440   78.6313  222.8643 H   0  0  0  0  0  0  0  0  0  0  0  0
  143.8151   81.0563  222.9425 H   0  0  0  0  0  0  0  0  0  0  0  0
  141.9122   82.6110  223.3517 H   0  0  0  0  0  0  0  0  0  0  0  0
  139.6471   81.6465  223.6795 H   0  0  0  0  0  0  0  0  0  0  0  0
  139.2795   79.2445  223.6019 H   0  0  0  0  0  0  0  0  0  0  0  0
  140.9300   72.8818  224.4879 H   0  0  0  0  0  0  0  0  0  0  0  0
  141.3598   72.3161  226.8719 H   0  0  0  0  0  0  0  0  0  0  0  0
  141.1635   70.6530  228.6423 H   0  0  0  0  0  0  0  0  0  0  0  0
  140.4746   68.4364  229.4588 H   0  0  0  0  0  0  0  0  0  0  0  0
  139.3745   66.8372  227.8828 H   0  0  0  0  0  0  0  0  0  0  0  0
  139.0017   67.5068  225.5562 H   0  0  0  0  0  0  0  0  0  0  0  0
  1  2  2  0
  2  3  1  0
  3  4  1  0
  4  5  1  0
  5  6  2  0
  5  7  1  0
  7  8  1  0
  8  9  1  0
  9 10  1  0
 10 11  1  0
 11 12  1  0
 12 13  1  0
 13 14  1  0
 14 15  1  0
 15 16  2  0
 16 17  1  0
 17 18  2  0
 18 19  1  0
 19 20  2  0
  2 21  1  0
 21 22  2  0
 22 23  1  0
 23 24  2  0
 24 25  1  0
 25 26  2  0
 26 27  1  0
 27 28  2  0
 28 29  1  0
 29 30  2  0
 12  7  1  0
 20 15  1  0
 30 21  1  0
 29 24  1  0
  3 31  1  0
  4 32  1  0
  4 33  1  0
  8 34  1  0
  8 35  1  0
  9 36  1  0
  9 37  1  0
 10 38  1  0
 10 39  1  0
 11 40  1  0
 11 41  1  0
 12 42  1  1
 13 43  1  0
 13 44  1  0
 16 45  1  0
 17 46  1  0
 18 47  1  0
 19 48  1  0
 20 49  1  0
 22 50  1  0
 23 51  1  0
 25 52  1  0
 26 53  1  0
 27 54  1  0
 28 55  1  0
M  END
>  <smiles>  (31) 
O=C(NCC(=O)N1CCCC[C@H]1COc1ccccc1)c1ccc2ccccc2n1

>  <score_type>  (31) 
oracle

>  <origin>  (31) 
autodockgpu

>  <m_score__min__energy>  (31) 
-9.1300000000000008

>  <m_primary>  (31) 
energy

>  <rmsd>  (31) 
3.1825370052173265

>  <m_score__min__rmsd>  (31) 
3.1825370052173265

>  <meeko>  (31) 
{"free_energy": -8.73, "intermolecular_energy": -10.82, "internal_energy": -1.53, "cluster_size": 32, "cluster_id": 1, "rank_in_cluster": 13}

>  <energy>  (31) 
-8.03

>  <cluster_rmsd>  (31) 
0.93

>  <cluster>  (31) 
1

$$$$

     RDKit          3D

 55 58  0  0  0  0  0  0  0  0999 V2000
  140.3120   71.7360  221.1270 O   0  0  0  0  0  0  0  0  0  0  0  0
  139.9970   72.2460  222.2430 C   0  0  0  0  0  0  0  0  0  0  0  0
  139.6080   73.6210  222.3640 N   0  0  0  0  0  0  0  0  0  0  0  0
  139.5640   74.4830  221.1850 C   0  0  0  0  0  0  0  0  0  0  0  0
  139.3780   75.8880  221.5500 C   0  0  0  0  0  0  0  0  0  0  0  0
  138.7030   76.0780  222.6440 O   0  0  0  0  0  0  0  0  0  0  0  0
  139.8060   77.0480  220.9160 N   0  0  0  0  0  0  0  0  0  0  0  0
  138.8490   78.1990  221.0150 C   0  0  0  0  0  0  0  0  0  0  0  0
  139.6520   79.4730  220.9030 C   0  0  0  0  0  0  0  0  0  0  0  0
  141.0220   79.4140  221.4750 C   0  0  0  0  0  0  0  0  0  0  0  0
  141.8310   78.2010  221.1270 C   0  0  0  0  0  0  0  0  0  0  0  0
  140.9930   77.3470  220.1790 C   0  0  1  0  0  0  0  0  0  0  0  0
  141.7510   76.2340  219.5840 C   0  0  0  0  0  0  0  0  0  0  0  0
  142.3400   75.3730  220.4710 O   0  0  0  0  0  0  0  0  0  0  0  0
  143.3710   74.5200  220.4690 C   0  0  0  0  0  0  0  0  0  0  0  0
  144.7150   74.8080  220.4280 C   0  0  0  0  0  0  0  0  0  0  0  0
  145.7020   73.8360  220.4330 C   0  0  0  0  0  0  0  0  0  0  0  0
  145.3670   72.5030  220.4800 C   0  0  0  0  0  0  0  0  0  0  0  0
  144.0290   72.1800  220.5210 C   0  0  0  0  0  0  0  0  0  0  0  0
  143.0640   73.1440  220.5150 C   0  0  0  0  0  0  0  0  0  0  0  0
  140.0290   71.4110  223.4620 C   0  0  0  0  0  0  0  0  0  0  0  0
  139.5680   70.1120  223.3970 C   0  0  0  0  0  0  0  0  0  0  0  0
  139.5650   69.2720  224.4920 C   0  0  0  0  0  0  0  0  0  0  0  0
  140.0560   69.7970  225.6830 C   0  0  0  0  0  0  0  0  0  0  0  0
  140.0920   69.0280  226.8320 C   0  0  0  0  0  0  0  0  0  0  0  0
  140.5690   69.5160  228.0200 C   0  0  0  0  0  0  0  0  0  0  0  0
  141.0290   70.8190  228.0730 C   0  0  0  0  0  0  0  0  0  0  0  0
  140.9950   71.5790  226.9420 C   0  0  0  0  0  0  0  0  0  0  0  0
  140.5150   71.0990  225.7350 C   0  0  0  0  0  0  0  0  0  0  0  0
  140.4930   71.8760  224.6320 N   0  0  0  0  0  0  0  0  0  0  0  0
  139.3670   73.9540  223.3220 H   0  0  0  0  0  0  0  0  0  0  0  0
  140.5095   74.3801  220.6324 H   0  0  0  0  0  0  0  0  0  0  0  0
  138.7100   74.1733  220.5647 H   0  0  0  0  0  0  0  0  0  0  0  0
  138.1136   78.1464  220.1986 H   0  0  0  0  0  0  0  0  0  0  0  0
  138.3059   78.1680  221.9711 H   0  0  0  0  0  0  0  0  0  0  0  0
  139.7401   79.7262  219.8362 H   0  0  0  0  0  0  0  0  0  0  0  0
  139.1092   80.2267  221.4923 H   0  0  0  0  0  0  0  0  0  0  0  0
  141.5724   80.2979  221.1205 H   0  0  0  0  0  0  0  0  0  0  0  0
  140.8850   79.3744  222.5657 H   0  0  0  0  0  0  0  0  0  0  0  0
  142.7665   78.5025  220.6332 H   0  0  0  0  0  0  0  0  0  0  0  0
  142.0888   77.6340  222.0337 H   0  0  0  0  0  0  0  0  0  0  0  0
  140.6981   77.8605  219.2520 H   0  0  0  0  0  0  0  0  0  0  0  0
  141.0597   75.6519  218.9569 H   0  0  0  0  0  0  0  0  0  0  0  0
  142.5769   76.6994  219.0260 H   0  0  0  0  0  0  0  0  0  0  0  0
  145.0219   75.8636  220.3893 H   0  0  0  0  0  0  0  0  0  0  0  0
  146.7608   74.1324  220.3992 H   0  0  0  0  0  0  0  0  0  0  0  0
  146.1413   71.7217  220.4847 H   0  0  0  0  0  0  0  0  0  0  0  0
  143.7320   71.1216  220.5594 H   0  0  0  0  0  0  0  0  0  0  0  0
  142.0081   72.8373  220.5472 H   0  0  0  0  0  0  0  0  0  0  0  0
  139.1889   69.7320  222.4369 H   0  0  0  0  0  0  0  0  0  0  0  0
  139.1929   68.2389  224.4263 H   0  0  0  0  0  0  0  0  0  0  0  0
  139.7260   67.9915  226.7907 H   0  0  0  0  0  0  0  0  0  0  0  0
  140.5858   68.8810  228.9180 H   0  0  0  0  0  0  0  0  0  0  0  0
  141.4167   71.2361  229.0141 H   0  0  0  0  0  0  0  0  0  0  0  0
  141.3633   72.6144  226.9899 H   0  0  0  0  0  0  0  0  0  0  0  0
  1  2  2  0
  2  3  1  0
  3  4  1  0
  4  5  1  0
  5  6  2  0
  5  7  1  0
  7  8  1  0
  8  9  1  0
  9 10  1  0
 10 11  1  0
 11 12  1  0
 12 13  1  0
 13 14  1  0
 14 15  1  0
 15 16  2  0
 16 17  1  0
 17 18  2  0
 18 19  1  0
 19 20  2  0
  2 21  1  0
 21 22  2  0
 22 23  1  0
 23 24  2  0
 24 25  1  0
 25 26  2  0
 26 27  1  0
 27 28  2  0
 28 29  1  0
 29 30  2  0
 12  7  1  0
 20 15  1  0
 30 21  1  0
 29 24  1  0
  3 31  1  0
  4 32  1  0
  4 33  1  0
  8 34  1  0
  8 35  1  0
  9 36  1  0
  9 37  1  0
 10 38  1  0
 10 39  1  0
 11 40  1  0
 11 41  1  0
 12 42  1  6
 13 43  1  0
 13 44  1  0
 16 45  1  0
 17 46  1  0
 18 47  1  0
 19 48  1  0
 20 49  1  0
 22 50  1  0
 23 51  1  0
 25 52  1  0
 26 53  1  0
 27 54  1  0
 28 55  1  0
M  END
>  <smiles>  (32) 
O=C(NCC(=O)N1CCCC[C@H]1COc1ccccc1)c1ccc2ccccc2n1

>  <score_type>  (32) 
oracle

>  <origin>  (32) 
autodockgpu

>  <m_score__min__energy>  (32) 
-9.1300000000000008

>  <m_primary>  (32) 
energy

>  <rmsd>  (32) 
2.348662553728292

>  <m_score__min__rmsd>  (32) 
2.348662553728292

>  <meeko>  (32) 
{"free_energy": -8.0, "intermolecular_energy": -10.09, "internal_energy": -2.31, "cluster_size": 13, "cluster_id": 4, "rank_in_cluster": 6}

>  <energy>  (32) 
-8.0

>  <cluster_rmsd>  (32) 
0.93

>  <cluster>  (32) 
1

$$$$

     RDKit          3D

 55 58  0  0  0  0  0  0  0  0999 V2000
  139.6470   70.5850  221.5410 O   0  0  0  0  0  0  0  0  0  0  0  0
  139.5610   71.4160  222.4950 C   0  0  0  0  0  0  0  0  0  0  0  0
  139.0940   72.7560  222.2920 N   0  0  0  0  0  0  0  0  0  0  0  0
  138.6990   73.2070  220.9590 C   0  0  0  0  0  0  0  0  0  0  0  0
  139.8040   73.8650  220.2620 C   0  0  0  0  0  0  0  0  0  0  0  0
  139.5950   74.0790  218.9980 O   0  0  0  0  0  0  0  0  0  0  0  0
  141.0380   74.2960  220.7340 N   0  0  0  0  0  0  0  0  0  0  0  0
  142.1330   73.2750  220.6300 C   0  0  0  0  0  0  0  0  0  0  0  0
  143.4440   74.0180  220.5350 C   0  0  0  0  0  0  0  0  0  0  0  0
  143.3860   75.3220  219.8250 C   0  0  0  0  0  0  0  0  0  0  0  0
  142.2480   76.2250  220.1970 C   0  0  0  0  0  0  0  0  0  0  0  0
  141.4570   75.5350  221.3060 C   0  0  1  0  0  0  0  0  0  0  0  0
  140.4420   76.4070  221.9190 C   0  0  0  0  0  0  0  0  0  0  0  0
  140.8860   77.2200  222.9270 O   0  0  0  0  0  0  0  0  0  0  0  0
  141.0910   78.5300  223.1090 C   0  0  0  0  0  0  0  0  0  0  0  0
  140.1680   79.5010  223.4200 C   0  0  0  0  0  0  0  0  0  0  0  0
  140.4970   80.8360  223.5900 C   0  0  0  0  0  0  0  0  0  0  0  0
  141.7990   81.2570  223.4490 C   0  0  0  0  0  0  0  0  0  0  0  0
  142.7470   80.3090  223.1360 C   0  0  0  0  0  0  0  0  0  0  0  0
  142.4150   78.9970  222.9710 C   0  0  0  0  0  0  0  0  0  0  0  0
  139.9520   71.0020  223.8590 C   0  0  0  0  0  0  0  0  0  0  0  0
  140.6990   71.8650  224.6330 C   0  0  0  0  0  0  0  0  0  0  0  0
  141.1020   71.5500  225.9150 C   0  0  0  0  0  0  0  0  0  0  0  0
  140.7170   70.3060  226.4030 C   0  0  0  0  0  0  0  0  0  0  0  0
  141.0750   69.9040  227.6770 C   0  0  0  0  0  0  0  0  0  0  0  0
  140.7120   68.6860  228.1850 C   0  0  0  0  0  0  0  0  0  0  0  0
  139.9630   67.8280  227.4000 C   0  0  0  0  0  0  0  0  0  0  0  0
  139.6080   68.2210  226.1430 C   0  0  0  0  0  0  0  0  0  0  0  0
  139.9690   69.4500  225.6170 C   0  0  0  0  0  0  0  0  0  0  0  0
  139.6040   69.8110  224.3700 N   0  0  0  0  0  0  0  0  0  0  0  0
  139.0570   73.3690  223.1350 H   0  0  0  0  0  0  0  0  0  0  0  0
  138.3735   72.3369  220.3700 H   0  0  0  0  0  0  0  0  0  0  0  0
  137.8818   73.9347  221.0709 H   0  0  0  0  0  0  0  0  0  0  0  0
  142.1309   72.6309  221.5217 H   0  0  0  0  0  0  0  0  0  0  0  0
  141.9848   72.6391  219.7447 H   0  0  0  0  0  0  0  0  0  0  0  0
  143.8039   74.2038  221.5577 H   0  0  0  0  0  0  0  0  0  0  0  0
  144.1133   73.3783  219.9410 H   0  0  0  0  0  0  0  0  0  0  0  0
  144.3232   75.8595  220.0320 H   0  0  0  0  0  0  0  0  0  0  0  0
  143.2326   75.0746  218.7642 H   0  0  0  0  0  0  0  0  0  0  0  0
  142.6361   77.1893  220.5569 H   0  0  0  0  0  0  0  0  0  0  0  0
  141.6053   76.4170  219.3252 H   0  0  0  0  0  0  0  0  0  0  0  0
  142.0469   75.3113  222.2071 H   0  0  0  0  0  0  0  0  0  0  0  0
  140.0247   77.0473  221.1279 H   0  0  0  0  0  0  0  0  0  0  0  0
  139.7073   75.7314  222.3814 H   0  0  0  0  0  0  0  0  0  0  0  0
  139.1160   79.2027  223.5397 H   0  0  0  0  0  0  0  0  0  0  0  0
  139.7115   81.5645  223.8395 H   0  0  0  0  0  0  0  0  0  0  0  0
  142.0731   82.3140  223.5817 H   0  0  0  0  0  0  0  0  0  0  0  0
  143.7962   80.6171  223.0163 H   0  0  0  0  0  0  0  0  0  0  0  0
  143.2080   78.2767  222.7213 H   0  0  0  0  0  0  0  0  0  0  0  0
  140.9843   72.8408  224.2130 H   0  0  0  0  0  0  0  0  0  0  0  0
  141.6982   72.2484  226.5207 H   0  0  0  0  0  0  0  0  0  0  0  0
  141.6708   70.5852  228.3023 H   0  0  0  0  0  0  0  0  0  0  0  0
  141.0114   68.3938  229.2023 H   0  0  0  0  0  0  0  0  0  0  0  0
  139.6581   66.8432  227.7838 H   0  0  0  0  0  0  0  0  0  0  0  0
  139.0119   67.5351  225.5232 H   0  0  0  0  0  0  0  0  0  0  0  0
  1  2  2  0
  2  3  1  0
  3  4  1  0
  4  5  1  0
  5  6  2  0
  5  7  1  0
  7  8  1  0
  8  9  1  0
  9 10  1  0
 10 11  1  0
 11 12  1  0
 12 13  1  0
 13 14  1  0
 14 15  1  0
 15 16  2  0
 16 17  1  0
 17 18  2  0
 18 19  1  0
 19 20  2  0
  2 21  1  0
 21 22  2  0
 22 23  1  0
 23 24  2  0
 24 25  1  0
 25 26  2  0
 26 27  1  0
 27 28  2  0
 28 29  1  0
 29 30  2  0
 12  7  1  0
 20 15  1  0
 30 21  1  0
 29 24  1  0
  3 31  1  0
  4 32  1  0
  4 33  1  0
  8 34  1  0
  8 35  1  0
  9 36  1  0
  9 37  1  0
 10 38  1  0
 10 39  1  0
 11 40  1  0
 11 41  1  0
 12 42  1  1
 13 43  1  0
 13 44  1  0
 16 45  1  0
 17 46  1  0
 18 47  1  0
 19 48  1  0
 20 49  1  0
 22 50  1  0
 23 51  1  0
 25 52  1  0
 26 53  1  0
 27 54  1  0
 28 55  1  0
M  END
>  <smiles>  (33) 
O=C(NCC(=O)N1CCCC[C@H]1COc1ccccc1)c1ccc2ccccc2n1

>  <score_type>  (33) 
oracle

>  <origin>  (33) 
autodockgpu

>  <m_score__min__energy>  (33) 
-9.1300000000000008

>  <m_primary>  (33) 
energy

>  <rmsd>  (33) 
3.2563703415671834

>  <m_score__min__rmsd>  (33) 
3.2563703415671834

>  <meeko>  (33) 
{"free_energy": -8.83, "intermolecular_energy": -10.91, "internal_energy": -1.55, "cluster_size": 32, "cluster_id": 1, "rank_in_cluster": 9}

>  <energy>  (33) 
-8.49

>  <cluster_rmsd>  (33) 
0.0

>  <cluster>  (33) 
2

$$$$

     RDKit          3D

 55 58  0  0  0  0  0  0  0  0999 V2000
  139.4750   71.0440  221.2970 O   0  0  0  0  0  0  0  0  0  0  0  0
  139.5540   71.7910  222.3180 C   0  0  0  0  0  0  0  0  0  0  0  0
  139.3960   73.2140  222.2280 N   0  0  0  0  0  0  0  0  0  0  0  0
  139.1370   73.8490  220.9380 C   0  0  0  0  0  0  0  0  0  0  0  0
  140.3800   74.2010  220.2500 C   0  0  0  0  0  0  0  0  0  0  0  0
  140.6580   73.4560  219.2230 O   0  0  0  0  0  0  0  0  0  0  0  0
  141.3070   75.1990  220.5200 N   0  0  0  0  0  0  0  0  0  0  0  0
  142.6570   74.9750  219.9030 C   0  0  0  0  0  0  0  0  0  0  0  0
  143.2990   76.3280  219.7050 C   0  0  0  0  0  0  0  0  0  0  0  0
  142.3620   77.4380  219.3950 C   0  0  0  0  0  0  0  0  0  0  0  0
  141.1270   77.5160  220.2420 C   0  0  0  0  0  0  0  0  0  0  0  0
  141.2150   76.4020  221.2840 C   0  0  1  0  0  0  0  0  0  0  0  0
  140.1740   76.5000  222.3200 C   0  0  0  0  0  0  0  0  0  0  0  0
  139.9110   77.7610  222.7820 O   0  0  0  0  0  0  0  0  0  0  0  0
  140.5900   78.9030  222.9510 C   0  0  0  0  0  0  0  0  0  0  0  0
  140.2340   80.1710  222.5580 C   0  0  0  0  0  0  0  0  0  0  0  0
  141.0200   81.2880  222.7900 C   0  0  0  0  0  0  0  0  0  0  0  0
  142.2250   81.1690  223.4420 C   0  0  0  0  0  0  0  0  0  0  0  0
  142.6110   79.9120  223.8490 C   0  0  0  0  0  0  0  0  0  0  0  0
  141.8310   78.8180  223.6160 C   0  0  0  0  0  0  0  0  0  0  0  0
  139.8160   71.1900  223.6430 C   0  0  0  0  0  0  0  0  0  0  0  0
  139.5280   69.8570  223.8430 C   0  0  0  0  0  0  0  0  0  0  0  0
  139.7440   69.2260  225.0510 C   0  0  0  0  0  0  0  0  0  0  0  0
  140.2740   70.0030  226.0750 C   0  0  0  0  0  0  0  0  0  0  0  0
  140.5250   69.4560  227.3210 C   0  0  0  0  0  0  0  0  0  0  0  0
  141.0450   70.1950  228.3490 C   0  0  0  0  0  0  0  0  0  0  0  0
  141.3300   71.5320  228.1370 C   0  0  0  0  0  0  0  0  0  0  0  0
  141.0850   72.0740  226.9100 C   0  0  0  0  0  0  0  0  0  0  0  0
  140.5580   71.3380  225.8620 C   0  0  0  0  0  0  0  0  0  0  0  0
  140.3250   71.9030  224.6590 N   0  0  0  0  0  0  0  0  0  0  0  0
  139.4760   73.7480  223.1200 H   0  0  0  0  0  0  0  0  0  0  0  0
  138.5644   73.1536  220.3067 H   0  0  0  0  0  0  0  0  0  0  0  0
  138.5703   74.7744  221.1183 H   0  0  0  0  0  0  0  0  0  0  0  0
  143.2774   74.3597  220.5712 H   0  0  0  0  0  0  0  0  0  0  0  0
  142.5599   74.4491  218.9417 H   0  0  0  0  0  0  0  0  0  0  0  0
  143.8378   76.5865  220.6285 H   0  0  0  0  0  0  0  0  0  0  0  0
  143.9522   76.2280  218.8256 H   0  0  0  0  0  0  0  0  0  0  0  0
  142.9109   78.3839  219.5135 H   0  0  0  0  0  0  0  0  0  0  0  0
  142.0064   77.2469  218.3718 H   0  0  0  0  0  0  0  0  0  0  0  0
  141.0752   78.4946  220.7416 H   0  0  0  0  0  0  0  0  0  0  0  0
  140.2247   77.3986  219.6239 H   0  0  0  0  0  0  0  0  0  0  0  0
  142.1011   76.4611  221.9331 H   0  0  0  0  0  0  0  0  0  0  0  0
  139.2419   76.0925  221.9016 H   0  0  0  0  0  0  0  0  0  0  0  0
  140.5588   75.9391  223.1845 H   0  0  0  0  0  0  0  0  0  0  0  0
  139.2769   80.3057  222.0329 H   0  0  0  0  0  0  0  0  0  0  0  0
  140.6780   82.2768  222.4504 H   0  0  0  0  0  0  0  0  0  0  0  0
  142.8585   82.0480  223.6317 H   0  0  0  0  0  0  0  0  0  0  0  0
  143.5697   79.7872  224.3737 H   0  0  0  0  0  0  0  0  0  0  0  0
  142.1823   77.8337  223.9590 H   0  0  0  0  0  0  0  0  0  0  0  0
  139.1104   69.2745  223.0085 H   0  0  0  0  0  0  0  0  0  0  0  0
  139.5086   68.1614  225.1966 H   0  0  0  0  0  0  0  0  0  0  0  0
  140.2993   68.3929  227.4908 H   0  0  0  0  0  0  0  0  0  0  0  0
  141.2335   69.7327  229.3292 H   0  0  0  0  0  0  0  0  0  0  0  0
  141.7481   72.1487  228.9462 H   0  0  0  0  0  0  0  0  0  0  0  0
  141.3149   73.1372  226.7463 H   0  0  0  0  0  0  0  0  0  0  0  0
  1  2  2  0
  2  3  1  0
  3  4  1  0
  4  5  1  0
  5  6  2  0
  5  7  1  0
  7  8  1  0
  8  9  1  0
  9 10  1  0
 10 11  1  0
 11 12  1  0
 12 13  1  0
 13 14  1  0
 14 15  1  0
 15 16  2  0
 16 17  1  0
 17 18  2  0
 18 19  1  0
 19 20  2  0
  2 21  1  0
 21 22  2  0
 22 23  1  0
 23 24  2  0
 24 25  1  0
 25 26  2  0
 26 27  1  0
 27 28  2  0
 28 29  1  0
 29 30  2  0
 12  7  1  0
 20 15  1  0
 30 21  1  0
 29 24  1  0
  3 31  1  0
  4 32  1  0
  4 33  1  0
  8 34  1  0
  8 35  1  0
  9 36  1  0
  9 37  1  0
 10 38  1  0
 10 39  1  0
 11 40  1  0
 11 41  1  0
 12 42  1  1
 13 43  1  0
 13 44  1  0
 16 45  1  0
 17 46  1  0
 18 47  1  0
 19 48  1  0
 20 49  1  0
 22 50  1  0
 23 51  1  0
 25 52  1  0
 26 53  1  0
 27 54  1  0
 28 55  1  0
M  END
>  <smiles>  (34) 
O=C(NCC(=O)N1CCCC[C@H]1COc1ccccc1)c1ccc2ccccc2n1

>  <score_type>  (34) 
oracle

>  <origin>  (34) 
autodockgpu

>  <m_score__min__energy>  (34) 
-9.1300000000000008

>  <m_primary>  (34) 
energy

>  <rmsd>  (34) 
2.410646692509881

>  <m_score__min__rmsd>  (34) 
2.410646692509881

>  <meeko>  (34) 
{"free_energy": -8.82, "intermolecular_energy": -10.91, "internal_energy": -1.66, "cluster_size": 32, "cluster_id": 1, "rank_in_cluster": 10}

>  <energy>  (34) 
-8.28

>  <cluster_rmsd>  (34) 
0.0

>  <cluster>  (34) 
3

$$$$

     RDKit          3D

 55 58  0  0  0  0  0  0  0  0999 V2000
  141.3280   72.0540  221.8410 O   0  0  0  0  0  0  0  0  0  0  0  0
  140.3160   72.1540  222.5970 C   0  0  0  0  0  0  0  0  0  0  0  0
  139.2930   73.1320  222.3660 N   0  0  0  0  0  0  0  0  0  0  0  0
  139.3920   74.0530  221.2360 C   0  0  0  0  0  0  0  0  0  0  0  0
  139.3710   75.4500  221.6730 C   0  0  0  0  0  0  0  0  0  0  0  0
  140.4210   75.8220  222.3430 O   0  0  0  0  0  0  0  0  0  0  0  0
  138.4120   76.4370  221.4890 N   0  0  0  0  0  0  0  0  0  0  0  0
  137.0140   76.0170  221.8390 C   0  0  0  0  0  0  0  0  0  0  0  0
  136.2460   77.2590  222.2240 C   0  0  0  0  0  0  0  0  0  0  0  0
  137.0430   78.3170  222.8970 C   0  0  0  0  0  0  0  0  0  0  0  0
  138.3700   78.6400  222.2770 C   0  0  0  0  0  0  0  0  0  0  0  0
  138.5100   77.7830  221.0210 C   0  0  1  0  0  0  0  0  0  0  0  0
  139.6680   78.1580  220.1930 C   0  0  0  0  0  0  0  0  0  0  0  0
  140.8720   78.2070  220.8430 O   0  0  0  0  0  0  0  0  0  0  0  0
  141.3980   78.8730  221.8780 C   0  0  0  0  0  0  0  0  0  0  0  0
  141.4410   78.4970  223.1990 C   0  0  0  0  0  0  0  0  0  0  0  0
  142.0190   79.2710  224.1930 C   0  0  0  0  0  0  0  0  0  0  0  0
  142.5900   80.4840  223.8870 C   0  0  0  0  0  0  0  0  0  0  0  0
  142.5630   80.8910  222.5720 C   0  0  0  0  0  0  0  0  0  0  0  0
  141.9920   80.1230  221.6010 C   0  0  0  0  0  0  0  0  0  0  0  0
  140.1760   71.2440  223.7530 C   0  0  0  0  0  0  0  0  0  0  0  0
  139.5090   70.0480  223.5880 C   0  0  0  0  0  0  0  0  0  0  0  0
  139.3370   69.1470  224.6190 C   0  0  0  0  0  0  0  0  0  0  0  0
  139.8740   69.5000  225.8530 C   0  0  0  0  0  0  0  0  0  0  0  0
  139.7510   68.6600  226.9440 C   0  0  0  0  0  0  0  0  0  0  0  0
  140.2670   68.9790  228.1710 C   0  0  0  0  0  0  0  0  0  0  0  0
  140.9340   70.1820  228.3260 C   0  0  0  0  0  0  0  0  0  0  0  0
  141.0570   71.0120  227.2510 C   0  0  0  0  0  0  0  0  0  0  0  0
  140.5390   70.7020  226.0060 C   0  0  0  0  0  0  0  0  0  0  0  0
  140.6770   71.5450  224.9620 N   0  0  0  0  0  0  0  0  0  0  0  0
  138.4970   73.1410  223.0390 H   0  0  0  0  0  0  0  0  0  0  0  0
  140.3337   73.8609  220.7009 H   0  0  0  0  0  0  0  0  0  0  0  0
  138.5249   73.8857  220.5801 H   0  0  0  0  0  0  0  0  0  0  0  0
  136.5387   75.5361  220.9714 H   0  0  0  0  0  0  0  0  0  0  0  0
  137.0242   75.2964  222.6700 H   0  0  0  0  0  0  0  0  0  0  0  0
  135.8152   77.6894  221.3080 H   0  0  0  0  0  0  0  0  0  0  0  0
  135.4921   76.9348  222.9565 H   0  0  0  0  0  0  0  0  0  0  0  0
  136.4417   79.2381  222.9024 H   0  0  0  0  0  0  0  0  0  0  0  0
  137.2733   77.9215  223.8973 H   0  0  0  0  0  0  0  0  0  0  0  0
  138.4105   79.7065  222.0105 H   0  0  0  0  0  0  0  0  0  0  0  0
  139.1883   78.4313  222.9819 H   0  0  0  0  0  0  0  0  0  0  0  0
  137.7164   77.9431  220.2763 H   0  0  0  0  0  0  0  0  0  0  0  0
  139.7533   77.4233  219.3787 H   0  0  0  0  0  0  0  0  0  0  0  0
  139.4710   79.1842  219.8493 H   0  0  0  0  0  0  0  0  0  0  0  0
  140.9939   77.5326  223.4820 H   0  0  0  0  0  0  0  0  0  0  0  0
  142.0210   78.9128  225.2330 H   0  0  0  0  0  0  0  0  0  0  0  0
  143.0525   81.1077  224.6661 H   0  0  0  0  0  0  0  0  0  0  0  0
  143.0121   81.8573  222.2988 H   0  0  0  0  0  0  0  0  0  0  0  0
  141.9943   80.4908  220.5643 H   0  0  0  0  0  0  0  0  0  0  0  0
  139.0987   69.8031  222.5972 H   0  0  0  0  0  0  0  0  0  0  0  0
  138.8020   68.1971  224.4725 H   0  0  0  0  0  0  0  0  0  0  0  0
  139.2211   67.7038  226.8221 H   0  0  0  0  0  0  0  0  0  0  0  0
  140.1534   68.2899  229.0209 H   0  0  0  0  0  0  0  0  0  0  0  0
  141.3582   70.4640  229.3010 H   0  0  0  0  0  0  0  0  0  0  0  0
  141.5893   71.9661  227.3788 H   0  0  0  0  0  0  0  0  0  0  0  0
  1  2  2  0
  2  3  1  0
  3  4  1  0
  4  5  1  0
  5  6  2  0
  5  7  1  0
  7  8  1  0
  8  9  1  0
  9 10  1  0
 10 11  1  0
 11 12  1  0
 12 13  1  0
 13 14  1  0
 14 15  1  0
 15 16  2  0
 16 17  1  0
 17 18  2  0
 18 19  1  0
 19 20  2  0
  2 21  1  0
 21 22  2  0
 22 23  1  0
 23 24  2  0
 24 25  1  0
 25 26  2  0
 26 27  1  0
 27 28  2  0
 28 29  1  0
 29 30  2  0
 12  7  1  0
 20 15  1  0
 30 21  1  0
 29 24  1  0
  3 31  1  0
  4 32  1  0
  4 33  1  0
  8 34  1  0
  8 35  1  0
  9 36  1  0
  9 37  1  0
 10 38  1  0
 10 39  1  0
 11 40  1  0
 11 41  1  0
 12 42  1  6
 13 43  1  0
 13 44  1  0
 16 45  1  0
 17 46  1  0
 18 47  1  0
 19 48  1  0
 20 49  1  0
 22 50  1  0
 23 51  1  0
 25 52  1  0
 26 53  1  0
 27 54  1  0
 28 55  1  0
M  END
>  <smiles>  (35) 
O=C(NCC(=O)N1CCCC[C@H]1COc1ccccc1)c1ccc2ccccc2n1

>  <score_type>  (35) 
oracle

>  <origin>  (35) 
autodockgpu

>  <m_score__min__energy>  (35) 
-9.1300000000000008

>  <m_primary>  (35) 
energy

>  <rmsd>  (35) 
2.8004543839403695

>  <m_score__min__rmsd>  (35) 
2.8004543839403695

>  <meeko>  (35) 
{"free_energy": -8.49, "intermolecular_energy": -10.58, "internal_energy": -1.46, "cluster_size": 32, "cluster_id": 1, "rank_in_cluster": 25}

>  <energy>  (35) 
-8.1

>  <cluster_rmsd>  (35) 
0.87

>  <cluster>  (35) 
3

$$$$

     RDKit          3D

 55 58  0  0  0  0  0  0  0  0999 V2000
  140.2130   70.9530  221.2870 O   0  0  0  0  0  0  0  0  0  0  0  0
  139.9690   71.6020  222.3480 C   0  0  0  0  0  0  0  0  0  0  0  0
  139.7400   73.0180  222.3320 N   0  0  0  0  0  0  0  0  0  0  0  0
  139.7840   73.7600  221.0730 C   0  0  0  0  0  0  0  0  0  0  0  0
  140.4010   75.0760  221.2440 C   0  0  0  0  0  0  0  0  0  0  0  0
  140.0850   75.6820  222.3490 O   0  0  0  0  0  0  0  0  0  0  0  0
  141.2670   75.7790  220.4160 N   0  0  0  0  0  0  0  0  0  0  0  0
  142.6880   75.2980  220.4520 C   0  0  0  0  0  0  0  0  0  0  0  0
  143.3230   75.6480  219.1270 C   0  0  0  0  0  0  0  0  0  0  0  0
  142.4100   75.6120  217.9550 C   0  0  0  0  0  0  0  0  0  0  0  0
  141.0770   76.2740  218.1360 C   0  0  0  0  0  0  0  0  0  0  0  0
  141.0540   76.8840  219.5360 C   0  0  1  0  0  0  0  0  0  0  0  0
  139.8890   77.7540  219.7670 C   0  0  0  0  0  0  0  0  0  0  0  0
  140.1110   78.8490  220.5570 O   0  0  0  0  0  0  0  0  0  0  0  0
  140.8650   79.1510  221.6210 C   0  0  0  0  0  0  0  0  0  0  0  0
  140.9070   78.5200  222.8420 C   0  0  0  0  0  0  0  0  0  0  0  0
  141.7360   78.9210  223.8780 C   0  0  0  0  0  0  0  0  0  0  0  0
  142.5740   80.0000  223.7210 C   0  0  0  0  0  0  0  0  0  0  0  0
  142.5560   80.6550  222.5100 C   0  0  0  0  0  0  0  0  0  0  0  0
  141.7370   80.2540  221.4960 C   0  0  0  0  0  0  0  0  0  0  0  0
  139.9170   70.8920  223.6420 C   0  0  0  0  0  0  0  0  0  0  0  0
  139.3770   69.6240  223.6900 C   0  0  0  0  0  0  0  0  0  0  0  0
  139.2930   68.8990  224.8610 C   0  0  0  0  0  0  0  0  0  0  0  0
  139.7840   69.5090  226.0110 C   0  0  0  0  0  0  0  0  0  0  0  0
  139.7420   68.8570  227.2300 C   0  0  0  0  0  0  0  0  0  0  0  0
  140.2170   69.4320  228.3790 C   0  0  0  0  0  0  0  0  0  0  0  0
  140.7570   70.7040  228.3190 C   0  0  0  0  0  0  0  0  0  0  0  0
  140.8000   71.3480  227.1180 C   0  0  0  0  0  0  0  0  0  0  0  0
  140.3230   70.7800  225.9500 C   0  0  0  0  0  0  0  0  0  0  0  0
  140.3780   71.4430  224.7760 N   0  0  0  0  0  0  0  0  0  0  0  0
  139.5470   73.4680  223.2520 H   0  0  0  0  0  0  0  0  0  0  0  0
  140.3681   73.1845  220.3398 H   0  0  0  0  0  0  0  0  0  0  0  0
  138.7511   73.9072  220.7243 H   0  0  0  0  0  0  0  0  0  0  0  0
  143.2309   75.7933  221.2705 H   0  0  0  0  0  0  0  0  0  0  0  0
  142.7237   74.2118  220.6223 H   0  0  0  0  0  0  0  0  0  0  0  0
  143.7347   76.6650  219.2058 H   0  0  0  0  0  0  0  0  0  0  0  0
  144.0851   74.8766  218.9422 H   0  0  0  0  0  0  0  0  0  0  0  0
  142.9203   76.1080  217.1162 H   0  0  0  0  0  0  0  0  0  0  0  0
  142.1903   74.5477  217.7845 H   0  0  0  0  0  0  0  0  0  0  0  0
  140.9434   77.0623  217.3806 H   0  0  0  0  0  0  0  0  0  0  0  0
  140.2626   75.5441  218.0179 H   0  0  0  0  0  0  0  0  0  0  0  0
  141.8492   77.6219  219.7182 H   0  0  0  0  0  0  0  0  0  0  0  0
  139.5343   78.1101  218.7885 H   0  0  0  0  0  0  0  0  0  0  0  0
  139.1582   77.1368  220.3102 H   0  0  0  0  0  0  0  0  0  0  0  0
  140.2495   77.6533  223.0048 H   0  0  0  0  0  0  0  0  0  0  0  0
  141.7235   78.3728  224.8316 H   0  0  0  0  0  0  0  0  0  0  0  0
  143.2364   80.3287  224.5354 H   0  0  0  0  0  0  0  0  0  0  0  0
  143.2169   81.5209  222.3570 H   0  0  0  0  0  0  0  0  0  0  0  0
  141.7566   80.8098  220.5470 H   0  0  0  0  0  0  0  0  0  0  0  0
  138.9992   69.1738  222.7602 H   0  0  0  0  0  0  0  0  0  0  0  0
  138.8592   67.8884  224.8841 H   0  0  0  0  0  0  0  0  0  0  0  0
  139.3137   67.8449  227.2784 H   0  0  0  0  0  0  0  0  0  0  0  0
  140.1697   68.8902  229.3352 H   0  0  0  0  0  0  0  0  0  0  0  0
  141.1459   71.1887  229.2266 H   0  0  0  0  0  0  0  0  0  0  0  0
  141.2310   72.3592  227.0760 H   0  0  0  0  0  0  0  0  0  0  0  0
  1  2  2  0
  2  3  1  0
  3  4  1  0
  4  5  1  0
  5  6  2  0
  5  7  1  0
  7  8  1  0
  8  9  1  0
  9 10  1  0
 10 11  1  0
 11 12  1  0
 12 13  1  0
 13 14  1  0
 14 15  1  0
 15 16  2  0
 16 17  1  0
 17 18  2  0
 18 19  1  0
 19 20  2  0
  2 21  1  0
 21 22  2  0
 22 23  1  0
 23 24  2  0
 24 25  1  0
 25 26  2  0
 26 27  1  0
 27 28  2  0
 28 29  1  0
 29 30  2  0
 12  7  1  0
 20 15  1  0
 30 21  1  0
 29 24  1  0
  3 31  1  0
  4 32  1  0
  4 33  1  0
  8 34  1  0
  8 35  1  0
  9 36  1  0
  9 37  1  0
 10 38  1  0
 10 39  1  0
 11 40  1  0
 11 41  1  0
 12 42  1  6
 13 43  1  0
 13 44  1  0
 16 45  1  0
 17 46  1  0
 18 47  1  0
 19 48  1  0
 20 49  1  0
 22 50  1  0
 23 51  1  0
 25 52  1  0
 26 53  1  0
 27 54  1  0
 28 55  1  0
M  END
>  <smiles>  (36) 
O=C(NCC(=O)N1CCCC[C@H]1COc1ccccc1)c1ccc2ccccc2n1

>  <score_type>  (36) 
oracle

>  <origin>  (36) 
autodockgpu

>  <m_score__min__energy>  (36) 
-9.1300000000000008

>  <m_primary>  (36) 
energy

>  <rmsd>  (36) 
2.0266344030171233

>  <m_score__min__rmsd>  (36) 
2.0266344030171233

>  <meeko>  (36) 
{"free_energy": -8.51, "intermolecular_energy": -10.6, "internal_energy": -2.09, "cluster_size": 32, "cluster_id": 1, "rank_in_cluster": 23}

>  <energy>  (36) 
-8.28

>  <cluster_rmsd>  (36) 
0.0

>  <cluster>  (36) 
4

$$$$

     RDKit          3D

 55 58  0  0  0  0  0  0  0  0999 V2000
  140.9120   71.3250  221.3590 O   0  0  0  0  0  0  0  0  0  0  0  0
  140.3910   71.9450  222.3340 C   0  0  0  0  0  0  0  0  0  0  0  0
  139.9830   73.3160  222.2270 N   0  0  0  0  0  0  0  0  0  0  0  0
  140.1590   74.0440  220.9720 C   0  0  0  0  0  0  0  0  0  0  0  0
  141.1450   75.1180  221.1050 C   0  0  0  0  0  0  0  0  0  0  0  0
  141.1680   75.6890  222.2710 O   0  0  0  0  0  0  0  0  0  0  0  0
  142.0570   75.6220  220.1860 N   0  0  0  0  0  0  0  0  0  0  0  0
  143.1810   74.6870  219.8500 C   0  0  0  0  0  0  0  0  0  0  0  0
  143.6670   75.0350  218.4630 C   0  0  0  0  0  0  0  0  0  0  0  0
  142.6230   75.5290  217.5290 C   0  0  0  0  0  0  0  0  0  0  0  0
  141.6820   76.5610  218.0750 C   0  0  0  0  0  0  0  0  0  0  0  0
  142.1250   76.8750  219.5030 C   0  0  1  0  0  0  0  0  0  0  0  0
  141.4230   78.0320  220.0830 C   0  0  0  0  0  0  0  0  0  0  0  0
  141.7700   78.3550  221.3670 O   0  0  0  0  0  0  0  0  0  0  0  0
  141.8680   79.4690  222.1030 C   0  0  0  0  0  0  0  0  0  0  0  0
  141.4940   80.7480  221.7660 C   0  0  0  0  0  0  0  0  0  0  0  0
  141.6410   81.8330  222.6160 C   0  0  0  0  0  0  0  0  0  0  0  0
  142.1860   81.6680  223.8680 C   0  0  0  0  0  0  0  0  0  0  0  0
  142.5720   80.3990  224.2360 C   0  0  0  0  0  0  0  0  0  0  0  0
  142.4240   79.3370  223.3940 C   0  0  0  0  0  0  0  0  0  0  0  0
  140.1950   71.2480  223.6220 C   0  0  0  0  0  0  0  0  0  0  0  0
  139.5010   70.0570  223.6400 C   0  0  0  0  0  0  0  0  0  0  0  0
  139.2770   69.3480  224.8040 C   0  0  0  0  0  0  0  0  0  0  0  0
  139.7900   69.8930  225.9750 C   0  0  0  0  0  0  0  0  0  0  0  0
  139.6150   69.2530  227.1890 C   0  0  0  0  0  0  0  0  0  0  0  0
  140.1080   69.7650  228.3600 C   0  0  0  0  0  0  0  0  0  0  0  0
  140.8020   70.9610  228.3300 C   0  0  0  0  0  0  0  0  0  0  0  0
  140.9770   71.5940  227.1340 C   0  0  0  0  0  0  0  0  0  0  0  0
  140.4840   71.0880  225.9440 C   0  0  0  0  0  0  0  0  0  0  0  0
  140.6720   71.7380  224.7770 N   0  0  0  0  0  0  0  0  0  0  0  0
  139.5640   73.7450  223.0800 H   0  0  0  0  0  0  0  0  0  0  0  0
  140.4988   73.3416  220.1966 H   0  0  0  0  0  0  0  0  0  0  0  0
  139.1939   74.4953  220.6981 H   0  0  0  0  0  0  0  0  0  0  0  0
  143.9991   74.8083  220.5753 H   0  0  0  0  0  0  0  0  0  0  0  0
  142.8383   73.6424  219.8879 H   0  0  0  0  0  0  0  0  0  0  0  0
  144.4349   75.8168  218.5584 H   0  0  0  0  0  0  0  0  0  0  0  0
  144.0438   74.0971  218.0289 H   0  0  0  0  0  0  0  0  0  0  0  0
  143.1320   75.9664  216.6574 H   0  0  0  0  0  0  0  0  0  0  0  0
  141.9981   74.6542  217.2961 H   0  0  0  0  0  0  0  0  0  0  0  0
  141.7248   77.4717  217.4595 H   0  0  0  0  0  0  0  0  0  0  0  0
  140.6474   76.1876  218.0631 H   0  0  0  0  0  0  0  0  0  0  0  0
  143.1558   77.2506  219.5824 H   0  0  0  0  0  0  0  0  0  0  0  0
  141.6293   78.9057  219.4473 H   0  0  0  0  0  0  0  0  0  0  0  0
  140.3607   77.7491  220.1220 H   0  0  0  0  0  0  0  0  0  0  0  0
  141.0559   80.9192  220.7716 H   0  0  0  0  0  0  0  0  0  0  0  0
  141.3198   82.8323  222.2872 H   0  0  0  0  0  0  0  0  0  0  0  0
  142.3092   82.5208  224.5517 H   0  0  0  0  0  0  0  0  0  0  0  0
  143.0099   80.2381  225.2322 H   0  0  0  0  0  0  0  0  0  0  0  0
  142.7493   78.3422  223.7324 H   0  0  0  0  0  0  0  0  0  0  0  0
  139.1113   69.6566  222.6925 H   0  0  0  0  0  0  0  0  0  0  0  0
  138.7203   68.3993  224.8042 H   0  0  0  0  0  0  0  0  0  0  0  0
  139.0622   68.3024  227.2147 H   0  0  0  0  0  0  0  0  0  0  0  0
  139.9542   69.2327  229.3103 H   0  0  0  0  0  0  0  0  0  0  0  0
  141.2067   71.3952  229.2561 H   0  0  0  0  0  0  0  0  0  0  0  0
  141.5317   72.5437  227.1149 H   0  0  0  0  0  0  0  0  0  0  0  0
  1  2  2  0
  2  3  1  0
  3  4  1  0
  4  5  1  0
  5  6  2  0
  5  7  1  0
  7  8  1  0
  8  9  1  0
  9 10  1  0
 10 11  1  0
 11 12  1  0
 12 13  1  0
 13 14  1  0
 14 15  1  0
 15 16  2  0
 16 17  1  0
 17 18  2  0
 18 19  1  0
 19 20  2  0
  2 21  1  0
 21 22  2  0
 22 23  1  0
 23 24  2  0
 24 25  1  0
 25 26  2  0
 26 27  1  0
 27 28  2  0
 28 29  1  0
 29 30  2  0
 12  7  1  0
 20 15  1  0
 30 21  1  0
 29 24  1  0
  3 31  1  0
  4 32  1  0
  4 33  1  0
  8 34  1  0
  8 35  1  0
  9 36  1  0
  9 37  1  0
 10 38  1  0
 10 39  1  0
 11 40  1  0
 11 41  1  0
 12 42  1  6
 13 43  1  0
 13 44  1  0
 16 45  1  0
 17 46  1  0
 18 47  1  0
 19 48  1  0
 20 49  1  0
 22 50  1  0
 23 51  1  0
 25 52  1  0
 26 53  1  0
 27 54  1  0
 28 55  1  0
M  END
>  <smiles>  (37) 
O=C(NCC(=O)N1CCCC[C@H]1COc1ccccc1)c1ccc2ccccc2n1

>  <score_type>  (37) 
oracle

>  <origin>  (37) 
autodockgpu

>  <m_score__min__energy>  (37) 
-9.1300000000000008

>  <m_primary>  (37) 
energy

>  <rmsd>  (37) 
2.2123552450411923

>  <m_score__min__rmsd>  (37) 
2.2123552450411923

>  <meeko>  (37) 
{"free_energy": -8.79, "intermolecular_energy": -10.88, "internal_energy": -1.58, "cluster_size": 32, "cluster_id": 1, "rank_in_cluster": 11}

>  <energy>  (37) 
-8.19

>  <cluster_rmsd>  (37) 
1.06

>  <cluster>  (37) 
4

$$$$

     RDKit          3D

 55 58  0  0  0  0  0  0  0  0999 V2000
  140.3420   70.9120  221.3030 O   0  0  0  0  0  0  0  0  0  0  0  0
  140.0450   71.5890  222.3330 C   0  0  0  0  0  0  0  0  0  0  0  0
  139.7760   72.9960  222.2620 N   0  0  0  0  0  0  0  0  0  0  0  0
  139.8390   73.6970  220.9820 C   0  0  0  0  0  0  0  0  0  0  0  0
  141.2110   74.0780  220.6410 C   0  0  0  0  0  0  0  0  0  0  0  0
  142.0000   73.0790  220.3800 O   0  0  0  0  0  0  0  0  0  0  0  0
  141.8020   75.3320  220.5540 N   0  0  0  0  0  0  0  0  0  0  0  0
  143.0510   75.3720  219.7240 C   0  0  0  0  0  0  0  0  0  0  0  0
  143.1970   76.7750  219.1840 C   0  0  0  0  0  0  0  0  0  0  0  0
  141.9220   77.4800  218.8920 C   0  0  0  0  0  0  0  0  0  0  0  0
  140.8590   77.3850  219.9450 C   0  0  0  0  0  0  0  0  0  0  0  0
  141.4410   76.5950  221.1150 C   0  0  1  0  0  0  0  0  0  0  0  0
  140.5800   76.6140  222.3090 C   0  0  0  0  0  0  0  0  0  0  0  0
  140.4020   77.8390  222.8930 O   0  0  0  0  0  0  0  0  0  0  0  0
  141.1530   78.9160  223.1580 C   0  0  0  0  0  0  0  0  0  0  0  0
  142.5210   79.0350  223.0990 C   0  0  0  0  0  0  0  0  0  0  0  0
  143.1960   80.2080  223.3940 C   0  0  0  0  0  0  0  0  0  0  0  0
  142.5030   81.3350  223.7710 C   0  0  0  0  0  0  0  0  0  0  0  0
  141.1310   81.2490  223.8420 C   0  0  0  0  0  0  0  0  0  0  0  0
  140.4750   80.0890  223.5490 C   0  0  0  0  0  0  0  0  0  0  0  0
  139.9720   70.9200  223.6490 C   0  0  0  0  0  0  0  0  0  0  0  0
  139.4410   69.6500  223.7270 C   0  0  0  0  0  0  0  0  0  0  0  0
  139.3390   68.9620  224.9200 C   0  0  0  0  0  0  0  0  0  0  0  0
  139.8010   69.6130  226.0580 C   0  0  0  0  0  0  0  0  0  0  0  0
  139.7400   69.0010  227.2970 C   0  0  0  0  0  0  0  0  0  0  0  0
  140.1860   69.6170  228.4360 C   0  0  0  0  0  0  0  0  0  0  0  0
  140.7170   70.8910  228.3460 C   0  0  0  0  0  0  0  0  0  0  0  0
  140.7800   71.4970  227.1250 C   0  0  0  0  0  0  0  0  0  0  0  0
  140.3310   70.8860  225.9670 C   0  0  0  0  0  0  0  0  0  0  0  0
  140.4060   71.5110  224.7740 N   0  0  0  0  0  0  0  0  0  0  0  0
  139.5400   73.4700  223.1600 H   0  0  0  0  0  0  0  0  0  0  0  0
  139.4459   73.0373  220.1944 H   0  0  0  0  0  0  0  0  0  0  0  0
  139.2381   74.6147  221.0633 H   0  0  0  0  0  0  0  0  0  0  0  0
  143.9222   75.1168  220.3451 H   0  0  0  0  0  0  0  0  0  0  0  0
  142.9902   74.6458  218.9000 H   0  0  0  0  0  0  0  0  0  0  0  0
  143.7511   77.3686  219.9261 H   0  0  0  0  0  0  0  0  0  0  0  0
  143.7174   76.6767  218.2199 H   0  0  0  0  0  0  0  0  0  0  0  0
  142.1534   78.5451  218.7433 H   0  0  0  0  0  0  0  0  0  0  0  0
  141.5047   76.9803  218.0053 H   0  0  0  0  0  0  0  0  0  0  0  0
  140.5700   78.3925  220.2789 H   0  0  0  0  0  0  0  0  0  0  0  0
  139.9635   76.8851  219.5474 H   0  0  0  0  0  0  0  0  0  0  0  0
  142.3439   77.0431  221.5554 H   0  0  0  0  0  0  0  0  0  0  0  0
  139.5906   76.2312  222.0183 H   0  0  0  0  0  0  0  0  0  0  0  0
  141.0946   75.9960  223.0595 H   0  0  0  0  0  0  0  0  0  0  0  0
  143.1095   78.1542  222.8025 H   0  0  0  0  0  0  0  0  0  0  0  0
  144.2935   80.2386  223.3264 H   0  0  0  0  0  0  0  0  0  0  0  0
  143.0273   82.2727  224.0076 H   0  0  0  0  0  0  0  0  0  0  0  0
  140.5510   82.1344  224.1414 H   0  0  0  0  0  0  0  0  0  0  0  0
  139.3775   80.0681  223.6204 H   0  0  0  0  0  0  0  0  0  0  0  0
  139.0855   69.1670  222.8049 H   0  0  0  0  0  0  0  0  0  0  0  0
  138.9132   67.9489  224.9674 H   0  0  0  0  0  0  0  0  0  0  0  0
  139.3198   67.9870  227.3698 H   0  0  0  0  0  0  0  0  0  0  0  0
  140.1229   69.1061  229.4081 H   0  0  0  0  0  0  0  0  0  0  0  0
  141.0830   71.4080  229.2453 H   0  0  0  0  0  0  0  0  0  0  0  0
  141.2039   72.5099  227.0585 H   0  0  0  0  0  0  0  0  0  0  0  0
  1  2  2  0
  2  3  1  0
  3  4  1  0
  4  5  1  0
  5  6  2  0
  5  7  1  0
  7  8  1  0
  8  9  1  0
  9 10  1  0
 10 11  1  0
 11 12  1  0
 12 13  1  0
 13 14  1  0
 14 15  1  0
 15 16  2  0
 16 17  1  0
 17 18  2  0
 18 19  1  0
 19 20  2  0
  2 21  1  0
 21 22  2  0
 22 23  1  0
 23 24  2  0
 24 25  1  0
 25 26  2  0
 26 27  1  0
 27 28  2  0
 28 29  1  0
 29 30  2  0
 12  7  1  0
 20 15  1  0
 30 21  1  0
 29 24  1  0
  3 31  1  0
  4 32  1  0
  4 33  1  0
  8 34  1  0
  8 35  1  0
  9 36  1  0
  9 37  1  0
 10 38  1  0
 10 39  1  0
 11 40  1  0
 11 41  1  0
 12 42  1  1
 13 43  1  0
 13 44  1  0
 16 45  1  0
 17 46  1  0
 18 47  1  0
 19 48  1  0
 20 49  1  0
 22 50  1  0
 23 51  1  0
 25 52  1  0
 26 53  1  0
 27 54  1  0
 28 55  1  0
M  END
>  <smiles>  (38) 
O=C(NCC(=O)N1CCCC[C@H]1COc1ccccc1)c1ccc2ccccc2n1

>  <score_type>  (38) 
oracle

>  <origin>  (38) 
autodockgpu

>  <m_score__min__energy>  (38) 
-9.1300000000000008

>  <m_primary>  (38) 
energy

>  <rmsd>  (38) 
2.4002393938644837

>  <m_score__min__rmsd>  (38) 
2.4002393938644837

>  <meeko>  (38) 
{"free_energy": -8.95, "intermolecular_energy": -11.04, "internal_energy": -1.53, "cluster_size": 32, "cluster_id": 1, "rank_in_cluster": 5}

>  <energy>  (38) 
-8.17

>  <cluster_rmsd>  (38) 
1.02

>  <cluster>  (38) 
4

$$$$

     RDKit          3D

 55 58  0  0  0  0  0  0  0  0999 V2000
  140.7410   71.3120  221.2920 O   0  0  0  0  0  0  0  0  0  0  0  0
  140.3140   71.9570  222.2960 C   0  0  0  0  0  0  0  0  0  0  0  0
  139.9880   73.3510  222.2160 N   0  0  0  0  0  0  0  0  0  0  0  0
  140.1430   74.0750  220.9570 C   0  0  0  0  0  0  0  0  0  0  0  0
  140.5090   75.4750  221.1810 C   0  0  0  0  0  0  0  0  0  0  0  0
  140.2030   75.9320  222.3570 O   0  0  0  0  0  0  0  0  0  0  0  0
  141.1290   76.3890  220.3390 N   0  0  0  0  0  0  0  0  0  0  0  0
  142.5810   76.1090  220.0800 C   0  0  0  0  0  0  0  0  0  0  0  0
  142.9290   76.7060  218.7370 C   0  0  0  0  0  0  0  0  0  0  0  0
  141.8360   76.6920  217.7310 C   0  0  0  0  0  0  0  0  0  0  0  0
  140.4880   77.1350  218.2150 C   0  0  0  0  0  0  0  0  0  0  0  0
  140.6400   77.5560  219.6760 C   0  0  1  0  0  0  0  0  0  0  0  0
  139.4410   78.2200  220.2120 C   0  0  0  0  0  0  0  0  0  0  0  0
  139.6660   79.1690  221.1730 O   0  0  0  0  0  0  0  0  0  0  0  0
  140.6040   79.4280  222.0910 C   0  0  0  0  0  0  0  0  0  0  0  0
  140.8020   78.8100  223.3040 C   0  0  0  0  0  0  0  0  0  0  0  0
  141.8160   79.1620  224.1800 C   0  0  0  0  0  0  0  0  0  0  0  0
  142.6910   80.1740  223.8630 C   0  0  0  0  0  0  0  0  0  0  0  0
  142.5200   80.8140  222.6560 C   0  0  0  0  0  0  0  0  0  0  0  0
  141.5190   80.4610  221.7990 C   0  0  0  0  0  0  0  0  0  0  0  0
  140.1440   71.2630  223.5900 C   0  0  0  0  0  0  0  0  0  0  0  0
  139.5590   70.0150  223.6100 C   0  0  0  0  0  0  0  0  0  0  0  0
  139.3650   69.3060  224.7780 C   0  0  0  0  0  0  0  0  0  0  0  0
  139.7920   69.9120  225.9540 C   0  0  0  0  0  0  0  0  0  0  0  0
  139.6400   69.2770  227.1740 C   0  0  0  0  0  0  0  0  0  0  0  0
  140.0490   69.8480  228.3490 C   0  0  0  0  0  0  0  0  0  0  0  0
  140.6340   71.1010  228.3170 C   0  0  0  0  0  0  0  0  0  0  0  0
  140.7870   71.7300  227.1170 C   0  0  0  0  0  0  0  0  0  0  0  0
  140.3760   71.1640  225.9220 C   0  0  0  0  0  0  0  0  0  0  0  0
  140.5400   71.8110  224.7490 N   0  0  0  0  0  0  0  0  0  0  0  0
  139.6440   73.7990  223.0930 H   0  0  0  0  0  0  0  0  0  0  0  0
  140.9313   73.5909  220.3617 H   0  0  0  0  0  0  0  0  0  0  0  0
  139.1796   74.0522  220.4265 H   0  0  0  0  0  0  0  0  0  0  0  0
  143.1977   76.5691  220.8661 H   0  0  0  0  0  0  0  0  0  0  0  0
  142.7718   75.0257  220.0822 H   0  0  0  0  0  0  0  0  0  0  0  0
  143.2287   77.7521  218.8980 H   0  0  0  0  0  0  0  0  0  0  0  0
  143.7298   76.0754  218.3233 H   0  0  0  0  0  0  0  0  0  0  0  0
  142.1312   77.3556  216.9049 H   0  0  0  0  0  0  0  0  0  0  0  0
  141.7142   75.6377  217.4419 H   0  0  0  0  0  0  0  0  0  0  0  0
  140.1341   77.9856  217.6139 H   0  0  0  0  0  0  0  0  0  0  0  0
  139.7555   76.3198  218.1210 H   0  0  0  0  0  0  0  0  0  0  0  0
  141.3642   78.3680  219.8378 H   0  0  0  0  0  0  0  0  0  0  0  0
  138.9204   78.7054  219.3734 H   0  0  0  0  0  0  0  0  0  0  0  0
  138.8555   77.4291  220.7037 H   0  0  0  0  0  0  0  0  0  0  0  0
  140.1212   77.9957  223.5928 H   0  0  0  0  0  0  0  0  0  0  0  0
  141.9218   78.6280  225.1359 H   0  0  0  0  0  0  0  0  0  0  0  0
  143.5000   80.4625  224.5502 H   0  0  0  0  0  0  0  0  0  0  0  0
  143.2055   81.6277  222.3766 H   0  0  0  0  0  0  0  0  0  0  0  0
  141.4219   81.0015  220.8459 H   0  0  0  0  0  0  0  0  0  0  0  0
  139.2346   69.5673  222.6591 H   0  0  0  0  0  0  0  0  0  0  0  0
  138.8959   68.3110  224.7784 H   0  0  0  0  0  0  0  0  0  0  0  0
  139.1751   68.2804  227.2005 H   0  0  0  0  0  0  0  0  0  0  0  0
  139.9145   69.3186  229.3038 H   0  0  0  0  0  0  0  0  0  0  0  0
  140.9710   71.5832  229.2465 H   0  0  0  0  0  0  0  0  0  0  0  0
  141.2549   72.7253  227.0975 H   0  0  0  0  0  0  0  0  0  0  0  0
  1  2  2  0
  2  3  1  0
  3  4  1  0
  4  5  1  0
  5  6  2  0
  5  7  1  0
  7  8  1  0
  8  9  1  0
  9 10  1  0
 10 11  1  0
 11 12  1  0
 12 13  1  0
 13 14  1  0
 14 15  1  0
 15 16  2  0
 16 17  1  0
 17 18  2  0
 18 19  1  0
 19 20  2  0
  2 21  1  0
 21 22  2  0
 22 23  1  0
 23 24  2  0
 24 25  1  0
 25 26  2  0
 26 27  1  0
 27 28  2  0
 28 29  1  0
 29 30  2  0
 12  7  1  0
 20 15  1  0
 30 21  1  0
 29 24  1  0
  3 31  1  0
  4 32  1  0
  4 33  1  0
  8 34  1  0
  8 35  1  0
  9 36  1  0
  9 37  1  0
 10 38  1  0
 10 39  1  0
 11 40  1  0
 11 41  1  0
 12 42  1  6
 13 43  1  0
 13 44  1  0
 16 45  1  0
 17 46  1  0
 18 47  1  0
 19 48  1  0
 20 49  1  0
 22 50  1  0
 23 51  1  0
 25 52  1  0
 26 53  1  0
 27 54  1  0
 28 55  1  0
M  END
>  <smiles>  (39) 
O=C(NCC(=O)N1CCCC[C@H]1COc1ccccc1)c1ccc2ccccc2n1

>  <score_type>  (39) 
oracle

>  <origin>  (39) 
autodockgpu

>  <m_score__min__energy>  (39) 
-9.1300000000000008

>  <m_primary>  (39) 
energy

>  <rmsd>  (39) 
2.170988697672598

>  <m_score__min__rmsd>  (39) 
2.170988697672598

>  <meeko>  (39) 
{"free_energy": -8.52, "intermolecular_energy": -10.61, "internal_energy": -2.23, "cluster_size": 32, "cluster_id": 1, "rank_in_cluster": 22}

>  <energy>  (39) 
-8.12

>  <cluster_rmsd>  (39) 
1.08

>  <cluster>  (39) 
4

$$$$

     RDKit          3D

 55 58  0  0  0  0  0  0  0  0999 V2000
  140.0820   71.3210  221.2130 O   0  0  0  0  0  0  0  0  0  0  0  0
  139.9270   71.9730  222.2890 C   0  0  0  0  0  0  0  0  0  0  0  0
  139.6970   73.3890  222.2890 N   0  0  0  0  0  0  0  0  0  0  0  0
  139.6340   74.1280  221.0310 C   0  0  0  0  0  0  0  0  0  0  0  0
  140.0730   75.5140  221.1960 C   0  0  0  0  0  0  0  0  0  0  0  0
  140.3110   75.8630  222.4240 O   0  0  0  0  0  0  0  0  0  0  0  0
  140.2760   76.5130  220.2520 N   0  0  0  0  0  0  0  0  0  0  0  0
  139.4460   77.7460  220.4660 C   0  0  0  0  0  0  0  0  0  0  0  0
  140.1880   78.9080  219.8510 C   0  0  0  0  0  0  0  0  0  0  0  0
  141.6700   78.8220  219.9130 C   0  0  0  0  0  0  0  0  0  0  0  0
  142.2710   77.5020  219.5330 C   0  0  0  0  0  0  0  0  0  0  0  0
  141.1280   76.5830  219.1080 C   0  0  1  0  0  0  0  0  0  0  0  0
  141.5940   75.3260  218.5000 C   0  0  0  0  0  0  0  0  0  0  0  0
  141.9810   74.3490  219.3780 O   0  0  0  0  0  0  0  0  0  0  0  0
  143.1280   73.9010  219.9010 C   0  0  0  0  0  0  0  0  0  0  0  0
  143.4660   72.6120  220.2370 C   0  0  0  0  0  0  0  0  0  0  0  0
  144.6950   72.2620  220.7730 C   0  0  0  0  0  0  0  0  0  0  0  0
  145.6550   73.2200  221.0000 C   0  0  0  0  0  0  0  0  0  0  0  0
  145.3480   74.5230  220.6760 C   0  0  0  0  0  0  0  0  0  0  0  0
  144.1360   74.8580  220.1480 C   0  0  0  0  0  0  0  0  0  0  0  0
  139.9850   71.2650  223.5850 C   0  0  0  0  0  0  0  0  0  0  0  0
  139.5440   69.9610  223.6570 C   0  0  0  0  0  0  0  0  0  0  0  0
  139.5660   69.2350  224.8310 C   0  0  0  0  0  0  0  0  0  0  0  0
  140.0610   69.8850  225.9570 C   0  0  0  0  0  0  0  0  0  0  0  0
  140.1210   69.2360  227.1770 C   0  0  0  0  0  0  0  0  0  0  0  0
  140.6020   69.8480  228.3040 C   0  0  0  0  0  0  0  0  0  0  0  0
  141.0420   71.1570  228.2200 C   0  0  0  0  0  0  0  0  0  0  0  0
  140.9840   71.7990  227.0180 C   0  0  0  0  0  0  0  0  0  0  0  0
  140.5000   71.1920  225.8720 C   0  0  0  0  0  0  0  0  0  0  0  0
  140.4540   71.8530  224.6970 N   0  0  0  0  0  0  0  0  0  0  0  0
  139.5820   73.8410  223.2220 H   0  0  0  0  0  0  0  0  0  0  0  0
  140.2837   73.6334  220.2939 H   0  0  0  0  0  0  0  0  0  0  0  0
  138.5881   74.1374  220.6904 H   0  0  0  0  0  0  0  0  0  0  0  0
  138.4661   77.6275  219.9805 H   0  0  0  0  0  0  0  0  0  0  0  0
  139.2799   77.9184  221.5396 H   0  0  0  0  0  0  0  0  0  0  0  0
  139.8959   78.9754  218.7926 H   0  0  0  0  0  0  0  0  0  0  0  0
  139.9106   79.7925  220.4431 H   0  0  0  0  0  0  0  0  0  0  0  0
  142.0795   79.5853  219.2350 H   0  0  0  0  0  0  0  0  0  0  0  0
  141.9304   78.9713  220.9712 H   0  0  0  0  0  0  0  0  0  0  0  0
  142.9752   77.6361  218.6987 H   0  0  0  0  0  0  0  0  0  0  0  0
  142.8220   77.0686  220.3807 H   0  0  0  0  0  0  0  0  0  0  0  0
  140.5346   76.9644  218.2640 H   0  0  0  0  0  0  0  0  0  0  0  0
  140.7747   74.9235  217.8862 H   0  0  0  0  0  0  0  0  0  0  0  0
  142.4952   75.5869  217.9258 H   0  0  0  0  0  0  0  0  0  0  0  0
  142.7231   71.8177  220.0721 H   0  0  0  0  0  0  0  0  0  0  0  0
  144.9041   71.2104  221.0186 H   0  0  0  0  0  0  0  0  0  0  0  0
  146.6341   72.9549  221.4256 H   0  0  0  0  0  0  0  0  0  0  0  0
  146.0967   75.3106  220.8468 H   0  0  0  0  0  0  0  0  0  0  0  0
  143.9366   75.9123  219.9058 H   0  0  0  0  0  0  0  0  0  0  0  0
  139.1602   69.4809  222.7448 H   0  0  0  0  0  0  0  0  0  0  0  0
  139.2101   68.1951  224.8740 H   0  0  0  0  0  0  0  0  0  0  0  0
  139.7713   68.1952  227.2443 H   0  0  0  0  0  0  0  0  0  0  0  0
  140.6379   69.3071  229.2611 H   0  0  0  0  0  0  0  0  0  0  0  0
  141.4329   71.6725  229.1096 H   0  0  0  0  0  0  0  0  0  0  0  0
  141.3355   72.8395  226.9569 H   0  0  0  0  0  0  0  0  0  0  0  0
  1  2  2  0
  2  3  1  0
  3  4  1  0
  4  5  1  0
  5  6  2  0
  5  7  1  0
  7  8  1  0
  8  9  1  0
  9 10  1  0
 10 11  1  0
 11 12  1  0
 12 13  1  0
 13 14  1  0
 14 15  1  0
 15 16  2  0
 16 17  1  0
 17 18  2  0
 18 19  1  0
 19 20  2  0
  2 21  1  0
 21 22  2  0
 22 23  1  0
 23 24  2  0
 24 25  1  0
 25 26  2  0
 26 27  1  0
 27 28  2  0
 28 29  1  0
 29 30  2  0
 12  7  1  0
 20 15  1  0
 30 21  1  0
 29 24  1  0
  3 31  1  0
  4 32  1  0
  4 33  1  0
  8 34  1  0
  8 35  1  0
  9 36  1  0
  9 37  1  0
 10 38  1  0
 10 39  1  0
 11 40  1  0
 11 41  1  0
 12 42  1  6
 13 43  1  0
 13 44  1  0
 16 45  1  0
 17 46  1  0
 18 47  1  0
 19 48  1  0
 20 49  1  0
 22 50  1  0
 23 51  1  0
 25 52  1  0
 26 53  1  0
 27 54  1  0
 28 55  1  0
M  END
>  <smiles>  (40) 
O=C(NCC(=O)N1CCCC[C@H]1COc1ccccc1)c1ccc2ccccc2n1

>  <score_type>  (40) 
oracle

>  <origin>  (40) 
autodockgpu

>  <m_score__min__energy>  (40) 
-9.1300000000000008

>  <m_primary>  (40) 
energy

>  <rmsd>  (40) 
2.0392747907765525

>  <m_score__min__rmsd>  (40) 
2.0392747907765525

>  <meeko>  (40) 
{"free_energy": -7.97, "intermolecular_energy": -10.06, "internal_energy": -2.52, "cluster_size": 13, "cluster_id": 4, "rank_in_cluster": 8}

>  <energy>  (40) 
-8.08

>  <cluster_rmsd>  (40) 
1.07

>  <cluster>  (40) 
4

$$$$

     RDKit          3D

 55 58  0  0  0  0  0  0  0  0999 V2000
  140.5740   71.4210  221.2930 O   0  0  0  0  0  0  0  0  0  0  0  0
  140.2110   72.0440  222.3350 C   0  0  0  0  0  0  0  0  0  0  0  0
  139.8630   73.4350  222.3030 N   0  0  0  0  0  0  0  0  0  0  0  0
  139.9190   74.1820  221.0490 C   0  0  0  0  0  0  0  0  0  0  0  0
  140.1260   75.6120  221.2810 C   0  0  0  0  0  0  0  0  0  0  0  0
  140.3210   75.9360  222.5240 O   0  0  0  0  0  0  0  0  0  0  0  0
  140.1470   76.6760  220.3880 N   0  0  0  0  0  0  0  0  0  0  0  0
  138.7920   77.1330  219.9350 C   0  0  0  0  0  0  0  0  0  0  0  0
  138.9040   78.5900  219.5540 C   0  0  0  0  0  0  0  0  0  0  0  0
  139.8820   79.3810  220.3450 C   0  0  0  0  0  0  0  0  0  0  0  0
  141.2230   78.7470  220.5610 C   0  0  0  0  0  0  0  0  0  0  0  0
  141.2260   77.4150  219.8140 C   0  0  1  0  0  0  0  0  0  0  0  0
  142.5570   76.7890  219.7580 C   0  0  0  0  0  0  0  0  0  0  0  0
  142.5730   75.4210  219.8040 O   0  0  0  0  0  0  0  0  0  0  0  0
  143.4200   74.4650  220.2050 C   0  0  0  0  0  0  0  0  0  0  0  0
  143.1610   73.1310  220.4160 C   0  0  0  0  0  0  0  0  0  0  0  0
  144.1230   72.2250  220.8320 C   0  0  0  0  0  0  0  0  0  0  0  0
  145.4160   72.6370  221.0580 C   0  0  0  0  0  0  0  0  0  0  0  0
  145.7090   73.9670  220.8570 C   0  0  0  0  0  0  0  0  0  0  0  0
  144.7550   74.8520  220.4480 C   0  0  0  0  0  0  0  0  0  0  0  0
  140.1420   71.3270  223.6260 C   0  0  0  0  0  0  0  0  0  0  0  0
  139.5790   70.0690  223.6650 C   0  0  0  0  0  0  0  0  0  0  0  0
  139.4780   69.3390  224.8310 C   0  0  0  0  0  0  0  0  0  0  0  0
  139.9760   69.9330  225.9850 C   0  0  0  0  0  0  0  0  0  0  0  0
  139.9190   69.2760  227.2010 C   0  0  0  0  0  0  0  0  0  0  0  0
  140.4000   69.8350  228.3550 C   0  0  0  0  0  0  0  0  0  0  0  0
  140.9630   71.0980  228.3040 C   0  0  0  0  0  0  0  0  0  0  0  0
  141.0220   71.7480  227.1070 C   0  0  0  0  0  0  0  0  0  0  0  0
  140.5380   71.1950  225.9340 C   0  0  0  0  0  0  0  0  0  0  0  0
  140.6100   71.8630  224.7640 N   0  0  0  0  0  0  0  0  0  0  0  0
  139.5770   73.8640  223.2090 H   0  0  0  0  0  0  0  0  0  0  0  0
  140.7497   73.7955  220.4403 H   0  0  0  0  0  0  0  0  0  0  0  0
  138.9578   74.0539  220.5297 H   0  0  0  0  0  0  0  0  0  0  0  0
  138.4683   76.5420  219.0656 H   0  0  0  0  0  0  0  0  0  0  0  0
  138.0517   76.9999  220.7376 H   0  0  0  0  0  0  0  0  0  0  0  0
  139.2011   78.6425  218.4962 H   0  0  0  0  0  0  0  0  0  0  0  0
  137.9185   79.0339  219.7582 H   0  0  0  0  0  0  0  0  0  0  0  0
  140.0421   80.3360  219.8232 H   0  0  0  0  0  0  0  0  0  0  0  0
  139.4386   79.4821  221.3466 H   0  0  0  0  0  0  0  0  0  0  0  0
  142.0153   79.4005  220.1670 H   0  0  0  0  0  0  0  0  0  0  0  0
  141.4095   78.5903  221.6337 H   0  0  0  0  0  0  0  0  0  0  0  0
  141.0400   77.5043  218.7335 H   0  0  0  0  0  0  0  0  0  0  0  0
  143.0378   77.1010  218.8191 H   0  0  0  0  0  0  0  0  0  0  0  0
  143.0842   77.1252  220.6630 H   0  0  0  0  0  0  0  0  0  0  0  0
  142.1379   72.7646  220.2458 H   0  0  0  0  0  0  0  0  0  0  0  0
  143.8513   71.1698  220.9825 H   0  0  0  0  0  0  0  0  0  0  0  0
  146.1894   71.9278  221.3881 H   0  0  0  0  0  0  0  0  0  0  0  0
  146.7350   74.3239  221.0300 H   0  0  0  0  0  0  0  0  0  0  0  0
  145.0365   75.9053  220.3024 H   0  0  0  0  0  0  0  0  0  0  0  0
  139.1961   69.6312  222.7314 H   0  0  0  0  0  0  0  0  0  0  0  0
  139.0258   68.3364  224.8469 H   0  0  0  0  0  0  0  0  0  0  0  0
  139.4727   68.2715  227.2424 H   0  0  0  0  0  0  0  0  0  0  0  0
  140.3397   69.2884  229.3077 H   0  0  0  0  0  0  0  0  0  0  0  0
  141.3571   71.5706  229.2158 H   0  0  0  0  0  0  0  0  0  0  0  0
  141.4719   72.7512  227.0720 H   0  0  0  0  0  0  0  0  0  0  0  0
  1  2  2  0
  2  3  1  0
  3  4  1  0
  4  5  1  0
  5  6  2  0
  5  7  1  0
  7  8  1  0
  8  9  1  0
  9 10  1  0
 10 11  1  0
 11 12  1  0
 12 13  1  0
 13 14  1  0
 14 15  1  0
 15 16  2  0
 16 17  1  0
 17 18  2  0
 18 19  1  0
 19 20  2  0
  2 21  1  0
 21 22  2  0
 22 23  1  0
 23 24  2  0
 24 25  1  0
 25 26  2  0
 26 27  1  0
 27 28  2  0
 28 29  1  0
 29 30  2  0
 12  7  1  0
 20 15  1  0
 30 21  1  0
 29 24  1  0
  3 31  1  0
  4 32  1  0
  4 33  1  0
  8 34  1  0
  8 35  1  0
  9 36  1  0
  9 37  1  0
 10 38  1  0
 10 39  1  0
 11 40  1  0
 11 41  1  0
 12 42  1  6
 13 43  1  0
 13 44  1  0
 16 45  1  0
 17 46  1  0
 18 47  1  0
 19 48  1  0
 20 49  1  0
 22 50  1  0
 23 51  1  0
 25 52  1  0
 26 53  1  0
 27 54  1  0
 28 55  1  0
M  END
>  <smiles>  (41) 
O=C(NCC(=O)N1CCCC[C@H]1COc1ccccc1)c1ccc2ccccc2n1

>  <score_type>  (41) 
oracle

>  <origin>  (41) 
autodockgpu

>  <m_score__min__energy>  (41) 
-9.1300000000000008

>  <m_primary>  (41) 
energy

>  <rmsd>  (41) 
2.0110078338236406

>  <m_score__min__rmsd>  (41) 
2.0110078338236406

>  <meeko>  (41) 
{"free_energy": -8.08, "intermolecular_energy": -10.17, "internal_energy": -2.4, "cluster_size": 13, "cluster_id": 4, "rank_in_cluster": 5}

>  <energy>  (41) 
-8.0

>  <cluster_rmsd>  (41) 
1.04

>  <cluster>  (41) 
4

$$$$

     RDKit          3D

 55 58  0  0  0  0  0  0  0  0999 V2000
  138.7420   70.6940  221.6030 O   0  0  0  0  0  0  0  0  0  0  0  0
  139.1730   71.2590  222.6520 C   0  0  0  0  0  0  0  0  0  0  0  0
  139.4340   72.6690  222.6990 N   0  0  0  0  0  0  0  0  0  0  0  0
  139.2060   73.5030  221.5210 C   0  0  0  0  0  0  0  0  0  0  0  0
  140.0780   74.6780  221.5140 C   0  0  0  0  0  0  0  0  0  0  0  0
  141.0810   74.6110  222.3380 O   0  0  0  0  0  0  0  0  0  0  0  0
  140.0060   75.8490  220.7700 N   0  0  0  0  0  0  0  0  0  0  0  0
  139.0760   76.8840  221.3310 C   0  0  0  0  0  0  0  0  0  0  0  0
  139.5640   78.2360  220.8680 C   0  0  0  0  0  0  0  0  0  0  0  0
  141.0370   78.3640  220.7180 C   0  0  0  0  0  0  0  0  0  0  0  0
  141.7280   77.2380  220.0070 C   0  0  0  0  0  0  0  0  0  0  0  0
  140.6530   76.2490  219.5610 C   0  0  1  0  0  0  0  0  0  0  0  0
  141.1690   75.2060  218.6600 C   0  0  0  0  0  0  0  0  0  0  0  0
  141.8170   74.1630  219.2660 O   0  0  0  0  0  0  0  0  0  0  0  0
  143.0200   73.9420  219.8100 C   0  0  0  0  0  0  0  0  0  0  0  0
  144.0540   74.8320  219.9800 C   0  0  0  0  0  0  0  0  0  0  0  0
  145.2640   74.4910  220.5630 C   0  0  0  0  0  0  0  0  0  0  0  0
  145.4860   73.2080  221.0070 C   0  0  0  0  0  0  0  0  0  0  0  0
  144.4700   72.2910  220.8500 C   0  0  0  0  0  0  0  0  0  0  0  0
  143.2830   72.6360  220.2750 C   0  0  0  0  0  0  0  0  0  0  0  0
  139.4190   70.4540  223.8660 C   0  0  0  0  0  0  0  0  0  0  0  0
  139.0240   69.1330  223.8860 C   0  0  0  0  0  0  0  0  0  0  0  0
  139.2190   68.3180  224.9830 C   0  0  0  0  0  0  0  0  0  0  0  0
  139.8410   68.8930  226.0850 C   0  0  0  0  0  0  0  0  0  0  0  0
  140.0780   68.1520  227.2290 C   0  0  0  0  0  0  0  0  0  0  0  0
  140.6880   68.6900  228.3310 C   0  0  0  0  0  0  0  0  0  0  0  0
  141.0800   70.0160  228.3000 C   0  0  0  0  0  0  0  0  0  0  0  0
  140.8490   70.7480  227.1740 C   0  0  0  0  0  0  0  0  0  0  0  0
  140.2320   70.2170  226.0530 C   0  0  0  0  0  0  0  0  0  0  0  0
  140.0160   70.9680  224.9530 N   0  0  0  0  0  0  0  0  0  0  0  0
  139.7870   73.0470  223.6040 H   0  0  0  0  0  0  0  0  0  0  0  0
  139.4038   72.9067  220.6181 H   0  0  0  0  0  0  0  0  0  0  0  0
  138.1624   73.8500  221.5428 H   0  0  0  0  0  0  0  0  0  0  0  0
  138.0541   76.7083  220.9639 H   0  0  0  0  0  0  0  0  0  0  0  0
  139.0608   76.8345  222.4298 H   0  0  0  0  0  0  0  0  0  0  0  0
  139.1037   78.4470  219.8915 H   0  0  0  0  0  0  0  0  0  0  0  0
  139.2761   78.9484  221.6551 H   0  0  0  0  0  0  0  0  0  0  0  0
  141.2388   79.2892  220.1582 H   0  0  0  0  0  0  0  0  0  0  0  0
  141.4399   78.3589  221.7415 H   0  0  0  0  0  0  0  0  0  0  0  0
  142.2705   77.6234  219.1311 H   0  0  0  0  0  0  0  0  0  0  0  0
  142.4543   76.7474  220.6717 H   0  0  0  0  0  0  0  0  0  0  0  0
  139.8916   76.6809  218.8949 H   0  0  0  0  0  0  0  0  0  0  0  0
  140.3179   74.7939  218.0981 H   0  0  0  0  0  0  0  0  0  0  0  0
  141.9229   75.7011  218.0303 H   0  0  0  0  0  0  0  0  0  0  0  0
  143.9137   75.8673  219.6358 H   0  0  0  0  0  0  0  0  0  0  0  0
  146.0519   75.2509  220.6714 H   0  0  0  0  0  0  0  0  0  0  0  0
  146.4419   72.9241  221.4714 H   0  0  0  0  0  0  0  0  0  0  0  0
  144.6198   71.2577  221.1962 H   0  0  0  0  0  0  0  0  0  0  0  0
  142.5021   71.8685  220.1697 H   0  0  0  0  0  0  0  0  0  0  0  0
  138.5353   68.7130  222.9945 H   0  0  0  0  0  0  0  0  0  0  0  0
  138.8981   67.2659  224.9849 H   0  0  0  0  0  0  0  0  0  0  0  0
  139.7667   67.0973  227.2544 H   0  0  0  0  0  0  0  0  0  0  0  0
  140.8635   68.0767  229.2272 H   0  0  0  0  0  0  0  0  0  0  0  0
  141.5711   70.4731  229.1717 H   0  0  0  0  0  0  0  0  0  0  0  0
  141.1647   71.8015  227.1544 H   0  0  0  0  0  0  0  0  0  0  0  0
  1  2  2  0
  2  3  1  0
  3  4  1  0
  4  5  1  0
  5  6  2  0
  5  7  1  0
  7  8  1  0
  8  9  1  0
  9 10  1  0
 10 11  1  0
 11 12  1  0
 12 13  1  0
 13 14  1  0
 14 15  1  0
 15 16  2  0
 16 17  1  0
 17 18  2  0
 18 19  1  0
 19 20  2  0
  2 21  1  0
 21 22  2  0
 22 23  1  0
 23 24  2  0
 24 25  1  0
 25 26  2  0
 26 27  1  0
 27 28  2  0
 28 29  1  0
 29 30  2  0
 12  7  1  0
 20 15  1  0
 30 21  1  0
 29 24  1  0
  3 31  1  0
  4 32  1  0
  4 33  1  0
  8 34  1  0
  8 35  1  0
  9 36  1  0
  9 37  1  0
 10 38  1  0
 10 39  1  0
 11 40  1  0
 11 41  1  0
 12 42  1  6
 13 43  1  0
 13 44  1  0
 16 45  1  0
 17 46  1  0
 18 47  1  0
 19 48  1  0
 20 49  1  0
 22 50  1  0
 23 51  1  0
 25 52  1  0
 26 53  1  0
 27 54  1  0
 28 55  1  0
M  END
>  <smiles>  (42) 
O=C(NCC(=O)N1CCCC[C@H]1COc1ccccc1)c1ccc2ccccc2n1

>  <score_type>  (42) 
oracle

>  <origin>  (42) 
autodockgpu

>  <m_score__min__energy>  (42) 
-9.1300000000000008

>  <m_primary>  (42) 
energy

>  <rmsd>  (42) 
1.9818876861184287

>  <m_score__min__rmsd>  (42) 
1.9818876861184287

>  <meeko>  (42) 
{"free_energy": -7.7, "intermolecular_energy": -9.79, "internal_energy": -2.43, "cluster_size": 13, "cluster_id": 4, "rank_in_cluster": 11}

>  <energy>  (42) 
-7.98

>  <cluster_rmsd>  (42) 
1.06

>  <cluster>  (42) 
4

$$$$

     RDKit          3D

 55 58  0  0  0  0  0  0  0  0999 V2000
  140.1360   70.5360  221.5950 O   0  0  0  0  0  0  0  0  0  0  0  0
  139.7340   71.2860  222.5340 C   0  0  0  0  0  0  0  0  0  0  0  0
  138.9600   72.4670  222.2820 N   0  0  0  0  0  0  0  0  0  0  0  0
  138.6100   72.8420  220.9140 C   0  0  0  0  0  0  0  0  0  0  0  0
  139.7130   73.5310  220.2430 C   0  0  0  0  0  0  0  0  0  0  0  0
  139.6070   73.5910  218.9490 O   0  0  0  0  0  0  0  0  0  0  0  0
  140.8520   74.1300  220.7660 N   0  0  0  0  0  0  0  0  0  0  0  0
  142.0830   73.2720  220.7150 C   0  0  0  0  0  0  0  0  0  0  0  0
  143.2800   74.1920  220.6740 C   0  0  0  0  0  0  0  0  0  0  0  0
  143.0710   75.4770  219.9570 C   0  0  0  0  0  0  0  0  0  0  0  0
  141.8020   76.2110  220.2740 C   0  0  0  0  0  0  0  0  0  0  0  0
  141.0680   75.4150  221.3510 C   0  0  1  0  0  0  0  0  0  0  0  0
  139.9150   76.1350  221.9140 C   0  0  0  0  0  0  0  0  0  0  0  0
  140.2140   77.2150  222.7000 O   0  0  0  0  0  0  0  0  0  0  0  0
  140.9650   78.3190  222.6010 C   0  0  0  0  0  0  0  0  0  0  0  0
  141.0750   79.1810  221.5360 C   0  0  0  0  0  0  0  0  0  0  0  0
  141.8890   80.3030  221.5460 C   0  0  0  0  0  0  0  0  0  0  0  0
  142.6420   80.6070  222.6560 C   0  0  0  0  0  0  0  0  0  0  0  0
  142.5550   79.7630  223.7400 C   0  0  0  0  0  0  0  0  0  0  0  0
  141.7520   78.6610  223.7210 C   0  0  0  0  0  0  0  0  0  0  0  0
  140.0680   70.9450  223.9330 C   0  0  0  0  0  0  0  0  0  0  0  0
  140.7060   71.8830  224.7180 C   0  0  0  0  0  0  0  0  0  0  0  0
  141.0500   71.6380  226.0320 C   0  0  0  0  0  0  0  0  0  0  0  0
  140.7200   70.3860  226.5410 C   0  0  0  0  0  0  0  0  0  0  0  0
  141.0260   70.0520  227.8480 C   0  0  0  0  0  0  0  0  0  0  0  0
  140.7150   68.8280  228.3780 C   0  0  0  0  0  0  0  0  0  0  0  0
  140.0750   67.8950  227.5810 C   0  0  0  0  0  0  0  0  0  0  0  0
  139.7720   68.2220  226.2930 C   0  0  0  0  0  0  0  0  0  0  0  0
  140.0810   69.4550  225.7450 C   0  0  0  0  0  0  0  0  0  0  0  0
  139.7690   69.7500  224.4650 N   0  0  0  0  0  0  0  0  0  0  0  0
  138.6740   73.0230  223.1160 H   0  0  0  0  0  0  0  0  0  0  0  0
  138.3606   71.9325  220.3477 H   0  0  0  0  0  0  0  0  0  0  0  0
  137.7513   73.5283  220.9554 H   0  0  0  0  0  0  0  0  0  0  0  0
  142.1318   72.6327  221.6088 H   0  0  0  0  0  0  0  0  0  0  0  0
  142.0645   72.6226  219.8273 H   0  0  0  0  0  0  0  0  0  0  0  0
  143.5655   74.4241  221.7106 H   0  0  0  0  0  0  0  0  0  0  0  0
  144.0574   73.6537  220.1119 H   0  0  0  0  0  0  0  0  0  0  0  0
  143.9133   76.1402  220.2035 H   0  0  0  0  0  0  0  0  0  0  0  0
  143.0010   75.2127  218.8915 H   0  0  0  0  0  0  0  0  0  0  0  0
  142.0345   77.2199  220.6456 H   0  0  0  0  0  0  0  0  0  0  0  0
  141.1778   76.3121  219.3739 H   0  0  0  0  0  0  0  0  0  0  0  0
  141.6432   75.2746  222.2781 H   0  0  0  0  0  0  0  0  0  0  0  0
  139.2956   76.4882  221.0763 H   0  0  0  0  0  0  0  0  0  0  0  0
  139.4067   75.4164  222.5738 H   0  0  0  0  0  0  0  0  0  0  0  0
  140.4876   78.9699  220.6303 H   0  0  0  0  0  0  0  0  0  0  0  0
  141.9330   80.9543  220.6606 H   0  0  0  0  0  0  0  0  0  0  0  0
  143.2917   81.4944  222.6769 H   0  0  0  0  0  0  0  0  0  0  0  0
  143.1462   79.9823  224.6413 H   0  0  0  0  0  0  0  0  0  0  0  0
  141.7166   78.0154  224.6109 H   0  0  0  0  0  0  0  0  0  0  0  0
  140.9496   72.8624  224.2805 H   0  0  0  0  0  0  0  0  0  0  0  0
  141.5597   72.3950  226.6462 H   0  0  0  0  0  0  0  0  0  0  0  0
  141.5353   70.7929  228.4818 H   0  0  0  0  0  0  0  0  0  0  0  0
  140.9700   68.5901  229.4213 H   0  0  0  0  0  0  0  0  0  0  0  0
  139.8147   66.9040  227.9812 H   0  0  0  0  0  0  0  0  0  0  0  0
  139.2621   67.4771  225.6645 H   0  0  0  0  0  0  0  0  0  0  0  0
  1  2  2  0
  2  3  1  0
  3  4  1  0
  4  5  1  0
  5  6  2  0
  5  7  1  0
  7  8  1  0
  8  9  1  0
  9 10  1  0
 10 11  1  0
 11 12  1  0
 12 13  1  0
 13 14  1  0
 14 15  1  0
 15 16  2  0
 16 17  1  0
 17 18  2  0
 18 19  1  0
 19 20  2  0
  2 21  1  0
 21 22  2  0
 22 23  1  0
 23 24  2  0
 24 25  1  0
 25 26  2  0
 26 27  1  0
 27 28  2  0
 28 29  1  0
 29 30  2  0
 12  7  1  0
 20 15  1  0
 30 21  1  0
 29 24  1  0
  3 31  1  0
  4 32  1  0
  4 33  1  0
  8 34  1  0
  8 35  1  0
  9 36  1  0
  9 37  1  0
 10 38  1  0
 10 39  1  0
 11 40  1  0
 11 41  1  0
 12 42  1  1
 13 43  1  0
 13 44  1  0
 16 45  1  0
 17 46  1  0
 18 47  1  0
 19 48  1  0
 20 49  1  0
 22 50  1  0
 23 51  1  0
 25 52  1  0
 26 53  1  0
 27 54  1  0
 28 55  1  0
M  END
>  <smiles>  (43) 
O=C(NCC(=O)N1CCCC[C@H]1COc1ccccc1)c1ccc2ccccc2n1

>  <score_type>  (43) 
oracle

>  <origin>  (43) 
autodockgpu

>  <m_score__min__energy>  (43) 
-9.1300000000000008

>  <m_primary>  (43) 
energy

>  <rmsd>  (43) 
3.3057484506457278

>  <m_score__min__rmsd>  (43) 
3.3057484506457278

>  <meeko>  (43) 
{"free_energy": -8.67, "intermolecular_energy": -10.76, "internal_energy": -1.69, "cluster_size": 32, "cluster_id": 1, "rank_in_cluster": 15}

>  <energy>  (43) 
-7.97

>  <cluster_rmsd>  (43) 
1.03

>  <cluster>  (43) 
4

$$$$

     RDKit          3D

 55 58  0  0  0  0  0  0  0  0999 V2000
  140.8330   71.4310  221.3070 O   0  0  0  0  0  0  0  0  0  0  0  0
  140.3650   72.0570  222.3050 C   0  0  0  0  0  0  0  0  0  0  0  0
  139.9930   73.4400  222.2240 N   0  0  0  0  0  0  0  0  0  0  0  0
  140.1480   74.1750  220.9710 C   0  0  0  0  0  0  0  0  0  0  0  0
  140.5460   75.5640  221.2050 C   0  0  0  0  0  0  0  0  0  0  0  0
  140.3170   75.9960  222.4080 O   0  0  0  0  0  0  0  0  0  0  0  0
  141.1260   76.4910  220.3480 N   0  0  0  0  0  0  0  0  0  0  0  0
  142.5790   76.2470  220.0630 C   0  0  0  0  0  0  0  0  0  0  0  0
  142.8870   76.8480  218.7120 C   0  0  0  0  0  0  0  0  0  0  0  0
  141.7760   76.8020  217.7270 C   0  0  0  0  0  0  0  0  0  0  0  0
  140.4260   77.2110  218.2350 C   0  0  0  0  0  0  0  0  0  0  0  0
  140.5940   77.6420  219.6910 C   0  0  1  0  0  0  0  0  0  0  0  0
  139.3880   78.2760  220.2470 C   0  0  0  0  0  0  0  0  0  0  0  0
  139.6030   79.1830  221.2510 O   0  0  0  0  0  0  0  0  0  0  0  0
  140.5710   79.4540  222.1340 C   0  0  0  0  0  0  0  0  0  0  0  0
  140.7820   78.8860  223.3680 C   0  0  0  0  0  0  0  0  0  0  0  0
  141.8280   79.2450  224.2030 C   0  0  0  0  0  0  0  0  0  0  0  0
  142.7240   80.2160  223.8190 C   0  0  0  0  0  0  0  0  0  0  0  0
  142.5400   80.8060  222.5880 C   0  0  0  0  0  0  0  0  0  0  0  0
  141.5080   80.4450  221.7730 C   0  0  0  0  0  0  0  0  0  0  0  0
  140.1940   71.3530  223.5930 C   0  0  0  0  0  0  0  0  0  0  0  0
  139.5290   70.1450  223.6130 C   0  0  0  0  0  0  0  0  0  0  0  0
  139.3290   69.4290  224.7760 C   0  0  0  0  0  0  0  0  0  0  0  0
  139.8350   69.9850  225.9460 C   0  0  0  0  0  0  0  0  0  0  0  0
  139.6830   69.3380  227.1600 C   0  0  0  0  0  0  0  0  0  0  0  0
  140.1700   69.8600  228.3290 C   0  0  0  0  0  0  0  0  0  0  0  0
  140.8350   71.0720  228.2970 C   0  0  0  0  0  0  0  0  0  0  0  0
  140.9870   71.7110  227.1020 C   0  0  0  0  0  0  0  0  0  0  0  0
  140.5000   71.1960  225.9130 C   0  0  0  0  0  0  0  0  0  0  0  0
  140.6650   71.8520  224.7460 N   0  0  0  0  0  0  0  0  0  0  0  0
  139.6180   73.8720  223.0950 H   0  0  0  0  0  0  0  0  0  0  0  0
  140.9185   73.6812  220.3608 H   0  0  0  0  0  0  0  0  0  0  0  0
  139.1778   74.1785  220.4527 H   0  0  0  0  0  0  0  0  0  0  0  0
  143.1983   76.7252  220.8362 H   0  0  0  0  0  0  0  0  0  0  0  0
  142.7971   75.1688  220.0648 H   0  0  0  0  0  0  0  0  0  0  0  0
  143.1625   77.9020  218.8641 H   0  0  0  0  0  0  0  0  0  0  0  0
  143.6963   76.2372  218.2855 H   0  0  0  0  0  0  0  0  0  0  0  0
  142.0380   77.4704  216.8936 H   0  0  0  0  0  0  0  0  0  0  0  0
  141.6765   75.7439  217.4434 H   0  0  0  0  0  0  0  0  0  0  0  0
  140.0382   78.0493  217.6376 H   0  0  0  0  0  0  0  0  0  0  0  0
  139.7140   76.3761  218.1580 H   0  0  0  0  0  0  0  0  0  0  0  0
  141.2989   78.4738  219.8368 H   0  0  0  0  0  0  0  0  0  0  0  0
  138.8708   78.7957  219.4270 H   0  0  0  0  0  0  0  0  0  0  0  0
  138.8023   77.4618  220.6987 H   0  0  0  0  0  0  0  0  0  0  0  0
  140.0850   78.1068  223.7100 H   0  0  0  0  0  0  0  0  0  0  0  0
  141.9427   78.7506  225.1789 H   0  0  0  0  0  0  0  0  0  0  0  0
  143.5583   80.5109  224.4724 H   0  0  0  0  0  0  0  0  0  0  0  0
  143.2410   81.5856  222.2550 H   0  0  0  0  0  0  0  0  0  0  0  0
  141.4023   80.9446  220.7987 H   0  0  0  0  0  0  0  0  0  0  0  0
  139.1437   69.7369  222.6670 H   0  0  0  0  0  0  0  0  0  0  0  0
  138.7960   68.4667  224.7773 H   0  0  0  0  0  0  0  0  0  0  0  0
  139.1542   68.3738  227.1870 H   0  0  0  0  0  0  0  0  0  0  0  0
  140.0341   69.3230  229.2793 H   0  0  0  0  0  0  0  0  0  0  0  0
  141.2353   71.5139  229.2214 H   0  0  0  0  0  0  0  0  0  0  0  0
  141.5178   72.6742  227.0821 H   0  0  0  0  0  0  0  0  0  0  0  0
  1  2  2  0
  2  3  1  0
  3  4  1  0
  4  5  1  0
  5  6  2  0
  5  7  1  0
  7  8  1  0
  8  9  1  0
  9 10  1  0
 10 11  1  0
 11 12  1  0
 12 13  1  0
 13 14  1  0
 14 15  1  0
 15 16  2  0
 16 17  1  0
 17 18  2  0
 18 19  1  0
 19 20  2  0
  2 21  1  0
 21 22  2  0
 22 23  1  0
 23 24  2  0
 24 25  1  0
 25 26  2  0
 26 27  1  0
 27 28  2  0
 28 29  1  0
 29 30  2  0
 12  7  1  0
 20 15  1  0
 30 21  1  0
 29 24  1  0
  3 31  1  0
  4 32  1  0
  4 33  1  0
  8 34  1  0
  8 35  1  0
  9 36  1  0
  9 37  1  0
 10 38  1  0
 10 39  1  0
 11 40  1  0
 11 41  1  0
 12 42  1  6
 13 43  1  0
 13 44  1  0
 16 45  1  0
 17 46  1  0
 18 47  1  0
 19 48  1  0
 20 49  1  0
 22 50  1  0
 23 51  1  0
 25 52  1  0
 26 53  1  0
 27 54  1  0
 28 55  1  0
M  END
>  <smiles>  (44) 
O=C(NCC(=O)N1CCCC[C@H]1COc1ccccc1)c1ccc2ccccc2n1

>  <score_type>  (44) 
oracle

>  <origin>  (44) 
autodockgpu

>  <m_score__min__energy>  (44) 
-9.1300000000000008

>  <m_primary>  (44) 
energy

>  <rmsd>  (44) 
2.209220028206218

>  <m_score__min__rmsd>  (44) 
2.209220028206218

>  <meeko>  (44) 
{"free_energy": -8.54, "intermolecular_energy": -10.63, "internal_energy": -2.2, "cluster_size": 32, "cluster_id": 1, "rank_in_cluster": 21}

>  <energy>  (44) 
-7.95

>  <cluster_rmsd>  (44) 
1.05

>  <cluster>  (44) 
4

$$$$

     RDKit          3D

 55 58  0  0  0  0  0  0  0  0999 V2000
  139.1520   70.6250  221.5000 O   0  0  0  0  0  0  0  0  0  0  0  0
  139.4860   71.2050  222.5770 C   0  0  0  0  0  0  0  0  0  0  0  0
  139.7460   72.6140  222.6280 N   0  0  0  0  0  0  0  0  0  0  0  0
  139.6310   73.4310  221.4220 C   0  0  0  0  0  0  0  0  0  0  0  0
  140.4270   74.6560  221.5220 C   0  0  0  0  0  0  0  0  0  0  0  0
  139.9840   75.5200  222.3850 O   0  0  0  0  0  0  0  0  0  0  0  0
  141.5760   75.0420  220.8430 N   0  0  0  0  0  0  0  0  0  0  0  0
  142.6410   73.9870  220.7760 C   0  0  0  0  0  0  0  0  0  0  0  0
  143.4700   74.2510  219.5420 C   0  0  0  0  0  0  0  0  0  0  0  0
  142.7310   74.8310  218.3910 C   0  0  0  0  0  0  0  0  0  0  0  0
  141.8050   75.9680  218.7060 C   0  0  0  0  0  0  0  0  0  0  0  0
  141.9350   76.2650  220.1990 C   0  0  1  0  0  0  0  0  0  0  0  0
  141.2460   77.5020  220.6020 C   0  0  0  0  0  0  0  0  0  0  0  0
  141.5060   77.9400  221.8720 O   0  0  0  0  0  0  0  0  0  0  0  0
  141.6430   79.1190  222.4910 C   0  0  0  0  0  0  0  0  0  0  0  0
  140.7160   80.1270  222.6190 C   0  0  0  0  0  0  0  0  0  0  0  0
  140.9690   81.3130  223.2900 C   0  0  0  0  0  0  0  0  0  0  0  0
  142.1950   81.5360  223.8720 C   0  0  0  0  0  0  0  0  0  0  0  0
  143.1460   80.5470  223.7610 C   0  0  0  0  0  0  0  0  0  0  0  0
  142.8890   79.3830  223.0990 C   0  0  0  0  0  0  0  0  0  0  0  0
  139.6150   70.4160  223.8200 C   0  0  0  0  0  0  0  0  0  0  0  0
  139.1480   69.1190  223.8420 C   0  0  0  0  0  0  0  0  0  0  0  0
  139.2330   68.3210  224.9650 C   0  0  0  0  0  0  0  0  0  0  0  0
  139.8190   68.8880  226.0920 C   0  0  0  0  0  0  0  0  0  0  0  0
  139.9470   68.1630  227.2630 C   0  0  0  0  0  0  0  0  0  0  0  0
  140.5180   68.6940  228.3890 C   0  0  0  0  0  0  0  0  0  0  0  0
  140.9830   69.9960  228.3550 C   0  0  0  0  0  0  0  0  0  0  0  0
  140.8590   70.7130  227.2010 C   0  0  0  0  0  0  0  0  0  0  0  0
  140.2820   70.1890  226.0570 C   0  0  0  0  0  0  0  0  0  0  0  0
  140.1730   70.9240  224.9300 N   0  0  0  0  0  0  0  0  0  0  0  0
  140.0150   73.0040  223.5560 H   0  0  0  0  0  0  0  0  0  0  0  0
  139.9833   72.8459  220.5597 H   0  0  0  0  0  0  0  0  0  0  0  0
  138.5757   73.7159  221.2991 H   0  0  0  0  0  0  0  0  0  0  0  0
  143.2764   74.0383  221.6725 H   0  0  0  0  0  0  0  0  0  0  0  0
  142.1892   72.9851  220.7301 H   0  0  0  0  0  0  0  0  0  0  0  0
  144.2740   74.9498  219.8162 H   0  0  0  0  0  0  0  0  0  0  0  0
  143.8341   73.2692  219.2052 H   0  0  0  0  0  0  0  0  0  0  0  0
  143.4726   75.1933  217.6638 H   0  0  0  0  0  0  0  0  0  0  0  0
  142.0876   74.0217  218.0153 H   0  0  0  0  0  0  0  0  0  0  0  0
  142.0870   76.8555  218.1204 H   0  0  0  0  0  0  0  0  0  0  0  0
  140.7676   75.7050  218.4519 H   0  0  0  0  0  0  0  0  0  0  0  0
  142.9532   76.5315  220.5186 H   0  0  0  0  0  0  0  0  0  0  0  0
  141.5433   78.2974  219.9028 H   0  0  0  0  0  0  0  0  0  0  0  0
  140.1716   77.2671  220.5803 H   0  0  0  0  0  0  0  0  0  0  0  0
  139.7238   79.9847  222.1660 H   0  0  0  0  0  0  0  0  0  0  0  0
  140.1842   82.0808  223.3575 H   0  0  0  0  0  0  0  0  0  0  0  0
  142.4083   82.4727  224.4079 H   0  0  0  0  0  0  0  0  0  0  0  0
  144.1356   80.6991  224.2166 H   0  0  0  0  0  0  0  0  0  0  0  0
  143.6812   78.6224  223.0366 H   0  0  0  0  0  0  0  0  0  0  0  0
  138.6909   68.7050  222.9312 H   0  0  0  0  0  0  0  0  0  0  0  0
  138.8560   67.2876  224.9686 H   0  0  0  0  0  0  0  0  0  0  0  0
  139.5785   67.1269  227.2908 H   0  0  0  0  0  0  0  0  0  0  0  0
  140.6054   68.0938  229.3067 H   0  0  0  0  0  0  0  0  0  0  0  0
  141.4460   70.4468  229.2452 H   0  0  0  0  0  0  0  0  0  0  0  0
  141.2320   71.7476  227.1787 H   0  0  0  0  0  0  0  0  0  0  0  0
  1  2  2  0
  2  3  1  0
  3  4  1  0
  4  5  1  0
  5  6  2  0
  5  7  1  0
  7  8  1  0
  8  9  1  0
  9 10  1  0
 10 11  1  0
 11 12  1  0
 12 13  1  0
 13 14  1  0
 14 15  1  0
 15 16  2  0
 16 17  1  0
 17 18  2  0
 18 19  1  0
 19 20  2  0
  2 21  1  0
 21 22  2  0
 22 23  1  0
 23 24  2  0
 24 25  1  0
 25 26  2  0
 26 27  1  0
 27 28  2  0
 28 29  1  0
 29 30  2  0
 12  7  1  0
 20 15  1  0
 30 21  1  0
 29 24  1  0
  3 31  1  0
  4 32  1  0
  4 33  1  0
  8 34  1  0
  8 35  1  0
  9 36  1  0
  9 37  1  0
 10 38  1  0
 10 39  1  0
 11 40  1  0
 11 41  1  0
 12 42  1  6
 13 43  1  0
 13 44  1  0
 16 45  1  0
 17 46  1  0
 18 47  1  0
 19 48  1  0
 20 49  1  0
 22 50  1  0
 23 51  1  0
 25 52  1  0
 26 53  1  0
 27 54  1  0
 28 55  1  0
M  END
>  <smiles>  (45) 
O=C(NCC(=O)N1CCCC[C@H]1COc1ccccc1)c1ccc2ccccc2n1

>  <score_type>  (45) 
oracle

>  <origin>  (45) 
autodockgpu

>  <m_score__min__energy>  (45) 
-9.1300000000000008

>  <m_primary>  (45) 
energy

>  <rmsd>  (45) 
2.1592005712757802

>  <m_score__min__rmsd>  (45) 
2.1592005712757802

>  <meeko>  (45) 
{"free_energy": -8.74, "intermolecular_energy": -10.82, "internal_energy": -1.63, "cluster_size": 32, "cluster_id": 1, "rank_in_cluster": 12}

>  <energy>  (45) 
-7.83

>  <cluster_rmsd>  (45) 
1.0

>  <cluster>  (45) 
4

$$$$

     RDKit          3D

 55 58  0  0  0  0  0  0  0  0999 V2000
  140.5650   71.3370  221.3230 O   0  0  0  0  0  0  0  0  0  0  0  0
  140.2150   71.9320  222.3860 C   0  0  0  0  0  0  0  0  0  0  0  0
  139.8610   73.3220  222.3940 N   0  0  0  0  0  0  0  0  0  0  0  0
  139.8970   74.1000  221.1570 C   0  0  0  0  0  0  0  0  0  0  0  0
  139.9800   75.5370  221.4260 C   0  0  0  0  0  0  0  0  0  0  0  0
  139.7980   75.8650  222.6690 O   0  0  0  0  0  0  0  0  0  0  0  0
  140.2200   76.6010  220.5660 N   0  0  0  0  0  0  0  0  0  0  0  0
  139.2790   77.7580  220.7330 C   0  0  0  0  0  0  0  0  0  0  0  0
  140.0000   79.0040  220.2760 C   0  0  0  0  0  0  0  0  0  0  0  0
  141.4660   79.0170  220.5220 C   0  0  0  0  0  0  0  0  0  0  0  0
  142.2080   77.7670  220.1570 C   0  0  0  0  0  0  0  0  0  0  0  0
  141.2000   76.7970  219.5450 C   0  0  1  0  0  0  0  0  0  0  0  0
  141.8320   75.6130  218.9410 C   0  0  0  0  0  0  0  0  0  0  0  0
  142.3090   74.6780  219.8210 O   0  0  0  0  0  0  0  0  0  0  0  0
  143.4970   74.1490  220.1380 C   0  0  0  0  0  0  0  0  0  0  0  0
  144.6600   74.8040  220.4680 C   0  0  0  0  0  0  0  0  0  0  0  0
  145.8390   74.1490  220.7840 C   0  0  0  0  0  0  0  0  0  0  0  0
  145.8940   72.7750  220.7800 C   0  0  0  0  0  0  0  0  0  0  0  0
  144.7460   72.0880  220.4540 C   0  0  0  0  0  0  0  0  0  0  0  0
  143.5900   72.7420  220.1430 C   0  0  0  0  0  0  0  0  0  0  0  0
  140.1670   71.1830  223.6600 C   0  0  0  0  0  0  0  0  0  0  0  0
  139.6360   69.9110  223.6690 C   0  0  0  0  0  0  0  0  0  0  0  0
  139.5560   69.1500  224.8190 C   0  0  0  0  0  0  0  0  0  0  0  0
  140.0420   69.7300  225.9860 C   0  0  0  0  0  0  0  0  0  0  0  0
  140.0040   69.0420  227.1850 C   0  0  0  0  0  0  0  0  0  0  0  0
  140.4750   69.5860  228.3510 C   0  0  0  0  0  0  0  0  0  0  0  0
  141.0060   70.8630  228.3290 C   0  0  0  0  0  0  0  0  0  0  0  0
  141.0450   71.5430  227.1480 C   0  0  0  0  0  0  0  0  0  0  0  0
  140.5720   71.0060  225.9630 C   0  0  0  0  0  0  0  0  0  0  0  0
  140.6240   71.7030  224.8090 N   0  0  0  0  0  0  0  0  0  0  0  0
  139.5860   73.7270  223.3140 H   0  0  0  0  0  0  0  0  0  0  0  0
  140.7756   73.7955  220.5693 H   0  0  0  0  0  0  0  0  0  0  0  0
  138.9670   73.9071  220.6021 H   0  0  0  0  0  0  0  0  0  0  0  0
  138.3785   77.6002  220.1212 H   0  0  0  0  0  0  0  0  0  0  0  0
  138.9693   77.8549  221.7840 H   0  0  0  0  0  0  0  0  0  0  0  0
  139.8362   79.1136  219.1938 H   0  0  0  0  0  0  0  0  0  0  0  0
  139.5848   79.8307  220.8710 H   0  0  0  0  0  0  0  0  0  0  0  0
  141.8968   79.8453  219.9404 H   0  0  0  0  0  0  0  0  0  0  0  0
  141.5815   79.1212  221.6109 H   0  0  0  0  0  0  0  0  0  0  0  0
  142.9974   77.9985  219.4268 H   0  0  0  0  0  0  0  0  0  0  0  0
  142.6815   77.3241  221.0456 H   0  0  0  0  0  0  0  0  0  0  0  0
  140.6886   77.1852  218.6518 H   0  0  0  0  0  0  0  0  0  0  0  0
  141.0855   75.1224  218.2990 H   0  0  0  0  0  0  0  0  0  0  0  0
  142.7117   75.9883  218.3977 H   0  0  0  0  0  0  0  0  0  0  0  0
  144.6539   75.9039  220.4818 H   0  0  0  0  0  0  0  0  0  0  0  0
  146.7365   74.7314  221.0396 H   0  0  0  0  0  0  0  0  0  0  0  0
  146.8238   72.2426  221.0289 H   0  0  0  0  0  0  0  0  0  0  0  0
  144.7615   70.9882  220.4441 H   0  0  0  0  0  0  0  0  0  0  0  0
  142.6985   72.1506  219.8870 H   0  0  0  0  0  0  0  0  0  0  0  0
  139.2622   69.4863  222.7257 H   0  0  0  0  0  0  0  0  0  0  0  0
  139.1293   68.1361  224.8122 H   0  0  0  0  0  0  0  0  0  0  0  0
  139.5824   68.0262  227.2032 H   0  0  0  0  0  0  0  0  0  0  0  0
  140.4315   69.0157  229.2906 H   0  0  0  0  0  0  0  0  0  0  0  0
  141.3912   71.3232  229.2509 H   0  0  0  0  0  0  0  0  0  0  0  0
  141.4689   72.5580  227.1363 H   0  0  0  0  0  0  0  0  0  0  0  0
  1  2  2  0
  2  3  1  0
  3  4  1  0
  4  5  1  0
  5  6  2  0
  5  7  1  0
  7  8  1  0
  8  9  1  0
  9 10  1  0
 10 11  1  0
 11 12  1  0
 12 13  1  0
 13 14  1  0
 14 15  1  0
 15 16  2  0
 16 17  1  0
 17 18  2  0
 18 19  1  0
 19 20  2  0
  2 21  1  0
 21 22  2  0
 22 23  1  0
 23 24  2  0
 24 25  1  0
 25 26  2  0
 26 27  1  0
 27 28  2  0
 28 29  1  0
 29 30  2  0
 12  7  1  0
 20 15  1  0
 30 21  1  0
 29 24  1  0
  3 31  1  0
  4 32  1  0
  4 33  1  0
  8 34  1  0
  8 35  1  0
  9 36  1  0
  9 37  1  0
 10 38  1  0
 10 39  1  0
 11 40  1  0
 11 41  1  0
 12 42  1  6
 13 43  1  0
 13 44  1  0
 16 45  1  0
 17 46  1  0
 18 47  1  0
 19 48  1  0
 20 49  1  0
 22 50  1  0
 23 51  1  0
 25 52  1  0
 26 53  1  0
 27 54  1  0
 28 55  1  0
M  END
>  <smiles>  (46) 
O=C(NCC(=O)N1CCCC[C@H]1COc1ccccc1)c1ccc2ccccc2n1

>  <score_type>  (46) 
oracle

>  <origin>  (46) 
autodockgpu

>  <m_score__min__energy>  (46) 
-9.1300000000000008

>  <m_primary>  (46) 
energy

>  <rmsd>  (46) 
2.1351676345473245

>  <m_score__min__rmsd>  (46) 
2.1351676345473245

>  <meeko>  (46) 
{"free_energy": -8.17, "intermolecular_energy": -10.26, "internal_energy": -2.38, "cluster_size": 13, "cluster_id": 4, "rank_in_cluster": 3}

>  <energy>  (46) 
-7.7

>  <cluster_rmsd>  (46) 
1.16

>  <cluster>  (46) 
4

$$$$

     RDKit          3D

 55 58  0  0  0  0  0  0  0  0999 V2000
  139.7210   73.4600  222.4350 O   0  0  0  0  0  0  0  0  0  0  0  0
  140.3840   72.3820  222.5210 C   0  0  0  0  0  0  0  0  0  0  0  0
  141.2810   71.9610  221.4840 N   0  0  0  0  0  0  0  0  0  0  0  0
  141.4560   72.7740  220.2830 C   0  0  0  0  0  0  0  0  0  0  0  0
  142.5070   73.7770  220.4590 C   0  0  0  0  0  0  0  0  0  0  0  0
  143.6160   73.3170  220.9540 O   0  0  0  0  0  0  0  0  0  0  0  0
  142.5090   75.1390  220.1820 N   0  0  0  0  0  0  0  0  0  0  0  0
  143.5780   75.5760  219.2240 C   0  0  0  0  0  0  0  0  0  0  0  0
  143.0890   76.8260  218.5320 C   0  0  0  0  0  0  0  0  0  0  0  0
  141.6220   76.8960  218.3070 C   0  0  0  0  0  0  0  0  0  0  0  0
  140.7570   76.5180  219.4710 C   0  0  0  0  0  0  0  0  0  0  0  0
  141.6800   76.2050  220.6470 C   0  0  1  0  0  0  0  0  0  0  0  0
  140.9570   76.0320  221.9170 C   0  0  0  0  0  0  0  0  0  0  0  0
  140.8530   77.1510  222.6990 O   0  0  0  0  0  0  0  0  0  0  0  0
  141.3890   78.3770  222.7290 C   0  0  0  0  0  0  0  0  0  0  0  0
  141.5980   79.2410  221.6810 C   0  0  0  0  0  0  0  0  0  0  0  0
  142.1630   80.4980  221.8310 C   0  0  0  0  0  0  0  0  0  0  0  0
  142.5500   80.9430  223.0730 C   0  0  0  0  0  0  0  0  0  0  0  0
  142.3560   80.1010  224.1450 C   0  0  0  0  0  0  0  0  0  0  0  0
  141.7990   78.8660  223.9880 C   0  0  0  0  0  0  0  0  0  0  0  0
  140.2360   71.5290  223.7190 C   0  0  0  0  0  0  0  0  0  0  0  0
  139.5720   70.3250  223.6060 C   0  0  0  0  0  0  0  0  0  0  0  0
  139.3940   69.4750  224.6780 C   0  0  0  0  0  0  0  0  0  0  0  0
  139.9210   69.8880  225.8970 C   0  0  0  0  0  0  0  0  0  0  0  0
  139.7910   69.1000  227.0270 C   0  0  0  0  0  0  0  0  0  0  0  0
  140.2980   69.4790  228.2410 C   0  0  0  0  0  0  0  0  0  0  0  0
  140.9630   70.6890  228.3420 C   0  0  0  0  0  0  0  0  0  0  0  0
  141.0930   71.4670  227.2300 C   0  0  0  0  0  0  0  0  0  0  0  0
  140.5840   71.0960  225.9970 C   0  0  0  0  0  0  0  0  0  0  0  0
  140.7280   71.8880  224.9150 N   0  0  0  0  0  0  0  0  0  0  0  0
  141.7830   71.0610  221.6410 H   0  0  0  0  0  0  0  0  0  0  0  0
  141.7269   72.1168  219.4435 H   0  0  0  0  0  0  0  0  0  0  0  0
  140.5103   73.2987  220.0823 H   0  0  0  0  0  0  0  0  0  0  0  0
  144.5077   75.7899  219.7717 H   0  0  0  0  0  0  0  0  0  0  0  0
  143.7851   74.7840  218.4893 H   0  0  0  0  0  0  0  0  0  0  0  0
  143.3799   77.6905  219.1469 H   0  0  0  0  0  0  0  0  0  0  0  0
  143.5495   76.8199  217.5330 H   0  0  0  0  0  0  0  0  0  0  0  0
  141.3742   77.9303  218.0262 H   0  0  0  0  0  0  0  0  0  0  0  0
  141.4074   76.1519  217.5258 H   0  0  0  0  0  0  0  0  0  0  0  0
  140.0894   77.3532  219.7296 H   0  0  0  0  0  0  0  0  0  0  0  0
  140.1351   75.6450  219.2239 H   0  0  0  0  0  0  0  0  0  0  0  0
  142.3327   77.0400  220.9416 H   0  0  0  0  0  0  0  0  0  0  0  0
  139.9388   75.6883  221.6820 H   0  0  0  0  0  0  0  0  0  0  0  0
  141.5476   75.3116  222.5021 H   0  0  0  0  0  0  0  0  0  0  0  0
  141.3019   78.9188  220.6718 H   0  0  0  0  0  0  0  0  0  0  0  0
  142.3025   81.1432  220.9511 H   0  0  0  0  0  0  0  0  0  0  0  0
  142.9995   81.9382  223.2058 H   0  0  0  0  0  0  0  0  0  0  0  0
  142.6568   80.4316  225.1501 H   0  0  0  0  0  0  0  0  0  0  0  0
  141.6645   78.2283  224.8741 H   0  0  0  0  0  0  0  0  0  0  0  0
  139.1697   70.0319  222.6251 H   0  0  0  0  0  0  0  0  0  0  0  0
  138.8616   68.5181  224.5737 H   0  0  0  0  0  0  0  0  0  0  0  0
  139.2633   68.1381  226.9473 H   0  0  0  0  0  0  0  0  0  0  0  0
  140.1788   68.8320  229.1226 H   0  0  0  0  0  0  0  0  0  0  0  0
  141.3803   71.0179  229.3052 H   0  0  0  0  0  0  0  0  0  0  0  0
  141.6230   72.4271  227.3157 H   0  0  0  0  0  0  0  0  0  0  0  0
  1  2  2  0
  2  3  1  0
  3  4  1  0
  4  5  1  0
  5  6  2  0
  5  7  1  0
  7  8  1  0
  8  9  1  0
  9 10  1  0
 10 11  1  0
 11 12  1  0
 12 13  1  0
 13 14  1  0
 14 15  1  0
 15 16  2  0
 16 17  1  0
 17 18  2  0
 18 19  1  0
 19 20  2  0
  2 21  1  0
 21 22  2  0
 22 23  1  0
 23 24  2  0
 24 25  1  0
 25 26  2  0
 26 27  1  0
 27 28  2  0
 28 29  1  0
 29 30  2  0
 12  7  1  0
 20 15  1  0
 30 21  1  0
 29 24  1  0
  3 31  1  0
  4 32  1  0
  4 33  1  0
  8 34  1  0
  8 35  1  0
  9 36  1  0
  9 37  1  0
 10 38  1  0
 10 39  1  0
 11 40  1  0
 11 41  1  0
 12 42  1  1
 13 43  1  0
 13 44  1  0
 16 45  1  0
 17 46  1  0
 18 47  1  0
 19 48  1  0
 20 49  1  0
 22 50  1  0
 23 51  1  0
 25 52  1  0
 26 53  1  0
 27 54  1  0
 28 55  1  0
M  END
>  <smiles>  (47) 
O=C(NCC(=O)N1CCCC[C@H]1COc1ccccc1)c1ccc2ccccc2n1

>  <score_type>  (47) 
oracle

>  <origin>  (47) 
autodockgpu

>  <m_score__min__energy>  (47) 
-9.1300000000000008

>  <m_primary>  (47) 
energy

>  <rmsd>  (47) 
2.811992403206386

>  <m_score__min__rmsd>  (47) 
2.811992403206386

>  <meeko>  (47) 
{"free_energy": -8.87, "intermolecular_energy": -10.96, "internal_energy": -1.63, "cluster_size": 32, "cluster_id": 1, "rank_in_cluster": 8}

>  <energy>  (47) 
-7.66

>  <cluster_rmsd>  (47) 
1.21

>  <cluster>  (47) 
4

$$$$

     RDKit          3D

 55 58  0  0  0  0  0  0  0  0999 V2000
  139.1250   70.5420  221.2740 O   0  0  0  0  0  0  0  0  0  0  0  0
  139.1820   71.3110  222.2800 C   0  0  0  0  0  0  0  0  0  0  0  0
  138.9020   72.7130  222.1780 N   0  0  0  0  0  0  0  0  0  0  0  0
  138.5370   73.3020  220.8910 C   0  0  0  0  0  0  0  0  0  0  0  0
  139.7200   73.6960  220.1240 C   0  0  0  0  0  0  0  0  0  0  0  0
  139.5600   73.6720  218.8350 O   0  0  0  0  0  0  0  0  0  0  0  0
  140.9810   74.0910  220.5520 N   0  0  0  0  0  0  0  0  0  0  0  0
  142.0580   73.0680  220.3340 C   0  0  0  0  0  0  0  0  0  0  0  0
  143.3700   73.8060  220.2090 C   0  0  0  0  0  0  0  0  0  0  0  0
  143.2880   75.1480  219.5770 C   0  0  0  0  0  0  0  0  0  0  0  0
  142.1820   76.0380  220.0580 C   0  0  0  0  0  0  0  0  0  0  0  0
  141.4440   75.2930  221.1690 C   0  0  1  0  0  0  0  0  0  0  0  0
  140.4710   76.1380  221.8810 C   0  0  0  0  0  0  0  0  0  0  0  0
  141.0040   77.0750  222.7250 O   0  0  0  0  0  0  0  0  0  0  0  0
  141.4820   78.3210  222.6270 C   0  0  0  0  0  0  0  0  0  0  0  0
  141.6720   79.0730  221.4920 C   0  0  0  0  0  0  0  0  0  0  0  0
  142.1750   80.3640  221.5090 C   0  0  0  0  0  0  0  0  0  0  0  0
  142.5160   80.9620  222.7000 C   0  0  0  0  0  0  0  0  0  0  0  0
  142.3390   80.2360  223.8560 C   0  0  0  0  0  0  0  0  0  0  0  0
  141.8430   78.9660  223.8290 C   0  0  0  0  0  0  0  0  0  0  0  0
  139.5480   70.7570  223.6010 C   0  0  0  0  0  0  0  0  0  0  0  0
  139.4010   69.4040  223.8250 C   0  0  0  0  0  0  0  0  0  0  0  0
  139.7200   68.8150  225.0310 C   0  0  0  0  0  0  0  0  0  0  0  0
  140.2060   69.6540  226.0280 C   0  0  0  0  0  0  0  0  0  0  0  0
  140.5520   69.1520  227.2690 C   0  0  0  0  0  0  0  0  0  0  0  0
  141.0320   69.9530  228.2710 C   0  0  0  0  0  0  0  0  0  0  0  0
  141.1760   71.3080  228.0350 C   0  0  0  0  0  0  0  0  0  0  0  0
  140.8360   71.8060  226.8120 C   0  0  0  0  0  0  0  0  0  0  0  0
  140.3490   71.0080  225.7910 C   0  0  0  0  0  0  0  0  0  0  0  0
  140.0200   71.5300  224.5910 N   0  0  0  0  0  0  0  0  0  0  0  0
  138.9740   73.2670  223.0580 H   0  0  0  0  0  0  0  0  0  0  0  0
  137.9644   72.5639  220.3101 H   0  0  0  0  0  0  0  0  0  0  0  0
  137.9356   74.2028  221.0830 H   0  0  0  0  0  0  0  0  0  0  0  0
  142.0967   72.3761  221.1883 H   0  0  0  0  0  0  0  0  0  0  0  0
  141.8561   72.4820  219.4252 H   0  0  0  0  0  0  0  0  0  0  0  0
  143.7865   73.9315  221.2193 H   0  0  0  0  0  0  0  0  0  0  0  0
  143.9992   73.1957  219.5444 H   0  0  0  0  0  0  0  0  0  0  0  0
  144.2406   75.6656  219.7630 H   0  0  0  0  0  0  0  0  0  0  0  0
  143.0751   74.9610  218.5141 H   0  0  0  0  0  0  0  0  0  0  0  0
  142.5991   76.9778  220.4488 H   0  0  0  0  0  0  0  0  0  0  0  0
  141.4960   76.2836  219.2340 H   0  0  0  0  0  0  0  0  0  0  0  0
  142.0787   75.0149  222.0233 H   0  0  0  0  0  0  0  0  0  0  0  0
  139.8671   76.6658  221.1282 H   0  0  0  0  0  0  0  0  0  0  0  0
  139.8911   75.4550  222.5191 H   0  0  0  0  0  0  0  0  0  0  0  0
  141.4114   78.6271  220.5208 H   0  0  0  0  0  0  0  0  0  0  0  0
  142.3024   80.9138  220.5648 H   0  0  0  0  0  0  0  0  0  0  0  0
  142.9167   81.9860  222.7276 H   0  0  0  0  0  0  0  0  0  0  0  0
  142.6033   80.6900  224.8224 H   0  0  0  0  0  0  0  0  0  0  0  0
  141.7199   78.4248  224.7787 H   0  0  0  0  0  0  0  0  0  0  0  0
  139.0152   68.7713  223.0121 H   0  0  0  0  0  0  0  0  0  0  0  0
  139.5960   67.7345  225.1960 H   0  0  0  0  0  0  0  0  0  0  0  0
  140.4381   68.0743  227.4577 H   0  0  0  0  0  0  0  0  0  0  0  0
  141.2989   69.5250  229.2485 H   0  0  0  0  0  0  0  0  0  0  0  0
  141.5591   71.9741  228.8221 H   0  0  0  0  0  0  0  0  0  0  0  0
  140.9533   72.8844  226.6295 H   0  0  0  0  0  0  0  0  0  0  0  0
  1  2  2  0
  2  3  1  0
  3  4  1  0
  4  5  1  0
  5  6  2  0
  5  7  1  0
  7  8  1  0
  8  9  1  0
  9 10  1  0
 10 11  1  0
 11 12  1  0
 12 13  1  0
 13 14  1  0
 14 15  1  0
 15 16  2  0
 16 17  1  0
 17 18  2  0
 18 19  1  0
 19 20  2  0
  2 21  1  0
 21 22  2  0
 22 23  1  0
 23 24  2  0
 24 25  1  0
 25 26  2  0
 26 27  1  0
 27 28  2  0
 28 29  1  0
 29 30  2  0
 12  7  1  0
 20 15  1  0
 30 21  1  0
 29 24  1  0
  3 31  1  0
  4 32  1  0
  4 33  1  0
  8 34  1  0
  8 35  1  0
  9 36  1  0
  9 37  1  0
 10 38  1  0
 10 39  1  0
 11 40  1  0
 11 41  1  0
 12 42  1  1
 13 43  1  0
 13 44  1  0
 16 45  1  0
 17 46  1  0
 18 47  1  0
 19 48  1  0
 20 49  1  0
 22 50  1  0
 23 51  1  0
 25 52  1  0
 26 53  1  0
 27 54  1  0
 28 55  1  0
M  END
>  <smiles>  (48) 
O=C(NCC(=O)N1CCCC[C@H]1COc1ccccc1)c1ccc2ccccc2n1

>  <score_type>  (48) 
oracle

>  <origin>  (48) 
autodockgpu

>  <m_score__min__energy>  (48) 
-9.1300000000000008

>  <m_primary>  (48) 
energy

>  <rmsd>  (48) 
2.423140293031532

>  <m_score__min__rmsd>  (48) 
2.423140293031532

>  <meeko>  (48) 
{"free_energy": -8.63, "intermolecular_energy": -10.72, "internal_energy": -1.8, "cluster_size": 32, "cluster_id": 1, "rank_in_cluster": 18}

>  <energy>  (48) 
-7.39

>  <cluster_rmsd>  (48) 
1.07

>  <cluster>  (48) 
4

$$$$

     RDKit          3D

 55 58  0  0  0  0  0  0  0  0999 V2000
  138.0560   70.6360  221.9020 O   0  0  0  0  0  0  0  0  0  0  0  0
  138.7490   71.1920  222.8060 C   0  0  0  0  0  0  0  0  0  0  0  0
  139.1430   72.5690  222.7190 N   0  0  0  0  0  0  0  0  0  0  0  0
  138.7510   73.3780  221.5670 C   0  0  0  0  0  0  0  0  0  0  0  0
  138.6660   74.7990  221.9080 C   0  0  0  0  0  0  0  0  0  0  0  0
  139.6140   75.2240  222.6880 O   0  0  0  0  0  0  0  0  0  0  0  0
  137.7370   75.7610  221.5350 N   0  0  0  0  0  0  0  0  0  0  0  0
  136.4200   75.2070  221.0750 C   0  0  0  0  0  0  0  0  0  0  0  0
  135.3670   76.2570  221.3350 C   0  0  0  0  0  0  0  0  0  0  0  0
  135.5960   77.1060  222.5340 C   0  0  0  0  0  0  0  0  0  0  0  0
  136.9850   77.6420  222.7060 C   0  0  0  0  0  0  0  0  0  0  0  0
  137.8060   77.1870  221.5010 C   0  0  1  0  0  0  0  0  0  0  0  0
  139.1300   77.8270  221.4310 C   0  0  0  0  0  0  0  0  0  0  0  0
  139.4510   78.6460  222.4800 O   0  0  0  0  0  0  0  0  0  0  0  0
  140.5130   79.3580  222.8760 C   0  0  0  0  0  0  0  0  0  0  0  0
  140.5330   80.5970  223.4710 C   0  0  0  0  0  0  0  0  0  0  0  0
  141.7010   81.2430  223.8440 C   0  0  0  0  0  0  0  0  0  0  0  0
  142.9240   80.6530  223.6260 C   0  0  0  0  0  0  0  0  0  0  0  0
  142.9380   79.4110  223.0310 C   0  0  0  0  0  0  0  0  0  0  0  0
  141.7840   78.7830  222.6670 C   0  0  0  0  0  0  0  0  0  0  0  0
  139.1680   70.4110  223.9880 C   0  0  0  0  0  0  0  0  0  0  0  0
  138.9470   69.0500  224.0050 C   0  0  0  0  0  0  0  0  0  0  0  0
  139.3100   68.2530  225.0720 C   0  0  0  0  0  0  0  0  0  0  0  0
  139.9180   68.8910  226.1480 C   0  0  0  0  0  0  0  0  0  0  0  0
  140.3160   68.1730  227.2620 C   0  0  0  0  0  0  0  0  0  0  0  0
  140.9170   68.7720  228.3370 C   0  0  0  0  0  0  0  0  0  0  0  0
  141.1330   70.1380  228.3100 C   0  0  0  0  0  0  0  0  0  0  0  0
  140.7430   70.8470  227.2130 C   0  0  0  0  0  0  0  0  0  0  0  0
  140.1340   70.2550  226.1200 C   0  0  0  0  0  0  0  0  0  0  0  0
  139.7580   70.9840  225.0490 N   0  0  0  0  0  0  0  0  0  0  0  0
  139.7110   72.9410  223.5090 H   0  0  0  0  0  0  0  0  0  0  0  0
  139.4965   73.2468  220.7688 H   0  0  0  0  0  0  0  0  0  0  0  0
  137.7565   73.0444  221.2358 H   0  0  0  0  0  0  0  0  0  0  0  0
  136.4642   74.9784  219.9999 H   0  0  0  0  0  0  0  0  0  0  0  0
  136.1816   74.2789  221.6151 H   0  0  0  0  0  0  0  0  0  0  0  0
  135.3209   76.9165  220.4559 H   0  0  0  0  0  0  0  0  0  0  0  0
  134.4326   75.7088  221.5255 H   0  0  0  0  0  0  0  0  0  0  0  0
  134.9096   77.9636  222.4748 H   0  0  0  0  0  0  0  0  0  0  0  0
  135.4233   76.4489  223.3991 H   0  0  0  0  0  0  0  0  0  0  0  0
  136.9606   78.7408  222.7503 H   0  0  0  0  0  0  0  0  0  0  0  0
  137.4304   77.2702  223.6406 H   0  0  0  0  0  0  0  0  0  0  0  0
  137.4090   77.5238  220.5320 H   0  0  0  0  0  0  0  0  0  0  0  0
  139.8876   77.0311  221.3799 H   0  0  0  0  0  0  0  0  0  0  0  0
  139.1024   78.4753  220.5428 H   0  0  0  0  0  0  0  0  0  0  0  0
  139.5738   81.1010  223.6606 H   0  0  0  0  0  0  0  0  0  0  0  0
  141.6495   82.2345  224.3177 H   0  0  0  0  0  0  0  0  0  0  0  0
  143.8583   81.1555  223.9167 H   0  0  0  0  0  0  0  0  0  0  0  0
  143.9019   78.9146  222.8453 H   0  0  0  0  0  0  0  0  0  0  0  0
  141.8463   77.7922  222.1933 H   0  0  0  0  0  0  0  0  0  0  0  0
  138.4631   68.5816  223.1353 H   0  0  0  0  0  0  0  0  0  0  0  0
  139.1276   67.1682  225.0713 H   0  0  0  0  0  0  0  0  0  0  0  0
  140.1442   67.0867  227.2848 H   0  0  0  0  0  0  0  0  0  0  0  0
  141.2234   68.1756  229.2090 H   0  0  0  0  0  0  0  0  0  0  0  0
  141.6122   70.6445  229.1608 H   0  0  0  0  0  0  0  0  0  0  0  0
  140.9192   71.9327  227.1957 H   0  0  0  0  0  0  0  0  0  0  0  0
  1  2  2  0
  2  3  1  0
  3  4  1  0
  4  5  1  0
  5  6  2  0
  5  7  1  0
  7  8  1  0
  8  9  1  0
  9 10  1  0
 10 11  1  0
 11 12  1  0
 12 13  1  0
 13 14  1  0
 14 15  1  0
 15 16  2  0
 16 17  1  0
 17 18  2  0
 18 19  1  0
 19 20  2  0
  2 21  1  0
 21 22  2  0
 22 23  1  0
 23 24  2  0
 24 25  1  0
 25 26  2  0
 26 27  1  0
 27 28  2  0
 28 29  1  0
 29 30  2  0
 12  7  1  0
 20 15  1  0
 30 21  1  0
 29 24  1  0
  3 31  1  0
  4 32  1  0
  4 33  1  0
  8 34  1  0
  8 35  1  0
  9 36  1  0
  9 37  1  0
 10 38  1  0
 10 39  1  0
 11 40  1  0
 11 41  1  0
 12 42  1  6
 13 43  1  0
 13 44  1  0
 16 45  1  0
 17 46  1  0
 18 47  1  0
 19 48  1  0
 20 49  1  0
 22 50  1  0
 23 51  1  0
 25 52  1  0
 26 53  1  0
 27 54  1  0
 28 55  1  0
M  END
>  <smiles>  (49) 
O=C(NCC(=O)N1CCCC[C@H]1COc1ccccc1)c1ccc2ccccc2n1

>  <score_type>  (49) 
oracle

>  <origin>  (49) 
autodockgpu

>  <m_score__min__energy>  (49) 
-9.1300000000000008

>  <m_primary>  (49) 
energy

>  <rmsd>  (49) 
2.8411983879628555

>  <m_score__min__rmsd>  (49) 
2.8411983879628555

>  <meeko>  (49) 
{"free_energy": -8.1, "intermolecular_energy": -10.19, "internal_energy": -1.88, "cluster_size": 2, "cluster_id": 3, "rank_in_cluster": 2}

>  <energy>  (49) 
-7.99

>  <cluster_rmsd>  (49) 
0.0

>  <cluster>  (49) 
5

$$$$

     RDKit          3D

 55 58  0  0  0  0  0  0  0  0999 V2000
  140.0460   71.1560  221.2260 O   0  0  0  0  0  0  0  0  0  0  0  0
  139.6400   71.7790  222.2530 C   0  0  0  0  0  0  0  0  0  0  0  0
  139.0120   73.0650  222.1590 N   0  0  0  0  0  0  0  0  0  0  0  0
  138.8200   73.7000  220.8570 C   0  0  0  0  0  0  0  0  0  0  0  0
  140.0920   73.8940  220.1580 C   0  0  0  0  0  0  0  0  0  0  0  0
  140.0760   73.5550  218.9040 O   0  0  0  0  0  0  0  0  0  0  0  0
  141.3080   74.3800  220.6200 N   0  0  0  0  0  0  0  0  0  0  0  0
  142.4370   73.3940  220.5510 C   0  0  0  0  0  0  0  0  0  0  0  0
  143.7230   74.1780  220.4370 C   0  0  0  0  0  0  0  0  0  0  0  0
  143.6230   75.4580  219.6880 C   0  0  0  0  0  0  0  0  0  0  0  0
  142.4540   76.3330  220.0280 C   0  0  0  0  0  0  0  0  0  0  0  0
  141.6830   75.6500  221.1560 C   0  0  1  0  0  0  0  0  0  0  0  0
  140.6360   76.5060  221.7380 C   0  0  0  0  0  0  0  0  0  0  0  0
  141.0230   77.2820  222.7970 O   0  0  0  0  0  0  0  0  0  0  0  0
  141.2140   78.5850  223.0360 C   0  0  0  0  0  0  0  0  0  0  0  0
  140.2690   79.5510  223.2910 C   0  0  0  0  0  0  0  0  0  0  0  0
  140.5830   80.8790  223.5300 C   0  0  0  0  0  0  0  0  0  0  0  0
  141.8930   81.2980  223.5200 C   0  0  0  0  0  0  0  0  0  0  0  0
  142.8640   80.3550  223.2670 C   0  0  0  0  0  0  0  0  0  0  0  0
  142.5460   79.0500  223.0330 C   0  0  0  0  0  0  0  0  0  0  0  0
  139.8150   71.1740  223.5900 C   0  0  0  0  0  0  0  0  0  0  0  0
  139.4370   69.8620  223.7870 C   0  0  0  0  0  0  0  0  0  0  0  0
  139.5690   69.2280  225.0060 C   0  0  0  0  0  0  0  0  0  0  0  0
  140.1080   69.9790  226.0450 C   0  0  0  0  0  0  0  0  0  0  0  0
  140.2780   69.4270  227.3020 C   0  0  0  0  0  0  0  0  0  0  0  0
  140.8060   70.1400  228.3440 C   0  0  0  0  0  0  0  0  0  0  0  0
  141.1820   71.4550  228.1360 C   0  0  0  0  0  0  0  0  0  0  0  0
  141.0160   72.0020  226.8970 C   0  0  0  0  0  0  0  0  0  0  0  0
  140.4830   71.2920  225.8350 C   0  0  0  0  0  0  0  0  0  0  0  0
  140.3310   71.8610  224.6210 N   0  0  0  0  0  0  0  0  0  0  0  0
  138.7100   73.5020  223.0560 H   0  0  0  0  0  0  0  0  0  0  0  0
  138.1684   73.0623  220.2416 H   0  0  0  0  0  0  0  0  0  0  0  0
  138.3635   74.6874  221.0202 H   0  0  0  0  0  0  0  0  0  0  0  0
  142.4530   72.7780  221.4622 H   0  0  0  0  0  0  0  0  0  0  0  0
  142.3140   72.7264  219.6854 H   0  0  0  0  0  0  0  0  0  0  0  0
  144.0731   74.4063  221.4545 H   0  0  0  0  0  0  0  0  0  0  0  0
  144.4157   73.5440  219.8641 H   0  0  0  0  0  0  0  0  0  0  0  0
  144.5405   76.0330  219.8818 H   0  0  0  0  0  0  0  0  0  0  0  0
  143.4818   75.1732  218.6349 H   0  0  0  0  0  0  0  0  0  0  0  0
  142.8076   77.3206  220.3589 H   0  0  0  0  0  0  0  0  0  0  0  0
  141.8086   76.4768  219.1489 H   0  0  0  0  0  0  0  0  0  0  0  0
  142.2765   75.4734  222.0652 H   0  0  0  0  0  0  0  0  0  0  0  0
  140.2676   77.1747  220.9461 H   0  0  0  0  0  0  0  0  0  0  0  0
  139.8732   75.8190  222.1333 H   0  0  0  0  0  0  0  0  0  0  0  0
  139.2099   79.2541  223.3060 H   0  0  0  0  0  0  0  0  0  0  0  0
  139.7793   81.6032  223.7291 H   0  0  0  0  0  0  0  0  0  0  0  0
  142.1558   82.3495  223.7076 H   0  0  0  0  0  0  0  0  0  0  0  0
  143.9203   80.6616  223.2534 H   0  0  0  0  0  0  0  0  0  0  0  0
  143.3571   78.3339  222.8348 H   0  0  0  0  0  0  0  0  0  0  0  0
  139.0146   69.3000  222.9410 H   0  0  0  0  0  0  0  0  0  0  0  0
  139.2631   68.1810  225.1485 H   0  0  0  0  0  0  0  0  0  0  0  0
  139.9793   68.3817  227.4693 H   0  0  0  0  0  0  0  0  0  0  0  0
  140.9297   69.6742  229.3328 H   0  0  0  0  0  0  0  0  0  0  0  0
  141.6082   72.0505  228.9568 H   0  0  0  0  0  0  0  0  0  0  0  0
  141.3174   73.0476  226.7359 H   0  0  0  0  0  0  0  0  0  0  0  0
  1  2  2  0
  2  3  1  0
  3  4  1  0
  4  5  1  0
  5  6  2  0
  5  7  1  0
  7  8  1  0
  8  9  1  0
  9 10  1  0
 10 11  1  0
 11 12  1  0
 12 13  1  0
 13 14  1  0
 14 15  1  0
 15 16  2  0
 16 17  1  0
 17 18  2  0
 18 19  1  0
 19 20  2  0
  2 21  1  0
 21 22  2  0
 22 23  1  0
 23 24  2  0
 24 25  1  0
 25 26  2  0
 26 27  1  0
 27 28  2  0
 28 29  1  0
 29 30  2  0
 12  7  1  0
 20 15  1  0
 30 21  1  0
 29 24  1  0
  3 31  1  0
  4 32  1  0
  4 33  1  0
  8 34  1  0
  8 35  1  0
  9 36  1  0
  9 37  1  0
 10 38  1  0
 10 39  1  0
 11 40  1  0
 11 41  1  0
 12 42  1  1
 13 43  1  0
 13 44  1  0
 16 45  1  0
 17 46  1  0
 18 47  1  0
 19 48  1  0
 20 49  1  0
 22 50  1  0
 23 51  1  0
 25 52  1  0
 26 53  1  0
 27 54  1  0
 28 55  1  0
M  END
>  <smiles>  (50) 
O=C(NCC(=O)N1CCCC[C@H]1COc1ccccc1)c1ccc2ccccc2n1

>  <score_type>  (50) 
oracle

>  <origin>  (50) 
autodockgpu

>  <m_score__min__energy>  (50) 
-9.1300000000000008

>  <m_primary>  (50) 
energy

>  <rmsd>  (50) 
2.4854039763210882

>  <m_score__min__rmsd>  (50) 
2.4854039763210882

>  <meeko>  (50) 
{"free_energy": -9.03, "intermolecular_energy": -11.12, "internal_energy": -1.63, "cluster_size": 32, "cluster_id": 1, "rank_in_cluster": 2}

>  <energy>  (50) 
-7.8

>  <cluster_rmsd>  (50) 
0.65

>  <cluster>  (50) 
5

$$$$
