
     RDKit          3D

 49 52  0  0  0  0  0  0  0  0999 V2000
  139.3410   71.8530  220.6620 O   0  0  0  0  0  0  0  0  0  0  0  0
  140.1170   72.1630  221.5970 C   0  0  0  0  0  0  0  0  0  0  0  0
  141.1720   73.1070  221.4720 N   0  0  0  0  0  0  0  0  0  0  0  0
  141.3600   73.7530  220.1710 C   0  0  0  0  0  0  0  0  0  0  0  0
  141.5640   75.1990  220.4480 C   0  0  0  0  0  0  0  0  0  0  0  0
  142.6170   75.8200  220.1390 O   0  0  0  0  0  0  0  0  0  0  0  0
  140.5480   75.9550  221.0920 N   0  0  0  0  0  0  0  0  0  0  0  0
  139.9000   75.6250  222.3460 C   0  0  0  0  0  0  0  0  0  0  0  0
  138.5570   76.3200  222.3520 C   0  0  2  0  0  0  0  0  0  0  0  0
  137.5170   75.4300  222.6130 O   0  0  0  0  0  0  0  0  0  0  0  0
  138.4740   76.8780  220.9470 C   0  0  0  0  0  0  0  0  0  0  0  0
  139.9260   77.2070  220.6670 C   0  0  1  0  0  0  0  0  0  0  0  0
  140.4390   78.2770  221.5390 C   0  0  0  0  0  0  0  0  0  0  0  0
  139.6610   79.1560  222.2440 C   0  0  0  0  0  0  0  0  0  0  0  0
  140.1570   80.1530  223.0580 C   0  0  0  0  0  0  0  0  0  0  0  0
  141.5190   80.3040  223.1940 C   0  0  0  0  0  0  0  0  0  0  0  0
  142.2270   81.5420  224.2060 Cl  0  0  0  0  0  0  0  0  0  0  0  0
  142.3320   79.4320  222.4950 C   0  0  0  0  0  0  0  0  0  0  0  0
  141.8230   78.4310  221.6780 C   0  0  0  0  0  0  0  0  0  0  0  0
  139.9320   71.5170  222.9070 C   0  0  0  0  0  0  0  0  0  0  0  0
  139.0720   70.4400  223.0500 C   0  0  0  0  0  0  0  0  0  0  0  0
  138.8730   69.8050  224.2630 C   0  0  0  0  0  0  0  0  0  0  0  0
  139.5610   70.2750  225.3650 C   0  0  0  0  0  0  0  0  0  0  0  0
  139.3550   69.6360  226.5690 C   0  0  0  0  0  0  0  0  0  0  0  0
  140.0320   70.0850  227.6890 C   0  0  0  0  0  0  0  0  0  0  0  0
  139.8120   69.4390  228.8670 F   0  0  0  0  0  0  0  0  0  0  0  0
  140.8940   71.1560  227.5720 C   0  0  0  0  0  0  0  0  0  0  0  0
  141.0850   71.7840  226.3420 C   0  0  0  0  0  0  0  0  0  0  0  0
  140.4130   71.3470  225.2090 C   0  0  0  0  0  0  0  0  0  0  0  0
  140.5850   71.9430  224.0100 N   0  0  0  0  0  0  0  0  0  0  0  0
  141.8130   73.3520  222.2740 H   0  0  0  0  0  0  0  0  0  0  0  0
  142.2410   73.3348  219.6620 H   0  0  0  0  0  0  0  0  0  0  0  0
  140.4920   73.5904  219.5151 H   0  0  0  0  0  0  0  0  0  0  0  0
  139.7614   74.5365  222.4235 H   0  0  0  0  0  0  0  0  0  0  0  0
  140.5123   75.9513  223.1996 H   0  0  0  0  0  0  0  0  0  0  0  0
  138.4656   77.0872  223.1349 H   0  0  0  0  0  0  0  0  0  0  0  0
  137.9390   74.6060  222.9690 H   0  0  0  0  0  0  0  0  0  0  0  0
  138.0878   76.1295  220.2395 H   0  0  0  0  0  0  0  0  0  0  0  0
  137.7919   77.7348  220.8441 H   0  0  0  0  0  0  0  0  0  0  0  0
  140.1042   77.5428  219.6348 H   0  0  0  0  0  0  0  0  0  0  0  0
  138.5687   79.0608  222.1554 H   0  0  0  0  0  0  0  0  0  0  0  0
  139.4693   80.8229  223.5949 H   0  0  0  0  0  0  0  0  0  0  0  0
  143.4231   79.5347  222.5893 H   0  0  0  0  0  0  0  0  0  0  0  0
  142.5078   77.7590  221.1400 H   0  0  0  0  0  0  0  0  0  0  0  0
  138.5272   70.0764  222.1663 H   0  0  0  0  0  0  0  0  0  0  0  0
  138.1862   68.9499  224.3476 H   0  0  0  0  0  0  0  0  0  0  0  0
  138.6637   68.7831  226.6382 H   0  0  0  0  0  0  0  0  0  0  0  0
  141.4360   71.5180  228.4581 H   0  0  0  0  0  0  0  0  0  0  0  0
  141.7767   72.6362  226.2686 H   0  0  0  0  0  0  0  0  0  0  0  0
  1  2  2  0
  2  3  1  0
  3  4  1  0
  4  5  1  0
  5  6  2  0
  5  7  1  0
  7  8  1  0
  8  9  1  0
  9 10  1  0
  9 11  1  0
 11 12  1  0
 12 13  1  0
 13 14  2  0
 14 15  1  0
 15 16  2  0
 16 17  1  0
 16 18  1  0
 18 19  2  0
  2 20  1  0
 20 21  2  0
 21 22  1  0
 22 23  2  0
 23 24  1  0
 24 25  2  0
 25 26  1  0
 25 27  1  0
 27 28  2  0
 28 29  1  0
 29 30  2  0
 12  7  1  0
 19 13  1  0
 30 20  1  0
 29 23  1  0
  3 31  1  0
  4 32  1  0
  4 33  1  0
  8 34  1  0
  8 35  1  0
  9 36  1  1
 10 37  1  0
 11 38  1  0
 11 39  1  0
 12 40  1  6
 14 41  1  0
 15 42  1  0
 18 43  1  0
 19 44  1  0
 21 45  1  0
 22 46  1  0
 24 47  1  0
 27 48  1  0
 28 49  1  0
M  END
>  <smiles>  (1) 
O=C(NCC(=O)N1C[C@H](O)C[C@H]1c1ccc(Cl)cc1)c1ccc2cc(F)ccc2n1

>  <score_type>  (1) 
oracle

>  <origin>  (1) 
autodockgpu

>  <m_score__min__energy>  (1) 
-8.7400000000000002

>  <m_primary>  (1) 
energy

>  <rmsd>  (1) 
2.7450577102158578

>  <m_score__min__rmsd>  (1) 
2.7450577102158578

>  <meeko>  (1) 
{"free_energy": -7.74, "intermolecular_energy": -9.53, "internal_energy": -1.62, "cluster_size": 37, "cluster_id": 1, "rank_in_cluster": 36}

>  <energy>  (1) 
-8.74

>  <cluster_rmsd>  (1) 
0.0

>  <cluster>  (1) 
1

$$$$

     RDKit          3D

 49 52  0  0  0  0  0  0  0  0999 V2000
  138.4690   70.6930  221.7490 O   0  0  0  0  0  0  0  0  0  0  0  0
  139.0410   71.2340  222.7250 C   0  0  0  0  0  0  0  0  0  0  0  0
  139.4240   72.6020  222.7610 N   0  0  0  0  0  0  0  0  0  0  0  0
  139.1320   73.4240  221.5840 C   0  0  0  0  0  0  0  0  0  0  0  0
  139.9680   74.6470  221.7100 C   0  0  0  0  0  0  0  0  0  0  0  0
  141.2280   74.6210  221.7570 O   0  0  0  0  0  0  0  0  0  0  0  0
  139.3570   75.9280  221.7840 N   0  0  0  0  0  0  0  0  0  0  0  0
  138.3340   76.3340  222.7270 C   0  0  0  0  0  0  0  0  0  0  0  0
  137.5880   77.4940  222.1050 C   0  0  2  0  0  0  0  0  0  0  0  0
  136.2130   77.2700  222.0830 O   0  0  0  0  0  0  0  0  0  0  0  0
  138.1680   77.5400  220.7070 C   0  0  0  0  0  0  0  0  0  0  0  0
  139.5970   77.1090  220.9590 C   0  0  1  0  0  0  0  0  0  0  0  0
  140.3420   78.0800  221.7790 C   0  0  0  0  0  0  0  0  0  0  0  0
  141.1280   77.7620  222.8540 C   0  0  0  0  0  0  0  0  0  0  0  0
  141.8200   78.6840  223.6110 C   0  0  0  0  0  0  0  0  0  0  0  0
  141.7370   80.0220  223.2940 C   0  0  0  0  0  0  0  0  0  0  0  0
  142.5820   81.2530  224.2040 Cl  0  0  0  0  0  0  0  0  0  0  0  0
  140.9500   80.3760  222.2140 C   0  0  0  0  0  0  0  0  0  0  0  0
  140.2570   79.4400  221.4580 C   0  0  0  0  0  0  0  0  0  0  0  0
  139.3370   70.4130  223.9110 C   0  0  0  0  0  0  0  0  0  0  0  0
  139.0140   69.0660  223.9370 C   0  0  0  0  0  0  0  0  0  0  0  0
  139.2760   68.2600  225.0310 C   0  0  0  0  0  0  0  0  0  0  0  0
  139.8830   68.8340  226.1310 C   0  0  0  0  0  0  0  0  0  0  0  0
  140.1400   68.0240  227.2170 C   0  0  0  0  0  0  0  0  0  0  0  0
  140.7470   68.5730  228.3330 C   0  0  0  0  0  0  0  0  0  0  0  0
  140.9910   67.7530  229.3920 F   0  0  0  0  0  0  0  0  0  0  0  0
  141.0790   69.9110  228.3300 C   0  0  0  0  0  0  0  0  0  0  0  0
  140.8090   70.7100  227.2190 C   0  0  0  0  0  0  0  0  0  0  0  0
  140.1990   70.1750  226.0930 C   0  0  0  0  0  0  0  0  0  0  0  0
  139.9290   70.9330  225.0080 N   0  0  0  0  0  0  0  0  0  0  0  0
  139.9060   73.0370  223.5930 H   0  0  0  0  0  0  0  0  0  0  0  0
  139.3916   72.8785  220.6648 H   0  0  0  0  0  0  0  0  0  0  0  0
  138.0626   73.6753  221.5277 H   0  0  0  0  0  0  0  0  0  0  0  0
  137.6430   75.4993  222.9161 H   0  0  0  0  0  0  0  0  0  0  0  0
  138.7824   76.6278  223.6875 H   0  0  0  0  0  0  0  0  0  0  0  0
  137.7044   78.4367  222.6597 H   0  0  0  0  0  0  0  0  0  0  0  0
  135.9330   77.1670  223.0300 H   0  0  0  0  0  0  0  0  0  0  0  0
  137.6502   76.8409  220.0339 H   0  0  0  0  0  0  0  0  0  0  0  0
  138.0750   78.5193  220.2148 H   0  0  0  0  0  0  0  0  0  0  0  0
  140.1799   76.9782  220.0353 H   0  0  0  0  0  0  0  0  0  0  0  0
  141.2132   76.7012  223.1322 H   0  0  0  0  0  0  0  0  0  0  0  0
  142.4338   78.3533  224.4618 H   0  0  0  0  0  0  0  0  0  0  0  0
  140.8698   81.4392  221.9434 H   0  0  0  0  0  0  0  0  0  0  0  0
  139.6414   79.7670  220.6071 H   0  0  0  0  0  0  0  0  0  0  0  0
  138.5311   68.6204  223.0548 H   0  0  0  0  0  0  0  0  0  0  0  0
  139.0086   67.1930  225.0248 H   0  0  0  0  0  0  0  0  0  0  0  0
  139.8669   66.9586  227.1966 H   0  0  0  0  0  0  0  0  0  0  0  0
  141.5622   70.3535  229.2136 H   0  0  0  0  0  0  0  0  0  0  0  0
  141.0824   71.7753  227.2355 H   0  0  0  0  0  0  0  0  0  0  0  0
  1  2  2  0
  2  3  1  0
  3  4  1  0
  4  5  1  0
  5  6  2  0
  5  7  1  0
  7  8  1  0
  8  9  1  0
  9 10  1  0
  9 11  1  0
 11 12  1  0
 12 13  1  0
 13 14  2  0
 14 15  1  0
 15 16  2  0
 16 17  1  0
 16 18  1  0
 18 19  2  0
  2 20  1  0
 20 21  2  0
 21 22  1  0
 22 23  2  0
 23 24  1  0
 24 25  2  0
 25 26  1  0
 25 27  1  0
 27 28  2  0
 28 29  1  0
 29 30  2  0
 12  7  1  0
 19 13  1  0
 30 20  1  0
 29 23  1  0
  3 31  1  0
  4 32  1  0
  4 33  1  0
  8 34  1  0
  8 35  1  0
  9 36  1  1
 10 37  1  0
 11 38  1  0
 11 39  1  0
 12 40  1  6
 14 41  1  0
 15 42  1  0
 18 43  1  0
 19 44  1  0
 21 45  1  0
 22 46  1  0
 24 47  1  0
 27 48  1  0
 28 49  1  0
M  END
>  <smiles>  (2) 
O=C(NCC(=O)N1C[C@H](O)C[C@H]1c1ccc(Cl)cc1)c1ccc2cc(F)ccc2n1

>  <score_type>  (2) 
oracle

>  <origin>  (2) 
autodockgpu

>  <m_score__min__energy>  (2) 
-8.7400000000000002

>  <m_primary>  (2) 
energy

>  <rmsd>  (2) 
2.455969252382308

>  <m_score__min__rmsd>  (2) 
2.455969252382308

>  <meeko>  (2) 
{"free_energy": -8.39, "intermolecular_energy": -10.18, "internal_energy": -1.47, "cluster_size": 37, "cluster_id": 1, "rank_in_cluster": 9}

>  <energy>  (2) 
-8.71

>  <cluster_rmsd>  (2) 
0.74

>  <cluster>  (2) 
1

$$$$

     RDKit          3D

 49 52  0  0  0  0  0  0  0  0999 V2000
  141.0280   71.6540  221.4500 O   0  0  0  0  0  0  0  0  0  0  0  0
  140.2380   71.9810  222.3680 C   0  0  0  0  0  0  0  0  0  0  0  0
  139.4090   73.1350  222.3260 N   0  0  0  0  0  0  0  0  0  0  0  0
  139.4860   73.9890  221.1390 C   0  0  0  0  0  0  0  0  0  0  0  0
  139.2090   75.3740  221.6020 C   0  0  0  0  0  0  0  0  0  0  0  0
  138.5360   75.6360  222.6360 O   0  0  0  0  0  0  0  0  0  0  0  0
  139.7090   76.4870  220.8720 N   0  0  0  0  0  0  0  0  0  0  0  0
  138.9160   77.5020  220.2090 C   0  0  0  0  0  0  0  0  0  0  0  0
  139.7780   78.1050  219.1240 C   0  0  2  0  0  0  0  0  0  0  0  0
  139.1430   78.0740  217.8840 O   0  0  0  0  0  0  0  0  0  0  0  0
  141.0000   77.2120  219.1470 C   0  0  0  0  0  0  0  0  0  0  0  0
  141.0950   76.8690  220.6190 C   0  0  1  0  0  0  0  0  0  0  0  0
  141.3920   78.0470  221.4520 C   0  0  0  0  0  0  0  0  0  0  0  0
  141.8490   79.2480  220.9810 C   0  0  0  0  0  0  0  0  0  0  0  0
  142.1210   80.3420  221.7750 C   0  0  0  0  0  0  0  0  0  0  0  0
  141.9320   80.2570  223.1360 C   0  0  0  0  0  0  0  0  0  0  0  0
  142.2530   81.5980  224.2120 Cl  0  0  0  0  0  0  0  0  0  0  0  0
  141.4710   79.0570  223.6440 C   0  0  0  0  0  0  0  0  0  0  0  0
  141.2010   77.9610  222.8360 C   0  0  0  0  0  0  0  0  0  0  0  0
  140.1560   71.1260  223.5630 C   0  0  0  0  0  0  0  0  0  0  0  0
  139.5790   69.8680  223.4960 C   0  0  0  0  0  0  0  0  0  0  0  0
  139.4850   69.0350  224.5960 C   0  0  0  0  0  0  0  0  0  0  0  0
  139.9870   69.4870  225.8000 C   0  0  0  0  0  0  0  0  0  0  0  0
  139.8870   68.6500  226.8910 C   0  0  0  0  0  0  0  0  0  0  0  0
  140.3820   69.0770  228.1110 C   0  0  0  0  0  0  0  0  0  0  0  0
  140.2720   68.2330  229.1730 F   0  0  0  0  0  0  0  0  0  0  0  0
  140.9610   70.3250  228.2040 C   0  0  0  0  0  0  0  0  0  0  0  0
  141.0500   71.1530  227.0850 C   0  0  0  0  0  0  0  0  0  0  0  0
  140.5570   70.7400  225.8550 C   0  0  0  0  0  0  0  0  0  0  0  0
  140.6340   71.5280  224.7610 N   0  0  0  0  0  0  0  0  0  0  0  0
  138.7510   73.3910  223.1110 H   0  0  0  0  0  0  0  0  0  0  0  0
  140.4895   73.9304  220.6922 H   0  0  0  0  0  0  0  0  0  0  0  0
  138.7643   73.6724  220.3716 H   0  0  0  0  0  0  0  0  0  0  0  0
  138.0165   77.0485  219.7672 H   0  0  0  0  0  0  0  0  0  0  0  0
  138.5920   78.2729  220.9237 H   0  0  0  0  0  0  0  0  0  0  0  0
  140.0080   79.1680  219.2887 H   0  0  0  0  0  0  0  0  0  0  0  0
  138.1690   78.0590  218.0710 H   0  0  0  0  0  0  0  0  0  0  0  0
  140.8512   76.3113  218.5333 H   0  0  0  0  0  0  0  0  0  0  0  0
  141.9062   77.6810  218.7362 H   0  0  0  0  0  0  0  0  0  0  0  0
  141.8783   76.1303  220.8443 H   0  0  0  0  0  0  0  0  0  0  0  0
  142.0100   79.3471  219.8974 H   0  0  0  0  0  0  0  0  0  0  0  0
  142.4865   81.2763  221.3240 H   0  0  0  0  0  0  0  0  0  0  0  0
  141.3122   78.9672  224.7288 H   0  0  0  0  0  0  0  0  0  0  0  0
  140.8368   77.0245  223.2835 H   0  0  0  0  0  0  0  0  0  0  0  0
  139.1808   69.5188  222.5319 H   0  0  0  0  0  0  0  0  0  0  0  0
  139.0231   68.0401  224.5139 H   0  0  0  0  0  0  0  0  0  0  0  0
  139.4211   67.6583  226.7934 H   0  0  0  0  0  0  0  0  0  0  0  0
  141.3566   70.6711  229.1703 H   0  0  0  0  0  0  0  0  0  0  0  0
  141.5163   72.1449  227.1784 H   0  0  0  0  0  0  0  0  0  0  0  0
  1  2  2  0
  2  3  1  0
  3  4  1  0
  4  5  1  0
  5  6  2  0
  5  7  1  0
  7  8  1  0
  8  9  1  0
  9 10  1  0
  9 11  1  0
 11 12  1  0
 12 13  1  0
 13 14  2  0
 14 15  1  0
 15 16  2  0
 16 17  1  0
 16 18  1  0
 18 19  2  0
  2 20  1  0
 20 21  2  0
 21 22  1  0
 22 23  2  0
 23 24  1  0
 24 25  2  0
 25 26  1  0
 25 27  1  0
 27 28  2  0
 28 29  1  0
 29 30  2  0
 12  7  1  0
 19 13  1  0
 30 20  1  0
 29 23  1  0
  3 31  1  0
  4 32  1  0
  4 33  1  0
  8 34  1  0
  8 35  1  0
  9 36  1  1
 10 37  1  0
 11 38  1  0
 11 39  1  0
 12 40  1  6
 14 41  1  0
 15 42  1  0
 18 43  1  0
 19 44  1  0
 21 45  1  0
 22 46  1  0
 24 47  1  0
 27 48  1  0
 28 49  1  0
M  END
>  <smiles>  (3) 
O=C(NCC(=O)N1C[C@H](O)C[C@H]1c1ccc(Cl)cc1)c1ccc2cc(F)ccc2n1

>  <score_type>  (3) 
oracle

>  <origin>  (3) 
autodockgpu

>  <m_score__min__energy>  (3) 
-8.7400000000000002

>  <m_primary>  (3) 
energy

>  <rmsd>  (3) 
1.662086587062131

>  <m_score__min__rmsd>  (3) 
1.662086587062131

>  <meeko>  (3) 
{"free_energy": -8.38, "intermolecular_energy": -10.17, "internal_energy": -1.59, "cluster_size": 37, "cluster_id": 1, "rank_in_cluster": 10}

>  <energy>  (3) 
-8.71

>  <cluster_rmsd>  (3) 
0.57

>  <cluster>  (3) 
1

$$$$

     RDKit          3D

 49 52  0  0  0  0  0  0  0  0999 V2000
  140.2490   71.0800  221.3070 O   0  0  0  0  0  0  0  0  0  0  0  0
  139.7010   71.6430  222.2850 C   0  0  0  0  0  0  0  0  0  0  0  0
  138.8130   72.7460  222.1700 N   0  0  0  0  0  0  0  0  0  0  0  0
  138.5230   73.2520  220.8260 C   0  0  0  0  0  0  0  0  0  0  0  0
  138.3780   74.7260  220.9560 C   0  0  0  0  0  0  0  0  0  0  0  0
  137.2650   75.3160  220.9280 O   0  0  0  0  0  0  0  0  0  0  0  0
  139.5270   75.5460  221.1230 N   0  0  0  0  0  0  0  0  0  0  0  0
  140.0310   76.0680  222.3770 C   0  0  0  0  0  0  0  0  0  0  0  0
  140.8500   77.2970  222.0540 C   0  0  2  0  0  0  0  0  0  0  0  0
  140.4340   78.4030  222.7930 O   0  0  0  0  0  0  0  0  0  0  0  0
  140.5840   77.4840  220.5750 C   0  0  0  0  0  0  0  0  0  0  0  0
  140.4510   76.0480  220.1100 C   0  0  1  0  0  0  0  0  0  0  0  0
  141.7100   75.2950  220.2420 C   0  0  0  0  0  0  0  0  0  0  0  0
  141.8080   74.0000  220.6740 C   0  0  0  0  0  0  0  0  0  0  0  0
  142.9950   73.3070  220.7900 C   0  0  0  0  0  0  0  0  0  0  0  0
  144.1790   73.9290  220.4600 C   0  0  0  0  0  0  0  0  0  0  0  0
  145.7250   73.1210  220.5810 Cl  0  0  0  0  0  0  0  0  0  0  0  0
  144.1130   75.2370  220.0210 C   0  0  0  0  0  0  0  0  0  0  0  0
  142.9130   75.9260  219.9070 C   0  0  0  0  0  0  0  0  0  0  0  0
  139.9890   71.1390  223.6380 C   0  0  0  0  0  0  0  0  0  0  0  0
  140.6890   71.9140  224.5490 C   0  0  0  0  0  0  0  0  0  0  0  0
  140.9780   71.4760  225.8290 C   0  0  0  0  0  0  0  0  0  0  0  0
  140.5480   70.2160  226.1990 C   0  0  0  0  0  0  0  0  0  0  0  0
  140.8420   69.7890  227.4760 C   0  0  0  0  0  0  0  0  0  0  0  0
  140.4230   68.5310  227.8740 C   0  0  0  0  0  0  0  0  0  0  0  0
  140.7250   68.1310  229.1400 F   0  0  0  0  0  0  0  0  0  0  0  0
  139.7240   67.7410  226.9860 C   0  0  0  0  0  0  0  0  0  0  0  0
  139.4400   68.1970  225.6990 C   0  0  0  0  0  0  0  0  0  0  0  0
  139.8530   69.4550  225.2840 C   0  0  0  0  0  0  0  0  0  0  0  0
  139.5870   69.9130  224.0420 N   0  0  0  0  0  0  0  0  0  0  0  0
  138.3640   73.2050  223.0070 H   0  0  0  0  0  0  0  0  0  0  0  0
  139.3493   73.0097  220.1415 H   0  0  0  0  0  0  0  0  0  0  0  0
  137.6100   72.7956  220.4159 H   0  0  0  0  0  0  0  0  0  0  0  0
  139.1931   76.3365  223.0372 H   0  0  0  0  0  0  0  0  0  0  0  0
  140.6443   75.3155  222.8943 H   0  0  0  0  0  0  0  0  0  0  0  0
  141.9169   77.1876  222.2985 H   0  0  0  0  0  0  0  0  0  0  0  0
  139.4520   78.3150  222.8960 H   0  0  0  0  0  0  0  0  0  0  0  0
  139.6571   78.0503  220.4016 H   0  0  0  0  0  0  0  0  0  0  0  0
  141.3611   78.0568  220.0477 H   0  0  0  0  0  0  0  0  0  0  0  0
  140.1514   75.9584  219.0554 H   0  0  0  0  0  0  0  0  0  0  0  0
  140.8792   73.4775  220.9466 H   0  0  0  0  0  0  0  0  0  0  0  0
  142.9961   72.2653  221.1434 H   0  0  0  0  0  0  0  0  0  0  0  0
  145.0467   75.7524  219.7515 H   0  0  0  0  0  0  0  0  0  0  0  0
  142.9081   76.9676  219.5534 H   0  0  0  0  0  0  0  0  0  0  0  0
  141.0275   72.9149  224.2429 H   0  0  0  0  0  0  0  0  0  0  0  0
  141.5344   72.1128  226.5324 H   0  0  0  0  0  0  0  0  0  0  0  0
  141.4003   70.4371  228.1676 H   0  0  0  0  0  0  0  0  0  0  0  0
  139.3869   66.7408  227.2959 H   0  0  0  0  0  0  0  0  0  0  0  0
  138.8820   67.5517  225.0046 H   0  0  0  0  0  0  0  0  0  0  0  0
  1  2  2  0
  2  3  1  0
  3  4  1  0
  4  5  1  0
  5  6  2  0
  5  7  1  0
  7  8  1  0
  8  9  1  0
  9 10  1  0
  9 11  1  0
 11 12  1  0
 12 13  1  0
 13 14  2  0
 14 15  1  0
 15 16  2  0
 16 17  1  0
 16 18  1  0
 18 19  2  0
  2 20  1  0
 20 21  2  0
 21 22  1  0
 22 23  2  0
 23 24  1  0
 24 25  2  0
 25 26  1  0
 25 27  1  0
 27 28  2  0
 28 29  1  0
 29 30  2  0
 12  7  1  0
 19 13  1  0
 30 20  1  0
 29 23  1  0
  3 31  1  0
  4 32  1  0
  4 33  1  0
  8 34  1  0
  8 35  1  0
  9 36  1  6
 10 37  1  0
 11 38  1  0
 11 39  1  0
 12 40  1  6
 14 41  1  0
 15 42  1  0
 18 43  1  0
 19 44  1  0
 21 45  1  0
 22 46  1  0
 24 47  1  0
 27 48  1  0
 28 49  1  0
M  END
>  <smiles>  (4) 
O=C(NCC(=O)N1C[C@H](O)C[C@H]1c1ccc(Cl)cc1)c1ccc2cc(F)ccc2n1

>  <score_type>  (4) 
oracle

>  <origin>  (4) 
autodockgpu

>  <m_score__min__energy>  (4) 
-8.7400000000000002

>  <m_primary>  (4) 
energy

>  <rmsd>  (4) 
3.0975026318994523

>  <m_score__min__rmsd>  (4) 
3.0975026318994523

>  <meeko>  (4) 
{"free_energy": -7.85, "intermolecular_energy": -9.64, "internal_energy": -1.66, "cluster_size": 7, "cluster_id": 2, "rank_in_cluster": 7}

>  <energy>  (4) 
-8.67

>  <cluster_rmsd>  (4) 
0.93

>  <cluster>  (4) 
1

$$$$

     RDKit          3D

 49 52  0  0  0  0  0  0  0  0999 V2000
  140.3800   71.7570  221.2540 O   0  0  0  0  0  0  0  0  0  0  0  0
  139.6590   72.0460  222.2390 C   0  0  0  0  0  0  0  0  0  0  0  0
  138.7320   73.1230  222.2540 N   0  0  0  0  0  0  0  0  0  0  0  0
  138.6150   73.9410  221.0440 C   0  0  0  0  0  0  0  0  0  0  0  0
  138.7030   75.3570  221.4860 C   0  0  0  0  0  0  0  0  0  0  0  0
  137.7450   75.9740  222.0250 O   0  0  0  0  0  0  0  0  0  0  0  0
  139.9100   76.0880  221.3110 N   0  0  0  0  0  0  0  0  0  0  0  0
  140.6140   76.8340  222.3340 C   0  0  0  0  0  0  0  0  0  0  0  0
  141.4500   77.8790  221.6300 C   0  0  2  0  0  0  0  0  0  0  0  0
  141.2070   79.1570  222.1320 O   0  0  0  0  0  0  0  0  0  0  0  0
  140.9910   77.7470  220.1940 C   0  0  0  0  0  0  0  0  0  0  0  0
  140.7100   76.2620  220.1020 C   0  0  1  0  0  0  0  0  0  0  0  0
  141.9290   75.4490  220.2540 C   0  0  0  0  0  0  0  0  0  0  0  0
  141.9620   74.1620  220.7190 C   0  0  0  0  0  0  0  0  0  0  0  0
  143.1120   73.4130  220.8530 C   0  0  0  0  0  0  0  0  0  0  0  0
  144.3260   73.9640  220.5080 C   0  0  0  0  0  0  0  0  0  0  0  0
  145.8290   73.0820  220.6500 Cl  0  0  0  0  0  0  0  0  0  0  0  0
  144.3270   75.2630  220.0360 C   0  0  0  0  0  0  0  0  0  0  0  0
  143.1630   76.0090  219.9040 C   0  0  0  0  0  0  0  0  0  0  0  0
  139.7730   71.2280  223.4580 C   0  0  0  0  0  0  0  0  0  0  0  0
  139.3430   69.9110  223.4690 C   0  0  0  0  0  0  0  0  0  0  0  0
  139.4340   69.1090  224.5930 C   0  0  0  0  0  0  0  0  0  0  0  0
  139.9740   69.6570  225.7410 C   0  0  0  0  0  0  0  0  0  0  0  0
  140.0580   68.8500  226.8550 C   0  0  0  0  0  0  0  0  0  0  0  0
  140.5960   69.3720  228.0200 C   0  0  0  0  0  0  0  0  0  0  0  0
  140.6690   68.5570  229.1070 F   0  0  0  0  0  0  0  0  0  0  0  0
  141.0310   70.6810  228.0340 C   0  0  0  0  0  0  0  0  0  0  0  0
  140.9330   71.4760  226.8920 C   0  0  0  0  0  0  0  0  0  0  0  0
  140.3970   70.9680  225.7170 C   0  0  0  0  0  0  0  0  0  0  0  0
  140.2940   71.7220  224.6020 N   0  0  0  0  0  0  0  0  0  0  0  0
  138.1360   73.3490  223.0950 H   0  0  0  0  0  0  0  0  0  0  0  0
  139.4333   73.7084  220.3467 H   0  0  0  0  0  0  0  0  0  0  0  0
  137.6683   73.7447  220.5194 H   0  0  0  0  0  0  0  0  0  0  0  0
  139.8939   77.3195  223.0091 H   0  0  0  0  0  0  0  0  0  0  0  0
  141.2485   76.1673  222.9364 H   0  0  0  0  0  0  0  0  0  0  0  0
  142.5326   77.7338  221.7596 H   0  0  0  0  0  0  0  0  0  0  0  0
  140.2870   79.1390  222.5020 H   0  0  0  0  0  0  0  0  0  0  0  0
  140.0838   78.3400  220.0060 H   0  0  0  0  0  0  0  0  0  0  0  0
  141.7194   78.1122  219.4550 H   0  0  0  0  0  0  0  0  0  0  0  0
  140.2606   75.9628  219.1436 H   0  0  0  0  0  0  0  0  0  0  0  0
  141.0082   73.6944  221.0046 H   0  0  0  0  0  0  0  0  0  0  0  0
  143.0600   72.3820  221.2330 H   0  0  0  0  0  0  0  0  0  0  0  0
  145.2856   75.7232  219.7543 H   0  0  0  0  0  0  0  0  0  0  0  0
  143.2109   77.0403  219.5243 H   0  0  0  0  0  0  0  0  0  0  0  0
  138.9131   69.4869  222.5496 H   0  0  0  0  0  0  0  0  0  0  0  0
  139.0866   68.0655  224.5733 H   0  0  0  0  0  0  0  0  0  0  0  0
  139.7039   67.8091  226.8197 H   0  0  0  0  0  0  0  0  0  0  0  0
  141.4596   71.1023  228.9553 H   0  0  0  0  0  0  0  0  0  0  0  0
  141.2847   72.5178  226.9231 H   0  0  0  0  0  0  0  0  0  0  0  0
  1  2  2  0
  2  3  1  0
  3  4  1  0
  4  5  1  0
  5  6  2  0
  5  7  1  0
  7  8  1  0
  8  9  1  0
  9 10  1  0
  9 11  1  0
 11 12  1  0
 12 13  1  0
 13 14  2  0
 14 15  1  0
 15 16  2  0
 16 17  1  0
 16 18  1  0
 18 19  2  0
  2 20  1  0
 20 21  2  0
 21 22  1  0
 22 23  2  0
 23 24  1  0
 24 25  2  0
 25 26  1  0
 25 27  1  0
 27 28  2  0
 28 29  1  0
 29 30  2  0
 12  7  1  0
 19 13  1  0
 30 20  1  0
 29 23  1  0
  3 31  1  0
  4 32  1  0
  4 33  1  0
  8 34  1  0
  8 35  1  0
  9 36  1  6
 10 37  1  0
 11 38  1  0
 11 39  1  0
 12 40  1  6
 14 41  1  0
 15 42  1  0
 18 43  1  0
 19 44  1  0
 21 45  1  0
 22 46  1  0
 24 47  1  0
 27 48  1  0
 28 49  1  0
M  END
>  <smiles>  (5) 
O=C(NCC(=O)N1C[C@H](O)C[C@H]1c1ccc(Cl)cc1)c1ccc2cc(F)ccc2n1

>  <score_type>  (5) 
oracle

>  <origin>  (5) 
autodockgpu

>  <m_score__min__energy>  (5) 
-8.7400000000000002

>  <m_primary>  (5) 
energy

>  <rmsd>  (5) 
2.2212314780710707

>  <m_score__min__rmsd>  (5) 
2.2212314780710707

>  <meeko>  (5) 
{"free_energy": -8.11, "intermolecular_energy": -9.9, "internal_energy": -1.61, "cluster_size": 7, "cluster_id": 2, "rank_in_cluster": 2}

>  <energy>  (5) 
-8.65

>  <cluster_rmsd>  (5) 
0.87

>  <cluster>  (5) 
1

$$$$

     RDKit          3D

 49 52  0  0  0  0  0  0  0  0999 V2000
  140.4700   71.2720  221.6570 O   0  0  0  0  0  0  0  0  0  0  0  0
  139.7060   71.5210  222.6200 C   0  0  0  0  0  0  0  0  0  0  0  0
  138.7700   72.5910  222.6320 N   0  0  0  0  0  0  0  0  0  0  0  0
  138.6980   73.4500  221.4470 C   0  0  0  0  0  0  0  0  0  0  0  0
  139.6770   74.5470  221.6670 C   0  0  0  0  0  0  0  0  0  0  0  0
  140.8910   74.3450  221.9410 O   0  0  0  0  0  0  0  0  0  0  0  0
  139.2650   75.9040  221.5730 N   0  0  0  0  0  0  0  0  0  0  0  0
  138.2010   76.5300  222.3320 C   0  0  0  0  0  0  0  0  0  0  0  0
  137.7310   77.7280  221.5390 C   0  0  2  0  0  0  0  0  0  0  0  0
  136.3520   77.7020  221.3360 O   0  0  0  0  0  0  0  0  0  0  0  0
  138.4890   77.5740  220.2380 C   0  0  0  0  0  0  0  0  0  0  0  0
  139.7900   76.9650  220.7190 C   0  0  1  0  0  0  0  0  0  0  0  0
  140.5600   77.8850  221.5740 C   0  0  0  0  0  0  0  0  0  0  0  0
  141.0710   77.5710  222.8040 C   0  0  0  0  0  0  0  0  0  0  0  0
  141.7910   78.4440  223.5930 C   0  0  0  0  0  0  0  0  0  0  0  0
  142.0310   79.7240  223.1450 C   0  0  0  0  0  0  0  0  0  0  0  0
  142.9340   80.8910  224.0830 Cl  0  0  0  0  0  0  0  0  0  0  0  0
  141.5270   80.0730  221.9060 C   0  0  0  0  0  0  0  0  0  0  0  0
  140.8030   79.1860  221.1190 C   0  0  0  0  0  0  0  0  0  0  0  0
  139.7740   70.6610  223.8120 C   0  0  0  0  0  0  0  0  0  0  0  0
  139.2340   69.3850  223.7970 C   0  0  0  0  0  0  0  0  0  0  0  0
  139.2780   68.5470  224.8960 C   0  0  0  0  0  0  0  0  0  0  0  0
  139.8860   69.0130  226.0460 C   0  0  0  0  0  0  0  0  0  0  0  0
  139.9240   68.1700  227.1370 C   0  0  0  0  0  0  0  0  0  0  0  0
  140.5270   68.6110  228.3020 C   0  0  0  0  0  0  0  0  0  0  0  0
  140.5530   67.7610  229.3650 F   0  0  0  0  0  0  0  0  0  0  0  0
  141.0720   69.8770  228.3420 C   0  0  0  0  0  0  0  0  0  0  0  0
  141.0200   70.7100  227.2250 C   0  0  0  0  0  0  0  0  0  0  0  0
  140.4180   70.2840  226.0490 C   0  0  0  0  0  0  0  0  0  0  0  0
  140.3580   71.0760  224.9580 N   0  0  0  0  0  0  0  0  0  0  0  0
  138.1360   72.7830  223.4540 H   0  0  0  0  0  0  0  0  0  0  0  0
  138.9629   72.8782  220.5454 H   0  0  0  0  0  0  0  0  0  0  0  0
  137.6817   73.8445  221.3002 H   0  0  0  0  0  0  0  0  0  0  0  0
  137.3711   75.8218  222.4722 H   0  0  0  0  0  0  0  0  0  0  0  0
  138.5586   76.8359  223.3263 H   0  0  0  0  0  0  0  0  0  0  0  0
  137.9174   78.6873  222.0440 H   0  0  0  0  0  0  0  0  0  0  0  0
  136.0500   76.7940  221.5960 H   0  0  0  0  0  0  0  0  0  0  0  0
  137.9632   76.9025  219.5433 H   0  0  0  0  0  0  0  0  0  0  0  0
  138.6125   78.5117  219.6763 H   0  0  0  0  0  0  0  0  0  0  0  0
  140.4631   76.6751  219.8987 H   0  0  0  0  0  0  0  0  0  0  0  0
  140.8961   76.5555  223.1890 H   0  0  0  0  0  0  0  0  0  0  0  0
  142.1708   78.1200  224.5732 H   0  0  0  0  0  0  0  0  0  0  0  0
  141.7058   81.0908  221.5292 H   0  0  0  0  0  0  0  0  0  0  0  0
  140.4208   79.5062  220.1385 H   0  0  0  0  0  0  0  0  0  0  0  0
  138.7521   69.0251  222.8760 H   0  0  0  0  0  0  0  0  0  0  0  0
  138.8414   67.5381  224.8559 H   0  0  0  0  0  0  0  0  0  0  0  0
  139.4824   67.1640  227.0820 H   0  0  0  0  0  0  0  0  0  0  0  0
  141.5529   70.2335  229.2648 H   0  0  0  0  0  0  0  0  0  0  0  0
  141.4611   71.7164  227.2763 H   0  0  0  0  0  0  0  0  0  0  0  0
  1  2  2  0
  2  3  1  0
  3  4  1  0
  4  5  1  0
  5  6  2  0
  5  7  1  0
  7  8  1  0
  8  9  1  0
  9 10  1  0
  9 11  1  0
 11 12  1  0
 12 13  1  0
 13 14  2  0
 14 15  1  0
 15 16  2  0
 16 17  1  0
 16 18  1  0
 18 19  2  0
  2 20  1  0
 20 21  2  0
 21 22  1  0
 22 23  2  0
 23 24  1  0
 24 25  2  0
 25 26  1  0
 25 27  1  0
 27 28  2  0
 28 29  1  0
 29 30  2  0
 12  7  1  0
 19 13  1  0
 30 20  1  0
 29 23  1  0
  3 31  1  0
  4 32  1  0
  4 33  1  0
  8 34  1  0
  8 35  1  0
  9 36  1  1
 10 37  1  0
 11 38  1  0
 11 39  1  0
 12 40  1  6
 14 41  1  0
 15 42  1  0
 18 43  1  0
 19 44  1  0
 21 45  1  0
 22 46  1  0
 24 47  1  0
 27 48  1  0
 28 49  1  0
M  END
>  <smiles>  (6) 
O=C(NCC(=O)N1C[C@H](O)C[C@H]1c1ccc(Cl)cc1)c1ccc2cc(F)ccc2n1

>  <score_type>  (6) 
oracle

>  <origin>  (6) 
autodockgpu

>  <m_score__min__energy>  (6) 
-8.7400000000000002

>  <m_primary>  (6) 
energy

>  <rmsd>  (6) 
2.2428475914027883

>  <m_score__min__rmsd>  (6) 
2.2428475914027883

>  <meeko>  (6) 
{"free_energy": -8.71, "intermolecular_energy": -10.5, "internal_energy": -1.17, "cluster_size": 37, "cluster_id": 1, "rank_in_cluster": 3}

>  <energy>  (6) 
-8.49

>  <cluster_rmsd>  (6) 
1.22

>  <cluster>  (6) 
1

$$$$

     RDKit          3D

 49 52  0  0  0  0  0  0  0  0999 V2000
  140.3960   72.9970  222.6810 O   0  0  0  0  0  0  0  0  0  0  0  0
  140.4820   71.7500  222.7840 C   0  0  0  0  0  0  0  0  0  0  0  0
  140.5300   70.8650  221.6730 N   0  0  0  0  0  0  0  0  0  0  0  0
  140.4760   71.4500  220.3300 C   0  0  0  0  0  0  0  0  0  0  0  0
  141.7530   71.0830  219.6630 C   0  0  0  0  0  0  0  0  0  0  0  0
  141.9060   70.0210  219.0000 O   0  0  0  0  0  0  0  0  0  0  0  0
  142.8800   71.9430  219.7530 N   0  0  0  0  0  0  0  0  0  0  0  0
  144.0090   71.9720  218.8450 C   0  0  0  0  0  0  0  0  0  0  0  0
  145.1770   72.5650  219.6010 C   0  0  2  0  0  0  0  0  0  0  0  0
  146.2990   71.7420  219.5450 O   0  0  0  0  0  0  0  0  0  0  0  0
  144.6310   72.6690  221.0090 C   0  0  0  0  0  0  0  0  0  0  0  0
  143.1710   72.9740  220.7450 C   0  0  1  0  0  0  0  0  0  0  0  0
  142.9780   74.2830  220.0980 C   0  0  0  0  0  0  0  0  0  0  0  0
  143.8900   75.3040  220.1020 C   0  0  0  0  0  0  0  0  0  0  0  0
  143.6950   76.5230  219.4890 C   0  0  0  0  0  0  0  0  0  0  0  0
  142.5150   76.7660  218.8200 C   0  0  0  0  0  0  0  0  0  0  0  0
  142.1890   78.2860  218.0180 Cl  0  0  0  0  0  0  0  0  0  0  0  0
  141.5730   75.7550  218.7980 C   0  0  0  0  0  0  0  0  0  0  0  0
  141.7800   74.5300  219.4190 C   0  0  0  0  0  0  0  0  0  0  0  0
  140.5370   71.1580  224.1300 C   0  0  0  0  0  0  0  0  0  0  0  0
  140.9950   71.8950  225.2100 C   0  0  0  0  0  0  0  0  0  0  0  0
  141.0610   71.3750  226.4900 C   0  0  0  0  0  0  0  0  0  0  0  0
  140.6530   70.0690  226.6840 C   0  0  0  0  0  0  0  0  0  0  0  0
  140.7230   69.5590  227.9630 C   0  0  0  0  0  0  0  0  0  0  0  0
  140.3200   68.2540  228.1860 C   0  0  0  0  0  0  0  0  0  0  0  0
  140.3990   67.7730  229.4570 F   0  0  0  0  0  0  0  0  0  0  0  0
  139.8600   67.4990  227.1270 C   0  0  0  0  0  0  0  0  0  0  0  0
  139.7990   68.0390  225.8430 C   0  0  0  0  0  0  0  0  0  0  0  0
  140.2000   69.3460  225.6020 C   0  0  0  0  0  0  0  0  0  0  0  0
  140.1480   69.8850  224.3650 N   0  0  0  0  0  0  0  0  0  0  0  0
  140.6020   69.8180  221.7830 H   0  0  0  0  0  0  0  0  0  0  0  0
  139.6224   71.0402  219.7701 H   0  0  0  0  0  0  0  0  0  0  0  0
  140.3476   72.5416  220.3744 H   0  0  0  0  0  0  0  0  0  0  0  0
  144.2531   70.9515  218.5147 H   0  0  0  0  0  0  0  0  0  0  0  0
  143.7767   72.5720  217.9528 H   0  0  0  0  0  0  0  0  0  0  0  0
  145.5210   73.5260  219.1910 H   0  0  0  0  0  0  0  0  0  0  0  0
  146.4700   71.4410  220.4750 H   0  0  0  0  0  0  0  0  0  0  0  0
  144.7511   71.7231  221.5574 H   0  0  0  0  0  0  0  0  0  0  0  0
  145.1399   73.4183  221.6332 H   0  0  0  0  0  0  0  0  0  0  0  0
  142.5583   72.9921  221.6584 H   0  0  0  0  0  0  0  0  0  0  0  0
  144.8414   75.1407  220.6294 H   0  0  0  0  0  0  0  0  0  0  0  0
  144.4759   77.2965  219.5335 H   0  0  0  0  0  0  0  0  0  0  0  0
  140.6240   75.9269  218.2690 H   0  0  0  0  0  0  0  0  0  0  0  0
  141.0017   73.7538  219.3769 H   0  0  0  0  0  0  0  0  0  0  0  0
  141.3184   72.9331  225.0432 H   0  0  0  0  0  0  0  0  0  0  0  0
  141.4278   71.9837  227.3296 H   0  0  0  0  0  0  0  0  0  0  0  0
  141.0931   70.1792  228.7926 H   0  0  0  0  0  0  0  0  0  0  0  0
  139.5382   66.4610  227.2972 H   0  0  0  0  0  0  0  0  0  0  0  0
  139.4287   67.4220  225.0110 H   0  0  0  0  0  0  0  0  0  0  0  0
  1  2  2  0
  2  3  1  0
  3  4  1  0
  4  5  1  0
  5  6  2  0
  5  7  1  0
  7  8  1  0
  8  9  1  0
  9 10  1  0
  9 11  1  0
 11 12  1  0
 12 13  1  0
 13 14  2  0
 14 15  1  0
 15 16  2  0
 16 17  1  0
 16 18  1  0
 18 19  2  0
  2 20  1  0
 20 21  2  0
 21 22  1  0
 22 23  2  0
 23 24  1  0
 24 25  2  0
 25 26  1  0
 25 27  1  0
 27 28  2  0
 28 29  1  0
 29 30  2  0
 12  7  1  0
 19 13  1  0
 30 20  1  0
 29 23  1  0
  3 31  1  0
  4 32  1  0
  4 33  1  0
  8 34  1  0
  8 35  1  0
  9 36  1  6
 10 37  1  0
 11 38  1  0
 11 39  1  0
 12 40  1  1
 14 41  1  0
 15 42  1  0
 18 43  1  0
 19 44  1  0
 21 45  1  0
 22 46  1  0
 24 47  1  0
 27 48  1  0
 28 49  1  0
M  END
>  <smiles>  (7) 
O=C(NCC(=O)N1C[C@H](O)C[C@H]1c1ccc(Cl)cc1)c1ccc2cc(F)ccc2n1

>  <score_type>  (7) 
oracle

>  <origin>  (7) 
autodockgpu

>  <m_score__min__energy>  (7) 
-8.7400000000000002

>  <m_primary>  (7) 
energy

>  <rmsd>  (7) 
4.423315151747231

>  <m_score__min__rmsd>  (7) 
4.423315151747231

>  <meeko>  (7) 
{"free_energy": -7.92, "intermolecular_energy": -9.71, "internal_energy": -1.7, "cluster_size": 1, "cluster_id": 4, "rank_in_cluster": 1}

>  <energy>  (7) 
-8.49

>  <cluster_rmsd>  (7) 
1.19

>  <cluster>  (7) 
1

$$$$

     RDKit          3D

 49 52  0  0  0  0  0  0  0  0999 V2000
  139.5900   71.2180  221.1330 O   0  0  0  0  0  0  0  0  0  0  0  0
  139.6090   71.7980  222.2450 C   0  0  0  0  0  0  0  0  0  0  0  0
  139.4870   73.2040  222.4090 N   0  0  0  0  0  0  0  0  0  0  0  0
  139.3300   74.0210  221.2030 C   0  0  0  0  0  0  0  0  0  0  0  0
  139.1510   75.4220  221.6680 C   0  0  0  0  0  0  0  0  0  0  0  0
  138.5160   75.7270  222.7130 O   0  0  0  0  0  0  0  0  0  0  0  0
  139.7080   76.4990  220.9250 N   0  0  0  0  0  0  0  0  0  0  0  0
  138.9670   77.5110  220.2000 C   0  0  0  0  0  0  0  0  0  0  0  0
  139.8860   78.0590  219.1320 C   0  0  2  0  0  0  0  0  0  0  0  0
  139.3000   78.0050  217.8700 O   0  0  0  0  0  0  0  0  0  0  0  0
  141.0840   77.1390  219.2320 C   0  0  0  0  0  0  0  0  0  0  0  0
  141.1120   76.8400  220.7160 C   0  0  1  0  0  0  0  0  0  0  0  0
  141.4050   78.0360  221.5250 C   0  0  0  0  0  0  0  0  0  0  0  0
  141.8820   79.2200  221.0320 C   0  0  0  0  0  0  0  0  0  0  0  0
  142.1490   80.3320  221.8020 C   0  0  0  0  0  0  0  0  0  0  0  0
  141.9360   80.2830  223.1620 C   0  0  0  0  0  0  0  0  0  0  0  0
  142.2500   81.6480  224.2090 Cl  0  0  0  0  0  0  0  0  0  0  0  0
  141.4550   79.1010  223.6920 C   0  0  0  0  0  0  0  0  0  0  0  0
  141.1890   77.9870  222.9070 C   0  0  0  0  0  0  0  0  0  0  0  0
  139.7650   70.9810  223.4600 C   0  0  0  0  0  0  0  0  0  0  0  0
  139.3870   69.6480  223.4720 C   0  0  0  0  0  0  0  0  0  0  0  0
  139.5190   68.8490  224.5930 C   0  0  0  0  0  0  0  0  0  0  0  0
  140.0480   69.4130  225.7370 C   0  0  0  0  0  0  0  0  0  0  0  0
  140.1750   68.6080  226.8490 C   0  0  0  0  0  0  0  0  0  0  0  0
  140.7030   69.1480  228.0090 C   0  0  0  0  0  0  0  0  0  0  0  0
  140.8180   68.3340  229.0940 F   0  0  0  0  0  0  0  0  0  0  0  0
  141.0870   70.4730  228.0230 C   0  0  0  0  0  0  0  0  0  0  0  0
  140.9480   71.2660  226.8840 C   0  0  0  0  0  0  0  0  0  0  0  0
  140.4200   70.7400  225.7130 C   0  0  0  0  0  0  0  0  0  0  0  0
  140.2780   71.4930  224.6010 N   0  0  0  0  0  0  0  0  0  0  0  0
  139.5060   73.6700  223.3550 H   0  0  0  0  0  0  0  0  0  0  0  0
  140.2260   73.9414  220.5698 H   0  0  0  0  0  0  0  0  0  0  0  0
  138.4712   73.6864  220.6026 H   0  0  0  0  0  0  0  0  0  0  0  0
  138.0745   77.0651  219.7367 H   0  0  0  0  0  0  0  0  0  0  0  0
  138.6344   78.3115  220.8772 H   0  0  0  0  0  0  0  0  0  0  0  0
  140.1358   79.1210  219.2728 H   0  0  0  0  0  0  0  0  0  0  0  0
  139.9420   78.4340  217.2460 H   0  0  0  0  0  0  0  0  0  0  0  0
  140.9379   76.2233  218.6403 H   0  0  0  0  0  0  0  0  0  0  0  0
  142.0171   77.5740  218.8445 H   0  0  0  0  0  0  0  0  0  0  0  0
  141.8673   76.0902  220.9943 H   0  0  0  0  0  0  0  0  0  0  0  0
  142.0645   79.2892  219.9495 H   0  0  0  0  0  0  0  0  0  0  0  0
  142.5294   81.2518  221.3337 H   0  0  0  0  0  0  0  0  0  0  0  0
  141.2762   79.0403  224.7757 H   0  0  0  0  0  0  0  0  0  0  0  0
  140.8083   77.0654  223.3715 H   0  0  0  0  0  0  0  0  0  0  0  0
  138.9661   69.2088  222.5555 H   0  0  0  0  0  0  0  0  0  0  0  0
  139.2110   67.7932  224.5739 H   0  0  0  0  0  0  0  0  0  0  0  0
  139.8619   67.5540  226.8150 H   0  0  0  0  0  0  0  0  0  0  0  0
  141.5070   70.9085  228.9417 H   0  0  0  0  0  0  0  0  0  0  0  0
  141.2604   72.3203  226.9141 H   0  0  0  0  0  0  0  0  0  0  0  0
  1  2  2  0
  2  3  1  0
  3  4  1  0
  4  5  1  0
  5  6  2  0
  5  7  1  0
  7  8  1  0
  8  9  1  0
  9 10  1  0
  9 11  1  0
 11 12  1  0
 12 13  1  0
 13 14  2  0
 14 15  1  0
 15 16  2  0
 16 17  1  0
 16 18  1  0
 18 19  2  0
  2 20  1  0
 20 21  2  0
 21 22  1  0
 22 23  2  0
 23 24  1  0
 24 25  2  0
 25 26  1  0
 25 27  1  0
 27 28  2  0
 28 29  1  0
 29 30  2  0
 12  7  1  0
 19 13  1  0
 30 20  1  0
 29 23  1  0
  3 31  1  0
  4 32  1  0
  4 33  1  0
  8 34  1  0
  8 35  1  0
  9 36  1  1
 10 37  1  0
 11 38  1  0
 11 39  1  0
 12 40  1  6
 14 41  1  0
 15 42  1  0
 18 43  1  0
 19 44  1  0
 21 45  1  0
 22 46  1  0
 24 47  1  0
 27 48  1  0
 28 49  1  0
M  END
>  <smiles>  (8) 
O=C(NCC(=O)N1C[C@H](O)C[C@H]1c1ccc(Cl)cc1)c1ccc2cc(F)ccc2n1

>  <score_type>  (8) 
oracle

>  <origin>  (8) 
autodockgpu

>  <m_score__min__energy>  (8) 
-8.7400000000000002

>  <m_primary>  (8) 
energy

>  <rmsd>  (8) 
1.5768299881594725

>  <m_score__min__rmsd>  (8) 
1.5768299881594725

>  <meeko>  (8) 
{"free_energy": -8.2, "intermolecular_energy": -9.99, "internal_energy": -1.64, "cluster_size": 37, "cluster_id": 1, "rank_in_cluster": 21}

>  <energy>  (8) 
-8.41

>  <cluster_rmsd>  (8) 
1.22

>  <cluster>  (8) 
1

$$$$

     RDKit          3D

 49 52  0  0  0  0  0  0  0  0999 V2000
  137.1070   75.9200  222.0780 O   0  0  0  0  0  0  0  0  0  0  0  0
  138.3460   75.9780  222.2680 C   0  0  0  0  0  0  0  0  0  0  0  0
  139.2120   74.8540  222.1970 N   0  0  0  0  0  0  0  0  0  0  0  0
  138.6180   73.5520  221.8830 C   0  0  0  0  0  0  0  0  0  0  0  0
  139.5840   72.5260  222.3590 C   0  0  0  0  0  0  0  0  0  0  0  0
  140.8150   72.7530  222.5080 O   0  0  0  0  0  0  0  0  0  0  0  0
  139.1370   71.2140  222.6720 N   0  0  0  0  0  0  0  0  0  0  0  0
  139.6210   69.9820  222.0810 C   0  0  0  0  0  0  0  0  0  0  0  0
  138.5290   68.9490  222.2450 C   0  0  2  0  0  0  0  0  0  0  0  0
  138.1990   68.3510  221.0300 O   0  0  0  0  0  0  0  0  0  0  0  0
  137.3820   69.7730  222.7900 C   0  0  0  0  0  0  0  0  0  0  0  0
  138.1190   70.7950  223.6310 C   0  0  1  0  0  0  0  0  0  0  0  0
  138.8110   70.1860  224.7790 C   0  0  0  0  0  0  0  0  0  0  0  0
  138.5220   68.9570  225.3090 C   0  0  0  0  0  0  0  0  0  0  0  0
  139.1810   68.4000  226.3840 C   0  0  0  0  0  0  0  0  0  0  0  0
  140.2030   69.0960  226.9900 C   0  0  0  0  0  0  0  0  0  0  0  0
  141.0880   68.4600  228.3570 Cl  0  0  0  0  0  0  0  0  0  0  0  0
  140.5200   70.3410  226.4780 C   0  0  0  0  0  0  0  0  0  0  0  0
  139.8490   70.8930  225.3950 C   0  0  0  0  0  0  0  0  0  0  0  0
  138.9480   77.2840  222.5830 C   0  0  0  0  0  0  0  0  0  0  0  0
  138.1540   78.4050  222.7600 C   0  0  0  0  0  0  0  0  0  0  0  0
  138.6820   79.6490  223.0580 C   0  0  0  0  0  0  0  0  0  0  0  0
  140.0530   79.7620  223.1800 C   0  0  0  0  0  0  0  0  0  0  0  0
  140.5690   81.0060  223.4760 C   0  0  0  0  0  0  0  0  0  0  0  0
  141.9400   81.1480  223.6040 C   0  0  0  0  0  0  0  0  0  0  0  0
  142.4260   82.3860  223.8970 F   0  0  0  0  0  0  0  0  0  0  0  0
  142.7520   80.0460  223.4330 C   0  0  0  0  0  0  0  0  0  0  0  0
  142.2040   78.7990  223.1340 C   0  0  0  0  0  0  0  0  0  0  0  0
  140.8320   78.6390  223.0010 C   0  0  0  0  0  0  0  0  0  0  0  0
  140.2840   77.4400  222.7120 N   0  0  0  0  0  0  0  0  0  0  0  0
  140.2520   74.9260  222.3600 H   0  0  0  0  0  0  0  0  0  0  0  0
  137.6548   73.4378  222.4018 H   0  0  0  0  0  0  0  0  0  0  0  0
  138.4259   73.4501  220.8047 H   0  0  0  0  0  0  0  0  0  0  0  0
  139.8375   70.1356  221.0135 H   0  0  0  0  0  0  0  0  0  0  0  0
  140.5485   69.6514  222.5714 H   0  0  0  0  0  0  0  0  0  0  0  0
  138.8151   68.1101  222.8965 H   0  0  0  0  0  0  0  0  0  0  0  0
  139.0350   68.3260  220.4960 H   0  0  0  0  0  0  0  0  0  0  0  0
  136.8123   70.2536  221.9810 H   0  0  0  0  0  0  0  0  0  0  0  0
  136.6341   69.1889  223.3464 H   0  0  0  0  0  0  0  0  0  0  0  0
  137.4603   71.5703  224.0493 H   0  0  0  0  0  0  0  0  0  0  0  0
  137.7106   68.3759  224.8465 H   0  0  0  0  0  0  0  0  0  0  0  0
  138.8923   67.4057  226.7554 H   0  0  0  0  0  0  0  0  0  0  0  0
  141.3335   70.9149  226.9459 H   0  0  0  0  0  0  0  0  0  0  0  0
  140.1340   71.8874  225.0210 H   0  0  0  0  0  0  0  0  0  0  0  0
  137.0634   78.3027  222.6600 H   0  0  0  0  0  0  0  0  0  0  0  0
  138.0282   80.5231  223.1939 H   0  0  0  0  0  0  0  0  0  0  0  0
  139.9024   81.8710  223.6082 H   0  0  0  0  0  0  0  0  0  0  0  0
  143.8423   80.1519  223.5335 H   0  0  0  0  0  0  0  0  0  0  0  0
  142.8674   77.9316  223.0020 H   0  0  0  0  0  0  0  0  0  0  0  0
  1  2  2  0
  2  3  1  0
  3  4  1  0
  4  5  1  0
  5  6  2  0
  5  7  1  0
  7  8  1  0
  8  9  1  0
  9 10  1  0
  9 11  1  0
 11 12  1  0
 12 13  1  0
 13 14  2  0
 14 15  1  0
 15 16  2  0
 16 17  1  0
 16 18  1  0
 18 19  2  0
  2 20  1  0
 20 21  2  0
 21 22  1  0
 22 23  2  0
 23 24  1  0
 24 25  2  0
 25 26  1  0
 25 27  1  0
 27 28  2  0
 28 29  1  0
 29 30  2  0
 12  7  1  0
 19 13  1  0
 30 20  1  0
 29 23  1  0
  3 31  1  0
  4 32  1  0
  4 33  1  0
  8 34  1  0
  8 35  1  0
  9 36  1  1
 10 37  1  0
 11 38  1  0
 11 39  1  0
 12 40  1  1
 14 41  1  0
 15 42  1  0
 18 43  1  0
 19 44  1  0
 21 45  1  0
 22 46  1  0
 24 47  1  0
 27 48  1  0
 28 49  1  0
M  END
>  <smiles>  (9) 
O=C(NCC(=O)N1C[C@H](O)C[C@H]1c1ccc(Cl)cc1)c1ccc2cc(F)ccc2n1

>  <score_type>  (9) 
oracle

>  <origin>  (9) 
autodockgpu

>  <m_score__min__energy>  (9) 
-8.7400000000000002

>  <m_primary>  (9) 
energy

>  <rmsd>  (9) 
8.59863186289432

>  <m_score__min__rmsd>  (9) 
8.59863186289432

>  <meeko>  (9) 
{"free_energy": -7.73, "intermolecular_energy": -9.52, "internal_energy": -1.9, "cluster_size": 4, "cluster_id": 5, "rank_in_cluster": 3}

>  <energy>  (9) 
-8.39

>  <cluster_rmsd>  (9) 
1.05

>  <cluster>  (9) 
1

$$$$

     RDKit          3D

 49 52  0  0  0  0  0  0  0  0999 V2000
  140.5480   71.3990  221.3010 O   0  0  0  0  0  0  0  0  0  0  0  0
  140.1170   71.8980  222.3680 C   0  0  0  0  0  0  0  0  0  0  0  0
  139.6580   73.2380  222.4880 N   0  0  0  0  0  0  0  0  0  0  0  0
  139.6930   74.0810  221.2900 C   0  0  0  0  0  0  0  0  0  0  0  0
  139.1690   75.4110  221.7000 C   0  0  0  0  0  0  0  0  0  0  0  0
  138.3410   75.5680  222.6380 O   0  0  0  0  0  0  0  0  0  0  0  0
  139.5960   76.5870  221.0270 N   0  0  0  0  0  0  0  0  0  0  0  0
  138.7430   77.6510  220.5390 C   0  0  0  0  0  0  0  0  0  0  0  0
  139.4950   78.3550  219.4320 C   0  0  2  0  0  0  0  0  0  0  0  0
  138.7400   78.4300  218.2630 O   0  0  0  0  0  0  0  0  0  0  0  0
  140.7120   77.4730  219.2540 C   0  0  0  0  0  0  0  0  0  0  0  0
  140.9510   77.0010  220.6740 C   0  0  1  0  0  0  0  0  0  0  0  0
  141.3300   78.1020  221.5760 C   0  0  0  0  0  0  0  0  0  0  0  0
  141.2080   78.0780  222.9390 C   0  0  0  0  0  0  0  0  0  0  0  0
  141.5690   79.1170  223.7700 C   0  0  0  0  0  0  0  0  0  0  0  0
  142.0900   80.2710  223.2280 C   0  0  0  0  0  0  0  0  0  0  0  0
  142.5720   81.6340  224.2130 Cl  0  0  0  0  0  0  0  0  0  0  0  0
  142.2260   80.3270  221.8540 C   0  0  0  0  0  0  0  0  0  0  0  0
  141.8590   79.2750  221.0250 C   0  0  0  0  0  0  0  0  0  0  0  0
  140.0790   71.0550  223.5740 C   0  0  0  0  0  0  0  0  0  0  0  0
  139.5460   69.7760  223.5280 C   0  0  0  0  0  0  0  0  0  0  0  0
  139.4940   68.9530  224.6390 C   0  0  0  0  0  0  0  0  0  0  0  0
  139.9930   69.4370  225.8320 C   0  0  0  0  0  0  0  0  0  0  0  0
  139.9350   68.6100  226.9330 C   0  0  0  0  0  0  0  0  0  0  0  0
  140.4290   69.0690  228.1420 C   0  0  0  0  0  0  0  0  0  0  0  0
  140.3610   68.2340  229.2150 F   0  0  0  0  0  0  0  0  0  0  0  0
  140.9650   70.3380  228.2140 C   0  0  0  0  0  0  0  0  0  0  0  0
  141.0110   71.1550  227.0850 C   0  0  0  0  0  0  0  0  0  0  0  0
  140.5200   70.7110  225.8650 C   0  0  0  0  0  0  0  0  0  0  0  0
  140.5560   71.4880  224.7620 N   0  0  0  0  0  0  0  0  0  0  0  0
  139.2990   73.6370  223.3960 H   0  0  0  0  0  0  0  0  0  0  0  0
  140.7249   74.1755  220.9208 H   0  0  0  0  0  0  0  0  0  0  0  0
  139.0909   73.6471  220.4781 H   0  0  0  0  0  0  0  0  0  0  0  0
  137.8036   77.2321  220.1492 H   0  0  0  0  0  0  0  0  0  0  0  0
  138.4923   78.3526  221.3482 H   0  0  0  0  0  0  0  0  0  0  0  0
  139.7420   79.4006  219.6679 H   0  0  0  0  0  0  0  0  0  0  0  0
  138.1750   77.6150  218.2440 H   0  0  0  0  0  0  0  0  0  0  0  0
  140.5022   76.6295  218.5798 H   0  0  0  0  0  0  0  0  0  0  0  0
  141.5739   77.9832  218.7991 H   0  0  0  0  0  0  0  0  0  0  0  0
  141.7519   76.2513  220.7542 H   0  0  0  0  0  0  0  0  0  0  0  0
  140.7946   77.1698  223.4019 H   0  0  0  0  0  0  0  0  0  0  0  0
  141.4418   79.0250  224.8587 H   0  0  0  0  0  0  0  0  0  0  0  0
  142.6405   81.2391  221.3998 H   0  0  0  0  0  0  0  0  0  0  0  0
  141.9840   79.3635  219.9357 H   0  0  0  0  0  0  0  0  0  0  0  0
  139.1497   69.4016  222.5726 H   0  0  0  0  0  0  0  0  0  0  0  0
  139.0670   67.9414  224.5737 H   0  0  0  0  0  0  0  0  0  0  0  0
  139.5032   67.6015  226.8524 H   0  0  0  0  0  0  0  0  0  0  0  0
  141.3599   70.7090  229.1713 H   0  0  0  0  0  0  0  0  0  0  0  0
  141.4419   72.1642  227.1622 H   0  0  0  0  0  0  0  0  0  0  0  0
  1  2  2  0
  2  3  1  0
  3  4  1  0
  4  5  1  0
  5  6  2  0
  5  7  1  0
  7  8  1  0
  8  9  1  0
  9 10  1  0
  9 11  1  0
 11 12  1  0
 12 13  1  0
 13 14  2  0
 14 15  1  0
 15 16  2  0
 16 17  1  0
 16 18  1  0
 18 19  2  0
  2 20  1  0
 20 21  2  0
 21 22  1  0
 22 23  2  0
 23 24  1  0
 24 25  2  0
 25 26  1  0
 25 27  1  0
 27 28  2  0
 28 29  1  0
 29 30  2  0
 12  7  1  0
 19 13  1  0
 30 20  1  0
 29 23  1  0
  3 31  1  0
  4 32  1  0
  4 33  1  0
  8 34  1  0
  8 35  1  0
  9 36  1  1
 10 37  1  0
 11 38  1  0
 11 39  1  0
 12 40  1  6
 14 41  1  0
 15 42  1  0
 18 43  1  0
 19 44  1  0
 21 45  1  0
 22 46  1  0
 24 47  1  0
 27 48  1  0
 28 49  1  0
M  END
>  <smiles>  (10) 
O=C(NCC(=O)N1C[C@H](O)C[C@H]1c1ccc(Cl)cc1)c1ccc2cc(F)ccc2n1

>  <score_type>  (10) 
oracle

>  <origin>  (10) 
autodockgpu

>  <m_score__min__energy>  (10) 
-8.7400000000000002

>  <m_primary>  (10) 
energy

>  <rmsd>  (10) 
1.7874764572832185

>  <m_score__min__rmsd>  (10) 
1.7874764572832185

>  <meeko>  (10) 
{"free_energy": -8.27, "intermolecular_energy": -10.06, "internal_energy": -1.66, "cluster_size": 37, "cluster_id": 1, "rank_in_cluster": 15}

>  <energy>  (10) 
-8.38

>  <cluster_rmsd>  (10) 
1.16

>  <cluster>  (10) 
1

$$$$

     RDKit          3D

 49 52  0  0  0  0  0  0  0  0999 V2000
  139.0280   70.6380  221.4300 O   0  0  0  0  0  0  0  0  0  0  0  0
  139.1970   71.4970  222.3280 C   0  0  0  0  0  0  0  0  0  0  0  0
  138.9510   72.8860  222.1530 N   0  0  0  0  0  0  0  0  0  0  0  0
  138.4720   73.3350  220.8430 C   0  0  0  0  0  0  0  0  0  0  0  0
  138.3460   74.8140  220.9290 C   0  0  0  0  0  0  0  0  0  0  0  0
  137.2440   75.4200  220.8450 O   0  0  0  0  0  0  0  0  0  0  0  0
  139.5010   75.6200  221.1140 N   0  0  0  0  0  0  0  0  0  0  0  0
  139.9950   76.1310  222.3770 C   0  0  0  0  0  0  0  0  0  0  0  0
  140.8310   77.3530  222.0690 C   0  0  2  0  0  0  0  0  0  0  0  0
  140.4190   78.4590  222.8080 O   0  0  0  0  0  0  0  0  0  0  0  0
  140.5870   77.5480  220.5880 C   0  0  0  0  0  0  0  0  0  0  0  0
  140.4440   76.1170  220.1150 C   0  0  1  0  0  0  0  0  0  0  0  0
  141.6930   75.3490  220.2600 C   0  0  0  0  0  0  0  0  0  0  0  0
  141.7730   74.0580  220.7070 C   0  0  0  0  0  0  0  0  0  0  0  0
  142.9500   73.3520  220.8360 C   0  0  0  0  0  0  0  0  0  0  0  0
  144.1430   73.9540  220.5020 C   0  0  0  0  0  0  0  0  0  0  0  0
  145.6790   73.1280  220.6370 Cl  0  0  0  0  0  0  0  0  0  0  0  0
  144.0960   75.2580  220.0470 C   0  0  0  0  0  0  0  0  0  0  0  0
  142.9050   75.9600  219.9210 C   0  0  0  0  0  0  0  0  0  0  0  0
  139.6790   71.0510  223.6460 C   0  0  0  0  0  0  0  0  0  0  0  0
  140.4580   71.8830  224.4340 C   0  0  0  0  0  0  0  0  0  0  0  0
  140.9290   71.5020  225.6770 C   0  0  0  0  0  0  0  0  0  0  0  0
  140.6030   70.2410  226.1380 C   0  0  0  0  0  0  0  0  0  0  0  0
  141.0780   69.8700  227.3770 C   0  0  0  0  0  0  0  0  0  0  0  0
  140.7670   68.6120  227.8640 C   0  0  0  0  0  0  0  0  0  0  0  0
  141.2470   68.2680  229.0910 F   0  0  0  0  0  0  0  0  0  0  0  0
  139.9930   67.7650  227.0990 C   0  0  0  0  0  0  0  0  0  0  0  0
  139.5250   68.1650  225.8470 C   0  0  0  0  0  0  0  0  0  0  0  0
  139.8280   69.4230  225.3450 C   0  0  0  0  0  0  0  0  0  0  0  0
  139.3840   69.8270  224.1350 N   0  0  0  0  0  0  0  0  0  0  0  0
  139.1010   73.5920  222.9230 H   0  0  0  0  0  0  0  0  0  0  0  0
  139.1926   73.0591  220.0590 H   0  0  0  0  0  0  0  0  0  0  0  0
  137.5105   72.8661  220.5868 H   0  0  0  0  0  0  0  0  0  0  0  0
  139.1519   76.4055  223.0281 H   0  0  0  0  0  0  0  0  0  0  0  0
  140.5936   75.3698  222.8988 H   0  0  0  0  0  0  0  0  0  0  0  0
  141.8937   77.2319  222.3259 H   0  0  0  0  0  0  0  0  0  0  0  0
  139.4820   78.6420  222.5360 H   0  0  0  0  0  0  0  0  0  0  0  0
  139.6690   78.1255  220.4046 H   0  0  0  0  0  0  0  0  0  0  0  0
  141.3780   78.1136  220.0737 H   0  0  0  0  0  0  0  0  0  0  0  0
  140.1570   76.0360  219.0562 H   0  0  0  0  0  0  0  0  0  0  0  0
  140.8366   73.5503  220.9814 H   0  0  0  0  0  0  0  0  0  0  0  0
  142.9365   72.3151  221.2031 H   0  0  0  0  0  0  0  0  0  0  0  0
  145.0370   75.7582  219.7746 H   0  0  0  0  0  0  0  0  0  0  0  0
  142.9142   76.9971  219.5545 H   0  0  0  0  0  0  0  0  0  0  0  0
  140.7113   72.8846  224.0564 H   0  0  0  0  0  0  0  0  0  0  0  0
  141.5456   72.1834  226.2815 H   0  0  0  0  0  0  0  0  0  0  0  0
  141.6943   70.5621  227.9696 H   0  0  0  0  0  0  0  0  0  0  0  0
  139.7421   66.7640  227.4797 H   0  0  0  0  0  0  0  0  0  0  0  0
  138.9089   67.4756  225.2510 H   0  0  0  0  0  0  0  0  0  0  0  0
  1  2  2  0
  2  3  1  0
  3  4  1  0
  4  5  1  0
  5  6  2  0
  5  7  1  0
  7  8  1  0
  8  9  1  0
  9 10  1  0
  9 11  1  0
 11 12  1  0
 12 13  1  0
 13 14  2  0
 14 15  1  0
 15 16  2  0
 16 17  1  0
 16 18  1  0
 18 19  2  0
  2 20  1  0
 20 21  2  0
 21 22  1  0
 22 23  2  0
 23 24  1  0
 24 25  2  0
 25 26  1  0
 25 27  1  0
 27 28  2  0
 28 29  1  0
 29 30  2  0
 12  7  1  0
 19 13  1  0
 30 20  1  0
 29 23  1  0
  3 31  1  0
  4 32  1  0
  4 33  1  0
  8 34  1  0
  8 35  1  0
  9 36  1  6
 10 37  1  0
 11 38  1  0
 11 39  1  0
 12 40  1  6
 14 41  1  0
 15 42  1  0
 18 43  1  0
 19 44  1  0
 21 45  1  0
 22 46  1  0
 24 47  1  0
 27 48  1  0
 28 49  1  0
M  END
>  <smiles>  (11) 
O=C(NCC(=O)N1C[C@H](O)C[C@H]1c1ccc(Cl)cc1)c1ccc2cc(F)ccc2n1

>  <score_type>  (11) 
oracle

>  <origin>  (11) 
autodockgpu

>  <m_score__min__energy>  (11) 
-8.7400000000000002

>  <m_primary>  (11) 
energy

>  <rmsd>  (11) 
3.071786274498474

>  <m_score__min__rmsd>  (11) 
3.071786274498474

>  <meeko>  (11) 
{"free_energy": -7.86, "intermolecular_energy": -9.65, "internal_energy": -1.54, "cluster_size": 7, "cluster_id": 2, "rank_in_cluster": 6}

>  <energy>  (11) 
-8.38

>  <cluster_rmsd>  (11) 
1.46

>  <cluster>  (11) 
1

$$$$

     RDKit          3D

 49 52  0  0  0  0  0  0  0  0999 V2000
  140.6890   71.3570  221.6520 O   0  0  0  0  0  0  0  0  0  0  0  0
  139.9320   71.7270  222.5820 C   0  0  0  0  0  0  0  0  0  0  0  0
  138.8860   72.6760  222.4230 N   0  0  0  0  0  0  0  0  0  0  0  0
  138.6840   73.2540  221.0920 C   0  0  0  0  0  0  0  0  0  0  0  0
  138.4870   74.7130  221.2960 C   0  0  0  0  0  0  0  0  0  0  0  0
  137.3580   75.2360  221.4980 O   0  0  0  0  0  0  0  0  0  0  0  0
  139.6000   75.5960  221.2700 N   0  0  0  0  0  0  0  0  0  0  0  0
  140.1740   76.2840  222.4090 C   0  0  0  0  0  0  0  0  0  0  0  0
  140.8980   77.5010  221.8780 C   0  0  2  0  0  0  0  0  0  0  0  0
  140.4840   78.6670  222.5200 O   0  0  0  0  0  0  0  0  0  0  0  0
  140.5050   77.5000  220.4170 C   0  0  0  0  0  0  0  0  0  0  0  0
  140.4120   76.0160  220.1310 C   0  0  1  0  0  0  0  0  0  0  0  0
  141.7150   75.3390  220.2390 C   0  0  0  0  0  0  0  0  0  0  0  0
  142.9200   75.8980  219.9080 C   0  0  0  0  0  0  0  0  0  0  0  0
  144.1330   75.2510  220.0170 C   0  0  0  0  0  0  0  0  0  0  0  0
  144.1730   73.9560  220.4850 C   0  0  0  0  0  0  0  0  0  0  0  0
  145.6690   73.0660  220.6530 Cl  0  0  0  0  0  0  0  0  0  0  0  0
  142.9720   73.3630  220.8280 C   0  0  0  0  0  0  0  0  0  0  0  0
  141.7560   74.0230  220.7140 C   0  0  0  0  0  0  0  0  0  0  0  0
  140.1300   71.1490  223.9210 C   0  0  0  0  0  0  0  0  0  0  0  0
  140.7330   71.8860  224.9290 C   0  0  0  0  0  0  0  0  0  0  0  0
  140.9360   71.3790  226.1990 C   0  0  0  0  0  0  0  0  0  0  0  0
  140.5190   70.0880  226.4600 C   0  0  0  0  0  0  0  0  0  0  0  0
  140.7270   69.5920  227.7290 C   0  0  0  0  0  0  0  0  0  0  0  0
  140.3190   68.3010  228.0190 C   0  0  0  0  0  0  0  0  0  0  0  0
  140.5350   67.8330  229.2780 F   0  0  0  0  0  0  0  0  0  0  0  0
  139.7160   67.5470  227.0330 C   0  0  0  0  0  0  0  0  0  0  0  0
  139.5180   68.0730  225.7560 C   0  0  0  0  0  0  0  0  0  0  0  0
  139.9220   69.3650  225.4500 C   0  0  0  0  0  0  0  0  0  0  0  0
  139.7380   69.8910  224.2200 N   0  0  0  0  0  0  0  0  0  0  0  0
  138.2620   72.9720  223.2210 H   0  0  0  0  0  0  0  0  0  0  0  0
  139.5664   73.0735  220.4605 H   0  0  0  0  0  0  0  0  0  0  0  0
  137.8186   72.8006  220.5865 H   0  0  0  0  0  0  0  0  0  0  0  0
  139.3784   76.5919  223.1034 H   0  0  0  0  0  0  0  0  0  0  0  0
  140.8656   75.6255  222.9550 H   0  0  0  0  0  0  0  0  0  0  0  0
  141.9855   77.4683  222.0398 H   0  0  0  0  0  0  0  0  0  0  0  0
  139.6530   78.9560  222.0630 H   0  0  0  0  0  0  0  0  0  0  0  0
  139.5382   78.0008  220.2605 H   0  0  0  0  0  0  0  0  0  0  0  0
  141.2060   78.0399  219.7634 H   0  0  0  0  0  0  0  0  0  0  0  0
  140.0342   75.7909  219.1227 H   0  0  0  0  0  0  0  0  0  0  0  0
  142.9208   76.9311  219.5303 H   0  0  0  0  0  0  0  0  0  0  0  0
  145.0625   75.7656  219.7321 H   0  0  0  0  0  0  0  0  0  0  0  0
  142.9803   72.3298  221.2053 H   0  0  0  0  0  0  0  0  0  0  0  0
  140.8242   73.5115  220.9971 H   0  0  0  0  0  0  0  0  0  0  0  0
  141.0621   72.9125  224.7099 H   0  0  0  0  0  0  0  0  0  0  0  0
  141.4163   71.9867  226.9801 H   0  0  0  0  0  0  0  0  0  0  0  0
  141.2094   70.2118  228.4991 H   0  0  0  0  0  0  0  0  0  0  0  0
  139.3882   66.5210  227.2561 H   0  0  0  0  0  0  0  0  0  0  0  0
  139.0361   67.4566  224.9828 H   0  0  0  0  0  0  0  0  0  0  0  0
  1  2  2  0
  2  3  1  0
  3  4  1  0
  4  5  1  0
  5  6  2  0
  5  7  1  0
  7  8  1  0
  8  9  1  0
  9 10  1  0
  9 11  1  0
 11 12  1  0
 12 13  1  0
 13 14  2  0
 14 15  1  0
 15 16  2  0
 16 17  1  0
 16 18  1  0
 18 19  2  0
  2 20  1  0
 20 21  2  0
 21 22  1  0
 22 23  2  0
 23 24  1  0
 24 25  2  0
 25 26  1  0
 25 27  1  0
 27 28  2  0
 28 29  1  0
 29 30  2  0
 12  7  1  0
 19 13  1  0
 30 20  1  0
 29 23  1  0
  3 31  1  0
  4 32  1  0
  4 33  1  0
  8 34  1  0
  8 35  1  0
  9 36  1  6
 10 37  1  0
 11 38  1  0
 11 39  1  0
 12 40  1  6
 14 41  1  0
 15 42  1  0
 18 43  1  0
 19 44  1  0
 21 45  1  0
 22 46  1  0
 24 47  1  0
 27 48  1  0
 28 49  1  0
M  END
>  <smiles>  (12) 
O=C(NCC(=O)N1C[C@H](O)C[C@H]1c1ccc(Cl)cc1)c1ccc2cc(F)ccc2n1

>  <score_type>  (12) 
oracle

>  <origin>  (12) 
autodockgpu

>  <m_score__min__energy>  (12) 
-8.7400000000000002

>  <m_primary>  (12) 
energy

>  <rmsd>  (12) 
3.1422010205962856

>  <m_score__min__rmsd>  (12) 
3.1422010205962856

>  <meeko>  (12) 
{"free_energy": -7.93, "intermolecular_energy": -9.72, "internal_energy": -1.58, "cluster_size": 7, "cluster_id": 2, "rank_in_cluster": 5}

>  <energy>  (12) 
-8.38

>  <cluster_rmsd>  (12) 
1.17

>  <cluster>  (12) 
1

$$$$

     RDKit          3D

 49 52  0  0  0  0  0  0  0  0999 V2000
  140.9780   71.9010  221.3480 O   0  0  0  0  0  0  0  0  0  0  0  0
  140.2320   72.2500  222.2940 C   0  0  0  0  0  0  0  0  0  0  0  0
  139.4410   73.4310  222.2850 N   0  0  0  0  0  0  0  0  0  0  0  0
  139.5050   74.2870  221.0980 C   0  0  0  0  0  0  0  0  0  0  0  0
  138.8530   75.5700  221.4720 C   0  0  0  0  0  0  0  0  0  0  0  0
  137.9280   75.6520  222.3250 O   0  0  0  0  0  0  0  0  0  0  0  0
  139.2630   76.7860  220.8620 N   0  0  0  0  0  0  0  0  0  0  0  0
  138.4040   77.8980  220.5070 C   0  0  0  0  0  0  0  0  0  0  0  0
  139.1010   78.6700  219.4100 C   0  0  2  0  0  0  0  0  0  0  0  0
  138.2790   78.8440  218.2990 O   0  0  0  0  0  0  0  0  0  0  0  0
  140.2870   77.7830  219.0930 C   0  0  0  0  0  0  0  0  0  0  0  0
  140.6020   77.2030  220.4560 C   0  0  1  0  0  0  0  0  0  0  0  0
  141.0580   78.2280  221.4120 C   0  0  0  0  0  0  0  0  0  0  0  0
  140.7790   78.2320  222.7520 C   0  0  0  0  0  0  0  0  0  0  0  0
  141.2150   79.1980  223.6340 C   0  0  0  0  0  0  0  0  0  0  0  0
  141.9840   80.2430  223.1710 C   0  0  0  0  0  0  0  0  0  0  0  0
  142.5760   81.5080  224.2230 Cl  0  0  0  0  0  0  0  0  0  0  0  0
  142.2830   80.2680  221.8220 C   0  0  0  0  0  0  0  0  0  0  0  0
  141.8390   79.2900  220.9420 C   0  0  0  0  0  0  0  0  0  0  0  0
  140.1640   71.3940  223.4890 C   0  0  0  0  0  0  0  0  0  0  0  0
  139.6050   70.1280  223.4220 C   0  0  0  0  0  0  0  0  0  0  0  0
  139.5240   69.2920  224.5210 C   0  0  0  0  0  0  0  0  0  0  0  0
  140.0210   69.7510  225.7260 C   0  0  0  0  0  0  0  0  0  0  0  0
  139.9340   68.9120  226.8160 C   0  0  0  0  0  0  0  0  0  0  0  0
  140.4260   69.3460  228.0350 C   0  0  0  0  0  0  0  0  0  0  0  0
  140.3290   68.5000  229.0970 F   0  0  0  0  0  0  0  0  0  0  0  0
  140.9870   70.6020  228.1280 C   0  0  0  0  0  0  0  0  0  0  0  0
  141.0630   71.4320  227.0090 C   0  0  0  0  0  0  0  0  0  0  0  0
  140.5740   71.0120  225.7800 C   0  0  0  0  0  0  0  0  0  0  0  0
  140.6390   71.8020  224.6860 N   0  0  0  0  0  0  0  0  0  0  0  0
  138.8210   73.7060  223.0930 H   0  0  0  0  0  0  0  0  0  0  0  0
  140.5523   74.4618  220.8107 H   0  0  0  0  0  0  0  0  0  0  0  0
  139.0013   73.8182  220.2398 H   0  0  0  0  0  0  0  0  0  0  0  0
  137.4339   77.5247  220.1471 H   0  0  0  0  0  0  0  0  0  0  0  0
  138.2184   78.5416  221.3796 H   0  0  0  0  0  0  0  0  0  0  0  0
  139.3829   79.6913  219.7057 H   0  0  0  0  0  0  0  0  0  0  0  0
  137.5080   78.2330  218.4250 H   0  0  0  0  0  0  0  0  0  0  0  0
  140.0190   76.9955  218.3732 H   0  0  0  0  0  0  0  0  0  0  0  0
  141.1302   78.3116  218.6244 H   0  0  0  0  0  0  0  0  0  0  0  0
  141.3906   76.4366  220.4302 H   0  0  0  0  0  0  0  0  0  0  0  0
  140.1665   77.4103  223.1516 H   0  0  0  0  0  0  0  0  0  0  0  0
  140.9506   79.1347  224.6999 H   0  0  0  0  0  0  0  0  0  0  0  0
  142.8957   81.0936  221.4307 H   0  0  0  0  0  0  0  0  0  0  0  0
  142.1011   79.3499  219.8754 H   0  0  0  0  0  0  0  0  0  0  0  0
  139.2105   69.7742  222.4580 H   0  0  0  0  0  0  0  0  0  0  0  0
  139.0768   68.2904  224.4382 H   0  0  0  0  0  0  0  0  0  0  0  0
  139.4812   67.9142  226.7189 H   0  0  0  0  0  0  0  0  0  0  0  0
  141.3786   70.9533  229.0941 H   0  0  0  0  0  0  0  0  0  0  0  0
  141.5155   72.4303  227.1020 H   0  0  0  0  0  0  0  0  0  0  0  0
  1  2  2  0
  2  3  1  0
  3  4  1  0
  4  5  1  0
  5  6  2  0
  5  7  1  0
  7  8  1  0
  8  9  1  0
  9 10  1  0
  9 11  1  0
 11 12  1  0
 12 13  1  0
 13 14  2  0
 14 15  1  0
 15 16  2  0
 16 17  1  0
 16 18  1  0
 18 19  2  0
  2 20  1  0
 20 21  2  0
 21 22  1  0
 22 23  2  0
 23 24  1  0
 24 25  2  0
 25 26  1  0
 25 27  1  0
 27 28  2  0
 28 29  1  0
 29 30  2  0
 12  7  1  0
 19 13  1  0
 30 20  1  0
 29 23  1  0
  3 31  1  0
  4 32  1  0
  4 33  1  0
  8 34  1  0
  8 35  1  0
  9 36  1  1
 10 37  1  0
 11 38  1  0
 11 39  1  0
 12 40  1  6
 14 41  1  0
 15 42  1  0
 18 43  1  0
 19 44  1  0
 21 45  1  0
 22 46  1  0
 24 47  1  0
 27 48  1  0
 28 49  1  0
M  END
>  <smiles>  (13) 
O=C(NCC(=O)N1C[C@H](O)C[C@H]1c1ccc(Cl)cc1)c1ccc2cc(F)ccc2n1

>  <score_type>  (13) 
oracle

>  <origin>  (13) 
autodockgpu

>  <m_score__min__energy>  (13) 
-8.7400000000000002

>  <m_primary>  (13) 
energy

>  <rmsd>  (13) 
1.9191808961358432

>  <m_score__min__rmsd>  (13) 
1.9191808961358432

>  <meeko>  (13) 
{"free_energy": -8.23, "intermolecular_energy": -10.02, "internal_energy": -1.7, "cluster_size": 37, "cluster_id": 1, "rank_in_cluster": 20}

>  <energy>  (13) 
-8.35

>  <cluster_rmsd>  (13) 
1.17

>  <cluster>  (13) 
1

$$$$

     RDKit          3D

 49 52  0  0  0  0  0  0  0  0999 V2000
  140.9230   72.6890  221.8940 O   0  0  0  0  0  0  0  0  0  0  0  0
  139.8890   72.5040  222.5790 C   0  0  0  0  0  0  0  0  0  0  0  0
  138.6520   73.1630  222.3420 N   0  0  0  0  0  0  0  0  0  0  0  0
  138.5870   74.1150  221.2310 C   0  0  0  0  0  0  0  0  0  0  0  0
  138.9040   75.4500  221.8050 C   0  0  0  0  0  0  0  0  0  0  0  0
  138.5510   75.8050  222.9620 O   0  0  0  0  0  0  0  0  0  0  0  0
  139.6380   76.4000  221.0450 N   0  0  0  0  0  0  0  0  0  0  0  0
  139.0810   77.3910  220.1460 C   0  0  0  0  0  0  0  0  0  0  0  0
  140.1650   77.7560  219.1570 C   0  0  2  0  0  0  0  0  0  0  0  0
  139.7280   77.6220  217.8400 O   0  0  0  0  0  0  0  0  0  0  0  0
  141.2550   76.7580  219.4870 C   0  0  0  0  0  0  0  0  0  0  0  0
  141.0820   76.6080  220.9840 C   0  0  1  0  0  0  0  0  0  0  0  0
  141.3850   77.8510  221.7130 C   0  0  0  0  0  0  0  0  0  0  0  0
  141.9570   78.9660  221.1610 C   0  0  0  0  0  0  0  0  0  0  0  0
  142.2320   80.1240  221.8570 C   0  0  0  0  0  0  0  0  0  0  0  0
  141.9270   80.1990  223.1990 C   0  0  0  0  0  0  0  0  0  0  0  0
  142.2460   81.6290  224.1520 Cl  0  0  0  0  0  0  0  0  0  0  0  0
  141.3500   79.0890  223.7860 C   0  0  0  0  0  0  0  0  0  0  0  0
  141.0760   77.9280  223.0760 C   0  0  0  0  0  0  0  0  0  0  0  0
  139.9480   71.5480  223.6960 C   0  0  0  0  0  0  0  0  0  0  0  0
  139.4930   70.2480  223.5420 C   0  0  0  0  0  0  0  0  0  0  0  0
  139.5330   69.3200  224.5670 C   0  0  0  0  0  0  0  0  0  0  0  0
  140.0470   69.7180  225.7860 C   0  0  0  0  0  0  0  0  0  0  0  0
  140.0810   68.7870  226.8010 C   0  0  0  0  0  0  0  0  0  0  0  0
  140.5920   69.1580  228.0330 C   0  0  0  0  0  0  0  0  0  0  0  0
  140.6150   68.2210  229.0210 F   0  0  0  0  0  0  0  0  0  0  0  0
  141.0510   70.4470  228.2120 C   0  0  0  0  0  0  0  0  0  0  0  0
  141.0050   71.3700  227.1680 C   0  0  0  0  0  0  0  0  0  0  0  0
  140.4960   71.0140  225.9270 C   0  0  0  0  0  0  0  0  0  0  0  0
  140.4430   71.8940  224.9050 N   0  0  0  0  0  0  0  0  0  0  0  0
  137.7940   72.9910  222.9320 H   0  0  0  0  0  0  0  0  0  0  0  0
  139.3227   73.8486  220.4578 H   0  0  0  0  0  0  0  0  0  0  0  0
  137.5941   74.1093  220.7576 H   0  0  0  0  0  0  0  0  0  0  0  0
  138.2123   76.9733  219.6161 H   0  0  0  0  0  0  0  0  0  0  0  0
  138.7448   78.2783  220.7024 H   0  0  0  0  0  0  0  0  0  0  0  0
  140.4914   78.8037  219.2335 H   0  0  0  0  0  0  0  0  0  0  0  0
  140.5180   77.7950  217.2660 H   0  0  0  0  0  0  0  0  0  0  0  0
  141.0962   75.8022  218.9661 H   0  0  0  0  0  0  0  0  0  0  0  0
  142.2626   77.0761  219.1811 H   0  0  0  0  0  0  0  0  0  0  0  0
  141.7292   75.8333  221.4210 H   0  0  0  0  0  0  0  0  0  0  0  0
  142.2140   78.9358  220.0919 H   0  0  0  0  0  0  0  0  0  0  0  0
  142.6916   80.9821  221.3447 H   0  0  0  0  0  0  0  0  0  0  0  0
  141.0983   79.1268  224.8562 H   0  0  0  0  0  0  0  0  0  0  0  0
  140.6158   77.0681  223.5848 H   0  0  0  0  0  0  0  0  0  0  0  0
  139.0844   69.9425  222.5675 H   0  0  0  0  0  0  0  0  0  0  0  0
  139.1659   68.2941  224.4158 H   0  0  0  0  0  0  0  0  0  0  0  0
  139.7082   67.7655  226.6352 H   0  0  0  0  0  0  0  0  0  0  0  0
  141.4574   70.7494  229.1884 H   0  0  0  0  0  0  0  0  0  0  0  0
  141.3766   72.3926  227.3299 H   0  0  0  0  0  0  0  0  0  0  0  0
  1  2  2  0
  2  3  1  0
  3  4  1  0
  4  5  1  0
  5  6  2  0
  5  7  1  0
  7  8  1  0
  8  9  1  0
  9 10  1  0
  9 11  1  0
 11 12  1  0
 12 13  1  0
 13 14  2  0
 14 15  1  0
 15 16  2  0
 16 17  1  0
 16 18  1  0
 18 19  2  0
  2 20  1  0
 20 21  2  0
 21 22  1  0
 22 23  2  0
 23 24  1  0
 24 25  2  0
 25 26  1  0
 25 27  1  0
 27 28  2  0
 28 29  1  0
 29 30  2  0
 12  7  1  0
 19 13  1  0
 30 20  1  0
 29 23  1  0
  3 31  1  0
  4 32  1  0
  4 33  1  0
  8 34  1  0
  8 35  1  0
  9 36  1  1
 10 37  1  0
 11 38  1  0
 11 39  1  0
 12 40  1  1
 14 41  1  0
 15 42  1  0
 18 43  1  0
 19 44  1  0
 21 45  1  0
 22 46  1  0
 24 47  1  0
 27 48  1  0
 28 49  1  0
M  END
>  <smiles>  (14) 
O=C(NCC(=O)N1C[C@H](O)C[C@H]1c1ccc(Cl)cc1)c1ccc2cc(F)ccc2n1

>  <score_type>  (14) 
oracle

>  <origin>  (14) 
autodockgpu

>  <m_score__min__energy>  (14) 
-8.7400000000000002

>  <m_primary>  (14) 
energy

>  <rmsd>  (14) 
1.6654606720863718

>  <m_score__min__rmsd>  (14) 
1.6654606720863718

>  <meeko>  (14) 
{"free_energy": -8.38, "intermolecular_energy": -10.17, "internal_energy": -1.23, "cluster_size": 37, "cluster_id": 1, "rank_in_cluster": 11}

>  <energy>  (14) 
-8.32

>  <cluster_rmsd>  (14) 
0.83

>  <cluster>  (14) 
1

$$$$

     RDKit          3D

 49 52  0  0  0  0  0  0  0  0999 V2000
  137.1720   75.5300  222.6170 O   0  0  0  0  0  0  0  0  0  0  0  0
  138.3870   75.7350  222.3780 C   0  0  0  0  0  0  0  0  0  0  0  0
  139.2730   74.7460  221.8730 N   0  0  0  0  0  0  0  0  0  0  0  0
  138.7310   73.4080  221.6190 C   0  0  0  0  0  0  0  0  0  0  0  0
  139.5950   72.4580  222.3680 C   0  0  0  0  0  0  0  0  0  0  0  0
  140.7690   72.7330  222.7350 O   0  0  0  0  0  0  0  0  0  0  0  0
  139.1100   71.1660  222.7060 N   0  0  0  0  0  0  0  0  0  0  0  0
  139.5390   69.9110  222.1210 C   0  0  0  0  0  0  0  0  0  0  0  0
  138.4160   68.9180  222.3210 C   0  0  2  0  0  0  0  0  0  0  0  0
  138.0400   68.3170  221.1210 O   0  0  0  0  0  0  0  0  0  0  0  0
  137.3100   69.7870  222.8800 C   0  0  0  0  0  0  0  0  0  0  0  0
  138.0990   70.7940  223.6920 C   0  0  1  0  0  0  0  0  0  0  0  0
  138.7940   70.1740  224.8330 C   0  0  0  0  0  0  0  0  0  0  0  0
  138.4850   68.9560  225.3740 C   0  0  0  0  0  0  0  0  0  0  0  0
  139.1470   68.3890  226.4420 C   0  0  0  0  0  0  0  0  0  0  0  0
  140.1940   69.0650  227.0290 C   0  0  0  0  0  0  0  0  0  0  0  0
  141.0840   68.4160  228.3870 Cl  0  0  0  0  0  0  0  0  0  0  0  0
  140.5310   70.2990  226.5060 C   0  0  0  0  0  0  0  0  0  0  0  0
  139.8570   70.8610  225.4290 C   0  0  0  0  0  0  0  0  0  0  0  0
  138.9360   77.0770  222.6320 C   0  0  0  0  0  0  0  0  0  0  0  0
  138.1000   78.1780  222.7290 C   0  0  0  0  0  0  0  0  0  0  0  0
  138.5780   79.4540  222.9680 C   0  0  0  0  0  0  0  0  0  0  0  0
  139.9410   79.6220  223.1110 C   0  0  0  0  0  0  0  0  0  0  0  0
  140.4080   80.8980  223.3480 C   0  0  0  0  0  0  0  0  0  0  0  0
  141.7700   81.0960  223.4960 C   0  0  0  0  0  0  0  0  0  0  0  0
  142.2060   82.3640  223.7290 F   0  0  0  0  0  0  0  0  0  0  0  0
  142.6220   80.0160  223.4040 C   0  0  0  0  0  0  0  0  0  0  0  0
  142.1250   78.7350  223.1640 C   0  0  0  0  0  0  0  0  0  0  0  0
  140.7620   78.5200  223.0120 C   0  0  0  0  0  0  0  0  0  0  0  0
  140.2630   77.2870  222.7790 N   0  0  0  0  0  0  0  0  0  0  0  0
  140.2920   74.9410  221.6800 H   0  0  0  0  0  0  0  0  0  0  0  0
  137.6933   73.3431  221.9780 H   0  0  0  0  0  0  0  0  0  0  0  0
  138.7229   73.1778  220.5434 H   0  0  0  0  0  0  0  0  0  0  0  0
  139.7378   70.0440  221.0473 H   0  0  0  0  0  0  0  0  0  0  0  0
  140.4649   69.5547  222.5962 H   0  0  0  0  0  0  0  0  0  0  0  0
  138.6872   68.0775  222.9768 H   0  0  0  0  0  0  0  0  0  0  0  0
  137.2060   67.8150  221.3110 H   0  0  0  0  0  0  0  0  0  0  0  0
  136.7391   70.2768  222.0774 H   0  0  0  0  0  0  0  0  0  0  0  0
  136.5556   69.2353  223.4600 H   0  0  0  0  0  0  0  0  0  0  0  0
  137.4770   71.5972  224.1139 H   0  0  0  0  0  0  0  0  0  0  0  0
  137.6532   68.3917  224.9272 H   0  0  0  0  0  0  0  0  0  0  0  0
  138.8413   67.4034  226.8229 H   0  0  0  0  0  0  0  0  0  0  0  0
  141.3637   70.8569  226.9592 H   0  0  0  0  0  0  0  0  0  0  0  0
  140.1592   71.8464  225.0448 H   0  0  0  0  0  0  0  0  0  0  0  0
  137.0161   78.0319  222.6116 H   0  0  0  0  0  0  0  0  0  0  0  0
  137.8917   80.3105  223.0420 H   0  0  0  0  0  0  0  0  0  0  0  0
  139.7093   81.7447  223.4183 H   0  0  0  0  0  0  0  0  0  0  0  0
  143.7054   80.1661  223.5211 H   0  0  0  0  0  0  0  0  0  0  0  0
  142.8207   77.8858  223.0944 H   0  0  0  0  0  0  0  0  0  0  0  0
  1  2  2  0
  2  3  1  0
  3  4  1  0
  4  5  1  0
  5  6  2  0
  5  7  1  0
  7  8  1  0
  8  9  1  0
  9 10  1  0
  9 11  1  0
 11 12  1  0
 12 13  1  0
 13 14  2  0
 14 15  1  0
 15 16  2  0
 16 17  1  0
 16 18  1  0
 18 19  2  0
  2 20  1  0
 20 21  2  0
 21 22  1  0
 22 23  2  0
 23 24  1  0
 24 25  2  0
 25 26  1  0
 25 27  1  0
 27 28  2  0
 28 29  1  0
 29 30  2  0
 12  7  1  0
 19 13  1  0
 30 20  1  0
 29 23  1  0
  3 31  1  0
  4 32  1  0
  4 33  1  0
  8 34  1  0
  8 35  1  0
  9 36  1  1
 10 37  1  0
 11 38  1  0
 11 39  1  0
 12 40  1  1
 14 41  1  0
 15 42  1  0
 18 43  1  0
 19 44  1  0
 21 45  1  0
 22 46  1  0
 24 47  1  0
 27 48  1  0
 28 49  1  0
M  END
>  <smiles>  (15) 
O=C(NCC(=O)N1C[C@H](O)C[C@H]1c1ccc(Cl)cc1)c1ccc2cc(F)ccc2n1

>  <score_type>  (15) 
oracle

>  <origin>  (15) 
autodockgpu

>  <m_score__min__energy>  (15) 
-8.7400000000000002

>  <m_primary>  (15) 
energy

>  <rmsd>  (15) 
8.554219715404379

>  <m_score__min__rmsd>  (15) 
8.554219715404379

>  <meeko>  (15) 
{"free_energy": -7.73, "intermolecular_energy": -9.52, "internal_energy": -1.62, "cluster_size": 4, "cluster_id": 5, "rank_in_cluster": 2}

>  <energy>  (15) 
-8.27

>  <cluster_rmsd>  (15) 
1.14

>  <cluster>  (15) 
1

$$$$

     RDKit          3D

 49 52  0  0  0  0  0  0  0  0999 V2000
  141.4290   71.9930  221.7720 O   0  0  0  0  0  0  0  0  0  0  0  0
  140.4800   72.2270  222.5580 C   0  0  0  0  0  0  0  0  0  0  0  0
  139.5730   73.3100  222.4040 N   0  0  0  0  0  0  0  0  0  0  0  0
  139.7620   74.2030  221.2580 C   0  0  0  0  0  0  0  0  0  0  0  0
  138.9420   75.4130  221.5310 C   0  0  0  0  0  0  0  0  0  0  0  0
  137.9620   75.4190  222.3240 O   0  0  0  0  0  0  0  0  0  0  0  0
  139.2440   76.6420  220.8860 N   0  0  0  0  0  0  0  0  0  0  0  0
  138.3170   77.7270  220.6330 C   0  0  0  0  0  0  0  0  0  0  0  0
  138.8650   78.5230  219.4700 C   0  0  2  0  0  0  0  0  0  0  0  0
  137.9200   78.6730  218.4580 O   0  0  0  0  0  0  0  0  0  0  0  0
  140.0350   77.6740  219.0200 C   0  0  0  0  0  0  0  0  0  0  0  0
  140.5170   77.1020  220.3370 C   0  0  1  0  0  0  0  0  0  0  0  0
  141.0440   78.1380  221.2410 C   0  0  0  0  0  0  0  0  0  0  0  0
  141.6400   79.3030  220.8380 C   0  0  0  0  0  0  0  0  0  0  0  0
  142.1270   80.2650  221.6980 C   0  0  0  0  0  0  0  0  0  0  0  0
  142.0250   80.0740  223.0590 C   0  0  0  0  0  0  0  0  0  0  0  0
  142.6180   81.2440  224.2150 Cl  0  0  0  0  0  0  0  0  0  0  0  0
  141.4290   78.9070  223.4970 C   0  0  0  0  0  0  0  0  0  0  0  0
  140.9420   77.9440  222.6230 C   0  0  0  0  0  0  0  0  0  0  0  0
  140.2850   71.3330  223.7110 C   0  0  0  0  0  0  0  0  0  0  0  0
  139.6170   70.1280  223.5680 C   0  0  0  0  0  0  0  0  0  0  0  0
  139.4150   69.2610  224.6270 C   0  0  0  0  0  0  0  0  0  0  0  0
  139.9010   69.6240  225.8680 C   0  0  0  0  0  0  0  0  0  0  0  0
  139.6940   68.7530  226.9170 C   0  0  0  0  0  0  0  0  0  0  0  0
  140.1710   69.0910  228.1710 C   0  0  0  0  0  0  0  0  0  0  0  0
  139.9540   68.2160  229.1910 F   0  0  0  0  0  0  0  0  0  0  0  0
  140.8400   70.2860  228.3390 C   0  0  0  0  0  0  0  0  0  0  0  0
  141.0360   71.1490  227.2620 C   0  0  0  0  0  0  0  0  0  0  0  0
  140.5640   70.8250  225.9970 C   0  0  0  0  0  0  0  0  0  0  0  0
  140.7440   71.6480  224.9420 N   0  0  0  0  0  0  0  0  0  0  0  0
  138.7810   73.4890  223.0790 H   0  0  0  0  0  0  0  0  0  0  0  0
  140.8229   74.4764  221.1592 H   0  0  0  0  0  0  0  0  0  0  0  0
  139.4576   73.7177  220.3190 H   0  0  0  0  0  0  0  0  0  0  0  0
  137.3254   77.3238  220.3795 H   0  0  0  0  0  0  0  0  0  0  0  0
  138.2084   78.3628  221.5240 H   0  0  0  0  0  0  0  0  0  0  0  0
  139.1467   79.5521  219.7376 H   0  0  0  0  0  0  0  0  0  0  0  0
  138.1030   77.9550  217.7980 H   0  0  0  0  0  0  0  0  0  0  0  0
  139.7133   76.8795  218.3305 H   0  0  0  0  0  0  0  0  0  0  0  0
  140.8045   78.2294  218.4638 H   0  0  0  0  0  0  0  0  0  0  0  0
  141.3215   76.3609  220.2207 H   0  0  0  0  0  0  0  0  0  0  0  0
  141.7368   79.4835  219.7572 H   0  0  0  0  0  0  0  0  0  0  0  0
  142.5936   81.1783  221.3003 H   0  0  0  0  0  0  0  0  0  0  0  0
  141.3367   78.7341  224.5794 H   0  0  0  0  0  0  0  0  0  0  0  0
  140.4761   77.0288  223.0171 H   0  0  0  0  0  0  0  0  0  0  0  0
  139.2328   69.8501  222.5754 H   0  0  0  0  0  0  0  0  0  0  0  0
  138.8822   68.3092  224.4847 H   0  0  0  0  0  0  0  0  0  0  0  0
  139.1585   67.8052  226.7593 H   0  0  0  0  0  0  0  0  0  0  0  0
  141.2226   70.5605  229.3331 H   0  0  0  0  0  0  0  0  0  0  0  0
  141.5708   72.0978  227.4161 H   0  0  0  0  0  0  0  0  0  0  0  0
  1  2  2  0
  2  3  1  0
  3  4  1  0
  4  5  1  0
  5  6  2  0
  5  7  1  0
  7  8  1  0
  8  9  1  0
  9 10  1  0
  9 11  1  0
 11 12  1  0
 12 13  1  0
 13 14  2  0
 14 15  1  0
 15 16  2  0
 16 17  1  0
 16 18  1  0
 18 19  2  0
  2 20  1  0
 20 21  2  0
 21 22  1  0
 22 23  2  0
 23 24  1  0
 24 25  2  0
 25 26  1  0
 25 27  1  0
 27 28  2  0
 28 29  1  0
 29 30  2  0
 12  7  1  0
 19 13  1  0
 30 20  1  0
 29 23  1  0
  3 31  1  0
  4 32  1  0
  4 33  1  0
  8 34  1  0
  8 35  1  0
  9 36  1  1
 10 37  1  0
 11 38  1  0
 11 39  1  0
 12 40  1  6
 14 41  1  0
 15 42  1  0
 18 43  1  0
 19 44  1  0
 21 45  1  0
 22 46  1  0
 24 47  1  0
 27 48  1  0
 28 49  1  0
M  END
>  <smiles>  (16) 
O=C(NCC(=O)N1C[C@H](O)C[C@H]1c1ccc(Cl)cc1)c1ccc2cc(F)ccc2n1

>  <score_type>  (16) 
oracle

>  <origin>  (16) 
autodockgpu

>  <m_score__min__energy>  (16) 
-8.7400000000000002

>  <m_primary>  (16) 
energy

>  <rmsd>  (16) 
1.977946620427602

>  <m_score__min__rmsd>  (16) 
1.977946620427602

>  <meeko>  (16) 
{"free_energy": -8.2, "intermolecular_energy": -9.99, "internal_energy": -1.71, "cluster_size": 37, "cluster_id": 1, "rank_in_cluster": 24}

>  <energy>  (16) 
-8.27

>  <cluster_rmsd>  (16) 
1.3

>  <cluster>  (16) 
1

$$$$

     RDKit          3D

 49 52  0  0  0  0  0  0  0  0999 V2000
  137.9290   70.9570  222.0820 O   0  0  0  0  0  0  0  0  0  0  0  0
  138.7680   71.3910  222.9080 C   0  0  0  0  0  0  0  0  0  0  0  0
  139.3770   72.6720  222.8200 N   0  0  0  0  0  0  0  0  0  0  0  0
  138.9990   73.5330  221.6960 C   0  0  0  0  0  0  0  0  0  0  0  0
  139.8300   74.7600  221.8110 C   0  0  0  0  0  0  0  0  0  0  0  0
  141.0840   74.7350  221.9360 O   0  0  0  0  0  0  0  0  0  0  0  0
  139.2200   76.0430  221.7830 N   0  0  0  0  0  0  0  0  0  0  0  0
  138.1770   76.5140  222.6720 C   0  0  0  0  0  0  0  0  0  0  0  0
  137.4480   77.6280  221.9560 C   0  0  2  0  0  0  0  0  0  0  0  0
  136.0730   77.4040  221.9180 O   0  0  0  0  0  0  0  0  0  0  0  0
  138.0590   77.5780  220.5720 C   0  0  0  0  0  0  0  0  0  0  0  0
  139.4820   77.1650  220.8860 C   0  0  1  0  0  0  0  0  0  0  0  0
  140.2090   78.1900  221.6550 C   0  0  0  0  0  0  0  0  0  0  0  0
  140.1150   79.5400  221.4490 C   0  0  0  0  0  0  0  0  0  0  0  0
  140.8010   80.4870  222.1780 C   0  0  0  0  0  0  0  0  0  0  0  0
  141.6470   80.0850  223.1880 C   0  0  0  0  0  0  0  0  0  0  0  0
  142.5540   81.2220  224.1590 Cl  0  0  0  0  0  0  0  0  0  0  0  0
  141.7650   78.7280  223.4210 C   0  0  0  0  0  0  0  0  0  0  0  0
  141.0690   77.7810  222.6800 C   0  0  0  0  0  0  0  0  0  0  0  0
  139.1510   70.5310  224.0390 C   0  0  0  0  0  0  0  0  0  0  0  0
  138.8840   69.1710  224.0170 C   0  0  0  0  0  0  0  0  0  0  0  0
  139.2280   68.3300  225.0590 C   0  0  0  0  0  0  0  0  0  0  0  0
  139.8610   68.8790  226.1580 C   0  0  0  0  0  0  0  0  0  0  0  0
  140.2000   68.0330  227.1910 C   0  0  0  0  0  0  0  0  0  0  0  0
  140.8350   68.5560  228.3040 C   0  0  0  0  0  0  0  0  0  0  0  0
  141.1600   67.7000  229.3120 F   0  0  0  0  0  0  0  0  0  0  0  0
  141.1120   69.9060  228.3500 C   0  0  0  0  0  0  0  0  0  0  0  0
  140.7590   70.7410  227.2900 C   0  0  0  0  0  0  0  0  0  0  0  0
  140.1210   70.2330  226.1680 C   0  0  0  0  0  0  0  0  0  0  0  0
  139.7710   71.0260  225.1320 N   0  0  0  0  0  0  0  0  0  0  0  0
  140.0810   73.0170  223.5260 H   0  0  0  0  0  0  0  0  0  0  0  0
  139.2013   73.0242  220.7419 H   0  0  0  0  0  0  0  0  0  0  0  0
  137.9259   73.7737  221.7206 H   0  0  0  0  0  0  0  0  0  0  0  0
  137.4800   75.6948  222.9025 H   0  0  0  0  0  0  0  0  0  0  0  0
  138.6047   76.8734  223.6196 H   0  0  0  0  0  0  0  0  0  0  0  0
  137.5539   78.6062  222.4478 H   0  0  0  0  0  0  0  0  0  0  0  0
  135.7270   77.9260  221.1490 H   0  0  0  0  0  0  0  0  0  0  0  0
  137.5554   76.8343  219.9369 H   0  0  0  0  0  0  0  0  0  0  0  0
  137.9786   78.5211  220.0115 H   0  0  0  0  0  0  0  0  0  0  0  0
  140.0868   76.9716  219.9878 H   0  0  0  0  0  0  0  0  0  0  0  0
  139.4477   79.8922  220.6486 H   0  0  0  0  0  0  0  0  0  0  0  0
  140.6739   81.5566  221.9549 H   0  0  0  0  0  0  0  0  0  0  0  0
  142.4350   78.3848  224.2231 H   0  0  0  0  0  0  0  0  0  0  0  0
  141.1940   76.7103  222.8990 H   0  0  0  0  0  0  0  0  0  0  0  0
  138.3794   68.7448  223.1374 H   0  0  0  0  0  0  0  0  0  0  0  0
  139.0041   67.2539  225.0146 H   0  0  0  0  0  0  0  0  0  0  0  0
  139.9697   66.9590  227.1322 H   0  0  0  0  0  0  0  0  0  0  0  0
  141.6164   70.3286  229.2315 H   0  0  0  0  0  0  0  0  0  0  0  0
  140.9893   71.8152  227.3445 H   0  0  0  0  0  0  0  0  0  0  0  0
  1  2  2  0
  2  3  1  0
  3  4  1  0
  4  5  1  0
  5  6  2  0
  5  7  1  0
  7  8  1  0
  8  9  1  0
  9 10  1  0
  9 11  1  0
 11 12  1  0
 12 13  1  0
 13 14  2  0
 14 15  1  0
 15 16  2  0
 16 17  1  0
 16 18  1  0
 18 19  2  0
  2 20  1  0
 20 21  2  0
 21 22  1  0
 22 23  2  0
 23 24  1  0
 24 25  2  0
 25 26  1  0
 25 27  1  0
 27 28  2  0
 28 29  1  0
 29 30  2  0
 12  7  1  0
 19 13  1  0
 30 20  1  0
 29 23  1  0
  3 31  1  0
  4 32  1  0
  4 33  1  0
  8 34  1  0
  8 35  1  0
  9 36  1  1
 10 37  1  0
 11 38  1  0
 11 39  1  0
 12 40  1  6
 14 41  1  0
 15 42  1  0
 18 43  1  0
 19 44  1  0
 21 45  1  0
 22 46  1  0
 24 47  1  0
 27 48  1  0
 28 49  1  0
M  END
>  <smiles>  (17) 
O=C(NCC(=O)N1C[C@H](O)C[C@H]1c1ccc(Cl)cc1)c1ccc2cc(F)ccc2n1

>  <score_type>  (17) 
oracle

>  <origin>  (17) 
autodockgpu

>  <m_score__min__energy>  (17) 
-8.7400000000000002

>  <m_primary>  (17) 
energy

>  <rmsd>  (17) 
2.476739744359704

>  <m_score__min__rmsd>  (17) 
2.476739744359704

>  <meeko>  (17) 
{"free_energy": -8.25, "intermolecular_energy": -10.04, "internal_energy": -1.56, "cluster_size": 37, "cluster_id": 1, "rank_in_cluster": 18}

>  <energy>  (17) 
-8.26

>  <cluster_rmsd>  (17) 
1.28

>  <cluster>  (17) 
1

$$$$

     RDKit          3D

 49 52  0  0  0  0  0  0  0  0999 V2000
  139.8220   71.3160  221.1440 O   0  0  0  0  0  0  0  0  0  0  0  0
  139.7470   71.8810  222.2610 C   0  0  0  0  0  0  0  0  0  0  0  0
  139.5680   73.2810  222.4310 N   0  0  0  0  0  0  0  0  0  0  0  0
  139.4650   74.1070  221.2260 C   0  0  0  0  0  0  0  0  0  0  0  0
  139.1570   75.4860  221.6900 C   0  0  0  0  0  0  0  0  0  0  0  0
  138.4760   75.7310  222.7220 O   0  0  0  0  0  0  0  0  0  0  0  0
  139.6340   76.6090  220.9620 N   0  0  0  0  0  0  0  0  0  0  0  0
  138.8230   77.6560  220.3750 C   0  0  0  0  0  0  0  0  0  0  0  0
  139.6310   78.2750  219.2570 C   0  0  2  0  0  0  0  0  0  0  0  0
  138.9230   78.2900  218.0560 O   0  0  0  0  0  0  0  0  0  0  0  0
  140.8350   77.3600  219.1820 C   0  0  0  0  0  0  0  0  0  0  0  0
  141.0100   76.9750  220.6360 C   0  0  1  0  0  0  0  0  0  0  0  0
  141.3780   78.1230  221.4830 C   0  0  0  0  0  0  0  0  0  0  0  0
  141.8470   79.3220  221.0180 C   0  0  0  0  0  0  0  0  0  0  0  0
  142.1860   80.3890  221.8240 C   0  0  0  0  0  0  0  0  0  0  0  0
  142.0580   80.2760  223.1910 C   0  0  0  0  0  0  0  0  0  0  0  0
  142.4660   81.5810  224.2810 Cl  0  0  0  0  0  0  0  0  0  0  0  0
  141.5870   79.0770  223.6910 C   0  0  0  0  0  0  0  0  0  0  0  0
  141.2490   78.0080  222.8710 C   0  0  0  0  0  0  0  0  0  0  0  0
  139.8500   71.0550  223.4760 C   0  0  0  0  0  0  0  0  0  0  0  0
  139.4520   69.7280  223.4650 C   0  0  0  0  0  0  0  0  0  0  0  0
  139.5340   68.9190  224.5840 C   0  0  0  0  0  0  0  0  0  0  0  0
  140.0300   69.4690  225.7500 C   0  0  0  0  0  0  0  0  0  0  0  0
  140.1060   68.6550  226.8600 C   0  0  0  0  0  0  0  0  0  0  0  0
  140.6010   69.1800  228.0420 C   0  0  0  0  0  0  0  0  0  0  0  0
  140.6660   68.3570  229.1240 F   0  0  0  0  0  0  0  0  0  0  0  0
  141.0030   70.4990  228.0780 C   0  0  0  0  0  0  0  0  0  0  0  0
  140.9160   71.3010  226.9400 C   0  0  0  0  0  0  0  0  0  0  0  0
  140.4220   70.7910  225.7480 C   0  0  0  0  0  0  0  0  0  0  0  0
  140.3290   71.5520  224.6370 N   0  0  0  0  0  0  0  0  0  0  0  0
  139.5080   73.7350  223.3820 H   0  0  0  0  0  0  0  0  0  0  0  0
  140.4160   74.0946  220.6734 H   0  0  0  0  0  0  0  0  0  0  0  0
  138.6850   73.7298  220.5483 H   0  0  0  0  0  0  0  0  0  0  0  0
  137.8906   77.2308  219.9752 H   0  0  0  0  0  0  0  0  0  0  0  0
  138.5566   78.4118  221.1285 H   0  0  0  0  0  0  0  0  0  0  0  0
  139.8905   79.3287  219.4372 H   0  0  0  0  0  0  0  0  0  0  0  0
  139.3590   78.9740  217.4850 H   0  0  0  0  0  0  0  0  0  0  0  0
  140.6326   76.4796  218.5544 H   0  0  0  0  0  0  0  0  0  0  0  0
  141.7242   77.8236  218.7298 H   0  0  0  0  0  0  0  0  0  0  0  0
  141.7918   76.2173  220.7929 H   0  0  0  0  0  0  0  0  0  0  0  0
  141.9610   79.4426  219.9306 H   0  0  0  0  0  0  0  0  0  0  0  0
  142.5561   81.3240  221.3781 H   0  0  0  0  0  0  0  0  0  0  0  0
  141.4755   78.9649  224.7796 H   0  0  0  0  0  0  0  0  0  0  0  0
  140.8798   77.0709  223.3132 H   0  0  0  0  0  0  0  0  0  0  0  0
  139.0560   69.3018  222.5315 H   0  0  0  0  0  0  0  0  0  0  0  0
  139.2133   67.8675  224.5464 H   0  0  0  0  0  0  0  0  0  0  0  0
  139.7789   67.6060  226.8077 H   0  0  0  0  0  0  0  0  0  0  0  0
  141.3963   70.9228  229.0138 H   0  0  0  0  0  0  0  0  0  0  0  0
  141.2429   72.3502  226.9882 H   0  0  0  0  0  0  0  0  0  0  0  0
  1  2  2  0
  2  3  1  0
  3  4  1  0
  4  5  1  0
  5  6  2  0
  5  7  1  0
  7  8  1  0
  8  9  1  0
  9 10  1  0
  9 11  1  0
 11 12  1  0
 12 13  1  0
 13 14  2  0
 14 15  1  0
 15 16  2  0
 16 17  1  0
 16 18  1  0
 18 19  2  0
  2 20  1  0
 20 21  2  0
 21 22  1  0
 22 23  2  0
 23 24  1  0
 24 25  2  0
 25 26  1  0
 25 27  1  0
 27 28  2  0
 28 29  1  0
 29 30  2  0
 12  7  1  0
 19 13  1  0
 30 20  1  0
 29 23  1  0
  3 31  1  0
  4 32  1  0
  4 33  1  0
  8 34  1  0
  8 35  1  0
  9 36  1  1
 10 37  1  0
 11 38  1  0
 11 39  1  0
 12 40  1  6
 14 41  1  0
 15 42  1  0
 18 43  1  0
 19 44  1  0
 21 45  1  0
 22 46  1  0
 24 47  1  0
 27 48  1  0
 28 49  1  0
M  END
>  <smiles>  (18) 
O=C(NCC(=O)N1C[C@H](O)C[C@H]1c1ccc(Cl)cc1)c1ccc2cc(F)ccc2n1

>  <score_type>  (18) 
oracle

>  <origin>  (18) 
autodockgpu

>  <m_score__min__energy>  (18) 
-8.7400000000000002

>  <m_primary>  (18) 
energy

>  <rmsd>  (18) 
1.6766548344999297

>  <m_score__min__rmsd>  (18) 
1.6766548344999297

>  <meeko>  (18) 
{"free_energy": -8.19, "intermolecular_energy": -9.98, "internal_energy": -1.67, "cluster_size": 37, "cluster_id": 1, "rank_in_cluster": 26}

>  <energy>  (18) 
-8.25

>  <cluster_rmsd>  (18) 
0.97

>  <cluster>  (18) 
1

$$$$

     RDKit          3D

 49 52  0  0  0  0  0  0  0  0999 V2000
  140.4240   72.0250  221.3470 O   0  0  0  0  0  0  0  0  0  0  0  0
  139.6380   72.2160  222.3050 C   0  0  0  0  0  0  0  0  0  0  0  0
  138.6240   73.2120  222.3120 N   0  0  0  0  0  0  0  0  0  0  0  0
  138.4940   74.0630  221.1270 C   0  0  0  0  0  0  0  0  0  0  0  0
  138.5390   75.4670  221.6140 C   0  0  0  0  0  0  0  0  0  0  0  0
  137.5540   76.0460  222.1450 O   0  0  0  0  0  0  0  0  0  0  0  0
  139.7330   76.2280  221.4930 N   0  0  0  0  0  0  0  0  0  0  0  0
  140.4580   76.8610  222.5760 C   0  0  0  0  0  0  0  0  0  0  0  0
  141.2640   77.9910  221.9750 C   0  0  2  0  0  0  0  0  0  0  0  0
  141.0220   79.1990  222.6260 O   0  0  0  0  0  0  0  0  0  0  0  0
  140.7670   78.0180  220.5450 C   0  0  0  0  0  0  0  0  0  0  0  0
  140.4990   76.5500  220.2910 C   0  0  1  0  0  0  0  0  0  0  0  0
  141.7300   75.7400  220.3170 C   0  0  0  0  0  0  0  0  0  0  0  0
  141.8250   74.4730  220.8250 C   0  0  0  0  0  0  0  0  0  0  0  0
  142.9850   73.7270  220.8400 C   0  0  0  0  0  0  0  0  0  0  0  0
  144.1430   74.2610  220.3190 C   0  0  0  0  0  0  0  0  0  0  0  0
  145.6540   73.3820  220.3020 Cl  0  0  0  0  0  0  0  0  0  0  0  0
  144.0790   75.5400  219.7990 C   0  0  0  0  0  0  0  0  0  0  0  0
  142.9060   76.2830  219.7880 C   0  0  0  0  0  0  0  0  0  0  0  0
  139.7650   71.3640  223.4990 C   0  0  0  0  0  0  0  0  0  0  0  0
  139.3510   70.0420  223.4720 C   0  0  0  0  0  0  0  0  0  0  0  0
  139.4540   69.2090  224.5720 C   0  0  0  0  0  0  0  0  0  0  0  0
  139.9900   69.7280  225.7340 C   0  0  0  0  0  0  0  0  0  0  0  0
  140.0870   68.8910  226.8250 C   0  0  0  0  0  0  0  0  0  0  0  0
  140.6210   69.3850  228.0020 C   0  0  0  0  0  0  0  0  0  0  0  0
  140.7070   68.5390  229.0650 F   0  0  0  0  0  0  0  0  0  0  0  0
  141.0410   70.6980  228.0540 C   0  0  0  0  0  0  0  0  0  0  0  0
  140.9310   71.5240  226.9360 C   0  0  0  0  0  0  0  0  0  0  0  0
  140.3980   71.0450  225.7480 C   0  0  0  0  0  0  0  0  0  0  0  0
  140.2830   71.8310  224.6560 N   0  0  0  0  0  0  0  0  0  0  0  0
  137.9740   73.3550  223.1310 H   0  0  0  0  0  0  0  0  0  0  0  0
  139.3241   73.8749  220.4302 H   0  0  0  0  0  0  0  0  0  0  0  0
  137.5577   73.8569  220.5878 H   0  0  0  0  0  0  0  0  0  0  0  0
  139.7523   77.2565  223.3214 H   0  0  0  0  0  0  0  0  0  0  0  0
  141.1157   76.1379  223.0805 H   0  0  0  0  0  0  0  0  0  0  0  0
  142.3512   77.8464  222.0589 H   0  0  0  0  0  0  0  0  0  0  0  0
  140.0550   79.2090  222.8440 H   0  0  0  0  0  0  0  0  0  0  0  0
  139.8489   78.6164  220.4499 H   0  0  0  0  0  0  0  0  0  0  0  0
  141.4710   78.4750  219.8340 H   0  0  0  0  0  0  0  0  0  0  0  0
  140.0271   76.3568  219.3163 H   0  0  0  0  0  0  0  0  0  0  0  0
  140.9169   74.0198  221.2491 H   0  0  0  0  0  0  0  0  0  0  0  0
  142.9854   72.7125  221.2651 H   0  0  0  0  0  0  0  0  0  0  0  0
  144.9920   75.9863  219.3779 H   0  0  0  0  0  0  0  0  0  0  0  0
  142.9013   77.2978  219.3637 H   0  0  0  0  0  0  0  0  0  0  0  0
  138.9245   69.6397  222.5413 H   0  0  0  0  0  0  0  0  0  0  0  0
  139.1183   68.1627  224.5223 H   0  0  0  0  0  0  0  0  0  0  0  0
  139.7454   67.8473  226.7609 H   0  0  0  0  0  0  0  0  0  0  0  0
  141.4668   71.0972  228.9864 H   0  0  0  0  0  0  0  0  0  0  0  0
  141.2710   72.5684  226.9967 H   0  0  0  0  0  0  0  0  0  0  0  0
  1  2  2  0
  2  3  1  0
  3  4  1  0
  4  5  1  0
  5  6  2  0
  5  7  1  0
  7  8  1  0
  8  9  1  0
  9 10  1  0
  9 11  1  0
 11 12  1  0
 12 13  1  0
 13 14  2  0
 14 15  1  0
 15 16  2  0
 16 17  1  0
 16 18  1  0
 18 19  2  0
  2 20  1  0
 20 21  2  0
 21 22  1  0
 22 23  2  0
 23 24  1  0
 24 25  2  0
 25 26  1  0
 25 27  1  0
 27 28  2  0
 28 29  1  0
 29 30  2  0
 12  7  1  0
 19 13  1  0
 30 20  1  0
 29 23  1  0
  3 31  1  0
  4 32  1  0
  4 33  1  0
  8 34  1  0
  8 35  1  0
  9 36  1  6
 10 37  1  0
 11 38  1  0
 11 39  1  0
 12 40  1  6
 14 41  1  0
 15 42  1  0
 18 43  1  0
 19 44  1  0
 21 45  1  0
 22 46  1  0
 24 47  1  0
 27 48  1  0
 28 49  1  0
M  END
>  <smiles>  (19) 
O=C(NCC(=O)N1C[C@H](O)C[C@H]1c1ccc(Cl)cc1)c1ccc2cc(F)ccc2n1

>  <score_type>  (19) 
oracle

>  <origin>  (19) 
autodockgpu

>  <m_score__min__energy>  (19) 
-8.7400000000000002

>  <m_primary>  (19) 
energy

>  <rmsd>  (19) 
2.3386759341644594

>  <m_score__min__rmsd>  (19) 
2.3386759341644594

>  <meeko>  (19) 
{"free_energy": -8.1, "intermolecular_energy": -9.89, "internal_energy": -1.61, "cluster_size": 7, "cluster_id": 2, "rank_in_cluster": 3}

>  <energy>  (19) 
-8.25

>  <cluster_rmsd>  (19) 
1.12

>  <cluster>  (19) 
1

$$$$

     RDKit          3D

 49 52  0  0  0  0  0  0  0  0999 V2000
  141.2280   71.9330  221.5330 O   0  0  0  0  0  0  0  0  0  0  0  0
  140.4100   72.2830  222.4180 C   0  0  0  0  0  0  0  0  0  0  0  0
  139.6140   73.4570  222.3420 N   0  0  0  0  0  0  0  0  0  0  0  0
  139.7620   74.3070  221.1580 C   0  0  0  0  0  0  0  0  0  0  0  0
  138.8280   75.4490  221.3440 C   0  0  0  0  0  0  0  0  0  0  0  0
  137.7490   75.3610  221.9910 O   0  0  0  0  0  0  0  0  0  0  0  0
  139.1280   76.7190  220.7810 N   0  0  0  0  0  0  0  0  0  0  0  0
  138.2300   77.8530  220.6990 C   0  0  0  0  0  0  0  0  0  0  0  0
  138.7150   78.7270  219.5640 C   0  0  2  0  0  0  0  0  0  0  0  0
  137.6990   78.9970  218.6500 O   0  0  0  0  0  0  0  0  0  0  0  0
  139.8090   77.8810  218.9480 C   0  0  0  0  0  0  0  0  0  0  0  0
  140.3710   77.1800  220.1680 C   0  0  1  0  0  0  0  0  0  0  0  0
  141.0110   78.1150  221.1090 C   0  0  0  0  0  0  0  0  0  0  0  0
  141.5990   79.3010  220.7600 C   0  0  0  0  0  0  0  0  0  0  0  0
  142.1940   80.1660  221.6530 C   0  0  0  0  0  0  0  0  0  0  0  0
  142.2170   79.8490  222.9930 C   0  0  0  0  0  0  0  0  0  0  0  0
  142.9510   80.8920  224.1900 Cl  0  0  0  0  0  0  0  0  0  0  0  0
  141.6320   78.6570  223.3780 C   0  0  0  0  0  0  0  0  0  0  0  0
  141.0360   77.7920  222.4700 C   0  0  0  0  0  0  0  0  0  0  0  0
  140.2580   71.4320  223.6100 C   0  0  0  0  0  0  0  0  0  0  0  0
  139.6370   70.1960  223.5230 C   0  0  0  0  0  0  0  0  0  0  0  0
  139.4760   69.3680  224.6190 C   0  0  0  0  0  0  0  0  0  0  0  0
  139.9560   69.8030  225.8400 C   0  0  0  0  0  0  0  0  0  0  0  0
  139.7890   68.9710  226.9260 C   0  0  0  0  0  0  0  0  0  0  0  0
  140.2610   69.3800  228.1620 C   0  0  0  0  0  0  0  0  0  0  0  0
  140.0850   68.5420  229.2200 F   0  0  0  0  0  0  0  0  0  0  0  0
  140.8830   70.6060  228.2730 C   0  0  0  0  0  0  0  0  0  0  0  0
  141.0380   71.4290  227.1580 C   0  0  0  0  0  0  0  0  0  0  0  0
  140.5710   71.0340  225.9130 C   0  0  0  0  0  0  0  0  0  0  0  0
  140.7120   71.8170  224.8220 N   0  0  0  0  0  0  0  0  0  0  0  0
  138.9330   73.7320  223.0990 H   0  0  0  0  0  0  0  0  0  0  0  0
  140.7970   74.6708  221.0774 H   0  0  0  0  0  0  0  0  0  0  0  0
  139.5350   73.7512  220.2363 H   0  0  0  0  0  0  0  0  0  0  0  0
  137.2050   77.5082  220.4976 H   0  0  0  0  0  0  0  0  0  0  0  0
  138.2206   78.4126  221.6460 H   0  0  0  0  0  0  0  0  0  0  0  0
  139.0593   79.7187  219.8927 H   0  0  0  0  0  0  0  0  0  0  0  0
  137.8380   79.9320  218.3490 H   0  0  0  0  0  0  0  0  0  0  0  0
  139.4006   77.1612  218.2234 H   0  0  0  0  0  0  0  0  0  0  0  0
  140.5537   78.4560  218.3780 H   0  0  0  0  0  0  0  0  0  0  0  0
  141.1320   76.4244  219.9231 H   0  0  0  0  0  0  0  0  0  0  0  0
  141.5964   79.5822  219.6966 H   0  0  0  0  0  0  0  0  0  0  0  0
  142.6474   81.1032  221.2978 H   0  0  0  0  0  0  0  0  0  0  0  0
  141.6390   78.3836  224.4435 H   0  0  0  0  0  0  0  0  0  0  0  0
  140.5835   76.8528  222.8208 H   0  0  0  0  0  0  0  0  0  0  0  0
  139.2582   69.8612  222.5461 H   0  0  0  0  0  0  0  0  0  0  0  0
  138.9800   68.3910  224.5218 H   0  0  0  0  0  0  0  0  0  0  0  0
  139.2889   67.9978  226.8128 H   0  0  0  0  0  0  0  0  0  0  0  0
  141.2607   70.9381  229.2513 H   0  0  0  0  0  0  0  0  0  0  0  0
  141.5367   72.4034  227.2671 H   0  0  0  0  0  0  0  0  0  0  0  0
  1  2  2  0
  2  3  1  0
  3  4  1  0
  4  5  1  0
  5  6  2  0
  5  7  1  0
  7  8  1  0
  8  9  1  0
  9 10  1  0
  9 11  1  0
 11 12  1  0
 12 13  1  0
 13 14  2  0
 14 15  1  0
 15 16  2  0
 16 17  1  0
 16 18  1  0
 18 19  2  0
  2 20  1  0
 20 21  2  0
 21 22  1  0
 22 23  2  0
 23 24  1  0
 24 25  2  0
 25 26  1  0
 25 27  1  0
 27 28  2  0
 28 29  1  0
 29 30  2  0
 12  7  1  0
 19 13  1  0
 30 20  1  0
 29 23  1  0
  3 31  1  0
  4 32  1  0
  4 33  1  0
  8 34  1  0
  8 35  1  0
  9 36  1  1
 10 37  1  0
 11 38  1  0
 11 39  1  0
 12 40  1  6
 14 41  1  0
 15 42  1  0
 18 43  1  0
 19 44  1  0
 21 45  1  0
 22 46  1  0
 24 47  1  0
 27 48  1  0
 28 49  1  0
M  END
>  <smiles>  (20) 
O=C(NCC(=O)N1C[C@H](O)C[C@H]1c1ccc(Cl)cc1)c1ccc2cc(F)ccc2n1

>  <score_type>  (20) 
oracle

>  <origin>  (20) 
autodockgpu

>  <m_score__min__energy>  (20) 
-8.7400000000000002

>  <m_primary>  (20) 
energy

>  <rmsd>  (20) 
2.05228370067685

>  <m_score__min__rmsd>  (20) 
2.05228370067685

>  <meeko>  (20) 
{"free_energy": -8.14, "intermolecular_energy": -9.93, "internal_energy": -1.64, "cluster_size": 37, "cluster_id": 1, "rank_in_cluster": 29}

>  <energy>  (20) 
-8.23

>  <cluster_rmsd>  (20) 
1.16

>  <cluster>  (20) 
1

$$$$

     RDKit          3D

 49 52  0  0  0  0  0  0  0  0999 V2000
  138.6530   71.0150  221.2690 O   0  0  0  0  0  0  0  0  0  0  0  0
  139.0370   71.6460  222.2830 C   0  0  0  0  0  0  0  0  0  0  0  0
  139.1650   73.0600  222.3340 N   0  0  0  0  0  0  0  0  0  0  0  0
  138.8280   73.8210  221.1290 C   0  0  0  0  0  0  0  0  0  0  0  0
  138.8310   75.2540  221.5250 C   0  0  0  0  0  0  0  0  0  0  0  0
  137.8330   75.8320  222.0360 O   0  0  0  0  0  0  0  0  0  0  0  0
  139.9950   76.0470  221.3340 N   0  0  0  0  0  0  0  0  0  0  0  0
  140.6750   76.8260  222.3500 C   0  0  0  0  0  0  0  0  0  0  0  0
  141.4440   77.9150  221.6370 C   0  0  2  0  0  0  0  0  0  0  0  0
  141.1430   79.1770  222.1480 O   0  0  0  0  0  0  0  0  0  0  0  0
  140.9710   77.7650  220.2080 C   0  0  0  0  0  0  0  0  0  0  0  0
  140.7660   76.2670  220.1140 C   0  0  1  0  0  0  0  0  0  0  0  0
  142.0280   75.5180  220.2440 C   0  0  0  0  0  0  0  0  0  0  0  0
  143.2700   76.0150  219.9550 C   0  0  0  0  0  0  0  0  0  0  0  0
  144.4420   75.3010  220.0830 C   0  0  0  0  0  0  0  0  0  0  0  0
  144.3990   73.9980  220.5270 C   0  0  0  0  0  0  0  0  0  0  0  0
  145.8400   73.0250  220.7160 Cl  0  0  0  0  0  0  0  0  0  0  0  0
  143.1590   73.4660  220.8270 C   0  0  0  0  0  0  0  0  0  0  0  0
  141.9840   74.1940  220.6940 C   0  0  0  0  0  0  0  0  0  0  0  0
  139.3770   70.8860  223.4970 C   0  0  0  0  0  0  0  0  0  0  0  0
  139.1620   69.5190  223.5600 C   0  0  0  0  0  0  0  0  0  0  0  0
  139.4680   68.7700  224.6820 C   0  0  0  0  0  0  0  0  0  0  0  0
  140.0070   69.4230  225.7740 C   0  0  0  0  0  0  0  0  0  0  0  0
  140.3080   68.6680  226.8870 C   0  0  0  0  0  0  0  0  0  0  0  0
  140.8500   69.2970  227.9950 C   0  0  0  0  0  0  0  0  0  0  0  0
  141.1400   68.5300  229.0820 F   0  0  0  0  0  0  0  0  0  0  0  0
  141.0740   70.6570  227.9570 C   0  0  0  0  0  0  0  0  0  0  0  0
  140.7600   71.3980  226.8180 C   0  0  0  0  0  0  0  0  0  0  0  0
  140.2160   70.7830  225.6990 C   0  0  0  0  0  0  0  0  0  0  0  0
  139.9060   71.4840  224.5870 N   0  0  0  0  0  0  0  0  0  0  0  0
  139.4900   73.5710  223.1990 H   0  0  0  0  0  0  0  0  0  0  0  0
  139.5769   73.6415  220.3435 H   0  0  0  0  0  0  0  0  0  0  0  0
  137.8494   73.5197  220.7269 H   0  0  0  0  0  0  0  0  0  0  0  0
  139.9411   77.2712  223.0378 H   0  0  0  0  0  0  0  0  0  0  0  0
  141.3524   76.1917  222.9406 H   0  0  0  0  0  0  0  0  0  0  0  0
  142.5346   77.8250  221.7491 H   0  0  0  0  0  0  0  0  0  0  0  0
  140.3370   79.4880  221.6610 H   0  0  0  0  0  0  0  0  0  0  0  0
  140.0315   78.3108  220.0362 H   0  0  0  0  0  0  0  0  0  0  0  0
  141.6680   78.1703  219.4597 H   0  0  0  0  0  0  0  0  0  0  0  0
  140.3179   75.9484  219.1613 H   0  0  0  0  0  0  0  0  0  0  0  0
  143.3374   77.0529  219.5969 H   0  0  0  0  0  0  0  0  0  0  0  0
  145.4054   75.7688  219.8321 H   0  0  0  0  0  0  0  0  0  0  0  0
  143.1008   72.4273  221.1844 H   0  0  0  0  0  0  0  0  0  0  0  0
  141.0183   73.7296  220.9425 H   0  0  0  0  0  0  0  0  0  0  0  0
  138.7318   69.0099  222.6849 H   0  0  0  0  0  0  0  0  0  0  0  0
  139.2873   67.6852  224.7043 H   0  0  0  0  0  0  0  0  0  0  0  0
  140.1208   67.5841  226.8949 H   0  0  0  0  0  0  0  0  0  0  0  0
  141.5047   71.1626  228.8339 H   0  0  0  0  0  0  0  0  0  0  0  0
  140.9456   72.4822  226.8064 H   0  0  0  0  0  0  0  0  0  0  0  0
  1  2  2  0
  2  3  1  0
  3  4  1  0
  4  5  1  0
  5  6  2  0
  5  7  1  0
  7  8  1  0
  8  9  1  0
  9 10  1  0
  9 11  1  0
 11 12  1  0
 12 13  1  0
 13 14  2  0
 14 15  1  0
 15 16  2  0
 16 17  1  0
 16 18  1  0
 18 19  2  0
  2 20  1  0
 20 21  2  0
 21 22  1  0
 22 23  2  0
 23 24  1  0
 24 25  2  0
 25 26  1  0
 25 27  1  0
 27 28  2  0
 28 29  1  0
 29 30  2  0
 12  7  1  0
 19 13  1  0
 30 20  1  0
 29 23  1  0
  3 31  1  0
  4 32  1  0
  4 33  1  0
  8 34  1  0
  8 35  1  0
  9 36  1  6
 10 37  1  0
 11 38  1  0
 11 39  1  0
 12 40  1  6
 14 41  1  0
 15 42  1  0
 18 43  1  0
 19 44  1  0
 21 45  1  0
 22 46  1  0
 24 47  1  0
 27 48  1  0
 28 49  1  0
M  END
>  <smiles>  (21) 
O=C(NCC(=O)N1C[C@H](O)C[C@H]1c1ccc(Cl)cc1)c1ccc2cc(F)ccc2n1

>  <score_type>  (21) 
oracle

>  <origin>  (21) 
autodockgpu

>  <m_score__min__energy>  (21) 
-8.7400000000000002

>  <m_primary>  (21) 
energy

>  <rmsd>  (21) 
2.1967190183861907

>  <m_score__min__rmsd>  (21) 
2.1967190183861907

>  <meeko>  (21) 
{"free_energy": -7.96, "intermolecular_energy": -9.75, "internal_energy": -1.62, "cluster_size": 7, "cluster_id": 2, "rank_in_cluster": 4}

>  <energy>  (21) 
-8.2

>  <cluster_rmsd>  (21) 
1.38

>  <cluster>  (21) 
1

$$$$

     RDKit          3D

 49 52  0  0  0  0  0  0  0  0999 V2000
  141.4190   72.4660  221.8550 O   0  0  0  0  0  0  0  0  0  0  0  0
  140.3860   72.5410  222.5610 C   0  0  0  0  0  0  0  0  0  0  0  0
  139.3450   73.4840  222.3460 N   0  0  0  0  0  0  0  0  0  0  0  0
  139.4930   74.4230  221.2310 C   0  0  0  0  0  0  0  0  0  0  0  0
  138.3370   75.3540  221.3110 C   0  0  0  0  0  0  0  0  0  0  0  0
  137.1920   75.0010  221.7040 O   0  0  0  0  0  0  0  0  0  0  0  0
  138.4870   76.7160  220.9350 N   0  0  0  0  0  0  0  0  0  0  0  0
  137.5770   77.7970  221.2570 C   0  0  0  0  0  0  0  0  0  0  0  0
  137.7850   78.8800  220.2210 C   0  0  2  0  0  0  0  0  0  0  0  0
  136.5870   79.2500  219.6150 O   0  0  0  0  0  0  0  0  0  0  0  0
  138.7250   78.2130  219.2390 C   0  0  0  0  0  0  0  0  0  0  0  0
  139.5540   77.3420  220.1600 C   0  0  1  0  0  0  0  0  0  0  0  0
  140.3770   78.1330  221.0920 C   0  0  0  0  0  0  0  0  0  0  0  0
  140.6260   77.7990  222.3960 C   0  0  0  0  0  0  0  0  0  0  0  0
  141.4000   78.5490  223.2560 C   0  0  0  0  0  0  0  0  0  0  0  0
  141.9750   79.7180  222.8080 C   0  0  0  0  0  0  0  0  0  0  0  0
  142.9680   80.7260  223.8340 Cl  0  0  0  0  0  0  0  0  0  0  0  0
  141.7410   80.0830  221.4950 C   0  0  0  0  0  0  0  0  0  0  0  0
  140.9600   79.3200  220.6370 C   0  0  0  0  0  0  0  0  0  0  0  0
  140.2310   71.6000  223.6830 C   0  0  0  0  0  0  0  0  0  0  0  0
  139.6100   70.3750  223.4990 C   0  0  0  0  0  0  0  0  0  0  0  0
  139.4470   69.4640  224.5270 C   0  0  0  0  0  0  0  0  0  0  0  0
  139.9240   69.8020  225.7790 C   0  0  0  0  0  0  0  0  0  0  0  0
  139.7560   68.8880  226.7960 C   0  0  0  0  0  0  0  0  0  0  0  0
  140.2250   69.2000  228.0610 C   0  0  0  0  0  0  0  0  0  0  0  0
  140.0470   68.2810  229.0500 F   0  0  0  0  0  0  0  0  0  0  0  0
  140.8470   70.4130  228.2690 C   0  0  0  0  0  0  0  0  0  0  0  0
  141.0040   71.3210  227.2220 C   0  0  0  0  0  0  0  0  0  0  0  0
  140.5390   71.0230  225.9490 C   0  0  0  0  0  0  0  0  0  0  0  0
  140.6830   71.8900  224.9230 N   0  0  0  0  0  0  0  0  0  0  0  0
  138.4830   73.5300  222.9540 H   0  0  0  0  0  0  0  0  0  0  0  0
  140.4371   74.9796  221.3250 H   0  0  0  0  0  0  0  0  0  0  0  0
  139.5149   73.8960  220.2657 H   0  0  0  0  0  0  0  0  0  0  0  0
  136.5379   77.4377  221.2233 H   0  0  0  0  0  0  0  0  0  0  0  0
  137.7705   78.1822  222.2690 H   0  0  0  0  0  0  0  0  0  0  0  0
  138.1814   79.8164  220.6405 H   0  0  0  0  0  0  0  0  0  0  0  0
  136.4490   78.6180  218.8630 H   0  0  0  0  0  0  0  0  0  0  0  0
  138.1746   77.6093  218.5024 H   0  0  0  0  0  0  0  0  0  0  0  0
  139.3160   78.9168  218.6345 H   0  0  0  0  0  0  0  0  0  0  0  0
  140.2503   76.6813  219.6228 H   0  0  0  0  0  0  0  0  0  0  0  0
  140.1793   76.8714  222.7832 H   0  0  0  0  0  0  0  0  0  0  0  0
  141.5572   78.2162  224.2926 H   0  0  0  0  0  0  0  0  0  0  0  0
  142.1904   81.0127  221.1159 H   0  0  0  0  0  0  0  0  0  0  0  0
  140.7999   79.6491  219.5997 H   0  0  0  0  0  0  0  0  0  0  0  0
  139.2327   70.1175  222.4983 H   0  0  0  0  0  0  0  0  0  0  0  0
  138.9515   68.4975  224.3527 H   0  0  0  0  0  0  0  0  0  0  0  0
  139.2574   67.9260  226.6063 H   0  0  0  0  0  0  0  0  0  0  0  0
  141.2232   70.6671  229.2709 H   0  0  0  0  0  0  0  0  0  0  0  0
  141.5020   72.2841  227.4075 H   0  0  0  0  0  0  0  0  0  0  0  0
  1  2  2  0
  2  3  1  0
  3  4  1  0
  4  5  1  0
  5  6  2  0
  5  7  1  0
  7  8  1  0
  8  9  1  0
  9 10  1  0
  9 11  1  0
 11 12  1  0
 12 13  1  0
 13 14  2  0
 14 15  1  0
 15 16  2  0
 16 17  1  0
 16 18  1  0
 18 19  2  0
  2 20  1  0
 20 21  2  0
 21 22  1  0
 22 23  2  0
 23 24  1  0
 24 25  2  0
 25 26  1  0
 25 27  1  0
 27 28  2  0
 28 29  1  0
 29 30  2  0
 12  7  1  0
 19 13  1  0
 30 20  1  0
 29 23  1  0
  3 31  1  0
  4 32  1  0
  4 33  1  0
  8 34  1  0
  8 35  1  0
  9 36  1  1
 10 37  1  0
 11 38  1  0
 11 39  1  0
 12 40  1  6
 14 41  1  0
 15 42  1  0
 18 43  1  0
 19 44  1  0
 21 45  1  0
 22 46  1  0
 24 47  1  0
 27 48  1  0
 28 49  1  0
M  END
>  <smiles>  (22) 
O=C(NCC(=O)N1C[C@H](O)C[C@H]1c1ccc(Cl)cc1)c1ccc2cc(F)ccc2n1

>  <score_type>  (22) 
oracle

>  <origin>  (22) 
autodockgpu

>  <m_score__min__energy>  (22) 
-8.7400000000000002

>  <m_primary>  (22) 
energy

>  <rmsd>  (22) 
2.3900343894517087

>  <m_score__min__rmsd>  (22) 
2.3900343894517087

>  <meeko>  (22) 
{"free_energy": -7.86, "intermolecular_energy": -9.65, "internal_energy": -1.63, "cluster_size": 37, "cluster_id": 1, "rank_in_cluster": 35}

>  <energy>  (22) 
-8.2

>  <cluster_rmsd>  (22) 
1.28

>  <cluster>  (22) 
1

$$$$

     RDKit          3D

 49 52  0  0  0  0  0  0  0  0999 V2000
  139.9960   70.9020  221.6720 O   0  0  0  0  0  0  0  0  0  0  0  0
  139.9230   71.6540  222.6740 C   0  0  0  0  0  0  0  0  0  0  0  0
  139.6060   73.0370  222.6040 N   0  0  0  0  0  0  0  0  0  0  0  0
  139.3500   73.6140  221.2820 C   0  0  0  0  0  0  0  0  0  0  0  0
  138.9210   75.0190  221.5150 C   0  0  0  0  0  0  0  0  0  0  0  0
  138.0590   75.3450  222.3750 O   0  0  0  0  0  0  0  0  0  0  0  0
  139.4880   76.0750  220.7510 N   0  0  0  0  0  0  0  0  0  0  0  0
  138.7560   77.1050  220.0410 C   0  0  0  0  0  0  0  0  0  0  0  0
  139.6610   77.6210  218.9450 C   0  0  2  0  0  0  0  0  0  0  0  0
  139.0390   77.5770  217.6990 O   0  0  0  0  0  0  0  0  0  0  0  0
  140.8340   76.6670  219.0160 C   0  0  0  0  0  0  0  0  0  0  0  0
  140.8950   76.3750  220.5010 C   0  0  1  0  0  0  0  0  0  0  0  0
  141.2440   77.5660  221.2950 C   0  0  0  0  0  0  0  0  0  0  0  0
  141.8060   78.7080  220.7910 C   0  0  0  0  0  0  0  0  0  0  0  0
  142.1260   79.8160  221.5480 C   0  0  0  0  0  0  0  0  0  0  0  0
  141.8790   79.8070  222.9030 C   0  0  0  0  0  0  0  0  0  0  0  0
  142.2550   81.1700  223.9320 Cl  0  0  0  0  0  0  0  0  0  0  0  0
  141.3130   78.6680  223.4420 C   0  0  0  0  0  0  0  0  0  0  0  0
  140.9940   77.5580  222.6720 C   0  0  0  0  0  0  0  0  0  0  0  0
  140.1790   71.0800  224.0050 C   0  0  0  0  0  0  0  0  0  0  0  0
  140.6970   71.8610  225.0250 C   0  0  0  0  0  0  0  0  0  0  0  0
  140.9500   71.3590  226.2890 C   0  0  0  0  0  0  0  0  0  0  0  0
  140.6740   70.0260  226.5280 C   0  0  0  0  0  0  0  0  0  0  0  0
  140.9320   69.5350  227.7900 C   0  0  0  0  0  0  0  0  0  0  0  0
  140.6640   68.2040  228.0570 C   0  0  0  0  0  0  0  0  0  0  0  0
  140.9260   67.7420  229.3110 F   0  0  0  0  0  0  0  0  0  0  0  0
  140.1480   67.4050  227.0580 C   0  0  0  0  0  0  0  0  0  0  0  0
  139.8970   67.9270  225.7890 C   0  0  0  0  0  0  0  0  0  0  0  0
  140.1610   69.2600  225.5040 C   0  0  0  0  0  0  0  0  0  0  0  0
  139.9240   69.7820  224.2820 N   0  0  0  0  0  0  0  0  0  0  0  0
  139.5510   73.6520  223.4600 H   0  0  0  0  0  0  0  0  0  0  0  0
  140.2657   73.5915  220.6729 H   0  0  0  0  0  0  0  0  0  0  0  0
  138.5796   73.0456  220.7403 H   0  0  0  0  0  0  0  0  0  0  0  0
  137.8386   76.6829  219.6049 H   0  0  0  0  0  0  0  0  0  0  0  0
  138.4651   77.9179  220.7226 H   0  0  0  0  0  0  0  0  0  0  0  0
  139.9449   78.6759  219.0739 H   0  0  0  0  0  0  0  0  0  0  0  0
  139.7570   77.6990  217.0250 H   0  0  0  0  0  0  0  0  0  0  0  0
  140.6446   75.7530  218.4340 H   0  0  0  0  0  0  0  0  0  0  0  0
  141.7680   77.0722  218.5995 H   0  0  0  0  0  0  0  0  0  0  0  0
  141.6365   75.6057  220.7623 H   0  0  0  0  0  0  0  0  0  0  0  0
  142.0162   78.7445  219.7119 H   0  0  0  0  0  0  0  0  0  0  0  0
  142.5753   80.7005  221.0728 H   0  0  0  0  0  0  0  0  0  0  0  0
  141.1073   78.6396  224.5222 H   0  0  0  0  0  0  0  0  0  0  0  0
  140.5446   76.6719  223.1442 H   0  0  0  0  0  0  0  0  0  0  0  0
  140.9154   72.9199  224.8224 H   0  0  0  0  0  0  0  0  0  0  0  0
  141.3593   72.0027  227.0816 H   0  0  0  0  0  0  0  0  0  0  0  0
  141.3440   70.1903  228.5716 H   0  0  0  0  0  0  0  0  0  0  0  0
  139.9324   66.3462  227.2640 H   0  0  0  0  0  0  0  0  0  0  0  0
  139.4850   67.2748  225.0048 H   0  0  0  0  0  0  0  0  0  0  0  0
  1  2  2  0
  2  3  1  0
  3  4  1  0
  4  5  1  0
  5  6  2  0
  5  7  1  0
  7  8  1  0
  8  9  1  0
  9 10  1  0
  9 11  1  0
 11 12  1  0
 12 13  1  0
 13 14  2  0
 14 15  1  0
 15 16  2  0
 16 17  1  0
 16 18  1  0
 18 19  2  0
  2 20  1  0
 20 21  2  0
 21 22  1  0
 22 23  2  0
 23 24  1  0
 24 25  2  0
 25 26  1  0
 25 27  1  0
 27 28  2  0
 28 29  1  0
 29 30  2  0
 12  7  1  0
 19 13  1  0
 30 20  1  0
 29 23  1  0
  3 31  1  0
  4 32  1  0
  4 33  1  0
  8 34  1  0
  8 35  1  0
  9 36  1  1
 10 37  1  0
 11 38  1  0
 11 39  1  0
 12 40  1  6
 14 41  1  0
 15 42  1  0
 18 43  1  0
 19 44  1  0
 21 45  1  0
 22 46  1  0
 24 47  1  0
 27 48  1  0
 28 49  1  0
M  END
>  <smiles>  (23) 
O=C(NCC(=O)N1C[C@H](O)C[C@H]1c1ccc(Cl)cc1)c1ccc2cc(F)ccc2n1

>  <score_type>  (23) 
oracle

>  <origin>  (23) 
autodockgpu

>  <m_score__min__energy>  (23) 
-8.7400000000000002

>  <m_primary>  (23) 
energy

>  <rmsd>  (23) 
2.7069702883632645

>  <m_score__min__rmsd>  (23) 
2.7069702883632645

>  <meeko>  (23) 
{"free_energy": -8.1, "intermolecular_energy": -9.89, "internal_energy": -1.34, "cluster_size": 37, "cluster_id": 1, "rank_in_cluster": 32}

>  <energy>  (23) 
-8.2

>  <cluster_rmsd>  (23) 
1.27

>  <cluster>  (23) 
1

$$$$

     RDKit          3D

 49 52  0  0  0  0  0  0  0  0999 V2000
  140.6650   71.7430  221.8620 O   0  0  0  0  0  0  0  0  0  0  0  0
  139.7530   71.7770  222.7230 C   0  0  0  0  0  0  0  0  0  0  0  0
  138.6290   72.6450  222.6530 N   0  0  0  0  0  0  0  0  0  0  0  0
  138.5360   73.5510  221.5050 C   0  0  0  0  0  0  0  0  0  0  0  0
  139.4900   74.6600  221.7700 C   0  0  0  0  0  0  0  0  0  0  0  0
  140.7180   74.4770  221.9890 O   0  0  0  0  0  0  0  0  0  0  0  0
  139.0360   76.0060  221.7850 N   0  0  0  0  0  0  0  0  0  0  0  0
  138.0400   76.5630  222.6780 C   0  0  0  0  0  0  0  0  0  0  0  0
  137.4610   77.7820  221.9970 C   0  0  2  0  0  0  0  0  0  0  0  0
  136.0700   77.7240  221.9320 O   0  0  0  0  0  0  0  0  0  0  0  0
  138.0870   77.7130  220.6210 C   0  0  0  0  0  0  0  0  0  0  0  0
  139.4450   77.1220  220.9370 C   0  0  1  0  0  0  0  0  0  0  0  0
  140.2740   78.0240  221.7550 C   0  0  0  0  0  0  0  0  0  0  0  0
  141.0680   77.6300  222.7980 C   0  0  0  0  0  0  0  0  0  0  0  0
  141.8400   78.4860  223.5540 C   0  0  0  0  0  0  0  0  0  0  0  0
  141.8360   79.8340  223.2700 C   0  0  0  0  0  0  0  0  0  0  0  0
  142.7850   80.9860  224.1810 Cl  0  0  0  0  0  0  0  0  0  0  0  0
  141.0430   80.2640  222.2230 C   0  0  0  0  0  0  0  0  0  0  0  0
  140.2690   79.3930  221.4680 C   0  0  0  0  0  0  0  0  0  0  0  0
  139.8410   70.8690  223.8780 C   0  0  0  0  0  0  0  0  0  0  0  0
  139.3440   69.5780  223.8040 C   0  0  0  0  0  0  0  0  0  0  0  0
  139.4090   68.6950  224.8660 C   0  0  0  0  0  0  0  0  0  0  0  0
  139.9930   69.1300  226.0400 C   0  0  0  0  0  0  0  0  0  0  0  0
  140.0530   68.2430  227.0930 C   0  0  0  0  0  0  0  0  0  0  0  0
  140.6330   68.6520  228.2810 C   0  0  0  0  0  0  0  0  0  0  0  0
  140.6800   67.7580  229.3070 F   0  0  0  0  0  0  0  0  0  0  0  0
  141.1360   69.9320  228.3800 C   0  0  0  0  0  0  0  0  0  0  0  0
  141.0640   70.8110  227.2990 C   0  0  0  0  0  0  0  0  0  0  0  0
  140.4840   70.4160  226.1010 C   0  0  0  0  0  0  0  0  0  0  0  0
  140.4050   71.2530  225.0440 N   0  0  0  0  0  0  0  0  0  0  0  0
  137.8730   72.6570  223.3890 H   0  0  0  0  0  0  0  0  0  0  0  0
  138.8126   73.0235  220.5802 H   0  0  0  0  0  0  0  0  0  0  0  0
  137.5108   73.9281  221.3754 H   0  0  0  0  0  0  0  0  0  0  0  0
  137.2471   75.8241  222.8661 H   0  0  0  0  0  0  0  0  0  0  0  0
  138.4896   76.8326  223.6450 H   0  0  0  0  0  0  0  0  0  0  0  0
  137.6727   78.7216  222.5284 H   0  0  0  0  0  0  0  0  0  0  0  0
  135.7330   78.3740  222.6020 H   0  0  0  0  0  0  0  0  0  0  0  0
  137.5107   77.0595  219.9496 H   0  0  0  0  0  0  0  0  0  0  0  0
  138.1291   78.6799  220.0982 H   0  0  0  0  0  0  0  0  0  0  0  0
  140.0388   76.8916  220.0402 H   0  0  0  0  0  0  0  0  0  0  0  0
  141.0916   76.5594  223.0496 H   0  0  0  0  0  0  0  0  0  0  0  0
  142.4549   78.0954  224.3782 H   0  0  0  0  0  0  0  0  0  0  0  0
  141.0243   81.3364  221.9787 H   0  0  0  0  0  0  0  0  0  0  0  0
  139.6516   79.7797  220.6438 H   0  0  0  0  0  0  0  0  0  0  0  0
  138.8800   69.2427  222.8647 H   0  0  0  0  0  0  0  0  0  0  0  0
  139.0070   67.6748  224.7786 H   0  0  0  0  0  0  0  0  0  0  0  0
  139.6463   67.2261  226.9908 H   0  0  0  0  0  0  0  0  0  0  0  0
  141.5989   70.2636  229.3212 H   0  0  0  0  0  0  0  0  0  0  0  0
  141.4712   71.8281  227.3969 H   0  0  0  0  0  0  0  0  0  0  0  0
  1  2  2  0
  2  3  1  0
  3  4  1  0
  4  5  1  0
  5  6  2  0
  5  7  1  0
  7  8  1  0
  8  9  1  0
  9 10  1  0
  9 11  1  0
 11 12  1  0
 12 13  1  0
 13 14  2  0
 14 15  1  0
 15 16  2  0
 16 17  1  0
 16 18  1  0
 18 19  2  0
  2 20  1  0
 20 21  2  0
 21 22  1  0
 22 23  2  0
 23 24  1  0
 24 25  2  0
 25 26  1  0
 25 27  1  0
 27 28  2  0
 28 29  1  0
 29 30  2  0
 12  7  1  0
 19 13  1  0
 30 20  1  0
 29 23  1  0
  3 31  1  0
  4 32  1  0
  4 33  1  0
  8 34  1  0
  8 35  1  0
  9 36  1  1
 10 37  1  0
 11 38  1  0
 11 39  1  0
 12 40  1  6
 14 41  1  0
 15 42  1  0
 18 43  1  0
 19 44  1  0
 21 45  1  0
 22 46  1  0
 24 47  1  0
 27 48  1  0
 28 49  1  0
M  END
>  <smiles>  (24) 
O=C(NCC(=O)N1C[C@H](O)C[C@H]1c1ccc(Cl)cc1)c1ccc2cc(F)ccc2n1

>  <score_type>  (24) 
oracle

>  <origin>  (24) 
autodockgpu

>  <m_score__min__energy>  (24) 
-8.7400000000000002

>  <m_primary>  (24) 
energy

>  <rmsd>  (24) 
2.478829031543658

>  <m_score__min__rmsd>  (24) 
2.478829031543658

>  <meeko>  (24) 
{"free_energy": -8.71, "intermolecular_energy": -10.5, "internal_energy": -1.16, "cluster_size": 37, "cluster_id": 1, "rank_in_cluster": 2}

>  <energy>  (24) 
-8.2

>  <cluster_rmsd>  (24) 
1.11

>  <cluster>  (24) 
1

$$$$

     RDKit          3D

 49 52  0  0  0  0  0  0  0  0999 V2000
  140.2260   71.2760  221.2150 O   0  0  0  0  0  0  0  0  0  0  0  0
  139.9030   71.8000  222.3080 C   0  0  0  0  0  0  0  0  0  0  0  0
  139.4980   73.1550  222.4490 N   0  0  0  0  0  0  0  0  0  0  0  0
  139.4580   73.9850  221.2430 C   0  0  0  0  0  0  0  0  0  0  0  0
  139.1950   75.3750  221.7010 C   0  0  0  0  0  0  0  0  0  0  0  0
  138.5400   75.6460  222.7430 O   0  0  0  0  0  0  0  0  0  0  0  0
  139.6880   76.4790  220.9550 N   0  0  0  0  0  0  0  0  0  0  0  0
  138.8880   77.4930  220.2970 C   0  0  0  0  0  0  0  0  0  0  0  0
  139.7360   78.0840  219.1930 C   0  0  2  0  0  0  0  0  0  0  0  0
  139.0800   78.0470  217.9640 O   0  0  0  0  0  0  0  0  0  0  0  0
  140.9540   77.1860  219.2030 C   0  0  0  0  0  0  0  0  0  0  0  0
  141.0720   76.8540  220.6760 C   0  0  1  0  0  0  0  0  0  0  0  0
  141.3870   78.0360  221.4960 C   0  0  0  0  0  0  0  0  0  0  0  0
  141.8340   79.2340  221.0070 C   0  0  0  0  0  0  0  0  0  0  0  0
  142.1230   80.3330  221.7890 C   0  0  0  0  0  0  0  0  0  0  0  0
  141.9650   80.2560  223.1550 C   0  0  0  0  0  0  0  0  0  0  0  0
  142.3110   81.6030  224.2150 Cl  0  0  0  0  0  0  0  0  0  0  0  0
  141.5160   79.0590  223.6800 C   0  0  0  0  0  0  0  0  0  0  0  0
  141.2270   77.9580  222.8840 C   0  0  0  0  0  0  0  0  0  0  0  0
  139.9410   70.9700  223.5240 C   0  0  0  0  0  0  0  0  0  0  0  0
  139.4560   69.6720  223.5110 C   0  0  0  0  0  0  0  0  0  0  0  0
  139.4750   68.8610  224.6310 C   0  0  0  0  0  0  0  0  0  0  0  0
  140.0000   69.3770  225.8000 C   0  0  0  0  0  0  0  0  0  0  0  0
  140.0140   68.5620  226.9110 C   0  0  0  0  0  0  0  0  0  0  0  0
  140.5340   69.0530  228.0960 C   0  0  0  0  0  0  0  0  0  0  0  0
  140.5370   68.2290  229.1790 F   0  0  0  0  0  0  0  0  0  0  0  0
  141.0240   70.3420  228.1340 C   0  0  0  0  0  0  0  0  0  0  0  0
  140.9980   71.1460  226.9950 C   0  0  0  0  0  0  0  0  0  0  0  0
  140.4790   70.6690  225.8000 C   0  0  0  0  0  0  0  0  0  0  0  0
  140.4460   71.4340  224.6880 N   0  0  0  0  0  0  0  0  0  0  0  0
  139.2300   73.5740  223.3800 H   0  0  0  0  0  0  0  0  0  0  0  0
  140.4209   73.9342  220.7137 H   0  0  0  0  0  0  0  0  0  0  0  0
  138.6800   73.6400  220.5460 H   0  0  0  0  0  0  0  0  0  0  0  0
  137.9795   77.0402  219.8732 H   0  0  0  0  0  0  0  0  0  0  0  0
  138.5785   78.2706  221.0108 H   0  0  0  0  0  0  0  0  0  0  0  0
  139.9743   79.1470  219.3458 H   0  0  0  0  0  0  0  0  0  0  0  0
  139.6200   78.6040  217.3450 H   0  0  0  0  0  0  0  0  0  0  0  0
  140.7912   76.2812  218.5989 H   0  0  0  0  0  0  0  0  0  0  0  0
  141.8553   77.6478  218.7737 H   0  0  0  0  0  0  0  0  0  0  0  0
  141.8566   76.1142  220.8933 H   0  0  0  0  0  0  0  0  0  0  0  0
  141.9717   79.3263  219.9196 H   0  0  0  0  0  0  0  0  0  0  0  0
  142.4774   81.2650  221.3245 H   0  0  0  0  0  0  0  0  0  0  0  0
  141.3826   78.9751  224.7686 H   0  0  0  0  0  0  0  0  0  0  0  0
  140.8722   77.0244  223.3449 H   0  0  0  0  0  0  0  0  0  0  0  0
  139.0402   69.2716  222.5746 H   0  0  0  0  0  0  0  0  0  0  0  0
  139.0831   67.8339  224.5921 H   0  0  0  0  0  0  0  0  0  0  0  0
  139.6181   67.5371  226.8570 H   0  0  0  0  0  0  0  0  0  0  0  0
  141.4392   70.7394  229.0719 H   0  0  0  0  0  0  0  0  0  0  0  0
  141.3939   72.1711  227.0445 H   0  0  0  0  0  0  0  0  0  0  0  0
  1  2  2  0
  2  3  1  0
  3  4  1  0
  4  5  1  0
  5  6  2  0
  5  7  1  0
  7  8  1  0
  8  9  1  0
  9 10  1  0
  9 11  1  0
 11 12  1  0
 12 13  1  0
 13 14  2  0
 14 15  1  0
 15 16  2  0
 16 17  1  0
 16 18  1  0
 18 19  2  0
  2 20  1  0
 20 21  2  0
 21 22  1  0
 22 23  2  0
 23 24  1  0
 24 25  2  0
 25 26  1  0
 25 27  1  0
 27 28  2  0
 28 29  1  0
 29 30  2  0
 12  7  1  0
 19 13  1  0
 30 20  1  0
 29 23  1  0
  3 31  1  0
  4 32  1  0
  4 33  1  0
  8 34  1  0
  8 35  1  0
  9 36  1  1
 10 37  1  0
 11 38  1  0
 11 39  1  0
 12 40  1  6
 14 41  1  0
 15 42  1  0
 18 43  1  0
 19 44  1  0
 21 45  1  0
 22 46  1  0
 24 47  1  0
 27 48  1  0
 28 49  1  0
M  END
>  <smiles>  (25) 
O=C(NCC(=O)N1C[C@H](O)C[C@H]1c1ccc(Cl)cc1)c1ccc2cc(F)ccc2n1

>  <score_type>  (25) 
oracle

>  <origin>  (25) 
autodockgpu

>  <m_score__min__energy>  (25) 
-8.7400000000000002

>  <m_primary>  (25) 
energy

>  <rmsd>  (25) 
1.6205397738929685

>  <m_score__min__rmsd>  (25) 
1.6205397738929685

>  <meeko>  (25) 
{"free_energy": -8.26, "intermolecular_energy": -10.05, "internal_energy": -1.66, "cluster_size": 37, "cluster_id": 1, "rank_in_cluster": 17}

>  <energy>  (25) 
-8.19

>  <cluster_rmsd>  (25) 
1.15

>  <cluster>  (25) 
1

$$$$

     RDKit          3D

 49 52  0  0  0  0  0  0  0  0999 V2000
  141.4260   72.0910  221.7330 O   0  0  0  0  0  0  0  0  0  0  0  0
  140.4720   72.3050  222.5190 C   0  0  0  0  0  0  0  0  0  0  0  0
  139.5430   73.3690  222.3670 N   0  0  0  0  0  0  0  0  0  0  0  0
  139.7140   74.2670  221.2220 C   0  0  0  0  0  0  0  0  0  0  0  0
  139.1680   75.5860  221.6400 C   0  0  0  0  0  0  0  0  0  0  0  0
  138.3780   75.7300  222.6110 O   0  0  0  0  0  0  0  0  0  0  0  0
  139.5300   76.7660  220.9360 N   0  0  0  0  0  0  0  0  0  0  0  0
  138.6300   77.8200  220.5120 C   0  0  0  0  0  0  0  0  0  0  0  0
  139.2880   78.5300  219.3510 C   0  0  2  0  0  0  0  0  0  0  0  0
  138.4470   78.5950  218.2420 O   0  0  0  0  0  0  0  0  0  0  0  0
  140.4980   77.6610  219.0830 C   0  0  0  0  0  0  0  0  0  0  0  0
  140.8500   77.1950  220.4800 C   0  0  1  0  0  0  0  0  0  0  0  0
  141.2840   78.3010  221.3500 C   0  0  0  0  0  0  0  0  0  0  0  0
  141.8240   79.4800  220.9120 C   0  0  0  0  0  0  0  0  0  0  0  0
  142.2240   80.5080  221.7400 C   0  0  0  0  0  0  0  0  0  0  0  0
  142.0860   80.3730  223.1040 C   0  0  0  0  0  0  0  0  0  0  0  0
  142.5700   81.6290  224.2210 Cl  0  0  0  0  0  0  0  0  0  0  0  0
  141.5450   79.1940  223.5790 C   0  0  0  0  0  0  0  0  0  0  0  0
  141.1450   78.1650  222.7360 C   0  0  0  0  0  0  0  0  0  0  0  0
  140.2950   71.4050  223.6710 C   0  0  0  0  0  0  0  0  0  0  0  0
  139.6330   70.1960  223.5300 C   0  0  0  0  0  0  0  0  0  0  0  0
  139.4470   69.3240  224.5870 C   0  0  0  0  0  0  0  0  0  0  0  0
  139.9450   69.6850  225.8240 C   0  0  0  0  0  0  0  0  0  0  0  0
  139.7540   68.8090  226.8720 C   0  0  0  0  0  0  0  0  0  0  0  0
  140.2420   69.1450  228.1230 C   0  0  0  0  0  0  0  0  0  0  0  0
  140.0420   68.2650  229.1410 F   0  0  0  0  0  0  0  0  0  0  0  0
  140.9050   70.3440  228.2880 C   0  0  0  0  0  0  0  0  0  0  0  0
  141.0850   71.2120  227.2120 C   0  0  0  0  0  0  0  0  0  0  0  0
  140.6010   70.8900  225.9520 C   0  0  0  0  0  0  0  0  0  0  0  0
  140.7650   71.7190  224.8980 N   0  0  0  0  0  0  0  0  0  0  0  0
  138.7470   73.5310  223.0410 H   0  0  0  0  0  0  0  0  0  0  0  0
  140.7799   74.3597  220.9667 H   0  0  0  0  0  0  0  0  0  0  0  0
  139.1939   73.8831  220.3320 H   0  0  0  0  0  0  0  0  0  0  0  0
  137.6687   77.3896  220.1946 H   0  0  0  0  0  0  0  0  0  0  0  0
  138.4331   78.5205  221.3370 H   0  0  0  0  0  0  0  0  0  0  0  0
  139.5399   79.5788  219.5666 H   0  0  0  0  0  0  0  0  0  0  0  0
  137.8800   77.7820  218.2760 H   0  0  0  0  0  0  0  0  0  0  0  0
  140.2471   76.8136  218.4280 H   0  0  0  0  0  0  0  0  0  0  0  0
  141.3170   78.1802  218.5636 H   0  0  0  0  0  0  0  0  0  0  0  0
  141.6636   76.4550  220.4990 H   0  0  0  0  0  0  0  0  0  0  0  0
  141.9472   79.6167  219.8275 H   0  0  0  0  0  0  0  0  0  0  0  0
  142.6499   81.4286  221.3145 H   0  0  0  0  0  0  0  0  0  0  0  0
  141.4266   79.0653  224.6650 H   0  0  0  0  0  0  0  0  0  0  0  0
  140.7188   77.2429  223.1579 H   0  0  0  0  0  0  0  0  0  0  0  0
  139.2407   69.9195  222.5402 H   0  0  0  0  0  0  0  0  0  0  0  0
  138.9176   68.3700  224.4468 H   0  0  0  0  0  0  0  0  0  0  0  0
  139.2224   67.8586  226.7162 H   0  0  0  0  0  0  0  0  0  0  0  0
  141.2956   70.6178  229.2792 H   0  0  0  0  0  0  0  0  0  0  0  0
  141.6168   72.1629  227.3636 H   0  0  0  0  0  0  0  0  0  0  0  0
  1  2  2  0
  2  3  1  0
  3  4  1  0
  4  5  1  0
  5  6  2  0
  5  7  1  0
  7  8  1  0
  8  9  1  0
  9 10  1  0
  9 11  1  0
 11 12  1  0
 12 13  1  0
 13 14  2  0
 14 15  1  0
 15 16  2  0
 16 17  1  0
 16 18  1  0
 18 19  2  0
  2 20  1  0
 20 21  2  0
 21 22  1  0
 22 23  2  0
 23 24  1  0
 24 25  2  0
 25 26  1  0
 25 27  1  0
 27 28  2  0
 28 29  1  0
 29 30  2  0
 12  7  1  0
 19 13  1  0
 30 20  1  0
 29 23  1  0
  3 31  1  0
  4 32  1  0
  4 33  1  0
  8 34  1  0
  8 35  1  0
  9 36  1  1
 10 37  1  0
 11 38  1  0
 11 39  1  0
 12 40  1  6
 14 41  1  0
 15 42  1  0
 18 43  1  0
 19 44  1  0
 21 45  1  0
 22 46  1  0
 24 47  1  0
 27 48  1  0
 28 49  1  0
M  END
>  <smiles>  (26) 
O=C(NCC(=O)N1C[C@H](O)C[C@H]1c1ccc(Cl)cc1)c1ccc2cc(F)ccc2n1

>  <score_type>  (26) 
oracle

>  <origin>  (26) 
autodockgpu

>  <m_score__min__energy>  (26) 
-8.7400000000000002

>  <m_primary>  (26) 
energy

>  <rmsd>  (26) 
1.925505093653627

>  <m_score__min__rmsd>  (26) 
1.925505093653627

>  <meeko>  (26) 
{"free_energy": -8.38, "intermolecular_energy": -10.17, "internal_energy": -1.67, "cluster_size": 37, "cluster_id": 1, "rank_in_cluster": 12}

>  <energy>  (26) 
-8.19

>  <cluster_rmsd>  (26) 
1.28

>  <cluster>  (26) 
1

$$$$

     RDKit          3D

 49 52  0  0  0  0  0  0  0  0999 V2000
  140.5800   71.2290  221.6300 O   0  0  0  0  0  0  0  0  0  0  0  0
  139.8450   71.5400  222.5980 C   0  0  0  0  0  0  0  0  0  0  0  0
  138.9810   72.6680  222.6060 N   0  0  0  0  0  0  0  0  0  0  0  0
  138.9510   73.5150  221.4100 C   0  0  0  0  0  0  0  0  0  0  0  0
  139.8040   74.6940  221.7120 C   0  0  0  0  0  0  0  0  0  0  0  0
  141.0460   74.6150  221.9160 O   0  0  0  0  0  0  0  0  0  0  0  0
  139.2310   75.9930  221.7830 N   0  0  0  0  0  0  0  0  0  0  0  0
  138.2260   76.4340  222.7300 C   0  0  0  0  0  0  0  0  0  0  0  0
  137.5110   77.6110  222.1070 C   0  0  2  0  0  0  0  0  0  0  0  0
  136.1300   77.4270  222.0940 O   0  0  0  0  0  0  0  0  0  0  0  0
  138.0830   77.6340  220.7050 C   0  0  0  0  0  0  0  0  0  0  0  0
  139.5010   77.1620  220.9510 C   0  0  1  0  0  0  0  0  0  0  0  0
  140.2780   78.1160  221.7620 C   0  0  0  0  0  0  0  0  0  0  0  0
  141.1040   77.7740  222.8000 C   0  0  0  0  0  0  0  0  0  0  0  0
  141.8260   78.6790  223.5480 C   0  0  0  0  0  0  0  0  0  0  0  0
  141.7350   80.0230  223.2630 C   0  0  0  0  0  0  0  0  0  0  0  0
  142.6170   81.2340  224.1640 Cl  0  0  0  0  0  0  0  0  0  0  0  0
  140.9090   80.4010  222.2210 C   0  0  0  0  0  0  0  0  0  0  0  0
  140.1850   79.4810  221.4730 C   0  0  0  0  0  0  0  0  0  0  0  0
  139.8720   70.6930  223.8010 C   0  0  0  0  0  0  0  0  0  0  0  0
  139.2920   69.4350  223.7950 C   0  0  0  0  0  0  0  0  0  0  0  0
  139.2960   68.6090  224.9040 C   0  0  0  0  0  0  0  0  0  0  0  0
  139.9050   69.0700  226.0560 C   0  0  0  0  0  0  0  0  0  0  0  0
  139.9030   68.2400  227.1570 C   0  0  0  0  0  0  0  0  0  0  0  0
  140.5060   68.6750  228.3240 C   0  0  0  0  0  0  0  0  0  0  0  0
  140.4920   67.8380  229.3980 F   0  0  0  0  0  0  0  0  0  0  0  0
  141.0910   69.9240  228.3560 C   0  0  0  0  0  0  0  0  0  0  0  0
  141.0780   70.7450  227.2280 C   0  0  0  0  0  0  0  0  0  0  0  0
  140.4770   70.3230  226.0500 C   0  0  0  0  0  0  0  0  0  0  0  0
  140.4550   71.1040  224.9490 N   0  0  0  0  0  0  0  0  0  0  0  0
  138.3710   72.9120  223.4320 H   0  0  0  0  0  0  0  0  0  0  0  0
  139.3518   72.9666  220.5448 H   0  0  0  0  0  0  0  0  0  0  0  0
  137.9235   73.8184  221.1608 H   0  0  0  0  0  0  0  0  0  0  0  0
  137.5120   75.6209  222.9278 H   0  0  0  0  0  0  0  0  0  0  0  0
  138.6889   76.7197  223.6861 H   0  0  0  0  0  0  0  0  0  0  0  0
  137.6586   78.5523  222.6567 H   0  0  0  0  0  0  0  0  0  0  0  0
  135.9570   76.5850  222.5890 H   0  0  0  0  0  0  0  0  0  0  0  0
  137.5407   76.9474  220.0382 H   0  0  0  0  0  0  0  0  0  0  0  0
  138.0155   78.6133  220.2086 H   0  0  0  0  0  0  0  0  0  0  0  0
  140.0750   77.0089  220.0252 H   0  0  0  0  0  0  0  0  0  0  0  0
  141.1971   76.7076  223.0530 H   0  0  0  0  0  0  0  0  0  0  0  0
  142.4710   78.3296  224.3677 H   0  0  0  0  0  0  0  0  0  0  0  0
  140.8218   81.4696  221.9750 H   0  0  0  0  0  0  0  0  0  0  0  0
  139.5383   79.8265  220.6530 H   0  0  0  0  0  0  0  0  0  0  0  0
  138.8097   69.0794  222.8725 H   0  0  0  0  0  0  0  0  0  0  0  0
  138.8281   67.6140  224.8704 H   0  0  0  0  0  0  0  0  0  0  0  0
  139.4298   67.2482  227.1084 H   0  0  0  0  0  0  0  0  0  0  0  0
  141.5726   70.2761  229.2802 H   0  0  0  0  0  0  0  0  0  0  0  0
  141.5493   71.7379  227.2726 H   0  0  0  0  0  0  0  0  0  0  0  0
  1  2  2  0
  2  3  1  0
  3  4  1  0
  4  5  1  0
  5  6  2  0
  5  7  1  0
  7  8  1  0
  8  9  1  0
  9 10  1  0
  9 11  1  0
 11 12  1  0
 12 13  1  0
 13 14  2  0
 14 15  1  0
 15 16  2  0
 16 17  1  0
 16 18  1  0
 18 19  2  0
  2 20  1  0
 20 21  2  0
 21 22  1  0
 22 23  2  0
 23 24  1  0
 24 25  2  0
 25 26  1  0
 25 27  1  0
 27 28  2  0
 28 29  1  0
 29 30  2  0
 12  7  1  0
 19 13  1  0
 30 20  1  0
 29 23  1  0
  3 31  1  0
  4 32  1  0
  4 33  1  0
  8 34  1  0
  8 35  1  0
  9 36  1  1
 10 37  1  0
 11 38  1  0
 11 39  1  0
 12 40  1  6
 14 41  1  0
 15 42  1  0
 18 43  1  0
 19 44  1  0
 21 45  1  0
 22 46  1  0
 24 47  1  0
 27 48  1  0
 28 49  1  0
M  END
>  <smiles>  (27) 
O=C(NCC(=O)N1C[C@H](O)C[C@H]1c1ccc(Cl)cc1)c1ccc2cc(F)ccc2n1

>  <score_type>  (27) 
oracle

>  <origin>  (27) 
autodockgpu

>  <m_score__min__energy>  (27) 
-8.7400000000000002

>  <m_primary>  (27) 
energy

>  <rmsd>  (27) 
2.4776115205914744

>  <m_score__min__rmsd>  (27) 
2.4776115205914744

>  <meeko>  (27) 
{"free_energy": -8.65, "intermolecular_energy": -10.44, "internal_energy": -1.2, "cluster_size": 37, "cluster_id": 1, "rank_in_cluster": 5}

>  <energy>  (27) 
-8.16

>  <cluster_rmsd>  (27) 
1.26

>  <cluster>  (27) 
1

$$$$

     RDKit          3D

 49 52  0  0  0  0  0  0  0  0999 V2000
  141.8400   72.0780  221.5860 O   0  0  0  0  0  0  0  0  0  0  0  0
  140.6810   72.1810  222.0540 C   0  0  0  0  0  0  0  0  0  0  0  0
  139.6500   72.9550  221.4550 N   0  0  0  0  0  0  0  0  0  0  0  0
  139.9660   73.6730  220.2180 C   0  0  0  0  0  0  0  0  0  0  0  0
  140.5060   74.9960  220.6280 C   0  0  0  0  0  0  0  0  0  0  0  0
  141.6690   75.3870  220.3400 O   0  0  0  0  0  0  0  0  0  0  0  0
  139.7040   75.8930  221.3840 N   0  0  0  0  0  0  0  0  0  0  0  0
  139.1760   75.6570  222.7130 C   0  0  0  0  0  0  0  0  0  0  0  0
  137.9650   76.5470  222.8780 C   0  0  2  0  0  0  0  0  0  0  0  0
  136.8440   75.8220  223.2790 O   0  0  0  0  0  0  0  0  0  0  0  0
  137.7910   77.1190  221.4870 C   0  0  0  0  0  0  0  0  0  0  0  0
  139.2290   77.2260  221.0240 C   0  0  1  0  0  0  0  0  0  0  0  0
  140.0020   78.2020  221.8110 C   0  0  0  0  0  0  0  0  0  0  0  0
  139.4610   79.2180  222.5520 C   0  0  0  0  0  0  0  0  0  0  0  0
  140.1990   80.1230  223.2850 C   0  0  0  0  0  0  0  0  0  0  0  0
  141.5740   80.0300  223.2940 C   0  0  0  0  0  0  0  0  0  0  0  0
  142.5810   81.1390  224.1970 Cl  0  0  0  0  0  0  0  0  0  0  0  0
  142.1500   79.0150  222.5550 C   0  0  0  0  0  0  0  0  0  0  0  0
  141.3980   78.1080  221.8200 C   0  0  0  0  0  0  0  0  0  0  0  0
  140.3580   71.4620  223.2970 C   0  0  0  0  0  0  0  0  0  0  0  0
  139.5490   70.3370  223.2750 C   0  0  0  0  0  0  0  0  0  0  0  0
  139.2230   69.6340  224.4200 C   0  0  0  0  0  0  0  0  0  0  0  0
  139.7300   70.0810  225.6250 C   0  0  0  0  0  0  0  0  0  0  0  0
  139.4000   69.3730  226.7610 C   0  0  0  0  0  0  0  0  0  0  0  0
  139.8940   69.7990  227.9820 C   0  0  0  0  0  0  0  0  0  0  0  0
  139.5540   69.0840  229.0900 F   0  0  0  0  0  0  0  0  0  0  0  0
  140.7020   70.9150  228.0300 C   0  0  0  0  0  0  0  0  0  0  0  0
  141.0220   71.6130  226.8660 C   0  0  0  0  0  0  0  0  0  0  0  0
  140.5340   71.2010  225.6340 C   0  0  0  0  0  0  0  0  0  0  0  0
  140.8320   71.8640  224.4960 N   0  0  0  0  0  0  0  0  0  0  0  0
  138.6810   73.0280  221.8670 H   0  0  0  0  0  0  0  0  0  0  0  0
  140.7179   73.1183  219.6375 H   0  0  0  0  0  0  0  0  0  0  0  0
  139.0750   73.7850  219.5827 H   0  0  0  0  0  0  0  0  0  0  0  0
  138.8855   74.6016  222.8211 H   0  0  0  0  0  0  0  0  0  0  0  0
  139.9327   75.8816  223.4791 H   0  0  0  0  0  0  0  0  0  0  0  0
  138.0891   77.3150  223.6557 H   0  0  0  0  0  0  0  0  0  0  0  0
  137.1650   74.9080  223.4930 H   0  0  0  0  0  0  0  0  0  0  0  0
  137.2107   76.4415  220.8434 H   0  0  0  0  0  0  0  0  0  0  0  0
  137.2381   78.0695  221.4583 H   0  0  0  0  0  0  0  0  0  0  0  0
  139.3251   77.5364  219.9731 H   0  0  0  0  0  0  0  0  0  0  0  0
  138.3657   79.3190  222.5634 H   0  0  0  0  0  0  0  0  0  0  0  0
  139.6937   80.9139  223.8587 H   0  0  0  0  0  0  0  0  0  0  0  0
  143.2460   78.9217  222.5485 H   0  0  0  0  0  0  0  0  0  0  0  0
  141.8997   77.3158  221.2450 H   0  0  0  0  0  0  0  0  0  0  0  0
  139.1511   69.9902  222.3099 H   0  0  0  0  0  0  0  0  0  0  0  0
  138.5783   68.7440  224.3729 H   0  0  0  0  0  0  0  0  0  0  0  0
  138.7548   68.4843  226.6982 H   0  0  0  0  0  0  0  0  0  0  0  0
  141.0985   71.2585  228.9968 H   0  0  0  0  0  0  0  0  0  0  0  0
  141.6689   72.5007  226.9251 H   0  0  0  0  0  0  0  0  0  0  0  0
  1  2  2  0
  2  3  1  0
  3  4  1  0
  4  5  1  0
  5  6  2  0
  5  7  1  0
  7  8  1  0
  8  9  1  0
  9 10  1  0
  9 11  1  0
 11 12  1  0
 12 13  1  0
 13 14  2  0
 14 15  1  0
 15 16  2  0
 16 17  1  0
 16 18  1  0
 18 19  2  0
  2 20  1  0
 20 21  2  0
 21 22  1  0
 22 23  2  0
 23 24  1  0
 24 25  2  0
 25 26  1  0
 25 27  1  0
 27 28  2  0
 28 29  1  0
 29 30  2  0
 12  7  1  0
 19 13  1  0
 30 20  1  0
 29 23  1  0
  3 31  1  0
  4 32  1  0
  4 33  1  0
  8 34  1  0
  8 35  1  0
  9 36  1  1
 10 37  1  0
 11 38  1  0
 11 39  1  0
 12 40  1  6
 14 41  1  0
 15 42  1  0
 18 43  1  0
 19 44  1  0
 21 45  1  0
 22 46  1  0
 24 47  1  0
 27 48  1  0
 28 49  1  0
M  END
>  <smiles>  (28) 
O=C(NCC(=O)N1C[C@H](O)C[C@H]1c1ccc(Cl)cc1)c1ccc2cc(F)ccc2n1

>  <score_type>  (28) 
oracle

>  <origin>  (28) 
autodockgpu

>  <m_score__min__energy>  (28) 
-8.7400000000000002

>  <m_primary>  (28) 
energy

>  <rmsd>  (28) 
2.8031110088927695

>  <m_score__min__rmsd>  (28) 
2.8031110088927695

>  <meeko>  (28) 
{"free_energy": -7.91, "intermolecular_energy": -9.7, "internal_energy": -1.3, "cluster_size": 37, "cluster_id": 1, "rank_in_cluster": 34}

>  <energy>  (28) 
-8.15

>  <cluster_rmsd>  (28) 
1.02

>  <cluster>  (28) 
1

$$$$

     RDKit          3D

 49 52  0  0  0  0  0  0  0  0999 V2000
  141.2800   72.4890  221.8770 O   0  0  0  0  0  0  0  0  0  0  0  0
  140.2340   72.4760  222.5690 C   0  0  0  0  0  0  0  0  0  0  0  0
  139.1040   73.2990  222.3130 N   0  0  0  0  0  0  0  0  0  0  0  0
  139.1710   74.2160  221.1720 C   0  0  0  0  0  0  0  0  0  0  0  0
  139.1210   75.5900  221.7360 C   0  0  0  0  0  0  0  0  0  0  0  0
  138.6440   75.8530  222.8730 O   0  0  0  0  0  0  0  0  0  0  0  0
  139.6240   76.6890  220.9890 N   0  0  0  0  0  0  0  0  0  0  0  0
  138.8370   77.7410  220.3780 C   0  0  0  0  0  0  0  0  0  0  0  0
  139.6620   78.3210  219.2520 C   0  0  2  0  0  0  0  0  0  0  0  0
  138.9600   78.3270  218.0480 O   0  0  0  0  0  0  0  0  0  0  0  0
  140.8480   77.3810  219.2010 C   0  0  0  0  0  0  0  0  0  0  0  0
  141.0090   77.0200  220.6630 C   0  0  1  0  0  0  0  0  0  0  0  0
  141.3960   78.1770  221.4890 C   0  0  0  0  0  0  0  0  0  0  0  0
  141.8540   79.3720  221.0010 C   0  0  0  0  0  0  0  0  0  0  0  0
  142.2110   80.4460  221.7870 C   0  0  0  0  0  0  0  0  0  0  0  0
  142.1160   80.3470  223.1580 C   0  0  0  0  0  0  0  0  0  0  0  0
  142.5500   81.6630  224.2250 Cl  0  0  0  0  0  0  0  0  0  0  0  0
  141.6580   79.1530  223.6820 C   0  0  0  0  0  0  0  0  0  0  0  0
  141.3000   78.0760  222.8810 C   0  0  0  0  0  0  0  0  0  0  0  0
  140.1620   71.5580  223.7170 C   0  0  0  0  0  0  0  0  0  0  0  0
  139.5860   70.3040  223.5860 C   0  0  0  0  0  0  0  0  0  0  0  0
  139.5010   69.4120  224.6400 C   0  0  0  0  0  0  0  0  0  0  0  0
  140.0110   69.8000  225.8630 C   0  0  0  0  0  0  0  0  0  0  0  0
  139.9200   68.9040  226.9080 C   0  0  0  0  0  0  0  0  0  0  0  0
  140.4240   69.2650  228.1450 C   0  0  0  0  0  0  0  0  0  0  0  0
  140.3230   68.3650  229.1610 F   0  0  0  0  0  0  0  0  0  0  0  0
  141.0030   70.5080  228.3010 C   0  0  0  0  0  0  0  0  0  0  0  0
  141.0830   71.3950  227.2280 C   0  0  0  0  0  0  0  0  0  0  0  0
  140.5820   71.0490  225.9810 C   0  0  0  0  0  0  0  0  0  0  0  0
  140.6490   71.8950  224.9310 N   0  0  0  0  0  0  0  0  0  0  0  0
  138.2340   73.2720  222.9100 H   0  0  0  0  0  0  0  0  0  0  0  0
  140.1092   74.0660  220.6177 H   0  0  0  0  0  0  0  0  0  0  0  0
  138.3417   74.0419  220.4706 H   0  0  0  0  0  0  0  0  0  0  0  0
  137.8976   77.3274  219.9824 H   0  0  0  0  0  0  0  0  0  0  0  0
  138.5833   78.5168  221.1154 H   0  0  0  0  0  0  0  0  0  0  0  0
  139.9419   79.3726  219.4125 H   0  0  0  0  0  0  0  0  0  0  0  0
  138.4310   79.1660  218.0390 H   0  0  0  0  0  0  0  0  0  0  0  0
  140.6311   76.4929  218.5892 H   0  0  0  0  0  0  0  0  0  0  0  0
  141.7483   77.8186  218.7449 H   0  0  0  0  0  0  0  0  0  0  0  0
  141.7743   76.2496  220.8385 H   0  0  0  0  0  0  0  0  0  0  0  0
  141.9427   79.4816  219.9101 H   0  0  0  0  0  0  0  0  0  0  0  0
  142.5696   81.3766  221.3228 H   0  0  0  0  0  0  0  0  0  0  0  0
  141.5738   79.0517  224.7741 H   0  0  0  0  0  0  0  0  0  0  0  0
  140.9410   77.1437  223.3413 H   0  0  0  0  0  0  0  0  0  0  0  0
  139.1813   70.0070  222.6072 H   0  0  0  0  0  0  0  0  0  0  0  0
  139.0403   68.4220  224.5075 H   0  0  0  0  0  0  0  0  0  0  0  0
  139.4543   67.9185  226.7602 H   0  0  0  0  0  0  0  0  0  0  0  0
  141.4055   70.8020  229.2816 H   0  0  0  0  0  0  0  0  0  0  0  0
  141.5489   72.3810  227.3718 H   0  0  0  0  0  0  0  0  0  0  0  0
  1  2  2  0
  2  3  1  0
  3  4  1  0
  4  5  1  0
  5  6  2  0
  5  7  1  0
  7  8  1  0
  8  9  1  0
  9 10  1  0
  9 11  1  0
 11 12  1  0
 12 13  1  0
 13 14  2  0
 14 15  1  0
 15 16  2  0
 16 17  1  0
 16 18  1  0
 18 19  2  0
  2 20  1  0
 20 21  2  0
 21 22  1  0
 22 23  2  0
 23 24  1  0
 24 25  2  0
 25 26  1  0
 25 27  1  0
 27 28  2  0
 28 29  1  0
 29 30  2  0
 12  7  1  0
 19 13  1  0
 30 20  1  0
 29 23  1  0
  3 31  1  0
  4 32  1  0
  4 33  1  0
  8 34  1  0
  8 35  1  0
  9 36  1  1
 10 37  1  0
 11 38  1  0
 11 39  1  0
 12 40  1  6
 14 41  1  0
 15 42  1  0
 18 43  1  0
 19 44  1  0
 21 45  1  0
 22 46  1  0
 24 47  1  0
 27 48  1  0
 28 49  1  0
M  END
>  <smiles>  (29) 
O=C(NCC(=O)N1C[C@H](O)C[C@H]1c1ccc(Cl)cc1)c1ccc2cc(F)ccc2n1

>  <score_type>  (29) 
oracle

>  <origin>  (29) 
autodockgpu

>  <m_score__min__energy>  (29) 
-8.7400000000000002

>  <m_primary>  (29) 
energy

>  <rmsd>  (29) 
1.8155538996172327

>  <m_score__min__rmsd>  (29) 
1.8155538996172327

>  <meeko>  (29) 
{"free_energy": -8.49, "intermolecular_energy": -10.28, "internal_energy": -1.29, "cluster_size": 37, "cluster_id": 1, "rank_in_cluster": 6}

>  <energy>  (29) 
-8.14

>  <cluster_rmsd>  (29) 
1.12

>  <cluster>  (29) 
1

$$$$

     RDKit          3D

 49 52  0  0  0  0  0  0  0  0999 V2000
  141.3010   72.0220  221.6390 O   0  0  0  0  0  0  0  0  0  0  0  0
  140.4170   72.3250  222.4770 C   0  0  0  0  0  0  0  0  0  0  0  0
  139.5640   73.4550  222.3560 N   0  0  0  0  0  0  0  0  0  0  0  0
  139.7310   74.3140  221.1810 C   0  0  0  0  0  0  0  0  0  0  0  0
  139.1430   75.6310  221.5400 C   0  0  0  0  0  0  0  0  0  0  0  0
  138.2840   75.7800  222.4500 O   0  0  0  0  0  0  0  0  0  0  0  0
  139.5430   76.8060  220.8470 N   0  0  0  0  0  0  0  0  0  0  0  0
  138.6710   77.8720  220.3960 C   0  0  0  0  0  0  0  0  0  0  0  0
  139.3740   78.5730  219.2550 C   0  0  2  0  0  0  0  0  0  0  0  0
  138.5670   78.6490  218.1210 O   0  0  0  0  0  0  0  0  0  0  0  0
  140.5790   77.6870  219.0240 C   0  0  0  0  0  0  0  0  0  0  0  0
  140.8820   77.2160  220.4310 C   0  0  1  0  0  0  0  0  0  0  0  0
  141.3040   78.3170  221.3140 C   0  0  0  0  0  0  0  0  0  0  0  0
  141.8130   79.5140  220.8880 C   0  0  0  0  0  0  0  0  0  0  0  0
  142.2030   80.5360  221.7280 C   0  0  0  0  0  0  0  0  0  0  0  0
  142.0880   80.3760  223.0910 C   0  0  0  0  0  0  0  0  0  0  0  0
  142.5610   81.6220  224.2230 Cl  0  0  0  0  0  0  0  0  0  0  0  0
  141.5780   79.1770  223.5530 C   0  0  0  0  0  0  0  0  0  0  0  0
  141.1880   78.1540  222.6990 C   0  0  0  0  0  0  0  0  0  0  0  0
  140.2460   71.4650  223.6590 C   0  0  0  0  0  0  0  0  0  0  0  0
  139.6010   70.2430  223.5590 C   0  0  0  0  0  0  0  0  0  0  0  0
  139.4210   69.4060  224.6460 C   0  0  0  0  0  0  0  0  0  0  0  0
  139.9060   69.8180  225.8720 C   0  0  0  0  0  0  0  0  0  0  0  0
  139.7210   68.9780  226.9490 C   0  0  0  0  0  0  0  0  0  0  0  0
  140.1970   69.3660  228.1890 C   0  0  0  0  0  0  0  0  0  0  0  0
  140.0030   68.5200  229.2380 F   0  0  0  0  0  0  0  0  0  0  0  0
  140.8430   70.5780  228.3150 C   0  0  0  0  0  0  0  0  0  0  0  0
  141.0180   71.4090  227.2090 C   0  0  0  0  0  0  0  0  0  0  0  0
  140.5450   71.0360  225.9590 C   0  0  0  0  0  0  0  0  0  0  0  0
  140.7050   71.8280  224.8770 N   0  0  0  0  0  0  0  0  0  0  0  0
  138.8280   73.6910  223.0740 H   0  0  0  0  0  0  0  0  0  0  0  0
  140.7984   74.4264  220.9400 H   0  0  0  0  0  0  0  0  0  0  0  0
  139.2373   73.8832  220.2975 H   0  0  0  0  0  0  0  0  0  0  0  0
  137.7140   77.4548  220.0495 H   0  0  0  0  0  0  0  0  0  0  0  0
  138.4588   78.5754  221.2147 H   0  0  0  0  0  0  0  0  0  0  0  0
  139.6342   79.6183  219.4776 H   0  0  0  0  0  0  0  0  0  0  0  0
  137.8810   77.9390  218.2210 H   0  0  0  0  0  0  0  0  0  0  0  0
  140.3361   76.8432  218.3614 H   0  0  0  0  0  0  0  0  0  0  0  0
  141.4207   78.1946  218.5301 H   0  0  0  0  0  0  0  0  0  0  0  0
  141.6841   76.4645  220.4744 H   0  0  0  0  0  0  0  0  0  0  0  0
  141.9179   79.6712  219.8044 H   0  0  0  0  0  0  0  0  0  0  0  0
  142.6032   81.4725  221.3121 H   0  0  0  0  0  0  0  0  0  0  0  0
  141.4774   79.0278  224.6382 H   0  0  0  0  0  0  0  0  0  0  0  0
  140.7880   77.2158  223.1110 H   0  0  0  0  0  0  0  0  0  0  0  0
  139.2173   69.9260  222.5780 H   0  0  0  0  0  0  0  0  0  0  0  0
  138.9063   68.4400  224.5369 H   0  0  0  0  0  0  0  0  0  0  0  0
  139.2036   68.0153  226.8249 H   0  0  0  0  0  0  0  0  0  0  0  0
  141.2240   70.8923  229.2979 H   0  0  0  0  0  0  0  0  0  0  0  0
  141.5371   72.3714  227.3289 H   0  0  0  0  0  0  0  0  0  0  0  0
  1  2  2  0
  2  3  1  0
  3  4  1  0
  4  5  1  0
  5  6  2  0
  5  7  1  0
  7  8  1  0
  8  9  1  0
  9 10  1  0
  9 11  1  0
 11 12  1  0
 12 13  1  0
 13 14  2  0
 14 15  1  0
 15 16  2  0
 16 17  1  0
 16 18  1  0
 18 19  2  0
  2 20  1  0
 20 21  2  0
 21 22  1  0
 22 23  2  0
 23 24  1  0
 24 25  2  0
 25 26  1  0
 25 27  1  0
 27 28  2  0
 28 29  1  0
 29 30  2  0
 12  7  1  0
 19 13  1  0
 30 20  1  0
 29 23  1  0
  3 31  1  0
  4 32  1  0
  4 33  1  0
  8 34  1  0
  8 35  1  0
  9 36  1  1
 10 37  1  0
 11 38  1  0
 11 39  1  0
 12 40  1  6
 14 41  1  0
 15 42  1  0
 18 43  1  0
 19 44  1  0
 21 45  1  0
 22 46  1  0
 24 47  1  0
 27 48  1  0
 28 49  1  0
M  END
>  <smiles>  (30) 
O=C(NCC(=O)N1C[C@H](O)C[C@H]1c1ccc(Cl)cc1)c1ccc2cc(F)ccc2n1

>  <score_type>  (30) 
oracle

>  <origin>  (30) 
autodockgpu

>  <m_score__min__energy>  (30) 
-8.7400000000000002

>  <m_primary>  (30) 
energy

>  <rmsd>  (30) 
1.9221290076873012

>  <m_score__min__rmsd>  (30) 
1.9221290076873012

>  <meeko>  (30) 
{"free_energy": -8.41, "intermolecular_energy": -10.2, "internal_energy": -1.68, "cluster_size": 37, "cluster_id": 1, "rank_in_cluster": 8}

>  <energy>  (30) 
-8.12

>  <cluster_rmsd>  (30) 
1.19

>  <cluster>  (30) 
1

$$$$

     RDKit          3D

 49 52  0  0  0  0  0  0  0  0999 V2000
  141.4530   72.1880  221.7960 O   0  0  0  0  0  0  0  0  0  0  0  0
  140.4530   72.3530  222.5360 C   0  0  0  0  0  0  0  0  0  0  0  0
  139.4710   73.3590  222.3280 N   0  0  0  0  0  0  0  0  0  0  0  0
  139.6420   74.2550  221.1810 C   0  0  0  0  0  0  0  0  0  0  0  0
  139.0890   75.5720  221.5920 C   0  0  0  0  0  0  0  0  0  0  0  0
  138.2820   75.7130  222.5510 O   0  0  0  0  0  0  0  0  0  0  0  0
  139.4620   76.7530  220.8970 N   0  0  0  0  0  0  0  0  0  0  0  0
  138.5730   77.8230  220.4890 C   0  0  0  0  0  0  0  0  0  0  0  0
  139.2340   78.5360  219.3310 C   0  0  2  0  0  0  0  0  0  0  0  0
  138.3870   78.6220  218.2280 O   0  0  0  0  0  0  0  0  0  0  0  0
  140.4310   77.6540  219.0470 C   0  0  0  0  0  0  0  0  0  0  0  0
  140.7840   77.1690  220.4380 C   0  0  1  0  0  0  0  0  0  0  0  0
  141.2380   78.2620  221.3160 C   0  0  0  0  0  0  0  0  0  0  0  0
  141.8060   79.4310  220.8860 C   0  0  0  0  0  0  0  0  0  0  0  0
  142.2230   80.4450  221.7210 C   0  0  0  0  0  0  0  0  0  0  0  0
  142.0770   80.3070  223.0830 C   0  0  0  0  0  0  0  0  0  0  0  0
  142.5810   81.5460  224.2090 Cl  0  0  0  0  0  0  0  0  0  0  0  0
  141.5070   79.1380  223.5500 C   0  0  0  0  0  0  0  0  0  0  0  0
  141.0890   78.1220  222.7000 C   0  0  0  0  0  0  0  0  0  0  0  0
  140.2760   71.4560  223.6900 C   0  0  0  0  0  0  0  0  0  0  0  0
  139.6110   70.2490  223.5530 C   0  0  0  0  0  0  0  0  0  0  0  0
  139.4250   69.3790  224.6120 C   0  0  0  0  0  0  0  0  0  0  0  0
  139.9260   69.7410  225.8480 C   0  0  0  0  0  0  0  0  0  0  0  0
  139.7350   68.8680  226.8970 C   0  0  0  0  0  0  0  0  0  0  0  0
  140.2260   69.2050  228.1460 C   0  0  0  0  0  0  0  0  0  0  0  0
  140.0250   68.3270  229.1670 F   0  0  0  0  0  0  0  0  0  0  0  0
  140.8920   70.4030  228.3080 C   0  0  0  0  0  0  0  0  0  0  0  0
  141.0720   71.2680  227.2300 C   0  0  0  0  0  0  0  0  0  0  0  0
  140.5850   70.9450  225.9710 C   0  0  0  0  0  0  0  0  0  0  0  0
  140.7490   71.7710  224.9150 N   0  0  0  0  0  0  0  0  0  0  0  0
  138.6370   73.4800  222.9640 H   0  0  0  0  0  0  0  0  0  0  0  0
  140.7085   74.3518  220.9294 H   0  0  0  0  0  0  0  0  0  0  0  0
  139.1265   73.8661  220.2905 H   0  0  0  0  0  0  0  0  0  0  0  0
  137.6044   77.4084  220.1730 H   0  0  0  0  0  0  0  0  0  0  0  0
  138.3897   78.5176  221.3220 H   0  0  0  0  0  0  0  0  0  0  0  0
  139.5013   79.5792  219.5553 H   0  0  0  0  0  0  0  0  0  0  0  0
  137.8960   77.7610  218.1870 H   0  0  0  0  0  0  0  0  0  0  0  0
  140.1654   76.8169  218.3847 H   0  0  0  0  0  0  0  0  0  0  0  0
  141.2540   78.1674  218.5282 H   0  0  0  0  0  0  0  0  0  0  0  0
  141.5873   76.4175  220.4458 H   0  0  0  0  0  0  0  0  0  0  0  0
  141.9382   79.5701  219.8029 H   0  0  0  0  0  0  0  0  0  0  0  0
  142.6696   81.3587  221.3019 H   0  0  0  0  0  0  0  0  0  0  0  0
  141.3796   79.0072  224.6347 H   0  0  0  0  0  0  0  0  0  0  0  0
  140.6408   77.2072  223.1151 H   0  0  0  0  0  0  0  0  0  0  0  0
  139.2158   69.9717  222.5646 H   0  0  0  0  0  0  0  0  0  0  0  0
  138.8934   68.4259  224.4743 H   0  0  0  0  0  0  0  0  0  0  0  0
  139.2009   67.9186  226.7439 H   0  0  0  0  0  0  0  0  0  0  0  0
  141.2847   70.6779  229.2980 H   0  0  0  0  0  0  0  0  0  0  0  0
  141.6064   72.2179  227.3788 H   0  0  0  0  0  0  0  0  0  0  0  0
  1  2  2  0
  2  3  1  0
  3  4  1  0
  4  5  1  0
  5  6  2  0
  5  7  1  0
  7  8  1  0
  8  9  1  0
  9 10  1  0
  9 11  1  0
 11 12  1  0
 12 13  1  0
 13 14  2  0
 14 15  1  0
 15 16  2  0
 16 17  1  0
 16 18  1  0
 18 19  2  0
  2 20  1  0
 20 21  2  0
 21 22  1  0
 22 23  2  0
 23 24  1  0
 24 25  2  0
 25 26  1  0
 25 27  1  0
 27 28  2  0
 28 29  1  0
 29 30  2  0
 12  7  1  0
 19 13  1  0
 30 20  1  0
 29 23  1  0
  3 31  1  0
  4 32  1  0
  4 33  1  0
  8 34  1  0
  8 35  1  0
  9 36  1  1
 10 37  1  0
 11 38  1  0
 11 39  1  0
 12 40  1  6
 14 41  1  0
 15 42  1  0
 18 43  1  0
 19 44  1  0
 21 45  1  0
 22 46  1  0
 24 47  1  0
 27 48  1  0
 28 49  1  0
M  END
>  <smiles>  (31) 
O=C(NCC(=O)N1C[C@H](O)C[C@H]1c1ccc(Cl)cc1)c1ccc2cc(F)ccc2n1

>  <score_type>  (31) 
oracle

>  <origin>  (31) 
autodockgpu

>  <m_score__min__energy>  (31) 
-8.7400000000000002

>  <m_primary>  (31) 
energy

>  <rmsd>  (31) 
1.928810936163852

>  <m_score__min__rmsd>  (31) 
1.928810936163852

>  <meeko>  (31) 
{"free_energy": -8.35, "intermolecular_energy": -10.14, "internal_energy": -1.64, "cluster_size": 37, "cluster_id": 1, "rank_in_cluster": 13}

>  <energy>  (31) 
-8.12

>  <cluster_rmsd>  (31) 
1.42

>  <cluster>  (31) 
1

$$$$

     RDKit          3D

 49 52  0  0  0  0  0  0  0  0999 V2000
  138.1480   70.8610  221.8940 O   0  0  0  0  0  0  0  0  0  0  0  0
  138.8630   71.3460  222.8040 C   0  0  0  0  0  0  0  0  0  0  0  0
  139.3790   72.6700  222.7860 N   0  0  0  0  0  0  0  0  0  0  0  0
  139.0520   73.5150  221.6350 C   0  0  0  0  0  0  0  0  0  0  0  0
  140.2270   74.4010  221.4210 C   0  0  0  0  0  0  0  0  0  0  0  0
  141.3910   74.1100  221.8070 O   0  0  0  0  0  0  0  0  0  0  0  0
  140.0720   75.6450  220.7520 N   0  0  0  0  0  0  0  0  0  0  0  0
  138.8280   76.3620  220.5550 C   0  0  0  0  0  0  0  0  0  0  0  0
  139.0160   77.2640  219.3560 C   0  0  2  0  0  0  0  0  0  0  0  0
  138.0150   77.0720  218.4060 O   0  0  0  0  0  0  0  0  0  0  0  0
  140.3700   76.8320  218.8350 C   0  0  0  0  0  0  0  0  0  0  0  0
  141.0900   76.4810  220.1200 C   0  0  1  0  0  0  0  0  0  0  0  0
  141.3020   77.6550  220.9840 C   0  0  0  0  0  0  0  0  0  0  0  0
  141.6850   78.8930  220.5460 C   0  0  0  0  0  0  0  0  0  0  0  0
  141.8790   79.9830  221.3680 C   0  0  0  0  0  0  0  0  0  0  0  0
  141.6830   79.8530  222.7260 C   0  0  0  0  0  0  0  0  0  0  0  0
  141.9080   81.1860  223.8360 Cl  0  0  0  0  0  0  0  0  0  0  0  0
  141.2960   78.6140  223.2000 C   0  0  0  0  0  0  0  0  0  0  0  0
  141.1040   77.5230  222.3630 C   0  0  0  0  0  0  0  0  0  0  0  0
  139.1940   70.5010  223.9630 C   0  0  0  0  0  0  0  0  0  0  0  0
  138.8820   69.1510  223.9670 C   0  0  0  0  0  0  0  0  0  0  0  0
  139.1770   68.3240  225.0360 C   0  0  0  0  0  0  0  0  0  0  0  0
  139.8060   68.8780  226.1340 C   0  0  0  0  0  0  0  0  0  0  0  0
  140.0950   68.0460  227.1940 C   0  0  0  0  0  0  0  0  0  0  0  0
  140.7260   68.5750  228.3070 C   0  0  0  0  0  0  0  0  0  0  0  0
  141.0010   67.7340  229.3420 F   0  0  0  0  0  0  0  0  0  0  0  0
  141.0480   69.9160  228.3270 C   0  0  0  0  0  0  0  0  0  0  0  0
  140.7440   70.7360  227.2400 C   0  0  0  0  0  0  0  0  0  0  0  0
  140.1110   70.2220  226.1170 C   0  0  0  0  0  0  0  0  0  0  0  0
  139.8090   71.0010  225.0570 N   0  0  0  0  0  0  0  0  0  0  0  0
  139.9800   73.0560  223.5630 H   0  0  0  0  0  0  0  0  0  0  0  0
  138.8759   72.8940  220.7443 H   0  0  0  0  0  0  0  0  0  0  0  0
  138.1377   74.0996  221.8149 H   0  0  0  0  0  0  0  0  0  0  0  0
  138.0094   75.6516  220.3674 H   0  0  0  0  0  0  0  0  0  0  0  0
  138.5705   76.9494  221.4486 H   0  0  0  0  0  0  0  0  0  0  0  0
  138.9617   78.3350  219.6008 H   0  0  0  0  0  0  0  0  0  0  0  0
  138.3490   77.4780  217.5650 H   0  0  0  0  0  0  0  0  0  0  0  0
  140.2852   75.9594  218.1707 H   0  0  0  0  0  0  0  0  0  0  0  0
  140.8811   77.5941  218.2283 H   0  0  0  0  0  0  0  0  0  0  0  0
  142.0840   76.0396  219.9552 H   0  0  0  0  0  0  0  0  0  0  0  0
  141.8491   79.0279  219.4667 H   0  0  0  0  0  0  0  0  0  0  0  0
  142.1880   80.9494  220.9429 H   0  0  0  0  0  0  0  0  0  0  0  0
  141.1340   78.4874  224.2806 H   0  0  0  0  0  0  0  0  0  0  0  0
  140.7961   76.5545  222.7840 H   0  0  0  0  0  0  0  0  0  0  0  0
  138.3810   68.7208  223.0873 H   0  0  0  0  0  0  0  0  0  0  0  0
  138.9180   67.2552  225.0123 H   0  0  0  0  0  0  0  0  0  0  0  0
  139.8288   66.9794  227.1564 H   0  0  0  0  0  0  0  0  0  0  0  0
  141.5492   70.3429  229.2082 H   0  0  0  0  0  0  0  0  0  0  0  0
  141.0093   71.8030  227.2735 H   0  0  0  0  0  0  0  0  0  0  0  0
  1  2  2  0
  2  3  1  0
  3  4  1  0
  4  5  1  0
  5  6  2  0
  5  7  1  0
  7  8  1  0
  8  9  1  0
  9 10  1  0
  9 11  1  0
 11 12  1  0
 12 13  1  0
 13 14  2  0
 14 15  1  0
 15 16  2  0
 16 17  1  0
 16 18  1  0
 18 19  2  0
  2 20  1  0
 20 21  2  0
 21 22  1  0
 22 23  2  0
 23 24  1  0
 24 25  2  0
 25 26  1  0
 25 27  1  0
 27 28  2  0
 28 29  1  0
 29 30  2  0
 12  7  1  0
 19 13  1  0
 30 20  1  0
 29 23  1  0
  3 31  1  0
  4 32  1  0
  4 33  1  0
  8 34  1  0
  8 35  1  0
  9 36  1  1
 10 37  1  0
 11 38  1  0
 11 39  1  0
 12 40  1  6
 14 41  1  0
 15 42  1  0
 18 43  1  0
 19 44  1  0
 21 45  1  0
 22 46  1  0
 24 47  1  0
 27 48  1  0
 28 49  1  0
M  END
>  <smiles>  (32) 
O=C(NCC(=O)N1C[C@H](O)C[C@H]1c1ccc(Cl)cc1)c1ccc2cc(F)ccc2n1

>  <score_type>  (32) 
oracle

>  <origin>  (32) 
autodockgpu

>  <m_score__min__energy>  (32) 
-8.7400000000000002

>  <m_primary>  (32) 
energy

>  <rmsd>  (32) 
1.4235339746385194

>  <m_score__min__rmsd>  (32) 
1.4235339746385194

>  <meeko>  (32) 
{"free_energy": -7.97, "intermolecular_energy": -9.76, "internal_energy": -1.63, "cluster_size": 37, "cluster_id": 1, "rank_in_cluster": 33}

>  <energy>  (32) 
-8.1

>  <cluster_rmsd>  (32) 
1.45

>  <cluster>  (32) 
1

$$$$

     RDKit          3D

 49 52  0  0  0  0  0  0  0  0999 V2000
  139.7030   71.1860  221.1600 O   0  0  0  0  0  0  0  0  0  0  0  0
  139.5830   71.7350  222.2820 C   0  0  0  0  0  0  0  0  0  0  0  0
  139.3450   73.1250  222.4620 N   0  0  0  0  0  0  0  0  0  0  0  0
  139.2340   73.9600  221.2640 C   0  0  0  0  0  0  0  0  0  0  0  0
  139.1580   75.3660  221.7410 C   0  0  0  0  0  0  0  0  0  0  0  0
  138.5690   75.7040  222.8030 O   0  0  0  0  0  0  0  0  0  0  0  0
  139.7640   76.4100  220.9910 N   0  0  0  0  0  0  0  0  0  0  0  0
  139.0730   77.4060  220.1960 C   0  0  0  0  0  0  0  0  0  0  0  0
  140.0520   77.9060  219.1580 C   0  0  2  0  0  0  0  0  0  0  0  0
  139.5280   77.8150  217.8700 O   0  0  0  0  0  0  0  0  0  0  0  0
  141.2310   76.9760  219.3480 C   0  0  0  0  0  0  0  0  0  0  0  0
  141.1820   76.7290  220.8410 C   0  0  1  0  0  0  0  0  0  0  0  0
  141.4500   77.9480  221.6230 C   0  0  0  0  0  0  0  0  0  0  0  0
  141.9090   79.1280  221.1030 C   0  0  0  0  0  0  0  0  0  0  0  0
  142.1540   80.2630  221.8490 C   0  0  0  0  0  0  0  0  0  0  0  0
  141.9330   80.2430  223.2080 C   0  0  0  0  0  0  0  0  0  0  0  0
  142.2190   81.6370  224.2230 Cl  0  0  0  0  0  0  0  0  0  0  0  0
  141.4690   79.0650  223.7630 C   0  0  0  0  0  0  0  0  0  0  0  0
  141.2260   77.9280  223.0040 C   0  0  0  0  0  0  0  0  0  0  0  0
  139.6940   70.9000  223.4890 C   0  0  0  0  0  0  0  0  0  0  0  0
  139.2260   69.5960  223.4930 C   0  0  0  0  0  0  0  0  0  0  0  0
  139.3120   68.7800  224.6060 C   0  0  0  0  0  0  0  0  0  0  0  0
  139.8870   69.2980  225.7510 C   0  0  0  0  0  0  0  0  0  0  0  0
  139.9670   68.4770  226.8550 C   0  0  0  0  0  0  0  0  0  0  0  0
  140.5390   68.9690  228.0150 C   0  0  0  0  0  0  0  0  0  0  0  0
  140.6080   68.1400  229.0930 F   0  0  0  0  0  0  0  0  0  0  0  0
  141.0130   70.2650  228.0360 C   0  0  0  0  0  0  0  0  0  0  0  0
  140.9190   71.0750  226.9050 C   0  0  0  0  0  0  0  0  0  0  0  0
  140.3480   70.5960  225.7340 C   0  0  0  0  0  0  0  0  0  0  0  0
  140.2490   71.3660  224.6290 N   0  0  0  0  0  0  0  0  0  0  0  0
  139.2480   73.5660  223.4160 H   0  0  0  0  0  0  0  0  0  0  0  0
  140.1160   73.8230  220.6212 H   0  0  0  0  0  0  0  0  0  0  0  0
  138.3483   73.6910  220.6698 H   0  0  0  0  0  0  0  0  0  0  0  0
  138.1988   76.9552  219.7035 H   0  0  0  0  0  0  0  0  0  0  0  0
  138.7174   78.2329  220.8283 H   0  0  0  0  0  0  0  0  0  0  0  0
  140.3093   78.9689  219.2761 H   0  0  0  0  0  0  0  0  0  0  0  0
  139.0350   78.6600  217.7090 H   0  0  0  0  0  0  0  0  0  0  0  0
  141.1016   76.0420  218.7816 H   0  0  0  0  0  0  0  0  0  0  0  0
  142.1878   77.3857  218.9920 H   0  0  0  0  0  0  0  0  0  0  0  0
  141.9136   75.9817  221.1820 H   0  0  0  0  0  0  0  0  0  0  0  0
  142.0947   79.1747  220.0198 H   0  0  0  0  0  0  0  0  0  0  0  0
  142.5233   81.1772  221.3613 H   0  0  0  0  0  0  0  0  0  0  0  0
  141.2853   79.0270  224.8469 H   0  0  0  0  0  0  0  0  0  0  0  0
  140.8575   77.0117  223.4883 H   0  0  0  0  0  0  0  0  0  0  0  0
  138.7689   69.1948  222.5764 H   0  0  0  0  0  0  0  0  0  0  0  0
  138.9334   67.7475  224.5808 H   0  0  0  0  0  0  0  0  0  0  0  0
  139.5824   67.4472  226.8147 H   0  0  0  0  0  0  0  0  0  0  0  0
  141.4696   70.6629  228.9543 H   0  0  0  0  0  0  0  0  0  0  0  0
  141.3018   72.1056  226.9411 H   0  0  0  0  0  0  0  0  0  0  0  0
  1  2  2  0
  2  3  1  0
  3  4  1  0
  4  5  1  0
  5  6  2  0
  5  7  1  0
  7  8  1  0
  8  9  1  0
  9 10  1  0
  9 11  1  0
 11 12  1  0
 12 13  1  0
 13 14  2  0
 14 15  1  0
 15 16  2  0
 16 17  1  0
 16 18  1  0
 18 19  2  0
  2 20  1  0
 20 21  2  0
 21 22  1  0
 22 23  2  0
 23 24  1  0
 24 25  2  0
 25 26  1  0
 25 27  1  0
 27 28  2  0
 28 29  1  0
 29 30  2  0
 12  7  1  0
 19 13  1  0
 30 20  1  0
 29 23  1  0
  3 31  1  0
  4 32  1  0
  4 33  1  0
  8 34  1  0
  8 35  1  0
  9 36  1  1
 10 37  1  0
 11 38  1  0
 11 39  1  0
 12 40  1  6
 14 41  1  0
 15 42  1  0
 18 43  1  0
 19 44  1  0
 21 45  1  0
 22 46  1  0
 24 47  1  0
 27 48  1  0
 28 49  1  0
M  END
>  <smiles>  (33) 
O=C(NCC(=O)N1C[C@H](O)C[C@H]1c1ccc(Cl)cc1)c1ccc2cc(F)ccc2n1

>  <score_type>  (33) 
oracle

>  <origin>  (33) 
autodockgpu

>  <m_score__min__energy>  (33) 
-8.7400000000000002

>  <m_primary>  (33) 
energy

>  <rmsd>  (33) 
1.5439531180614106

>  <m_score__min__rmsd>  (33) 
1.5439531180614106

>  <meeko>  (33) 
{"free_energy": -8.2, "intermolecular_energy": -9.99, "internal_energy": -1.6, "cluster_size": 37, "cluster_id": 1, "rank_in_cluster": 23}

>  <energy>  (33) 
-7.97

>  <cluster_rmsd>  (33) 
1.15

>  <cluster>  (33) 
1

$$$$

     RDKit          3D

 49 52  0  0  0  0  0  0  0  0999 V2000
  137.0430   76.0330  222.1800 O   0  0  0  0  0  0  0  0  0  0  0  0
  138.2830   76.0670  222.3670 C   0  0  0  0  0  0  0  0  0  0  0  0
  139.1270   74.9270  222.2850 N   0  0  0  0  0  0  0  0  0  0  0  0
  138.5080   73.6390  221.9640 C   0  0  0  0  0  0  0  0  0  0  0  0
  139.5000   72.5950  222.3330 C   0  0  0  0  0  0  0  0  0  0  0  0
  140.7410   72.8100  222.3920 O   0  0  0  0  0  0  0  0  0  0  0  0
  139.0700   71.2760  222.6410 N   0  0  0  0  0  0  0  0  0  0  0  0
  139.5640   70.0520  222.0420 C   0  0  0  0  0  0  0  0  0  0  0  0
  138.4840   69.0060  222.2060 C   0  0  2  0  0  0  0  0  0  0  0  0
  138.1560   68.4100  220.9890 O   0  0  0  0  0  0  0  0  0  0  0  0
  137.3310   69.8140  222.7600 C   0  0  0  0  0  0  0  0  0  0  0  0
  138.0600   70.8410  223.6030 C   0  0  1  0  0  0  0  0  0  0  0  0
  138.7640   70.2330  224.7450 C   0  0  0  0  0  0  0  0  0  0  0  0
  138.4730   69.0100  225.2860 C   0  0  0  0  0  0  0  0  0  0  0  0
  139.1440   68.4540  226.3550 C   0  0  0  0  0  0  0  0  0  0  0  0
  140.1790   69.1470  226.9430 C   0  0  0  0  0  0  0  0  0  0  0  0
  141.0790   68.5130  228.3010 Cl  0  0  0  0  0  0  0  0  0  0  0  0
  140.4970   70.3860  226.4190 C   0  0  0  0  0  0  0  0  0  0  0  0
  139.8160   70.9370  225.3420 C   0  0  0  0  0  0  0  0  0  0  0  0
  138.9100   77.3580  222.6890 C   0  0  0  0  0  0  0  0  0  0  0  0
  138.1360   78.4840  222.9220 C   0  0  0  0  0  0  0  0  0  0  0  0
  138.6870   79.7140  223.2290 C   0  0  0  0  0  0  0  0  0  0  0  0
  140.0630   79.8110  223.3010 C   0  0  0  0  0  0  0  0  0  0  0  0
  140.6030   81.0420  223.6070 C   0  0  0  0  0  0  0  0  0  0  0  0
  141.9800   81.1680  223.6860 C   0  0  0  0  0  0  0  0  0  0  0  0
  142.4900   82.3940  223.9890 F   0  0  0  0  0  0  0  0  0  0  0  0
  142.7720   80.0630  223.4580 C   0  0  0  0  0  0  0  0  0  0  0  0
  142.2010   78.8290  223.1510 C   0  0  0  0  0  0  0  0  0  0  0  0
  140.8230   78.6850  223.0670 C   0  0  0  0  0  0  0  0  0  0  0  0
  140.2510   77.4980  222.7700 N   0  0  0  0  0  0  0  0  0  0  0  0
  140.1690   74.9780  222.4470 H   0  0  0  0  0  0  0  0  0  0  0  0
  137.5824   73.5065  222.5434 H   0  0  0  0  0  0  0  0  0  0  0  0
  138.2417   73.5783  220.8985 H   0  0  0  0  0  0  0  0  0  0  0  0
  139.7737   70.2129  220.9742 H   0  0  0  0  0  0  0  0  0  0  0  0
  140.4971   69.7290  222.5268 H   0  0  0  0  0  0  0  0  0  0  0  0
  138.7816   68.1672  222.8524 H   0  0  0  0  0  0  0  0  0  0  0  0
  137.2020   68.6270  220.8220 H   0  0  0  0  0  0  0  0  0  0  0  0
  136.7521   70.2918  221.9559 H   0  0  0  0  0  0  0  0  0  0  0  0
  136.5927   69.2186  223.3171 H   0  0  0  0  0  0  0  0  0  0  0  0
  137.3948   71.6072  224.0276 H   0  0  0  0  0  0  0  0  0  0  0  0
  137.6502   68.4328  224.8390 H   0  0  0  0  0  0  0  0  0  0  0  0
  138.8544   67.4634  226.7356 H   0  0  0  0  0  0  0  0  0  0  0  0
  141.3207   70.9569  226.8725 H   0  0  0  0  0  0  0  0  0  0  0  0
  140.1032   71.9269  224.9579 H   0  0  0  0  0  0  0  0  0  0  0  0
  137.0413   78.3954  222.8602 H   0  0  0  0  0  0  0  0  0  0  0  0
  138.0479   80.5906  223.4108 H   0  0  0  0  0  0  0  0  0  0  0  0
  139.9510   81.9098  223.7854 H   0  0  0  0  0  0  0  0  0  0  0  0
  143.8664   80.1561  223.5190 H   0  0  0  0  0  0  0  0  0  0  0  0
  142.8502   77.9590  222.9732 H   0  0  0  0  0  0  0  0  0  0  0  0
  1  2  2  0
  2  3  1  0
  3  4  1  0
  4  5  1  0
  5  6  2  0
  5  7  1  0
  7  8  1  0
  8  9  1  0
  9 10  1  0
  9 11  1  0
 11 12  1  0
 12 13  1  0
 13 14  2  0
 14 15  1  0
 15 16  2  0
 16 17  1  0
 16 18  1  0
 18 19  2  0
  2 20  1  0
 20 21  2  0
 21 22  1  0
 22 23  2  0
 23 24  1  0
 24 25  2  0
 25 26  1  0
 25 27  1  0
 27 28  2  0
 28 29  1  0
 29 30  2  0
 12  7  1  0
 19 13  1  0
 30 20  1  0
 29 23  1  0
  3 31  1  0
  4 32  1  0
  4 33  1  0
  8 34  1  0
  8 35  1  0
  9 36  1  1
 10 37  1  0
 11 38  1  0
 11 39  1  0
 12 40  1  1
 14 41  1  0
 15 42  1  0
 18 43  1  0
 19 44  1  0
 21 45  1  0
 22 46  1  0
 24 47  1  0
 27 48  1  0
 28 49  1  0
M  END
>  <smiles>  (34) 
O=C(NCC(=O)N1C[C@H](O)C[C@H]1c1ccc(Cl)cc1)c1ccc2cc(F)ccc2n1

>  <score_type>  (34) 
oracle

>  <origin>  (34) 
autodockgpu

>  <m_score__min__energy>  (34) 
-8.7400000000000002

>  <m_primary>  (34) 
energy

>  <rmsd>  (34) 
8.602718871912648

>  <m_score__min__rmsd>  (34) 
8.602718871912648

>  <meeko>  (34) 
{"free_energy": -7.7, "intermolecular_energy": -9.49, "internal_energy": -1.92, "cluster_size": 4, "cluster_id": 5, "rank_in_cluster": 4}

>  <energy>  (34) 
-7.91

>  <cluster_rmsd>  (34) 
1.44

>  <cluster>  (34) 
1

$$$$

     RDKit          3D

 49 52  0  0  0  0  0  0  0  0999 V2000
  140.1610   71.7550  221.1170 O   0  0  0  0  0  0  0  0  0  0  0  0
  139.5770   72.1550  222.1530 C   0  0  0  0  0  0  0  0  0  0  0  0
  138.7800   73.3300  222.2100 N   0  0  0  0  0  0  0  0  0  0  0  0
  138.6360   74.1190  220.9840 C   0  0  0  0  0  0  0  0  0  0  0  0
  138.8750   75.5350  221.3670 C   0  0  0  0  0  0  0  0  0  0  0  0
  138.0190   76.2430  221.9650 O   0  0  0  0  0  0  0  0  0  0  0  0
  140.1150   76.1600  221.0630 N   0  0  0  0  0  0  0  0  0  0  0  0
  140.8890   77.0020  221.9520 C   0  0  0  0  0  0  0  0  0  0  0  0
  141.7610   77.8830  221.0860 C   0  0  2  0  0  0  0  0  0  0  0  0
  141.6050   79.2320  221.4010 O   0  0  0  0  0  0  0  0  0  0  0  0
  141.2540   77.5730  219.6940 C   0  0  0  0  0  0  0  0  0  0  0  0
  140.8880   76.1100  219.8250 C   0  0  1  0  0  0  0  0  0  0  0  0
  142.0630   75.2560  220.0690 C   0  0  0  0  0  0  0  0  0  0  0  0
  142.0240   74.0030  220.6200 C   0  0  0  0  0  0  0  0  0  0  0  0
  143.1330   73.2150  220.8400 C   0  0  0  0  0  0  0  0  0  0  0  0
  144.3810   73.6870  220.4950 C   0  0  0  0  0  0  0  0  0  0  0  0
  145.8370   72.7510  220.7420 Cl  0  0  0  0  0  0  0  0  0  0  0  0
  144.4550   74.9490  219.9360 C   0  0  0  0  0  0  0  0  0  0  0  0
  143.3310   75.7350  219.7190 C   0  0  0  0  0  0  0  0  0  0  0  0
  139.7180   71.3670  223.3880 C   0  0  0  0  0  0  0  0  0  0  0  0
  139.3080   70.0440  223.4350 C   0  0  0  0  0  0  0  0  0  0  0  0
  139.4250   69.2700  224.5760 C   0  0  0  0  0  0  0  0  0  0  0  0
  139.9720   69.8510  225.7030 C   0  0  0  0  0  0  0  0  0  0  0  0
  140.0830   69.0720  226.8350 C   0  0  0  0  0  0  0  0  0  0  0  0
  140.6280   69.6290  227.9800 C   0  0  0  0  0  0  0  0  0  0  0  0
  140.7280   68.8400  229.0850 F   0  0  0  0  0  0  0  0  0  0  0  0
  141.0440   70.9440  227.9580 C   0  0  0  0  0  0  0  0  0  0  0  0
  140.9200   71.7100  226.8000 C   0  0  0  0  0  0  0  0  0  0  0  0
  140.3760   71.1680  225.6440 C   0  0  0  0  0  0  0  0  0  0  0  0
  140.2470   71.8950  224.5140 N   0  0  0  0  0  0  0  0  0  0  0  0
  138.2980   73.6480  223.0940 H   0  0  0  0  0  0  0  0  0  0  0  0
  139.3749   73.7973  220.2353 H   0  0  0  0  0  0  0  0  0  0  0  0
  137.6380   73.9885  220.5402 H   0  0  0  0  0  0  0  0  0  0  0  0
  140.2173   77.6216  222.5642 H   0  0  0  0  0  0  0  0  0  0  0  0
  141.5024   76.3925  222.6318 H   0  0  0  0  0  0  0  0  0  0  0  0
  142.8371   77.6935  221.2132 H   0  0  0  0  0  0  0  0  0  0  0  0
  142.4880   79.6570  221.2490 H   0  0  0  0  0  0  0  0  0  0  0  0
  140.3763   78.1856  219.4403 H   0  0  0  0  0  0  0  0  0  0  0  0
  141.9800   77.7839  218.8950 H   0  0  0  0  0  0  0  0  0  0  0  0
  140.3951   75.7034  218.9296 H   0  0  0  0  0  0  0  0  0  0  0  0
  141.0419   73.5984  220.9061 H   0  0  0  0  0  0  0  0  0  0  0  0
  143.0228   72.2163  221.2878 H   0  0  0  0  0  0  0  0  0  0  0  0
  145.4411   75.3455  219.6525 H   0  0  0  0  0  0  0  0  0  0  0  0
  143.4370   76.7344  219.2719 H   0  0  0  0  0  0  0  0  0  0  0  0
  138.8732   69.5922  222.5312 H   0  0  0  0  0  0  0  0  0  0  0  0
  139.0918   68.2217  224.5851 H   0  0  0  0  0  0  0  0  0  0  0  0
  139.7443   68.0254  226.8290 H   0  0  0  0  0  0  0  0  0  0  0  0
  141.4781   71.3928  228.8636 H   0  0  0  0  0  0  0  0  0  0  0  0
  141.2575   72.7570  226.8025 H   0  0  0  0  0  0  0  0  0  0  0  0
  1  2  2  0
  2  3  1  0
  3  4  1  0
  4  5  1  0
  5  6  2  0
  5  7  1  0
  7  8  1  0
  8  9  1  0
  9 10  1  0
  9 11  1  0
 11 12  1  0
 12 13  1  0
 13 14  2  0
 14 15  1  0
 15 16  2  0
 16 17  1  0
 16 18  1  0
 18 19  2  0
  2 20  1  0
 20 21  2  0
 21 22  1  0
 22 23  2  0
 23 24  1  0
 24 25  2  0
 25 26  1  0
 25 27  1  0
 27 28  2  0
 28 29  1  0
 29 30  2  0
 12  7  1  0
 19 13  1  0
 30 20  1  0
 29 23  1  0
  3 31  1  0
  4 32  1  0
  4 33  1  0
  8 34  1  0
  8 35  1  0
  9 36  1  6
 10 37  1  0
 11 38  1  0
 11 39  1  0
 12 40  1  6
 14 41  1  0
 15 42  1  0
 18 43  1  0
 19 44  1  0
 21 45  1  0
 22 46  1  0
 24 47  1  0
 27 48  1  0
 28 49  1  0
M  END
>  <smiles>  (35) 
O=C(NCC(=O)N1C[C@H](O)C[C@H]1c1ccc(Cl)cc1)c1ccc2cc(F)ccc2n1

>  <score_type>  (35) 
oracle

>  <origin>  (35) 
autodockgpu

>  <m_score__min__energy>  (35) 
-8.7400000000000002

>  <m_primary>  (35) 
energy

>  <rmsd>  (35) 
2.1459052652548385

>  <m_score__min__rmsd>  (35) 
2.1459052652548385

>  <meeko>  (35) 
{"free_energy": -8.22, "intermolecular_energy": -10.01, "internal_energy": -1.58, "cluster_size": 7, "cluster_id": 2, "rank_in_cluster": 1}

>  <energy>  (35) 
-7.86

>  <cluster_rmsd>  (35) 
1.01

>  <cluster>  (35) 
1

$$$$

     RDKit          3D

 49 52  0  0  0  0  0  0  0  0999 V2000
  140.3800   71.3960  221.1650 O   0  0  0  0  0  0  0  0  0  0  0  0
  140.0200   71.9280  222.2430 C   0  0  0  0  0  0  0  0  0  0  0  0
  139.6050   73.2820  222.3580 N   0  0  0  0  0  0  0  0  0  0  0  0
  139.6000   74.1010  221.1440 C   0  0  0  0  0  0  0  0  0  0  0  0
  139.0710   75.4330  221.5400 C   0  0  0  0  0  0  0  0  0  0  0  0
  138.2490   75.5970  222.4820 O   0  0  0  0  0  0  0  0  0  0  0  0
  139.4860   76.6020  220.8480 N   0  0  0  0  0  0  0  0  0  0  0  0
  138.6300   77.6840  220.4040 C   0  0  0  0  0  0  0  0  0  0  0  0
  139.3390   78.3760  219.2620 C   0  0  2  0  0  0  0  0  0  0  0  0
  138.5280   78.4670  218.1320 O   0  0  0  0  0  0  0  0  0  0  0  0
  140.5290   77.4710  219.0230 C   0  0  0  0  0  0  0  0  0  0  0  0
  140.8290   76.9920  220.4280 C   0  0  1  0  0  0  0  0  0  0  0  0
  141.2740   78.0840  221.3110 C   0  0  0  0  0  0  0  0  0  0  0  0
  141.8370   79.2570  220.8880 C   0  0  0  0  0  0  0  0  0  0  0  0
  142.2460   80.2710  221.7280 C   0  0  0  0  0  0  0  0  0  0  0  0
  142.0940   80.1270  223.0900 C   0  0  0  0  0  0  0  0  0  0  0  0
  142.5880   81.3650  224.2230 Cl  0  0  0  0  0  0  0  0  0  0  0  0
  141.5290   78.9530  223.5500 C   0  0  0  0  0  0  0  0  0  0  0  0
  141.1200   77.9380  222.6950 C   0  0  0  0  0  0  0  0  0  0  0  0
  140.0220   71.1090  223.4660 C   0  0  0  0  0  0  0  0  0  0  0  0
  139.5240   69.8160  223.4540 C   0  0  0  0  0  0  0  0  0  0  0  0
  139.5100   69.0150  224.5820 C   0  0  0  0  0  0  0  0  0  0  0  0
  140.0130   69.5380  225.7580 C   0  0  0  0  0  0  0  0  0  0  0  0
  139.9940   68.7320  226.8760 C   0  0  0  0  0  0  0  0  0  0  0  0
  140.4920   69.2300  228.0680 C   0  0  0  0  0  0  0  0  0  0  0  0
  140.4620   68.4160  229.1590 F   0  0  0  0  0  0  0  0  0  0  0  0
  140.9940   70.5140  228.1060 C   0  0  0  0  0  0  0  0  0  0  0  0
  141.0020   71.3080  226.9590 C   0  0  0  0  0  0  0  0  0  0  0  0
  140.5050   70.8250  225.7570 C   0  0  0  0  0  0  0  0  0  0  0  0
  140.5050   71.5800  224.6370 N   0  0  0  0  0  0  0  0  0  0  0  0
  139.3060   73.7090  223.2760 H   0  0  0  0  0  0  0  0  0  0  0  0
  140.6212   74.1996  220.7471 H   0  0  0  0  0  0  0  0  0  0  0  0
  138.9826   73.6441  220.3566 H   0  0  0  0  0  0  0  0  0  0  0  0
  137.6644   77.2840  220.0610 H   0  0  0  0  0  0  0  0  0  0  0  0
  138.4337   78.3885  221.2256 H   0  0  0  0  0  0  0  0  0  0  0  0
  139.6172   79.4164  219.4860 H   0  0  0  0  0  0  0  0  0  0  0  0
  138.2480   79.4170  218.0670 H   0  0  0  0  0  0  0  0  0  0  0  0
  140.2700   76.6330  218.3592 H   0  0  0  0  0  0  0  0  0  0  0  0
  141.3769   77.9656  218.5265 H   0  0  0  0  0  0  0  0  0  0  0  0
  141.6185   76.2270  220.4674 H   0  0  0  0  0  0  0  0  0  0  0  0
  141.9724   79.4007  219.8059 H   0  0  0  0  0  0  0  0  0  0  0  0
  142.6904   81.1881  221.3140 H   0  0  0  0  0  0  0  0  0  0  0  0
  141.3983   78.8173  224.6337 H   0  0  0  0  0  0  0  0  0  0  0  0
  140.6750   77.0194  223.1050 H   0  0  0  0  0  0  0  0  0  0  0  0
  139.1248   69.4112  222.5123 H   0  0  0  0  0  0  0  0  0  0  0  0
  139.1099   67.9911  224.5438 H   0  0  0  0  0  0  0  0  0  0  0  0
  139.5900   67.7103  226.8221 H   0  0  0  0  0  0  0  0  0  0  0  0
  141.3918   70.9158  229.0496 H   0  0  0  0  0  0  0  0  0  0  0  0
  141.4073   72.3294  227.0081 H   0  0  0  0  0  0  0  0  0  0  0  0
  1  2  2  0
  2  3  1  0
  3  4  1  0
  4  5  1  0
  5  6  2  0
  5  7  1  0
  7  8  1  0
  8  9  1  0
  9 10  1  0
  9 11  1  0
 11 12  1  0
 12 13  1  0
 13 14  2  0
 14 15  1  0
 15 16  2  0
 16 17  1  0
 16 18  1  0
 18 19  2  0
  2 20  1  0
 20 21  2  0
 21 22  1  0
 22 23  2  0
 23 24  1  0
 24 25  2  0
 25 26  1  0
 25 27  1  0
 27 28  2  0
 28 29  1  0
 29 30  2  0
 12  7  1  0
 19 13  1  0
 30 20  1  0
 29 23  1  0
  3 31  1  0
  4 32  1  0
  4 33  1  0
  8 34  1  0
  8 35  1  0
  9 36  1  1
 10 37  1  0
 11 38  1  0
 11 39  1  0
 12 40  1  6
 14 41  1  0
 15 42  1  0
 18 43  1  0
 19 44  1  0
 21 45  1  0
 22 46  1  0
 24 47  1  0
 27 48  1  0
 28 49  1  0
M  END
>  <smiles>  (36) 
O=C(NCC(=O)N1C[C@H](O)C[C@H]1c1ccc(Cl)cc1)c1ccc2cc(F)ccc2n1

>  <score_type>  (36) 
oracle

>  <origin>  (36) 
autodockgpu

>  <m_score__min__energy>  (36) 
-8.7400000000000002

>  <m_primary>  (36) 
energy

>  <rmsd>  (36) 
1.7400827783458372

>  <m_score__min__rmsd>  (36) 
1.7400827783458372

>  <meeko>  (36) 
{"free_energy": -8.19, "intermolecular_energy": -9.98, "internal_energy": -1.69, "cluster_size": 37, "cluster_id": 1, "rank_in_cluster": 25}

>  <energy>  (36) 
-7.74

>  <cluster_rmsd>  (36) 
1.74

>  <cluster>  (36) 
1

$$$$

     RDKit          3D

 49 52  0  0  0  0  0  0  0  0999 V2000
  140.8680   72.0590  221.5310 O   0  0  0  0  0  0  0  0  0  0  0  0
  139.9780   72.2300  222.3980 C   0  0  0  0  0  0  0  0  0  0  0  0
  138.9720   73.2300  222.3160 N   0  0  0  0  0  0  0  0  0  0  0  0
  138.9790   74.1120  221.1450 C   0  0  0  0  0  0  0  0  0  0  0  0
  140.0850   75.0820  221.3600 C   0  0  0  0  0  0  0  0  0  0  0  0
  141.1250   74.8090  222.0190 O   0  0  0  0  0  0  0  0  0  0  0  0
  140.0050   76.3900  220.8120 N   0  0  0  0  0  0  0  0  0  0  0  0
  138.8250   77.2300  220.7690 C   0  0  0  0  0  0  0  0  0  0  0  0
  139.0180   78.2160  219.6390 C   0  0  2  0  0  0  0  0  0  0  0  0
  137.9420   78.2020  218.7540 O   0  0  0  0  0  0  0  0  0  0  0  0
  140.2870   77.7140  218.9840 C   0  0  0  0  0  0  0  0  0  0  0  0
  141.0540   77.1850  220.1780 C   0  0  1  0  0  0  0  0  0  0  0  0
  141.4340   78.2520  221.1200 C   0  0  0  0  0  0  0  0  0  0  0  0
  141.8200   79.5160  220.7610 C   0  0  0  0  0  0  0  0  0  0  0  0
  142.1720   80.5050  221.6550 C   0  0  0  0  0  0  0  0  0  0  0  0
  142.1450   80.2390  223.0070 C   0  0  0  0  0  0  0  0  0  0  0  0
  142.5770   81.4370  224.2050 Cl  0  0  0  0  0  0  0  0  0  0  0  0
  141.7600   78.9720  223.4020 C   0  0  0  0  0  0  0  0  0  0  0  0
  141.4080   77.9830  222.4930 C   0  0  0  0  0  0  0  0  0  0  0  0
  139.9660   71.3470  223.5760 C   0  0  0  0  0  0  0  0  0  0  0  0
  139.3860   70.0900  223.5130 C   0  0  0  0  0  0  0  0  0  0  0  0
  139.3550   69.2310  224.5970 C   0  0  0  0  0  0  0  0  0  0  0  0
  139.9270   69.6560  225.7810 C   0  0  0  0  0  0  0  0  0  0  0  0
  139.8910   68.7930  226.8550 C   0  0  0  0  0  0  0  0  0  0  0  0
  140.4570   69.1920  228.0540 C   0  0  0  0  0  0  0  0  0  0  0  0
  140.4090   68.3240  229.1000 F   0  0  0  0  0  0  0  0  0  0  0  0
  141.0410   70.4390  228.1410 C   0  0  0  0  0  0  0  0  0  0  0  0
  141.0640   71.2930  227.0390 C   0  0  0  0  0  0  0  0  0  0  0  0
  140.5010   70.9080  225.8310 C   0  0  0  0  0  0  0  0  0  0  0  0
  140.5140   71.7220  224.7530 N   0  0  0  0  0  0  0  0  0  0  0  0
  138.2320   73.3560  223.0580 H   0  0  0  0  0  0  0  0  0  0  0  0
  139.1567   73.5284  220.2297 H   0  0  0  0  0  0  0  0  0  0  0  0
  138.0138   74.6260  221.0258 H   0  0  0  0  0  0  0  0  0  0  0  0
  137.9316   76.6154  220.5842 H   0  0  0  0  0  0  0  0  0  0  0  0
  138.6849   77.7551  221.7253 H   0  0  0  0  0  0  0  0  0  0  0  0
  139.0828   79.2611  219.9761 H   0  0  0  0  0  0  0  0  0  0  0  0
  137.7930   77.2510  218.5130 H   0  0  0  0  0  0  0  0  0  0  0  0
  140.0754   76.9163  218.2568 H   0  0  0  0  0  0  0  0  0  0  0  0
  140.8271   78.4792  218.4072 H   0  0  0  0  0  0  0  0  0  0  0  0
  141.9880   76.6734  219.9025 H   0  0  0  0  0  0  0  0  0  0  0  0
  141.8513   79.7583  219.6885 H   0  0  0  0  0  0  0  0  0  0  0  0
  142.4721   81.4990  221.2918 H   0  0  0  0  0  0  0  0  0  0  0  0
  141.7313   78.7382  224.4765 H   0  0  0  0  0  0  0  0  0  0  0  0
  141.1085   76.9875  222.8525 H   0  0  0  0  0  0  0  0  0  0  0  0
  138.9332   69.7629  222.5654 H   0  0  0  0  0  0  0  0  0  0  0  0
  138.8883   68.2380  224.5187 H   0  0  0  0  0  0  0  0  0  0  0  0
  139.4203   67.8033  226.7612 H   0  0  0  0  0  0  0  0  0  0  0  0
  141.4933   70.7630  229.0899 H   0  0  0  0  0  0  0  0  0  0  0  0
  141.5340   72.2835  227.1286 H   0  0  0  0  0  0  0  0  0  0  0  0
  1  2  2  0
  2  3  1  0
  3  4  1  0
  4  5  1  0
  5  6  2  0
  5  7  1  0
  7  8  1  0
  8  9  1  0
  9 10  1  0
  9 11  1  0
 11 12  1  0
 12 13  1  0
 13 14  2  0
 14 15  1  0
 15 16  2  0
 16 17  1  0
 16 18  1  0
 18 19  2  0
  2 20  1  0
 20 21  2  0
 21 22  1  0
 22 23  2  0
 23 24  1  0
 24 25  2  0
 25 26  1  0
 25 27  1  0
 27 28  2  0
 28 29  1  0
 29 30  2  0
 12  7  1  0
 19 13  1  0
 30 20  1  0
 29 23  1  0
  3 31  1  0
  4 32  1  0
  4 33  1  0
  8 34  1  0
  8 35  1  0
  9 36  1  1
 10 37  1  0
 11 38  1  0
 11 39  1  0
 12 40  1  6
 14 41  1  0
 15 42  1  0
 18 43  1  0
 19 44  1  0
 21 45  1  0
 22 46  1  0
 24 47  1  0
 27 48  1  0
 28 49  1  0
M  END
>  <smiles>  (37) 
O=C(NCC(=O)N1C[C@H](O)C[C@H]1c1ccc(Cl)cc1)c1ccc2cc(F)ccc2n1

>  <score_type>  (37) 
oracle

>  <origin>  (37) 
autodockgpu

>  <m_score__min__energy>  (37) 
-8.7400000000000002

>  <m_primary>  (37) 
energy

>  <rmsd>  (37) 
1.661108527684846

>  <m_score__min__rmsd>  (37) 
1.661108527684846

>  <meeko>  (37) 
{"free_energy": -8.67, "intermolecular_energy": -10.46, "internal_energy": -1.16, "cluster_size": 37, "cluster_id": 1, "rank_in_cluster": 4}

>  <energy>  (37) 
-7.67

>  <cluster_rmsd>  (37) 
1.6

>  <cluster>  (37) 
1

$$$$

     RDKit          3D

 49 52  0  0  0  0  0  0  0  0999 V2000
  139.5150   71.2060  221.1210 O   0  0  0  0  0  0  0  0  0  0  0  0
  139.5670   71.8060  222.2210 C   0  0  0  0  0  0  0  0  0  0  0  0
  139.4630   73.2160  222.3610 N   0  0  0  0  0  0  0  0  0  0  0  0
  139.2850   74.0120  221.1440 C   0  0  0  0  0  0  0  0  0  0  0  0
  138.8690   75.3690  221.5880 C   0  0  0  0  0  0  0  0  0  0  0  0
  138.0690   75.5680  222.5420 O   0  0  0  0  0  0  0  0  0  0  0  0
  139.3740   76.5230  220.9320 N   0  0  0  0  0  0  0  0  0  0  0  0
  138.5920   77.6390  220.4390 C   0  0  0  0  0  0  0  0  0  0  0  0
  139.4010   78.3060  219.3500 C   0  0  2  0  0  0  0  0  0  0  0  0
  138.6710   78.4340  218.1700 O   0  0  0  0  0  0  0  0  0  0  0  0
  140.5670   77.3560  219.1840 C   0  0  0  0  0  0  0  0  0  0  0  0
  140.7570   76.8610  220.6020 C   0  0  1  0  0  0  0  0  0  0  0  0
  141.1850   77.9310  221.5200 C   0  0  0  0  0  0  0  0  0  0  0  0
  141.0200   77.9130  222.8780 C   0  0  0  0  0  0  0  0  0  0  0  0
  141.4290   78.9220  223.7240 C   0  0  0  0  0  0  0  0  0  0  0  0
  142.0450   80.0380  223.2020 C   0  0  0  0  0  0  0  0  0  0  0  0
  142.5910   81.3620  224.2060 Cl  0  0  0  0  0  0  0  0  0  0  0  0
  142.2260   80.0870  221.8330 C   0  0  0  0  0  0  0  0  0  0  0  0
  141.8110   79.0640  220.9900 C   0  0  0  0  0  0  0  0  0  0  0  0
  139.7450   71.0110  223.4470 C   0  0  0  0  0  0  0  0  0  0  0  0
  139.4140   69.6660  223.4740 C   0  0  0  0  0  0  0  0  0  0  0  0
  139.5680   68.8860  224.6060 C   0  0  0  0  0  0  0  0  0  0  0  0
  140.0710   69.4830  225.7450 C   0  0  0  0  0  0  0  0  0  0  0  0
  140.2190   68.6970  226.8680 C   0  0  0  0  0  0  0  0  0  0  0  0
  140.7220   69.2700  228.0240 C   0  0  0  0  0  0  0  0  0  0  0  0
  140.8600   68.4740  229.1200 F   0  0  0  0  0  0  0  0  0  0  0  0
  141.0600   70.6070  228.0230 C   0  0  0  0  0  0  0  0  0  0  0  0
  140.8990   71.3800  226.8730 C   0  0  0  0  0  0  0  0  0  0  0  0
  140.3960   70.8220  225.7060 C   0  0  0  0  0  0  0  0  0  0  0  0
  140.2340   71.5550  224.5840 N   0  0  0  0  0  0  0  0  0  0  0  0
  139.5100   73.7000  223.2980 H   0  0  0  0  0  0  0  0  0  0  0  0
  140.2302   74.0679  220.5841 H   0  0  0  0  0  0  0  0  0  0  0  0
  138.5333   73.5618  220.4790 H   0  0  0  0  0  0  0  0  0  0  0  0
  137.6362   77.2783  220.0311 H   0  0  0  0  0  0  0  0  0  0  0  0
  138.3697   78.3482  221.2499 H   0  0  0  0  0  0  0  0  0  0  0  0
  139.7044   79.3337  219.5984 H   0  0  0  0  0  0  0  0  0  0  0  0
  138.5690   79.4080  218.0100 H   0  0  0  0  0  0  0  0  0  0  0  0
  140.3189   76.5309  218.5002 H   0  0  0  0  0  0  0  0  0  0  0  0
  141.4639   77.8188  218.7465 H   0  0  0  0  0  0  0  0  0  0  0  0
  141.5126   76.0661  220.6869 H   0  0  0  0  0  0  0  0  0  0  0  0
  140.5287   77.0358  223.3243 H   0  0  0  0  0  0  0  0  0  0  0  0
  141.2645   78.8364  224.8083 H   0  0  0  0  0  0  0  0  0  0  0  0
  142.7167   80.9685  221.3947 H   0  0  0  0  0  0  0  0  0  0  0  0
  141.9747   79.1449  219.9053 H   0  0  0  0  0  0  0  0  0  0  0  0
  139.0137   69.2009  222.5611 H   0  0  0  0  0  0  0  0  0  0  0  0
  139.2973   67.8199  224.5990 H   0  0  0  0  0  0  0  0  0  0  0  0
  139.9422   67.6326  226.8461 H   0  0  0  0  0  0  0  0  0  0  0  0
  141.4604   71.0683  228.9378 H   0  0  0  0  0  0  0  0  0  0  0  0
  141.1741   72.4449  226.8913 H   0  0  0  0  0  0  0  0  0  0  0  0
  1  2  2  0
  2  3  1  0
  3  4  1  0
  4  5  1  0
  5  6  2  0
  5  7  1  0
  7  8  1  0
  8  9  1  0
  9 10  1  0
  9 11  1  0
 11 12  1  0
 12 13  1  0
 13 14  2  0
 14 15  1  0
 15 16  2  0
 16 17  1  0
 16 18  1  0
 18 19  2  0
  2 20  1  0
 20 21  2  0
 21 22  1  0
 22 23  2  0
 23 24  1  0
 24 25  2  0
 25 26  1  0
 25 27  1  0
 27 28  2  0
 28 29  1  0
 29 30  2  0
 12  7  1  0
 19 13  1  0
 30 20  1  0
 29 23  1  0
  3 31  1  0
  4 32  1  0
  4 33  1  0
  8 34  1  0
  8 35  1  0
  9 36  1  1
 10 37  1  0
 11 38  1  0
 11 39  1  0
 12 40  1  6
 14 41  1  0
 15 42  1  0
 18 43  1  0
 19 44  1  0
 21 45  1  0
 22 46  1  0
 24 47  1  0
 27 48  1  0
 28 49  1  0
M  END
>  <smiles>  (38) 
O=C(NCC(=O)N1C[C@H](O)C[C@H]1c1ccc(Cl)cc1)c1ccc2cc(F)ccc2n1

>  <score_type>  (38) 
oracle

>  <origin>  (38) 
autodockgpu

>  <m_score__min__energy>  (38) 
-8.7400000000000002

>  <m_primary>  (38) 
energy

>  <rmsd>  (38) 
1.6841324499453247

>  <m_score__min__rmsd>  (38) 
1.6841324499453247

>  <meeko>  (38) 
{"free_energy": -8.12, "intermolecular_energy": -9.91, "internal_energy": -1.55, "cluster_size": 37, "cluster_id": 1, "rank_in_cluster": 30}

>  <energy>  (38) 
-8.22

>  <cluster_rmsd>  (38) 
0.0

>  <cluster>  (38) 
2

$$$$

     RDKit          3D

 49 52  0  0  0  0  0  0  0  0999 V2000
  141.2490   72.2970  221.6920 O   0  0  0  0  0  0  0  0  0  0  0  0
  140.2610   72.3830  222.4590 C   0  0  0  0  0  0  0  0  0  0  0  0
  139.1960   73.3070  222.2790 N   0  0  0  0  0  0  0  0  0  0  0  0
  139.2620   74.2100  221.1270 C   0  0  0  0  0  0  0  0  0  0  0  0
  139.1250   75.5880  221.6690 C   0  0  0  0  0  0  0  0  0  0  0  0
  138.5740   75.8450  222.7730 O   0  0  0  0  0  0  0  0  0  0  0  0
  139.6270   76.6980  220.9360 N   0  0  0  0  0  0  0  0  0  0  0  0
  138.8380   77.7600  220.3450 C   0  0  0  0  0  0  0  0  0  0  0  0
  139.6590   78.3560  219.2240 C   0  0  2  0  0  0  0  0  0  0  0  0
  138.9510   78.3820  218.0240 O   0  0  0  0  0  0  0  0  0  0  0  0
  140.8430   77.4150  219.1530 C   0  0  0  0  0  0  0  0  0  0  0  0
  141.0100   77.0320  220.6090 C   0  0  1  0  0  0  0  0  0  0  0  0
  141.4040   78.1750  221.4500 C   0  0  0  0  0  0  0  0  0  0  0  0
  141.8840   79.3680  220.9800 C   0  0  0  0  0  0  0  0  0  0  0  0
  142.2460   80.4300  221.7810 C   0  0  0  0  0  0  0  0  0  0  0  0
  142.1320   80.3190  223.1490 C   0  0  0  0  0  0  0  0  0  0  0  0
  142.5710   81.6180  224.2340 Cl  0  0  0  0  0  0  0  0  0  0  0  0
  141.6510   79.1260  223.6560 C   0  0  0  0  0  0  0  0  0  0  0  0
  141.2890   78.0620  222.8400 C   0  0  0  0  0  0  0  0  0  0  0  0
  140.1890   71.4780  223.6180 C   0  0  0  0  0  0  0  0  0  0  0  0
  139.6200   70.2200  223.4990 C   0  0  0  0  0  0  0  0  0  0  0  0
  139.5350   69.3400  224.5630 C   0  0  0  0  0  0  0  0  0  0  0  0
  140.0380   69.7450  225.7850 C   0  0  0  0  0  0  0  0  0  0  0  0
  139.9470   68.8620  226.8390 C   0  0  0  0  0  0  0  0  0  0  0  0
  140.4440   69.2410  228.0740 C   0  0  0  0  0  0  0  0  0  0  0  0
  140.3430   68.3520  229.1000 F   0  0  0  0  0  0  0  0  0  0  0  0
  141.0140   70.4880  228.2180 C   0  0  0  0  0  0  0  0  0  0  0  0
  141.0940   71.3630  227.1350 C   0  0  0  0  0  0  0  0  0  0  0  0
  140.6000   70.9990  225.8900 C   0  0  0  0  0  0  0  0  0  0  0  0
  140.6680   71.8330  224.8300 N   0  0  0  0  0  0  0  0  0  0  0  0
  138.3730   73.3620  222.9380 H   0  0  0  0  0  0  0  0  0  0  0  0
  140.2265   74.0981  220.6100 H   0  0  0  0  0  0  0  0  0  0  0  0
  138.4695   73.9864  220.3976 H   0  0  0  0  0  0  0  0  0  0  0  0
  137.8963   77.3534  219.9475 H   0  0  0  0  0  0  0  0  0  0  0  0
  138.5881   78.5247  221.0952 H   0  0  0  0  0  0  0  0  0  0  0  0
  139.9419   79.4045  219.3992 H   0  0  0  0  0  0  0  0  0  0  0  0
  138.1320   78.9150  218.1960 H   0  0  0  0  0  0  0  0  0  0  0  0
  140.6216   76.5366  218.5290 H   0  0  0  0  0  0  0  0  0  0  0  0
  141.7419   77.8577  218.6991 H   0  0  0  0  0  0  0  0  0  0  0  0
  141.7746   76.2577  220.7698 H   0  0  0  0  0  0  0  0  0  0  0  0
  141.9876   79.4869  219.8914 H   0  0  0  0  0  0  0  0  0  0  0  0
  142.6234   81.3599  221.3305 H   0  0  0  0  0  0  0  0  0  0  0  0
  141.5513   79.0155  224.7459 H   0  0  0  0  0  0  0  0  0  0  0  0
  140.9118   77.1302  223.2865 H   0  0  0  0  0  0  0  0  0  0  0  0
  139.2210   69.9096  222.5220 H   0  0  0  0  0  0  0  0  0  0  0  0
  139.0800   68.3461  224.4400 H   0  0  0  0  0  0  0  0  0  0  0  0
  139.4870   67.8723  226.7012 H   0  0  0  0  0  0  0  0  0  0  0  0
  141.4097   70.7959  229.1971 H   0  0  0  0  0  0  0  0  0  0  0  0
  141.5539   72.3532  227.2690 H   0  0  0  0  0  0  0  0  0  0  0  0
  1  2  2  0
  2  3  1  0
  3  4  1  0
  4  5  1  0
  5  6  2  0
  5  7  1  0
  7  8  1  0
  8  9  1  0
  9 10  1  0
  9 11  1  0
 11 12  1  0
 12 13  1  0
 13 14  2  0
 14 15  1  0
 15 16  2  0
 16 17  1  0
 16 18  1  0
 18 19  2  0
  2 20  1  0
 20 21  2  0
 21 22  1  0
 22 23  2  0
 23 24  1  0
 24 25  2  0
 25 26  1  0
 25 27  1  0
 27 28  2  0
 28 29  1  0
 29 30  2  0
 12  7  1  0
 19 13  1  0
 30 20  1  0
 29 23  1  0
  3 31  1  0
  4 32  1  0
  4 33  1  0
  8 34  1  0
  8 35  1  0
  9 36  1  1
 10 37  1  0
 11 38  1  0
 11 39  1  0
 12 40  1  6
 14 41  1  0
 15 42  1  0
 18 43  1  0
 19 44  1  0
 21 45  1  0
 22 46  1  0
 24 47  1  0
 27 48  1  0
 28 49  1  0
M  END
>  <smiles>  (39) 
O=C(NCC(=O)N1C[C@H](O)C[C@H]1c1ccc(Cl)cc1)c1ccc2cc(F)ccc2n1

>  <score_type>  (39) 
oracle

>  <origin>  (39) 
autodockgpu

>  <m_score__min__energy>  (39) 
-8.7400000000000002

>  <m_primary>  (39) 
energy

>  <rmsd>  (39) 
1.7966586678947065

>  <m_score__min__rmsd>  (39) 
1.7966586678947065

>  <meeko>  (39) 
{"free_energy": -8.49, "intermolecular_energy": -10.28, "internal_energy": -1.38, "cluster_size": 37, "cluster_id": 1, "rank_in_cluster": 7}

>  <energy>  (39) 
-8.11

>  <cluster_rmsd>  (39) 
0.57

>  <cluster>  (39) 
2

$$$$

     RDKit          3D

 49 52  0  0  0  0  0  0  0  0999 V2000
  139.7820   71.2160  221.1620 O   0  0  0  0  0  0  0  0  0  0  0  0
  139.6350   71.7690  222.2780 C   0  0  0  0  0  0  0  0  0  0  0  0
  139.3590   73.1520  222.4470 N   0  0  0  0  0  0  0  0  0  0  0  0
  139.2400   73.9780  221.2430 C   0  0  0  0  0  0  0  0  0  0  0  0
  139.0300   75.3730  221.7110 C   0  0  0  0  0  0  0  0  0  0  0  0
  138.3230   75.6660  222.7130 O   0  0  0  0  0  0  0  0  0  0  0  0
  139.6380   76.4580  221.0230 N   0  0  0  0  0  0  0  0  0  0  0  0
  138.9470   77.5100  220.3050 C   0  0  0  0  0  0  0  0  0  0  0  0
  139.9170   78.0690  219.2880 C   0  0  2  0  0  0  0  0  0  0  0  0
  139.3750   78.0670  218.0040 O   0  0  0  0  0  0  0  0  0  0  0  0
  141.0880   77.1160  219.4000 C   0  0  0  0  0  0  0  0  0  0  0  0
  141.0560   76.7710  220.8740 C   0  0  1  0  0  0  0  0  0  0  0  0
  141.3480   77.9340  221.7300 C   0  0  0  0  0  0  0  0  0  0  0  0
  141.0410   78.0260  223.0610 C   0  0  0  0  0  0  0  0  0  0  0  0
  141.3220   79.1220  223.8490 C   0  0  0  0  0  0  0  0  0  0  0  0
  141.9530   80.2140  223.2950 C   0  0  0  0  0  0  0  0  0  0  0  0
  142.3450   81.6410  224.2260 Cl  0  0  0  0  0  0  0  0  0  0  0  0
  142.2770   80.1510  221.9530 C   0  0  0  0  0  0  0  0  0  0  0  0
  141.9890   79.0430  221.1670 C   0  0  0  0  0  0  0  0  0  0  0  0
  139.7530   70.9440  223.4920 C   0  0  0  0  0  0  0  0  0  0  0  0
  139.3360   69.6230  223.4940 C   0  0  0  0  0  0  0  0  0  0  0  0
  139.4310   68.8150  224.6130 C   0  0  0  0  0  0  0  0  0  0  0  0
  139.9620   69.3610  225.7660 C   0  0  0  0  0  0  0  0  0  0  0  0
  140.0520   68.5480  226.8760 C   0  0  0  0  0  0  0  0  0  0  0  0
  140.5810   69.0680  228.0450 C   0  0  0  0  0  0  0  0  0  0  0  0
  140.6590   68.2470  229.1280 F   0  0  0  0  0  0  0  0  0  0  0  0
  141.0030   70.3810  228.0680 C   0  0  0  0  0  0  0  0  0  0  0  0
  140.9010   71.1820  226.9310 C   0  0  0  0  0  0  0  0  0  0  0  0
  140.3730   70.6760  225.7510 C   0  0  0  0  0  0  0  0  0  0  0  0
  140.2660   71.4360  224.6400 N   0  0  0  0  0  0  0  0  0  0  0  0
  139.2390   73.5960  223.3970 H   0  0  0  0  0  0  0  0  0  0  0  0
  140.1601   73.9121  220.6438 H   0  0  0  0  0  0  0  0  0  0  0  0
  138.4075   73.6405  220.6082 H   0  0  0  0  0  0  0  0  0  0  0  0
  138.0619   77.1005  219.7962 H   0  0  0  0  0  0  0  0  0  0  0  0
  138.6085   78.2967  220.9953 H   0  0  0  0  0  0  0  0  0  0  0  0
  140.1866   79.1195  219.4716 H   0  0  0  0  0  0  0  0  0  0  0  0
  138.7780   77.2760  217.9550 H   0  0  0  0  0  0  0  0  0  0  0  0
  140.9406   76.2229  218.7749 H   0  0  0  0  0  0  0  0  0  0  0  0
  142.0446   77.5386  219.0588 H   0  0  0  0  0  0  0  0  0  0  0  0
  141.7831   75.9948  221.1547 H   0  0  0  0  0  0  0  0  0  0  0  0
  140.5372   77.1695  223.5327 H   0  0  0  0  0  0  0  0  0  0  0  0
  141.0441   79.1244  224.9133 H   0  0  0  0  0  0  0  0  0  0  0  0
  142.7823   81.0113  221.4898 H   0  0  0  0  0  0  0  0  0  0  0  0
  142.2647   79.0372  220.1021 H   0  0  0  0  0  0  0  0  0  0  0  0
  138.9132   69.2003  222.5706 H   0  0  0  0  0  0  0  0  0  0  0  0
  139.0936   67.7684  224.5857 H   0  0  0  0  0  0  0  0  0  0  0  0
  139.7092   67.5036  226.8335 H   0  0  0  0  0  0  0  0  0  0  0  0
  141.4246   70.8008  228.9932 H   0  0  0  0  0  0  0  0  0  0  0  0
  141.2429   72.2268  226.9696 H   0  0  0  0  0  0  0  0  0  0  0  0
  1  2  2  0
  2  3  1  0
  3  4  1  0
  4  5  1  0
  5  6  2  0
  5  7  1  0
  7  8  1  0
  8  9  1  0
  9 10  1  0
  9 11  1  0
 11 12  1  0
 12 13  1  0
 13 14  2  0
 14 15  1  0
 15 16  2  0
 16 17  1  0
 16 18  1  0
 18 19  2  0
  2 20  1  0
 20 21  2  0
 21 22  1  0
 22 23  2  0
 23 24  1  0
 24 25  2  0
 25 26  1  0
 25 27  1  0
 27 28  2  0
 28 29  1  0
 29 30  2  0
 12  7  1  0
 19 13  1  0
 30 20  1  0
 29 23  1  0
  3 31  1  0
  4 32  1  0
  4 33  1  0
  8 34  1  0
  8 35  1  0
  9 36  1  1
 10 37  1  0
 11 38  1  0
 11 39  1  0
 12 40  1  6
 14 41  1  0
 15 42  1  0
 18 43  1  0
 19 44  1  0
 21 45  1  0
 22 46  1  0
 24 47  1  0
 27 48  1  0
 28 49  1  0
M  END
>  <smiles>  (40) 
O=C(NCC(=O)N1C[C@H](O)C[C@H]1c1ccc(Cl)cc1)c1ccc2cc(F)ccc2n1

>  <score_type>  (40) 
oracle

>  <origin>  (40) 
autodockgpu

>  <m_score__min__energy>  (40) 
-8.7400000000000002

>  <m_primary>  (40) 
energy

>  <rmsd>  (40) 
1.6112969711249896

>  <m_score__min__rmsd>  (40) 
1.6112969711249896

>  <meeko>  (40) 
{"free_energy": -8.16, "intermolecular_energy": -9.95, "internal_energy": -1.59, "cluster_size": 37, "cluster_id": 1, "rank_in_cluster": 27}

>  <energy>  (40) 
-8.1

>  <cluster_rmsd>  (40) 
0.76

>  <cluster>  (40) 
2

$$$$

     RDKit          3D

 49 52  0  0  0  0  0  0  0  0999 V2000
  141.4130   72.6910  221.9670 O   0  0  0  0  0  0  0  0  0  0  0  0
  140.3290   72.5970  222.5910 C   0  0  0  0  0  0  0  0  0  0  0  0
  139.1760   73.3740  222.2980 N   0  0  0  0  0  0  0  0  0  0  0  0
  139.2640   74.3410  221.2000 C   0  0  0  0  0  0  0  0  0  0  0  0
  138.6670   75.6040  221.7070 C   0  0  0  0  0  0  0  0  0  0  0  0
  137.5130   75.6710  222.2110 O   0  0  0  0  0  0  0  0  0  0  0  0
  139.4010   76.8200  221.6400 N   0  0  0  0  0  0  0  0  0  0  0  0
  139.6340   77.6140  220.4500 C   0  0  0  0  0  0  0  0  0  0  0  0
  140.8800   78.4340  220.6960 C   0  0  2  0  0  0  0  0  0  0  0  0
  141.8170   78.2660  219.6790 O   0  0  0  0  0  0  0  0  0  0  0  0
  141.3800   77.8770  222.0120 C   0  0  0  0  0  0  0  0  0  0  0  0
  140.0780   77.5440  222.7120 C   0  0  1  0  0  0  0  0  0  0  0  0
  139.2780   78.7430  223.0140 C   0  0  0  0  0  0  0  0  0  0  0  0
  137.9290   78.8590  222.8130 C   0  0  0  0  0  0  0  0  0  0  0  0
  137.1940   79.9890  223.1020 C   0  0  0  0  0  0  0  0  0  0  0  0
  137.8260   81.0940  223.6280 C   0  0  0  0  0  0  0  0  0  0  0  0
  136.9660   82.5650  224.0220 Cl  0  0  0  0  0  0  0  0  0  0  0  0
  139.1890   81.0090  223.8430 C   0  0  0  0  0  0  0  0  0  0  0  0
  139.9200   79.8660  223.5480 C   0  0  0  0  0  0  0  0  0  0  0  0
  140.2350   71.6280  223.6950 C   0  0  0  0  0  0  0  0  0  0  0  0
  139.6540   70.3860  223.4990 C   0  0  0  0  0  0  0  0  0  0  0  0
  139.5470   69.4480  224.5100 C   0  0  0  0  0  0  0  0  0  0  0  0
  140.0430   69.7760  225.7570 C   0  0  0  0  0  0  0  0  0  0  0  0
  139.9310   68.8350  226.7580 C   0  0  0  0  0  0  0  0  0  0  0  0
  140.4200   69.1360  228.0180 C   0  0  0  0  0  0  0  0  0  0  0  0
  140.2990   68.1910  228.9900 F   0  0  0  0  0  0  0  0  0  0  0  0
  141.0040   70.3660  228.2380 C   0  0  0  0  0  0  0  0  0  0  0  0
  141.1040   71.3010  227.2080 C   0  0  0  0  0  0  0  0  0  0  0  0
  140.6190   71.0140  225.9390 C   0  0  0  0  0  0  0  0  0  0  0  0
  140.7070   71.9070  224.9300 N   0  0  0  0  0  0  0  0  0  0  0  0
  138.2740   73.2790  222.8370 H   0  0  0  0  0  0  0  0  0  0  0  0
  140.3150   74.5028  220.9184 H   0  0  0  0  0  0  0  0  0  0  0  0
  138.7349   73.9796  220.3059 H   0  0  0  0  0  0  0  0  0  0  0  0
  139.7815   76.9560  219.5809 H   0  0  0  0  0  0  0  0  0  0  0  0
  138.7729   78.2657  220.2409 H   0  0  0  0  0  0  0  0  0  0  0  0
  140.6922   79.5176  220.7208 H   0  0  0  0  0  0  0  0  0  0  0  0
  142.7090   78.3580  220.1040 H   0  0  0  0  0  0  0  0  0  0  0  0
  141.9960   76.9784  221.8601 H   0  0  0  0  0  0  0  0  0  0  0  0
  142.0283   78.5657  222.5736 H   0  0  0  0  0  0  0  0  0  0  0  0
  140.2208   77.0236  223.6706 H   0  0  0  0  0  0  0  0  0  0  0  0
  137.3960   77.9932  222.3930 H   0  0  0  0  0  0  0  0  0  0  0  0
  136.1104   80.0080  222.9138 H   0  0  0  0  0  0  0  0  0  0  0  0
  139.7140   81.8794  224.2635 H   0  0  0  0  0  0  0  0  0  0  0  0
  141.0039   79.8432  223.7341 H   0  0  0  0  0  0  0  0  0  0  0  0
  139.2629   70.1361  222.5017 H   0  0  0  0  0  0  0  0  0  0  0  0
  139.0803   68.4690  224.3263 H   0  0  0  0  0  0  0  0  0  0  0  0
  139.4608   67.8607  226.5591 H   0  0  0  0  0  0  0  0  0  0  0  0
  141.3950   70.6121  229.2363 H   0  0  0  0  0  0  0  0  0  0  0  0
  141.5724   72.2769  227.4032 H   0  0  0  0  0  0  0  0  0  0  0  0
  1  2  2  0
  2  3  1  0
  3  4  1  0
  4  5  1  0
  5  6  2  0
  5  7  1  0
  7  8  1  0
  8  9  1  0
  9 10  1  0
  9 11  1  0
 11 12  1  0
 12 13  1  0
 13 14  2  0
 14 15  1  0
 15 16  2  0
 16 17  1  0
 16 18  1  0
 18 19  2  0
  2 20  1  0
 20 21  2  0
 21 22  1  0
 22 23  2  0
 23 24  1  0
 24 25  2  0
 25 26  1  0
 25 27  1  0
 27 28  2  0
 28 29  1  0
 29 30  2  0
 12  7  1  0
 19 13  1  0
 30 20  1  0
 29 23  1  0
  3 31  1  0
  4 32  1  0
  4 33  1  0
  8 34  1  0
  8 35  1  0
  9 36  1  1
 10 37  1  0
 11 38  1  0
 11 39  1  0
 12 40  1  1
 14 41  1  0
 15 42  1  0
 18 43  1  0
 19 44  1  0
 21 45  1  0
 22 46  1  0
 24 47  1  0
 27 48  1  0
 28 49  1  0
M  END
>  <smiles>  (41) 
O=C(NCC(=O)N1C[C@H](O)C[C@H]1c1ccc(Cl)cc1)c1ccc2cc(F)ccc2n1

>  <score_type>  (41) 
oracle

>  <origin>  (41) 
autodockgpu

>  <m_score__min__energy>  (41) 
-8.7400000000000002

>  <m_primary>  (41) 
energy

>  <rmsd>  (41) 
2.440845391454518

>  <m_score__min__rmsd>  (41) 
2.440845391454518

>  <meeko>  (41) 
{"free_energy": -7.98, "intermolecular_energy": -9.77, "internal_energy": -1.37, "cluster_size": 1, "cluster_id": 3, "rank_in_cluster": 1}

>  <energy>  (41) 
-7.96

>  <cluster_rmsd>  (41) 
0.7

>  <cluster>  (41) 
2

$$$$

     RDKit          3D

 49 52  0  0  0  0  0  0  0  0999 V2000
  140.5370   71.5260  221.1450 O   0  0  0  0  0  0  0  0  0  0  0  0
  140.1870   72.0610  222.2250 C   0  0  0  0  0  0  0  0  0  0  0  0
  139.8260   73.4290  222.3510 N   0  0  0  0  0  0  0  0  0  0  0  0
  139.8680   74.2610  221.1450 C   0  0  0  0  0  0  0  0  0  0  0  0
  139.2790   75.5730  221.5220 C   0  0  0  0  0  0  0  0  0  0  0  0
  138.4330   75.7110  222.4470 O   0  0  0  0  0  0  0  0  0  0  0  0
  139.6620   76.7540  220.8310 N   0  0  0  0  0  0  0  0  0  0  0  0
  138.7730   77.7990  220.3640 C   0  0  0  0  0  0  0  0  0  0  0  0
  139.4760   78.5120  219.2310 C   0  0  2  0  0  0  0  0  0  0  0  0
  138.6850   78.5660  218.0850 O   0  0  0  0  0  0  0  0  0  0  0  0
  140.7050   77.6530  219.0210 C   0  0  0  0  0  0  0  0  0  0  0  0
  140.9970   77.1930  220.4340 C   0  0  1  0  0  0  0  0  0  0  0  0
  141.3810   78.3060  221.3190 C   0  0  0  0  0  0  0  0  0  0  0  0
  141.8630   79.5160  220.8960 C   0  0  0  0  0  0  0  0  0  0  0  0
  142.2170   80.5490  221.7380 C   0  0  0  0  0  0  0  0  0  0  0  0
  142.0920   80.3880  223.1000 C   0  0  0  0  0  0  0  0  0  0  0  0
  142.5190   81.6490  224.2350 Cl  0  0  0  0  0  0  0  0  0  0  0  0
  141.6080   79.1780  223.5590 C   0  0  0  0  0  0  0  0  0  0  0  0
  141.2540   78.1440  222.7030 C   0  0  0  0  0  0  0  0  0  0  0  0
  140.1440   71.2300  223.4390 C   0  0  0  0  0  0  0  0  0  0  0  0
  139.6080   69.9530  223.4050 C   0  0  0  0  0  0  0  0  0  0  0  0
  139.5500   69.1410  224.5230 C   0  0  0  0  0  0  0  0  0  0  0  0
  140.0480   69.6360  225.7130 C   0  0  0  0  0  0  0  0  0  0  0  0
  139.9850   68.8200  226.8220 C   0  0  0  0  0  0  0  0  0  0  0  0
  140.4770   69.2900  228.0280 C   0  0  0  0  0  0  0  0  0  0  0  0
  140.4040   68.4660  229.1090 F   0  0  0  0  0  0  0  0  0  0  0  0
  141.0160   70.5580  228.0880 C   0  0  0  0  0  0  0  0  0  0  0  0
  141.0680   71.3640  226.9500 C   0  0  0  0  0  0  0  0  0  0  0  0
  140.5780   70.9080  225.7350 C   0  0  0  0  0  0  0  0  0  0  0  0
  140.6200   71.6740  224.6230 N   0  0  0  0  0  0  0  0  0  0  0  0
  139.5350   73.8590  223.2700 H   0  0  0  0  0  0  0  0  0  0  0  0
  140.9072   74.3925  220.8091 H   0  0  0  0  0  0  0  0  0  0  0  0
  139.3108   73.7954  220.3187 H   0  0  0  0  0  0  0  0  0  0  0  0
  137.8306   77.3595  220.0054 H   0  0  0  0  0  0  0  0  0  0  0  0
  138.5337   78.4999  221.1773 H   0  0  0  0  0  0  0  0  0  0  0  0
  139.7083   79.5639  219.4537 H   0  0  0  0  0  0  0  0  0  0  0  0
  138.6540   79.5190  217.8130 H   0  0  0  0  0  0  0  0  0  0  0  0
  140.4918   76.8020  218.3574 H   0  0  0  0  0  0  0  0  0  0  0  0
  141.5423   78.1784  218.5384 H   0  0  0  0  0  0  0  0  0  0  0  0
  141.8148   76.4597  220.4923 H   0  0  0  0  0  0  0  0  0  0  0  0
  141.9752   79.6743  219.8132 H   0  0  0  0  0  0  0  0  0  0  0  0
  142.5966   81.4951  221.3247 H   0  0  0  0  0  0  0  0  0  0  0  0
  141.4991   79.0284  224.6433 H   0  0  0  0  0  0  0  0  0  0  0  0
  140.8735   77.1968  223.1130 H   0  0  0  0  0  0  0  0  0  0  0  0
  139.2134   69.5702  222.4522 H   0  0  0  0  0  0  0  0  0  0  0  0
  139.1198   68.1302  224.4665 H   0  0  0  0  0  0  0  0  0  0  0  0
  139.5509   67.8118  226.7502 H   0  0  0  0  0  0  0  0  0  0  0  0
  141.4089   70.9379  229.0426 H   0  0  0  0  0  0  0  0  0  0  0  0
  141.5024   72.3723  227.0172 H   0  0  0  0  0  0  0  0  0  0  0  0
  1  2  2  0
  2  3  1  0
  3  4  1  0
  4  5  1  0
  5  6  2  0
  5  7  1  0
  7  8  1  0
  8  9  1  0
  9 10  1  0
  9 11  1  0
 11 12  1  0
 12 13  1  0
 13 14  2  0
 14 15  1  0
 15 16  2  0
 16 17  1  0
 16 18  1  0
 18 19  2  0
  2 20  1  0
 20 21  2  0
 21 22  1  0
 22 23  2  0
 23 24  1  0
 24 25  2  0
 25 26  1  0
 25 27  1  0
 27 28  2  0
 28 29  1  0
 29 30  2  0
 12  7  1  0
 19 13  1  0
 30 20  1  0
 29 23  1  0
  3 31  1  0
  4 32  1  0
  4 33  1  0
  8 34  1  0
  8 35  1  0
  9 36  1  1
 10 37  1  0
 11 38  1  0
 11 39  1  0
 12 40  1  6
 14 41  1  0
 15 42  1  0
 18 43  1  0
 19 44  1  0
 21 45  1  0
 22 46  1  0
 24 47  1  0
 27 48  1  0
 28 49  1  0
M  END
>  <smiles>  (42) 
O=C(NCC(=O)N1C[C@H](O)C[C@H]1c1ccc(Cl)cc1)c1ccc2cc(F)ccc2n1

>  <score_type>  (42) 
oracle

>  <origin>  (42) 
autodockgpu

>  <m_score__min__energy>  (42) 
-8.7400000000000002

>  <m_primary>  (42) 
energy

>  <rmsd>  (42) 
1.8192998227606956

>  <m_score__min__rmsd>  (42) 
1.8192998227606956

>  <meeko>  (42) 
{"free_energy": -8.2, "intermolecular_energy": -9.99, "internal_energy": -1.67, "cluster_size": 37, "cluster_id": 1, "rank_in_cluster": 22}

>  <energy>  (42) 
-7.93

>  <cluster_rmsd>  (42) 
1.08

>  <cluster>  (42) 
2

$$$$

     RDKit          3D

 49 52  0  0  0  0  0  0  0  0999 V2000
  141.2050   72.0700  221.5590 O   0  0  0  0  0  0  0  0  0  0  0  0
  140.3230   72.3140  222.4170 C   0  0  0  0  0  0  0  0  0  0  0  0
  139.4030   73.3940  222.3240 N   0  0  0  0  0  0  0  0  0  0  0  0
  139.4950   74.2700  221.1530 C   0  0  0  0  0  0  0  0  0  0  0  0
  138.8150   75.5390  221.5270 C   0  0  0  0  0  0  0  0  0  0  0  0
  137.9090   75.6050  222.4010 O   0  0  0  0  0  0  0  0  0  0  0  0
  139.1760   76.7580  220.8920 N   0  0  0  0  0  0  0  0  0  0  0  0
  138.3070   77.8960  220.6680 C   0  0  0  0  0  0  0  0  0  0  0  0
  138.8800   78.6740  219.5050 C   0  0  2  0  0  0  0  0  0  0  0  0
  137.9280   78.8900  218.5110 O   0  0  0  0  0  0  0  0  0  0  0  0
  139.9930   77.7680  219.0250 C   0  0  0  0  0  0  0  0  0  0  0  0
  140.4630   77.1530  220.3270 C   0  0  1  0  0  0  0  0  0  0  0  0
  141.0620   78.1470  221.2350 C   0  0  0  0  0  0  0  0  0  0  0  0
  141.6400   79.3230  220.8400 C   0  0  0  0  0  0  0  0  0  0  0  0
  142.1950   80.2440  221.7030 C   0  0  0  0  0  0  0  0  0  0  0  0
  142.1850   79.9970  223.0590 C   0  0  0  0  0  0  0  0  0  0  0  0
  142.8690   81.1130  224.2190 Cl  0  0  0  0  0  0  0  0  0  0  0  0
  141.6090   78.8170  223.4890 C   0  0  0  0  0  0  0  0  0  0  0  0
  141.0530   77.8960  222.6120 C   0  0  0  0  0  0  0  0  0  0  0  0
  140.2260   71.4370  223.5950 C   0  0  0  0  0  0  0  0  0  0  0  0
  139.6510   70.1800  223.4960 C   0  0  0  0  0  0  0  0  0  0  0  0
  139.5430   69.3260  224.5790 C   0  0  0  0  0  0  0  0  0  0  0  0
  140.0290   69.7550  225.7990 C   0  0  0  0  0  0  0  0  0  0  0  0
  139.9150   68.8980  226.8710 C   0  0  0  0  0  0  0  0  0  0  0  0
  140.3940   69.3020  228.1060 C   0  0  0  0  0  0  0  0  0  0  0  0
  140.2700   68.4380  229.1500 F   0  0  0  0  0  0  0  0  0  0  0  0
  140.9710   70.5490  228.2300 C   0  0  0  0  0  0  0  0  0  0  0  0
  141.0730   71.3980  227.1280 C   0  0  0  0  0  0  0  0  0  0  0  0
  140.5980   71.0080  225.8840 C   0  0  0  0  0  0  0  0  0  0  0  0
  140.6880   71.8160  224.8060 N   0  0  0  0  0  0  0  0  0  0  0  0
  138.6690   73.5810  223.0590 H   0  0  0  0  0  0  0  0  0  0  0  0
  140.5488   74.4619  220.9027 H   0  0  0  0  0  0  0  0  0  0  0  0
  139.0256   73.8095  220.2712 H   0  0  0  0  0  0  0  0  0  0  0  0
  137.2903   77.5522  220.4270 H   0  0  0  0  0  0  0  0  0  0  0  0
  138.2484   78.5257  221.5680 H   0  0  0  0  0  0  0  0  0  0  0  0
  139.2238   79.6820  219.7801 H   0  0  0  0  0  0  0  0  0  0  0  0
  137.9930   79.8490  218.2670 H   0  0  0  0  0  0  0  0  0  0  0  0
  139.6167   77.0018  218.3312 H   0  0  0  0  0  0  0  0  0  0  0  0
  140.7832   78.2869  218.4626 H   0  0  0  0  0  0  0  0  0  0  0  0
  141.2225   76.3695  220.1881 H   0  0  0  0  0  0  0  0  0  0  0  0
  141.6633   79.5482  219.7635 H   0  0  0  0  0  0  0  0  0  0  0  0
  142.6427   81.1696  221.3120 H   0  0  0  0  0  0  0  0  0  0  0  0
  141.5904   78.5993  224.5671 H   0  0  0  0  0  0  0  0  0  0  0  0
  140.6053   76.9688  222.9991 H   0  0  0  0  0  0  0  0  0  0  0  0
  139.2662   69.8490  222.5201 H   0  0  0  0  0  0  0  0  0  0  0  0
  139.0828   68.3327  224.4717 H   0  0  0  0  0  0  0  0  0  0  0  0
  139.4508   67.9083  226.7482 H   0  0  0  0  0  0  0  0  0  0  0  0
  141.3544   70.8769  229.2075 H   0  0  0  0  0  0  0  0  0  0  0  0
  141.5357   72.3889  227.2466 H   0  0  0  0  0  0  0  0  0  0  0  0
  1  2  2  0
  2  3  1  0
  3  4  1  0
  4  5  1  0
  5  6  2  0
  5  7  1  0
  7  8  1  0
  8  9  1  0
  9 10  1  0
  9 11  1  0
 11 12  1  0
 12 13  1  0
 13 14  2  0
 14 15  1  0
 15 16  2  0
 16 17  1  0
 16 18  1  0
 18 19  2  0
  2 20  1  0
 20 21  2  0
 21 22  1  0
 22 23  2  0
 23 24  1  0
 24 25  2  0
 25 26  1  0
 25 27  1  0
 27 28  2  0
 28 29  1  0
 29 30  2  0
 12  7  1  0
 19 13  1  0
 30 20  1  0
 29 23  1  0
  3 31  1  0
  4 32  1  0
  4 33  1  0
  8 34  1  0
  8 35  1  0
  9 36  1  1
 10 37  1  0
 11 38  1  0
 11 39  1  0
 12 40  1  6
 14 41  1  0
 15 42  1  0
 18 43  1  0
 19 44  1  0
 21 45  1  0
 22 46  1  0
 24 47  1  0
 27 48  1  0
 28 49  1  0
M  END
>  <smiles>  (43) 
O=C(NCC(=O)N1C[C@H](O)C[C@H]1c1ccc(Cl)cc1)c1ccc2cc(F)ccc2n1

>  <score_type>  (43) 
oracle

>  <origin>  (43) 
autodockgpu

>  <m_score__min__energy>  (43) 
-8.7400000000000002

>  <m_primary>  (43) 
energy

>  <rmsd>  (43) 
1.9853009560436992

>  <m_score__min__rmsd>  (43) 
1.9853009560436992

>  <meeko>  (43) 
{"free_energy": -8.25, "intermolecular_energy": -10.03, "internal_energy": -1.68, "cluster_size": 37, "cluster_id": 1, "rank_in_cluster": 19}

>  <energy>  (43) 
-7.86

>  <cluster_rmsd>  (43) 
1.17

>  <cluster>  (43) 
2

$$$$

     RDKit          3D

 49 52  0  0  0  0  0  0  0  0999 V2000
  140.5210   71.5560  221.7190 O   0  0  0  0  0  0  0  0  0  0  0  0
  139.6710   71.6880  222.6320 C   0  0  0  0  0  0  0  0  0  0  0  0
  138.6160   72.6400  222.6010 N   0  0  0  0  0  0  0  0  0  0  0  0
  138.5210   73.5170  221.4310 C   0  0  0  0  0  0  0  0  0  0  0  0
  139.5860   74.5420  221.5900 C   0  0  0  0  0  0  0  0  0  0  0  0
  140.7520   74.2720  221.9850 O   0  0  0  0  0  0  0  0  0  0  0  0
  139.3160   75.9050  221.2920 N   0  0  0  0  0  0  0  0  0  0  0  0
  138.1990   76.6850  221.7870 C   0  0  0  0  0  0  0  0  0  0  0  0
  137.9760   77.8170  220.8100 C   0  0  2  0  0  0  0  0  0  0  0  0
  136.6550   77.8650  220.3690 O   0  0  0  0  0  0  0  0  0  0  0  0
  138.9270   77.4670  219.6850 C   0  0  0  0  0  0  0  0  0  0  0  0
  140.0690   76.8260  220.4450 C   0  0  1  0  0  0  0  0  0  0  0  0
  140.7610   77.7800  221.3290 C   0  0  0  0  0  0  0  0  0  0  0  0
  141.0560   77.5570  222.6470 C   0  0  0  0  0  0  0  0  0  0  0  0
  141.7060   78.4600  223.4620 C   0  0  0  0  0  0  0  0  0  0  0  0
  142.0990   79.6770  222.9490 C   0  0  0  0  0  0  0  0  0  0  0  0
  142.9280   80.8760  223.9150 Cl  0  0  0  0  0  0  0  0  0  0  0  0
  141.8160   79.9320  221.6210 C   0  0  0  0  0  0  0  0  0  0  0  0
  141.1610   79.0160  220.8090 C   0  0  0  0  0  0  0  0  0  0  0  0
  139.7620   70.8090  223.8090 C   0  0  0  0  0  0  0  0  0  0  0  0
  139.2390   69.5270  223.7780 C   0  0  0  0  0  0  0  0  0  0  0  0
  139.3060   68.6710  224.8630 C   0  0  0  0  0  0  0  0  0  0  0  0
  139.9170   69.1260  226.0150 C   0  0  0  0  0  0  0  0  0  0  0  0
  139.9770   68.2670  227.0910 C   0  0  0  0  0  0  0  0  0  0  0  0
  140.5850   68.6960  228.2580 C   0  0  0  0  0  0  0  0  0  0  0  0
  140.6320   67.8300  229.3070 F   0  0  0  0  0  0  0  0  0  0  0  0
  141.1120   69.9700  228.3140 C   0  0  0  0  0  0  0  0  0  0  0  0
  141.0380   70.8200  227.2110 C   0  0  0  0  0  0  0  0  0  0  0  0
  140.4320   70.4040  226.0340 C   0  0  0  0  0  0  0  0  0  0  0  0
  140.3510   71.2140  224.9560 N   0  0  0  0  0  0  0  0  0  0  0  0
  137.9120   72.7340  223.3810 H   0  0  0  0  0  0  0  0  0  0  0  0
  138.6824   72.9400  220.5085 H   0  0  0  0  0  0  0  0  0  0  0  0
  137.5265   73.9816  221.3594 H   0  0  0  0  0  0  0  0  0  0  0  0
  137.2982   76.0567  221.8477 H   0  0  0  0  0  0  0  0  0  0  0  0
  138.4105   77.0743  222.7938 H   0  0  0  0  0  0  0  0  0  0  0  0
  138.1573   78.8112  221.2445 H   0  0  0  0  0  0  0  0  0  0  0  0
  136.5050   78.7880  220.0380 H   0  0  0  0  0  0  0  0  0  0  0  0
  138.4692   76.7610  218.9766 H   0  0  0  0  0  0  0  0  0  0  0  0
  139.2258   78.3259  219.0661 H   0  0  0  0  0  0  0  0  0  0  0  0
  140.8428   76.4003  219.7893 H   0  0  0  0  0  0  0  0  0  0  0  0
  140.7547   76.5940  223.0850 H   0  0  0  0  0  0  0  0  0  0  0  0
  141.9092   78.2105  224.5139 H   0  0  0  0  0  0  0  0  0  0  0  0
  142.1212   80.8973  221.1908 H   0  0  0  0  0  0  0  0  0  0  0  0
  140.9564   79.2619  219.7566 H   0  0  0  0  0  0  0  0  0  0  0  0
  138.7521   69.1761  222.8562 H   0  0  0  0  0  0  0  0  0  0  0  0
  138.8844   67.6564  224.8096 H   0  0  0  0  0  0  0  0  0  0  0  0
  139.5484   67.2562  227.0234 H   0  0  0  0  0  0  0  0  0  0  0  0
  141.5956   70.3188  229.2384 H   0  0  0  0  0  0  0  0  0  0  0  0
  141.4649   71.8318  227.2747 H   0  0  0  0  0  0  0  0  0  0  0  0
  1  2  2  0
  2  3  1  0
  3  4  1  0
  4  5  1  0
  5  6  2  0
  5  7  1  0
  7  8  1  0
  8  9  1  0
  9 10  1  0
  9 11  1  0
 11 12  1  0
 12 13  1  0
 13 14  2  0
 14 15  1  0
 15 16  2  0
 16 17  1  0
 16 18  1  0
 18 19  2  0
  2 20  1  0
 20 21  2  0
 21 22  1  0
 22 23  2  0
 23 24  1  0
 24 25  2  0
 25 26  1  0
 25 27  1  0
 27 28  2  0
 28 29  1  0
 29 30  2  0
 12  7  1  0
 19 13  1  0
 30 20  1  0
 29 23  1  0
  3 31  1  0
  4 32  1  0
  4 33  1  0
  8 34  1  0
  8 35  1  0
  9 36  1  1
 10 37  1  0
 11 38  1  0
 11 39  1  0
 12 40  1  6
 14 41  1  0
 15 42  1  0
 18 43  1  0
 19 44  1  0
 21 45  1  0
 22 46  1  0
 24 47  1  0
 27 48  1  0
 28 49  1  0
M  END
>  <smiles>  (44) 
O=C(NCC(=O)N1C[C@H](O)C[C@H]1c1ccc(Cl)cc1)c1ccc2cc(F)ccc2n1

>  <score_type>  (44) 
oracle

>  <origin>  (44) 
autodockgpu

>  <m_score__min__energy>  (44) 
-8.7400000000000002

>  <m_primary>  (44) 
energy

>  <rmsd>  (44) 
1.9832548556277316

>  <m_score__min__rmsd>  (44) 
1.9832548556277316

>  <meeko>  (44) 
{"free_energy": -8.74, "intermolecular_energy": -10.53, "internal_energy": -1.12, "cluster_size": 37, "cluster_id": 1, "rank_in_cluster": 1}

>  <energy>  (44) 
-7.85

>  <cluster_rmsd>  (44) 
1.15

>  <cluster>  (44) 
2

$$$$

     RDKit          3D

 49 52  0  0  0  0  0  0  0  0999 V2000
  137.3060   76.1250  222.0040 O   0  0  0  0  0  0  0  0  0  0  0  0
  138.5300   76.1590  222.2750 C   0  0  0  0  0  0  0  0  0  0  0  0
  139.3870   75.0260  222.2180 N   0  0  0  0  0  0  0  0  0  0  0  0
  138.7990   73.7450  221.8170 C   0  0  0  0  0  0  0  0  0  0  0  0
  139.7540   72.6930  222.2540 C   0  0  0  0  0  0  0  0  0  0  0  0
  140.9920   72.8950  222.3860 O   0  0  0  0  0  0  0  0  0  0  0  0
  139.2900   71.3820  222.5470 N   0  0  0  0  0  0  0  0  0  0  0  0
  139.7870   70.1500  221.9690 C   0  0  0  0  0  0  0  0  0  0  0  0
  138.6840   69.1220  222.0910 C   0  0  2  0  0  0  0  0  0  0  0  0
  138.3930   68.5300  220.8640 O   0  0  0  0  0  0  0  0  0  0  0  0
  137.5240   69.9510  222.5990 C   0  0  0  0  0  0  0  0  0  0  0  0
  138.2360   70.9660  223.4680 C   0  0  1  0  0  0  0  0  0  0  0  0
  138.8850   70.3490  224.6380 C   0  0  0  0  0  0  0  0  0  0  0  0
  138.5460   69.1370  225.1750 C   0  0  0  0  0  0  0  0  0  0  0  0
  139.1650   68.5720  226.2700 C   0  0  0  0  0  0  0  0  0  0  0  0
  140.1950   69.2440  226.8900 C   0  0  0  0  0  0  0  0  0  0  0  0
  141.0310   68.5970  228.2830 Cl  0  0  0  0  0  0  0  0  0  0  0  0
  140.5610   70.4710  226.3720 C   0  0  0  0  0  0  0  0  0  0  0  0
  139.9310   71.0320  225.2680 C   0  0  0  0  0  0  0  0  0  0  0  0
  139.1260   77.4440  222.6780 C   0  0  0  0  0  0  0  0  0  0  0  0
  138.3230   78.5200  223.0190 C   0  0  0  0  0  0  0  0  0  0  0  0
  138.8440   79.7430  223.4040 C   0  0  0  0  0  0  0  0  0  0  0  0
  140.2180   79.8820  223.4430 C   0  0  0  0  0  0  0  0  0  0  0  0
  140.7280   81.1040  223.8270 C   0  0  0  0  0  0  0  0  0  0  0  0
  142.1010   81.2710  223.8760 C   0  0  0  0  0  0  0  0  0  0  0  0
  142.5800   82.4860  224.2580 F   0  0  0  0  0  0  0  0  0  0  0  0
  142.9210   80.2140  223.5420 C   0  0  0  0  0  0  0  0  0  0  0  0
  142.3800   78.9870  223.1570 C   0  0  0  0  0  0  0  0  0  0  0  0
  141.0060   78.8030  223.1020 C   0  0  0  0  0  0  0  0  0  0  0  0
  140.4640   77.6230  222.7310 N   0  0  0  0  0  0  0  0  0  0  0  0
  140.4150   75.0780  222.4510 H   0  0  0  0  0  0  0  0  0  0  0  0
  137.8248   73.6028  222.3077 H   0  0  0  0  0  0  0  0  0  0  0  0
  138.6296   73.7052  220.7308 H   0  0  0  0  0  0  0  0  0  0  0  0
  140.0413   70.3061  220.9102 H   0  0  0  0  0  0  0  0  0  0  0  0
  140.6949   69.8124  222.4903 H   0  0  0  0  0  0  0  0  0  0  0  0
  138.9426   68.2790  222.7486 H   0  0  0  0  0  0  0  0  0  0  0  0
  137.5210   68.0710  220.9770 H   0  0  0  0  0  0  0  0  0  0  0  0
  136.9852   70.4373  221.7724 H   0  0  0  0  0  0  0  0  0  0  0  0
  136.7546   69.3692  223.1276 H   0  0  0  0  0  0  0  0  0  0  0  0
  137.5669   71.7436  223.8650 H   0  0  0  0  0  0  0  0  0  0  0  0
  137.7260   68.5766  224.7022 H   0  0  0  0  0  0  0  0  0  0  0  0
  138.8383   67.5912  226.6458 H   0  0  0  0  0  0  0  0  0  0  0  0
  141.3818   71.0246  226.8513 H   0  0  0  0  0  0  0  0  0  0  0  0
  140.2545   72.0128  224.8894 H   0  0  0  0  0  0  0  0  0  0  0  0
  137.2304   78.3978  222.9824 H   0  0  0  0  0  0  0  0  0  0  0  0
  138.1829   80.5805  223.6714 H   0  0  0  0  0  0  0  0  0  0  0  0
  140.0545   81.9329  224.0902 H   0  0  0  0  0  0  0  0  0  0  0  0
  144.0132   80.3395  223.5795 H   0  0  0  0  0  0  0  0  0  0  0  0
  143.0507   78.1557  222.8940 H   0  0  0  0  0  0  0  0  0  0  0  0
  1  2  2  0
  2  3  1  0
  3  4  1  0
  4  5  1  0
  5  6  2  0
  5  7  1  0
  7  8  1  0
  8  9  1  0
  9 10  1  0
  9 11  1  0
 11 12  1  0
 12 13  1  0
 13 14  2  0
 14 15  1  0
 15 16  2  0
 16 17  1  0
 16 18  1  0
 18 19  2  0
  2 20  1  0
 20 21  2  0
 21 22  1  0
 22 23  2  0
 23 24  1  0
 24 25  2  0
 25 26  1  0
 25 27  1  0
 27 28  2  0
 28 29  1  0
 29 30  2  0
 12  7  1  0
 19 13  1  0
 30 20  1  0
 29 23  1  0
  3 31  1  0
  4 32  1  0
  4 33  1  0
  8 34  1  0
  8 35  1  0
  9 36  1  1
 10 37  1  0
 11 38  1  0
 11 39  1  0
 12 40  1  1
 14 41  1  0
 15 42  1  0
 18 43  1  0
 19 44  1  0
 21 45  1  0
 22 46  1  0
 24 47  1  0
 27 48  1  0
 28 49  1  0
M  END
>  <smiles>  (45) 
O=C(NCC(=O)N1C[C@H](O)C[C@H]1c1ccc(Cl)cc1)c1ccc2cc(F)ccc2n1

>  <score_type>  (45) 
oracle

>  <origin>  (45) 
autodockgpu

>  <m_score__min__energy>  (45) 
-8.7400000000000002

>  <m_primary>  (45) 
energy

>  <rmsd>  (45) 
8.576804407887488

>  <m_score__min__rmsd>  (45) 
8.576804407887488

>  <meeko>  (45) 
{"free_energy": -7.75, "intermolecular_energy": -9.54, "internal_energy": -1.88, "cluster_size": 4, "cluster_id": 5, "rank_in_cluster": 1}

>  <energy>  (45) 
-7.98

>  <cluster_rmsd>  (45) 
0.0

>  <cluster>  (45) 
3

$$$$

     RDKit          3D

 49 52  0  0  0  0  0  0  0  0999 V2000
  141.4260   72.3790  221.8790 O   0  0  0  0  0  0  0  0  0  0  0  0
  140.3910   72.4560  222.5840 C   0  0  0  0  0  0  0  0  0  0  0  0
  139.3470   73.3930  222.3600 N   0  0  0  0  0  0  0  0  0  0  0  0
  139.4920   74.3230  221.2370 C   0  0  0  0  0  0  0  0  0  0  0  0
  138.6410   75.5000  221.5560 C   0  0  0  0  0  0  0  0  0  0  0  0
  137.6450   75.4430  222.3260 O   0  0  0  0  0  0  0  0  0  0  0  0
  138.9310   76.7680  220.9850 N   0  0  0  0  0  0  0  0  0  0  0  0
  138.0470   77.9160  220.9560 C   0  0  0  0  0  0  0  0  0  0  0  0
  138.4860   78.7900  219.8030 C   0  0  2  0  0  0  0  0  0  0  0  0
  137.4270   79.0810  218.9450 O   0  0  0  0  0  0  0  0  0  0  0  0
  139.5320   77.9320  219.1250 C   0  0  0  0  0  0  0  0  0  0  0  0
  140.1470   77.2150  220.3090 C   0  0  1  0  0  0  0  0  0  0  0  0
  140.8500   78.1340  221.2200 C   0  0  0  0  0  0  0  0  0  0  0  0
  141.4970   79.2780  220.8370 C   0  0  0  0  0  0  0  0  0  0  0  0
  142.1500   80.1290  221.7020 C   0  0  0  0  0  0  0  0  0  0  0  0
  142.1740   79.8410  223.0490 C   0  0  0  0  0  0  0  0  0  0  0  0
  142.9810   80.8690  224.2120 Cl  0  0  0  0  0  0  0  0  0  0  0  0
  141.5300   78.6920  223.4690 C   0  0  0  0  0  0  0  0  0  0  0  0
  140.8750   77.8410  222.5890 C   0  0  0  0  0  0  0  0  0  0  0  0
  140.2400   71.5240  223.7140 C   0  0  0  0  0  0  0  0  0  0  0  0
  139.6120   70.3010  223.5440 C   0  0  0  0  0  0  0  0  0  0  0  0
  139.4510   69.3980  224.5790 C   0  0  0  0  0  0  0  0  0  0  0  0
  139.9380   69.7430  225.8250 C   0  0  0  0  0  0  0  0  0  0  0  0
  139.7720   68.8370  226.8510 C   0  0  0  0  0  0  0  0  0  0  0  0
  140.2510   69.1560  228.1100 C   0  0  0  0  0  0  0  0  0  0  0  0
  140.0760   68.2460  229.1060 F   0  0  0  0  0  0  0  0  0  0  0  0
  140.8800   70.3680  228.3050 C   0  0  0  0  0  0  0  0  0  0  0  0
  141.0350   71.2670  227.2500 C   0  0  0  0  0  0  0  0  0  0  0  0
  140.5610   70.9630  225.9820 C   0  0  0  0  0  0  0  0  0  0  0  0
  140.7010   71.8210  224.9480 N   0  0  0  0  0  0  0  0  0  0  0  0
  138.4850   73.4400  222.9670 H   0  0  0  0  0  0  0  0  0  0  0  0
  140.5428   74.6306  221.1306 H   0  0  0  0  0  0  0  0  0  0  0  0
  139.1876   73.8552  220.2891 H   0  0  0  0  0  0  0  0  0  0  0  0
  137.0079   77.5877  220.8056 H   0  0  0  0  0  0  0  0  0  0  0  0
  138.0948   78.4694  221.9054 H   0  0  0  0  0  0  0  0  0  0  0  0
  138.8632   79.7737  220.1193 H   0  0  0  0  0  0  0  0  0  0  0  0
  137.0140   78.2110  218.7070 H   0  0  0  0  0  0  0  0  0  0  0  0
  139.0745   77.2231  218.4191 H   0  0  0  0  0  0  0  0  0  0  0  0
  140.2541   78.4993  218.5194 H   0  0  0  0  0  0  0  0  0  0  0  0
  140.8824   76.4499  220.0195 H   0  0  0  0  0  0  0  0  0  0  0  0
  141.4955   79.5351  219.7675 H   0  0  0  0  0  0  0  0  0  0  0  0
  142.6486   81.0319  221.3197 H   0  0  0  0  0  0  0  0  0  0  0  0
  141.5368   78.4427  224.5404 H   0  0  0  0  0  0  0  0  0  0  0  0
  140.3758   76.9367  222.9672 H   0  0  0  0  0  0  0  0  0  0  0  0
  139.2267   70.0381  222.5478 H   0  0  0  0  0  0  0  0  0  0  0  0
  138.9496   68.4328  224.4149 H   0  0  0  0  0  0  0  0  0  0  0  0
  139.2671   67.8762  226.6720 H   0  0  0  0  0  0  0  0  0  0  0  0
  141.2633   70.6282  229.3027 H   0  0  0  0  0  0  0  0  0  0  0  0
  141.5392   72.2288  227.4254 H   0  0  0  0  0  0  0  0  0  0  0  0
  1  2  2  0
  2  3  1  0
  3  4  1  0
  4  5  1  0
  5  6  2  0
  5  7  1  0
  7  8  1  0
  8  9  1  0
  9 10  1  0
  9 11  1  0
 11 12  1  0
 12 13  1  0
 13 14  2  0
 14 15  1  0
 15 16  2  0
 16 17  1  0
 16 18  1  0
 18 19  2  0
  2 20  1  0
 20 21  2  0
 21 22  1  0
 22 23  2  0
 23 24  1  0
 24 25  2  0
 25 26  1  0
 25 27  1  0
 27 28  2  0
 28 29  1  0
 29 30  2  0
 12  7  1  0
 19 13  1  0
 30 20  1  0
 29 23  1  0
  3 31  1  0
  4 32  1  0
  4 33  1  0
  8 34  1  0
  8 35  1  0
  9 36  1  1
 10 37  1  0
 11 38  1  0
 11 39  1  0
 12 40  1  6
 14 41  1  0
 15 42  1  0
 18 43  1  0
 19 44  1  0
 21 45  1  0
 22 46  1  0
 24 47  1  0
 27 48  1  0
 28 49  1  0
M  END
>  <smiles>  (46) 
O=C(NCC(=O)N1C[C@H](O)C[C@H]1c1ccc(Cl)cc1)c1ccc2cc(F)ccc2n1

>  <score_type>  (46) 
oracle

>  <origin>  (46) 
autodockgpu

>  <m_score__min__energy>  (46) 
-8.7400000000000002

>  <m_primary>  (46) 
energy

>  <rmsd>  (46) 
2.158295129986615

>  <m_score__min__rmsd>  (46) 
2.158295129986615

>  <meeko>  (46) 
{"free_energy": -8.15, "intermolecular_energy": -9.94, "internal_energy": -1.71, "cluster_size": 37, "cluster_id": 1, "rank_in_cluster": 28}

>  <energy>  (46) 
-7.92

>  <cluster_rmsd>  (46) 
0.0

>  <cluster>  (46) 
4

$$$$

     RDKit          3D

 49 52  0  0  0  0  0  0  0  0999 V2000
  139.9210   71.3700  221.1340 O   0  0  0  0  0  0  0  0  0  0  0  0
  139.8190   71.9280  222.2530 C   0  0  0  0  0  0  0  0  0  0  0  0
  139.6260   73.3250  222.4280 N   0  0  0  0  0  0  0  0  0  0  0  0
  139.5440   74.1590  221.2260 C   0  0  0  0  0  0  0  0  0  0  0  0
  139.2300   75.5350  221.6930 C   0  0  0  0  0  0  0  0  0  0  0  0
  138.5620   75.7760  222.7340 O   0  0  0  0  0  0  0  0  0  0  0  0
  139.6880   76.6620  220.9580 N   0  0  0  0  0  0  0  0  0  0  0  0
  138.8600   77.7060  220.3880 C   0  0  0  0  0  0  0  0  0  0  0  0
  139.6440   78.3300  219.2550 C   0  0  2  0  0  0  0  0  0  0  0  0
  138.9130   78.3430  218.0690 O   0  0  0  0  0  0  0  0  0  0  0  0
  140.8510   77.4210  219.1570 C   0  0  0  0  0  0  0  0  0  0  0  0
  141.0560   77.0350  220.6070 C   0  0  1  0  0  0  0  0  0  0  0  0
  141.4340   78.1840  221.4470 C   0  0  0  0  0  0  0  0  0  0  0  0
  141.8600   79.3960  220.9750 C   0  0  0  0  0  0  0  0  0  0  0  0
  142.2090   80.4630  221.7750 C   0  0  0  0  0  0  0  0  0  0  0  0
  142.1380   80.3360  223.1450 C   0  0  0  0  0  0  0  0  0  0  0  0
  142.5640   81.6410  224.2290 Cl  0  0  0  0  0  0  0  0  0  0  0  0
  141.7130   79.1240  223.6530 C   0  0  0  0  0  0  0  0  0  0  0  0
  141.3630   78.0550  222.8390 C   0  0  0  0  0  0  0  0  0  0  0  0
  139.9010   71.0950  223.4640 C   0  0  0  0  0  0  0  0  0  0  0  0
  139.4670   69.7790  223.4490 C   0  0  0  0  0  0  0  0  0  0  0  0
  139.5280   68.9640  224.5650 C   0  0  0  0  0  0  0  0  0  0  0  0
  140.0430   69.4960  225.7320 C   0  0  0  0  0  0  0  0  0  0  0  0
  140.0990   68.6760  226.8390 C   0  0  0  0  0  0  0  0  0  0  0  0
  140.6100   69.1820  228.0220 C   0  0  0  0  0  0  0  0  0  0  0  0
  140.6550   68.3540  229.1010 F   0  0  0  0  0  0  0  0  0  0  0  0
  141.0490   70.4900  228.0620 C   0  0  0  0  0  0  0  0  0  0  0  0
  140.9810   71.2980  226.9270 C   0  0  0  0  0  0  0  0  0  0  0  0
  140.4700   70.8060  225.7340 C   0  0  0  0  0  0  0  0  0  0  0  0
  140.3970   71.5740  224.6260 N   0  0  0  0  0  0  0  0  0  0  0  0
  139.5430   73.7730  223.3800 H   0  0  0  0  0  0  0  0  0  0  0  0
  140.5041   74.1488  220.6892 H   0  0  0  0  0  0  0  0  0  0  0  0
  138.7749   73.7869  220.5331 H   0  0  0  0  0  0  0  0  0  0  0  0
  137.9222   77.2767  220.0057 H   0  0  0  0  0  0  0  0  0  0  0  0
  138.6041   78.4597  221.1473 H   0  0  0  0  0  0  0  0  0  0  0  0
  139.9024   79.3847  219.4304 H   0  0  0  0  0  0  0  0  0  0  0  0
  139.4140   78.9230  217.4400 H   0  0  0  0  0  0  0  0  0  0  0  0
  140.6411   76.5402  218.5324 H   0  0  0  0  0  0  0  0  0  0  0  0
  141.7291   77.8899  218.6890 H   0  0  0  0  0  0  0  0  0  0  0  0
  141.8443   76.2810  220.7489 H   0  0  0  0  0  0  0  0  0  0  0  0
  141.9284   79.5274  219.8850 H   0  0  0  0  0  0  0  0  0  0  0  0
  142.5418   81.4089  221.3228 H   0  0  0  0  0  0  0  0  0  0  0  0
  141.6494   79.0009  224.7442 H   0  0  0  0  0  0  0  0  0  0  0  0
  141.0302   77.1074  223.2877 H   0  0  0  0  0  0  0  0  0  0  0  0
  139.0586   69.3670  222.5144 H   0  0  0  0  0  0  0  0  0  0  0  0
  139.1767   67.9224  224.5248 H   0  0  0  0  0  0  0  0  0  0  0  0
  139.7434   67.6366  226.7831 H   0  0  0  0  0  0  0  0  0  0  0  0
  141.4565   70.8993  228.9982 H   0  0  0  0  0  0  0  0  0  0  0  0
  141.3367   72.3377  226.9781 H   0  0  0  0  0  0  0  0  0  0  0  0
  1  2  2  0
  2  3  1  0
  3  4  1  0
  4  5  1  0
  5  6  2  0
  5  7  1  0
  7  8  1  0
  8  9  1  0
  9 10  1  0
  9 11  1  0
 11 12  1  0
 12 13  1  0
 13 14  2  0
 14 15  1  0
 15 16  2  0
 16 17  1  0
 16 18  1  0
 18 19  2  0
  2 20  1  0
 20 21  2  0
 21 22  1  0
 22 23  2  0
 23 24  1  0
 24 25  2  0
 25 26  1  0
 25 27  1  0
 27 28  2  0
 28 29  1  0
 29 30  2  0
 12  7  1  0
 19 13  1  0
 30 20  1  0
 29 23  1  0
  3 31  1  0
  4 32  1  0
  4 33  1  0
  8 34  1  0
  8 35  1  0
  9 36  1  1
 10 37  1  0
 11 38  1  0
 11 39  1  0
 12 40  1  6
 14 41  1  0
 15 42  1  0
 18 43  1  0
 19 44  1  0
 21 45  1  0
 22 46  1  0
 24 47  1  0
 27 48  1  0
 28 49  1  0
M  END
>  <smiles>  (47) 
O=C(NCC(=O)N1C[C@H](O)C[C@H]1c1ccc(Cl)cc1)c1ccc2cc(F)ccc2n1

>  <score_type>  (47) 
oracle

>  <origin>  (47) 
autodockgpu

>  <m_score__min__energy>  (47) 
-8.7400000000000002

>  <m_primary>  (47) 
energy

>  <rmsd>  (47) 
1.704800983807487

>  <m_score__min__rmsd>  (47) 
1.704800983807487

>  <meeko>  (47) 
{"free_energy": -8.27, "intermolecular_energy": -10.06, "internal_energy": -1.67, "cluster_size": 37, "cluster_id": 1, "rank_in_cluster": 16}

>  <energy>  (47) 
-7.75

>  <cluster_rmsd>  (47) 
0.0

>  <cluster>  (47) 
5

$$$$

     RDKit          3D

 49 52  0  0  0  0  0  0  0  0999 V2000
  138.1860   70.8570  221.8720 O   0  0  0  0  0  0  0  0  0  0  0  0
  138.8870   71.3440  222.7920 C   0  0  0  0  0  0  0  0  0  0  0  0
  139.3930   72.6720  222.7850 N   0  0  0  0  0  0  0  0  0  0  0  0
  139.0750   73.5180  221.6320 C   0  0  0  0  0  0  0  0  0  0  0  0
  140.1160   74.5790  221.5930 C   0  0  0  0  0  0  0  0  0  0  0  0
  141.3250   74.3710  221.8830 O   0  0  0  0  0  0  0  0  0  0  0  0
  139.7720   75.9050  221.2160 N   0  0  0  0  0  0  0  0  0  0  0  0
  138.5360   76.5920  221.5330 C   0  0  0  0  0  0  0  0  0  0  0  0
  138.3490   77.6770  220.4970 C   0  0  2  0  0  0  0  0  0  0  0  0
  137.1000   77.5960  219.8850 O   0  0  0  0  0  0  0  0  0  0  0  0
  139.4690   77.3900  219.5200 C   0  0  0  0  0  0  0  0  0  0  0  0
  140.5500   76.8720  220.4460 C   0  0  1  0  0  0  0  0  0  0  0  0
  141.0320   77.9030  221.3800 C   0  0  0  0  0  0  0  0  0  0  0  0
  141.1140   77.7550  222.7390 C   0  0  0  0  0  0  0  0  0  0  0  0
  141.5700   78.7300  223.6010 C   0  0  0  0  0  0  0  0  0  0  0  0
  141.9760   79.9460  223.0970 C   0  0  0  0  0  0  0  0  0  0  0  0
  142.5660   81.2340  224.1220 Cl  0  0  0  0  0  0  0  0  0  0  0  0
  141.9050   80.1270  221.7290 C   0  0  0  0  0  0  0  0  0  0  0  0
  141.4450   79.1380  220.8690 C   0  0  0  0  0  0  0  0  0  0  0  0
  139.2090   70.4970  223.9520 C   0  0  0  0  0  0  0  0  0  0  0  0
  138.8920   69.1490  223.9550 C   0  0  0  0  0  0  0  0  0  0  0  0
  139.1790   68.3200  225.0250 C   0  0  0  0  0  0  0  0  0  0  0  0
  139.8040   68.8730  226.1260 C   0  0  0  0  0  0  0  0  0  0  0  0
  140.0840   68.0400  227.1880 C   0  0  0  0  0  0  0  0  0  0  0  0
  140.7110   68.5660  228.3050 C   0  0  0  0  0  0  0  0  0  0  0  0
  140.9780   67.7240  229.3400 F   0  0  0  0  0  0  0  0  0  0  0  0
  141.0360   69.9060  228.3260 C   0  0  0  0  0  0  0  0  0  0  0  0
  140.7410   70.7280  227.2390 C   0  0  0  0  0  0  0  0  0  0  0  0
  140.1130   70.2160  226.1120 C   0  0  0  0  0  0  0  0  0  0  0  0
  139.8190   70.9960  225.0500 N   0  0  0  0  0  0  0  0  0  0  0  0
  139.9810   73.0600  223.5700 H   0  0  0  0  0  0  0  0  0  0  0  0
  139.1007   72.9250  220.7059 H   0  0  0  0  0  0  0  0  0  0  0  0
  138.0671   73.9499  221.7189 H   0  0  0  0  0  0  0  0  0  0  0  0
  137.6927   75.8866  221.4964 H   0  0  0  0  0  0  0  0  0  0  0  0
  138.5764   77.0213  222.5450 H   0  0  0  0  0  0  0  0  0  0  0  0
  138.3836   78.6929  220.9173 H   0  0  0  0  0  0  0  0  0  0  0  0
  136.9390   76.6330  219.7090 H   0  0  0  0  0  0  0  0  0  0  0  0
  139.1737   76.6298  218.7818 H   0  0  0  0  0  0  0  0  0  0  0  0
  139.7724   78.2585  218.9169 H   0  0  0  0  0  0  0  0  0  0  0  0
  141.4394   76.5041  219.9135 H   0  0  0  0  0  0  0  0  0  0  0  0
  140.7951   76.7952  223.1715 H   0  0  0  0  0  0  0  0  0  0  0  0
  141.6093   78.5381  224.6834 H   0  0  0  0  0  0  0  0  0  0  0  0
  142.2247   81.0904  221.3051 H   0  0  0  0  0  0  0  0  0  0  0  0
  141.4055   79.3259  219.7859 H   0  0  0  0  0  0  0  0  0  0  0  0
  138.3930   68.7209  223.0731 H   0  0  0  0  0  0  0  0  0  0  0  0
  138.9172   67.2519  224.9997 H   0  0  0  0  0  0  0  0  0  0  0  0
  139.8137   66.9745  227.1488 H   0  0  0  0  0  0  0  0  0  0  0  0
  141.5335   70.3312  229.2101 H   0  0  0  0  0  0  0  0  0  0  0  0
  141.0090   71.7942  227.2750 H   0  0  0  0  0  0  0  0  0  0  0  0
  1  2  2  0
  2  3  1  0
  3  4  1  0
  4  5  1  0
  5  6  2  0
  5  7  1  0
  7  8  1  0
  8  9  1  0
  9 10  1  0
  9 11  1  0
 11 12  1  0
 12 13  1  0
 13 14  2  0
 14 15  1  0
 15 16  2  0
 16 17  1  0
 16 18  1  0
 18 19  2  0
  2 20  1  0
 20 21  2  0
 21 22  1  0
 22 23  2  0
 23 24  1  0
 24 25  2  0
 25 26  1  0
 25 27  1  0
 27 28  2  0
 28 29  1  0
 29 30  2  0
 12  7  1  0
 19 13  1  0
 30 20  1  0
 29 23  1  0
  3 31  1  0
  4 32  1  0
  4 33  1  0
  8 34  1  0
  8 35  1  0
  9 36  1  1
 10 37  1  0
 11 38  1  0
 11 39  1  0
 12 40  1  6
 14 41  1  0
 15 42  1  0
 18 43  1  0
 19 44  1  0
 21 45  1  0
 22 46  1  0
 24 47  1  0
 27 48  1  0
 28 49  1  0
M  END
>  <smiles>  (48) 
O=C(NCC(=O)N1C[C@H](O)C[C@H]1c1ccc(Cl)cc1)c1ccc2cc(F)ccc2n1

>  <score_type>  (48) 
oracle

>  <origin>  (48) 
autodockgpu

>  <m_score__min__energy>  (48) 
-8.7400000000000002

>  <m_primary>  (48) 
energy

>  <rmsd>  (48) 
1.8348829905179183

>  <m_score__min__rmsd>  (48) 
1.8348829905179183

>  <meeko>  (48) 
{"free_energy": -8.32, "intermolecular_energy": -10.11, "internal_energy": -1.6, "cluster_size": 37, "cluster_id": 1, "rank_in_cluster": 14}

>  <energy>  (48) 
-7.73

>  <cluster_rmsd>  (48) 
0.45

>  <cluster>  (48) 
5

$$$$

     RDKit          3D

 49 52  0  0  0  0  0  0  0  0999 V2000
  139.3510   71.1650  221.1950 O   0  0  0  0  0  0  0  0  0  0  0  0
  139.4380   71.7480  222.3030 C   0  0  0  0  0  0  0  0  0  0  0  0
  139.3800   73.1590  222.4630 N   0  0  0  0  0  0  0  0  0  0  0  0
  139.2100   73.9760  221.2590 C   0  0  0  0  0  0  0  0  0  0  0  0
  139.0470   75.3780  221.7260 C   0  0  0  0  0  0  0  0  0  0  0  0
  138.3550   75.6960  222.7300 O   0  0  0  0  0  0  0  0  0  0  0  0
  139.6870   76.4420  221.0340 N   0  0  0  0  0  0  0  0  0  0  0  0
  139.0290   77.4890  220.2780 C   0  0  0  0  0  0  0  0  0  0  0  0
  140.0320   78.0150  219.2760 C   0  0  2  0  0  0  0  0  0  0  0  0
  139.5230   77.9960  217.9790 O   0  0  0  0  0  0  0  0  0  0  0  0
  141.1870   77.0500  219.4370 C   0  0  0  0  0  0  0  0  0  0  0  0
  141.1130   76.7340  220.9160 C   0  0  1  0  0  0  0  0  0  0  0  0
  141.3980   77.9100  221.7570 C   0  0  0  0  0  0  0  0  0  0  0  0
  141.0400   78.0390  223.0720 C   0  0  0  0  0  0  0  0  0  0  0  0
  141.3160   79.1460  223.8470 C   0  0  0  0  0  0  0  0  0  0  0  0
  141.9930   80.2110  223.2940 C   0  0  0  0  0  0  0  0  0  0  0  0
  142.3810   81.6500  224.2080 Cl  0  0  0  0  0  0  0  0  0  0  0  0
  142.3680   80.1110  221.9680 C   0  0  0  0  0  0  0  0  0  0  0  0
  142.0850   78.9910  221.1960 C   0  0  0  0  0  0  0  0  0  0  0  0
  139.6090   70.9310  223.5150 C   0  0  0  0  0  0  0  0  0  0  0  0
  139.2170   69.6020  223.5350 C   0  0  0  0  0  0  0  0  0  0  0  0
  139.3620   68.8020  224.6540 C   0  0  0  0  0  0  0  0  0  0  0  0
  139.9180   69.3620  225.7880 C   0  0  0  0  0  0  0  0  0  0  0  0
  140.0570   68.5560  226.8980 C   0  0  0  0  0  0  0  0  0  0  0  0
  140.6120   69.0910  228.0470 C   0  0  0  0  0  0  0  0  0  0  0  0
  140.7400   68.2760  229.1300 F   0  0  0  0  0  0  0  0  0  0  0  0
  141.0110   70.4120  228.0530 C   0  0  0  0  0  0  0  0  0  0  0  0
  140.8590   71.2050  226.9160 C   0  0  0  0  0  0  0  0  0  0  0  0
  140.3030   70.6840  225.7550 C   0  0  0  0  0  0  0  0  0  0  0  0
  140.1480   71.4380  224.6450 N   0  0  0  0  0  0  0  0  0  0  0  0
  139.4560   73.6280  223.4050 H   0  0  0  0  0  0  0  0  0  0  0  0
  140.0958   73.8904  220.6124 H   0  0  0  0  0  0  0  0  0  0  0  0
  138.3403   73.6465  220.6716 H   0  0  0  0  0  0  0  0  0  0  0  0
  138.1517   77.0813  219.7545 H   0  0  0  0  0  0  0  0  0  0  0  0
  138.6839   78.2935  220.9441 H   0  0  0  0  0  0  0  0  0  0  0  0
  140.3111   79.0653  219.4461 H   0  0  0  0  0  0  0  0  0  0  0  0
  140.2630   77.6880  217.3950 H   0  0  0  0  0  0  0  0  0  0  0  0
  141.0441   76.1468  218.8256 H   0  0  0  0  0  0  0  0  0  0  0  0
  142.1574   77.4541  219.1129 H   0  0  0  0  0  0  0  0  0  0  0  0
  141.8225   75.9544  221.2303 H   0  0  0  0  0  0  0  0  0  0  0  0
  140.4968   77.2054  223.5411 H   0  0  0  0  0  0  0  0  0  0  0  0
  140.9978   79.1784  224.8995 H   0  0  0  0  0  0  0  0  0  0  0  0
  142.9107   80.9491  221.5064 H   0  0  0  0  0  0  0  0  0  0  0  0
  142.4015   78.9547  220.1431 H   0  0  0  0  0  0  0  0  0  0  0  0
  138.7739   69.1670  222.6270 H   0  0  0  0  0  0  0  0  0  0  0  0
  139.0435   67.7492  224.6414 H   0  0  0  0  0  0  0  0  0  0  0  0
  139.7322   67.5054  226.8706 H   0  0  0  0  0  0  0  0  0  0  0  0
  141.4531   70.8435  228.9631 H   0  0  0  0  0  0  0  0  0  0  0  0
  141.1834   72.2558  226.9391 H   0  0  0  0  0  0  0  0  0  0  0  0
  1  2  2  0
  2  3  1  0
  3  4  1  0
  4  5  1  0
  5  6  2  0
  5  7  1  0
  7  8  1  0
  8  9  1  0
  9 10  1  0
  9 11  1  0
 11 12  1  0
 12 13  1  0
 13 14  2  0
 14 15  1  0
 15 16  2  0
 16 17  1  0
 16 18  1  0
 18 19  2  0
  2 20  1  0
 20 21  2  0
 21 22  1  0
 22 23  2  0
 23 24  1  0
 24 25  2  0
 25 26  1  0
 25 27  1  0
 27 28  2  0
 28 29  1  0
 29 30  2  0
 12  7  1  0
 19 13  1  0
 30 20  1  0
 29 23  1  0
  3 31  1  0
  4 32  1  0
  4 33  1  0
  8 34  1  0
  8 35  1  0
  9 36  1  1
 10 37  1  0
 11 38  1  0
 11 39  1  0
 12 40  1  6
 14 41  1  0
 15 42  1  0
 18 43  1  0
 19 44  1  0
 21 45  1  0
 22 46  1  0
 24 47  1  0
 27 48  1  0
 28 49  1  0
M  END
>  <smiles>  (49) 
O=C(NCC(=O)N1C[C@H](O)C[C@H]1c1ccc(Cl)cc1)c1ccc2cc(F)ccc2n1

>  <score_type>  (49) 
oracle

>  <origin>  (49) 
autodockgpu

>  <m_score__min__energy>  (49) 
-8.7400000000000002

>  <m_primary>  (49) 
energy

>  <rmsd>  (49) 
1.5953748700560522

>  <m_score__min__rmsd>  (49) 
1.5953748700560522

>  <meeko>  (49) 
{"free_energy": -8.12, "intermolecular_energy": -9.91, "internal_energy": -1.56, "cluster_size": 37, "cluster_id": 1, "rank_in_cluster": 31}

>  <energy>  (49) 
-7.73

>  <cluster_rmsd>  (49) 
0.39

>  <cluster>  (49) 
5

$$$$

     RDKit          3D

 49 52  0  0  0  0  0  0  0  0999 V2000
  138.4920   73.1160  222.1220 O   0  0  0  0  0  0  0  0  0  0  0  0
  139.5840   72.5170  222.2760 C   0  0  0  0  0  0  0  0  0  0  0  0
  140.7060   72.6830  221.4200 N   0  0  0  0  0  0  0  0  0  0  0  0
  140.5750   73.6100  220.2930 C   0  0  0  0  0  0  0  0  0  0  0  0
  141.0610   74.9290  220.7770 C   0  0  0  0  0  0  0  0  0  0  0  0
  142.2600   75.3040  220.6730 O   0  0  0  0  0  0  0  0  0  0  0  0
  140.1610   75.8400  221.3930 N   0  0  0  0  0  0  0  0  0  0  0  0
  139.5260   75.6750  222.6850 C   0  0  0  0  0  0  0  0  0  0  0  0
  138.2730   76.5200  222.6800 C   0  0  2  0  0  0  0  0  0  0  0  0
  137.1480   75.7770  223.0340 O   0  0  0  0  0  0  0  0  0  0  0  0
  138.2020   76.9850  221.2410 C   0  0  0  0  0  0  0  0  0  0  0  0
  139.6710   77.1230  220.8970 C   0  0  1  0  0  0  0  0  0  0  0  0
  140.3330   78.1850  221.6730 C   0  0  0  0  0  0  0  0  0  0  0  0
  141.6710   78.2300  221.9580 C   0  0  0  0  0  0  0  0  0  0  0  0
  142.2780   79.2320  222.6860 C   0  0  0  0  0  0  0  0  0  0  0  0
  141.5170   80.2720  223.1750 C   0  0  0  0  0  0  0  0  0  0  0  0
  142.2090   81.5800  224.1070 Cl  0  0  0  0  0  0  0  0  0  0  0  0
  140.1620   80.2540  222.9050 C   0  0  0  0  0  0  0  0  0  0  0  0
  139.5610   79.2400  222.1710 C   0  0  0  0  0  0  0  0  0  0  0  0
  139.7210   71.5850  223.4070 C   0  0  0  0  0  0  0  0  0  0  0  0
  139.2760   70.2770  223.3050 C   0  0  0  0  0  0  0  0  0  0  0  0
  139.3880   69.3710  224.3440 C   0  0  0  0  0  0  0  0  0  0  0  0
  139.9660   69.8010  225.5230 C   0  0  0  0  0  0  0  0  0  0  0  0
  140.0720   68.8910  226.5530 C   0  0  0  0  0  0  0  0  0  0  0  0
  140.6470   69.2950  227.7460 C   0  0  0  0  0  0  0  0  0  0  0  0
  140.7410   68.3790  228.7480 F   0  0  0  0  0  0  0  0  0  0  0  0
  141.0980   70.5920  227.8720 C   0  0  0  0  0  0  0  0  0  0  0  0
  140.9790   71.4930  226.8140 C   0  0  0  0  0  0  0  0  0  0  0  0
  140.4040   71.1050  225.6120 C   0  0  0  0  0  0  0  0  0  0  0  0
  140.2800   71.9630  224.5770 N   0  0  0  0  0  0  0  0  0  0  0  0
  141.6150   72.1680  221.5680 H   0  0  0  0  0  0  0  0  0  0  0  0
  141.1860   73.2670  219.4451 H   0  0  0  0  0  0  0  0  0  0  0  0
  139.5331   73.6714  219.9457 H   0  0  0  0  0  0  0  0  0  0  0  0
  139.2668   74.6180  222.8450 H   0  0  0  0  0  0  0  0  0  0  0  0
  140.2027   75.9860  223.4945 H   0  0  0  0  0  0  0  0  0  0  0  0
  138.2991   77.3443  223.4079 H   0  0  0  0  0  0  0  0  0  0  0  0
  137.4380   74.8280  223.0580 H   0  0  0  0  0  0  0  0  0  0  0  0
  137.7076   76.2391  220.6013 H   0  0  0  0  0  0  0  0  0  0  0  0
  137.6181   77.9057  221.0948 H   0  0  0  0  0  0  0  0  0  0  0  0
  139.8495   77.3635  219.8386 H   0  0  0  0  0  0  0  0  0  0  0  0
  142.3041   77.4130  221.5815 H   0  0  0  0  0  0  0  0  0  0  0  0
  143.3612   79.2014  222.8749 H   0  0  0  0  0  0  0  0  0  0  0  0
  139.5356   81.0741  223.2860 H   0  0  0  0  0  0  0  0  0  0  0  0
  138.4778   79.2663  221.9811 H   0  0  0  0  0  0  0  0  0  0  0  0
  138.8162   69.9465  222.3619 H   0  0  0  0  0  0  0  0  0  0  0  0
  139.0272   68.3376  224.2348 H   0  0  0  0  0  0  0  0  0  0  0  0
  139.7059   67.8611  226.4292 H   0  0  0  0  0  0  0  0  0  0  0  0
  141.5564   70.9195  228.8168 H   0  0  0  0  0  0  0  0  0  0  0  0
  141.3452   72.5233  226.9337 H   0  0  0  0  0  0  0  0  0  0  0  0
  1  2  2  0
  2  3  1  0
  3  4  1  0
  4  5  1  0
  5  6  2  0
  5  7  1  0
  7  8  1  0
  8  9  1  0
  9 10  1  0
  9 11  1  0
 11 12  1  0
 12 13  1  0
 13 14  2  0
 14 15  1  0
 15 16  2  0
 16 17  1  0
 16 18  1  0
 18 19  2  0
  2 20  1  0
 20 21  2  0
 21 22  1  0
 22 23  2  0
 23 24  1  0
 24 25  2  0
 25 26  1  0
 25 27  1  0
 27 28  2  0
 28 29  1  0
 29 30  2  0
 12  7  1  0
 19 13  1  0
 30 20  1  0
 29 23  1  0
  3 31  1  0
  4 32  1  0
  4 33  1  0
  8 34  1  0
  8 35  1  0
  9 36  1  1
 10 37  1  0
 11 38  1  0
 11 39  1  0
 12 40  1  6
 14 41  1  0
 15 42  1  0
 18 43  1  0
 19 44  1  0
 21 45  1  0
 22 46  1  0
 24 47  1  0
 27 48  1  0
 28 49  1  0
M  END
>  <smiles>  (50) 
O=C(NCC(=O)N1C[C@H](O)C[C@H]1c1ccc(Cl)cc1)c1ccc2cc(F)ccc2n1

>  <score_type>  (50) 
oracle

>  <origin>  (50) 
autodockgpu

>  <m_score__min__energy>  (50) 
-8.7400000000000002

>  <m_primary>  (50) 
energy

>  <rmsd>  (50) 
2.717766489013852

>  <m_score__min__rmsd>  (50) 
2.717766489013852

>  <meeko>  (50) 
{"free_energy": -7.67, "intermolecular_energy": -9.46, "internal_energy": -1.98, "cluster_size": 37, "cluster_id": 1, "rank_in_cluster": 37}

>  <energy>  (50) 
-7.7

>  <cluster_rmsd>  (50) 
0.27

>  <cluster>  (50) 
5

$$$$
