
     RDKit          3D

 48 51  0  0  0  0  0  0  0  0999 V2000
  140.2810   71.3560  221.3340 O   0  0  0  0  0  0  0  0  0  0  0  0
  140.0510   71.9300  222.4220 C   0  0  0  0  0  0  0  0  0  0  0  0
  139.7850   73.3280  222.4190 N   0  0  0  0  0  0  0  0  0  0  0  0
  139.7690   74.1100  221.2150 C   0  0  0  0  0  0  0  0  0  0  0  0
  140.1080   75.5510  221.4920 C   0  0  0  0  0  0  0  0  0  0  0  0
  139.9360   75.9220  222.6730 O   0  0  0  0  0  0  0  0  0  0  0  0
  140.5750   76.3290  220.4290 N   0  0  0  0  0  0  0  0  0  0  0  0
  140.7670   75.8600  219.0240 C   0  0  0  0  0  0  0  0  0  0  0  0
  142.2300   76.1990  218.8510 C   0  0  0  0  0  0  0  0  0  0  0  0
  142.3120   77.5540  219.5680 C   0  0  0  0  0  0  0  0  0  0  0  0
  141.0090   77.7080  220.3210 C   0  0  2  0  0  0  0  0  0  0  0  0
  141.0500   78.5010  221.5200 C   0  0  0  0  0  0  0  0  0  0  0  0
  142.2340   79.0160  221.9750 C   0  0  0  0  0  0  0  0  0  0  0  0
  142.3030   79.8040  223.1300 C   0  0  0  0  0  0  0  0  0  0  0  0
  141.1790   80.1020  223.8720 C   0  0  0  0  0  0  0  0  0  0  0  0
  139.9840   79.5840  223.4180 C   0  0  0  0  0  0  0  0  0  0  0  0
  138.8540   79.8580  224.1240 F   0  0  0  0  0  0  0  0  0  0  0  0
  139.9160   78.8110  222.2830 C   0  0  0  0  0  0  0  0  0  0  0  0
  140.0500   71.1950  223.7040 C   0  0  0  0  0  0  0  0  0  0  0  0
  139.5690   69.9020  223.7260 C   0  0  0  0  0  0  0  0  0  0  0  0
  139.5480   69.1760  224.8970 C   0  0  0  0  0  0  0  0  0  0  0  0
  140.0370   69.8300  226.0320 C   0  0  0  0  0  0  0  0  0  0  0  0
  140.0330   69.1370  227.2310 C   0  0  0  0  0  0  0  0  0  0  0  0
  140.5240   69.8060  228.3510 C   0  0  0  0  0  0  0  0  0  0  0  0
  140.9920   71.0930  228.2840 C   0  0  0  0  0  0  0  0  0  0  0  0
  140.9930   71.7820  227.0800 C   0  0  0  0  0  0  0  0  0  0  0  0
  140.5070   71.1160  225.9790 C   0  0  0  0  0  0  0  0  0  0  0  0
  140.5060   71.7800  224.8090 N   0  0  0  0  0  0  0  0  0  0  0  0
  139.5960   73.7700  223.3670 H   0  0  0  0  0  0  0  0  0  0  0  0
  140.5064   73.6978  220.5105 H   0  0  0  0  0  0  0  0  0  0  0  0
  138.7561   74.0682  220.7881 H   0  0  0  0  0  0  0  0  0  0  0  0
  140.5801   74.7808  218.9216 H   0  0  0  0  0  0  0  0  0  0  0  0
  140.0897   76.3081  218.2821 H   0  0  0  0  0  0  0  0  0  0  0  0
  142.8764   75.4496  219.3312 H   0  0  0  0  0  0  0  0  0  0  0  0
  142.5660   76.2225  217.8039 H   0  0  0  0  0  0  0  0  0  0  0  0
  143.1610   77.5654  220.2673 H   0  0  0  0  0  0  0  0  0  0  0  0
  142.4648   78.3779  218.8553 H   0  0  0  0  0  0  0  0  0  0  0  0
  140.2682   78.3373  219.8060 H   0  0  0  0  0  0  0  0  0  0  0  0
  143.1580   78.8045  221.4168 H   0  0  0  0  0  0  0  0  0  0  0  0
  143.2785   80.1956  223.4542 H   0  0  0  0  0  0  0  0  0  0  0  0
  141.2329   80.7212  224.7796 H   0  0  0  0  0  0  0  0  0  0  0  0
  138.9380   78.4225  221.9628 H   0  0  0  0  0  0  0  0  0  0  0  0
  139.1976   69.4449  222.7970 H   0  0  0  0  0  0  0  0  0  0  0  0
  139.1693   68.1440  224.9365 H   0  0  0  0  0  0  0  0  0  0  0  0
  139.6590   68.1046  227.2966 H   0  0  0  0  0  0  0  0  0  0  0  0
  140.5364   69.2847  229.3196 H   0  0  0  0  0  0  0  0  0  0  0  0
  141.3701   71.5836  229.1931 H   0  0  0  0  0  0  0  0  0  0  0  0
  141.3657   72.8145  227.0090 H   0  0  0  0  0  0  0  0  0  0  0  0
  1  2  2  0
  2  3  1  0
  3  4  1  0
  4  5  1  0
  5  6  2  0
  5  7  1  0
  7  8  1  0
  8  9  1  0
  9 10  1  0
 10 11  1  0
 11 12  1  0
 12 13  2  0
 13 14  1  0
 14 15  2  0
 15 16  1  0
 16 17  1  0
 16 18  2  0
  2 19  1  0
 19 20  2  0
 20 21  1  0
 21 22  2  0
 22 23  1  0
 23 24  2  0
 24 25  1  0
 25 26  2  0
 26 27  1  0
 27 28  2  0
 11  7  1  0
 18 12  1  0
 28 19  1  0
 27 22  1  0
  3 29  1  0
  4 30  1  0
  4 31  1  0
  8 32  1  0
  8 33  1  0
  9 34  1  0
  9 35  1  0
 10 36  1  0
 10 37  1  0
 11 38  1  6
 13 39  1  0
 14 40  1  0
 15 41  1  0
 18 42  1  0
 20 43  1  0
 21 44  1  0
 23 45  1  0
 24 46  1  0
 25 47  1  0
 26 48  1  0
M  END
>  <smiles>  (1) 
O=C(NCC(=O)N1CCCC1c1cccc(F)c1)c1ccc2ccccc2n1

>  <score_type>  (1) 
oracle

>  <origin>  (1) 
autodockgpu

>  <m_score__min__energy>  (1) 
-8.8399999999999999

>  <m_primary>  (1) 
energy

>  <rmsd>  (1) 
1.6324598431292945

>  <m_score__min__rmsd>  (1) 
1.6324598431292945

>  <meeko>  (1) 
{"free_energy": -8.71, "intermolecular_energy": -10.2, "internal_energy": -1.82, "cluster_size": 38, "cluster_id": 1, "rank_in_cluster": 26}

>  <energy>  (1) 
-8.84

>  <cluster_rmsd>  (1) 
0.0

>  <cluster>  (1) 
1

$$$$

     RDKit          3D

 48 51  0  0  0  0  0  0  0  0999 V2000
  141.4150   72.4160  221.7290 O   0  0  0  0  0  0  0  0  0  0  0  0
  140.4630   72.5500  222.5300 C   0  0  0  0  0  0  0  0  0  0  0  0
  139.5710   73.6460  222.3600 N   0  0  0  0  0  0  0  0  0  0  0  0
  139.7200   74.6070  221.3040 C   0  0  0  0  0  0  0  0  0  0  0  0
  140.1330   75.9520  221.8420 C   0  0  0  0  0  0  0  0  0  0  0  0
  141.3550   76.2040  221.7690 O   0  0  0  0  0  0  0  0  0  0  0  0
  139.1360   76.7820  222.3620 N   0  0  0  0  0  0  0  0  0  0  0  0
  137.7170   76.3890  222.6140 C   0  0  0  0  0  0  0  0  0  0  0  0
  137.0210   77.4390  221.7780 C   0  0  0  0  0  0  0  0  0  0  0  0
  137.8770   78.6780  222.0780 C   0  0  0  0  0  0  0  0  0  0  0  0
  139.1150   78.1690  222.7820 C   0  0  2  0  0  0  0  0  0  0  0  0
  140.3140   78.9460  222.6140 C   0  0  0  0  0  0  0  0  0  0  0  0
  140.7340   79.3180  221.3650 C   0  0  0  0  0  0  0  0  0  0  0  0
  141.8880   80.0870  221.1720 C   0  0  0  0  0  0  0  0  0  0  0  0
  142.6640   80.5080  222.2310 C   0  0  0  0  0  0  0  0  0  0  0  0
  142.2460   80.1340  223.4900 C   0  0  0  0  0  0  0  0  0  0  0  0
  142.9870   80.5320  224.5600 F   0  0  0  0  0  0  0  0  0  0  0  0
  141.1120   79.3800  223.6810 C   0  0  0  0  0  0  0  0  0  0  0  0
  140.2440   71.6030  223.6430 C   0  0  0  0  0  0  0  0  0  0  0  0
  139.5710   70.4260  223.3890 C   0  0  0  0  0  0  0  0  0  0  0  0
  139.3430   69.5110  224.3950 C   0  0  0  0  0  0  0  0  0  0  0  0
  139.8310   69.8570  225.6590 C   0  0  0  0  0  0  0  0  0  0  0  0
  139.6220   68.9650  226.6980 C   0  0  0  0  0  0  0  0  0  0  0  0
  140.1160   69.3280  227.9500 C   0  0  0  0  0  0  0  0  0  0  0  0
  140.7790   70.5100  228.1590 C   0  0  0  0  0  0  0  0  0  0  0  0
  140.9840   71.3980  227.1140 C   0  0  0  0  0  0  0  0  0  0  0  0
  140.4950   71.0340  225.8800 C   0  0  0  0  0  0  0  0  0  0  0  0
  140.6910   71.8930  224.8630 N   0  0  0  0  0  0  0  0  0  0  0  0
  138.7790   73.7180  223.0660 H   0  0  0  0  0  0  0  0  0  0  0  0
  140.4878   74.2510  220.6013 H   0  0  0  0  0  0  0  0  0  0  0  0
  138.7502   74.7188  220.7970 H   0  0  0  0  0  0  0  0  0  0  0  0
  137.5027   75.3708  222.2573 H   0  0  0  0  0  0  0  0  0  0  0  0
  137.4188   76.3567  223.6723 H   0  0  0  0  0  0  0  0  0  0  0  0
  137.0442   77.1828  220.7085 H   0  0  0  0  0  0  0  0  0  0  0  0
  135.9525   77.5630  222.0083 H   0  0  0  0  0  0  0  0  0  0  0  0
  138.1516   79.1883  221.1430 H   0  0  0  0  0  0  0  0  0  0  0  0
  137.3310   79.4044  222.6979 H   0  0  0  0  0  0  0  0  0  0  0  0
  139.0781   78.2698  223.8767 H   0  0  0  0  0  0  0  0  0  0  0  0
  140.1483   79.0038  220.4885 H   0  0  0  0  0  0  0  0  0  0  0  0
  142.1832   80.3624  220.1488 H   0  0  0  0  0  0  0  0  0  0  0  0
  143.5708   81.1118  222.0788 H   0  0  0  0  0  0  0  0  0  0  0  0
  140.8213   79.1082  224.7065 H   0  0  0  0  0  0  0  0  0  0  0  0
  139.2117   70.2147  222.3711 H   0  0  0  0  0  0  0  0  0  0  0  0
  138.8096   68.5661  224.2142 H   0  0  0  0  0  0  0  0  0  0  0  0
  139.0909   68.0144  226.5424 H   0  0  0  0  0  0  0  0  0  0  0  0
  139.9691   68.6435  228.7985 H   0  0  0  0  0  0  0  0  0  0  0  0
  141.1515   70.7558  229.1644 H   0  0  0  0  0  0  0  0  0  0  0  0
  141.5135   72.3504  227.2644 H   0  0  0  0  0  0  0  0  0  0  0  0
  1  2  2  0
  2  3  1  0
  3  4  1  0
  4  5  1  0
  5  6  2  0
  5  7  1  0
  7  8  1  0
  8  9  1  0
  9 10  1  0
 10 11  1  0
 11 12  1  0
 12 13  2  0
 13 14  1  0
 14 15  2  0
 15 16  1  0
 16 17  1  0
 16 18  2  0
  2 19  1  0
 19 20  2  0
 20 21  1  0
 21 22  2  0
 22 23  1  0
 23 24  2  0
 24 25  1  0
 25 26  2  0
 26 27  1  0
 27 28  2  0
 11  7  1  0
 18 12  1  0
 28 19  1  0
 27 22  1  0
  3 29  1  0
  4 30  1  0
  4 31  1  0
  8 32  1  0
  8 33  1  0
  9 34  1  0
  9 35  1  0
 10 36  1  0
 10 37  1  0
 11 38  1  1
 13 39  1  0
 14 40  1  0
 15 41  1  0
 18 42  1  0
 20 43  1  0
 21 44  1  0
 23 45  1  0
 24 46  1  0
 25 47  1  0
 26 48  1  0
M  END
>  <smiles>  (2) 
O=C(NCC(=O)N1CCCC1c1cccc(F)c1)c1ccc2ccccc2n1

>  <score_type>  (2) 
oracle

>  <origin>  (2) 
autodockgpu

>  <m_score__min__energy>  (2) 
-8.8399999999999999

>  <m_primary>  (2) 
energy

>  <rmsd>  (2) 
2.930053070310073

>  <m_score__min__rmsd>  (2) 
2.930053070310073

>  <meeko>  (2) 
{"free_energy": -8.79, "intermolecular_energy": -10.28, "internal_energy": -1.24, "cluster_size": 38, "cluster_id": 1, "rank_in_cluster": 3}

>  <energy>  (2) 
-8.81

>  <cluster_rmsd>  (2) 
0.05

>  <cluster>  (2) 
1

$$$$

     RDKit          3D

 48 51  0  0  0  0  0  0  0  0999 V2000
  140.3680   71.3430  221.3240 O   0  0  0  0  0  0  0  0  0  0  0  0
  140.0900   71.9230  222.3990 C   0  0  0  0  0  0  0  0  0  0  0  0
  139.8030   73.3170  222.3730 N   0  0  0  0  0  0  0  0  0  0  0  0
  139.8200   74.0870  221.1610 C   0  0  0  0  0  0  0  0  0  0  0  0
  140.1420   75.5330  221.4360 C   0  0  0  0  0  0  0  0  0  0  0  0
  139.9490   75.9090  222.6120 O   0  0  0  0  0  0  0  0  0  0  0  0
  140.6170   76.3090  220.3750 N   0  0  0  0  0  0  0  0  0  0  0  0
  140.8520   75.8300  218.9800 C   0  0  0  0  0  0  0  0  0  0  0  0
  142.3110   76.1980  218.8380 C   0  0  0  0  0  0  0  0  0  0  0  0
  142.3480   77.5620  219.5400 C   0  0  0  0  0  0  0  0  0  0  0  0
  141.0250   77.6960  220.2610 C   0  0  2  0  0  0  0  0  0  0  0  0
  141.0210   78.5030  221.4530 C   0  0  0  0  0  0  0  0  0  0  0  0
  142.1840   79.0460  221.9300 C   0  0  0  0  0  0  0  0  0  0  0  0
  142.2090   79.8480  223.0770 C   0  0  0  0  0  0  0  0  0  0  0  0
  141.0610   80.1310  223.7890 C   0  0  0  0  0  0  0  0  0  0  0  0
  139.8890   79.5840  223.3120 C   0  0  0  0  0  0  0  0  0  0  0  0
  138.7370   79.8420  223.9880 F   0  0  0  0  0  0  0  0  0  0  0  0
  139.8630   78.7970  222.1850 C   0  0  0  0  0  0  0  0  0  0  0  0
  140.0540   71.1990  223.6860 C   0  0  0  0  0  0  0  0  0  0  0  0
  139.5410   69.9190  223.7130 C   0  0  0  0  0  0  0  0  0  0  0  0
  139.4860   69.2040  224.8890 C   0  0  0  0  0  0  0  0  0  0  0  0
  139.9750   69.8560  226.0250 C   0  0  0  0  0  0  0  0  0  0  0  0
  139.9380   69.1730  227.2300 C   0  0  0  0  0  0  0  0  0  0  0  0
  140.4310   69.8390  228.3500 C   0  0  0  0  0  0  0  0  0  0  0  0
  140.9320   71.1140  228.2790 C   0  0  0  0  0  0  0  0  0  0  0  0
  140.9660   71.7920  227.0700 C   0  0  0  0  0  0  0  0  0  0  0  0
  140.4790   71.1290  225.9680 C   0  0  0  0  0  0  0  0  0  0  0  0
  140.5090   71.7830  224.7930 N   0  0  0  0  0  0  0  0  0  0  0  0
  139.5740   73.7650  223.3090 H   0  0  0  0  0  0  0  0  0  0  0  0
  140.5815   73.6728  220.4839 H   0  0  0  0  0  0  0  0  0  0  0  0
  138.8217   74.0346  220.7021 H   0  0  0  0  0  0  0  0  0  0  0  0
  140.6901   74.7462  218.8846 H   0  0  0  0  0  0  0  0  0  0  0  0
  140.1833   76.2561  218.2176 H   0  0  0  0  0  0  0  0  0  0  0  0
  142.9612   75.4680  219.3424 H   0  0  0  0  0  0  0  0  0  0  0  0
  142.6713   76.2168  217.7989 H   0  0  0  0  0  0  0  0  0  0  0  0
  143.1803   77.5997  220.2583 H   0  0  0  0  0  0  0  0  0  0  0  0
  142.5000   78.3809  218.8214 H   0  0  0  0  0  0  0  0  0  0  0  0
  140.2839   78.3039  219.7213 H   0  0  0  0  0  0  0  0  0  0  0  0
  143.1252   78.8463  221.3968 H   0  0  0  0  0  0  0  0  0  0  0  0
  143.1682   80.2633  223.4197 H   0  0  0  0  0  0  0  0  0  0  0  0
  141.0803   80.7607  224.6907 H   0  0  0  0  0  0  0  0  0  0  0  0
  138.9011   78.3844  221.8467 H   0  0  0  0  0  0  0  0  0  0  0  0
  139.1708   69.4630  222.7829 H   0  0  0  0  0  0  0  0  0  0  0  0
  139.0818   68.1819  224.9318 H   0  0  0  0  0  0  0  0  0  0  0  0
  139.5374   68.1509  227.2992 H   0  0  0  0  0  0  0  0  0  0  0  0
  140.4181   69.3257  229.3228 H   0  0  0  0  0  0  0  0  0  0  0  0
  141.3101   71.6028  229.1891 H   0  0  0  0  0  0  0  0  0  0  0  0
  141.3647   72.8145  226.9957 H   0  0  0  0  0  0  0  0  0  0  0  0
  1  2  2  0
  2  3  1  0
  3  4  1  0
  4  5  1  0
  5  6  2  0
  5  7  1  0
  7  8  1  0
  8  9  1  0
  9 10  1  0
 10 11  1  0
 11 12  1  0
 12 13  2  0
 13 14  1  0
 14 15  2  0
 15 16  1  0
 16 17  1  0
 16 18  2  0
  2 19  1  0
 19 20  2  0
 20 21  1  0
 21 22  2  0
 22 23  1  0
 23 24  2  0
 24 25  1  0
 25 26  2  0
 26 27  1  0
 27 28  2  0
 11  7  1  0
 18 12  1  0
 28 19  1  0
 27 22  1  0
  3 29  1  0
  4 30  1  0
  4 31  1  0
  8 32  1  0
  8 33  1  0
  9 34  1  0
  9 35  1  0
 10 36  1  0
 10 37  1  0
 11 38  1  6
 13 39  1  0
 14 40  1  0
 15 41  1  0
 18 42  1  0
 20 43  1  0
 21 44  1  0
 23 45  1  0
 24 46  1  0
 25 47  1  0
 26 48  1  0
M  END
>  <smiles>  (3) 
O=C(NCC(=O)N1CCCC1c1cccc(F)c1)c1ccc2ccccc2n1

>  <score_type>  (3) 
oracle

>  <origin>  (3) 
autodockgpu

>  <m_score__min__energy>  (3) 
-8.8399999999999999

>  <m_primary>  (3) 
energy

>  <rmsd>  (3) 
1.648660428007782

>  <m_score__min__rmsd>  (3) 
1.648660428007782

>  <meeko>  (3) 
{"free_energy": -8.71, "intermolecular_energy": -10.21, "internal_energy": -1.8, "cluster_size": 38, "cluster_id": 1, "rank_in_cluster": 21}

>  <energy>  (3) 
-8.79

>  <cluster_rmsd>  (3) 
1.68

>  <cluster>  (3) 
1

$$$$

     RDKit          3D

 48 51  0  0  0  0  0  0  0  0999 V2000
  140.7070   71.4440  221.3400 O   0  0  0  0  0  0  0  0  0  0  0  0
  140.2870   72.0140  222.3730 C   0  0  0  0  0  0  0  0  0  0  0  0
  139.9420   73.3920  222.3070 N   0  0  0  0  0  0  0  0  0  0  0  0
  140.0570   74.1600  221.0990 C   0  0  0  0  0  0  0  0  0  0  0  0
  140.3640   75.6050  221.3950 C   0  0  0  0  0  0  0  0  0  0  0  0
  140.3500   75.9160  222.6050 O   0  0  0  0  0  0  0  0  0  0  0  0
  140.6310   76.4510  220.3150 N   0  0  0  0  0  0  0  0  0  0  0  0
  140.7100   76.0370  218.8820 C   0  0  0  0  0  0  0  0  0  0  0  0
  142.1050   76.5270  218.5640 C   0  0  0  0  0  0  0  0  0  0  0  0
  142.1320   77.8660  219.3130 C   0  0  0  0  0  0  0  0  0  0  0  0
  140.9130   77.8690  220.2080 C   0  0  2  0  0  0  0  0  0  0  0  0
  141.0080   78.6340  221.4220 C   0  0  0  0  0  0  0  0  0  0  0  0
  139.9040   78.8390  222.2060 C   0  0  0  0  0  0  0  0  0  0  0  0
  139.9700   79.5650  223.4010 C   0  0  0  0  0  0  0  0  0  0  0  0
  141.1530   80.1150  223.8510 C   0  0  0  0  0  0  0  0  0  0  0  0
  142.2670   79.9120  223.0630 C   0  0  0  0  0  0  0  0  0  0  0  0
  143.4510   80.4400  223.4760 F   0  0  0  0  0  0  0  0  0  0  0  0
  142.2030   79.1980  221.8900 C   0  0  0  0  0  0  0  0  0  0  0  0
  140.1420   71.2910  223.6540 C   0  0  0  0  0  0  0  0  0  0  0  0
  139.5260   70.0570  223.6530 C   0  0  0  0  0  0  0  0  0  0  0  0
  139.3680   69.3450  224.8230 C   0  0  0  0  0  0  0  0  0  0  0  0
  139.8640   69.9520  225.9810 C   0  0  0  0  0  0  0  0  0  0  0  0
  139.7250   69.2710  227.1790 C   0  0  0  0  0  0  0  0  0  0  0  0
  140.2260   69.8920  228.3210 C   0  0  0  0  0  0  0  0  0  0  0  0
  140.8320   71.1220  228.2770 C   0  0  0  0  0  0  0  0  0  0  0  0
  140.9680   71.7990  227.0740 C   0  0  0  0  0  0  0  0  0  0  0  0
  140.4710   71.1800  225.9500 C   0  0  0  0  0  0  0  0  0  0  0  0
  140.6000   71.8330  224.7810 N   0  0  0  0  0  0  0  0  0  0  0  0
  139.5910   73.8310  223.2090 H   0  0  0  0  0  0  0  0  0  0  0  0
  140.8666   73.7406  220.4837 H   0  0  0  0  0  0  0  0  0  0  0  0
  139.0967   74.1119  220.5647 H   0  0  0  0  0  0  0  0  0  0  0  0
  140.6197   74.9472  218.7630 H   0  0  0  0  0  0  0  0  0  0  0  0
  139.9135   76.4311  218.2337 H   0  0  0  0  0  0  0  0  0  0  0  0
  142.8712   75.8364  218.9462 H   0  0  0  0  0  0  0  0  0  0  0  0
  142.3193   76.6085  217.4881 H   0  0  0  0  0  0  0  0  0  0  0  0
  143.0486   77.9482  219.9156 H   0  0  0  0  0  0  0  0  0  0  0  0
  142.1218   78.7171  218.6162 H   0  0  0  0  0  0  0  0  0  0  0  0
  140.0616   78.4321  219.7981 H   0  0  0  0  0  0  0  0  0  0  0  0
  138.9376   78.4211  221.8875 H   0  0  0  0  0  0  0  0  0  0  0  0
  139.0553   79.7006  223.9968 H   0  0  0  0  0  0  0  0  0  0  0  0
  141.2050   80.6859  224.7898 H   0  0  0  0  0  0  0  0  0  0  0  0
  143.1208   79.0647  221.2985 H   0  0  0  0  0  0  0  0  0  0  0  0
  139.1561   69.6355  222.7067 H   0  0  0  0  0  0  0  0  0  0  0  0
  138.8811   68.3589  224.8443 H   0  0  0  0  0  0  0  0  0  0  0  0
  139.2409   68.2844  227.2266 H   0  0  0  0  0  0  0  0  0  0  0  0
  140.1326   69.3793  229.2897 H   0  0  0  0  0  0  0  0  0  0  0  0
  141.2134   71.5753  229.2038 H   0  0  0  0  0  0  0  0  0  0  0  0
  141.4512   72.7858  227.0209 H   0  0  0  0  0  0  0  0  0  0  0  0
  1  2  2  0
  2  3  1  0
  3  4  1  0
  4  5  1  0
  5  6  2  0
  5  7  1  0
  7  8  1  0
  8  9  1  0
  9 10  1  0
 10 11  1  0
 11 12  1  0
 12 13  2  0
 13 14  1  0
 14 15  2  0
 15 16  1  0
 16 17  1  0
 16 18  2  0
  2 19  1  0
 19 20  2  0
 20 21  1  0
 21 22  2  0
 22 23  1  0
 23 24  2  0
 24 25  1  0
 25 26  2  0
 26 27  1  0
 27 28  2  0
 11  7  1  0
 18 12  1  0
 28 19  1  0
 27 22  1  0
  3 29  1  0
  4 30  1  0
  4 31  1  0
  8 32  1  0
  8 33  1  0
  9 34  1  0
  9 35  1  0
 10 36  1  0
 10 37  1  0
 11 38  1  6
 13 39  1  0
 14 40  1  0
 15 41  1  0
 18 42  1  0
 20 43  1  0
 21 44  1  0
 23 45  1  0
 24 46  1  0
 25 47  1  0
 26 48  1  0
M  END
>  <smiles>  (4) 
O=C(NCC(=O)N1CCCC1c1cccc(F)c1)c1ccc2ccccc2n1

>  <score_type>  (4) 
oracle

>  <origin>  (4) 
autodockgpu

>  <m_score__min__energy>  (4) 
-8.8399999999999999

>  <m_primary>  (4) 
energy

>  <rmsd>  (4) 
1.6697413460298645

>  <m_score__min__rmsd>  (4) 
1.6697413460298645

>  <meeko>  (4) 
{"free_energy": -8.74, "intermolecular_energy": -10.23, "internal_energy": -1.76, "cluster_size": 38, "cluster_id": 1, "rank_in_cluster": 13}

>  <energy>  (4) 
-8.78

>  <cluster_rmsd>  (4) 
1.04

>  <cluster>  (4) 
1

$$$$

     RDKit          3D

 48 51  0  0  0  0  0  0  0  0999 V2000
  140.2050   71.4180  221.2930 O   0  0  0  0  0  0  0  0  0  0  0  0
  139.9970   71.9770  222.3940 C   0  0  0  0  0  0  0  0  0  0  0  0
  139.7410   73.3770  222.4170 N   0  0  0  0  0  0  0  0  0  0  0  0
  139.7120   74.1770  221.2250 C   0  0  0  0  0  0  0  0  0  0  0  0
  140.1390   75.5940  221.5050 C   0  0  0  0  0  0  0  0  0  0  0  0
  140.0730   75.9450  222.7030 O   0  0  0  0  0  0  0  0  0  0  0  0
  140.5610   76.3750  220.4260 N   0  0  0  0  0  0  0  0  0  0  0  0
  140.7330   75.9000  219.0200 C   0  0  0  0  0  0  0  0  0  0  0  0
  142.1820   76.2740  218.8110 C   0  0  0  0  0  0  0  0  0  0  0  0
  142.2470   77.6370  219.5150 C   0  0  0  0  0  0  0  0  0  0  0  0
  140.9580   77.7630  220.2970 C   0  0  2  0  0  0  0  0  0  0  0  0
  141.0060   78.5670  221.4890 C   0  0  0  0  0  0  0  0  0  0  0  0
  142.2010   79.0330  221.9680 C   0  0  0  0  0  0  0  0  0  0  0  0
  142.2780   79.8300  223.1150 C   0  0  0  0  0  0  0  0  0  0  0  0
  141.1510   80.1870  223.8270 C   0  0  0  0  0  0  0  0  0  0  0  0
  139.9460   79.7180  223.3490 C   0  0  0  0  0  0  0  0  0  0  0  0
  138.8130   80.0500  224.0250 F   0  0  0  0  0  0  0  0  0  0  0  0
  139.8700   78.9360  222.2210 C   0  0  0  0  0  0  0  0  0  0  0  0
  140.0120   71.2220  223.6640 C   0  0  0  0  0  0  0  0  0  0  0  0
  139.5440   69.9250  223.6700 C   0  0  0  0  0  0  0  0  0  0  0  0
  139.5380   69.1810  224.8300 C   0  0  0  0  0  0  0  0  0  0  0  0
  140.0280   69.8220  225.9710 C   0  0  0  0  0  0  0  0  0  0  0  0
  140.0390   69.1100  227.1590 C   0  0  0  0  0  0  0  0  0  0  0  0
  140.5310   69.7670  228.2860 C   0  0  0  0  0  0  0  0  0  0  0  0
  140.9860   71.0600  228.2360 C   0  0  0  0  0  0  0  0  0  0  0  0
  140.9720   71.7670  227.0430 C   0  0  0  0  0  0  0  0  0  0  0  0
  140.4860   71.1130  225.9350 C   0  0  0  0  0  0  0  0  0  0  0  0
  140.4700   71.7950  224.7750 N   0  0  0  0  0  0  0  0  0  0  0  0
  139.5720   73.8060  223.3750 H   0  0  0  0  0  0  0  0  0  0  0  0
  140.3940   73.7376  220.4822 H   0  0  0  0  0  0  0  0  0  0  0  0
  138.6801   74.1947  220.8443 H   0  0  0  0  0  0  0  0  0  0  0  0
  140.5711   74.8157  218.9296 H   0  0  0  0  0  0  0  0  0  0  0  0
  140.0279   76.3253  218.2907 H   0  0  0  0  0  0  0  0  0  0  0  0
  142.8578   75.5451  219.2822 H   0  0  0  0  0  0  0  0  0  0  0  0
  142.4931   76.2972  217.7562 H   0  0  0  0  0  0  0  0  0  0  0  0
  143.1116   77.6759  220.1940 H   0  0  0  0  0  0  0  0  0  0  0  0
  142.3628   78.4588  218.7930 H   0  0  0  0  0  0  0  0  0  0  0  0
  140.1899   78.3685  219.7937 H   0  0  0  0  0  0  0  0  0  0  0  0
  143.1276   78.7730  221.4353 H   0  0  0  0  0  0  0  0  0  0  0  0
  143.2623   80.1812  223.4583 H   0  0  0  0  0  0  0  0  0  0  0  0
  141.2111   80.8134  224.7292 H   0  0  0  0  0  0  0  0  0  0  0  0
  138.8833   78.5880  221.8815 H   0  0  0  0  0  0  0  0  0  0  0  0
  139.1706   69.4783  222.7367 H   0  0  0  0  0  0  0  0  0  0  0  0
  139.1696   68.1448  224.8562 H   0  0  0  0  0  0  0  0  0  0  0  0
  139.6759   68.0729  227.2110 H   0  0  0  0  0  0  0  0  0  0  0  0
  140.5551   69.2311  229.2463 H   0  0  0  0  0  0  0  0  0  0  0  0
  141.3652   71.5403  229.1500 H   0  0  0  0  0  0  0  0  0  0  0  0
  141.3334   72.8043  226.9855 H   0  0  0  0  0  0  0  0  0  0  0  0
  1  2  2  0
  2  3  1  0
  3  4  1  0
  4  5  1  0
  5  6  2  0
  5  7  1  0
  7  8  1  0
  8  9  1  0
  9 10  1  0
 10 11  1  0
 11 12  1  0
 12 13  2  0
 13 14  1  0
 14 15  2  0
 15 16  1  0
 16 17  1  0
 16 18  2  0
  2 19  1  0
 19 20  2  0
 20 21  1  0
 21 22  2  0
 22 23  1  0
 23 24  2  0
 24 25  1  0
 25 26  2  0
 26 27  1  0
 27 28  2  0
 11  7  1  0
 18 12  1  0
 28 19  1  0
 27 22  1  0
  3 29  1  0
  4 30  1  0
  4 31  1  0
  8 32  1  0
  8 33  1  0
  9 34  1  0
  9 35  1  0
 10 36  1  0
 10 37  1  0
 11 38  1  6
 13 39  1  0
 14 40  1  0
 15 41  1  0
 18 42  1  0
 20 43  1  0
 21 44  1  0
 23 45  1  0
 24 46  1  0
 25 47  1  0
 26 48  1  0
M  END
>  <smiles>  (5) 
O=C(NCC(=O)N1CCCC1c1cccc(F)c1)c1ccc2ccccc2n1

>  <score_type>  (5) 
oracle

>  <origin>  (5) 
autodockgpu

>  <m_score__min__energy>  (5) 
-8.8399999999999999

>  <m_primary>  (5) 
energy

>  <rmsd>  (5) 
1.6042207265023412

>  <m_score__min__rmsd>  (5) 
1.6042207265023412

>  <meeko>  (5) 
{"free_energy": -8.66, "intermolecular_energy": -10.15, "internal_energy": -1.85, "cluster_size": 38, "cluster_id": 1, "rank_in_cluster": 32}

>  <energy>  (5) 
-8.78

>  <cluster_rmsd>  (5) 
1.0

>  <cluster>  (5) 
1

$$$$

     RDKit          3D

 48 51  0  0  0  0  0  0  0  0999 V2000
  140.2800   71.3340  221.2670 O   0  0  0  0  0  0  0  0  0  0  0  0
  140.0440   71.9040  222.3570 C   0  0  0  0  0  0  0  0  0  0  0  0
  139.7830   73.3020  222.3600 N   0  0  0  0  0  0  0  0  0  0  0  0
  139.7800   74.0910  221.1600 C   0  0  0  0  0  0  0  0  0  0  0  0
  140.1510   75.5220  221.4440 C   0  0  0  0  0  0  0  0  0  0  0  0
  140.0030   75.8870  222.6300 O   0  0  0  0  0  0  0  0  0  0  0  0
  140.6170   76.3000  220.3800 N   0  0  0  0  0  0  0  0  0  0  0  0
  140.8370   75.8230  218.9810 C   0  0  0  0  0  0  0  0  0  0  0  0
  142.2950   76.1880  218.8250 C   0  0  0  0  0  0  0  0  0  0  0  0
  142.3420   77.5510  219.5300 C   0  0  0  0  0  0  0  0  0  0  0  0
  141.0260   77.6860  220.2650 C   0  0  2  0  0  0  0  0  0  0  0  0
  141.0360   78.4910  221.4580 C   0  0  0  0  0  0  0  0  0  0  0  0
  139.8730   78.7520  222.1310 C   0  0  0  0  0  0  0  0  0  0  0  0
  139.8540   79.5180  223.3030 C   0  0  0  0  0  0  0  0  0  0  0  0
  141.0080   80.0510  223.8390 C   0  0  0  0  0  0  0  0  0  0  0  0
  142.1810   79.7910  223.1630 C   0  0  0  0  0  0  0  0  0  0  0  0
  143.3380   80.3010  223.6630 F   0  0  0  0  0  0  0  0  0  0  0  0
  142.2000   79.0380  222.0120 C   0  0  0  0  0  0  0  0  0  0  0  0
  140.0290   71.1610  223.6340 C   0  0  0  0  0  0  0  0  0  0  0  0
  139.5260   69.8770  223.6490 C   0  0  0  0  0  0  0  0  0  0  0  0
  139.4920   69.1450  224.8160 C   0  0  0  0  0  0  0  0  0  0  0  0
  139.9920   69.7840  225.9550 C   0  0  0  0  0  0  0  0  0  0  0  0
  139.9760   69.0830  227.1500 C   0  0  0  0  0  0  0  0  0  0  0  0
  140.4790   69.7370  228.2730 C   0  0  0  0  0  0  0  0  0  0  0  0
  140.9700   71.0160  228.2130 C   0  0  0  0  0  0  0  0  0  0  0  0
  140.9830   71.7120  227.0140 C   0  0  0  0  0  0  0  0  0  0  0  0
  140.4860   71.0610  225.9090 C   0  0  0  0  0  0  0  0  0  0  0  0
  140.4960   71.7320  224.7430 N   0  0  0  0  0  0  0  0  0  0  0  0
  139.5880   73.7400  223.3090 H   0  0  0  0  0  0  0  0  0  0  0  0
  140.5060   73.6668  220.4507 H   0  0  0  0  0  0  0  0  0  0  0  0
  138.7651   74.0735  220.7361 H   0  0  0  0  0  0  0  0  0  0  0  0
  140.6718   74.7397  218.8852 H   0  0  0  0  0  0  0  0  0  0  0  0
  140.1616   76.2521  218.2263 H   0  0  0  0  0  0  0  0  0  0  0  0
  142.9486   75.4555  219.3211 H   0  0  0  0  0  0  0  0  0  0  0  0
  142.6448   76.2083  217.7823 H   0  0  0  0  0  0  0  0  0  0  0  0
  143.1816   77.5854  220.2399 H   0  0  0  0  0  0  0  0  0  0  0  0
  142.4884   78.3713  218.8118 H   0  0  0  0  0  0  0  0  0  0  0  0
  140.2799   78.2960  219.7346 H   0  0  0  0  0  0  0  0  0  0  0  0
  138.9271   78.3488  221.7403 H   0  0  0  0  0  0  0  0  0  0  0  0
  138.8944   79.6994  223.8092 H   0  0  0  0  0  0  0  0  0  0  0  0
  140.9930   80.6531  224.7594 H   0  0  0  0  0  0  0  0  0  0  0  0
  143.1622   78.8595  221.5097 H   0  0  0  0  0  0  0  0  0  0  0  0
  139.1471   69.4314  222.7174 H   0  0  0  0  0  0  0  0  0  0  0  0
  139.0954   68.1195  224.8496 H   0  0  0  0  0  0  0  0  0  0  0  0
  139.5841   68.0569  227.2096 H   0  0  0  0  0  0  0  0  0  0  0  0
  140.4823   69.2103  229.2387 H   0  0  0  0  0  0  0  0  0  0  0  0
  141.3572   71.4943  229.1248 H   0  0  0  0  0  0  0  0  0  0  0  0
  141.3732   72.7384  226.9494 H   0  0  0  0  0  0  0  0  0  0  0  0
  1  2  2  0
  2  3  1  0
  3  4  1  0
  4  5  1  0
  5  6  2  0
  5  7  1  0
  7  8  1  0
  8  9  1  0
  9 10  1  0
 10 11  1  0
 11 12  1  0
 12 13  2  0
 13 14  1  0
 14 15  2  0
 15 16  1  0
 16 17  1  0
 16 18  2  0
  2 19  1  0
 19 20  2  0
 20 21  1  0
 21 22  2  0
 22 23  1  0
 23 24  2  0
 24 25  1  0
 25 26  2  0
 26 27  1  0
 27 28  2  0
 11  7  1  0
 18 12  1  0
 28 19  1  0
 27 22  1  0
  3 29  1  0
  4 30  1  0
  4 31  1  0
  8 32  1  0
  8 33  1  0
  9 34  1  0
  9 35  1  0
 10 36  1  0
 10 37  1  0
 11 38  1  6
 13 39  1  0
 14 40  1  0
 15 41  1  0
 18 42  1  0
 20 43  1  0
 21 44  1  0
 23 45  1  0
 24 46  1  0
 25 47  1  0
 26 48  1  0
M  END
>  <smiles>  (6) 
O=C(NCC(=O)N1CCCC1c1cccc(F)c1)c1ccc2ccccc2n1

>  <score_type>  (6) 
oracle

>  <origin>  (6) 
autodockgpu

>  <m_score__min__energy>  (6) 
-8.8399999999999999

>  <m_primary>  (6) 
energy

>  <rmsd>  (6) 
1.6122264954374954

>  <m_score__min__rmsd>  (6) 
1.6122264954374954

>  <meeko>  (6) 
{"free_energy": -8.72, "intermolecular_energy": -10.21, "internal_energy": -1.82, "cluster_size": 38, "cluster_id": 1, "rank_in_cluster": 19}

>  <energy>  (6) 
-8.77

>  <cluster_rmsd>  (6) 
1.07

>  <cluster>  (6) 
1

$$$$

     RDKit          3D

 48 51  0  0  0  0  0  0  0  0999 V2000
  140.6100   71.3180  221.3130 O   0  0  0  0  0  0  0  0  0  0  0  0
  140.2690   71.9100  222.3620 C   0  0  0  0  0  0  0  0  0  0  0  0
  139.9670   73.2990  222.3000 N   0  0  0  0  0  0  0  0  0  0  0  0
  140.0400   74.0530  221.0800 C   0  0  0  0  0  0  0  0  0  0  0  0
  140.1900   75.5260  221.3540 C   0  0  0  0  0  0  0  0  0  0  0  0
  139.9250   75.8820  222.5220 O   0  0  0  0  0  0  0  0  0  0  0  0
  140.6050   76.3470  220.3010 N   0  0  0  0  0  0  0  0  0  0  0  0
  140.7890   75.9200  218.8820 C   0  0  0  0  0  0  0  0  0  0  0  0
  142.2330   76.3220  218.6910 C   0  0  0  0  0  0  0  0  0  0  0  0
  142.2740   77.6630  219.4380 C   0  0  0  0  0  0  0  0  0  0  0  0
  140.9800   77.7450  220.2180 C   0  0  2  0  0  0  0  0  0  0  0  0
  141.0120   78.5110  221.4350 C   0  0  0  0  0  0  0  0  0  0  0  0
  139.8610   78.7530  222.1370 C   0  0  0  0  0  0  0  0  0  0  0  0
  139.8630   79.4810  223.3320 C   0  0  0  0  0  0  0  0  0  0  0  0
  141.0270   79.9960  223.8660 C   0  0  0  0  0  0  0  0  0  0  0  0
  142.1880   79.7560  223.1610 C   0  0  0  0  0  0  0  0  0  0  0  0
  143.3550   80.2490  223.6570 F   0  0  0  0  0  0  0  0  0  0  0  0
  142.1860   79.0400  221.9870 C   0  0  0  0  0  0  0  0  0  0  0  0
  140.1720   71.2040  223.6560 C   0  0  0  0  0  0  0  0  0  0  0  0
  139.5880   69.9550  223.6880 C   0  0  0  0  0  0  0  0  0  0  0  0
  139.4750   69.2580  224.8720 C   0  0  0  0  0  0  0  0  0  0  0  0
  139.9830   69.8940  226.0080 C   0  0  0  0  0  0  0  0  0  0  0  0
  139.8890   69.2280  227.2190 C   0  0  0  0  0  0  0  0  0  0  0  0
  140.4000   69.8800  228.3400 C   0  0  0  0  0  0  0  0  0  0  0  0
  140.9720   71.1230  228.2640 C   0  0  0  0  0  0  0  0  0  0  0  0
  141.0630   71.7850  227.0480 C   0  0  0  0  0  0  0  0  0  0  0  0
  140.5570   71.1360  225.9450 C   0  0  0  0  0  0  0  0  0  0  0  0
  140.6420   71.7740  224.7640 N   0  0  0  0  0  0  0  0  0  0  0  0
  139.6830   73.7580  223.2160 H   0  0  0  0  0  0  0  0  0  0  0  0
  140.9061   73.7072  220.4966 H   0  0  0  0  0  0  0  0  0  0  0  0
  139.1059   73.8979  220.5201 H   0  0  0  0  0  0  0  0  0  0  0  0
  140.6437   74.8369  218.7564 H   0  0  0  0  0  0  0  0  0  0  0  0
  140.0802   76.3579  218.1637 H   0  0  0  0  0  0  0  0  0  0  0  0
  142.9180   75.5889  219.1419 H   0  0  0  0  0  0  0  0  0  0  0  0
  142.5480   76.3829  217.6388 H   0  0  0  0  0  0  0  0  0  0  0  0
  143.1351   77.6936  220.1218 H   0  0  0  0  0  0  0  0  0  0  0  0
  142.3798   78.5087  218.7426 H   0  0  0  0  0  0  0  0  0  0  0  0
  140.2040   78.3544  219.7316 H   0  0  0  0  0  0  0  0  0  0  0  0
  138.9076   78.3638  221.7502 H   0  0  0  0  0  0  0  0  0  0  0  0
  138.9122   79.6472  223.8596 H   0  0  0  0  0  0  0  0  0  0  0  0
  141.0286   80.5683  224.8054 H   0  0  0  0  0  0  0  0  0  0  0  0
  143.1394   78.8769  221.4630 H   0  0  0  0  0  0  0  0  0  0  0  0
  139.2076   69.5094  222.7570 H   0  0  0  0  0  0  0  0  0  0  0  0
  139.0127   68.2610  224.9197 H   0  0  0  0  0  0  0  0  0  0  0  0
  139.4320   68.2301  227.2926 H   0  0  0  0  0  0  0  0  0  0  0  0
  140.3422   69.3802  229.3182 H   0  0  0  0  0  0  0  0  0  0  0  0
  141.3624   71.6001  229.1750 H   0  0  0  0  0  0  0  0  0  0  0  0
  141.5188   72.7830  226.9692 H   0  0  0  0  0  0  0  0  0  0  0  0
  1  2  2  0
  2  3  1  0
  3  4  1  0
  4  5  1  0
  5  6  2  0
  5  7  1  0
  7  8  1  0
  8  9  1  0
  9 10  1  0
 10 11  1  0
 11 12  1  0
 12 13  2  0
 13 14  1  0
 14 15  2  0
 15 16  1  0
 16 17  1  0
 16 18  2  0
  2 19  1  0
 19 20  2  0
 20 21  1  0
 21 22  2  0
 22 23  1  0
 23 24  2  0
 24 25  1  0
 25 26  2  0
 26 27  1  0
 27 28  2  0
 11  7  1  0
 18 12  1  0
 28 19  1  0
 27 22  1  0
  3 29  1  0
  4 30  1  0
  4 31  1  0
  8 32  1  0
  8 33  1  0
  9 34  1  0
  9 35  1  0
 10 36  1  0
 10 37  1  0
 11 38  1  6
 13 39  1  0
 14 40  1  0
 15 41  1  0
 18 42  1  0
 20 43  1  0
 21 44  1  0
 23 45  1  0
 24 46  1  0
 25 47  1  0
 26 48  1  0
M  END
>  <smiles>  (7) 
O=C(NCC(=O)N1CCCC1c1cccc(F)c1)c1ccc2ccccc2n1

>  <score_type>  (7) 
oracle

>  <origin>  (7) 
autodockgpu

>  <m_score__min__energy>  (7) 
-8.8399999999999999

>  <m_primary>  (7) 
energy

>  <rmsd>  (7) 
1.6745366619495772

>  <m_score__min__rmsd>  (7) 
1.6745366619495772

>  <meeko>  (7) 
{"free_energy": -8.72, "intermolecular_energy": -10.21, "internal_energy": -1.82, "cluster_size": 38, "cluster_id": 1, "rank_in_cluster": 20}

>  <energy>  (7) 
-8.77

>  <cluster_rmsd>  (7) 
1.06

>  <cluster>  (7) 
1

$$$$

     RDKit          3D

 48 51  0  0  0  0  0  0  0  0999 V2000
  140.7680   71.4940  221.3690 O   0  0  0  0  0  0  0  0  0  0  0  0
  140.3210   72.0540  222.3950 C   0  0  0  0  0  0  0  0  0  0  0  0
  139.9410   73.4230  222.3220 N   0  0  0  0  0  0  0  0  0  0  0  0
  140.0500   74.1910  221.1140 C   0  0  0  0  0  0  0  0  0  0  0  0
  140.3390   75.6400  221.4100 C   0  0  0  0  0  0  0  0  0  0  0  0
  140.2790   75.9600  222.6170 O   0  0  0  0  0  0  0  0  0  0  0  0
  140.6420   76.4790  220.3340 N   0  0  0  0  0  0  0  0  0  0  0  0
  140.7540   76.0590  218.9050 C   0  0  0  0  0  0  0  0  0  0  0  0
  142.1600   76.5330  218.6210 C   0  0  0  0  0  0  0  0  0  0  0  0
  142.1830   77.8760  219.3660 C   0  0  0  0  0  0  0  0  0  0  0  0
  140.9410   77.8940  220.2290 C   0  0  2  0  0  0  0  0  0  0  0  0
  141.0140   78.6630  221.4430 C   0  0  0  0  0  0  0  0  0  0  0  0
  142.2150   79.1400  221.8950 C   0  0  0  0  0  0  0  0  0  0  0  0
  142.3140   79.9040  223.0630 C   0  0  0  0  0  0  0  0  0  0  0  0
  141.2060   80.2140  223.8230 C   0  0  0  0  0  0  0  0  0  0  0  0
  139.9940   79.7340  223.3730 C   0  0  0  0  0  0  0  0  0  0  0  0
  138.8790   80.0200  224.0970 F   0  0  0  0  0  0  0  0  0  0  0  0
  139.8960   78.9840  222.2240 C   0  0  0  0  0  0  0  0  0  0  0  0
  140.1800   71.3300  223.6760 C   0  0  0  0  0  0  0  0  0  0  0  0
  139.5610   70.0970  223.6760 C   0  0  0  0  0  0  0  0  0  0  0  0
  139.4060   69.3840  224.8450 C   0  0  0  0  0  0  0  0  0  0  0  0
  139.9090   69.9880  226.0020 C   0  0  0  0  0  0  0  0  0  0  0  0
  139.7730   69.3060  227.1990 C   0  0  0  0  0  0  0  0  0  0  0  0
  140.2800   69.9250  228.3410 C   0  0  0  0  0  0  0  0  0  0  0  0
  140.8880   71.1530  228.2960 C   0  0  0  0  0  0  0  0  0  0  0  0
  141.0200   71.8310  227.0930 C   0  0  0  0  0  0  0  0  0  0  0  0
  140.5180   71.2150  225.9700 C   0  0  0  0  0  0  0  0  0  0  0  0
  140.6440   71.8690  224.8020 N   0  0  0  0  0  0  0  0  0  0  0  0
  139.5680   73.8540  223.2190 H   0  0  0  0  0  0  0  0  0  0  0  0
  140.8662   73.7809  220.5012 H   0  0  0  0  0  0  0  0  0  0  0  0
  139.0919   74.1310  220.5770 H   0  0  0  0  0  0  0  0  0  0  0  0
  140.6557   74.9697  218.7876 H   0  0  0  0  0  0  0  0  0  0  0  0
  139.9786   76.4590  218.2351 H   0  0  0  0  0  0  0  0  0  0  0  0
  142.9089   75.8359  219.0249 H   0  0  0  0  0  0  0  0  0  0  0  0
  142.4017   76.6082  217.5505 H   0  0  0  0  0  0  0  0  0  0  0  0
  143.0846   77.9508  219.9917 H   0  0  0  0  0  0  0  0  0  0  0  0
  142.2006   78.7249  218.6667 H   0  0  0  0  0  0  0  0  0  0  0  0
  140.1054   78.4630  219.7953 H   0  0  0  0  0  0  0  0  0  0  0  0
  143.1280   78.9163  221.3238 H   0  0  0  0  0  0  0  0  0  0  0  0
  143.3017   80.2669  223.3834 H   0  0  0  0  0  0  0  0  0  0  0  0
  141.2848   80.8138  224.7417 H   0  0  0  0  0  0  0  0  0  0  0  0
  138.9059   78.6240  221.9076 H   0  0  0  0  0  0  0  0  0  0  0  0
  139.1864   69.6776  222.7306 H   0  0  0  0  0  0  0  0  0  0  0  0
  138.9163   68.3993  224.8669 H   0  0  0  0  0  0  0  0  0  0  0  0
  139.2870   68.3204  227.2471 H   0  0  0  0  0  0  0  0  0  0  0  0
  140.1892   69.4114  229.3095 H   0  0  0  0  0  0  0  0  0  0  0  0
  141.2744   71.6045  229.2217 H   0  0  0  0  0  0  0  0  0  0  0  0
  141.5044   72.8171  227.0394 H   0  0  0  0  0  0  0  0  0  0  0  0
  1  2  2  0
  2  3  1  0
  3  4  1  0
  4  5  1  0
  5  6  2  0
  5  7  1  0
  7  8  1  0
  8  9  1  0
  9 10  1  0
 10 11  1  0
 11 12  1  0
 12 13  2  0
 13 14  1  0
 14 15  2  0
 15 16  1  0
 16 17  1  0
 16 18  2  0
  2 19  1  0
 19 20  2  0
 20 21  1  0
 21 22  2  0
 22 23  1  0
 23 24  2  0
 24 25  1  0
 25 26  2  0
 26 27  1  0
 27 28  2  0
 11  7  1  0
 18 12  1  0
 28 19  1  0
 27 22  1  0
  3 29  1  0
  4 30  1  0
  4 31  1  0
  8 32  1  0
  8 33  1  0
  9 34  1  0
  9 35  1  0
 10 36  1  0
 10 37  1  0
 11 38  1  6
 13 39  1  0
 14 40  1  0
 15 41  1  0
 18 42  1  0
 20 43  1  0
 21 44  1  0
 23 45  1  0
 24 46  1  0
 25 47  1  0
 26 48  1  0
M  END
>  <smiles>  (8) 
O=C(NCC(=O)N1CCCC1c1cccc(F)c1)c1ccc2ccccc2n1

>  <score_type>  (8) 
oracle

>  <origin>  (8) 
autodockgpu

>  <m_score__min__energy>  (8) 
-8.8399999999999999

>  <m_primary>  (8) 
energy

>  <rmsd>  (8) 
1.7084856599142835

>  <m_score__min__rmsd>  (8) 
1.7084856599142835

>  <meeko>  (8) 
{"free_energy": -8.76, "intermolecular_energy": -10.25, "internal_energy": -1.77, "cluster_size": 38, "cluster_id": 1, "rank_in_cluster": 8}

>  <energy>  (8) 
-8.76

>  <cluster_rmsd>  (8) 
0.58

>  <cluster>  (8) 
1

$$$$

     RDKit          3D

 48 51  0  0  0  0  0  0  0  0999 V2000
  140.7600   71.3660  221.3530 O   0  0  0  0  0  0  0  0  0  0  0  0
  140.3340   71.9410  222.3800 C   0  0  0  0  0  0  0  0  0  0  0  0
  139.9640   73.3130  222.2960 N   0  0  0  0  0  0  0  0  0  0  0  0
  140.0600   74.0660  221.0780 C   0  0  0  0  0  0  0  0  0  0  0  0
  140.2270   75.5370  221.3550 C   0  0  0  0  0  0  0  0  0  0  0  0
  139.9900   75.8900  222.5310 O   0  0  0  0  0  0  0  0  0  0  0  0
  140.6240   76.3610  220.2980 N   0  0  0  0  0  0  0  0  0  0  0  0
  140.8000   75.9320  218.8780 C   0  0  0  0  0  0  0  0  0  0  0  0
  142.2390   76.3510  218.6740 C   0  0  0  0  0  0  0  0  0  0  0  0
  142.2710   77.6930  219.4180 C   0  0  0  0  0  0  0  0  0  0  0  0
  140.9830   77.7630  220.2090 C   0  0  2  0  0  0  0  0  0  0  0  0
  141.0160   78.5320  221.4240 C   0  0  0  0  0  0  0  0  0  0  0  0
  139.8670   78.7740  222.1280 C   0  0  0  0  0  0  0  0  0  0  0  0
  139.8710   79.5040  223.3210 C   0  0  0  0  0  0  0  0  0  0  0  0
  141.0350   80.0220  223.8510 C   0  0  0  0  0  0  0  0  0  0  0  0
  142.1940   79.7820  223.1450 C   0  0  0  0  0  0  0  0  0  0  0  0
  143.3620   80.2770  223.6370 F   0  0  0  0  0  0  0  0  0  0  0  0
  142.1910   79.0630  221.9720 C   0  0  0  0  0  0  0  0  0  0  0  0
  140.2070   71.2340  223.6710 C   0  0  0  0  0  0  0  0  0  0  0  0
  139.5950   69.9980  223.6920 C   0  0  0  0  0  0  0  0  0  0  0  0
  139.4540   69.3000  224.8720 C   0  0  0  0  0  0  0  0  0  0  0  0
  139.9630   69.9210  226.0160 C   0  0  0  0  0  0  0  0  0  0  0  0
  139.8410   69.2540  227.2240 C   0  0  0  0  0  0  0  0  0  0  0  0
  140.3550   69.8900  228.3530 C   0  0  0  0  0  0  0  0  0  0  0  0
  140.9550   71.1210  228.2860 C   0  0  0  0  0  0  0  0  0  0  0  0
  141.0740   71.7840  227.0740 C   0  0  0  0  0  0  0  0  0  0  0  0
  140.5660   71.1500  225.9640 C   0  0  0  0  0  0  0  0  0  0  0  0
  140.6780   71.7900  224.7860 N   0  0  0  0  0  0  0  0  0  0  0  0
  139.6090   73.7570  223.1940 H   0  0  0  0  0  0  0  0  0  0  0  0
  140.9275   73.7089  220.5035 H   0  0  0  0  0  0  0  0  0  0  0  0
  139.1300   73.9237  220.5080 H   0  0  0  0  0  0  0  0  0  0  0  0
  140.6663   74.8469  218.7565 H   0  0  0  0  0  0  0  0  0  0  0  0
  140.0798   76.3591  218.1646 H   0  0  0  0  0  0  0  0  0  0  0  0
  142.9363   75.6267  219.1203 H   0  0  0  0  0  0  0  0  0  0  0  0
  142.5442   76.4139  217.6191 H   0  0  0  0  0  0  0  0  0  0  0  0
  143.1375   77.7343  220.0944 H   0  0  0  0  0  0  0  0  0  0  0  0
  142.3612   78.5383  218.7199 H   0  0  0  0  0  0  0  0  0  0  0  0
  140.1968   78.3634  219.7280 H   0  0  0  0  0  0  0  0  0  0  0  0
  138.9131   78.3830  221.7443 H   0  0  0  0  0  0  0  0  0  0  0  0
  138.9213   79.6696  223.8507 H   0  0  0  0  0  0  0  0  0  0  0  0
  141.0377   80.5969  224.7888 H   0  0  0  0  0  0  0  0  0  0  0  0
  143.1435   78.8995  221.4466 H   0  0  0  0  0  0  0  0  0  0  0  0
  139.2148   69.5641  222.7554 H   0  0  0  0  0  0  0  0  0  0  0  0
  138.9698   68.3131  224.9111 H   0  0  0  0  0  0  0  0  0  0  0  0
  139.3601   68.2668  227.2894 H   0  0  0  0  0  0  0  0  0  0  0  0
  140.2767   69.3882  229.3288 H   0  0  0  0  0  0  0  0  0  0  0  0
  141.3457   71.5871  229.2025 H   0  0  0  0  0  0  0  0  0  0  0  0
  141.5528   72.7718  227.0034 H   0  0  0  0  0  0  0  0  0  0  0  0
  1  2  2  0
  2  3  1  0
  3  4  1  0
  4  5  1  0
  5  6  2  0
  5  7  1  0
  7  8  1  0
  8  9  1  0
  9 10  1  0
 10 11  1  0
 11 12  1  0
 12 13  2  0
 13 14  1  0
 14 15  2  0
 15 16  1  0
 16 17  1  0
 16 18  2  0
  2 19  1  0
 19 20  2  0
 20 21  1  0
 21 22  2  0
 22 23  1  0
 23 24  2  0
 24 25  1  0
 25 26  2  0
 26 27  1  0
 27 28  2  0
 11  7  1  0
 18 12  1  0
 28 19  1  0
 27 22  1  0
  3 29  1  0
  4 30  1  0
  4 31  1  0
  8 32  1  0
  8 33  1  0
  9 34  1  0
  9 35  1  0
 10 36  1  0
 10 37  1  0
 11 38  1  6
 13 39  1  0
 14 40  1  0
 15 41  1  0
 18 42  1  0
 20 43  1  0
 21 44  1  0
 23 45  1  0
 24 46  1  0
 25 47  1  0
 26 48  1  0
M  END
>  <smiles>  (9) 
O=C(NCC(=O)N1CCCC1c1cccc(F)c1)c1ccc2ccccc2n1

>  <score_type>  (9) 
oracle

>  <origin>  (9) 
autodockgpu

>  <m_score__min__energy>  (9) 
-8.8399999999999999

>  <m_primary>  (9) 
energy

>  <rmsd>  (9) 
1.6917546876815142

>  <m_score__min__rmsd>  (9) 
1.6917546876815142

>  <meeko>  (9) 
{"free_energy": -8.78, "intermolecular_energy": -10.28, "internal_energy": -1.77, "cluster_size": 38, "cluster_id": 1, "rank_in_cluster": 4}

>  <energy>  (9) 
-8.75

>  <cluster_rmsd>  (9) 
1.08

>  <cluster>  (9) 
1

$$$$

     RDKit          3D

 48 51  0  0  0  0  0  0  0  0999 V2000
  139.8330   70.9050  221.3970 O   0  0  0  0  0  0  0  0  0  0  0  0
  139.8420   71.5010  222.4980 C   0  0  0  0  0  0  0  0  0  0  0  0
  139.8060   72.9230  222.5090 N   0  0  0  0  0  0  0  0  0  0  0  0
  139.7620   73.7060  221.3060 C   0  0  0  0  0  0  0  0  0  0  0  0
  140.0800   75.1520  221.5800 C   0  0  0  0  0  0  0  0  0  0  0  0
  139.7210   75.5750  222.7000 O   0  0  0  0  0  0  0  0  0  0  0  0
  140.7350   75.8780  220.5810 N   0  0  0  0  0  0  0  0  0  0  0  0
  141.2190   75.3280  219.2790 C   0  0  0  0  0  0  0  0  0  0  0  0
  142.6780   75.7100  219.3820 C   0  0  0  0  0  0  0  0  0  0  0  0
  142.5810   77.1110  220.0030 C   0  0  0  0  0  0  0  0  0  0  0  0
  141.1490   77.2630  220.4660 C   0  0  2  0  0  0  0  0  0  0  0  0
  140.9260   78.1320  221.5910 C   0  0  0  0  0  0  0  0  0  0  0  0
  139.6550   78.3930  222.0300 C   0  0  0  0  0  0  0  0  0  0  0  0
  139.4090   79.2200  223.1310 C   0  0  0  0  0  0  0  0  0  0  0  0
  140.4350   79.8190  223.8320 C   0  0  0  0  0  0  0  0  0  0  0  0
  141.7160   79.5600  223.3930 C   0  0  0  0  0  0  0  0  0  0  0  0
  142.7530   80.1340  224.0600 F   0  0  0  0  0  0  0  0  0  0  0  0
  141.9590   78.7460  222.3120 C   0  0  0  0  0  0  0  0  0  0  0  0
  139.8880   70.7670  223.7790 C   0  0  0  0  0  0  0  0  0  0  0  0
  139.4370   69.4630  223.8130 C   0  0  0  0  0  0  0  0  0  0  0  0
  139.4590   68.7380  224.9850 C   0  0  0  0  0  0  0  0  0  0  0  0
  139.9600   69.4040  226.1070 C   0  0  0  0  0  0  0  0  0  0  0  0
  140.0010   68.7110  227.3060 C   0  0  0  0  0  0  0  0  0  0  0  0
  140.5030   69.3920  228.4130 C   0  0  0  0  0  0  0  0  0  0  0  0
  140.9410   70.6890  228.3350 C   0  0  0  0  0  0  0  0  0  0  0  0
  140.8980   71.3770  227.1320 C   0  0  0  0  0  0  0  0  0  0  0  0
  140.4010   70.6990  226.0420 C   0  0  0  0  0  0  0  0  0  0  0  0
  140.3570   71.3630  224.8730 N   0  0  0  0  0  0  0  0  0  0  0  0
  139.8160   73.3840  223.4670 H   0  0  0  0  0  0  0  0  0  0  0  0
  140.4975   73.3068  220.5920 H   0  0  0  0  0  0  0  0  0  0  0  0
  138.7446   73.6476  220.8919 H   0  0  0  0  0  0  0  0  0  0  0  0
  141.0823   74.2383  219.2163 H   0  0  0  0  0  0  0  0  0  0  0  0
  140.6962   75.7020  218.3864 H   0  0  0  0  0  0  0  0  0  0  0  0
  143.2300   75.0178  220.0348 H   0  0  0  0  0  0  0  0  0  0  0  0
  143.2198   75.6787  218.4252 H   0  0  0  0  0  0  0  0  0  0  0  0
  143.2700   77.1997  220.8559 H   0  0  0  0  0  0  0  0  0  0  0  0
  142.8558   77.8926  219.2794 H   0  0  0  0  0  0  0  0  0  0  0  0
  140.5137   77.8298  219.7695 H   0  0  0  0  0  0  0  0  0  0  0  0
  138.8035   77.9393  221.5017 H   0  0  0  0  0  0  0  0  0  0  0  0
  138.3701   79.3973  223.4461 H   0  0  0  0  0  0  0  0  0  0  0  0
  140.2410   80.4701  224.6971 H   0  0  0  0  0  0  0  0  0  0  0  0
  142.9999   78.5707  222.0024 H   0  0  0  0  0  0  0  0  0  0  0  0
  139.0551   68.9964  222.8930 H   0  0  0  0  0  0  0  0  0  0  0  0
  139.1037   67.6981  225.0343 H   0  0  0  0  0  0  0  0  0  0  0  0
  139.6530   67.6702  227.3806 H   0  0  0  0  0  0  0  0  0  0  0  0
  140.5495   68.8721  229.3813 H   0  0  0  0  0  0  0  0  0  0  0  0
  141.3299   71.1881  229.2348 H   0  0  0  0  0  0  0  0  0  0  0  0
  141.2454   72.4177  227.0522 H   0  0  0  0  0  0  0  0  0  0  0  0
  1  2  2  0
  2  3  1  0
  3  4  1  0
  4  5  1  0
  5  6  2  0
  5  7  1  0
  7  8  1  0
  8  9  1  0
  9 10  1  0
 10 11  1  0
 11 12  1  0
 12 13  2  0
 13 14  1  0
 14 15  2  0
 15 16  1  0
 16 17  1  0
 16 18  2  0
  2 19  1  0
 19 20  2  0
 20 21  1  0
 21 22  2  0
 22 23  1  0
 23 24  2  0
 24 25  1  0
 25 26  2  0
 26 27  1  0
 27 28  2  0
 11  7  1  0
 18 12  1  0
 28 19  1  0
 27 22  1  0
  3 29  1  0
  4 30  1  0
  4 31  1  0
  8 32  1  0
  8 33  1  0
  9 34  1  0
  9 35  1  0
 10 36  1  0
 10 37  1  0
 11 38  1  6
 13 39  1  0
 14 40  1  0
 15 41  1  0
 18 42  1  0
 20 43  1  0
 21 44  1  0
 23 45  1  0
 24 46  1  0
 25 47  1  0
 26 48  1  0
M  END
>  <smiles>  (10) 
O=C(NCC(=O)N1CCCC1c1cccc(F)c1)c1ccc2ccccc2n1

>  <score_type>  (10) 
oracle

>  <origin>  (10) 
autodockgpu

>  <m_score__min__energy>  (10) 
-8.8399999999999999

>  <m_primary>  (10) 
energy

>  <rmsd>  (10) 
1.7029694431855298

>  <m_score__min__rmsd>  (10) 
1.7029694431855298

>  <meeko>  (10) 
{"free_energy": -8.56, "intermolecular_energy": -10.05, "internal_energy": -1.85, "cluster_size": 38, "cluster_id": 1, "rank_in_cluster": 36}

>  <energy>  (10) 
-8.75

>  <cluster_rmsd>  (10) 
1.71

>  <cluster>  (10) 
1

$$$$

     RDKit          3D

 48 51  0  0  0  0  0  0  0  0999 V2000
  141.0010   71.4310  221.4240 O   0  0  0  0  0  0  0  0  0  0  0  0
  140.4550   72.0060  222.3920 C   0  0  0  0  0  0  0  0  0  0  0  0
  140.0660   73.3680  222.2540 N   0  0  0  0  0  0  0  0  0  0  0  0
  140.2770   74.1120  221.0440 C   0  0  0  0  0  0  0  0  0  0  0  0
  140.1260   75.5920  221.2790 C   0  0  0  0  0  0  0  0  0  0  0  0
  139.6710   75.9120  222.3980 O   0  0  0  0  0  0  0  0  0  0  0  0
  140.5000   76.4590  220.2480 N   0  0  0  0  0  0  0  0  0  0  0  0
  140.6060   76.0990  218.8020 C   0  0  0  0  0  0  0  0  0  0  0  0
  142.0450   76.4930  218.5580 C   0  0  0  0  0  0  0  0  0  0  0  0
  142.1430   77.7950  219.3660 C   0  0  0  0  0  0  0  0  0  0  0  0
  140.8910   77.8540  220.2130 C   0  0  2  0  0  0  0  0  0  0  0  0
  140.9950   78.5600  221.4630 C   0  0  0  0  0  0  0  0  0  0  0  0
  142.2100   78.9970  221.9180 C   0  0  0  0  0  0  0  0  0  0  0  0
  142.3400   79.6990  223.1210 C   0  0  0  0  0  0  0  0  0  0  0  0
  141.2490   79.9860  223.9150 C   0  0  0  0  0  0  0  0  0  0  0  0
  140.0230   79.5460  223.4610 C   0  0  0  0  0  0  0  0  0  0  0  0
  138.9240   79.8100  224.2180 F   0  0  0  0  0  0  0  0  0  0  0  0
  139.8950   78.8570  222.2780 C   0  0  0  0  0  0  0  0  0  0  0  0
  140.2040   71.3070  223.6700 C   0  0  0  0  0  0  0  0  0  0  0  0
  139.5240   70.1070  223.6480 C   0  0  0  0  0  0  0  0  0  0  0  0
  139.2660   69.4190  224.8140 C   0  0  0  0  0  0  0  0  0  0  0  0
  139.7340   70.0120  225.9900 C   0  0  0  0  0  0  0  0  0  0  0  0
  139.4960   69.3530  227.1850 C   0  0  0  0  0  0  0  0  0  0  0  0
  139.9700   69.9600  228.3470 C   0  0  0  0  0  0  0  0  0  0  0  0
  140.6420   71.1550  228.3240 C   0  0  0  0  0  0  0  0  0  0  0  0
  140.8770   71.8090  227.1240 C   0  0  0  0  0  0  0  0  0  0  0  0
  140.4070   71.2050  225.9810 C   0  0  0  0  0  0  0  0  0  0  0  0
  140.6320   71.8360  224.8150 N   0  0  0  0  0  0  0  0  0  0  0  0
  139.6070   73.8120  223.1030 H   0  0  0  0  0  0  0  0  0  0  0  0
  141.2920   73.9100  220.6714 H   0  0  0  0  0  0  0  0  0  0  0  0
  139.5227   73.7984  220.3073 H   0  0  0  0  0  0  0  0  0  0  0  0
  140.4391   75.0251  218.6322 H   0  0  0  0  0  0  0  0  0  0  0  0
  139.8683   76.5792  218.1423 H   0  0  0  0  0  0  0  0  0  0  0  0
  142.7410   75.7304  218.9376 H   0  0  0  0  0  0  0  0  0  0  0  0
  142.3077   76.6020  217.4954 H   0  0  0  0  0  0  0  0  0  0  0  0
  143.0375   77.7814  220.0061 H   0  0  0  0  0  0  0  0  0  0  0  0
  142.2267   78.6726  218.7082 H   0  0  0  0  0  0  0  0  0  0  0  0
  140.1006   78.4952  219.7957 H   0  0  0  0  0  0  0  0  0  0  0  0
  143.1100   78.7902  221.3204 H   0  0  0  0  0  0  0  0  0  0  0  0
  143.3383   80.0309  223.4423 H   0  0  0  0  0  0  0  0  0  0  0  0
  141.3514   80.5373  224.8613 H   0  0  0  0  0  0  0  0  0  0  0  0
  138.8946   78.5277  221.9607 H   0  0  0  0  0  0  0  0  0  0  0  0
  139.1832   69.6938  222.6872 H   0  0  0  0  0  0  0  0  0  0  0  0
  138.7247   68.4614  224.8188 H   0  0  0  0  0  0  0  0  0  0  0  0
  138.9575   68.3943  227.2156 H   0  0  0  0  0  0  0  0  0  0  0  0
  139.7993   69.4641  229.3139 H   0  0  0  0  0  0  0  0  0  0  0  0
  140.9977   71.5987  229.2656 H   0  0  0  0  0  0  0  0  0  0  0  0
  141.4151   72.7677  227.0877 H   0  0  0  0  0  0  0  0  0  0  0  0
  1  2  2  0
  2  3  1  0
  3  4  1  0
  4  5  1  0
  5  6  2  0
  5  7  1  0
  7  8  1  0
  8  9  1  0
  9 10  1  0
 10 11  1  0
 11 12  1  0
 12 13  2  0
 13 14  1  0
 14 15  2  0
 15 16  1  0
 16 17  1  0
 16 18  2  0
  2 19  1  0
 19 20  2  0
 20 21  1  0
 21 22  2  0
 22 23  1  0
 23 24  2  0
 24 25  1  0
 25 26  2  0
 26 27  1  0
 27 28  2  0
 11  7  1  0
 18 12  1  0
 28 19  1  0
 27 22  1  0
  3 29  1  0
  4 30  1  0
  4 31  1  0
  8 32  1  0
  8 33  1  0
  9 34  1  0
  9 35  1  0
 10 36  1  0
 10 37  1  0
 11 38  1  6
 13 39  1  0
 14 40  1  0
 15 41  1  0
 18 42  1  0
 20 43  1  0
 21 44  1  0
 23 45  1  0
 24 46  1  0
 25 47  1  0
 26 48  1  0
M  END
>  <smiles>  (11) 
O=C(NCC(=O)N1CCCC1c1cccc(F)c1)c1ccc2ccccc2n1

>  <score_type>  (11) 
oracle

>  <origin>  (11) 
autodockgpu

>  <m_score__min__energy>  (11) 
-8.8399999999999999

>  <m_primary>  (11) 
energy

>  <rmsd>  (11) 
1.7391458631446195

>  <m_score__min__rmsd>  (11) 
1.7391458631446195

>  <meeko>  (11) 
{"free_energy": -8.62, "intermolecular_energy": -10.11, "internal_energy": -1.81, "cluster_size": 38, "cluster_id": 1, "rank_in_cluster": 34}

>  <energy>  (11) 
-8.74

>  <cluster_rmsd>  (11) 
0.54

>  <cluster>  (11) 
1

$$$$

     RDKit          3D

 48 51  0  0  0  0  0  0  0  0999 V2000
  141.0200   71.4300  221.4020 O   0  0  0  0  0  0  0  0  0  0  0  0
  140.4900   72.0020  222.3820 C   0  0  0  0  0  0  0  0  0  0  0  0
  140.0950   73.3630  222.2530 N   0  0  0  0  0  0  0  0  0  0  0  0
  140.2800   74.1100  221.0410 C   0  0  0  0  0  0  0  0  0  0  0  0
  140.1760   75.5910  221.2890 C   0  0  0  0  0  0  0  0  0  0  0  0
  139.7610   75.9160  222.4220 O   0  0  0  0  0  0  0  0  0  0  0  0
  140.5450   76.4550  220.2540 N   0  0  0  0  0  0  0  0  0  0  0  0
  140.6550   76.0890  218.8090 C   0  0  0  0  0  0  0  0  0  0  0  0
  142.0910   76.4900  218.5640 C   0  0  0  0  0  0  0  0  0  0  0  0
  142.1810   77.7960  219.3650 C   0  0  0  0  0  0  0  0  0  0  0  0
  140.9280   77.8530  220.2120 C   0  0  2  0  0  0  0  0  0  0  0  0
  141.0270   78.5650  221.4580 C   0  0  0  0  0  0  0  0  0  0  0  0
  142.2390   79.0160  221.9090 C   0  0  0  0  0  0  0  0  0  0  0  0
  142.3630   79.7260  223.1090 C   0  0  0  0  0  0  0  0  0  0  0  0
  141.2700   80.0060  223.9030 C   0  0  0  0  0  0  0  0  0  0  0  0
  140.0480   79.5510  223.4530 C   0  0  0  0  0  0  0  0  0  0  0  0
  138.9480   79.8080  224.2100 F   0  0  0  0  0  0  0  0  0  0  0  0
  139.9250   78.8550  222.2740 C   0  0  0  0  0  0  0  0  0  0  0  0
  140.2670   71.3010  223.6630 C   0  0  0  0  0  0  0  0  0  0  0  0
  139.6080   70.0890  223.6500 C   0  0  0  0  0  0  0  0  0  0  0  0
  139.3760   69.3980  224.8200 C   0  0  0  0  0  0  0  0  0  0  0  0
  139.8470   70.0000  225.9910 C   0  0  0  0  0  0  0  0  0  0  0  0
  139.6340   69.3390  227.1890 C   0  0  0  0  0  0  0  0  0  0  0  0
  140.1110   69.9560  228.3450 C   0  0  0  0  0  0  0  0  0  0  0  0
  140.7620   71.1620  228.3120 C   0  0  0  0  0  0  0  0  0  0  0  0
  140.9710   71.8190  227.1090 C   0  0  0  0  0  0  0  0  0  0  0  0
  140.4990   71.2050  225.9720 C   0  0  0  0  0  0  0  0  0  0  0  0
  140.6990   71.8390  224.8020 N   0  0  0  0  0  0  0  0  0  0  0  0
  139.6510   73.8050  223.1120 H   0  0  0  0  0  0  0  0  0  0  0  0
  141.2751   73.8847  220.6298 H   0  0  0  0  0  0  0  0  0  0  0  0
  139.4906   73.8209  220.3315 H   0  0  0  0  0  0  0  0  0  0  0  0
  140.4946   75.0133  218.6440 H   0  0  0  0  0  0  0  0  0  0  0  0
  139.9152   76.5622  218.1466 H   0  0  0  0  0  0  0  0  0  0  0  0
  142.7912   75.7334  218.9478 H   0  0  0  0  0  0  0  0  0  0  0  0
  142.3536   76.5952  217.5010 H   0  0  0  0  0  0  0  0  0  0  0  0
  143.0753   77.7907  220.0054 H   0  0  0  0  0  0  0  0  0  0  0  0
  142.2596   78.6705  218.7024 H   0  0  0  0  0  0  0  0  0  0  0  0
  140.1348   78.4884  219.7913 H   0  0  0  0  0  0  0  0  0  0  0  0
  143.1403   78.8146  221.3114 H   0  0  0  0  0  0  0  0  0  0  0  0
  143.3582   80.0698  223.4273 H   0  0  0  0  0  0  0  0  0  0  0  0
  141.3680   80.5633  224.8463 H   0  0  0  0  0  0  0  0  0  0  0  0
  138.9274   78.5139  221.9602 H   0  0  0  0  0  0  0  0  0  0  0  0
  139.2633   69.6687  222.6937 H   0  0  0  0  0  0  0  0  0  0  0  0
  138.8518   68.4310  224.8318 H   0  0  0  0  0  0  0  0  0  0  0  0
  139.1123   68.3713  227.2270 H   0  0  0  0  0  0  0  0  0  0  0  0
  139.9600   69.4590  229.3146 H   0  0  0  0  0  0  0  0  0  0  0  0
  141.1219   71.6127  229.2487 H   0  0  0  0  0  0  0  0  0  0  0  0
  141.4908   72.7875  227.0657 H   0  0  0  0  0  0  0  0  0  0  0  0
  1  2  2  0
  2  3  1  0
  3  4  1  0
  4  5  1  0
  5  6  2  0
  5  7  1  0
  7  8  1  0
  8  9  1  0
  9 10  1  0
 10 11  1  0
 11 12  1  0
 12 13  2  0
 13 14  1  0
 14 15  2  0
 15 16  1  0
 16 17  1  0
 16 18  2  0
  2 19  1  0
 19 20  2  0
 20 21  1  0
 21 22  2  0
 22 23  1  0
 23 24  2  0
 24 25  1  0
 25 26  2  0
 26 27  1  0
 27 28  2  0
 11  7  1  0
 18 12  1  0
 28 19  1  0
 27 22  1  0
  3 29  1  0
  4 30  1  0
  4 31  1  0
  8 32  1  0
  8 33  1  0
  9 34  1  0
  9 35  1  0
 10 36  1  0
 10 37  1  0
 11 38  1  6
 13 39  1  0
 14 40  1  0
 15 41  1  0
 18 42  1  0
 20 43  1  0
 21 44  1  0
 23 45  1  0
 24 46  1  0
 25 47  1  0
 26 48  1  0
M  END
>  <smiles>  (12) 
O=C(NCC(=O)N1CCCC1c1cccc(F)c1)c1ccc2ccccc2n1

>  <score_type>  (12) 
oracle

>  <origin>  (12) 
autodockgpu

>  <m_score__min__energy>  (12) 
-8.8399999999999999

>  <m_primary>  (12) 
energy

>  <rmsd>  (12) 
1.7460863683008354

>  <m_score__min__rmsd>  (12) 
1.7460863683008354

>  <meeko>  (12) 
{"free_energy": -8.66, "intermolecular_energy": -10.15, "internal_energy": -1.81, "cluster_size": 38, "cluster_id": 1, "rank_in_cluster": 31}

>  <energy>  (12) 
-8.74

>  <cluster_rmsd>  (12) 
1.04

>  <cluster>  (12) 
1

$$$$

     RDKit          3D

 48 51  0  0  0  0  0  0  0  0999 V2000
  140.7950   71.4320  221.3960 O   0  0  0  0  0  0  0  0  0  0  0  0
  140.3320   72.0130  222.4040 C   0  0  0  0  0  0  0  0  0  0  0  0
  139.9640   73.3840  222.3000 N   0  0  0  0  0  0  0  0  0  0  0  0
  140.1030   74.1310  221.0810 C   0  0  0  0  0  0  0  0  0  0  0  0
  140.2730   75.6020  221.3570 C   0  0  0  0  0  0  0  0  0  0  0  0
  140.1000   75.9460  222.5460 O   0  0  0  0  0  0  0  0  0  0  0  0
  140.6010   76.4340  220.2840 N   0  0  0  0  0  0  0  0  0  0  0  0
  140.7140   76.0120  218.8550 C   0  0  0  0  0  0  0  0  0  0  0  0
  142.1330   76.4570  218.5810 C   0  0  0  0  0  0  0  0  0  0  0  0
  142.1780   77.7980  219.3260 C   0  0  0  0  0  0  0  0  0  0  0  0
  140.9300   77.8430  220.1800 C   0  0  2  0  0  0  0  0  0  0  0  0
  141.0100   78.6100  221.3950 C   0  0  0  0  0  0  0  0  0  0  0  0
  139.8900   78.8450  222.1460 C   0  0  0  0  0  0  0  0  0  0  0  0
  139.9390   79.5740  223.3390 C   0  0  0  0  0  0  0  0  0  0  0  0
  141.1220   80.0960  223.8220 C   0  0  0  0  0  0  0  0  0  0  0  0
  142.2530   79.8620  223.0680 C   0  0  0  0  0  0  0  0  0  0  0  0
  143.4370   80.3620  223.5120 F   0  0  0  0  0  0  0  0  0  0  0  0
  142.2040   79.1460  221.8950 C   0  0  0  0  0  0  0  0  0  0  0  0
  140.1590   71.3120  223.6930 C   0  0  0  0  0  0  0  0  0  0  0  0
  139.5280   70.0860  223.7020 C   0  0  0  0  0  0  0  0  0  0  0  0
  139.3440   69.3940  224.8800 C   0  0  0  0  0  0  0  0  0  0  0  0
  139.8310   70.0120  226.0350 C   0  0  0  0  0  0  0  0  0  0  0  0
  139.6660   69.3510  227.2410 C   0  0  0  0  0  0  0  0  0  0  0  0
  140.1590   69.9840  228.3820 C   0  0  0  0  0  0  0  0  0  0  0  0
  140.7800   71.2050  228.3280 C   0  0  0  0  0  0  0  0  0  0  0  0
  140.9420   71.8620  227.1170 C   0  0  0  0  0  0  0  0  0  0  0  0
  140.4540   71.2320  225.9950 C   0  0  0  0  0  0  0  0  0  0  0  0
  140.6080   71.8650  224.8180 N   0  0  0  0  0  0  0  0  0  0  0  0
  139.5770   73.8330  223.1820 H   0  0  0  0  0  0  0  0  0  0  0  0
  140.9847   73.7646  220.5348 H   0  0  0  0  0  0  0  0  0  0  0  0
  139.1899   73.9931  220.4832 H   0  0  0  0  0  0  0  0  0  0  0  0
  140.5937   74.9251  218.7364 H   0  0  0  0  0  0  0  0  0  0  0  0
  139.9518   76.4283  218.1799 H   0  0  0  0  0  0  0  0  0  0  0  0
  142.8644   75.7445  218.9902 H   0  0  0  0  0  0  0  0  0  0  0  0
  142.3842   76.5272  217.5124 H   0  0  0  0  0  0  0  0  0  0  0  0
  143.0762   77.8538  219.9586 H   0  0  0  0  0  0  0  0  0  0  0  0
  142.2183   78.6461  218.6267 H   0  0  0  0  0  0  0  0  0  0  0  0
  140.1105   78.4298  219.7393 H   0  0  0  0  0  0  0  0  0  0  0  0
  138.9233   78.4491  221.8014 H   0  0  0  0  0  0  0  0  0  0  0  0
  139.0108   79.7354  223.9068 H   0  0  0  0  0  0  0  0  0  0  0  0
  141.1608   80.6692  224.7601 H   0  0  0  0  0  0  0  0  0  0  0  0
  143.1344   78.9886  221.3297 H   0  0  0  0  0  0  0  0  0  0  0  0
  139.1667   69.6545  222.7569 H   0  0  0  0  0  0  0  0  0  0  0  0
  138.8441   68.4146  224.9091 H   0  0  0  0  0  0  0  0  0  0  0  0
  139.1688   68.3714  227.2964 H   0  0  0  0  0  0  0  0  0  0  0  0
  140.0458   69.4873  229.3569 H   0  0  0  0  0  0  0  0  0  0  0  0
  141.1532   71.6680  229.2534 H   0  0  0  0  0  0  0  0  0  0  0  0
  141.4380   72.8420  227.0563 H   0  0  0  0  0  0  0  0  0  0  0  0
  1  2  2  0
  2  3  1  0
  3  4  1  0
  4  5  1  0
  5  6  2  0
  5  7  1  0
  7  8  1  0
  8  9  1  0
  9 10  1  0
 10 11  1  0
 11 12  1  0
 12 13  2  0
 13 14  1  0
 14 15  2  0
 15 16  1  0
 16 17  1  0
 16 18  2  0
  2 19  1  0
 19 20  2  0
 20 21  1  0
 21 22  2  0
 22 23  1  0
 23 24  2  0
 24 25  1  0
 25 26  2  0
 26 27  1  0
 27 28  2  0
 11  7  1  0
 18 12  1  0
 28 19  1  0
 27 22  1  0
  3 29  1  0
  4 30  1  0
  4 31  1  0
  8 32  1  0
  8 33  1  0
  9 34  1  0
  9 35  1  0
 10 36  1  0
 10 37  1  0
 11 38  1  6
 13 39  1  0
 14 40  1  0
 15 41  1  0
 18 42  1  0
 20 43  1  0
 21 44  1  0
 23 45  1  0
 24 46  1  0
 25 47  1  0
 26 48  1  0
M  END
>  <smiles>  (13) 
O=C(NCC(=O)N1CCCC1c1cccc(F)c1)c1ccc2ccccc2n1

>  <score_type>  (13) 
oracle

>  <origin>  (13) 
autodockgpu

>  <m_score__min__energy>  (13) 
-8.8399999999999999

>  <m_primary>  (13) 
energy

>  <rmsd>  (13) 
1.7021564532956242

>  <m_score__min__rmsd>  (13) 
1.7021564532956242

>  <meeko>  (13) 
{"free_energy": -8.75, "intermolecular_energy": -10.24, "internal_energy": -1.77, "cluster_size": 38, "cluster_id": 1, "rank_in_cluster": 9}

>  <energy>  (13) 
-8.74

>  <cluster_rmsd>  (13) 
1.09

>  <cluster>  (13) 
1

$$$$

     RDKit          3D

 48 51  0  0  0  0  0  0  0  0999 V2000
  140.4750   71.3610  221.3380 O   0  0  0  0  0  0  0  0  0  0  0  0
  140.1580   71.9390  222.4030 C   0  0  0  0  0  0  0  0  0  0  0  0
  139.8490   73.3270  222.3650 N   0  0  0  0  0  0  0  0  0  0  0  0
  139.8850   74.0950  221.1520 C   0  0  0  0  0  0  0  0  0  0  0  0
  140.1440   75.5520  221.4330 C   0  0  0  0  0  0  0  0  0  0  0  0
  139.9620   75.9080  222.6170 O   0  0  0  0  0  0  0  0  0  0  0  0
  140.5570   76.3590  220.3700 N   0  0  0  0  0  0  0  0  0  0  0  0
  140.7160   75.9190  218.9510 C   0  0  0  0  0  0  0  0  0  0  0  0
  142.1630   76.2990  218.7380 C   0  0  0  0  0  0  0  0  0  0  0  0
  142.2340   77.6440  219.4750 C   0  0  0  0  0  0  0  0  0  0  0  0
  140.9520   77.7510  220.2710 C   0  0  2  0  0  0  0  0  0  0  0  0
  141.0110   78.5250  221.4830 C   0  0  0  0  0  0  0  0  0  0  0  0
  142.2080   78.9990  221.9490 C   0  0  0  0  0  0  0  0  0  0  0  0
  142.2940   79.7680  223.1150 C   0  0  0  0  0  0  0  0  0  0  0  0
  141.1760   80.0870  223.8580 C   0  0  0  0  0  0  0  0  0  0  0  0
  139.9690   79.6100  223.3930 C   0  0  0  0  0  0  0  0  0  0  0  0
  138.8450   79.9050  224.0990 F   0  0  0  0  0  0  0  0  0  0  0  0
  139.8840   78.8550  222.2460 C   0  0  0  0  0  0  0  0  0  0  0  0
  140.0990   71.2180  223.6910 C   0  0  0  0  0  0  0  0  0  0  0  0
  139.5590   69.9490  223.7160 C   0  0  0  0  0  0  0  0  0  0  0  0
  139.4820   69.2370  224.8940 C   0  0  0  0  0  0  0  0  0  0  0  0
  139.9790   69.8790  226.0310 C   0  0  0  0  0  0  0  0  0  0  0  0
  139.9210   69.1990  227.2370 C   0  0  0  0  0  0  0  0  0  0  0  0
  140.4210   69.8560  228.3590 C   0  0  0  0  0  0  0  0  0  0  0  0
  140.9500   71.1200  228.2890 C   0  0  0  0  0  0  0  0  0  0  0  0
  141.0050   71.7960  227.0790 C   0  0  0  0  0  0  0  0  0  0  0  0
  140.5100   71.1410  225.9750 C   0  0  0  0  0  0  0  0  0  0  0  0
  140.5610   71.7930  224.7990 N   0  0  0  0  0  0  0  0  0  0  0  0
  139.5870   73.7740  223.2940 H   0  0  0  0  0  0  0  0  0  0  0  0
  140.6863   73.7069  220.5060 H   0  0  0  0  0  0  0  0  0  0  0  0
  138.9072   74.0060  220.6561 H   0  0  0  0  0  0  0  0  0  0  0  0
  140.5537   74.8372  218.8353 H   0  0  0  0  0  0  0  0  0  0  0  0
  140.0040   76.3617  218.2390 H   0  0  0  0  0  0  0  0  0  0  0  0
  142.8434   75.5590  219.1846 H   0  0  0  0  0  0  0  0  0  0  0  0
  142.4643   76.3486  217.6812 H   0  0  0  0  0  0  0  0  0  0  0  0
  143.1044   77.6660  220.1473 H   0  0  0  0  0  0  0  0  0  0  0  0
  142.3435   78.4833  218.7725 H   0  0  0  0  0  0  0  0  0  0  0  0
  140.1797   78.3687  219.7894 H   0  0  0  0  0  0  0  0  0  0  0  0
  143.1278   78.7689  221.3913 H   0  0  0  0  0  0  0  0  0  0  0  0
  143.2788   80.1276  223.4479 H   0  0  0  0  0  0  0  0  0  0  0  0
  141.2443   80.6912  224.7747 H   0  0  0  0  0  0  0  0  0  0  0  0
  138.8968   78.4983  221.9169 H   0  0  0  0  0  0  0  0  0  0  0  0
  139.1851   69.4994  222.7843 H   0  0  0  0  0  0  0  0  0  0  0  0
  139.0549   68.2242  224.9362 H   0  0  0  0  0  0  0  0  0  0  0  0
  139.4989   68.1855  227.3053 H   0  0  0  0  0  0  0  0  0  0  0  0
  140.3907   69.3449  229.3326 H   0  0  0  0  0  0  0  0  0  0  0  0
  141.3339   71.6016  229.2004 H   0  0  0  0  0  0  0  0  0  0  0  0
  141.4254   72.8098  227.0055 H   0  0  0  0  0  0  0  0  0  0  0  0
  1  2  2  0
  2  3  1  0
  3  4  1  0
  4  5  1  0
  5  6  2  0
  5  7  1  0
  7  8  1  0
  8  9  1  0
  9 10  1  0
 10 11  1  0
 11 12  1  0
 12 13  2  0
 13 14  1  0
 14 15  2  0
 15 16  1  0
 16 17  1  0
 16 18  2  0
  2 19  1  0
 19 20  2  0
 20 21  1  0
 21 22  2  0
 22 23  1  0
 23 24  2  0
 24 25  1  0
 25 26  2  0
 26 27  1  0
 27 28  2  0
 11  7  1  0
 18 12  1  0
 28 19  1  0
 27 22  1  0
  3 29  1  0
  4 30  1  0
  4 31  1  0
  8 32  1  0
  8 33  1  0
  9 34  1  0
  9 35  1  0
 10 36  1  0
 10 37  1  0
 11 38  1  6
 13 39  1  0
 14 40  1  0
 15 41  1  0
 18 42  1  0
 20 43  1  0
 21 44  1  0
 23 45  1  0
 24 46  1  0
 25 47  1  0
 26 48  1  0
M  END
>  <smiles>  (14) 
O=C(NCC(=O)N1CCCC1c1cccc(F)c1)c1ccc2ccccc2n1

>  <score_type>  (14) 
oracle

>  <origin>  (14) 
autodockgpu

>  <m_score__min__energy>  (14) 
-8.8399999999999999

>  <m_primary>  (14) 
energy

>  <rmsd>  (14) 
1.6377550491557502

>  <m_score__min__rmsd>  (14) 
1.6377550491557502

>  <meeko>  (14) 
{"free_energy": -8.73, "intermolecular_energy": -10.23, "internal_energy": -1.83, "cluster_size": 38, "cluster_id": 1, "rank_in_cluster": 16}

>  <energy>  (14) 
-8.74

>  <cluster_rmsd>  (14) 
0.57

>  <cluster>  (14) 
1

$$$$

     RDKit          3D

 48 51  0  0  0  0  0  0  0  0999 V2000
  140.6340   71.4010  221.3020 O   0  0  0  0  0  0  0  0  0  0  0  0
  140.2610   72.0020  222.3360 C   0  0  0  0  0  0  0  0  0  0  0  0
  139.9660   73.3920  222.2550 N   0  0  0  0  0  0  0  0  0  0  0  0
  140.0810   74.1360  221.0330 C   0  0  0  0  0  0  0  0  0  0  0  0
  140.6940   75.4910  221.2720 C   0  0  0  0  0  0  0  0  0  0  0  0
  140.5280   75.9580  222.4190 O   0  0  0  0  0  0  0  0  0  0  0  0
  141.3800   76.0940  220.2140 N   0  0  0  0  0  0  0  0  0  0  0  0
  140.9070   77.2730  219.4270 C   0  0  0  0  0  0  0  0  0  0  0  0
  140.9450   76.6710  218.0410 C   0  0  0  0  0  0  0  0  0  0  0  0
  142.2430   75.8530  218.1020 C   0  0  0  0  0  0  0  0  0  0  0  0
  142.6440   75.8170  219.5600 C   0  0  2  0  0  0  0  0  0  0  0  0
  143.3920   74.6660  219.9930 C   0  0  0  0  0  0  0  0  0  0  0  0
  142.8380   73.4150  219.9390 C   0  0  0  0  0  0  0  0  0  0  0  0
  143.5460   72.2750  220.3370 C   0  0  0  0  0  0  0  0  0  0  0  0
  144.8410   72.3540  220.8070 C   0  0  0  0  0  0  0  0  0  0  0  0
  145.4010   73.6120  220.8650 C   0  0  0  0  0  0  0  0  0  0  0  0
  146.6770   73.7280  221.3230 F   0  0  0  0  0  0  0  0  0  0  0  0
  144.7060   74.7320  220.4730 C   0  0  0  0  0  0  0  0  0  0  0  0
  140.1190   71.3050  223.6310 C   0  0  0  0  0  0  0  0  0  0  0  0
  139.5090   70.0680  223.6550 C   0  0  0  0  0  0  0  0  0  0  0  0
  139.3530   69.3800  224.8390 C   0  0  0  0  0  0  0  0  0  0  0  0
  139.8480   70.0120  225.9840 C   0  0  0  0  0  0  0  0  0  0  0  0
  139.7120   69.3550  227.1960 C   0  0  0  0  0  0  0  0  0  0  0  0
  140.2100   70.0010  228.3260 C   0  0  0  0  0  0  0  0  0  0  0  0
  140.8100   71.2330  228.2560 C   0  0  0  0  0  0  0  0  0  0  0  0
  140.9430   71.8860  227.0400 C   0  0  0  0  0  0  0  0  0  0  0  0
  140.4490   71.2420  225.9280 C   0  0  0  0  0  0  0  0  0  0  0  0
  140.5750   71.8710  224.7470 N   0  0  0  0  0  0  0  0  0  0  0  0
  139.6540   73.8570  223.1580 H   0  0  0  0  0  0  0  0  0  0  0  0
  140.7148   73.5750  220.3304 H   0  0  0  0  0  0  0  0  0  0  0  0
  139.0724   74.2798  220.6182 H   0  0  0  0  0  0  0  0  0  0  0  0
  139.8904   77.5788  219.7150 H   0  0  0  0  0  0  0  0  0  0  0  0
  141.4963   78.1927  219.5570 H   0  0  0  0  0  0  0  0  0  0  0  0
  140.0720   76.0274  217.8577 H   0  0  0  0  0  0  0  0  0  0  0  0
  140.9177   77.4115  217.2280 H   0  0  0  0  0  0  0  0  0  0  0  0
  142.0702   74.8332  217.7277 H   0  0  0  0  0  0  0  0  0  0  0  0
  143.0310   76.2999  217.4780 H   0  0  0  0  0  0  0  0  0  0  0  0
  143.4188   76.5511  219.8261 H   0  0  0  0  0  0  0  0  0  0  0  0
  141.8070   73.3027  219.5723 H   0  0  0  0  0  0  0  0  0  0  0  0
  143.0578   71.2913  220.2735 H   0  0  0  0  0  0  0  0  0  0  0  0
  145.3981   71.4584  221.1195 H   0  0  0  0  0  0  0  0  0  0  0  0
  145.1989   75.7132  220.5387 H   0  0  0  0  0  0  0  0  0  0  0  0
  139.1424   69.6251  222.7172 H   0  0  0  0  0  0  0  0  0  0  0  0
  138.8684   68.3934  224.8808 H   0  0  0  0  0  0  0  0  0  0  0  0
  139.2323   68.3674  227.2635 H   0  0  0  0  0  0  0  0  0  0  0  0
  140.1192   69.5076  229.3050 H   0  0  0  0  0  0  0  0  0  0  0  0
  141.1891   71.7072  229.1733 H   0  0  0  0  0  0  0  0  0  0  0  0
  141.4215   72.8738  226.9672 H   0  0  0  0  0  0  0  0  0  0  0  0
  1  2  2  0
  2  3  1  0
  3  4  1  0
  4  5  1  0
  5  6  2  0
  5  7  1  0
  7  8  1  0
  8  9  1  0
  9 10  1  0
 10 11  1  0
 11 12  1  0
 12 13  2  0
 13 14  1  0
 14 15  2  0
 15 16  1  0
 16 17  1  0
 16 18  2  0
  2 19  1  0
 19 20  2  0
 20 21  1  0
 21 22  2  0
 22 23  1  0
 23 24  2  0
 24 25  1  0
 25 26  2  0
 26 27  1  0
 27 28  2  0
 11  7  1  0
 18 12  1  0
 28 19  1  0
 27 22  1  0
  3 29  1  0
  4 30  1  0
  4 31  1  0
  8 32  1  0
  8 33  1  0
  9 34  1  0
  9 35  1  0
 10 36  1  0
 10 37  1  0
 11 38  1  6
 13 39  1  0
 14 40  1  0
 15 41  1  0
 18 42  1  0
 20 43  1  0
 21 44  1  0
 23 45  1  0
 24 46  1  0
 25 47  1  0
 26 48  1  0
M  END
>  <smiles>  (15) 
O=C(NCC(=O)N1CCCC1c1cccc(F)c1)c1ccc2ccccc2n1

>  <score_type>  (15) 
oracle

>  <origin>  (15) 
autodockgpu

>  <m_score__min__energy>  (15) 
-8.8399999999999999

>  <m_primary>  (15) 
energy

>  <rmsd>  (15) 
1.9309262938504663

>  <m_score__min__rmsd>  (15) 
1.9309262938504663

>  <meeko>  (15) 
{"free_energy": -8.41, "intermolecular_energy": -9.91, "internal_energy": -1.92, "cluster_size": 10, "cluster_id": 2, "rank_in_cluster": 5}

>  <energy>  (15) 
-8.74

>  <cluster_rmsd>  (15) 
1.04

>  <cluster>  (15) 
1

$$$$

     RDKit          3D

 48 51  0  0  0  0  0  0  0  0999 V2000
  141.3070   72.3960  221.9080 O   0  0  0  0  0  0  0  0  0  0  0  0
  140.2880   72.4030  222.6350 C   0  0  0  0  0  0  0  0  0  0  0  0
  139.2200   73.2870  222.3140 N   0  0  0  0  0  0  0  0  0  0  0  0
  139.2630   74.1750  221.1870 C   0  0  0  0  0  0  0  0  0  0  0  0
  139.9180   75.4830  221.5440 C   0  0  0  0  0  0  0  0  0  0  0  0
  139.7530   75.8580  222.7250 O   0  0  0  0  0  0  0  0  0  0  0  0
  140.6360   76.1490  220.5470 N   0  0  0  0  0  0  0  0  0  0  0  0
  141.0420   75.5700  219.2310 C   0  0  0  0  0  0  0  0  0  0  0  0
  142.5350   75.7880  219.3180 C   0  0  0  0  0  0  0  0  0  0  0  0
  142.5990   77.1810  219.9610 C   0  0  0  0  0  0  0  0  0  0  0  0
  141.1980   77.4810  220.4460 C   0  0  2  0  0  0  0  0  0  0  0  0
  141.0860   78.3520  221.5870 C   0  0  0  0  0  0  0  0  0  0  0  0
  142.1970   78.9420  222.1250 C   0  0  0  0  0  0  0  0  0  0  0  0
  142.1170   79.8050  223.2230 C   0  0  0  0  0  0  0  0  0  0  0  0
  140.9120   80.1050  223.8240 C   0  0  0  0  0  0  0  0  0  0  0  0
  139.7900   79.5110  223.2850 C   0  0  0  0  0  0  0  0  0  0  0  0
  138.5830   79.7830  223.8510 F   0  0  0  0  0  0  0  0  0  0  0  0
  139.8680   78.6640  222.2050 C   0  0  0  0  0  0  0  0  0  0  0  0
  140.1680   71.5200  223.8140 C   0  0  0  0  0  0  0  0  0  0  0  0
  139.5040   70.3180  223.6770 C   0  0  0  0  0  0  0  0  0  0  0  0
  139.3670   69.4610  224.7480 C   0  0  0  0  0  0  0  0  0  0  0  0
  139.9360   69.8880  225.9510 C   0  0  0  0  0  0  0  0  0  0  0  0
  139.8210   69.0570  227.0530 C   0  0  0  0  0  0  0  0  0  0  0  0
  140.3950   69.5000  228.2430 C   0  0  0  0  0  0  0  0  0  0  0  0
  141.0470   70.7030  228.3340 C   0  0  0  0  0  0  0  0  0  0  0  0
  141.1590   71.5320  227.2270 C   0  0  0  0  0  0  0  0  0  0  0  0
  140.5900   71.0880  226.0560 C   0  0  0  0  0  0  0  0  0  0  0  0
  140.6960   71.8880  224.9800 N   0  0  0  0  0  0  0  0  0  0  0  0
  138.3770   73.2570  222.9610 H   0  0  0  0  0  0  0  0  0  0  0  0
  139.8340   73.6980  220.3768 H   0  0  0  0  0  0  0  0  0  0  0  0
  138.2305   74.3802  220.8678 H   0  0  0  0  0  0  0  0  0  0  0  0
  140.7861   74.5029  219.1548 H   0  0  0  0  0  0  0  0  0  0  0  0
  140.5527   76.0136  218.3513 H   0  0  0  0  0  0  0  0  0  0  0  0
  143.0164   75.0292  219.9524 H   0  0  0  0  0  0  0  0  0  0  0  0
  143.0581   75.7128  218.3533 H   0  0  0  0  0  0  0  0  0  0  0  0
  143.3038   77.1801  220.8055 H   0  0  0  0  0  0  0  0  0  0  0  0
  142.9487   77.9395  219.2452 H   0  0  0  0  0  0  0  0  0  0  0  0
  140.6199   78.1243  219.7663 H   0  0  0  0  0  0  0  0  0  0  0  0
  143.1814   78.7317  221.6814 H   0  0  0  0  0  0  0  0  0  0  0  0
  143.0393   80.2563  223.6177 H   0  0  0  0  0  0  0  0  0  0  0  0
  140.8493   80.7827  224.6882 H   0  0  0  0  0  0  0  0  0  0  0  0
  138.9430   78.2162  221.8129 H   0  0  0  0  0  0  0  0  0  0  0  0
  139.0788   70.0404  222.7012 H   0  0  0  0  0  0  0  0  0  0  0  0
  138.8413   68.4987  224.6610 H   0  0  0  0  0  0  0  0  0  0  0  0
  139.2997   68.0903  226.9916 H   0  0  0  0  0  0  0  0  0  0  0  0
  140.3228   68.8645  229.1379 H   0  0  0  0  0  0  0  0  0  0  0  0
  141.4854   71.0137  229.2938 H   0  0  0  0  0  0  0  0  0  0  0  0
  141.6789   72.4998  227.2832 H   0  0  0  0  0  0  0  0  0  0  0  0
  1  2  2  0
  2  3  1  0
  3  4  1  0
  4  5  1  0
  5  6  2  0
  5  7  1  0
  7  8  1  0
  8  9  1  0
  9 10  1  0
 10 11  1  0
 11 12  1  0
 12 13  2  0
 13 14  1  0
 14 15  2  0
 15 16  1  0
 16 17  1  0
 16 18  2  0
  2 19  1  0
 19 20  2  0
 20 21  1  0
 21 22  2  0
 22 23  1  0
 23 24  2  0
 24 25  1  0
 25 26  2  0
 26 27  1  0
 27 28  2  0
 11  7  1  0
 18 12  1  0
 28 19  1  0
 27 22  1  0
  3 29  1  0
  4 30  1  0
  4 31  1  0
  8 32  1  0
  8 33  1  0
  9 34  1  0
  9 35  1  0
 10 36  1  0
 10 37  1  0
 11 38  1  6
 13 39  1  0
 14 40  1  0
 15 41  1  0
 18 42  1  0
 20 43  1  0
 21 44  1  0
 23 45  1  0
 24 46  1  0
 25 47  1  0
 26 48  1  0
M  END
>  <smiles>  (16) 
O=C(NCC(=O)N1CCCC1c1cccc(F)c1)c1ccc2ccccc2n1

>  <score_type>  (16) 
oracle

>  <origin>  (16) 
autodockgpu

>  <m_score__min__energy>  (16) 
-8.8399999999999999

>  <m_primary>  (16) 
energy

>  <rmsd>  (16) 
1.7763963905772338

>  <m_score__min__rmsd>  (16) 
1.7763963905772338

>  <meeko>  (16) 
{"free_energy": -8.84, "intermolecular_energy": -10.33, "internal_energy": -1.28, "cluster_size": 38, "cluster_id": 1, "rank_in_cluster": 1}

>  <energy>  (16) 
-8.73

>  <cluster_rmsd>  (16) 
0.54

>  <cluster>  (16) 
1

$$$$

     RDKit          3D

 48 51  0  0  0  0  0  0  0  0999 V2000
  140.4220   71.4270  221.3440 O   0  0  0  0  0  0  0  0  0  0  0  0
  140.1350   71.9940  222.4230 C   0  0  0  0  0  0  0  0  0  0  0  0
  139.8250   73.3820  222.4100 N   0  0  0  0  0  0  0  0  0  0  0  0
  139.8300   74.1630  221.2050 C   0  0  0  0  0  0  0  0  0  0  0  0
  140.1800   75.6010  221.4860 C   0  0  0  0  0  0  0  0  0  0  0  0
  140.0710   75.9550  222.6790 O   0  0  0  0  0  0  0  0  0  0  0  0
  140.5870   76.3960  220.4110 N   0  0  0  0  0  0  0  0  0  0  0  0
  140.7410   75.9390  218.9970 C   0  0  0  0  0  0  0  0  0  0  0  0
  142.1870   76.3200  218.7740 C   0  0  0  0  0  0  0  0  0  0  0  0
  142.2580   77.6740  219.4940 C   0  0  0  0  0  0  0  0  0  0  0  0
  140.9780   77.7880  220.2940 C   0  0  2  0  0  0  0  0  0  0  0  0
  141.0400   78.5770  221.4950 C   0  0  0  0  0  0  0  0  0  0  0  0
  142.2410   79.0390  221.9650 C   0  0  0  0  0  0  0  0  0  0  0  0
  142.3300   79.8220  223.1210 C   0  0  0  0  0  0  0  0  0  0  0  0
  141.2120   80.1680  223.8510 C   0  0  0  0  0  0  0  0  0  0  0  0
  140.0010   79.7030  223.3830 C   0  0  0  0  0  0  0  0  0  0  0  0
  138.8760   80.0240  224.0770 F   0  0  0  0  0  0  0  0  0  0  0  0
  139.9120   78.9340  222.2460 C   0  0  0  0  0  0  0  0  0  0  0  0
  140.1090   71.2580  223.7050 C   0  0  0  0  0  0  0  0  0  0  0  0
  139.5950   69.9780  223.7240 C   0  0  0  0  0  0  0  0  0  0  0  0
  139.5500   69.2530  224.8950 C   0  0  0  0  0  0  0  0  0  0  0  0
  140.0510   69.8930  226.0320 C   0  0  0  0  0  0  0  0  0  0  0  0
  140.0250   69.1990  227.2310 C   0  0  0  0  0  0  0  0  0  0  0  0
  140.5290   69.8550  228.3530 C   0  0  0  0  0  0  0  0  0  0  0  0
  141.0310   71.1300  228.2880 C   0  0  0  0  0  0  0  0  0  0  0  0
  141.0550   71.8190  227.0850 C   0  0  0  0  0  0  0  0  0  0  0  0
  140.5560   71.1660  225.9810 C   0  0  0  0  0  0  0  0  0  0  0  0
  140.5760   71.8310  224.8120 N   0  0  0  0  0  0  0  0  0  0  0  0
  139.5880   73.8180  223.3500 H   0  0  0  0  0  0  0  0  0  0  0  0
  140.5713   73.7432  220.5091 H   0  0  0  0  0  0  0  0  0  0  0  0
  138.8219   74.1305  220.7661 H   0  0  0  0  0  0  0  0  0  0  0  0
  140.5807   74.8555  218.8951 H   0  0  0  0  0  0  0  0  0  0  0  0
  140.0251   76.3711  218.2823 H   0  0  0  0  0  0  0  0  0  0  0  0
  142.8707   75.5870  219.2271 H   0  0  0  0  0  0  0  0  0  0  0  0
  142.4841   76.3574  217.7155 H   0  0  0  0  0  0  0  0  0  0  0  0
  143.1309   77.7062  220.1626 H   0  0  0  0  0  0  0  0  0  0  0  0
  142.3631   78.5049  218.7808 H   0  0  0  0  0  0  0  0  0  0  0  0
  140.2017   78.3978  219.8086 H   0  0  0  0  0  0  0  0  0  0  0  0
  143.1615   78.7872  221.4179 H   0  0  0  0  0  0  0  0  0  0  0  0
  143.3177   80.1709  223.4566 H   0  0  0  0  0  0  0  0  0  0  0  0
  141.2828   80.7834  224.7600 H   0  0  0  0  0  0  0  0  0  0  0  0
  138.9219   78.5875  221.9150 H   0  0  0  0  0  0  0  0  0  0  0  0
  139.2165   69.5306  222.7931 H   0  0  0  0  0  0  0  0  0  0  0  0
  139.1440   68.2314  224.9327 H   0  0  0  0  0  0  0  0  0  0  0  0
  139.6247   68.1764  227.2946 H   0  0  0  0  0  0  0  0  0  0  0  0
  140.5240   69.3336  229.3215 H   0  0  0  0  0  0  0  0  0  0  0  0
  141.4181   71.6102  229.1988 H   0  0  0  0  0  0  0  0  0  0  0  0
  141.4548   72.8414  227.0161 H   0  0  0  0  0  0  0  0  0  0  0  0
  1  2  2  0
  2  3  1  0
  3  4  1  0
  4  5  1  0
  5  6  2  0
  5  7  1  0
  7  8  1  0
  8  9  1  0
  9 10  1  0
 10 11  1  0
 11 12  1  0
 12 13  2  0
 13 14  1  0
 14 15  2  0
 15 16  1  0
 16 17  1  0
 16 18  2  0
  2 19  1  0
 19 20  2  0
 20 21  1  0
 21 22  2  0
 22 23  1  0
 23 24  2  0
 24 25  1  0
 25 26  2  0
 26 27  1  0
 27 28  2  0
 11  7  1  0
 18 12  1  0
 28 19  1  0
 27 22  1  0
  3 29  1  0
  4 30  1  0
  4 31  1  0
  8 32  1  0
  8 33  1  0
  9 34  1  0
  9 35  1  0
 10 36  1  0
 10 37  1  0
 11 38  1  6
 13 39  1  0
 14 40  1  0
 15 41  1  0
 18 42  1  0
 20 43  1  0
 21 44  1  0
 23 45  1  0
 24 46  1  0
 25 47  1  0
 26 48  1  0
M  END
>  <smiles>  (17) 
O=C(NCC(=O)N1CCCC1c1cccc(F)c1)c1ccc2ccccc2n1

>  <score_type>  (17) 
oracle

>  <origin>  (17) 
autodockgpu

>  <m_score__min__energy>  (17) 
-8.8399999999999999

>  <m_primary>  (17) 
energy

>  <rmsd>  (17) 
1.654564787423535

>  <m_score__min__rmsd>  (17) 
1.654564787423535

>  <meeko>  (17) 
{"free_energy": -8.71, "intermolecular_energy": -10.2, "internal_energy": -1.82, "cluster_size": 38, "cluster_id": 1, "rank_in_cluster": 24}

>  <energy>  (17) 
-8.73

>  <cluster_rmsd>  (17) 
1.08

>  <cluster>  (17) 
1

$$$$

     RDKit          3D

 48 51  0  0  0  0  0  0  0  0999 V2000
  140.7560   71.4720  221.3270 O   0  0  0  0  0  0  0  0  0  0  0  0
  140.3190   72.0480  222.3490 C   0  0  0  0  0  0  0  0  0  0  0  0
  139.9540   73.4200  222.2630 N   0  0  0  0  0  0  0  0  0  0  0  0
  140.0670   74.1750  221.0460 C   0  0  0  0  0  0  0  0  0  0  0  0
  140.7620   75.4900  221.2790 C   0  0  0  0  0  0  0  0  0  0  0  0
  140.6740   75.9420  222.4410 O   0  0  0  0  0  0  0  0  0  0  0  0
  141.4310   76.0760  220.2010 N   0  0  0  0  0  0  0  0  0  0  0  0
  140.9450   77.2420  219.4030 C   0  0  0  0  0  0  0  0  0  0  0  0
  140.9610   76.6190  218.0260 C   0  0  0  0  0  0  0  0  0  0  0  0
  142.2590   75.8020  218.0790 C   0  0  0  0  0  0  0  0  0  0  0  0
  142.6840   75.7880  219.5310 C   0  0  2  0  0  0  0  0  0  0  0  0
  143.4390   74.6440  219.9690 C   0  0  0  0  0  0  0  0  0  0  0  0
  142.8970   73.3880  219.9100 C   0  0  0  0  0  0  0  0  0  0  0  0
  143.6130   72.2550  220.3130 C   0  0  0  0  0  0  0  0  0  0  0  0
  144.9020   72.3450  220.7960 C   0  0  0  0  0  0  0  0  0  0  0  0
  145.4500   73.6090  220.8590 C   0  0  0  0  0  0  0  0  0  0  0  0
  146.7200   73.7370  221.3290 F   0  0  0  0  0  0  0  0  0  0  0  0
  144.7480   74.7220  220.4610 C   0  0  0  0  0  0  0  0  0  0  0  0
  140.1750   71.3400  223.6380 C   0  0  0  0  0  0  0  0  0  0  0  0
  139.5410   70.1150  223.6540 C   0  0  0  0  0  0  0  0  0  0  0  0
  139.3830   69.4160  224.8320 C   0  0  0  0  0  0  0  0  0  0  0  0
  139.8980   70.0260  225.9800 C   0  0  0  0  0  0  0  0  0  0  0  0
  139.7600   69.3590  227.1850 C   0  0  0  0  0  0  0  0  0  0  0  0
  140.2800   69.9830  228.3170 C   0  0  0  0  0  0  0  0  0  0  0  0
  140.9030   71.2030  228.2560 C   0  0  0  0  0  0  0  0  0  0  0  0
  141.0380   71.8670  227.0460 C   0  0  0  0  0  0  0  0  0  0  0  0
  140.5230   71.2450  225.9320 C   0  0  0  0  0  0  0  0  0  0  0  0
  140.6510   71.8850  224.7560 N   0  0  0  0  0  0  0  0  0  0  0  0
  139.5890   73.8650  223.1560 H   0  0  0  0  0  0  0  0  0  0  0  0
  140.6433   73.5902  220.3140 H   0  0  0  0  0  0  0  0  0  0  0  0
  139.0538   74.3803  220.6701 H   0  0  0  0  0  0  0  0  0  0  0  0
  139.9329   77.5520  219.7024 H   0  0  0  0  0  0  0  0  0  0  0  0
  141.5362   78.1636  219.5091 H   0  0  0  0  0  0  0  0  0  0  0  0
  140.0851   75.9730  217.8664 H   0  0  0  0  0  0  0  0  0  0  0  0
  140.9209   77.3470  217.2023 H   0  0  0  0  0  0  0  0  0  0  0  0
  142.0800   74.7766  217.7232 H   0  0  0  0  0  0  0  0  0  0  0  0
  143.0368   76.2393  217.4357 H   0  0  0  0  0  0  0  0  0  0  0  0
  143.4633   76.5254  219.7736 H   0  0  0  0  0  0  0  0  0  0  0  0
  141.8700   73.2660  219.5353 H   0  0  0  0  0  0  0  0  0  0  0  0
  143.1353   71.2666  220.2427 H   0  0  0  0  0  0  0  0  0  0  0  0
  145.4638   71.4545  221.1145 H   0  0  0  0  0  0  0  0  0  0  0  0
  145.2310   75.7078  220.5314 H   0  0  0  0  0  0  0  0  0  0  0  0
  139.1565   69.6903  222.7149 H   0  0  0  0  0  0  0  0  0  0  0  0
  138.8819   68.4374  224.8666 H   0  0  0  0  0  0  0  0  0  0  0  0
  139.2620   68.3801  227.2461 H   0  0  0  0  0  0  0  0  0  0  0  0
  140.1878   69.4807  229.2913 H   0  0  0  0  0  0  0  0  0  0  0  0
  141.2993   71.6592  229.1752 H   0  0  0  0  0  0  0  0  0  0  0  0
  141.5343   72.8465  226.9799 H   0  0  0  0  0  0  0  0  0  0  0  0
  1  2  2  0
  2  3  1  0
  3  4  1  0
  4  5  1  0
  5  6  2  0
  5  7  1  0
  7  8  1  0
  8  9  1  0
  9 10  1  0
 10 11  1  0
 11 12  1  0
 12 13  2  0
 13 14  1  0
 14 15  2  0
 15 16  1  0
 16 17  1  0
 16 18  2  0
  2 19  1  0
 19 20  2  0
 20 21  1  0
 21 22  2  0
 22 23  1  0
 23 24  2  0
 24 25  1  0
 25 26  2  0
 26 27  1  0
 27 28  2  0
 11  7  1  0
 18 12  1  0
 28 19  1  0
 27 22  1  0
  3 29  1  0
  4 30  1  0
  4 31  1  0
  8 32  1  0
  8 33  1  0
  9 34  1  0
  9 35  1  0
 10 36  1  0
 10 37  1  0
 11 38  1  6
 13 39  1  0
 14 40  1  0
 15 41  1  0
 18 42  1  0
 20 43  1  0
 21 44  1  0
 23 45  1  0
 24 46  1  0
 25 47  1  0
 26 48  1  0
M  END
>  <smiles>  (18) 
O=C(NCC(=O)N1CCCC1c1cccc(F)c1)c1ccc2ccccc2n1

>  <score_type>  (18) 
oracle

>  <origin>  (18) 
autodockgpu

>  <m_score__min__energy>  (18) 
-8.8399999999999999

>  <m_primary>  (18) 
energy

>  <rmsd>  (18) 
1.948963570132046

>  <m_score__min__rmsd>  (18) 
1.948963570132046

>  <meeko>  (18) 
{"free_energy": -8.46, "intermolecular_energy": -9.96, "internal_energy": -1.89, "cluster_size": 10, "cluster_id": 2, "rank_in_cluster": 2}

>  <energy>  (18) 
-8.72

>  <cluster_rmsd>  (18) 
1.05

>  <cluster>  (18) 
1

$$$$

     RDKit          3D

 48 51  0  0  0  0  0  0  0  0999 V2000
  140.1390   71.3300  221.3350 O   0  0  0  0  0  0  0  0  0  0  0  0
  139.9590   71.9020  222.4350 C   0  0  0  0  0  0  0  0  0  0  0  0
  139.7280   73.3050  222.4500 N   0  0  0  0  0  0  0  0  0  0  0  0
  139.6930   74.0960  221.2520 C   0  0  0  0  0  0  0  0  0  0  0  0
  140.0970   75.5210  221.5250 C   0  0  0  0  0  0  0  0  0  0  0  0
  139.8930   75.9210  222.6910 O   0  0  0  0  0  0  0  0  0  0  0  0
  140.6530   76.2550  220.4730 N   0  0  0  0  0  0  0  0  0  0  0  0
  140.9530   75.7310  219.1060 C   0  0  0  0  0  0  0  0  0  0  0  0
  142.4270   76.0570  219.0380 C   0  0  0  0  0  0  0  0  0  0  0  0
  142.4620   77.4400  219.7060 C   0  0  0  0  0  0  0  0  0  0  0  0
  141.1040   77.6270  220.3460 C   0  0  2  0  0  0  0  0  0  0  0  0
  141.0540   78.4670  221.5130 C   0  0  0  0  0  0  0  0  0  0  0  0
  142.1980   79.0220  222.0210 C   0  0  0  0  0  0  0  0  0  0  0  0
  142.1790   79.8550  223.1460 C   0  0  0  0  0  0  0  0  0  0  0  0
  141.0050   80.1600  223.8020 C   0  0  0  0  0  0  0  0  0  0  0  0
  139.8510   79.6020  223.2940 C   0  0  0  0  0  0  0  0  0  0  0  0
  138.6740   79.8810  223.9160 F   0  0  0  0  0  0  0  0  0  0  0  0
  139.8690   78.7840  222.1890 C   0  0  0  0  0  0  0  0  0  0  0  0
  139.9810   71.1570  223.7110 C   0  0  0  0  0  0  0  0  0  0  0  0
  139.5300   69.8530  223.7260 C   0  0  0  0  0  0  0  0  0  0  0  0
  139.5310   69.1180  224.8910 C   0  0  0  0  0  0  0  0  0  0  0  0
  140.0110   69.7750  226.0290 C   0  0  0  0  0  0  0  0  0  0  0  0
  140.0290   69.0720  227.2220 C   0  0  0  0  0  0  0  0  0  0  0  0
  140.5110   69.7440  228.3440 C   0  0  0  0  0  0  0  0  0  0  0  0
  140.9500   71.0420  228.2850 C   0  0  0  0  0  0  0  0  0  0  0  0
  140.9290   71.7400  227.0870 C   0  0  0  0  0  0  0  0  0  0  0  0
  140.4530   71.0710  225.9830 C   0  0  0  0  0  0  0  0  0  0  0  0
  140.4300   71.7440  224.8180 N   0  0  0  0  0  0  0  0  0  0  0  0
  139.5820   73.7450  223.4070 H   0  0  0  0  0  0  0  0  0  0  0  0
  140.3855   73.6620  220.5157 H   0  0  0  0  0  0  0  0  0  0  0  0
  138.6632   74.0951  220.8654 H   0  0  0  0  0  0  0  0  0  0  0  0
  140.7671   74.6495  219.0302 H   0  0  0  0  0  0  0  0  0  0  0  0
  140.3402   76.1528  218.2957 H   0  0  0  0  0  0  0  0  0  0  0  0
  143.0274   75.3245  219.5975 H   0  0  0  0  0  0  0  0  0  0  0  0
  142.8456   76.0378  218.0209 H   0  0  0  0  0  0  0  0  0  0  0  0
  143.2529   77.4759  220.4697 H   0  0  0  0  0  0  0  0  0  0  0  0
  142.6772   78.2349  218.9768 H   0  0  0  0  0  0  0  0  0  0  0  0
  140.4110   78.2375  219.7485 H   0  0  0  0  0  0  0  0  0  0  0  0
  143.1593   78.8073  221.5312 H   0  0  0  0  0  0  0  0  0  0  0  0
  143.1249   80.2771  223.5162 H   0  0  0  0  0  0  0  0  0  0  0  0
  140.9899   80.8151  224.6855 H   0  0  0  0  0  0  0  0  0  0  0  0
  138.9203   78.3642  221.8234 H   0  0  0  0  0  0  0  0  0  0  0  0
  139.1648   69.3943  222.7953 H   0  0  0  0  0  0  0  0  0  0  0  0
  139.1759   68.0774  224.9245 H   0  0  0  0  0  0  0  0  0  0  0  0
  139.6789   68.0309  227.2814 H   0  0  0  0  0  0  0  0  0  0  0  0
  140.5403   69.2159  229.3085 H   0  0  0  0  0  0  0  0  0  0  0  0
  141.3220   71.5336  229.1960 H   0  0  0  0  0  0  0  0  0  0  0  0
  141.2772   72.7814  227.0223 H   0  0  0  0  0  0  0  0  0  0  0  0
  1  2  2  0
  2  3  1  0
  3  4  1  0
  4  5  1  0
  5  6  2  0
  5  7  1  0
  7  8  1  0
  8  9  1  0
  9 10  1  0
 10 11  1  0
 11 12  1  0
 12 13  2  0
 13 14  1  0
 14 15  2  0
 15 16  1  0
 16 17  1  0
 16 18  2  0
  2 19  1  0
 19 20  2  0
 20 21  1  0
 21 22  2  0
 22 23  1  0
 23 24  2  0
 24 25  1  0
 25 26  2  0
 26 27  1  0
 27 28  2  0
 11  7  1  0
 18 12  1  0
 28 19  1  0
 27 22  1  0
  3 29  1  0
  4 30  1  0
  4 31  1  0
  8 32  1  0
  8 33  1  0
  9 34  1  0
  9 35  1  0
 10 36  1  0
 10 37  1  0
 11 38  1  6
 13 39  1  0
 14 40  1  0
 15 41  1  0
 18 42  1  0
 20 43  1  0
 21 44  1  0
 23 45  1  0
 24 46  1  0
 25 47  1  0
 26 48  1  0
M  END
>  <smiles>  (19) 
O=C(NCC(=O)N1CCCC1c1cccc(F)c1)c1ccc2ccccc2n1

>  <score_type>  (19) 
oracle

>  <origin>  (19) 
autodockgpu

>  <m_score__min__energy>  (19) 
-8.8399999999999999

>  <m_primary>  (19) 
energy

>  <rmsd>  (19) 
1.661793012951641

>  <m_score__min__rmsd>  (19) 
1.661793012951641

>  <meeko>  (19) 
{"free_energy": -8.69, "intermolecular_energy": -10.18, "internal_energy": -1.82, "cluster_size": 38, "cluster_id": 1, "rank_in_cluster": 29}

>  <energy>  (19) 
-8.72

>  <cluster_rmsd>  (19) 
1.03

>  <cluster>  (19) 
1

$$$$

     RDKit          3D

 48 51  0  0  0  0  0  0  0  0999 V2000
  140.6580   71.5030  221.3560 O   0  0  0  0  0  0  0  0  0  0  0  0
  140.2630   72.0680  222.4020 C   0  0  0  0  0  0  0  0  0  0  0  0
  139.9100   73.4450  222.3470 N   0  0  0  0  0  0  0  0  0  0  0  0
  139.9900   74.2170  221.1390 C   0  0  0  0  0  0  0  0  0  0  0  0
  140.3330   75.6540  221.4270 C   0  0  0  0  0  0  0  0  0  0  0  0
  140.3210   75.9740  222.6360 O   0  0  0  0  0  0  0  0  0  0  0  0
  140.6300   76.4860  220.3440 N   0  0  0  0  0  0  0  0  0  0  0  0
  140.7470   76.0530  218.9190 C   0  0  0  0  0  0  0  0  0  0  0  0
  142.1490   76.5380  218.6310 C   0  0  0  0  0  0  0  0  0  0  0  0
  142.1580   77.8880  219.3630 C   0  0  0  0  0  0  0  0  0  0  0  0
  140.9150   77.9030  220.2250 C   0  0  2  0  0  0  0  0  0  0  0  0
  140.9790   78.6840  221.4310 C   0  0  0  0  0  0  0  0  0  0  0  0
  139.8530   78.9060  222.1790 C   0  0  0  0  0  0  0  0  0  0  0  0
  139.8870   79.6480  223.3650 C   0  0  0  0  0  0  0  0  0  0  0  0
  141.0590   80.1970  223.8420 C   0  0  0  0  0  0  0  0  0  0  0  0
  142.1950   79.9780  223.0920 C   0  0  0  0  0  0  0  0  0  0  0  0
  143.3690   80.5040  223.5320 F   0  0  0  0  0  0  0  0  0  0  0  0
  142.1620   79.2480  221.9270 C   0  0  0  0  0  0  0  0  0  0  0  0
  140.1550   71.3420  223.6840 C   0  0  0  0  0  0  0  0  0  0  0  0
  139.5630   70.0960  223.6930 C   0  0  0  0  0  0  0  0  0  0  0  0
  139.4400   69.3810  224.8650 C   0  0  0  0  0  0  0  0  0  0  0  0
  139.9450   69.9970  226.0140 C   0  0  0  0  0  0  0  0  0  0  0  0
  139.8410   69.3120  227.2140 C   0  0  0  0  0  0  0  0  0  0  0  0
  140.3510   69.9420  228.3480 C   0  0  0  0  0  0  0  0  0  0  0  0
  140.9310   71.1830  228.2930 C   0  0  0  0  0  0  0  0  0  0  0  0
  141.0330   71.8630  227.0890 C   0  0  0  0  0  0  0  0  0  0  0  0
  140.5280   71.2360  225.9730 C   0  0  0  0  0  0  0  0  0  0  0  0
  140.6230   71.8920  224.8030 N   0  0  0  0  0  0  0  0  0  0  0  0
  139.5810   73.8810  223.2590 H   0  0  0  0  0  0  0  0  0  0  0  0
  140.7671   73.7867  220.4902 H   0  0  0  0  0  0  0  0  0  0  0  0
  139.0080   74.1881  220.6441 H   0  0  0  0  0  0  0  0  0  0  0  0
  140.6593   74.9617  218.8123 H   0  0  0  0  0  0  0  0  0  0  0  0
  139.9681   76.4388  218.2448 H   0  0  0  0  0  0  0  0  0  0  0  0
  142.9045   75.8522  219.0420 H   0  0  0  0  0  0  0  0  0  0  0  0
  142.3908   76.6052  217.5600 H   0  0  0  0  0  0  0  0  0  0  0  0
  143.0582   77.9775  219.9888 H   0  0  0  0  0  0  0  0  0  0  0  0
  142.1678   78.7301  218.6553 H   0  0  0  0  0  0  0  0  0  0  0  0
  140.0747   78.4600  219.7849 H   0  0  0  0  0  0  0  0  0  0  0  0
  138.8942   78.4889  221.8374 H   0  0  0  0  0  0  0  0  0  0  0  0
  138.9557   79.7972  223.9311 H   0  0  0  0  0  0  0  0  0  0  0  0
  141.0860   80.7804  224.7742 H   0  0  0  0  0  0  0  0  0  0  0  0
  143.0964   79.1018  221.3652 H   0  0  0  0  0  0  0  0  0  0  0  0
  139.1844   69.6677  222.7532 H   0  0  0  0  0  0  0  0  0  0  0  0
  138.9726   68.3857  224.8945 H   0  0  0  0  0  0  0  0  0  0  0  0
  139.3770   68.3162  227.2692 H   0  0  0  0  0  0  0  0  0  0  0  0
  140.2860   69.4271  229.3179 H   0  0  0  0  0  0  0  0  0  0  0  0
  141.3193   71.6438  229.2132 H   0  0  0  0  0  0  0  0  0  0  0  0
  141.4967   72.8587  227.0286 H   0  0  0  0  0  0  0  0  0  0  0  0
  1  2  2  0
  2  3  1  0
  3  4  1  0
  4  5  1  0
  5  6  2  0
  5  7  1  0
  7  8  1  0
  8  9  1  0
  9 10  1  0
 10 11  1  0
 11 12  1  0
 12 13  2  0
 13 14  1  0
 14 15  2  0
 15 16  1  0
 16 17  1  0
 16 18  2  0
  2 19  1  0
 19 20  2  0
 20 21  1  0
 21 22  2  0
 22 23  1  0
 23 24  2  0
 24 25  1  0
 25 26  2  0
 26 27  1  0
 27 28  2  0
 11  7  1  0
 18 12  1  0
 28 19  1  0
 27 22  1  0
  3 29  1  0
  4 30  1  0
  4 31  1  0
  8 32  1  0
  8 33  1  0
  9 34  1  0
  9 35  1  0
 10 36  1  0
 10 37  1  0
 11 38  1  6
 13 39  1  0
 14 40  1  0
 15 41  1  0
 18 42  1  0
 20 43  1  0
 21 44  1  0
 23 45  1  0
 24 46  1  0
 25 47  1  0
 26 48  1  0
M  END
>  <smiles>  (20) 
O=C(NCC(=O)N1CCCC1c1cccc(F)c1)c1ccc2ccccc2n1

>  <score_type>  (20) 
oracle

>  <origin>  (20) 
autodockgpu

>  <m_score__min__energy>  (20) 
-8.8399999999999999

>  <m_primary>  (20) 
energy

>  <rmsd>  (20) 
1.6975256539246617

>  <m_score__min__rmsd>  (20) 
1.6975256539246617

>  <meeko>  (20) 
{"free_energy": -8.77, "intermolecular_energy": -10.27, "internal_energy": -1.76, "cluster_size": 38, "cluster_id": 1, "rank_in_cluster": 6}

>  <energy>  (20) 
-8.72

>  <cluster_rmsd>  (20) 
1.05

>  <cluster>  (20) 
1

$$$$

     RDKit          3D

 48 51  0  0  0  0  0  0  0  0999 V2000
  140.7960   71.5180  221.3220 O   0  0  0  0  0  0  0  0  0  0  0  0
  140.3470   72.0880  222.3420 C   0  0  0  0  0  0  0  0  0  0  0  0
  139.9690   73.4570  222.2550 N   0  0  0  0  0  0  0  0  0  0  0  0
  140.0820   74.2140  221.0390 C   0  0  0  0  0  0  0  0  0  0  0  0
  140.8160   75.5100  221.2670 C   0  0  0  0  0  0  0  0  0  0  0  0
  140.7620   75.9560  222.4330 O   0  0  0  0  0  0  0  0  0  0  0  0
  141.4770   76.0860  220.1790 N   0  0  0  0  0  0  0  0  0  0  0  0
  140.9850   77.2450  219.3740 C   0  0  0  0  0  0  0  0  0  0  0  0
  140.9920   76.6090  218.0030 C   0  0  0  0  0  0  0  0  0  0  0  0
  142.2920   75.7930  218.0550 C   0  0  0  0  0  0  0  0  0  0  0  0
  142.7260   75.7930  219.5040 C   0  0  2  0  0  0  0  0  0  0  0  0
  143.4840   74.6540  219.9480 C   0  0  0  0  0  0  0  0  0  0  0  0
  142.9590   73.3920  219.8630 C   0  0  0  0  0  0  0  0  0  0  0  0
  143.6790   72.2630  220.2720 C   0  0  0  0  0  0  0  0  0  0  0  0
  144.9560   72.3640  220.7840 C   0  0  0  0  0  0  0  0  0  0  0  0
  145.4870   73.6330  220.8720 C   0  0  0  0  0  0  0  0  0  0  0  0
  146.7450   73.7710  221.3720 F   0  0  0  0  0  0  0  0  0  0  0  0
  144.7810   74.7420  220.4700 C   0  0  0  0  0  0  0  0  0  0  0  0
  140.2010   71.3770  223.6290 C   0  0  0  0  0  0  0  0  0  0  0  0
  139.5750   70.1480  223.6410 C   0  0  0  0  0  0  0  0  0  0  0  0
  139.4160   69.4470  224.8170 C   0  0  0  0  0  0  0  0  0  0  0  0
  139.9230   70.0590  225.9680 C   0  0  0  0  0  0  0  0  0  0  0  0
  139.7830   69.3880  227.1720 C   0  0  0  0  0  0  0  0  0  0  0  0
  140.2940   70.0140  228.3070 C   0  0  0  0  0  0  0  0  0  0  0  0
  140.9090   71.2380  228.2500 C   0  0  0  0  0  0  0  0  0  0  0  0
  141.0460   71.9050  227.0420 C   0  0  0  0  0  0  0  0  0  0  0  0
  140.5400   71.2810  225.9250 C   0  0  0  0  0  0  0  0  0  0  0  0
  140.6690   71.9240  224.7500 N   0  0  0  0  0  0  0  0  0  0  0  0
  139.5950   73.8980  223.1470 H   0  0  0  0  0  0  0  0  0  0  0  0
  140.6307   73.6175  220.2953 H   0  0  0  0  0  0  0  0  0  0  0  0
  139.0688   74.4474  220.6799 H   0  0  0  0  0  0  0  0  0  0  0  0
  139.9749   77.5574  219.6774 H   0  0  0  0  0  0  0  0  0  0  0  0
  141.5762   78.1679  219.4677 H   0  0  0  0  0  0  0  0  0  0  0  0
  140.1156   75.9608  217.8556 H   0  0  0  0  0  0  0  0  0  0  0  0
  140.9456   77.3290  217.1727 H   0  0  0  0  0  0  0  0  0  0  0  0
  142.1117   74.7642  217.7099 H   0  0  0  0  0  0  0  0  0  0  0  0
  143.0653   76.2247  217.4026 H   0  0  0  0  0  0  0  0  0  0  0  0
  143.5062   76.5333  219.7345 H   0  0  0  0  0  0  0  0  0  0  0  0
  141.9430   73.2617  219.4621 H   0  0  0  0  0  0  0  0  0  0  0  0
  143.2145   71.2699  220.1828 H   0  0  0  0  0  0  0  0  0  0  0  0
  145.5216   71.4771  221.1056 H   0  0  0  0  0  0  0  0  0  0  0  0
  145.2507   75.7325  220.5614 H   0  0  0  0  0  0  0  0  0  0  0  0
  139.1977   69.7218  222.6997 H   0  0  0  0  0  0  0  0  0  0  0  0
  138.9203   68.4655  224.8485 H   0  0  0  0  0  0  0  0  0  0  0  0
  139.2909   68.4059  227.2292 H   0  0  0  0  0  0  0  0  0  0  0  0
  140.2010   69.5099  229.2803 H   0  0  0  0  0  0  0  0  0  0  0  0
  141.2976   71.6955  229.1717 H   0  0  0  0  0  0  0  0  0  0  0  0
  141.5366   72.8876  226.9797 H   0  0  0  0  0  0  0  0  0  0  0  0
  1  2  2  0
  2  3  1  0
  3  4  1  0
  4  5  1  0
  5  6  2  0
  5  7  1  0
  7  8  1  0
  8  9  1  0
  9 10  1  0
 10 11  1  0
 11 12  1  0
 12 13  2  0
 13 14  1  0
 14 15  2  0
 15 16  1  0
 16 17  1  0
 16 18  2  0
  2 19  1  0
 19 20  2  0
 20 21  1  0
 21 22  2  0
 22 23  1  0
 23 24  2  0
 24 25  1  0
 25 26  2  0
 26 27  1  0
 27 28  2  0
 11  7  1  0
 18 12  1  0
 28 19  1  0
 27 22  1  0
  3 29  1  0
  4 30  1  0
  4 31  1  0
  8 32  1  0
  8 33  1  0
  9 34  1  0
  9 35  1  0
 10 36  1  0
 10 37  1  0
 11 38  1  6
 13 39  1  0
 14 40  1  0
 15 41  1  0
 18 42  1  0
 20 43  1  0
 21 44  1  0
 23 45  1  0
 24 46  1  0
 25 47  1  0
 26 48  1  0
M  END
>  <smiles>  (21) 
O=C(NCC(=O)N1CCCC1c1cccc(F)c1)c1ccc2ccccc2n1

>  <score_type>  (21) 
oracle

>  <origin>  (21) 
autodockgpu

>  <m_score__min__energy>  (21) 
-8.8399999999999999

>  <m_primary>  (21) 
energy

>  <rmsd>  (21) 
1.9720990617487757

>  <m_score__min__rmsd>  (21) 
1.9720990617487757

>  <meeko>  (21) 
{"free_energy": -8.43, "intermolecular_energy": -9.93, "internal_energy": -1.9, "cluster_size": 10, "cluster_id": 2, "rank_in_cluster": 4}

>  <energy>  (21) 
-8.71

>  <cluster_rmsd>  (21) 
0.51

>  <cluster>  (21) 
1

$$$$

     RDKit          3D

 48 51  0  0  0  0  0  0  0  0999 V2000
  140.7480   71.3300  221.3200 O   0  0  0  0  0  0  0  0  0  0  0  0
  140.3260   71.9170  222.3420 C   0  0  0  0  0  0  0  0  0  0  0  0
  139.9660   73.2910  222.2470 N   0  0  0  0  0  0  0  0  0  0  0  0
  140.0670   74.0330  221.0220 C   0  0  0  0  0  0  0  0  0  0  0  0
  140.1480   75.5140  221.2850 C   0  0  0  0  0  0  0  0  0  0  0  0
  139.8210   75.8710  222.4370 O   0  0  0  0  0  0  0  0  0  0  0  0
  140.5730   76.3410  220.2400 N   0  0  0  0  0  0  0  0  0  0  0  0
  140.7590   75.9230  218.8180 C   0  0  0  0  0  0  0  0  0  0  0  0
  142.2070   76.3170  218.6360 C   0  0  0  0  0  0  0  0  0  0  0  0
  142.2540   77.6510  219.3940 C   0  0  0  0  0  0  0  0  0  0  0  0
  140.9580   77.7360  220.1690 C   0  0  2  0  0  0  0  0  0  0  0  0
  140.9900   78.4930  221.3930 C   0  0  0  0  0  0  0  0  0  0  0  0
  139.8410   78.7240  222.1000 C   0  0  0  0  0  0  0  0  0  0  0  0
  139.8430   79.4420  223.3010 C   0  0  0  0  0  0  0  0  0  0  0  0
  141.0060   79.9580  223.8350 C   0  0  0  0  0  0  0  0  0  0  0  0
  142.1660   79.7290  223.1250 C   0  0  0  0  0  0  0  0  0  0  0  0
  143.3320   80.2220  223.6220 F   0  0  0  0  0  0  0  0  0  0  0  0
  142.1640   79.0220  221.9460 C   0  0  0  0  0  0  0  0  0  0  0  0
  140.1940   71.2220  223.6390 C   0  0  0  0  0  0  0  0  0  0  0  0
  139.5840   69.9850  223.6690 C   0  0  0  0  0  0  0  0  0  0  0  0
  139.4380   69.2980  224.8550 C   0  0  0  0  0  0  0  0  0  0  0  0
  139.9410   69.9300  225.9950 C   0  0  0  0  0  0  0  0  0  0  0  0
  139.8140   69.2740  227.2080 C   0  0  0  0  0  0  0  0  0  0  0  0
  140.3220   69.9210  228.3340 C   0  0  0  0  0  0  0  0  0  0  0  0
  140.9210   71.1520  228.2590 C   0  0  0  0  0  0  0  0  0  0  0  0
  141.0450   71.8040  227.0410 C   0  0  0  0  0  0  0  0  0  0  0  0
  140.5420   71.1600  225.9340 C   0  0  0  0  0  0  0  0  0  0  0  0
  140.6590   71.7890  224.7500 N   0  0  0  0  0  0  0  0  0  0  0  0
  139.6140   73.7450  223.1410 H   0  0  0  0  0  0  0  0  0  0  0  0
  140.9718   73.7145  220.4836 H   0  0  0  0  0  0  0  0  0  0  0  0
  139.1671   73.8355  220.4210 H   0  0  0  0  0  0  0  0  0  0  0  0
  140.6069   74.8419  218.6838 H   0  0  0  0  0  0  0  0  0  0  0  0
  140.0558   76.3705  218.1002 H   0  0  0  0  0  0  0  0  0  0  0  0
  142.8853   75.5756  219.0835 H   0  0  0  0  0  0  0  0  0  0  0  0
  142.5266   76.3845  217.5856 H   0  0  0  0  0  0  0  0  0  0  0  0
  143.1124   77.6699  220.0816 H   0  0  0  0  0  0  0  0  0  0  0  0
  142.3685   78.5016  218.7059 H   0  0  0  0  0  0  0  0  0  0  0  0
  140.1886   78.3545  219.6838 H   0  0  0  0  0  0  0  0  0  0  0  0
  138.8882   78.3338  221.7128 H   0  0  0  0  0  0  0  0  0  0  0  0
  138.8931   79.5991  223.8330 H   0  0  0  0  0  0  0  0  0  0  0  0
  141.0078   80.5231  224.7787 H   0  0  0  0  0  0  0  0  0  0  0  0
  143.1166   78.8662  221.4186 H   0  0  0  0  0  0  0  0  0  0  0  0
  139.2094   69.5414  222.7347 H   0  0  0  0  0  0  0  0  0  0  0  0
  138.9544   68.3111  224.9012 H   0  0  0  0  0  0  0  0  0  0  0  0
  139.3339   68.2869  227.2800 H   0  0  0  0  0  0  0  0  0  0  0  0
  140.2395   69.4279  229.3138 H   0  0  0  0  0  0  0  0  0  0  0  0
  141.3068   71.6269  229.1731 H   0  0  0  0  0  0  0  0  0  0  0  0
  141.5238   72.7913  226.9636 H   0  0  0  0  0  0  0  0  0  0  0  0
  1  2  2  0
  2  3  1  0
  3  4  1  0
  4  5  1  0
  5  6  2  0
  5  7  1  0
  7  8  1  0
  8  9  1  0
  9 10  1  0
 10 11  1  0
 11 12  1  0
 12 13  2  0
 13 14  1  0
 14 15  2  0
 15 16  1  0
 16 17  1  0
 16 18  2  0
  2 19  1  0
 19 20  2  0
 20 21  1  0
 21 22  2  0
 22 23  1  0
 23 24  2  0
 24 25  1  0
 25 26  2  0
 26 27  1  0
 27 28  2  0
 11  7  1  0
 18 12  1  0
 28 19  1  0
 27 22  1  0
  3 29  1  0
  4 30  1  0
  4 31  1  0
  8 32  1  0
  8 33  1  0
  9 34  1  0
  9 35  1  0
 10 36  1  0
 10 37  1  0
 11 38  1  6
 13 39  1  0
 14 40  1  0
 15 41  1  0
 18 42  1  0
 20 43  1  0
 21 44  1  0
 23 45  1  0
 24 46  1  0
 25 47  1  0
 26 48  1  0
M  END
>  <smiles>  (22) 
O=C(NCC(=O)N1CCCC1c1cccc(F)c1)c1ccc2ccccc2n1

>  <score_type>  (22) 
oracle

>  <origin>  (22) 
autodockgpu

>  <m_score__min__energy>  (22) 
-8.8399999999999999

>  <m_primary>  (22) 
energy

>  <rmsd>  (22) 
1.6748774313632404

>  <m_score__min__rmsd>  (22) 
1.6748774313632404

>  <meeko>  (22) 
{"free_energy": -8.74, "intermolecular_energy": -10.23, "internal_energy": -1.78, "cluster_size": 38, "cluster_id": 1, "rank_in_cluster": 15}

>  <energy>  (22) 
-8.71

>  <cluster_rmsd>  (22) 
0.52

>  <cluster>  (22) 
1

$$$$

     RDKit          3D

 48 51  0  0  0  0  0  0  0  0999 V2000
  140.0270   71.2760  221.2600 O   0  0  0  0  0  0  0  0  0  0  0  0
  139.9030   71.8910  222.3440 C   0  0  0  0  0  0  0  0  0  0  0  0
  139.6940   73.2980  222.3160 N   0  0  0  0  0  0  0  0  0  0  0  0
  139.6190   74.0450  221.0920 C   0  0  0  0  0  0  0  0  0  0  0  0
  140.3600   75.3510  221.2010 C   0  0  0  0  0  0  0  0  0  0  0  0
  140.3800   75.8610  222.3420 O   0  0  0  0  0  0  0  0  0  0  0  0
  140.9480   75.8680  220.0430 N   0  0  0  0  0  0  0  0  0  0  0  0
  140.3340   76.8790  219.1300 C   0  0  0  0  0  0  0  0  0  0  0  0
  140.3880   76.1020  217.8350 C   0  0  0  0  0  0  0  0  0  0  0  0
  141.7630   75.4270  217.9440 C   0  0  0  0  0  0  0  0  0  0  0  0
  142.2120   75.6270  219.3750 C   0  0  2  0  0  0  0  0  0  0  0  0
  143.0850   74.6210  219.9210 C   0  0  0  0  0  0  0  0  0  0  0  0
  142.6080   73.3740  220.2230 C   0  0  0  0  0  0  0  0  0  0  0  0
  143.4360   72.3710  220.7400 C   0  0  0  0  0  0  0  0  0  0  0  0
  144.7780   72.5880  220.9740 C   0  0  0  0  0  0  0  0  0  0  0  0
  145.2620   73.8440  220.6720 C   0  0  0  0  0  0  0  0  0  0  0  0
  146.5810   74.0950  220.8890 F   0  0  0  0  0  0  0  0  0  0  0  0
  144.4490   74.8290  220.1630 C   0  0  0  0  0  0  0  0  0  0  0  0
  139.9690   71.1930  223.6450 C   0  0  0  0  0  0  0  0  0  0  0  0
  139.5340   69.8860  223.7190 C   0  0  0  0  0  0  0  0  0  0  0  0
  139.5750   69.1940  224.9100 C   0  0  0  0  0  0  0  0  0  0  0  0
  140.0790   69.8970  226.0090 C   0  0  0  0  0  0  0  0  0  0  0  0
  140.1380   69.2390  227.2260 C   0  0  0  0  0  0  0  0  0  0  0  0
  140.6420   69.9560  228.3100 C   0  0  0  0  0  0  0  0  0  0  0  0
  141.0640   71.2560  228.1910 C   0  0  0  0  0  0  0  0  0  0  0  0
  141.0020   71.9090  226.9700 C   0  0  0  0  0  0  0  0  0  0  0  0
  140.5030   71.1950  225.9040 C   0  0  0  0  0  0  0  0  0  0  0  0
  140.4410   71.8250  224.7170 N   0  0  0  0  0  0  0  0  0  0  0  0
  139.5960   73.7750  223.2610 H   0  0  0  0  0  0  0  0  0  0  0  0
  140.0618   73.4486  220.2807 H   0  0  0  0  0  0  0  0  0  0  0  0
  138.5613   74.2628  220.8828 H   0  0  0  0  0  0  0  0  0  0  0  0
  139.3015   77.1225  219.4208 H   0  0  0  0  0  0  0  0  0  0  0  0
  140.8318   77.8598  219.1113 H   0  0  0  0  0  0  0  0  0  0  0  0
  139.5786   75.3593  217.7773 H   0  0  0  0  0  0  0  0  0  0  0  0
  140.2605   76.7200  216.9340 H   0  0  0  0  0  0  0  0  0  0  0  0
  141.6816   74.3542  217.7151 H   0  0  0  0  0  0  0  0  0  0  0  0
  142.4817   75.8582  217.2316 H   0  0  0  0  0  0  0  0  0  0  0  0
  142.9171   76.4608  219.5076 H   0  0  0  0  0  0  0  0  0  0  0  0
  141.5435   73.1539  220.0545 H   0  0  0  0  0  0  0  0  0  0  0  0
  143.0055   71.3842  220.9656 H   0  0  0  0  0  0  0  0  0  0  0  0
  145.4289   71.7999  221.3806 H   0  0  0  0  0  0  0  0  0  0  0  0
  144.8844   75.8138  219.9381 H   0  0  0  0  0  0  0  0  0  0  0  0
  139.1495   69.3898  222.8157 H   0  0  0  0  0  0  0  0  0  0  0  0
  139.2321   68.1520  224.9914 H   0  0  0  0  0  0  0  0  0  0  0  0
  139.8021   68.1970  227.3326 H   0  0  0  0  0  0  0  0  0  0  0  0
  140.7033   69.4639  229.2919 H   0  0  0  0  0  0  0  0  0  0  0  0
  141.4551   71.7849  229.0726 H   0  0  0  0  0  0  0  0  0  0  0  0
  141.3365   72.9509  226.8578 H   0  0  0  0  0  0  0  0  0  0  0  0
  1  2  2  0
  2  3  1  0
  3  4  1  0
  4  5  1  0
  5  6  2  0
  5  7  1  0
  7  8  1  0
  8  9  1  0
  9 10  1  0
 10 11  1  0
 11 12  1  0
 12 13  2  0
 13 14  1  0
 14 15  2  0
 15 16  1  0
 16 17  1  0
 16 18  2  0
  2 19  1  0
 19 20  2  0
 20 21  1  0
 21 22  2  0
 22 23  1  0
 23 24  2  0
 24 25  1  0
 25 26  2  0
 26 27  1  0
 27 28  2  0
 11  7  1  0
 18 12  1  0
 28 19  1  0
 27 22  1  0
  3 29  1  0
  4 30  1  0
  4 31  1  0
  8 32  1  0
  8 33  1  0
  9 34  1  0
  9 35  1  0
 10 36  1  0
 10 37  1  0
 11 38  1  6
 13 39  1  0
 14 40  1  0
 15 41  1  0
 18 42  1  0
 20 43  1  0
 21 44  1  0
 23 45  1  0
 24 46  1  0
 25 47  1  0
 26 48  1  0
M  END
>  <smiles>  (23) 
O=C(NCC(=O)N1CCCC1c1cccc(F)c1)c1ccc2ccccc2n1

>  <score_type>  (23) 
oracle

>  <origin>  (23) 
autodockgpu

>  <m_score__min__energy>  (23) 
-8.8399999999999999

>  <m_primary>  (23) 
energy

>  <rmsd>  (23) 
1.7025056488279522

>  <m_score__min__rmsd>  (23) 
1.7025056488279522

>  <meeko>  (23) 
{"free_energy": -8.14, "intermolecular_energy": -9.63, "internal_energy": -2.0, "cluster_size": 10, "cluster_id": 2, "rank_in_cluster": 9}

>  <energy>  (23) 
-8.71

>  <cluster_rmsd>  (23) 
0.54

>  <cluster>  (23) 
1

$$$$

     RDKit          3D

 48 51  0  0  0  0  0  0  0  0999 V2000
  140.2590   71.3170  221.3460 O   0  0  0  0  0  0  0  0  0  0  0  0
  140.0310   71.8810  222.4400 C   0  0  0  0  0  0  0  0  0  0  0  0
  139.7620   73.2780  222.4510 N   0  0  0  0  0  0  0  0  0  0  0  0
  139.7420   74.0710  221.2540 C   0  0  0  0  0  0  0  0  0  0  0  0
  140.1450   75.4950  221.5340 C   0  0  0  0  0  0  0  0  0  0  0  0
  139.9740   75.8780  222.7110 O   0  0  0  0  0  0  0  0  0  0  0  0
  140.6650   76.2460  220.4760 N   0  0  0  0  0  0  0  0  0  0  0  0
  140.9380   75.7390  219.0970 C   0  0  0  0  0  0  0  0  0  0  0  0
  142.4060   76.0870  218.9970 C   0  0  0  0  0  0  0  0  0  0  0  0
  142.4370   77.4640  219.6760 C   0  0  0  0  0  0  0  0  0  0  0  0
  141.0930   77.6260  220.3510 C   0  0  2  0  0  0  0  0  0  0  0  0
  141.0600   78.4540  221.5270 C   0  0  0  0  0  0  0  0  0  0  0  0
  142.2140   78.9850  222.0380 C   0  0  0  0  0  0  0  0  0  0  0  0
  142.2120   79.8070  223.1710 C   0  0  0  0  0  0  0  0  0  0  0  0
  141.0440   80.1230  223.8340 C   0  0  0  0  0  0  0  0  0  0  0  0
  139.8800   79.5890  223.3240 C   0  0  0  0  0  0  0  0  0  0  0  0
  138.7090   79.8800  223.9520 F   0  0  0  0  0  0  0  0  0  0  0  0
  139.8820   78.7820  222.2100 C   0  0  0  0  0  0  0  0  0  0  0  0
  140.0350   71.1330  223.7150 C   0  0  0  0  0  0  0  0  0  0  0  0
  139.5580   69.8390  223.7260 C   0  0  0  0  0  0  0  0  0  0  0  0
  139.5410   69.1020  224.8900 C   0  0  0  0  0  0  0  0  0  0  0  0
  140.0310   69.7460  226.0300 C   0  0  0  0  0  0  0  0  0  0  0  0
  140.0310   69.0410  227.2230 C   0  0  0  0  0  0  0  0  0  0  0  0
  140.5230   69.7020  228.3470 C   0  0  0  0  0  0  0  0  0  0  0  0
  140.9870   70.9910  228.2920 C   0  0  0  0  0  0  0  0  0  0  0  0
  140.9830   71.6910  227.0950 C   0  0  0  0  0  0  0  0  0  0  0  0
  140.4970   71.0340  225.9880 C   0  0  0  0  0  0  0  0  0  0  0  0
  140.4920   71.7090  224.8250 N   0  0  0  0  0  0  0  0  0  0  0  0
  139.5760   73.7110  223.4040 H   0  0  0  0  0  0  0  0  0  0  0  0
  140.4423   73.6372  220.5251 H   0  0  0  0  0  0  0  0  0  0  0  0
  138.7167   74.0723  220.8555 H   0  0  0  0  0  0  0  0  0  0  0  0
  140.7654   74.6557  219.0152 H   0  0  0  0  0  0  0  0  0  0  0  0
  140.2995   76.1591  218.3059 H   0  0  0  0  0  0  0  0  0  0  0  0
  143.0299   75.3585  219.5356 H   0  0  0  0  0  0  0  0  0  0  0  0
  142.8006   76.0826  217.9702 H   0  0  0  0  0  0  0  0  0  0  0  0
  143.2460   77.5051  220.4202 H   0  0  0  0  0  0  0  0  0  0  0  0
  142.6222   78.2680  218.9485 H   0  0  0  0  0  0  0  0  0  0  0  0
  140.3770   78.2324  219.7769 H   0  0  0  0  0  0  0  0  0  0  0  0
  143.1704   78.7591  221.5438 H   0  0  0  0  0  0  0  0  0  0  0  0
  143.1654   80.2111  223.5420 H   0  0  0  0  0  0  0  0  0  0  0  0
  141.0418   80.7685  224.7247 H   0  0  0  0  0  0  0  0  0  0  0  0
  138.9258   78.3806  221.8431 H   0  0  0  0  0  0  0  0  0  0  0  0
  139.1863   69.3895  222.7934 H   0  0  0  0  0  0  0  0  0  0  0  0
  139.1645   68.0689  224.9205 H   0  0  0  0  0  0  0  0  0  0  0  0
  139.6597   68.0071  227.2802 H   0  0  0  0  0  0  0  0  0  0  0  0
  140.5396   69.1718  229.3106 H   0  0  0  0  0  0  0  0  0  0  0  0
  141.3656   71.4739  229.2050 H   0  0  0  0  0  0  0  0  0  0  0  0
  141.3519   72.7254  227.0332 H   0  0  0  0  0  0  0  0  0  0  0  0
  1  2  2  0
  2  3  1  0
  3  4  1  0
  4  5  1  0
  5  6  2  0
  5  7  1  0
  7  8  1  0
  8  9  1  0
  9 10  1  0
 10 11  1  0
 11 12  1  0
 12 13  2  0
 13 14  1  0
 14 15  2  0
 15 16  1  0
 16 17  1  0
 16 18  2  0
  2 19  1  0
 19 20  2  0
 20 21  1  0
 21 22  2  0
 22 23  1  0
 23 24  2  0
 24 25  1  0
 25 26  2  0
 26 27  1  0
 27 28  2  0
 11  7  1  0
 18 12  1  0
 28 19  1  0
 27 22  1  0
  3 29  1  0
  4 30  1  0
  4 31  1  0
  8 32  1  0
  8 33  1  0
  9 34  1  0
  9 35  1  0
 10 36  1  0
 10 37  1  0
 11 38  1  6
 13 39  1  0
 14 40  1  0
 15 41  1  0
 18 42  1  0
 20 43  1  0
 21 44  1  0
 23 45  1  0
 24 46  1  0
 25 47  1  0
 26 48  1  0
M  END
>  <smiles>  (24) 
O=C(NCC(=O)N1CCCC1c1cccc(F)c1)c1ccc2ccccc2n1

>  <score_type>  (24) 
oracle

>  <origin>  (24) 
autodockgpu

>  <m_score__min__energy>  (24) 
-8.8399999999999999

>  <m_primary>  (24) 
energy

>  <rmsd>  (24) 
1.657223322313822

>  <m_score__min__rmsd>  (24) 
1.657223322313822

>  <meeko>  (24) 
{"free_energy": -8.7, "intermolecular_energy": -10.2, "internal_energy": -1.81, "cluster_size": 38, "cluster_id": 1, "rank_in_cluster": 27}

>  <energy>  (24) 
-8.71

>  <cluster_rmsd>  (24) 
0.54

>  <cluster>  (24) 
1

$$$$

     RDKit          3D

 48 51  0  0  0  0  0  0  0  0999 V2000
  140.2920   71.4190  221.3450 O   0  0  0  0  0  0  0  0  0  0  0  0
  140.0550   71.9850  222.4360 C   0  0  0  0  0  0  0  0  0  0  0  0
  139.7780   73.3810  222.4400 N   0  0  0  0  0  0  0  0  0  0  0  0
  139.7600   74.1690  221.2400 C   0  0  0  0  0  0  0  0  0  0  0  0
  140.1410   75.5990  221.5170 C   0  0  0  0  0  0  0  0  0  0  0  0
  140.0260   75.9620  222.7080 O   0  0  0  0  0  0  0  0  0  0  0  0
  140.5820   76.3780  220.4440 N   0  0  0  0  0  0  0  0  0  0  0  0
  140.7770   75.9010  219.0420 C   0  0  0  0  0  0  0  0  0  0  0  0
  142.2290   76.2760  218.8560 C   0  0  0  0  0  0  0  0  0  0  0  0
  142.2810   77.6400  219.5590 C   0  0  0  0  0  0  0  0  0  0  0  0
  140.9790   77.7670  220.3180 C   0  0  2  0  0  0  0  0  0  0  0  0
  141.0060   78.5730  221.5100 C   0  0  0  0  0  0  0  0  0  0  0  0
  142.1870   79.0880  221.9760 C   0  0  0  0  0  0  0  0  0  0  0  0
  142.2420   79.8880  223.1230 C   0  0  0  0  0  0  0  0  0  0  0  0
  141.1090   80.2000  223.8450 C   0  0  0  0  0  0  0  0  0  0  0  0
  139.9190   79.6820  223.3800 C   0  0  0  0  0  0  0  0  0  0  0  0
  138.7800   79.9680  224.0670 F   0  0  0  0  0  0  0  0  0  0  0  0
  139.8630   78.8970  222.2530 C   0  0  0  0  0  0  0  0  0  0  0  0
  140.0560   71.2430  223.7130 C   0  0  0  0  0  0  0  0  0  0  0  0
  139.5770   69.9500  223.7300 C   0  0  0  0  0  0  0  0  0  0  0  0
  139.5580   69.2180  224.8970 C   0  0  0  0  0  0  0  0  0  0  0  0
  140.0480   69.8660  226.0350 C   0  0  0  0  0  0  0  0  0  0  0  0
  140.0460   69.1660  227.2300 C   0  0  0  0  0  0  0  0  0  0  0  0
  140.5380   69.8300  228.3520 C   0  0  0  0  0  0  0  0  0  0  0  0
  141.0050   71.1180  228.2920 C   0  0  0  0  0  0  0  0  0  0  0  0
  141.0040   71.8130  227.0920 C   0  0  0  0  0  0  0  0  0  0  0  0
  140.5170   71.1520  225.9880 C   0  0  0  0  0  0  0  0  0  0  0  0
  140.5140   71.8230  224.8220 N   0  0  0  0  0  0  0  0  0  0  0  0
  139.5840   73.8170  223.3900 H   0  0  0  0  0  0  0  0  0  0  0  0
  140.4734   73.7414  220.5201 H   0  0  0  0  0  0  0  0  0  0  0  0
  138.7386   74.1554  220.8318 H   0  0  0  0  0  0  0  0  0  0  0  0
  140.6175   74.8165  218.9508 H   0  0  0  0  0  0  0  0  0  0  0  0
  140.0834   76.3245  218.3006 H   0  0  0  0  0  0  0  0  0  0  0  0
  142.8977   75.5484  219.3392 H   0  0  0  0  0  0  0  0  0  0  0  0
  142.5573   76.2978  217.8064 H   0  0  0  0  0  0  0  0  0  0  0  0
  143.1336   77.6802  220.2529 H   0  0  0  0  0  0  0  0  0  0  0  0
  142.4089   78.4607  218.8378 H   0  0  0  0  0  0  0  0  0  0  0  0
  140.2195   78.3710  219.7999 H   0  0  0  0  0  0  0  0  0  0  0  0
  143.1179   78.8665  221.4335 H   0  0  0  0  0  0  0  0  0  0  0  0
  143.2145   80.2783  223.4575 H   0  0  0  0  0  0  0  0  0  0  0  0
  141.1526   80.8299  224.7457 H   0  0  0  0  0  0  0  0  0  0  0  0
  138.8876   78.5099  221.9231 H   0  0  0  0  0  0  0  0  0  0  0  0
  139.2050   69.4969  222.7992 H   0  0  0  0  0  0  0  0  0  0  0  0
  139.1800   68.1856  224.9314 H   0  0  0  0  0  0  0  0  0  0  0  0
  139.6730   68.1329  227.2907 H   0  0  0  0  0  0  0  0  0  0  0  0
  140.5522   69.3036  229.3178 H   0  0  0  0  0  0  0  0  0  0  0  0
  141.3836   71.6039  229.2034 H   0  0  0  0  0  0  0  0  0  0  0  0
  141.3758   72.8461  227.0258 H   0  0  0  0  0  0  0  0  0  0  0  0
  1  2  2  0
  2  3  1  0
  3  4  1  0
  4  5  1  0
  5  6  2  0
  5  7  1  0
  7  8  1  0
  8  9  1  0
  9 10  1  0
 10 11  1  0
 11 12  1  0
 12 13  2  0
 13 14  1  0
 14 15  2  0
 15 16  1  0
 16 17  1  0
 16 18  2  0
  2 19  1  0
 19 20  2  0
 20 21  1  0
 21 22  2  0
 22 23  1  0
 23 24  2  0
 24 25  1  0
 25 26  2  0
 26 27  1  0
 27 28  2  0
 11  7  1  0
 18 12  1  0
 28 19  1  0
 27 22  1  0
  3 29  1  0
  4 30  1  0
  4 31  1  0
  8 32  1  0
  8 33  1  0
  9 34  1  0
  9 35  1  0
 10 36  1  0
 10 37  1  0
 11 38  1  6
 13 39  1  0
 14 40  1  0
 15 41  1  0
 18 42  1  0
 20 43  1  0
 21 44  1  0
 23 45  1  0
 24 46  1  0
 25 47  1  0
 26 48  1  0
M  END
>  <smiles>  (25) 
O=C(NCC(=O)N1CCCC1c1cccc(F)c1)c1ccc2ccccc2n1

>  <score_type>  (25) 
oracle

>  <origin>  (25) 
autodockgpu

>  <m_score__min__energy>  (25) 
-8.8399999999999999

>  <m_primary>  (25) 
energy

>  <rmsd>  (25) 
1.6501100839149128

>  <m_score__min__rmsd>  (25) 
1.6501100839149128

>  <meeko>  (25) 
{"free_energy": -8.69, "intermolecular_energy": -10.18, "internal_energy": -1.83, "cluster_size": 38, "cluster_id": 1, "rank_in_cluster": 28}

>  <energy>  (25) 
-8.71

>  <cluster_rmsd>  (25) 
0.54

>  <cluster>  (25) 
1

$$$$

     RDKit          3D

 48 51  0  0  0  0  0  0  0  0999 V2000
  140.5120   71.3500  221.3260 O   0  0  0  0  0  0  0  0  0  0  0  0
  140.2020   71.9340  222.3890 C   0  0  0  0  0  0  0  0  0  0  0  0
  139.9080   73.3250  222.3500 N   0  0  0  0  0  0  0  0  0  0  0  0
  139.9530   74.0910  221.1360 C   0  0  0  0  0  0  0  0  0  0  0  0
  140.1730   75.5540  221.4190 C   0  0  0  0  0  0  0  0  0  0  0  0
  139.9560   75.9090  222.5970 O   0  0  0  0  0  0  0  0  0  0  0  0
  140.5930   76.3670  220.3620 N   0  0  0  0  0  0  0  0  0  0  0  0
  140.7620   75.9350  218.9420 C   0  0  0  0  0  0  0  0  0  0  0  0
  142.2100   76.3180  218.7420 C   0  0  0  0  0  0  0  0  0  0  0  0
  142.2740   77.6590  219.4860 C   0  0  0  0  0  0  0  0  0  0  0  0
  140.9860   77.7600  220.2740 C   0  0  2  0  0  0  0  0  0  0  0  0
  141.0350   78.5280  221.4900 C   0  0  0  0  0  0  0  0  0  0  0  0
  142.2250   79.0190  221.9560 C   0  0  0  0  0  0  0  0  0  0  0  0
  142.3020   79.7830  223.1270 C   0  0  0  0  0  0  0  0  0  0  0  0
  141.1810   80.0780  223.8740 C   0  0  0  0  0  0  0  0  0  0  0  0
  139.9800   79.5840  223.4090 C   0  0  0  0  0  0  0  0  0  0  0  0
  138.8530   79.8550  224.1200 F   0  0  0  0  0  0  0  0  0  0  0  0
  139.9050   78.8340  222.2580 C   0  0  0  0  0  0  0  0  0  0  0  0
  140.1350   71.2150  223.6780 C   0  0  0  0  0  0  0  0  0  0  0  0
  139.5850   69.9500  223.7050 C   0  0  0  0  0  0  0  0  0  0  0  0
  139.5010   69.2400  224.8830 C   0  0  0  0  0  0  0  0  0  0  0  0
  140.0000   69.8810  226.0210 C   0  0  0  0  0  0  0  0  0  0  0  0
  139.9340   69.2030  227.2270 C   0  0  0  0  0  0  0  0  0  0  0  0
  140.4360   69.8590  228.3490 C   0  0  0  0  0  0  0  0  0  0  0  0
  140.9740   71.1180  228.2790 C   0  0  0  0  0  0  0  0  0  0  0  0
  141.0370   71.7920  227.0680 C   0  0  0  0  0  0  0  0  0  0  0  0
  140.5400   71.1390  225.9640 C   0  0  0  0  0  0  0  0  0  0  0  0
  140.5980   71.7880  224.7870 N   0  0  0  0  0  0  0  0  0  0  0  0
  139.6500   73.7760  223.2780 H   0  0  0  0  0  0  0  0  0  0  0  0
  140.7767   73.7197  220.5085 H   0  0  0  0  0  0  0  0  0  0  0  0
  138.9885   73.9789  220.6191 H   0  0  0  0  0  0  0  0  0  0  0  0
  140.6018   74.8537  218.8191 H   0  0  0  0  0  0  0  0  0  0  0  0
  140.0544   76.3805  218.2273 H   0  0  0  0  0  0  0  0  0  0  0  0
  142.8879   75.5766  219.1900 H   0  0  0  0  0  0  0  0  0  0  0  0
  142.5191   76.3734  217.6878 H   0  0  0  0  0  0  0  0  0  0  0  0
  143.1397   77.6789  220.1643 H   0  0  0  0  0  0  0  0  0  0  0  0
  142.3870   78.5020  218.7885 H   0  0  0  0  0  0  0  0  0  0  0  0
  140.2157   78.3793  219.7912 H   0  0  0  0  0  0  0  0  0  0  0  0
  143.1469   78.8073  221.3945 H   0  0  0  0  0  0  0  0  0  0  0  0
  143.2815   80.1573  223.4594 H   0  0  0  0  0  0  0  0  0  0  0  0
  141.2415   80.6772  224.7945 H   0  0  0  0  0  0  0  0  0  0  0  0
  138.9233   78.4619  221.9298 H   0  0  0  0  0  0  0  0  0  0  0  0
  139.2084   69.5021  222.7736 H   0  0  0  0  0  0  0  0  0  0  0  0
  139.0675   68.2299  224.9255 H   0  0  0  0  0  0  0  0  0  0  0  0
  139.5048   68.1926  227.2958 H   0  0  0  0  0  0  0  0  0  0  0  0
  140.3994   69.3498  229.3234 H   0  0  0  0  0  0  0  0  0  0  0  0
  141.3590   71.5979  229.1908 H   0  0  0  0  0  0  0  0  0  0  0  0
  141.4649   72.8026  226.9940 H   0  0  0  0  0  0  0  0  0  0  0  0
  1  2  2  0
  2  3  1  0
  3  4  1  0
  4  5  1  0
  5  6  2  0
  5  7  1  0
  7  8  1  0
  8  9  1  0
  9 10  1  0
 10 11  1  0
 11 12  1  0
 12 13  2  0
 13 14  1  0
 14 15  2  0
 15 16  1  0
 16 17  1  0
 16 18  2  0
  2 19  1  0
 19 20  2  0
 20 21  1  0
 21 22  2  0
 22 23  1  0
 23 24  2  0
 24 25  1  0
 25 26  2  0
 26 27  1  0
 27 28  2  0
 11  7  1  0
 18 12  1  0
 28 19  1  0
 27 22  1  0
  3 29  1  0
  4 30  1  0
  4 31  1  0
  8 32  1  0
  8 33  1  0
  9 34  1  0
  9 35  1  0
 10 36  1  0
 10 37  1  0
 11 38  1  6
 13 39  1  0
 14 40  1  0
 15 41  1  0
 18 42  1  0
 20 43  1  0
 21 44  1  0
 23 45  1  0
 24 46  1  0
 25 47  1  0
 26 48  1  0
M  END
>  <smiles>  (26) 
O=C(NCC(=O)N1CCCC1c1cccc(F)c1)c1ccc2ccccc2n1

>  <score_type>  (26) 
oracle

>  <origin>  (26) 
autodockgpu

>  <m_score__min__energy>  (26) 
-8.8399999999999999

>  <m_primary>  (26) 
energy

>  <rmsd>  (26) 
1.664007930004539

>  <m_score__min__rmsd>  (26) 
1.664007930004539

>  <meeko>  (26) 
{"free_energy": -8.71, "intermolecular_energy": -10.2, "internal_energy": -1.83, "cluster_size": 38, "cluster_id": 1, "rank_in_cluster": 23}

>  <energy>  (26) 
-8.71

>  <cluster_rmsd>  (26) 
0.53

>  <cluster>  (26) 
1

$$$$

     RDKit          3D

 48 51  0  0  0  0  0  0  0  0999 V2000
  140.9310   71.3490  221.3540 O   0  0  0  0  0  0  0  0  0  0  0  0
  140.4910   71.9680  222.3490 C   0  0  0  0  0  0  0  0  0  0  0  0
  140.2020   73.3560  222.2220 N   0  0  0  0  0  0  0  0  0  0  0  0
  140.3970   74.0770  220.9960 C   0  0  0  0  0  0  0  0  0  0  0  0
  140.9290   75.4620  221.2540 C   0  0  0  0  0  0  0  0  0  0  0  0
  140.7150   75.9120  222.4000 O   0  0  0  0  0  0  0  0  0  0  0  0
  141.6010   76.1090  220.2120 N   0  0  0  0  0  0  0  0  0  0  0  0
  141.1360   77.3400  219.5060 C   0  0  0  0  0  0  0  0  0  0  0  0
  141.1230   76.8180  218.0880 C   0  0  0  0  0  0  0  0  0  0  0  0
  142.4020   75.9680  218.0670 C   0  0  0  0  0  0  0  0  0  0  0  0
  142.8400   75.8400  219.5090 C   0  0  2  0  0  0  0  0  0  0  0  0
  143.5710   74.6490  219.8550 C   0  0  0  0  0  0  0  0  0  0  0  0
  143.0710   73.4120  219.5500 C   0  0  0  0  0  0  0  0  0  0  0  0
  143.7660   72.2370  219.8600 C   0  0  0  0  0  0  0  0  0  0  0  0
  144.9920   72.2650  220.4910 C   0  0  0  0  0  0  0  0  0  0  0  0
  145.4980   73.5090  220.8020 C   0  0  0  0  0  0  0  0  0  0  0  0
  146.7050   73.5760  221.4250 F   0  0  0  0  0  0  0  0  0  0  0  0
  144.8160   74.6640  220.4970 C   0  0  0  0  0  0  0  0  0  0  0  0
  140.2640   71.2960  223.6450 C   0  0  0  0  0  0  0  0  0  0  0  0
  139.5890   70.0930  223.6590 C   0  0  0  0  0  0  0  0  0  0  0  0
  139.3540   69.4290  224.8440 C   0  0  0  0  0  0  0  0  0  0  0  0
  139.8380   70.0490  226.0000 C   0  0  0  0  0  0  0  0  0  0  0  0
  139.6230   69.4150  227.2120 C   0  0  0  0  0  0  0  0  0  0  0  0
  140.1130   70.0480  228.3530 C   0  0  0  0  0  0  0  0  0  0  0  0
  140.7790   71.2450  228.2930 C   0  0  0  0  0  0  0  0  0  0  0  0
  140.9910   71.8750  227.0760 C   0  0  0  0  0  0  0  0  0  0  0  0
  140.5050   71.2440  225.9540 C   0  0  0  0  0  0  0  0  0  0  0  0
  140.7080   71.8520  224.7710 N   0  0  0  0  0  0  0  0  0  0  0  0
  139.8310   73.8380  223.0940 H   0  0  0  0  0  0  0  0  0  0  0  0
  141.1148   73.5287  220.3682 H   0  0  0  0  0  0  0  0  0  0  0  0
  139.4254   74.1675  220.4883 H   0  0  0  0  0  0  0  0  0  0  0  0
  140.1349   77.6515  219.8387 H   0  0  0  0  0  0  0  0  0  0  0  0
  141.7506   78.2372  219.6711 H   0  0  0  0  0  0  0  0  0  0  0  0
  140.2300   76.2062  217.8925 H   0  0  0  0  0  0  0  0  0  0  0  0
  141.0926   77.6043  217.3193 H   0  0  0  0  0  0  0  0  0  0  0  0
  142.1945   74.9754  217.6408 H   0  0  0  0  0  0  0  0  0  0  0  0
  143.1840   76.4313  217.4476 H   0  0  0  0  0  0  0  0  0  0  0  0
  143.6391   76.5395  219.7955 H   0  0  0  0  0  0  0  0  0  0  0  0
  142.0954   73.3390  219.0471 H   0  0  0  0  0  0  0  0  0  0  0  0
  143.3228   71.2662  219.5934 H   0  0  0  0  0  0  0  0  0  0  0  0
  145.5383   71.3416  220.7338 H   0  0  0  0  0  0  0  0  0  0  0  0
  145.2634   75.6322  220.7663 H   0  0  0  0  0  0  0  0  0  0  0  0
  139.2339   69.6583  222.7130 H   0  0  0  0  0  0  0  0  0  0  0  0
  138.8179   68.4691  224.8781 H   0  0  0  0  0  0  0  0  0  0  0  0
  139.0895   68.4549  227.2717 H   0  0  0  0  0  0  0  0  0  0  0  0
  139.9606   69.5721  229.3329 H   0  0  0  0  0  0  0  0  0  0  0  0
  141.1486   71.7099  229.2189 H   0  0  0  0  0  0  0  0  0  0  0  0
  141.5234   72.8354  227.0106 H   0  0  0  0  0  0  0  0  0  0  0  0
  1  2  2  0
  2  3  1  0
  3  4  1  0
  4  5  1  0
  5  6  2  0
  5  7  1  0
  7  8  1  0
  8  9  1  0
  9 10  1  0
 10 11  1  0
 11 12  1  0
 12 13  2  0
 13 14  1  0
 14 15  2  0
 15 16  1  0
 16 17  1  0
 16 18  2  0
  2 19  1  0
 19 20  2  0
 20 21  1  0
 21 22  2  0
 22 23  1  0
 23 24  2  0
 24 25  1  0
 25 26  2  0
 26 27  1  0
 27 28  2  0
 11  7  1  0
 18 12  1  0
 28 19  1  0
 27 22  1  0
  3 29  1  0
  4 30  1  0
  4 31  1  0
  8 32  1  0
  8 33  1  0
  9 34  1  0
  9 35  1  0
 10 36  1  0
 10 37  1  0
 11 38  1  1
 13 39  1  0
 14 40  1  0
 15 41  1  0
 18 42  1  0
 20 43  1  0
 21 44  1  0
 23 45  1  0
 24 46  1  0
 25 47  1  0
 26 48  1  0
M  END
>  <smiles>  (27) 
O=C(NCC(=O)N1CCCC1c1cccc(F)c1)c1ccc2ccccc2n1

>  <score_type>  (27) 
oracle

>  <origin>  (27) 
autodockgpu

>  <m_score__min__energy>  (27) 
-8.8399999999999999

>  <m_primary>  (27) 
energy

>  <rmsd>  (27) 
2.063795329491622

>  <m_score__min__rmsd>  (27) 
2.063795329491622

>  <meeko>  (27) 
{"free_energy": -8.41, "intermolecular_energy": -9.9, "internal_energy": -1.95, "cluster_size": 10, "cluster_id": 2, "rank_in_cluster": 6}

>  <energy>  (27) 
-8.7

>  <cluster_rmsd>  (27) 
0.5

>  <cluster>  (27) 
1

$$$$

     RDKit          3D

 48 51  0  0  0  0  0  0  0  0999 V2000
  140.7710   71.4420  221.3830 O   0  0  0  0  0  0  0  0  0  0  0  0
  140.3250   72.0130  222.4030 C   0  0  0  0  0  0  0  0  0  0  0  0
  139.9470   73.3820  222.3160 N   0  0  0  0  0  0  0  0  0  0  0  0
  140.0580   74.1380  221.1000 C   0  0  0  0  0  0  0  0  0  0  0  0
  140.2080   75.6100  221.3820 C   0  0  0  0  0  0  0  0  0  0  0  0
  140.0080   75.9500  222.5670 O   0  0  0  0  0  0  0  0  0  0  0  0
  140.5520   76.4480  220.3160 N   0  0  0  0  0  0  0  0  0  0  0  0
  140.6710   76.0350  218.8860 C   0  0  0  0  0  0  0  0  0  0  0  0
  142.0950   76.4690  218.6250 C   0  0  0  0  0  0  0  0  0  0  0  0
  142.1470   77.8050  219.3800 C   0  0  0  0  0  0  0  0  0  0  0  0
  140.8940   77.8540  220.2260 C   0  0  2  0  0  0  0  0  0  0  0  0
  140.9720   78.6110  221.4470 C   0  0  0  0  0  0  0  0  0  0  0  0
  142.1800   79.0530  221.9170 C   0  0  0  0  0  0  0  0  0  0  0  0
  142.2850   79.8050  223.0920 C   0  0  0  0  0  0  0  0  0  0  0  0
  141.1760   80.1400  223.8410 C   0  0  0  0  0  0  0  0  0  0  0  0
  139.9580   79.6960  223.3720 C   0  0  0  0  0  0  0  0  0  0  0  0
  138.8410   80.0070  224.0840 F   0  0  0  0  0  0  0  0  0  0  0  0
  139.8530   78.9570  222.2170 C   0  0  0  0  0  0  0  0  0  0  0  0
  140.1810   71.3030  223.6910 C   0  0  0  0  0  0  0  0  0  0  0  0
  139.5730   70.0650  223.7020 C   0  0  0  0  0  0  0  0  0  0  0  0
  139.4170   69.3650  224.8780 C   0  0  0  0  0  0  0  0  0  0  0  0
  139.9070   69.9860  226.0310 C   0  0  0  0  0  0  0  0  0  0  0  0
  139.7700   69.3160  227.2350 C   0  0  0  0  0  0  0  0  0  0  0  0
  140.2660   69.9520  228.3730 C   0  0  0  0  0  0  0  0  0  0  0  0
  140.8640   71.1850  228.3170 C   0  0  0  0  0  0  0  0  0  0  0  0
  140.9980   71.8500  227.1070 C   0  0  0  0  0  0  0  0  0  0  0  0
  140.5070   71.2170  225.9890 C   0  0  0  0  0  0  0  0  0  0  0  0
  140.6350   71.8590  224.8130 N   0  0  0  0  0  0  0  0  0  0  0  0
  139.5750   73.8230  223.2080 H   0  0  0  0  0  0  0  0  0  0  0  0
  140.9383   73.7890  220.5403 H   0  0  0  0  0  0  0  0  0  0  0  0
  139.1394   73.9889  220.5136 H   0  0  0  0  0  0  0  0  0  0  0  0
  140.5419   74.9500  218.7591 H   0  0  0  0  0  0  0  0  0  0  0  0
  139.9172   76.4626  218.2085 H   0  0  0  0  0  0  0  0  0  0  0  0
  142.8172   75.7471  219.0342 H   0  0  0  0  0  0  0  0  0  0  0  0
  142.3541   76.5444  217.5586 H   0  0  0  0  0  0  0  0  0  0  0  0
  143.0415   77.8487  220.0187 H   0  0  0  0  0  0  0  0  0  0  0  0
  142.1994   78.6579  218.6873 H   0  0  0  0  0  0  0  0  0  0  0  0
  140.0825   78.4514  219.7849 H   0  0  0  0  0  0  0  0  0  0  0  0
  143.0936   78.8098  221.3547 H   0  0  0  0  0  0  0  0  0  0  0  0
  143.2782   80.1380  223.4276 H   0  0  0  0  0  0  0  0  0  0  0  0
  141.2593   80.7310  224.7650 H   0  0  0  0  0  0  0  0  0  0  0  0
  138.8574   78.6263  221.8863 H   0  0  0  0  0  0  0  0  0  0  0  0
  139.2080   69.6311  222.7594 H   0  0  0  0  0  0  0  0  0  0  0  0
  138.9357   68.3764  224.9083 H   0  0  0  0  0  0  0  0  0  0  0  0
  139.2917   68.3270  227.2915 H   0  0  0  0  0  0  0  0  0  0  0  0
  140.1746   69.4485  229.3467 H   0  0  0  0  0  0  0  0  0  0  0  0
  141.2406   71.6507  229.2397 H   0  0  0  0  0  0  0  0  0  0  0  0
  141.4754   72.8390  227.0445 H   0  0  0  0  0  0  0  0  0  0  0  0
  1  2  2  0
  2  3  1  0
  3  4  1  0
  4  5  1  0
  5  6  2  0
  5  7  1  0
  7  8  1  0
  8  9  1  0
  9 10  1  0
 10 11  1  0
 11 12  1  0
 12 13  2  0
 13 14  1  0
 14 15  2  0
 15 16  1  0
 16 17  1  0
 16 18  2  0
  2 19  1  0
 19 20  2  0
 20 21  1  0
 21 22  2  0
 22 23  1  0
 23 24  2  0
 24 25  1  0
 25 26  2  0
 26 27  1  0
 27 28  2  0
 11  7  1  0
 18 12  1  0
 28 19  1  0
 27 22  1  0
  3 29  1  0
  4 30  1  0
  4 31  1  0
  8 32  1  0
  8 33  1  0
  9 34  1  0
  9 35  1  0
 10 36  1  0
 10 37  1  0
 11 38  1  6
 13 39  1  0
 14 40  1  0
 15 41  1  0
 18 42  1  0
 20 43  1  0
 21 44  1  0
 23 45  1  0
 24 46  1  0
 25 47  1  0
 26 48  1  0
M  END
>  <smiles>  (28) 
O=C(NCC(=O)N1CCCC1c1cccc(F)c1)c1ccc2ccccc2n1

>  <score_type>  (28) 
oracle

>  <origin>  (28) 
autodockgpu

>  <m_score__min__energy>  (28) 
-8.8399999999999999

>  <m_primary>  (28) 
energy

>  <rmsd>  (28) 
1.692627330973528

>  <m_score__min__rmsd>  (28) 
1.692627330973528

>  <meeko>  (28) 
{"free_energy": -8.74, "intermolecular_energy": -10.23, "internal_energy": -1.81, "cluster_size": 38, "cluster_id": 1, "rank_in_cluster": 14}

>  <energy>  (28) 
-8.69

>  <cluster_rmsd>  (28) 
0.53

>  <cluster>  (28) 
1

$$$$

     RDKit          3D

 48 51  0  0  0  0  0  0  0  0999 V2000
  141.3080   72.5020  221.9580 O   0  0  0  0  0  0  0  0  0  0  0  0
  140.2650   72.4430  222.6490 C   0  0  0  0  0  0  0  0  0  0  0  0
  139.1610   73.2690  222.3000 N   0  0  0  0  0  0  0  0  0  0  0  0
  139.1940   74.1730  221.1840 C   0  0  0  0  0  0  0  0  0  0  0  0
  139.8710   75.4680  221.5480 C   0  0  0  0  0  0  0  0  0  0  0  0
  139.7120   75.8400  222.7310 O   0  0  0  0  0  0  0  0  0  0  0  0
  140.6010   76.1260  220.5540 N   0  0  0  0  0  0  0  0  0  0  0  0
  141.0100   75.5410  219.2410 C   0  0  0  0  0  0  0  0  0  0  0  0
  142.5050   75.7480  219.3380 C   0  0  0  0  0  0  0  0  0  0  0  0
  142.5750   77.1420  219.9790 C   0  0  0  0  0  0  0  0  0  0  0  0
  141.1730   77.4540  220.4530 C   0  0  2  0  0  0  0  0  0  0  0  0
  141.0600   78.3280  221.5910 C   0  0  0  0  0  0  0  0  0  0  0  0
  142.1720   78.9160  222.1320 C   0  0  0  0  0  0  0  0  0  0  0  0
  142.0900   79.7830  223.2270 C   0  0  0  0  0  0  0  0  0  0  0  0
  140.8840   80.0880  223.8230 C   0  0  0  0  0  0  0  0  0  0  0  0
  139.7620   79.4960  223.2820 C   0  0  0  0  0  0  0  0  0  0  0  0
  138.5540   79.7740  223.8430 F   0  0  0  0  0  0  0  0  0  0  0  0
  139.8410   78.6460  222.2050 C   0  0  0  0  0  0  0  0  0  0  0  0
  140.1540   71.5380  223.8120 C   0  0  0  0  0  0  0  0  0  0  0  0
  139.5130   70.3270  223.6530 C   0  0  0  0  0  0  0  0  0  0  0  0
  139.3850   69.4510  224.7080 C   0  0  0  0  0  0  0  0  0  0  0  0
  139.9390   69.8690  225.9220 C   0  0  0  0  0  0  0  0  0  0  0  0
  139.8320   69.0180  227.0100 C   0  0  0  0  0  0  0  0  0  0  0  0
  140.3900   69.4540  228.2110 C   0  0  0  0  0  0  0  0  0  0  0  0
  141.0180   70.6670  228.3250 C   0  0  0  0  0  0  0  0  0  0  0  0
  141.1220   71.5140  227.2320 C   0  0  0  0  0  0  0  0  0  0  0  0
  140.5690   71.0790  226.0500 C   0  0  0  0  0  0  0  0  0  0  0  0
  140.6670   71.8980  224.9870 N   0  0  0  0  0  0  0  0  0  0  0  0
  138.2990   73.1830  222.9160 H   0  0  0  0  0  0  0  0  0  0  0  0
  139.7446   73.7011  220.3569 H   0  0  0  0  0  0  0  0  0  0  0  0
  138.1585   74.3946  220.8862 H   0  0  0  0  0  0  0  0  0  0  0  0
  140.7462   74.4758  219.1651 H   0  0  0  0  0  0  0  0  0  0  0  0
  140.5295   75.9861  218.3572 H   0  0  0  0  0  0  0  0  0  0  0  0
  142.9763   74.9868  219.9771 H   0  0  0  0  0  0  0  0  0  0  0  0
  143.0342   75.6670  218.3771 H   0  0  0  0  0  0  0  0  0  0  0  0
  143.2735   77.1373  220.8287 H   0  0  0  0  0  0  0  0  0  0  0  0
  142.9358   77.8963  219.2643 H   0  0  0  0  0  0  0  0  0  0  0  0
  140.6043   78.0997  219.7676 H   0  0  0  0  0  0  0  0  0  0  0  0
  143.1575   78.7006  221.6933 H   0  0  0  0  0  0  0  0  0  0  0  0
  143.0120   80.2335  223.6233 H   0  0  0  0  0  0  0  0  0  0  0  0
  140.8205   80.7682  224.6852 H   0  0  0  0  0  0  0  0  0  0  0  0
  138.9157   78.2000  221.8114 H   0  0  0  0  0  0  0  0  0  0  0  0
  139.0985   70.0573  222.6704 H   0  0  0  0  0  0  0  0  0  0  0  0
  138.8775   68.4808  224.6020 H   0  0  0  0  0  0  0  0  0  0  0  0
  139.3297   68.0427  226.9299 H   0  0  0  0  0  0  0  0  0  0  0  0
  140.3241   68.8035  229.0956 H   0  0  0  0  0  0  0  0  0  0  0  0
  141.4435   70.9714  229.2926 H   0  0  0  0  0  0  0  0  0  0  0  0
  141.6241   72.4898  227.3068 H   0  0  0  0  0  0  0  0  0  0  0  0
  1  2  2  0
  2  3  1  0
  3  4  1  0
  4  5  1  0
  5  6  2  0
  5  7  1  0
  7  8  1  0
  8  9  1  0
  9 10  1  0
 10 11  1  0
 11 12  1  0
 12 13  2  0
 13 14  1  0
 14 15  2  0
 15 16  1  0
 16 17  1  0
 16 18  2  0
  2 19  1  0
 19 20  2  0
 20 21  1  0
 21 22  2  0
 22 23  1  0
 23 24  2  0
 24 25  1  0
 25 26  2  0
 26 27  1  0
 27 28  2  0
 11  7  1  0
 18 12  1  0
 28 19  1  0
 27 22  1  0
  3 29  1  0
  4 30  1  0
  4 31  1  0
  8 32  1  0
  8 33  1  0
  9 34  1  0
  9 35  1  0
 10 36  1  0
 10 37  1  0
 11 38  1  6
 13 39  1  0
 14 40  1  0
 15 41  1  0
 18 42  1  0
 20 43  1  0
 21 44  1  0
 23 45  1  0
 24 46  1  0
 25 47  1  0
 26 48  1  0
M  END
>  <smiles>  (29) 
O=C(NCC(=O)N1CCCC1c1cccc(F)c1)c1ccc2ccccc2n1

>  <score_type>  (29) 
oracle

>  <origin>  (29) 
autodockgpu

>  <m_score__min__energy>  (29) 
-8.8399999999999999

>  <m_primary>  (29) 
energy

>  <rmsd>  (29) 
1.7649654811590825

>  <m_score__min__rmsd>  (29) 
1.7649654811590825

>  <meeko>  (29) 
{"free_energy": -8.81, "intermolecular_energy": -10.3, "internal_energy": -1.29, "cluster_size": 38, "cluster_id": 1, "rank_in_cluster": 2}

>  <energy>  (29) 
-8.69

>  <cluster_rmsd>  (29) 
0.5

>  <cluster>  (29) 
1

$$$$

     RDKit          3D

 48 51  0  0  0  0  0  0  0  0999 V2000
  140.5610   71.3670  221.3440 O   0  0  0  0  0  0  0  0  0  0  0  0
  140.2040   71.9470  222.3940 C   0  0  0  0  0  0  0  0  0  0  0  0
  139.8790   73.3310  222.3390 N   0  0  0  0  0  0  0  0  0  0  0  0
  139.9460   74.0930  221.1230 C   0  0  0  0  0  0  0  0  0  0  0  0
  140.1690   75.5550  221.4050 C   0  0  0  0  0  0  0  0  0  0  0  0
  139.9680   75.9090  222.5870 O   0  0  0  0  0  0  0  0  0  0  0  0
  140.5730   76.3710  220.3440 N   0  0  0  0  0  0  0  0  0  0  0  0
  140.7430   75.9350  218.9250 C   0  0  0  0  0  0  0  0  0  0  0  0
  142.1850   76.3380  218.7170 C   0  0  0  0  0  0  0  0  0  0  0  0
  142.2320   77.6830  219.4560 C   0  0  0  0  0  0  0  0  0  0  0  0
  140.9470   77.7680  220.2490 C   0  0  2  0  0  0  0  0  0  0  0  0
  140.9900   78.5410  221.4620 C   0  0  0  0  0  0  0  0  0  0  0  0
  142.1800   79.0210  221.9400 C   0  0  0  0  0  0  0  0  0  0  0  0
  142.2510   79.7890  223.1080 C   0  0  0  0  0  0  0  0  0  0  0  0
  141.1240   80.1020  223.8400 C   0  0  0  0  0  0  0  0  0  0  0  0
  139.9240   79.6190  223.3620 C   0  0  0  0  0  0  0  0  0  0  0  0
  138.7920   79.9070  224.0580 F   0  0  0  0  0  0  0  0  0  0  0  0
  139.8540   78.8650  222.2150 C   0  0  0  0  0  0  0  0  0  0  0  0
  140.1110   71.2320  223.6840 C   0  0  0  0  0  0  0  0  0  0  0  0
  139.5350   69.9790  223.7070 C   0  0  0  0  0  0  0  0  0  0  0  0
  139.4260   69.2730  224.8860 C   0  0  0  0  0  0  0  0  0  0  0  0
  139.9300   69.9050  226.0270 C   0  0  0  0  0  0  0  0  0  0  0  0
  139.8410   69.2300  227.2330 C   0  0  0  0  0  0  0  0  0  0  0  0
  140.3490   69.8770  228.3590 C   0  0  0  0  0  0  0  0  0  0  0  0
  140.9140   71.1240  228.2900 C   0  0  0  0  0  0  0  0  0  0  0  0
  141.0000   71.7940  227.0790 C   0  0  0  0  0  0  0  0  0  0  0  0
  140.4970   71.1510  225.9720 C   0  0  0  0  0  0  0  0  0  0  0  0
  140.5790   71.7970  224.7950 N   0  0  0  0  0  0  0  0  0  0  0  0
  139.5820   73.7790  223.2560 H   0  0  0  0  0  0  0  0  0  0  0  0
  140.7771   73.7157  220.5091 H   0  0  0  0  0  0  0  0  0  0  0  0
  138.9889   73.9840  220.5918 H   0  0  0  0  0  0  0  0  0  0  0  0
  140.5979   74.8509  218.8077 H   0  0  0  0  0  0  0  0  0  0  0  0
  140.0263   76.3672  218.2112 H   0  0  0  0  0  0  0  0  0  0  0  0
  142.8755   75.6083  219.1649 H   0  0  0  0  0  0  0  0  0  0  0  0
  142.4891   76.3935  217.6613 H   0  0  0  0  0  0  0  0  0  0  0  0
  143.1003   77.7185  220.1303 H   0  0  0  0  0  0  0  0  0  0  0  0
  142.3291   78.5249  218.7547 H   0  0  0  0  0  0  0  0  0  0  0  0
  140.1664   78.3746  219.7665 H   0  0  0  0  0  0  0  0  0  0  0  0
  143.1062   78.7967  221.3906 H   0  0  0  0  0  0  0  0  0  0  0  0
  143.2308   80.1525  223.4513 H   0  0  0  0  0  0  0  0  0  0  0  0
  141.1799   80.7058  224.7578 H   0  0  0  0  0  0  0  0  0  0  0  0
  138.8718   78.5034  221.8765 H   0  0  0  0  0  0  0  0  0  0  0  0
  139.1579   69.5375  222.7728 H   0  0  0  0  0  0  0  0  0  0  0  0
  138.9700   68.2728  224.9268 H   0  0  0  0  0  0  0  0  0  0  0  0
  139.3900   68.2289  227.2997 H   0  0  0  0  0  0  0  0  0  0  0  0
  140.2946   69.3704  229.3339 H   0  0  0  0  0  0  0  0  0  0  0  0
  141.3027   71.5975  229.2036 H   0  0  0  0  0  0  0  0  0  0  0  0
  141.4504   72.7950  227.0069 H   0  0  0  0  0  0  0  0  0  0  0  0
  1  2  2  0
  2  3  1  0
  3  4  1  0
  4  5  1  0
  5  6  2  0
  5  7  1  0
  7  8  1  0
  8  9  1  0
  9 10  1  0
 10 11  1  0
 11 12  1  0
 12 13  2  0
 13 14  1  0
 14 15  2  0
 15 16  1  0
 16 17  1  0
 16 18  2  0
  2 19  1  0
 19 20  2  0
 20 21  1  0
 21 22  2  0
 22 23  1  0
 23 24  2  0
 24 25  1  0
 25 26  2  0
 26 27  1  0
 27 28  2  0
 11  7  1  0
 18 12  1  0
 28 19  1  0
 27 22  1  0
  3 29  1  0
  4 30  1  0
  4 31  1  0
  8 32  1  0
  8 33  1  0
  9 34  1  0
  9 35  1  0
 10 36  1  0
 10 37  1  0
 11 38  1  6
 13 39  1  0
 14 40  1  0
 15 41  1  0
 18 42  1  0
 20 43  1  0
 21 44  1  0
 23 45  1  0
 24 46  1  0
 25 47  1  0
 26 48  1  0
M  END
>  <smiles>  (30) 
O=C(NCC(=O)N1CCCC1c1cccc(F)c1)c1ccc2ccccc2n1

>  <score_type>  (30) 
oracle

>  <origin>  (30) 
autodockgpu

>  <m_score__min__energy>  (30) 
-8.8399999999999999

>  <m_primary>  (30) 
energy

>  <rmsd>  (30) 
1.656055390526603

>  <m_score__min__rmsd>  (30) 
1.656055390526603

>  <meeko>  (30) 
{"free_energy": -8.74, "intermolecular_energy": -10.23, "internal_energy": -1.81, "cluster_size": 38, "cluster_id": 1, "rank_in_cluster": 11}

>  <energy>  (30) 
-8.69

>  <cluster_rmsd>  (30) 
0.58

>  <cluster>  (30) 
1

$$$$

     RDKit          3D

 48 51  0  0  0  0  0  0  0  0999 V2000
  140.3940   71.3090  221.3320 O   0  0  0  0  0  0  0  0  0  0  0  0
  140.1210   71.8960  222.4040 C   0  0  0  0  0  0  0  0  0  0  0  0
  139.8400   73.2900  222.3730 N   0  0  0  0  0  0  0  0  0  0  0  0
  139.8580   74.0550  221.1580 C   0  0  0  0  0  0  0  0  0  0  0  0
  140.1620   75.5060  221.4290 C   0  0  0  0  0  0  0  0  0  0  0  0
  139.9950   75.8750  222.6110 O   0  0  0  0  0  0  0  0  0  0  0  0
  140.5950   76.2930  220.3580 N   0  0  0  0  0  0  0  0  0  0  0  0
  140.7810   75.8260  218.9510 C   0  0  0  0  0  0  0  0  0  0  0  0
  142.2320   76.2030  218.7600 C   0  0  0  0  0  0  0  0  0  0  0  0
  142.2880   77.5620  219.4720 C   0  0  0  0  0  0  0  0  0  0  0  0
  140.9910   77.6830  220.2410 C   0  0  2  0  0  0  0  0  0  0  0  0
  141.0260   78.4800  221.4390 C   0  0  0  0  0  0  0  0  0  0  0  0
  139.8780   78.7380  222.1380 C   0  0  0  0  0  0  0  0  0  0  0  0
  139.8840   79.4960  223.3150 C   0  0  0  0  0  0  0  0  0  0  0  0
  141.0490   80.0260  223.8300 C   0  0  0  0  0  0  0  0  0  0  0  0
  142.2070   79.7690  223.1280 C   0  0  0  0  0  0  0  0  0  0  0  0
  143.3750   80.2750  223.6070 F   0  0  0  0  0  0  0  0  0  0  0  0
  142.2020   79.0240  221.9730 C   0  0  0  0  0  0  0  0  0  0  0  0
  140.0840   71.1770  223.6940 C   0  0  0  0  0  0  0  0  0  0  0  0
  139.5600   69.9010  223.7290 C   0  0  0  0  0  0  0  0  0  0  0  0
  139.5040   69.1920  224.9090 C   0  0  0  0  0  0  0  0  0  0  0  0
  140.0040   69.8440  226.0400 C   0  0  0  0  0  0  0  0  0  0  0  0
  139.9670   69.1660  227.2470 C   0  0  0  0  0  0  0  0  0  0  0  0
  140.4700   69.8330  228.3630 C   0  0  0  0  0  0  0  0  0  0  0  0
  140.9820   71.1020  228.2840 C   0  0  0  0  0  0  0  0  0  0  0  0
  141.0170   71.7760  227.0720 C   0  0  0  0  0  0  0  0  0  0  0  0
  140.5190   71.1120  225.9740 C   0  0  0  0  0  0  0  0  0  0  0  0
  140.5500   71.7610  224.7970 N   0  0  0  0  0  0  0  0  0  0  0  0
  139.6150   73.7430  223.3080 H   0  0  0  0  0  0  0  0  0  0  0  0
  140.6293   73.6463  220.4886 H   0  0  0  0  0  0  0  0  0  0  0  0
  138.8638   73.9897  220.6919 H   0  0  0  0  0  0  0  0  0  0  0  0
  140.6211   74.7421  218.8527 H   0  0  0  0  0  0  0  0  0  0  0  0
  140.0828   76.2542  218.2167 H   0  0  0  0  0  0  0  0  0  0  0  0
  142.9034   75.4722  219.2345 H   0  0  0  0  0  0  0  0  0  0  0  0
  142.5544   76.2325  217.7087 H   0  0  0  0  0  0  0  0  0  0  0  0
  143.1453   77.5979  220.1603 H   0  0  0  0  0  0  0  0  0  0  0  0
  142.4104   78.3877  218.7556 H   0  0  0  0  0  0  0  0  0  0  0  0
  140.2277   78.2911  219.7335 H   0  0  0  0  0  0  0  0  0  0  0  0
  138.9236   78.3385  221.7645 H   0  0  0  0  0  0  0  0  0  0  0  0
  138.9354   79.6736  223.8428 H   0  0  0  0  0  0  0  0  0  0  0  0
  141.0535   80.6232  224.7537 H   0  0  0  0  0  0  0  0  0  0  0  0
  143.1536   78.8487  221.4499 H   0  0  0  0  0  0  0  0  0  0  0  0
  139.1820   69.4439  222.8026 H   0  0  0  0  0  0  0  0  0  0  0  0
  139.0906   68.1738  224.9582 H   0  0  0  0  0  0  0  0  0  0  0  0
  139.5591   68.1472  227.3217 H   0  0  0  0  0  0  0  0  0  0  0  0
  140.4556   69.3246  229.3383 H   0  0  0  0  0  0  0  0  0  0  0  0
  141.3689   71.5907  229.1904 H   0  0  0  0  0  0  0  0  0  0  0  0
  141.4242   72.7947  226.9921 H   0  0  0  0  0  0  0  0  0  0  0  0
  1  2  2  0
  2  3  1  0
  3  4  1  0
  4  5  1  0
  5  6  2  0
  5  7  1  0
  7  8  1  0
  8  9  1  0
  9 10  1  0
 10 11  1  0
 11 12  1  0
 12 13  2  0
 13 14  1  0
 14 15  2  0
 15 16  1  0
 16 17  1  0
 16 18  2  0
  2 19  1  0
 19 20  2  0
 20 21  1  0
 21 22  2  0
 22 23  1  0
 23 24  2  0
 24 25  1  0
 25 26  2  0
 26 27  1  0
 27 28  2  0
 11  7  1  0
 18 12  1  0
 28 19  1  0
 27 22  1  0
  3 29  1  0
  4 30  1  0
  4 31  1  0
  8 32  1  0
  8 33  1  0
  9 34  1  0
  9 35  1  0
 10 36  1  0
 10 37  1  0
 11 38  1  6
 13 39  1  0
 14 40  1  0
 15 41  1  0
 18 42  1  0
 20 43  1  0
 21 44  1  0
 23 45  1  0
 24 46  1  0
 25 47  1  0
 26 48  1  0
M  END
>  <smiles>  (31) 
O=C(NCC(=O)N1CCCC1c1cccc(F)c1)c1ccc2ccccc2n1

>  <score_type>  (31) 
oracle

>  <origin>  (31) 
autodockgpu

>  <m_score__min__energy>  (31) 
-8.8399999999999999

>  <m_primary>  (31) 
energy

>  <rmsd>  (31) 
1.626019025679671

>  <m_score__min__rmsd>  (31) 
1.626019025679671

>  <meeko>  (31) 
{"free_energy": -8.74, "intermolecular_energy": -10.23, "internal_energy": -1.81, "cluster_size": 38, "cluster_id": 1, "rank_in_cluster": 12}

>  <energy>  (31) 
-8.66

>  <cluster_rmsd>  (31) 
0.61

>  <cluster>  (31) 
1

$$$$

     RDKit          3D

 48 51  0  0  0  0  0  0  0  0999 V2000
  141.0730   71.5040  221.4620 O   0  0  0  0  0  0  0  0  0  0  0  0
  140.4960   72.0430  222.4330 C   0  0  0  0  0  0  0  0  0  0  0  0
  140.0670   73.3950  222.3140 N   0  0  0  0  0  0  0  0  0  0  0  0
  140.2690   74.1680  221.1210 C   0  0  0  0  0  0  0  0  0  0  0  0
  139.9620   75.6240  221.3530 C   0  0  0  0  0  0  0  0  0  0  0  0
  139.5430   75.9060  222.4960 O   0  0  0  0  0  0  0  0  0  0  0  0
  140.1690   76.5120  220.2940 N   0  0  0  0  0  0  0  0  0  0  0  0
  140.0120   76.1910  218.8430 C   0  0  0  0  0  0  0  0  0  0  0  0
  141.3940   76.5650  218.3600 C   0  0  0  0  0  0  0  0  0  0  0  0
  141.6620   77.8420  219.1690 C   0  0  0  0  0  0  0  0  0  0  0  0
  140.5800   77.9010  220.2250 C   0  0  2  0  0  0  0  0  0  0  0  0
  140.9170   78.5690  221.4540 C   0  0  0  0  0  0  0  0  0  0  0  0
  139.9740   78.7490  222.4300 C   0  0  0  0  0  0  0  0  0  0  0  0
  140.2760   79.3800  223.6420 C   0  0  0  0  0  0  0  0  0  0  0  0
  141.5420   79.8570  223.9150 C   0  0  0  0  0  0  0  0  0  0  0  0
  142.4940   79.6790  222.9330 C   0  0  0  0  0  0  0  0  0  0  0  0
  143.7530   80.1370  223.1680 F   0  0  0  0  0  0  0  0  0  0  0  0
  142.1970   79.0580  221.7430 C   0  0  0  0  0  0  0  0  0  0  0  0
  140.2520   71.3140  223.6950 C   0  0  0  0  0  0  0  0  0  0  0  0
  139.5840   70.1080  223.6450 C   0  0  0  0  0  0  0  0  0  0  0  0
  139.3330   69.3910  224.7950 C   0  0  0  0  0  0  0  0  0  0  0  0
  139.7930   69.9620  225.9860 C   0  0  0  0  0  0  0  0  0  0  0  0
  139.5610   69.2750  227.1650 C   0  0  0  0  0  0  0  0  0  0  0  0
  140.0270   69.8610  228.3410 C   0  0  0  0  0  0  0  0  0  0  0  0
  140.6870   71.0630  228.3450 C   0  0  0  0  0  0  0  0  0  0  0  0
  140.9160   71.7460  227.1600 C   0  0  0  0  0  0  0  0  0  0  0  0
  140.4540   71.1630  226.0030 C   0  0  0  0  0  0  0  0  0  0  0  0
  140.6730   71.8220  224.8520 N   0  0  0  0  0  0  0  0  0  0  0  0
  139.5830   73.8090  223.1650 H   0  0  0  0  0  0  0  0  0  0  0  0
  141.3175   74.0692  220.8034 H   0  0  0  0  0  0  0  0  0  0  0  0
  139.5891   73.7898  220.3433 H   0  0  0  0  0  0  0  0  0  0  0  0
  139.7932   75.1256  218.6788 H   0  0  0  0  0  0  0  0  0  0  0  0
  139.1815   76.7032  218.3351 H   0  0  0  0  0  0  0  0  0  0  0  0
  142.1280   75.7795  218.5931 H   0  0  0  0  0  0  0  0  0  0  0  0
  141.4689   76.6986  217.2707 H   0  0  0  0  0  0  0  0  0  0  0  0
  142.6545   77.7944  219.6409 H   0  0  0  0  0  0  0  0  0  0  0  0
  141.6485   78.7357  218.5278 H   0  0  0  0  0  0  0  0  0  0  0  0
  139.7445   78.5692  219.9693 H   0  0  0  0  0  0  0  0  0  0  0  0
  138.9497   78.3873  222.2566 H   0  0  0  0  0  0  0  0  0  0  0  0
  139.4842   79.4988  224.3963 H   0  0  0  0  0  0  0  0  0  0  0  0
  141.7797   80.3538  224.8672 H   0  0  0  0  0  0  0  0  0  0  0  0
  142.9922   78.9412  220.9920 H   0  0  0  0  0  0  0  0  0  0  0  0
  139.2474   69.7136  222.6749 H   0  0  0  0  0  0  0  0  0  0  0  0
  138.8027   68.4274  224.7772 H   0  0  0  0  0  0  0  0  0  0  0  0
  139.0328   68.3102  227.1737 H   0  0  0  0  0  0  0  0  0  0  0  0
  139.8598   69.3424  229.2966 H   0  0  0  0  0  0  0  0  0  0  0  0
  141.0378   71.4892  229.2965 H   0  0  0  0  0  0  0  0  0  0  0  0
  141.4437   72.7111  227.1459 H   0  0  0  0  0  0  0  0  0  0  0  0
  1  2  2  0
  2  3  1  0
  3  4  1  0
  4  5  1  0
  5  6  2  0
  5  7  1  0
  7  8  1  0
  8  9  1  0
  9 10  1  0
 10 11  1  0
 11 12  1  0
 12 13  2  0
 13 14  1  0
 14 15  2  0
 15 16  1  0
 16 17  1  0
 16 18  2  0
  2 19  1  0
 19 20  2  0
 20 21  1  0
 21 22  2  0
 22 23  1  0
 23 24  2  0
 24 25  1  0
 25 26  2  0
 26 27  1  0
 27 28  2  0
 11  7  1  0
 18 12  1  0
 28 19  1  0
 27 22  1  0
  3 29  1  0
  4 30  1  0
  4 31  1  0
  8 32  1  0
  8 33  1  0
  9 34  1  0
  9 35  1  0
 10 36  1  0
 10 37  1  0
 11 38  1  6
 13 39  1  0
 14 40  1  0
 15 41  1  0
 18 42  1  0
 20 43  1  0
 21 44  1  0
 23 45  1  0
 24 46  1  0
 25 47  1  0
 26 48  1  0
M  END
>  <smiles>  (32) 
O=C(NCC(=O)N1CCCC1c1cccc(F)c1)c1ccc2ccccc2n1

>  <score_type>  (32) 
oracle

>  <origin>  (32) 
autodockgpu

>  <m_score__min__energy>  (32) 
-8.8399999999999999

>  <m_primary>  (32) 
energy

>  <rmsd>  (32) 
1.6424449222962487

>  <m_score__min__rmsd>  (32) 
1.6424449222962487

>  <meeko>  (32) 
{"free_energy": -8.55, "intermolecular_energy": -10.04, "internal_energy": -1.79, "cluster_size": 38, "cluster_id": 1, "rank_in_cluster": 37}

>  <energy>  (32) 
-8.66

>  <cluster_rmsd>  (32) 
0.54

>  <cluster>  (32) 
1

$$$$

     RDKit          3D

 48 51  0  0  0  0  0  0  0  0999 V2000
  140.1960   71.6450  221.1430 O   0  0  0  0  0  0  0  0  0  0  0  0
  139.9830   72.1680  222.2610 C   0  0  0  0  0  0  0  0  0  0  0  0
  139.7370   73.5680  222.3300 N   0  0  0  0  0  0  0  0  0  0  0  0
  139.7240   74.4090  221.1660 C   0  0  0  0  0  0  0  0  0  0  0  0
  140.3650   75.7430  221.4470 C   0  0  0  0  0  0  0  0  0  0  0  0
  140.5820   75.9880  222.6530 O   0  0  0  0  0  0  0  0  0  0  0  0
  140.6530   76.5700  220.3580 N   0  0  0  0  0  0  0  0  0  0  0  0
  140.7730   76.1310  218.9360 C   0  0  0  0  0  0  0  0  0  0  0  0
  142.1710   76.6260  218.6450 C   0  0  0  0  0  0  0  0  0  0  0  0
  142.1690   77.9790  219.3690 C   0  0  0  0  0  0  0  0  0  0  0  0
  140.9260   77.9890  220.2310 C   0  0  2  0  0  0  0  0  0  0  0  0
  140.9850   78.7770  221.4330 C   0  0  0  0  0  0  0  0  0  0  0  0
  139.8510   79.0250  222.1600 C   0  0  0  0  0  0  0  0  0  0  0  0
  139.8790   79.7740  223.3420 C   0  0  0  0  0  0  0  0  0  0  0  0
  141.0530   80.3060  223.8350 C   0  0  0  0  0  0  0  0  0  0  0  0
  142.1970   80.0600  223.1050 C   0  0  0  0  0  0  0  0  0  0  0  0
  143.3730   80.5690  223.5610 F   0  0  0  0  0  0  0  0  0  0  0  0
  142.1700   79.3230  221.9450 C   0  0  0  0  0  0  0  0  0  0  0  0
  139.9820   71.3690  223.5040 C   0  0  0  0  0  0  0  0  0  0  0  0
  139.4600   70.0930  223.4720 C   0  0  0  0  0  0  0  0  0  0  0  0
  139.4360   69.3100  224.6060 C   0  0  0  0  0  0  0  0  0  0  0  0
  139.9670   69.8910  225.7620 C   0  0  0  0  0  0  0  0  0  0  0  0
  139.9620   69.1380  226.9250 C   0  0  0  0  0  0  0  0  0  0  0  0
  140.4950   69.7350  228.0660 C   0  0  0  0  0  0  0  0  0  0  0  0
  141.0040   71.0080  228.0540 C   0  0  0  0  0  0  0  0  0  0  0  0
  141.0050   71.7570  226.8860 C   0  0  0  0  0  0  0  0  0  0  0  0
  140.4780   71.1620  225.7630 C   0  0  0  0  0  0  0  0  0  0  0  0
  140.4770   71.8840  224.6280 N   0  0  0  0  0  0  0  0  0  0  0  0
  139.5630   73.9650  223.3010 H   0  0  0  0  0  0  0  0  0  0  0  0
  140.2767   73.9093  220.3568 H   0  0  0  0  0  0  0  0  0  0  0  0
  138.6776   74.5814  220.8740 H   0  0  0  0  0  0  0  0  0  0  0  0
  140.6942   75.0385  218.8349 H   0  0  0  0  0  0  0  0  0  0  0  0
  139.9908   76.5070  218.2602 H   0  0  0  0  0  0  0  0  0  0  0  0
  142.9322   75.9488  219.0596 H   0  0  0  0  0  0  0  0  0  0  0  0
  142.4121   76.6893  217.5736 H   0  0  0  0  0  0  0  0  0  0  0  0
  143.0685   78.0792  219.9942 H   0  0  0  0  0  0  0  0  0  0  0  0
  142.1719   78.8171  218.6566 H   0  0  0  0  0  0  0  0  0  0  0  0
  140.0809   78.5365  219.7884 H   0  0  0  0  0  0  0  0  0  0  0  0
  138.8904   78.6239  221.8046 H   0  0  0  0  0  0  0  0  0  0  0  0
  138.9414   79.9429  223.8919 H   0  0  0  0  0  0  0  0  0  0  0  0
  141.0752   80.8962  224.7630 H   0  0  0  0  0  0  0  0  0  0  0  0
  143.1107   79.1560  221.3998 H   0  0  0  0  0  0  0  0  0  0  0  0
  139.0575   69.6948  222.5289 H   0  0  0  0  0  0  0  0  0  0  0  0
  139.0242   68.2900  224.6020 H   0  0  0  0  0  0  0  0  0  0  0  0
  139.5560   68.1159  226.9468 H   0  0  0  0  0  0  0  0  0  0  0  0
  140.5077   69.1660  229.0073 H   0  0  0  0  0  0  0  0  0  0  0  0
  141.4152   71.4394  228.9786 H   0  0  0  0  0  0  0  0  0  0  0  0
  141.4087   72.7799  226.8591 H   0  0  0  0  0  0  0  0  0  0  0  0
  1  2  2  0
  2  3  1  0
  3  4  1  0
  4  5  1  0
  5  6  2  0
  5  7  1  0
  7  8  1  0
  8  9  1  0
  9 10  1  0
 10 11  1  0
 11 12  1  0
 12 13  2  0
 13 14  1  0
 14 15  2  0
 15 16  1  0
 16 17  1  0
 16 18  2  0
  2 19  1  0
 19 20  2  0
 20 21  1  0
 21 22  2  0
 22 23  1  0
 23 24  2  0
 24 25  1  0
 25 26  2  0
 26 27  1  0
 27 28  2  0
 11  7  1  0
 18 12  1  0
 28 19  1  0
 27 22  1  0
  3 29  1  0
  4 30  1  0
  4 31  1  0
  8 32  1  0
  8 33  1  0
  9 34  1  0
  9 35  1  0
 10 36  1  0
 10 37  1  0
 11 38  1  6
 13 39  1  0
 14 40  1  0
 15 41  1  0
 18 42  1  0
 20 43  1  0
 21 44  1  0
 23 45  1  0
 24 46  1  0
 25 47  1  0
 26 48  1  0
M  END
>  <smiles>  (33) 
O=C(NCC(=O)N1CCCC1c1cccc(F)c1)c1ccc2ccccc2n1

>  <score_type>  (33) 
oracle

>  <origin>  (33) 
autodockgpu

>  <m_score__min__energy>  (33) 
-8.8399999999999999

>  <m_primary>  (33) 
energy

>  <rmsd>  (33) 
1.6304489045921793

>  <m_score__min__rmsd>  (33) 
1.6304489045921793

>  <meeko>  (33) 
{"free_energy": -8.57, "intermolecular_energy": -10.06, "internal_energy": -1.79, "cluster_size": 38, "cluster_id": 1, "rank_in_cluster": 35}

>  <energy>  (33) 
-8.65

>  <cluster_rmsd>  (33) 
1.04

>  <cluster>  (33) 
1

$$$$

     RDKit          3D

 48 51  0  0  0  0  0  0  0  0999 V2000
  140.3140   71.3220  221.3160 O   0  0  0  0  0  0  0  0  0  0  0  0
  140.0540   71.9060  222.3920 C   0  0  0  0  0  0  0  0  0  0  0  0
  139.7900   73.3040  222.3680 N   0  0  0  0  0  0  0  0  0  0  0  0
  139.8090   74.0750  221.1570 C   0  0  0  0  0  0  0  0  0  0  0  0
  140.0940   75.5270  221.4360 C   0  0  0  0  0  0  0  0  0  0  0  0
  139.9010   75.8930  222.6150 O   0  0  0  0  0  0  0  0  0  0  0  0
  140.5380   76.3210  220.3750 N   0  0  0  0  0  0  0  0  0  0  0  0
  140.7130   75.8700  218.9610 C   0  0  0  0  0  0  0  0  0  0  0  0
  142.1700   76.2240  218.7710 C   0  0  0  0  0  0  0  0  0  0  0  0
  142.2520   77.5720  219.5020 C   0  0  0  0  0  0  0  0  0  0  0  0
  140.9590   77.7050  220.2760 C   0  0  2  0  0  0  0  0  0  0  0  0
  141.0110   78.4850  221.4840 C   0  0  0  0  0  0  0  0  0  0  0  0
  142.2020   78.9810  221.9420 C   0  0  0  0  0  0  0  0  0  0  0  0
  142.2820   79.7560  223.1050 C   0  0  0  0  0  0  0  0  0  0  0  0
  141.1620   80.0590  223.8520 C   0  0  0  0  0  0  0  0  0  0  0  0
  139.9610   79.5600  223.3950 C   0  0  0  0  0  0  0  0  0  0  0  0
  138.8360   79.8380  224.1060 F   0  0  0  0  0  0  0  0  0  0  0  0
  139.8820   78.7990  222.2520 C   0  0  0  0  0  0  0  0  0  0  0  0
  140.0150   71.1830  223.6800 C   0  0  0  0  0  0  0  0  0  0  0  0
  139.5190   69.8960  223.7030 C   0  0  0  0  0  0  0  0  0  0  0  0
  139.4620   69.1820  224.8800 C   0  0  0  0  0  0  0  0  0  0  0  0
  139.9340   69.8400  226.0190 C   0  0  0  0  0  0  0  0  0  0  0  0
  139.8950   69.1580  227.2240 C   0  0  0  0  0  0  0  0  0  0  0  0
  140.3690   69.8320  228.3480 C   0  0  0  0  0  0  0  0  0  0  0  0
  140.8540   71.1130  228.2800 C   0  0  0  0  0  0  0  0  0  0  0  0
  140.8910   71.7900  227.0710 C   0  0  0  0  0  0  0  0  0  0  0  0
  140.4210   71.1200  225.9650 C   0  0  0  0  0  0  0  0  0  0  0  0
  140.4540   71.7730  224.7900 N   0  0  0  0  0  0  0  0  0  0  0  0
  139.5750   73.7560  223.3070 H   0  0  0  0  0  0  0  0  0  0  0  0
  140.5902   73.6781  220.4920 H   0  0  0  0  0  0  0  0  0  0  0  0
  138.8191   74.0008  220.6831 H   0  0  0  0  0  0  0  0  0  0  0  0
  140.5339   74.7905  218.8484 H   0  0  0  0  0  0  0  0  0  0  0  0
  140.0208   76.3206  218.2345 H   0  0  0  0  0  0  0  0  0  0  0  0
  142.8297   75.4749  219.2332 H   0  0  0  0  0  0  0  0  0  0  0  0
  142.4900   76.2625  217.7193 H   0  0  0  0  0  0  0  0  0  0  0  0
  143.1114   77.5830  220.1885 H   0  0  0  0  0  0  0  0  0  0  0  0
  142.3875   78.4054  218.7970 H   0  0  0  0  0  0  0  0  0  0  0  0
  140.2052   78.3330  219.7787 H   0  0  0  0  0  0  0  0  0  0  0  0
  143.1224   78.7643  221.3800 H   0  0  0  0  0  0  0  0  0  0  0  0
  143.2624   80.1330  223.4317 H   0  0  0  0  0  0  0  0  0  0  0  0
  141.2244   80.6679  224.7659 H   0  0  0  0  0  0  0  0  0  0  0  0
  138.8992   78.4243  221.9300 H   0  0  0  0  0  0  0  0  0  0  0  0
  139.1645   69.4339  222.7698 H   0  0  0  0  0  0  0  0  0  0  0  0
  139.0686   68.1556  224.9207 H   0  0  0  0  0  0  0  0  0  0  0  0
  139.5074   68.1307  227.2908 H   0  0  0  0  0  0  0  0  0  0  0  0
  140.3536   69.3198  229.3214 H   0  0  0  0  0  0  0  0  0  0  0  0
  141.2169   71.6076  229.1930 H   0  0  0  0  0  0  0  0  0  0  0  0
  141.2788   72.8169  226.9990 H   0  0  0  0  0  0  0  0  0  0  0  0
  1  2  2  0
  2  3  1  0
  3  4  1  0
  4  5  1  0
  5  6  2  0
  5  7  1  0
  7  8  1  0
  8  9  1  0
  9 10  1  0
 10 11  1  0
 11 12  1  0
 12 13  2  0
 13 14  1  0
 14 15  2  0
 15 16  1  0
 16 17  1  0
 16 18  2  0
  2 19  1  0
 19 20  2  0
 20 21  1  0
 21 22  2  0
 22 23  1  0
 23 24  2  0
 24 25  1  0
 25 26  2  0
 26 27  1  0
 27 28  2  0
 11  7  1  0
 18 12  1  0
 28 19  1  0
 27 22  1  0
  3 29  1  0
  4 30  1  0
  4 31  1  0
  8 32  1  0
  8 33  1  0
  9 34  1  0
  9 35  1  0
 10 36  1  0
 10 37  1  0
 11 38  1  6
 13 39  1  0
 14 40  1  0
 15 41  1  0
 18 42  1  0
 20 43  1  0
 21 44  1  0
 23 45  1  0
 24 46  1  0
 25 47  1  0
 26 48  1  0
M  END
>  <smiles>  (34) 
O=C(NCC(=O)N1CCCC1c1cccc(F)c1)c1ccc2ccccc2n1

>  <score_type>  (34) 
oracle

>  <origin>  (34) 
autodockgpu

>  <m_score__min__energy>  (34) 
-8.8399999999999999

>  <m_primary>  (34) 
energy

>  <rmsd>  (34) 
1.6053047449901665

>  <m_score__min__rmsd>  (34) 
1.6053047449901665

>  <meeko>  (34) 
{"free_energy": -8.71, "intermolecular_energy": -10.2, "internal_energy": -1.84, "cluster_size": 38, "cluster_id": 1, "rank_in_cluster": 25}

>  <energy>  (34) 
-8.62

>  <cluster_rmsd>  (34) 
0.61

>  <cluster>  (34) 
1

$$$$

     RDKit          3D

 48 51  0  0  0  0  0  0  0  0999 V2000
  140.6050   71.5240  221.3660 O   0  0  0  0  0  0  0  0  0  0  0  0
  140.2280   72.0820  222.4220 C   0  0  0  0  0  0  0  0  0  0  0  0
  139.8810   73.4610  222.3840 N   0  0  0  0  0  0  0  0  0  0  0  0
  139.9450   74.2420  221.1810 C   0  0  0  0  0  0  0  0  0  0  0  0
  140.4090   75.6470  221.4640 C   0  0  0  0  0  0  0  0  0  0  0  0
  140.4990   75.9470  222.6730 O   0  0  0  0  0  0  0  0  0  0  0  0
  140.6920   76.4740  220.3730 N   0  0  0  0  0  0  0  0  0  0  0  0
  140.8030   76.0320  218.9490 C   0  0  0  0  0  0  0  0  0  0  0  0
  142.2000   76.5260  218.6500 C   0  0  0  0  0  0  0  0  0  0  0  0
  142.2030   77.8800  219.3730 C   0  0  0  0  0  0  0  0  0  0  0  0
  140.9660   77.8910  220.2430 C   0  0  2  0  0  0  0  0  0  0  0  0
  141.0320   78.6810  221.4440 C   0  0  0  0  0  0  0  0  0  0  0  0
  139.9050   78.9240  222.1810 C   0  0  0  0  0  0  0  0  0  0  0  0
  139.9410   79.6740  223.3620 C   0  0  0  0  0  0  0  0  0  0  0  0
  141.1170   80.2110  223.8440 C   0  0  0  0  0  0  0  0  0  0  0  0
  142.2550   79.9700  223.1030 C   0  0  0  0  0  0  0  0  0  0  0  0
  143.4330   80.4840  223.5470 F   0  0  0  0  0  0  0  0  0  0  0  0
  142.2200   79.2320  221.9430 C   0  0  0  0  0  0  0  0  0  0  0  0
  140.1370   71.3460  223.6990 C   0  0  0  0  0  0  0  0  0  0  0  0
  139.5530   70.0960  223.7050 C   0  0  0  0  0  0  0  0  0  0  0  0
  139.4450   69.3720  224.8720 C   0  0  0  0  0  0  0  0  0  0  0  0
  139.9580   69.9810  226.0210 C   0  0  0  0  0  0  0  0  0  0  0  0
  139.8690   69.2870  227.2160 C   0  0  0  0  0  0  0  0  0  0  0  0
  140.3860   69.9120  228.3500 C   0  0  0  0  0  0  0  0  0  0  0  0
  140.9590   71.1570  228.3000 C   0  0  0  0  0  0  0  0  0  0  0  0
  141.0440   71.8460  227.1000 C   0  0  0  0  0  0  0  0  0  0  0  0
  140.5330   71.2240  225.9840 C   0  0  0  0  0  0  0  0  0  0  0  0
  140.6130   71.8900  224.8180 N   0  0  0  0  0  0  0  0  0  0  0  0
  139.5680   73.8900  223.3050 H   0  0  0  0  0  0  0  0  0  0  0  0
  140.6487   73.7663  220.4821 H   0  0  0  0  0  0  0  0  0  0  0  0
  138.9363   74.2909  220.7450 H   0  0  0  0  0  0  0  0  0  0  0  0
  140.7229   74.9394  218.8498 H   0  0  0  0  0  0  0  0  0  0  0  0
  140.0171   76.4071  218.2770 H   0  0  0  0  0  0  0  0  0  0  0  0
  142.9630   75.8486  219.0610 H   0  0  0  0  0  0  0  0  0  0  0  0
  142.4352   76.5883  217.5772 H   0  0  0  0  0  0  0  0  0  0  0  0
  143.1066   77.9806  219.9922 H   0  0  0  0  0  0  0  0  0  0  0  0
  142.2013   78.7175  218.6598 H   0  0  0  0  0  0  0  0  0  0  0  0
  140.1187   78.4387  219.8047 H   0  0  0  0  0  0  0  0  0  0  0  0
  138.9429   78.5181  221.8352 H   0  0  0  0  0  0  0  0  0  0  0  0
  139.0078   79.8396  223.9203 H   0  0  0  0  0  0  0  0  0  0  0  0
  141.1455   80.8012  224.7718 H   0  0  0  0  0  0  0  0  0  0  0  0
  143.1558   79.0688  221.3883 H   0  0  0  0  0  0  0  0  0  0  0  0
  139.1686   69.6720  222.7656 H   0  0  0  0  0  0  0  0  0  0  0  0
  138.9827   68.3742  224.8982 H   0  0  0  0  0  0  0  0  0  0  0  0
  139.4113   68.2881  227.2682 H   0  0  0  0  0  0  0  0  0  0  0  0
  140.3326   69.3894  229.3165 H   0  0  0  0  0  0  0  0  0  0  0  0
  141.3545   71.6127  229.2198 H   0  0  0  0  0  0  0  0  0  0  0  0
  141.4997   72.8455  227.0425 H   0  0  0  0  0  0  0  0  0  0  0  0
  1  2  2  0
  2  3  1  0
  3  4  1  0
  4  5  1  0
  5  6  2  0
  5  7  1  0
  7  8  1  0
  8  9  1  0
  9 10  1  0
 10 11  1  0
 11 12  1  0
 12 13  2  0
 13 14  1  0
 14 15  2  0
 15 16  1  0
 16 17  1  0
 16 18  2  0
  2 19  1  0
 19 20  2  0
 20 21  1  0
 21 22  2  0
 22 23  1  0
 23 24  2  0
 24 25  1  0
 25 26  2  0
 26 27  1  0
 27 28  2  0
 11  7  1  0
 18 12  1  0
 28 19  1  0
 27 22  1  0
  3 29  1  0
  4 30  1  0
  4 31  1  0
  8 32  1  0
  8 33  1  0
  9 34  1  0
  9 35  1  0
 10 36  1  0
 10 37  1  0
 11 38  1  6
 13 39  1  0
 14 40  1  0
 15 41  1  0
 18 42  1  0
 20 43  1  0
 21 44  1  0
 23 45  1  0
 24 46  1  0
 25 47  1  0
 26 48  1  0
M  END
>  <smiles>  (35) 
O=C(NCC(=O)N1CCCC1c1cccc(F)c1)c1ccc2ccccc2n1

>  <score_type>  (35) 
oracle

>  <origin>  (35) 
autodockgpu

>  <m_score__min__energy>  (35) 
-8.8399999999999999

>  <m_primary>  (35) 
energy

>  <rmsd>  (35) 
1.6979195824684965

>  <m_score__min__rmsd>  (35) 
1.6979195824684965

>  <meeko>  (35) 
{"free_energy": -8.73, "intermolecular_energy": -10.22, "internal_energy": -1.75, "cluster_size": 38, "cluster_id": 1, "rank_in_cluster": 17}

>  <energy>  (35) 
-8.57

>  <cluster_rmsd>  (35) 
1.1

>  <cluster>  (35) 
1

$$$$

     RDKit          3D

 48 51  0  0  0  0  0  0  0  0999 V2000
  140.8550   71.5350  221.2850 O   0  0  0  0  0  0  0  0  0  0  0  0
  140.3830   72.0970  222.2990 C   0  0  0  0  0  0  0  0  0  0  0  0
  140.0000   73.4640  222.2130 N   0  0  0  0  0  0  0  0  0  0  0  0
  140.1350   74.2300  221.0060 C   0  0  0  0  0  0  0  0  0  0  0  0
  140.8250   75.5430  221.2640 C   0  0  0  0  0  0  0  0  0  0  0  0
  140.7260   75.9790  222.4310 O   0  0  0  0  0  0  0  0  0  0  0  0
  141.5000   76.1470  220.1990 N   0  0  0  0  0  0  0  0  0  0  0  0
  141.0270   77.3360  219.4280 C   0  0  0  0  0  0  0  0  0  0  0  0
  141.0380   76.7440  218.0370 C   0  0  0  0  0  0  0  0  0  0  0  0
  142.3280   75.9120  218.0720 C   0  0  0  0  0  0  0  0  0  0  0  0
  142.7510   75.8610  219.5240 C   0  0  2  0  0  0  0  0  0  0  0  0
  143.4930   74.7000  219.9360 C   0  0  0  0  0  0  0  0  0  0  0  0
  142.9540   73.4470  219.8100 C   0  0  0  0  0  0  0  0  0  0  0  0
  143.6580   72.2980  220.1880 C   0  0  0  0  0  0  0  0  0  0  0  0
  144.9340   72.3680  220.7090 C   0  0  0  0  0  0  0  0  0  0  0  0
  145.4790   73.6270  220.8390 C   0  0  0  0  0  0  0  0  0  0  0  0
  146.7350   73.7350  221.3500 F   0  0  0  0  0  0  0  0  0  0  0  0
  144.7880   74.7570  220.4680 C   0  0  0  0  0  0  0  0  0  0  0  0
  140.2150   71.3760  223.5780 C   0  0  0  0  0  0  0  0  0  0  0  0
  139.5650   70.1600  223.5740 C   0  0  0  0  0  0  0  0  0  0  0  0
  139.3830   69.4510  224.7420 C   0  0  0  0  0  0  0  0  0  0  0  0
  139.8940   70.0410  225.9020 C   0  0  0  0  0  0  0  0  0  0  0  0
  139.7330   69.3620  227.0980 C   0  0  0  0  0  0  0  0  0  0  0  0
  140.2490   69.9660  228.2430 C   0  0  0  0  0  0  0  0  0  0  0  0
  140.8880   71.1790  228.2030 C   0  0  0  0  0  0  0  0  0  0  0  0
  141.0460   71.8540  227.0010 C   0  0  0  0  0  0  0  0  0  0  0  0
  140.5350   71.2510  225.8750 C   0  0  0  0  0  0  0  0  0  0  0  0
  140.6850   71.9030  224.7080 N   0  0  0  0  0  0  0  0  0  0  0  0
  139.6050   73.8970  223.1000 H   0  0  0  0  0  0  0  0  0  0  0  0
  140.7250   73.6522  220.2793 H   0  0  0  0  0  0  0  0  0  0  0  0
  139.1288   74.4385  220.6135 H   0  0  0  0  0  0  0  0  0  0  0  0
  140.0179   77.6496  219.7336 H   0  0  0  0  0  0  0  0  0  0  0  0
  141.6273   78.2488  219.5556 H   0  0  0  0  0  0  0  0  0  0  0  0
  140.1556   76.1110  217.8622 H   0  0  0  0  0  0  0  0  0  0  0  0
  141.0064   77.4910  217.2301 H   0  0  0  0  0  0  0  0  0  0  0  0
  142.1387   74.8969  217.6930 H   0  0  0  0  0  0  0  0  0  0  0  0
  143.1110   76.3552  217.4392 H   0  0  0  0  0  0  0  0  0  0  0  0
  143.5374   76.5846  219.7846 H   0  0  0  0  0  0  0  0  0  0  0  0
  141.9388   73.3409  219.4000 H   0  0  0  0  0  0  0  0  0  0  0  0
  143.1820   71.3138  220.0667 H   0  0  0  0  0  0  0  0  0  0  0  0
  145.4878   71.4649  221.0054 H   0  0  0  0  0  0  0  0  0  0  0  0
  145.2683   75.7387  220.5932 H   0  0  0  0  0  0  0  0  0  0  0  0
  139.1866   69.7502  222.6259 H   0  0  0  0  0  0  0  0  0  0  0  0
  138.8669   68.4797  224.7603 H   0  0  0  0  0  0  0  0  0  0  0  0
  139.2208   68.3895  227.1423 H   0  0  0  0  0  0  0  0  0  0  0  0
  140.1403   69.4534  229.2102 H   0  0  0  0  0  0  0  0  0  0  0  0
  141.2786   71.6205  229.1317 H   0  0  0  0  0  0  0  0  0  0  0  0
  141.5566   72.8270  226.9507 H   0  0  0  0  0  0  0  0  0  0  0  0
  1  2  2  0
  2  3  1  0
  3  4  1  0
  4  5  1  0
  5  6  2  0
  5  7  1  0
  7  8  1  0
  8  9  1  0
  9 10  1  0
 10 11  1  0
 11 12  1  0
 12 13  2  0
 13 14  1  0
 14 15  2  0
 15 16  1  0
 16 17  1  0
 16 18  2  0
  2 19  1  0
 19 20  2  0
 20 21  1  0
 21 22  2  0
 22 23  1  0
 23 24  2  0
 24 25  1  0
 25 26  2  0
 26 27  1  0
 27 28  2  0
 11  7  1  0
 18 12  1  0
 28 19  1  0
 27 22  1  0
  3 29  1  0
  4 30  1  0
  4 31  1  0
  8 32  1  0
  8 33  1  0
  9 34  1  0
  9 35  1  0
 10 36  1  0
 10 37  1  0
 11 38  1  6
 13 39  1  0
 14 40  1  0
 15 41  1  0
 18 42  1  0
 20 43  1  0
 21 44  1  0
 23 45  1  0
 24 46  1  0
 25 47  1  0
 26 48  1  0
M  END
>  <smiles>  (36) 
O=C(NCC(=O)N1CCCC1c1cccc(F)c1)c1ccc2ccccc2n1

>  <score_type>  (36) 
oracle

>  <origin>  (36) 
autodockgpu

>  <m_score__min__energy>  (36) 
-8.8399999999999999

>  <m_primary>  (36) 
energy

>  <rmsd>  (36) 
1.9870672536079956

>  <m_score__min__rmsd>  (36) 
1.9870672536079956

>  <meeko>  (36) 
{"free_energy": -8.47, "intermolecular_energy": -9.97, "internal_energy": -1.88, "cluster_size": 10, "cluster_id": 2, "rank_in_cluster": 1}

>  <energy>  (36) 
-8.56

>  <cluster_rmsd>  (36) 
1.04

>  <cluster>  (36) 
1

$$$$

     RDKit          3D

 48 51  0  0  0  0  0  0  0  0999 V2000
  140.8990   71.4130  221.3580 O   0  0  0  0  0  0  0  0  0  0  0  0
  140.4270   71.9870  222.3660 C   0  0  0  0  0  0  0  0  0  0  0  0
  140.0480   73.3540  222.2640 N   0  0  0  0  0  0  0  0  0  0  0  0
  140.1870   74.1070  221.0490 C   0  0  0  0  0  0  0  0  0  0  0  0
  140.2150   75.5880  221.3210 C   0  0  0  0  0  0  0  0  0  0  0  0
  139.8930   75.9240  222.4810 O   0  0  0  0  0  0  0  0  0  0  0  0
  140.5920   76.4370  220.2770 N   0  0  0  0  0  0  0  0  0  0  0  0
  140.7230   76.0480  218.8400 C   0  0  0  0  0  0  0  0  0  0  0  0
  142.1600   76.4560  218.6070 C   0  0  0  0  0  0  0  0  0  0  0  0
  142.2290   77.7760  219.3880 C   0  0  0  0  0  0  0  0  0  0  0  0
  140.9650   77.8370  220.2170 C   0  0  2  0  0  0  0  0  0  0  0  0
  141.0420   78.5700  221.4530 C   0  0  0  0  0  0  0  0  0  0  0  0
  142.2480   79.0130  221.9270 C   0  0  0  0  0  0  0  0  0  0  0  0
  142.3520   79.7420  223.1170 C   0  0  0  0  0  0  0  0  0  0  0  0
  141.2430   80.0510  223.8770 C   0  0  0  0  0  0  0  0  0  0  0  0
  140.0270   79.6050  223.4040 C   0  0  0  0  0  0  0  0  0  0  0  0
  138.9110   79.8900  224.1280 F   0  0  0  0  0  0  0  0  0  0  0  0
  139.9240   78.8890  222.2350 C   0  0  0  0  0  0  0  0  0  0  0  0
  140.2540   71.2810  223.6520 C   0  0  0  0  0  0  0  0  0  0  0  0
  139.6130   70.0590  223.6570 C   0  0  0  0  0  0  0  0  0  0  0  0
  139.4280   69.3630  224.8320 C   0  0  0  0  0  0  0  0  0  0  0  0
  139.9250   69.9710  225.9890 C   0  0  0  0  0  0  0  0  0  0  0  0
  139.7590   69.3050  227.1920 C   0  0  0  0  0  0  0  0  0  0  0  0
  140.2610   69.9280  228.3340 C   0  0  0  0  0  0  0  0  0  0  0  0
  140.8920   71.1450  228.2830 C   0  0  0  0  0  0  0  0  0  0  0  0
  141.0540   71.8060  227.0750 C   0  0  0  0  0  0  0  0  0  0  0  0
  140.5570   71.1860  225.9520 C   0  0  0  0  0  0  0  0  0  0  0  0
  140.7110   71.8240  224.7780 N   0  0  0  0  0  0  0  0  0  0  0  0
  139.6530   73.7980  223.1460 H   0  0  0  0  0  0  0  0  0  0  0  0
  141.1248   73.8163  220.5530 H   0  0  0  0  0  0  0  0  0  0  0  0
  139.3217   73.8893  220.4057 H   0  0  0  0  0  0  0  0  0  0  0  0
  140.5726   74.9686  218.6908 H   0  0  0  0  0  0  0  0  0  0  0  0
  139.9884   76.5044  218.1603 H   0  0  0  0  0  0  0  0  0  0  0  0
  142.8607   75.7113  219.0124 H   0  0  0  0  0  0  0  0  0  0  0  0
  142.4362   76.5456  217.5460 H   0  0  0  0  0  0  0  0  0  0  0  0
  143.1147   77.7883  220.0402 H   0  0  0  0  0  0  0  0  0  0  0  0
  142.3095   78.6401  218.7121 H   0  0  0  0  0  0  0  0  0  0  0  0
  140.1728   78.4594  219.7753 H   0  0  0  0  0  0  0  0  0  0  0  0
  143.1612   78.7894  221.3560 H   0  0  0  0  0  0  0  0  0  0  0  0
  143.3436   80.0773  223.4551 H   0  0  0  0  0  0  0  0  0  0  0  0
  141.3246   80.6239  224.8125 H   0  0  0  0  0  0  0  0  0  0  0  0
  138.9301   78.5552  221.9022 H   0  0  0  0  0  0  0  0  0  0  0  0
  139.2450   69.6350  222.7111 H   0  0  0  0  0  0  0  0  0  0  0  0
  138.9199   68.3877  224.8581 H   0  0  0  0  0  0  0  0  0  0  0  0
  139.2542   68.3291  227.2442 H   0  0  0  0  0  0  0  0  0  0  0  0
  140.1474   69.4276  229.3070 H   0  0  0  0  0  0  0  0  0  0  0  0
  141.2729   71.6006  229.2089 H   0  0  0  0  0  0  0  0  0  0  0  0
  141.5573   72.7824  227.0172 H   0  0  0  0  0  0  0  0  0  0  0  0
  1  2  2  0
  2  3  1  0
  3  4  1  0
  4  5  1  0
  5  6  2  0
  5  7  1  0
  7  8  1  0
  8  9  1  0
  9 10  1  0
 10 11  1  0
 11 12  1  0
 12 13  2  0
 13 14  1  0
 14 15  2  0
 15 16  1  0
 16 17  1  0
 16 18  2  0
  2 19  1  0
 19 20  2  0
 20 21  1  0
 21 22  2  0
 22 23  1  0
 23 24  2  0
 24 25  1  0
 25 26  2  0
 26 27  1  0
 27 28  2  0
 11  7  1  0
 18 12  1  0
 28 19  1  0
 27 22  1  0
  3 29  1  0
  4 30  1  0
  4 31  1  0
  8 32  1  0
  8 33  1  0
  9 34  1  0
  9 35  1  0
 10 36  1  0
 10 37  1  0
 11 38  1  6
 13 39  1  0
 14 40  1  0
 15 41  1  0
 18 42  1  0
 20 43  1  0
 21 44  1  0
 23 45  1  0
 24 46  1  0
 25 47  1  0
 26 48  1  0
M  END
>  <smiles>  (37) 
O=C(NCC(=O)N1CCCC1c1cccc(F)c1)c1ccc2ccccc2n1

>  <score_type>  (37) 
oracle

>  <origin>  (37) 
autodockgpu

>  <m_score__min__energy>  (37) 
-8.8399999999999999

>  <m_primary>  (37) 
energy

>  <rmsd>  (37) 
1.7266978823397474

>  <m_score__min__rmsd>  (37) 
1.7266978823397474

>  <meeko>  (37) 
{"free_energy": -8.69, "intermolecular_energy": -10.18, "internal_energy": -1.81, "cluster_size": 38, "cluster_id": 1, "rank_in_cluster": 30}

>  <energy>  (37) 
-8.55

>  <cluster_rmsd>  (37) 
1.19

>  <cluster>  (37) 
1

$$$$

     RDKit          3D

 48 51  0  0  0  0  0  0  0  0999 V2000
  139.0220   75.0390  221.9480 O   0  0  0  0  0  0  0  0  0  0  0  0
  140.1370   75.6050  222.0160 C   0  0  0  0  0  0  0  0  0  0  0  0
  141.3130   74.8370  221.7900 N   0  0  0  0  0  0  0  0  0  0  0  0
  141.2740   73.4340  221.4860 C   0  0  0  0  0  0  0  0  0  0  0  0
  141.8300   73.1550  220.1140 C   0  0  0  0  0  0  0  0  0  0  0  0
  140.9880   72.8160  219.2550 O   0  0  0  0  0  0  0  0  0  0  0  0
  143.2080   73.2970  219.9260 N   0  0  0  0  0  0  0  0  0  0  0  0
  144.2500   72.3080  220.3360 C   0  0  0  0  0  0  0  0  0  0  0  0
  145.0990   73.1990  221.2140 C   0  0  0  0  0  0  0  0  0  0  0  0
  145.0950   74.5070  220.4100 C   0  0  0  0  0  0  0  0  0  0  0  0
  144.0310   74.3410  219.3480 C   0  0  2  0  0  0  0  0  0  0  0  0
  143.3820   75.5430  218.8950 C   0  0  0  0  0  0  0  0  0  0  0  0
  143.1230   75.7360  217.5650 C   0  0  0  0  0  0  0  0  0  0  0  0
  142.4780   76.8870  217.0970 C   0  0  0  0  0  0  0  0  0  0  0  0
  142.0720   77.8890  217.9530 C   0  0  0  0  0  0  0  0  0  0  0  0
  142.3330   77.6990  219.2940 C   0  0  0  0  0  0  0  0  0  0  0  0
  141.9470   78.6670  220.1680 F   0  0  0  0  0  0  0  0  0  0  0  0
  142.9650   76.5680  219.7540 C   0  0  0  0  0  0  0  0  0  0  0  0
  140.2590   77.0450  222.3240 C   0  0  0  0  0  0  0  0  0  0  0  0
  139.1190   77.8210  222.3310 C   0  0  0  0  0  0  0  0  0  0  0  0
  139.1830   79.1690  222.6130 C   0  0  0  0  0  0  0  0  0  0  0  0
  140.4570   79.6770  222.8850 C   0  0  0  0  0  0  0  0  0  0  0  0
  140.5660   81.0280  223.1730 C   0  0  0  0  0  0  0  0  0  0  0  0
  141.8440   81.5160  223.4410 C   0  0  0  0  0  0  0  0  0  0  0  0
  142.9520   80.7080  223.4230 C   0  0  0  0  0  0  0  0  0  0  0  0
  142.8350   79.3570  223.1340 C   0  0  0  0  0  0  0  0  0  0  0  0
  141.5710   78.8810  222.8700 C   0  0  0  0  0  0  0  0  0  0  0  0
  141.4540   77.5710  222.5890 N   0  0  0  0  0  0  0  0  0  0  0  0
  142.2350   75.3620  221.8590 H   0  0  0  0  0  0  0  0  0  0  0  0
  141.8710   72.8891  222.2321 H   0  0  0  0  0  0  0  0  0  0  0  0
  140.2252   73.1030  221.5092 H   0  0  0  0  0  0  0  0  0  0  0  0
  143.8196   71.4662  220.8982 H   0  0  0  0  0  0  0  0  0  0  0  0
  144.7833   71.8163  219.5091 H   0  0  0  0  0  0  0  0  0  0  0  0
  144.6457   73.3354  222.2069 H   0  0  0  0  0  0  0  0  0  0  0  0
  146.1034   72.8013  221.4216 H   0  0  0  0  0  0  0  0  0  0  0  0
  144.8522   75.3571  221.0645 H   0  0  0  0  0  0  0  0  0  0  0  0
  146.0804   74.7089  219.9647 H   0  0  0  0  0  0  0  0  0  0  0  0
  144.4267   74.0589  218.3612 H   0  0  0  0  0  0  0  0  0  0  0  0
  143.4304   74.9648  216.8433 H   0  0  0  0  0  0  0  0  0  0  0  0
  142.2902   76.9949  216.0185 H   0  0  0  0  0  0  0  0  0  0  0  0
  141.5658   78.7937  217.5851 H   0  0  0  0  0  0  0  0  0  0  0  0
  143.1495   76.4644  220.8335 H   0  0  0  0  0  0  0  0  0  0  0  0
  138.1461   77.3585  222.1087 H   0  0  0  0  0  0  0  0  0  0  0  0
  138.2864   79.8061  222.6234 H   0  0  0  0  0  0  0  0  0  0  0  0
  139.6842   81.6855  223.1894 H   0  0  0  0  0  0  0  0  0  0  0  0
  141.9678   82.5838  223.6745 H   0  0  0  0  0  0  0  0  0  0  0  0
  143.9421   81.1355  223.6397 H   0  0  0  0  0  0  0  0  0  0  0  0
  143.7134   78.6951  223.1165 H   0  0  0  0  0  0  0  0  0  0  0  0
  1  2  2  0
  2  3  1  0
  3  4  1  0
  4  5  1  0
  5  6  2  0
  5  7  1  0
  7  8  1  0
  8  9  1  0
  9 10  1  0
 10 11  1  0
 11 12  1  0
 12 13  2  0
 13 14  1  0
 14 15  2  0
 15 16  1  0
 16 17  1  0
 16 18  2  0
  2 19  1  0
 19 20  2  0
 20 21  1  0
 21 22  2  0
 22 23  1  0
 23 24  2  0
 24 25  1  0
 25 26  2  0
 26 27  1  0
 27 28  2  0
 11  7  1  0
 18 12  1  0
 28 19  1  0
 27 22  1  0
  3 29  1  0
  4 30  1  0
  4 31  1  0
  8 32  1  0
  8 33  1  0
  9 34  1  0
  9 35  1  0
 10 36  1  0
 10 37  1  0
 11 38  1  6
 13 39  1  0
 14 40  1  0
 15 41  1  0
 18 42  1  0
 20 43  1  0
 21 44  1  0
 23 45  1  0
 24 46  1  0
 25 47  1  0
 26 48  1  0
M  END
>  <smiles>  (38) 
O=C(NCC(=O)N1CCCC1c1cccc(F)c1)c1ccc2ccccc2n1

>  <score_type>  (38) 
oracle

>  <origin>  (38) 
autodockgpu

>  <m_score__min__energy>  (38) 
-8.8399999999999999

>  <m_primary>  (38) 
energy

>  <rmsd>  (38) 
7.771884024925299

>  <m_score__min__rmsd>  (38) 
7.771884024925299

>  <meeko>  (38) 
{"free_energy": -7.09, "intermolecular_energy": -8.58, "internal_energy": -2.5, "cluster_size": 1, "cluster_id": 4, "rank_in_cluster": 1}

>  <energy>  (38) 
-8.5

>  <cluster_rmsd>  (38) 
0.65

>  <cluster>  (38) 
1

$$$$

     RDKit          3D

 48 51  0  0  0  0  0  0  0  0999 V2000
  140.4180   71.3660  221.3000 O   0  0  0  0  0  0  0  0  0  0  0  0
  140.1320   71.9410  222.3750 C   0  0  0  0  0  0  0  0  0  0  0  0
  139.8270   73.3310  222.3510 N   0  0  0  0  0  0  0  0  0  0  0  0
  139.8340   74.1030  221.1410 C   0  0  0  0  0  0  0  0  0  0  0  0
  140.1430   75.5510  221.4160 C   0  0  0  0  0  0  0  0  0  0  0  0
  139.8580   75.9490  222.5660 O   0  0  0  0  0  0  0  0  0  0  0  0
  140.7100   76.3060  220.3860 N   0  0  0  0  0  0  0  0  0  0  0  0
  141.0290   75.8070  219.0140 C   0  0  0  0  0  0  0  0  0  0  0  0
  142.5030   76.1400  218.9710 C   0  0  0  0  0  0  0  0  0  0  0  0
  142.5240   77.5100  219.6640 C   0  0  0  0  0  0  0  0  0  0  0  0
  141.1570   77.6810  220.2890 C   0  0  2  0  0  0  0  0  0  0  0  0
  141.0900   78.5000  221.4710 C   0  0  0  0  0  0  0  0  0  0  0  0
  139.8860   78.7640  222.0670 C   0  0  0  0  0  0  0  0  0  0  0  0
  139.7910   79.5430  223.2260 C   0  0  0  0  0  0  0  0  0  0  0  0
  140.9070   80.0880  223.8280 C   0  0  0  0  0  0  0  0  0  0  0  0
  142.1210   79.8250  223.2290 C   0  0  0  0  0  0  0  0  0  0  0  0
  143.2430   80.3450  223.7940 F   0  0  0  0  0  0  0  0  0  0  0  0
  142.2150   79.0590  222.0910 C   0  0  0  0  0  0  0  0  0  0  0  0
  140.1050   71.2150  223.6620 C   0  0  0  0  0  0  0  0  0  0  0  0
  139.5810   69.9390  223.6920 C   0  0  0  0  0  0  0  0  0  0  0  0
  139.5340   69.2220  224.8690 C   0  0  0  0  0  0  0  0  0  0  0  0
  140.0430   69.8680  226.0000 C   0  0  0  0  0  0  0  0  0  0  0  0
  140.0140   69.1830  227.2030 C   0  0  0  0  0  0  0  0  0  0  0  0
  140.5260   69.8430  228.3190 C   0  0  0  0  0  0  0  0  0  0  0  0
  141.0370   71.1140  228.2440 C   0  0  0  0  0  0  0  0  0  0  0  0
  141.0630   71.7940  227.0360 C   0  0  0  0  0  0  0  0  0  0  0  0
  140.5560   71.1360  225.9380 C   0  0  0  0  0  0  0  0  0  0  0  0
  140.5790   71.7930  224.7640 N   0  0  0  0  0  0  0  0  0  0  0  0
  139.5920   73.7740  223.2880 H   0  0  0  0  0  0  0  0  0  0  0  0
  140.5976   73.6967  220.4615 H   0  0  0  0  0  0  0  0  0  0  0  0
  138.8346   74.0423  220.6854 H   0  0  0  0  0  0  0  0  0  0  0  0
  140.8484   74.7263  218.9170 H   0  0  0  0  0  0  0  0  0  0  0  0
  140.4248   76.2402  218.2033 H   0  0  0  0  0  0  0  0  0  0  0  0
  143.0991   75.3997  219.5248 H   0  0  0  0  0  0  0  0  0  0  0  0
  142.9346   76.1410  217.9592 H   0  0  0  0  0  0  0  0  0  0  0  0
  143.3045   77.5347  220.4388 H   0  0  0  0  0  0  0  0  0  0  0  0
  142.7460   78.3187  218.9522 H   0  0  0  0  0  0  0  0  0  0  0  0
  140.4691   78.2992  219.6935 H   0  0  0  0  0  0  0  0  0  0  0  0
  138.9678   78.3524  221.6226 H   0  0  0  0  0  0  0  0  0  0  0  0
  138.8007   79.7257  223.6687 H   0  0  0  0  0  0  0  0  0  0  0  0
  140.8320   80.7005  224.7386 H   0  0  0  0  0  0  0  0  0  0  0  0
  143.2076   78.8790  221.6524 H   0  0  0  0  0  0  0  0  0  0  0  0
  139.1959   69.4880  222.7655 H   0  0  0  0  0  0  0  0  0  0  0  0
  139.1211   68.2035  224.9154 H   0  0  0  0  0  0  0  0  0  0  0  0
  139.6055   68.1642  227.2748 H   0  0  0  0  0  0  0  0  0  0  0  0
  140.5201   69.3282  229.2911 H   0  0  0  0  0  0  0  0  0  0  0  0
  141.4296   71.5979  229.1504 H   0  0  0  0  0  0  0  0  0  0  0  0
  141.4702   72.8129  226.9584 H   0  0  0  0  0  0  0  0  0  0  0  0
  1  2  2  0
  2  3  1  0
  3  4  1  0
  4  5  1  0
  5  6  2  0
  5  7  1  0
  7  8  1  0
  8  9  1  0
  9 10  1  0
 10 11  1  0
 11 12  1  0
 12 13  2  0
 13 14  1  0
 14 15  2  0
 15 16  1  0
 16 17  1  0
 16 18  2  0
  2 19  1  0
 19 20  2  0
 20 21  1  0
 21 22  2  0
 22 23  1  0
 23 24  2  0
 24 25  1  0
 25 26  2  0
 26 27  1  0
 27 28  2  0
 11  7  1  0
 18 12  1  0
 28 19  1  0
 27 22  1  0
  3 29  1  0
  4 30  1  0
  4 31  1  0
  8 32  1  0
  8 33  1  0
  9 34  1  0
  9 35  1  0
 10 36  1  0
 10 37  1  0
 11 38  1  6
 13 39  1  0
 14 40  1  0
 15 41  1  0
 18 42  1  0
 20 43  1  0
 21 44  1  0
 23 45  1  0
 24 46  1  0
 25 47  1  0
 26 48  1  0
M  END
>  <smiles>  (39) 
O=C(NCC(=O)N1CCCC1c1cccc(F)c1)c1ccc2ccccc2n1

>  <score_type>  (39) 
oracle

>  <origin>  (39) 
autodockgpu

>  <m_score__min__energy>  (39) 
-8.8399999999999999

>  <m_primary>  (39) 
energy

>  <rmsd>  (39) 
1.719975736990517

>  <m_score__min__rmsd>  (39) 
1.719975736990517

>  <meeko>  (39) 
{"free_energy": -8.78, "intermolecular_energy": -10.27, "internal_energy": -1.75, "cluster_size": 38, "cluster_id": 1, "rank_in_cluster": 5}

>  <energy>  (39) 
-8.47

>  <cluster_rmsd>  (39) 
0.0

>  <cluster>  (39) 
2

$$$$

     RDKit          3D

 48 51  0  0  0  0  0  0  0  0999 V2000
  141.4530   74.5660  221.1900 O   0  0  0  0  0  0  0  0  0  0  0  0
  140.4750   74.8970  221.8980 C   0  0  0  0  0  0  0  0  0  0  0  0
  139.5750   73.8890  222.3420 N   0  0  0  0  0  0  0  0  0  0  0  0
  139.7430   72.5020  222.0100 C   0  0  0  0  0  0  0  0  0  0  0  0
  138.7060   71.6460  222.6890 C   0  0  0  0  0  0  0  0  0  0  0  0
  137.6880   72.2540  223.0850 O   0  0  0  0  0  0  0  0  0  0  0  0
  138.9670   70.2790  222.8140 N   0  0  0  0  0  0  0  0  0  0  0  0
  138.6270   69.2300  221.8060 C   0  0  0  0  0  0  0  0  0  0  0  0
  137.7860   68.3220  222.6740 C   0  0  0  0  0  0  0  0  0  0  0  0
  138.5720   68.3510  223.9920 C   0  0  0  0  0  0  0  0  0  0  0  0
  139.5770   69.4730  223.8540 C   0  0  2  0  0  0  0  0  0  0  0  0
  139.9790   70.1280  225.0700 C   0  0  0  0  0  0  0  0  0  0  0  0
  140.8050   71.2200  225.0330 C   0  0  0  0  0  0  0  0  0  0  0  0
  141.2000   71.8880  226.1980 C   0  0  0  0  0  0  0  0  0  0  0  0
  140.7790   71.4780  227.4470 C   0  0  0  0  0  0  0  0  0  0  0  0
  139.9490   70.3780  227.4880 C   0  0  0  0  0  0  0  0  0  0  0  0
  139.5140   69.9450  228.7020 F   0  0  0  0  0  0  0  0  0  0  0  0
  139.5600   69.7220  226.3440 C   0  0  0  0  0  0  0  0  0  0  0  0
  140.2340   76.3040  222.2810 C   0  0  0  0  0  0  0  0  0  0  0  0
  138.9350   76.7660  222.3270 C   0  0  0  0  0  0  0  0  0  0  0  0
  138.6610   78.0700  222.6790 C   0  0  0  0  0  0  0  0  0  0  0  0
  139.7680   78.8690  222.9790 C   0  0  0  0  0  0  0  0  0  0  0  0
  139.5370   80.1870  223.3370 C   0  0  0  0  0  0  0  0  0  0  0  0
  140.6540   80.9670  223.6320 C   0  0  0  0  0  0  0  0  0  0  0  0
  141.9290   80.4670  223.5730 C   0  0  0  0  0  0  0  0  0  0  0  0
  142.1540   79.1470  223.2140 C   0  0  0  0  0  0  0  0  0  0  0  0
  141.0470   78.3820  222.9240 C   0  0  0  0  0  0  0  0  0  0  0  0
  141.2600   77.1000  222.5750 N   0  0  0  0  0  0  0  0  0  0  0  0
  138.7600   74.2190  222.9400 H   0  0  0  0  0  0  0  0  0  0  0  0
  139.6500   72.3807  220.9207 H   0  0  0  0  0  0  0  0  0  0  0  0
  140.7371   72.1810  222.3545 H   0  0  0  0  0  0  0  0  0  0  0  0
  138.0525   69.6407  220.9626 H   0  0  0  0  0  0  0  0  0  0  0  0
  139.4879   68.7496  221.3182 H   0  0  0  0  0  0  0  0  0  0  0  0
  136.7682   68.7186  222.8036 H   0  0  0  0  0  0  0  0  0  0  0  0
  137.6387   67.3136  222.2600 H   0  0  0  0  0  0  0  0  0  0  0  0
  137.8948   68.5463  224.8366 H   0  0  0  0  0  0  0  0  0  0  0  0
  139.0674   67.3883  224.1868 H   0  0  0  0  0  0  0  0  0  0  0  0
  140.5871   69.1353  223.5788 H   0  0  0  0  0  0  0  0  0  0  0  0
  141.1683   71.5824  224.0600 H   0  0  0  0  0  0  0  0  0  0  0  0
  141.8628   72.7620  226.1160 H   0  0  0  0  0  0  0  0  0  0  0  0
  141.0899   72.0021  228.3628 H   0  0  0  0  0  0  0  0  0  0  0  0
  138.8972   68.8486  226.4319 H   0  0  0  0  0  0  0  0  0  0  0  0
  138.1074   76.0850  222.0796 H   0  0  0  0  0  0  0  0  0  0  0  0
  137.6328   78.4587  222.7213 H   0  0  0  0  0  0  0  0  0  0  0  0
  138.5184   80.5994  223.3863 H   0  0  0  0  0  0  0  0  0  0  0  0
  140.5076   82.0180  223.9216 H   0  0  0  0  0  0  0  0  0  0  0  0
  142.7816   81.1193  223.8128 H   0  0  0  0  0  0  0  0  0  0  0  0
  143.1706   78.7300  223.1632 H   0  0  0  0  0  0  0  0  0  0  0  0
  1  2  2  0
  2  3  1  0
  3  4  1  0
  4  5  1  0
  5  6  2  0
  5  7  1  0
  7  8  1  0
  8  9  1  0
  9 10  1  0
 10 11  1  0
 11 12  1  0
 12 13  2  0
 13 14  1  0
 14 15  2  0
 15 16  1  0
 16 17  1  0
 16 18  2  0
  2 19  1  0
 19 20  2  0
 20 21  1  0
 21 22  2  0
 22 23  1  0
 23 24  2  0
 24 25  1  0
 25 26  2  0
 26 27  1  0
 27 28  2  0
 11  7  1  0
 18 12  1  0
 28 19  1  0
 27 22  1  0
  3 29  1  0
  4 30  1  0
  4 31  1  0
  8 32  1  0
  8 33  1  0
  9 34  1  0
  9 35  1  0
 10 36  1  0
 10 37  1  0
 11 38  1  6
 13 39  1  0
 14 40  1  0
 15 41  1  0
 18 42  1  0
 20 43  1  0
 21 44  1  0
 23 45  1  0
 24 46  1  0
 25 47  1  0
 26 48  1  0
M  END
>  <smiles>  (40) 
O=C(NCC(=O)N1CCCC1c1cccc(F)c1)c1ccc2ccccc2n1

>  <score_type>  (40) 
oracle

>  <origin>  (40) 
autodockgpu

>  <m_score__min__energy>  (40) 
-8.8399999999999999

>  <m_primary>  (40) 
energy

>  <rmsd>  (40) 
8.284162834284478

>  <m_score__min__rmsd>  (40) 
8.284162834284478

>  <meeko>  (40) 
{"free_energy": -8.15, "intermolecular_energy": -9.64, "internal_energy": -1.76, "cluster_size": 1, "cluster_id": 3, "rank_in_cluster": 1}

>  <energy>  (40) 
-8.46

>  <cluster_rmsd>  (40) 
0.09

>  <cluster>  (40) 
2

$$$$

     RDKit          3D

 48 51  0  0  0  0  0  0  0  0999 V2000
  140.4330   71.3470  221.2950 O   0  0  0  0  0  0  0  0  0  0  0  0
  140.1380   71.9290  222.3640 C   0  0  0  0  0  0  0  0  0  0  0  0
  139.8230   73.3160  222.3290 N   0  0  0  0  0  0  0  0  0  0  0  0
  139.8300   74.0790  221.1120 C   0  0  0  0  0  0  0  0  0  0  0  0
  140.0730   75.5400  221.3840 C   0  0  0  0  0  0  0  0  0  0  0  0
  139.7990   75.9210  222.5430 O   0  0  0  0  0  0  0  0  0  0  0  0
  140.5720   76.3250  220.3410 N   0  0  0  0  0  0  0  0  0  0  0  0
  140.8150   75.8630  218.9410 C   0  0  0  0  0  0  0  0  0  0  0  0
  142.2820   76.2100  218.8210 C   0  0  0  0  0  0  0  0  0  0  0  0
  142.3310   77.5640  219.5440 C   0  0  0  0  0  0  0  0  0  0  0  0
  141.0020   77.7070  220.2520 C   0  0  2  0  0  0  0  0  0  0  0  0
  140.9970   78.4960  221.4550 C   0  0  0  0  0  0  0  0  0  0  0  0
  142.1620   79.0140  221.9540 C   0  0  0  0  0  0  0  0  0  0  0  0
  142.1860   79.7990  223.1130 C   0  0  0  0  0  0  0  0  0  0  0  0
  141.0340   80.0890  223.8150 C   0  0  0  0  0  0  0  0  0  0  0  0
  139.8590   79.5670  223.3170 C   0  0  0  0  0  0  0  0  0  0  0  0
  138.7040   79.8330  223.9840 F   0  0  0  0  0  0  0  0  0  0  0  0
  139.8350   78.7980  222.1780 C   0  0  0  0  0  0  0  0  0  0  0  0
  140.1100   71.2120  223.6560 C   0  0  0  0  0  0  0  0  0  0  0  0
  139.5990   69.9310  223.6930 C   0  0  0  0  0  0  0  0  0  0  0  0
  139.5520   69.2230  224.8740 C   0  0  0  0  0  0  0  0  0  0  0  0
  140.0460   69.8820  226.0040 C   0  0  0  0  0  0  0  0  0  0  0  0
  140.0170   69.2060  227.2120 C   0  0  0  0  0  0  0  0  0  0  0  0
  140.5140   69.8800  228.3260 C   0  0  0  0  0  0  0  0  0  0  0  0
  141.0120   71.1550  228.2450 C   0  0  0  0  0  0  0  0  0  0  0  0
  141.0390   71.8260  227.0320 C   0  0  0  0  0  0  0  0  0  0  0  0
  140.5470   71.1550  225.9360 C   0  0  0  0  0  0  0  0  0  0  0  0
  140.5700   71.8030  224.7570 N   0  0  0  0  0  0  0  0  0  0  0  0
  139.5800   73.7650  223.2610 H   0  0  0  0  0  0  0  0  0  0  0  0
  140.6268   73.6993  220.4555 H   0  0  0  0  0  0  0  0  0  0  0  0
  138.8465   73.9742  220.6307 H   0  0  0  0  0  0  0  0  0  0  0  0
  140.6371   74.7834  218.8274 H   0  0  0  0  0  0  0  0  0  0  0  0
  140.1617   76.3110  218.1778 H   0  0  0  0  0  0  0  0  0  0  0  0
  142.9149   75.4628  219.3221 H   0  0  0  0  0  0  0  0  0  0  0  0
  142.6552   76.2379  217.7866 H   0  0  0  0  0  0  0  0  0  0  0  0
  143.1554   77.5789  220.2721 H   0  0  0  0  0  0  0  0  0  0  0  0
  142.5031   78.3910  218.8394 H   0  0  0  0  0  0  0  0  0  0  0  0
  140.2759   78.3334  219.7130 H   0  0  0  0  0  0  0  0  0  0  0  0
  143.1064   78.8074  221.4291 H   0  0  0  0  0  0  0  0  0  0  0  0
  143.1472   80.1945  223.4730 H   0  0  0  0  0  0  0  0  0  0  0  0
  141.0521   80.7054  224.7259 H   0  0  0  0  0  0  0  0  0  0  0  0
  138.8708   78.4062  221.8218 H   0  0  0  0  0  0  0  0  0  0  0  0
  139.2243   69.4690  222.7677 H   0  0  0  0  0  0  0  0  0  0  0  0
  139.1499   68.2004  224.9249 H   0  0  0  0  0  0  0  0  0  0  0  0
  139.6196   68.1832  227.2890 H   0  0  0  0  0  0  0  0  0  0  0  0
  140.5066   69.3727  229.3020 H   0  0  0  0  0  0  0  0  0  0  0  0
  141.3934   71.6498  229.1503 H   0  0  0  0  0  0  0  0  0  0  0  0
  141.4358   72.8486  226.9495 H   0  0  0  0  0  0  0  0  0  0  0  0
  1  2  2  0
  2  3  1  0
  3  4  1  0
  4  5  1  0
  5  6  2  0
  5  7  1  0
  7  8  1  0
  8  9  1  0
  9 10  1  0
 10 11  1  0
 11 12  1  0
 12 13  2  0
 13 14  1  0
 14 15  2  0
 15 16  1  0
 16 17  1  0
 16 18  2  0
  2 19  1  0
 19 20  2  0
 20 21  1  0
 21 22  2  0
 22 23  1  0
 23 24  2  0
 24 25  1  0
 25 26  2  0
 26 27  1  0
 27 28  2  0
 11  7  1  0
 18 12  1  0
 28 19  1  0
 27 22  1  0
  3 29  1  0
  4 30  1  0
  4 31  1  0
  8 32  1  0
  8 33  1  0
  9 34  1  0
  9 35  1  0
 10 36  1  0
 10 37  1  0
 11 38  1  6
 13 39  1  0
 14 40  1  0
 15 41  1  0
 18 42  1  0
 20 43  1  0
 21 44  1  0
 23 45  1  0
 24 46  1  0
 25 47  1  0
 26 48  1  0
M  END
>  <smiles>  (41) 
O=C(NCC(=O)N1CCCC1c1cccc(F)c1)c1ccc2ccccc2n1

>  <score_type>  (41) 
oracle

>  <origin>  (41) 
autodockgpu

>  <m_score__min__energy>  (41) 
-8.8399999999999999

>  <m_primary>  (41) 
energy

>  <rmsd>  (41) 
1.6544971292212962

>  <m_score__min__rmsd>  (41) 
1.6544971292212962

>  <meeko>  (41) 
{"free_energy": -8.71, "intermolecular_energy": -10.2, "internal_energy": -1.8, "cluster_size": 38, "cluster_id": 1, "rank_in_cluster": 22}

>  <energy>  (41) 
-8.46

>  <cluster_rmsd>  (41) 
0.09

>  <cluster>  (41) 
2

$$$$

     RDKit          3D

 48 51  0  0  0  0  0  0  0  0999 V2000
  141.1990   71.7250  221.5530 O   0  0  0  0  0  0  0  0  0  0  0  0
  140.3910   72.1190  222.4240 C   0  0  0  0  0  0  0  0  0  0  0  0
  139.6530   73.3120  222.1890 N   0  0  0  0  0  0  0  0  0  0  0  0
  139.7990   74.0870  220.9890 C   0  0  0  0  0  0  0  0  0  0  0  0
  140.8260   75.1750  221.1600 C   0  0  0  0  0  0  0  0  0  0  0  0
  141.0720   75.4970  222.3420 O   0  0  0  0  0  0  0  0  0  0  0  0
  141.4020   75.7160  220.0070 N   0  0  0  0  0  0  0  0  0  0  0  0
  140.7540   76.7000  219.0880 C   0  0  0  0  0  0  0  0  0  0  0  0
  140.8550   75.9260  217.7930 C   0  0  0  0  0  0  0  0  0  0  0  0
  142.2560   75.3110  217.9170 C   0  0  0  0  0  0  0  0  0  0  0  0
  142.6820   75.5290  219.3520 C   0  0  2  0  0  0  0  0  0  0  0  0
  143.5910   74.5620  219.9060 C   0  0  0  0  0  0  0  0  0  0  0  0
  144.7740   74.9600  220.4700 C   0  0  0  0  0  0  0  0  0  0  0  0
  145.6700   74.0440  221.0320 C   0  0  0  0  0  0  0  0  0  0  0  0
  145.4100   72.6890  221.0440 C   0  0  0  0  0  0  0  0  0  0  0  0
  144.2210   72.2840  220.4750 C   0  0  0  0  0  0  0  0  0  0  0  0
  143.9310   70.9550  220.4690 F   0  0  0  0  0  0  0  0  0  0  0  0
  143.3390   73.1840  219.9250 C   0  0  0  0  0  0  0  0  0  0  0  0
  140.1860   71.3770  223.6860 C   0  0  0  0  0  0  0  0  0  0  0  0
  139.5080   70.1760  223.6470 C   0  0  0  0  0  0  0  0  0  0  0  0
  139.2920   69.4490  224.7970 C   0  0  0  0  0  0  0  0  0  0  0  0
  139.7990   70.0030  225.9760 C   0  0  0  0  0  0  0  0  0  0  0  0
  139.6040   69.3040  227.1560 C   0  0  0  0  0  0  0  0  0  0  0  0
  140.1170   69.8730  228.3210 C   0  0  0  0  0  0  0  0  0  0  0  0
  140.7850   71.0700  228.3140 C   0  0  0  0  0  0  0  0  0  0  0  0
  140.9770   71.7650  227.1290 C   0  0  0  0  0  0  0  0  0  0  0  0
  140.4690   71.1980  225.9840 C   0  0  0  0  0  0  0  0  0  0  0  0
  140.6520   71.8690  224.8320 N   0  0  0  0  0  0  0  0  0  0  0  0
  138.9810   73.6060  222.9580 H   0  0  0  0  0  0  0  0  0  0  0  0
  140.1135   73.4232  220.1702 H   0  0  0  0  0  0  0  0  0  0  0  0
  138.8311   74.5570  220.7601 H   0  0  0  0  0  0  0  0  0  0  0  0
  139.7090   76.8984  219.3683 H   0  0  0  0  0  0  0  0  0  0  0  0
  141.2087   77.7015  219.0744 H   0  0  0  0  0  0  0  0  0  0  0  0
  140.0789   75.1493  217.7268 H   0  0  0  0  0  0  0  0  0  0  0  0
  140.7106   76.5381  216.8905 H   0  0  0  0  0  0  0  0  0  0  0  0
  142.2230   74.2357  217.6873 H   0  0  0  0  0  0  0  0  0  0  0  0
  142.9627   75.7737  217.2124 H   0  0  0  0  0  0  0  0  0  0  0  0
  143.3500   76.3917  219.4921 H   0  0  0  0  0  0  0  0  0  0  0  0
  145.0269   76.0305  220.4815 H   0  0  0  0  0  0  0  0  0  0  0  0
  146.6061   74.4138  221.4758 H   0  0  0  0  0  0  0  0  0  0  0  0
  146.1150   71.9688  221.4848 H   0  0  0  0  0  0  0  0  0  0  0  0
  142.4032   72.8092  219.4847 H   0  0  0  0  0  0  0  0  0  0  0  0
  139.1351   69.7941  222.6852 H   0  0  0  0  0  0  0  0  0  0  0  0
  138.7530   68.4902  224.7880 H   0  0  0  0  0  0  0  0  0  0  0  0
  139.0685   68.3433  227.1731 H   0  0  0  0  0  0  0  0  0  0  0  0
  139.9814   69.3445  229.2761 H   0  0  0  0  0  0  0  0  0  0  0  0
  141.1724   71.4833  229.2569 H   0  0  0  0  0  0  0  0  0  0  0  0
  141.5114   72.7262  227.1063 H   0  0  0  0  0  0  0  0  0  0  0  0
  1  2  2  0
  2  3  1  0
  3  4  1  0
  4  5  1  0
  5  6  2  0
  5  7  1  0
  7  8  1  0
  8  9  1  0
  9 10  1  0
 10 11  1  0
 11 12  1  0
 12 13  2  0
 13 14  1  0
 14 15  2  0
 15 16  1  0
 16 17  1  0
 16 18  2  0
  2 19  1  0
 19 20  2  0
 20 21  1  0
 21 22  2  0
 22 23  1  0
 23 24  2  0
 24 25  1  0
 25 26  2  0
 26 27  1  0
 27 28  2  0
 11  7  1  0
 18 12  1  0
 28 19  1  0
 27 22  1  0
  3 29  1  0
  4 30  1  0
  4 31  1  0
  8 32  1  0
  8 33  1  0
  9 34  1  0
  9 35  1  0
 10 36  1  0
 10 37  1  0
 11 38  1  6
 13 39  1  0
 14 40  1  0
 15 41  1  0
 18 42  1  0
 20 43  1  0
 21 44  1  0
 23 45  1  0
 24 46  1  0
 25 47  1  0
 26 48  1  0
M  END
>  <smiles>  (42) 
O=C(NCC(=O)N1CCCC1c1cccc(F)c1)c1ccc2ccccc2n1

>  <score_type>  (42) 
oracle

>  <origin>  (42) 
autodockgpu

>  <m_score__min__energy>  (42) 
-8.8399999999999999

>  <m_primary>  (42) 
energy

>  <rmsd>  (42) 
1.8848760351673925

>  <m_score__min__rmsd>  (42) 
1.8848760351673925

>  <meeko>  (42) 
{"free_energy": -8.25, "intermolecular_energy": -9.74, "internal_energy": -1.67, "cluster_size": 10, "cluster_id": 2, "rank_in_cluster": 8}

>  <energy>  (42) 
-8.43

>  <cluster_rmsd>  (42) 
0.07

>  <cluster>  (42) 
2

$$$$

     RDKit          3D

 48 51  0  0  0  0  0  0  0  0999 V2000
  140.3620   71.3120  221.2780 O   0  0  0  0  0  0  0  0  0  0  0  0
  140.1040   71.9300  222.3360 C   0  0  0  0  0  0  0  0  0  0  0  0
  139.8680   73.3320  222.2740 N   0  0  0  0  0  0  0  0  0  0  0  0
  139.9130   74.0700  221.0430 C   0  0  0  0  0  0  0  0  0  0  0  0
  140.6990   75.3450  221.1970 C   0  0  0  0  0  0  0  0  0  0  0  0
  140.7270   75.8190  222.3530 O   0  0  0  0  0  0  0  0  0  0  0  0
  141.3140   75.8750  220.0600 N   0  0  0  0  0  0  0  0  0  0  0  0
  140.7250   76.9010  219.1470 C   0  0  0  0  0  0  0  0  0  0  0  0
  140.8060   76.1410  217.8430 C   0  0  0  0  0  0  0  0  0  0  0  0
  142.1750   75.4590  217.9740 C   0  0  0  0  0  0  0  0  0  0  0  0
  142.5920   75.6380  219.4170 C   0  0  2  0  0  0  0  0  0  0  0  0
  143.4490   74.6210  219.9690 C   0  0  0  0  0  0  0  0  0  0  0  0
  144.6890   74.9420  220.4520 C   0  0  0  0  0  0  0  0  0  0  0  0
  145.5370   73.9780  221.0090 C   0  0  0  0  0  0  0  0  0  0  0  0
  145.1680   72.6510  221.0970 C   0  0  0  0  0  0  0  0  0  0  0  0
  143.9200   72.3240  220.6100 C   0  0  0  0  0  0  0  0  0  0  0  0
  143.5210   71.0250  220.6800 F   0  0  0  0  0  0  0  0  0  0  0  0
  143.0860   73.2710  220.0640 C   0  0  0  0  0  0  0  0  0  0  0  0
  140.0410   71.2410  223.6420 C   0  0  0  0  0  0  0  0  0  0  0  0
  139.4950   69.9760  223.6980 C   0  0  0  0  0  0  0  0  0  0  0  0
  139.4140   69.2940  224.8930 C   0  0  0  0  0  0  0  0  0  0  0  0
  139.9130   69.9630  226.0150 C   0  0  0  0  0  0  0  0  0  0  0  0
  139.8500   69.3130  227.2360 C   0  0  0  0  0  0  0  0  0  0  0  0
  140.3530   69.9960  228.3430 C   0  0  0  0  0  0  0  0  0  0  0  0
  140.8870   71.2550  228.2410 C   0  0  0  0  0  0  0  0  0  0  0  0
  140.9460   71.9000  227.0150 C   0  0  0  0  0  0  0  0  0  0  0  0
  140.4490   71.2200  225.9270 C   0  0  0  0  0  0  0  0  0  0  0  0
  140.5040   71.8420  224.7360 N   0  0  0  0  0  0  0  0  0  0  0  0
  139.6540   73.8120  223.1980 H   0  0  0  0  0  0  0  0  0  0  0  0
  140.3874   73.4480  220.2696 H   0  0  0  0  0  0  0  0  0  0  0  0
  138.8832   74.3298  220.7565 H   0  0  0  0  0  0  0  0  0  0  0  0
  139.6870   77.1448  219.4173 H   0  0  0  0  0  0  0  0  0  0  0  0
  141.2267   77.8799  219.1531 H   0  0  0  0  0  0  0  0  0  0  0  0
  139.9953   75.4025  217.7568 H   0  0  0  0  0  0  0  0  0  0  0  0
  140.7018   76.7717  216.9478 H   0  0  0  0  0  0  0  0  0  0  0  0
  142.0946   74.3897  217.7290 H   0  0  0  0  0  0  0  0  0  0  0  0
  142.9115   75.8966  217.2839 H   0  0  0  0  0  0  0  0  0  0  0  0
  143.2967   76.4674  219.5766 H   0  0  0  0  0  0  0  0  0  0  0  0
  145.0284   75.9871  220.4009 H   0  0  0  0  0  0  0  0  0  0  0  0
  146.5233   74.2859  221.3865 H   0  0  0  0  0  0  0  0  0  0  0  0
  145.8352   71.8931  221.5333 H   0  0  0  0  0  0  0  0  0  0  0  0
  142.1003   72.9582  219.6890 H   0  0  0  0  0  0  0  0  0  0  0  0
  139.1194   69.5053  222.7775 H   0  0  0  0  0  0  0  0  0  0  0  0
  138.9828   68.2843  224.9601 H   0  0  0  0  0  0  0  0  0  0  0  0
  139.4226   68.3037  227.3286 H   0  0  0  0  0  0  0  0  0  0  0  0
  140.3204   69.5095  229.3290 H   0  0  0  0  0  0  0  0  0  0  0  0
  141.2722   71.7579  229.1403 H   0  0  0  0  0  0  0  0  0  0  0  0
  141.3710   72.9098  226.9166 H   0  0  0  0  0  0  0  0  0  0  0  0
  1  2  2  0
  2  3  1  0
  3  4  1  0
  4  5  1  0
  5  6  2  0
  5  7  1  0
  7  8  1  0
  8  9  1  0
  9 10  1  0
 10 11  1  0
 11 12  1  0
 12 13  2  0
 13 14  1  0
 14 15  2  0
 15 16  1  0
 16 17  1  0
 16 18  2  0
  2 19  1  0
 19 20  2  0
 20 21  1  0
 21 22  2  0
 22 23  1  0
 23 24  2  0
 24 25  1  0
 25 26  2  0
 26 27  1  0
 27 28  2  0
 11  7  1  0
 18 12  1  0
 28 19  1  0
 27 22  1  0
  3 29  1  0
  4 30  1  0
  4 31  1  0
  8 32  1  0
  8 33  1  0
  9 34  1  0
  9 35  1  0
 10 36  1  0
 10 37  1  0
 11 38  1  6
 13 39  1  0
 14 40  1  0
 15 41  1  0
 18 42  1  0
 20 43  1  0
 21 44  1  0
 23 45  1  0
 24 46  1  0
 25 47  1  0
 26 48  1  0
M  END
>  <smiles>  (43) 
O=C(NCC(=O)N1CCCC1c1cccc(F)c1)c1ccc2ccccc2n1

>  <score_type>  (43) 
oracle

>  <origin>  (43) 
autodockgpu

>  <m_score__min__energy>  (43) 
-8.8399999999999999

>  <m_primary>  (43) 
energy

>  <rmsd>  (43) 
1.8419460113001296

>  <m_score__min__rmsd>  (43) 
1.8419460113001296

>  <meeko>  (43) 
{"free_energy": -8.1, "intermolecular_energy": -9.59, "internal_energy": -2.02, "cluster_size": 10, "cluster_id": 2, "rank_in_cluster": 10}

>  <energy>  (43) 
-8.41

>  <cluster_rmsd>  (43) 
0.13

>  <cluster>  (43) 
2

$$$$

     RDKit          3D

 48 51  0  0  0  0  0  0  0  0999 V2000
  140.7580   71.3560  221.3560 O   0  0  0  0  0  0  0  0  0  0  0  0
  140.3540   71.9490  222.3820 C   0  0  0  0  0  0  0  0  0  0  0  0
  140.0180   73.3290  222.2920 N   0  0  0  0  0  0  0  0  0  0  0  0
  140.1240   74.0720  221.0680 C   0  0  0  0  0  0  0  0  0  0  0  0
  140.2230   75.5510  221.3310 C   0  0  0  0  0  0  0  0  0  0  0  0
  139.9230   75.9090  222.4910 O   0  0  0  0  0  0  0  0  0  0  0  0
  140.6340   76.3760  220.2800 N   0  0  0  0  0  0  0  0  0  0  0  0
  140.8180   75.9530  218.8600 C   0  0  0  0  0  0  0  0  0  0  0  0
  142.2610   76.3620  218.6690 C   0  0  0  0  0  0  0  0  0  0  0  0
  142.2960   77.7020  219.4190 C   0  0  0  0  0  0  0  0  0  0  0  0
  141.0030   77.7760  220.2000 C   0  0  2  0  0  0  0  0  0  0  0  0
  141.0310   78.5400  221.4190 C   0  0  0  0  0  0  0  0  0  0  0  0
  139.8800   78.7740  222.1220 C   0  0  0  0  0  0  0  0  0  0  0  0
  139.8800   79.4990  223.3190 C   0  0  0  0  0  0  0  0  0  0  0  0
  141.0410   80.0200  223.8520 C   0  0  0  0  0  0  0  0  0  0  0  0
  142.2020   79.7880  223.1460 C   0  0  0  0  0  0  0  0  0  0  0  0
  143.3670   80.2860  223.6410 F   0  0  0  0  0  0  0  0  0  0  0  0
  142.2040   79.0740  221.9700 C   0  0  0  0  0  0  0  0  0  0  0  0
  140.2190   71.2540  223.6790 C   0  0  0  0  0  0  0  0  0  0  0  0
  139.5970   70.0230  223.7090 C   0  0  0  0  0  0  0  0  0  0  0  0
  139.4470   69.3360  224.8950 C   0  0  0  0  0  0  0  0  0  0  0  0
  139.9590   69.9630  226.0350 C   0  0  0  0  0  0  0  0  0  0  0  0
  139.8290   69.3070  227.2480 C   0  0  0  0  0  0  0  0  0  0  0  0
  140.3460   69.9480  228.3720 C   0  0  0  0  0  0  0  0  0  0  0  0
  140.9570   71.1740  228.2960 C   0  0  0  0  0  0  0  0  0  0  0  0
  141.0840   71.8260  227.0790 C   0  0  0  0  0  0  0  0  0  0  0  0
  140.5720   71.1870  225.9730 C   0  0  0  0  0  0  0  0  0  0  0  0
  140.6920   71.8150  224.7900 N   0  0  0  0  0  0  0  0  0  0  0  0
  139.6810   73.7880  223.1890 H   0  0  0  0  0  0  0  0  0  0  0  0
  141.0234   73.7436  220.5265 H   0  0  0  0  0  0  0  0  0  0  0  0
  139.2194   73.8861  220.4703 H   0  0  0  0  0  0  0  0  0  0  0  0
  140.6772   74.8696  218.7320 H   0  0  0  0  0  0  0  0  0  0  0  0
  140.1066   76.3892  218.1433 H   0  0  0  0  0  0  0  0  0  0  0  0
  142.9495   75.6311  219.1181 H   0  0  0  0  0  0  0  0  0  0  0  0
  142.5754   76.4264  217.6169 H   0  0  0  0  0  0  0  0  0  0  0  0
  143.1576   77.7354  220.1020 H   0  0  0  0  0  0  0  0  0  0  0  0
  142.3970   78.5497  218.7253 H   0  0  0  0  0  0  0  0  0  0  0  0
  140.2244   78.3832  219.7152 H   0  0  0  0  0  0  0  0  0  0  0  0
  138.9282   78.3811  221.7351 H   0  0  0  0  0  0  0  0  0  0  0  0
  138.9292   79.6577  223.8489 H   0  0  0  0  0  0  0  0  0  0  0  0
  141.0402   80.5912  224.7921 H   0  0  0  0  0  0  0  0  0  0  0  0
  143.1577   78.9170  221.4448 H   0  0  0  0  0  0  0  0  0  0  0  0
  139.2160   69.5841  222.7751 H   0  0  0  0  0  0  0  0  0  0  0  0
  138.9542   68.3537  224.9415 H   0  0  0  0  0  0  0  0  0  0  0  0
  139.3398   68.3245  227.3207 H   0  0  0  0  0  0  0  0  0  0  0  0
  140.2615   69.4552  229.3518 H   0  0  0  0  0  0  0  0  0  0  0  0
  141.3500   71.6443  229.2095 H   0  0  0  0  0  0  0  0  0  0  0  0
  141.5716   72.8089  227.0011 H   0  0  0  0  0  0  0  0  0  0  0  0
  1  2  2  0
  2  3  1  0
  3  4  1  0
  4  5  1  0
  5  6  2  0
  5  7  1  0
  7  8  1  0
  8  9  1  0
  9 10  1  0
 10 11  1  0
 11 12  1  0
 12 13  2  0
 13 14  1  0
 14 15  2  0
 15 16  1  0
 16 17  1  0
 16 18  2  0
  2 19  1  0
 19 20  2  0
 20 21  1  0
 21 22  2  0
 22 23  1  0
 23 24  2  0
 24 25  1  0
 25 26  2  0
 26 27  1  0
 27 28  2  0
 11  7  1  0
 18 12  1  0
 28 19  1  0
 27 22  1  0
  3 29  1  0
  4 30  1  0
  4 31  1  0
  8 32  1  0
  8 33  1  0
  9 34  1  0
  9 35  1  0
 10 36  1  0
 10 37  1  0
 11 38  1  6
 13 39  1  0
 14 40  1  0
 15 41  1  0
 18 42  1  0
 20 43  1  0
 21 44  1  0
 23 45  1  0
 24 46  1  0
 25 47  1  0
 26 48  1  0
M  END
>  <smiles>  (44) 
O=C(NCC(=O)N1CCCC1c1cccc(F)c1)c1ccc2ccccc2n1

>  <score_type>  (44) 
oracle

>  <origin>  (44) 
autodockgpu

>  <m_score__min__energy>  (44) 
-8.8399999999999999

>  <m_primary>  (44) 
energy

>  <rmsd>  (44) 
1.7219669155115032

>  <m_score__min__rmsd>  (44) 
1.7219669155115032

>  <meeko>  (44) 
{"free_energy": -8.72, "intermolecular_energy": -10.21, "internal_energy": -1.79, "cluster_size": 38, "cluster_id": 1, "rank_in_cluster": 18}

>  <energy>  (44) 
-8.41

>  <cluster_rmsd>  (44) 
0.17

>  <cluster>  (44) 
2

$$$$

     RDKit          3D

 48 51  0  0  0  0  0  0  0  0999 V2000
  140.8280   71.5230  221.3770 O   0  0  0  0  0  0  0  0  0  0  0  0
  140.3470   72.0880  222.3860 C   0  0  0  0  0  0  0  0  0  0  0  0
  139.9560   73.4530  222.2890 N   0  0  0  0  0  0  0  0  0  0  0  0
  140.0930   74.2120  221.0770 C   0  0  0  0  0  0  0  0  0  0  0  0
  140.7950   75.5200  221.3260 C   0  0  0  0  0  0  0  0  0  0  0  0
  140.7090   75.9590  222.4930 O   0  0  0  0  0  0  0  0  0  0  0  0
  141.4660   76.1170  220.2550 N   0  0  0  0  0  0  0  0  0  0  0  0
  140.9860   77.2960  219.4730 C   0  0  0  0  0  0  0  0  0  0  0  0
  140.9970   76.6910  218.0880 C   0  0  0  0  0  0  0  0  0  0  0  0
  142.2900   75.8650  218.1290 C   0  0  0  0  0  0  0  0  0  0  0  0
  142.7170   75.8300  219.5800 C   0  0  2  0  0  0  0  0  0  0  0  0
  143.4640   74.6750  220.0020 C   0  0  0  0  0  0  0  0  0  0  0  0
  142.9160   73.4230  219.9230 C   0  0  0  0  0  0  0  0  0  0  0  0
  143.6250   72.2800  220.3100 C   0  0  0  0  0  0  0  0  0  0  0  0
  144.9140   72.3560  220.7960 C   0  0  0  0  0  0  0  0  0  0  0  0
  145.4690   73.6160  220.8790 C   0  0  0  0  0  0  0  0  0  0  0  0
  146.7390   73.7300  221.3530 F   0  0  0  0  0  0  0  0  0  0  0  0
  144.7740   74.7390  220.4970 C   0  0  0  0  0  0  0  0  0  0  0  0
  140.1760   71.3750  223.6680 C   0  0  0  0  0  0  0  0  0  0  0  0
  139.5220   70.1600  223.6700 C   0  0  0  0  0  0  0  0  0  0  0  0
  139.3380   69.4580  224.8410 C   0  0  0  0  0  0  0  0  0  0  0  0
  139.8500   70.0530  225.9990 C   0  0  0  0  0  0  0  0  0  0  0  0
  139.6860   69.3800  227.1980 C   0  0  0  0  0  0  0  0  0  0  0  0
  140.2030   69.9890  228.3400 C   0  0  0  0  0  0  0  0  0  0  0  0
  140.8470   71.2000  228.2940 C   0  0  0  0  0  0  0  0  0  0  0  0
  141.0070   71.8680  227.0890 C   0  0  0  0  0  0  0  0  0  0  0  0
  140.4950   71.2610  225.9660 C   0  0  0  0  0  0  0  0  0  0  0  0
  140.6480   71.9060  224.7950 N   0  0  0  0  0  0  0  0  0  0  0  0
  139.5540   73.8890  223.1710 H   0  0  0  0  0  0  0  0  0  0  0  0
  140.6753   73.6255  220.3511 H   0  0  0  0  0  0  0  0  0  0  0  0
  139.0872   74.4270  220.6870 H   0  0  0  0  0  0  0  0  0  0  0  0
  139.9760   77.6079  219.7775 H   0  0  0  0  0  0  0  0  0  0  0  0
  141.5826   78.2127  219.5905 H   0  0  0  0  0  0  0  0  0  0  0  0
  140.1169   76.0527  217.9207 H   0  0  0  0  0  0  0  0  0  0  0  0
  140.9609   77.4300  217.2740 H   0  0  0  0  0  0  0  0  0  0  0  0
  142.1039   74.8453  217.7607 H   0  0  0  0  0  0  0  0  0  0  0  0
  143.0697   76.3054  217.4902 H   0  0  0  0  0  0  0  0  0  0  0  0
  143.5013   76.5592  219.8311 H   0  0  0  0  0  0  0  0  0  0  0  0
  141.8891   73.3121  219.5446 H   0  0  0  0  0  0  0  0  0  0  0  0
  143.1419   71.2954  220.2244 H   0  0  0  0  0  0  0  0  0  0  0  0
  145.4706   71.4578  221.1016 H   0  0  0  0  0  0  0  0  0  0  0  0
  145.2623   75.7209  220.5826 H   0  0  0  0  0  0  0  0  0  0  0  0
  139.1425   69.7464  222.7240 H   0  0  0  0  0  0  0  0  0  0  0  0
  138.8197   68.4880  224.8641 H   0  0  0  0  0  0  0  0  0  0  0  0
  139.1712   68.4091  227.2469 H   0  0  0  0  0  0  0  0  0  0  0  0
  140.0912   69.4824  229.3100 H   0  0  0  0  0  0  0  0  0  0  0  0
  141.2395   71.6446  229.2204 H   0  0  0  0  0  0  0  0  0  0  0  0
  141.5202   72.8394  227.0340 H   0  0  0  0  0  0  0  0  0  0  0  0
  1  2  2  0
  2  3  1  0
  3  4  1  0
  4  5  1  0
  5  6  2  0
  5  7  1  0
  7  8  1  0
  8  9  1  0
  9 10  1  0
 10 11  1  0
 11 12  1  0
 12 13  2  0
 13 14  1  0
 14 15  2  0
 15 16  1  0
 16 17  1  0
 16 18  2  0
  2 19  1  0
 19 20  2  0
 20 21  1  0
 21 22  2  0
 22 23  1  0
 23 24  2  0
 24 25  1  0
 25 26  2  0
 26 27  1  0
 27 28  2  0
 11  7  1  0
 18 12  1  0
 28 19  1  0
 27 22  1  0
  3 29  1  0
  4 30  1  0
  4 31  1  0
  8 32  1  0
  8 33  1  0
  9 34  1  0
  9 35  1  0
 10 36  1  0
 10 37  1  0
 11 38  1  6
 13 39  1  0
 14 40  1  0
 15 41  1  0
 18 42  1  0
 20 43  1  0
 21 44  1  0
 23 45  1  0
 24 46  1  0
 25 47  1  0
 26 48  1  0
M  END
>  <smiles>  (45) 
O=C(NCC(=O)N1CCCC1c1cccc(F)c1)c1ccc2ccccc2n1

>  <score_type>  (45) 
oracle

>  <origin>  (45) 
autodockgpu

>  <m_score__min__energy>  (45) 
-8.8399999999999999

>  <m_primary>  (45) 
energy

>  <rmsd>  (45) 
1.978638223830154

>  <m_score__min__rmsd>  (45) 
1.978638223830154

>  <meeko>  (45) 
{"free_energy": -8.46, "intermolecular_energy": -9.96, "internal_energy": -1.85, "cluster_size": 10, "cluster_id": 2, "rank_in_cluster": 3}

>  <energy>  (45) 
-8.38

>  <cluster_rmsd>  (45) 
0.14

>  <cluster>  (45) 
2

$$$$

     RDKit          3D

 48 51  0  0  0  0  0  0  0  0999 V2000
  140.9640   71.3410  221.3840 O   0  0  0  0  0  0  0  0  0  0  0  0
  140.5170   71.9480  222.3840 C   0  0  0  0  0  0  0  0  0  0  0  0
  140.2400   73.3400  222.2770 N   0  0  0  0  0  0  0  0  0  0  0  0
  140.4530   74.0790  221.0650 C   0  0  0  0  0  0  0  0  0  0  0  0
  140.2070   75.5510  221.2710 C   0  0  0  0  0  0  0  0  0  0  0  0
  139.7040   75.8600  222.3720 O   0  0  0  0  0  0  0  0  0  0  0  0
  140.5560   76.4230  220.2360 N   0  0  0  0  0  0  0  0  0  0  0  0
  140.6720   76.0600  218.7910 C   0  0  0  0  0  0  0  0  0  0  0  0
  142.0990   76.4930  218.5450 C   0  0  0  0  0  0  0  0  0  0  0  0
  142.1610   77.8000  219.3470 C   0  0  0  0  0  0  0  0  0  0  0  0
  140.9080   77.8290  220.1950 C   0  0  2  0  0  0  0  0  0  0  0  0
  140.9930   78.5420  221.4410 C   0  0  0  0  0  0  0  0  0  0  0  0
  142.1980   78.9980  221.9030 C   0  0  0  0  0  0  0  0  0  0  0  0
  142.3090   79.7090  223.1040 C   0  0  0  0  0  0  0  0  0  0  0  0
  141.2070   79.9860  223.8870 C   0  0  0  0  0  0  0  0  0  0  0  0
  139.9920   79.5270  223.4260 C   0  0  0  0  0  0  0  0  0  0  0  0
  138.8830   79.7810  224.1720 F   0  0  0  0  0  0  0  0  0  0  0  0
  139.8820   78.8290  222.2460 C   0  0  0  0  0  0  0  0  0  0  0  0
  140.2720   71.2570  223.6660 C   0  0  0  0  0  0  0  0  0  0  0  0
  139.5930   70.0560  223.6540 C   0  0  0  0  0  0  0  0  0  0  0  0
  139.3400   69.3740  224.8240 C   0  0  0  0  0  0  0  0  0  0  0  0
  139.8110   69.9740  225.9960 C   0  0  0  0  0  0  0  0  0  0  0  0
  139.5790   69.3220  227.1960 C   0  0  0  0  0  0  0  0  0  0  0  0
  140.0560   69.9360  228.3520 C   0  0  0  0  0  0  0  0  0  0  0  0
  140.7270   71.1320  228.3200 C   0  0  0  0  0  0  0  0  0  0  0  0
  140.9570   71.7800  227.1150 C   0  0  0  0  0  0  0  0  0  0  0  0
  140.4830   71.1680  225.9770 C   0  0  0  0  0  0  0  0  0  0  0  0
  140.7030   71.7930  224.8070 N   0  0  0  0  0  0  0  0  0  0  0  0
  139.8630   73.8100  223.1530 H   0  0  0  0  0  0  0  0  0  0  0  0
  141.4916   73.9322  220.7336 H   0  0  0  0  0  0  0  0  0  0  0  0
  139.7467   73.7119  220.3058 H   0  0  0  0  0  0  0  0  0  0  0  0
  140.5352   74.9811  218.6257 H   0  0  0  0  0  0  0  0  0  0  0  0
  139.9211   76.5167  218.1295 H   0  0  0  0  0  0  0  0  0  0  0  0
  142.8161   75.7517  218.9276 H   0  0  0  0  0  0  0  0  0  0  0  0
  142.3582   76.6049  217.4818 H   0  0  0  0  0  0  0  0  0  0  0  0
  143.0558   77.8138  219.9866 H   0  0  0  0  0  0  0  0  0  0  0  0
  142.2197   78.6765  218.6850 H   0  0  0  0  0  0  0  0  0  0  0  0
  140.1003   78.4470  219.7759 H   0  0  0  0  0  0  0  0  0  0  0  0
  143.1055   78.8001  221.3136 H   0  0  0  0  0  0  0  0  0  0  0  0
  143.3001   80.0557  223.4319 H   0  0  0  0  0  0  0  0  0  0  0  0
  141.2938   80.5445  224.8307 H   0  0  0  0  0  0  0  0  0  0  0  0
  138.8886   78.4843  221.9231 H   0  0  0  0  0  0  0  0  0  0  0  0
  139.2488   69.6371  222.6969 H   0  0  0  0  0  0  0  0  0  0  0  0
  138.8002   68.4156  224.8355 H   0  0  0  0  0  0  0  0  0  0  0  0
  139.0423   68.3626  227.2344 H   0  0  0  0  0  0  0  0  0  0  0  0
  139.8891   69.4456  229.3224 H   0  0  0  0  0  0  0  0  0  0  0  0
  141.0858   71.5812  229.2578 H   0  0  0  0  0  0  0  0  0  0  0  0
  141.4937   72.7392  227.0711 H   0  0  0  0  0  0  0  0  0  0  0  0
  1  2  2  0
  2  3  1  0
  3  4  1  0
  4  5  1  0
  5  6  2  0
  5  7  1  0
  7  8  1  0
  8  9  1  0
  9 10  1  0
 10 11  1  0
 11 12  1  0
 12 13  2  0
 13 14  1  0
 14 15  2  0
 15 16  1  0
 16 17  1  0
 16 18  2  0
  2 19  1  0
 19 20  2  0
 20 21  1  0
 21 22  2  0
 22 23  1  0
 23 24  2  0
 24 25  1  0
 25 26  2  0
 26 27  1  0
 27 28  2  0
 11  7  1  0
 18 12  1  0
 28 19  1  0
 27 22  1  0
  3 29  1  0
  4 30  1  0
  4 31  1  0
  8 32  1  0
  8 33  1  0
  9 34  1  0
  9 35  1  0
 10 36  1  0
 10 37  1  0
 11 38  1  6
 13 39  1  0
 14 40  1  0
 15 41  1  0
 18 42  1  0
 20 43  1  0
 21 44  1  0
 23 45  1  0
 24 46  1  0
 25 47  1  0
 26 48  1  0
M  END
>  <smiles>  (46) 
O=C(NCC(=O)N1CCCC1c1cccc(F)c1)c1ccc2ccccc2n1

>  <score_type>  (46) 
oracle

>  <origin>  (46) 
autodockgpu

>  <m_score__min__energy>  (46) 
-8.8399999999999999

>  <m_primary>  (46) 
energy

>  <rmsd>  (46) 
1.768153351242399

>  <m_score__min__rmsd>  (46) 
1.768153351242399

>  <meeko>  (46) 
{"free_energy": -8.5, "intermolecular_energy": -10.0, "internal_energy": -1.86, "cluster_size": 38, "cluster_id": 1, "rank_in_cluster": 38}

>  <energy>  (46) 
-8.25

>  <cluster_rmsd>  (46) 
0.86

>  <cluster>  (46) 
2

$$$$

     RDKit          3D

 48 51  0  0  0  0  0  0  0  0999 V2000
  140.7590   71.3770  221.3490 O   0  0  0  0  0  0  0  0  0  0  0  0
  140.3320   71.9560  222.3740 C   0  0  0  0  0  0  0  0  0  0  0  0
  139.9760   73.3310  222.2890 N   0  0  0  0  0  0  0  0  0  0  0  0
  140.0880   74.0840  221.0710 C   0  0  0  0  0  0  0  0  0  0  0  0
  140.2480   75.5550  221.3500 C   0  0  0  0  0  0  0  0  0  0  0  0
  140.0300   75.9020  222.5310 O   0  0  0  0  0  0  0  0  0  0  0  0
  140.6190   76.3850  220.2890 N   0  0  0  0  0  0  0  0  0  0  0  0
  140.7680   75.9640  218.8630 C   0  0  0  0  0  0  0  0  0  0  0  0
  142.2000   76.3890  218.6310 C   0  0  0  0  0  0  0  0  0  0  0  0
  142.2420   77.7280  219.3800 C   0  0  0  0  0  0  0  0  0  0  0  0
  140.9710   77.7890  220.1980 C   0  0  2  0  0  0  0  0  0  0  0  0
  141.0270   78.5530  221.4160 C   0  0  0  0  0  0  0  0  0  0  0  0
  139.8900   78.7950  222.1400 C   0  0  0  0  0  0  0  0  0  0  0  0
  139.9160   79.5200  223.3360 C   0  0  0  0  0  0  0  0  0  0  0  0
  141.0900   80.0320  223.8490 C   0  0  0  0  0  0  0  0  0  0  0  0
  142.2370   79.7920  223.1220 C   0  0  0  0  0  0  0  0  0  0  0  0
  143.4140   80.2820  223.5970 F   0  0  0  0  0  0  0  0  0  0  0  0
  142.2120   79.0780  221.9470 C   0  0  0  0  0  0  0  0  0  0  0  0
  140.1890   71.2490  223.6630 C   0  0  0  0  0  0  0  0  0  0  0  0
  139.5630   70.0200  223.6810 C   0  0  0  0  0  0  0  0  0  0  0  0
  139.4060   69.3230  224.8590 C   0  0  0  0  0  0  0  0  0  0  0  0
  139.9160   69.9370  226.0060 C   0  0  0  0  0  0  0  0  0  0  0  0
  139.7800   69.2710  227.2130 C   0  0  0  0  0  0  0  0  0  0  0  0
  140.2940   69.9000  228.3450 C   0  0  0  0  0  0  0  0  0  0  0  0
  140.9100   71.1240  228.2830 C   0  0  0  0  0  0  0  0  0  0  0  0
  141.0440   71.7860  227.0720 C   0  0  0  0  0  0  0  0  0  0  0  0
  140.5340   71.1590  225.9580 C   0  0  0  0  0  0  0  0  0  0  0  0
  140.6610   71.7980  224.7810 N   0  0  0  0  0  0  0  0  0  0  0  0
  139.6200   73.7780  223.1850 H   0  0  0  0  0  0  0  0  0  0  0  0
  140.9643   73.7284  220.5092 H   0  0  0  0  0  0  0  0  0  0  0  0
  139.1668   73.9395  220.4875 H   0  0  0  0  0  0  0  0  0  0  0  0
  140.6358   74.8791  218.7386 H   0  0  0  0  0  0  0  0  0  0  0  0
  140.0318   76.3925  218.1670 H   0  0  0  0  0  0  0  0  0  0  0  0
  142.9091   75.6655  219.0596 H   0  0  0  0  0  0  0  0  0  0  0  0
  142.4832   76.4574  217.5703 H   0  0  0  0  0  0  0  0  0  0  0  0
  143.1224   77.7702  220.0382 H   0  0  0  0  0  0  0  0  0  0  0  0
  142.3139   78.5767  218.6839 H   0  0  0  0  0  0  0  0  0  0  0  0
  140.1725   78.3880  219.7357 H   0  0  0  0  0  0  0  0  0  0  0  0
  138.9288   78.4082  221.7705 H   0  0  0  0  0  0  0  0  0  0  0  0
  138.9756   79.6863  223.8819 H   0  0  0  0  0  0  0  0  0  0  0  0
  141.1100   80.6022  224.7894 H   0  0  0  0  0  0  0  0  0  0  0  0
  143.1552   78.9135  221.4054 H   0  0  0  0  0  0  0  0  0  0  0  0
  139.1839   69.5905  222.7419 H   0  0  0  0  0  0  0  0  0  0  0  0
  138.9091   68.3423  224.8945 H   0  0  0  0  0  0  0  0  0  0  0  0
  139.2880   68.2891  227.2750 H   0  0  0  0  0  0  0  0  0  0  0  0
  140.2029   69.3988  229.3199 H   0  0  0  0  0  0  0  0  0  0  0  0
  141.3012   71.5845  229.2022 H   0  0  0  0  0  0  0  0  0  0  0  0
  141.5356   72.7677  227.0047 H   0  0  0  0  0  0  0  0  0  0  0  0
  1  2  2  0
  2  3  1  0
  3  4  1  0
  4  5  1  0
  5  6  2  0
  5  7  1  0
  7  8  1  0
  8  9  1  0
  9 10  1  0
 10 11  1  0
 11 12  1  0
 12 13  2  0
 13 14  1  0
 14 15  2  0
 15 16  1  0
 16 17  1  0
 16 18  2  0
  2 19  1  0
 19 20  2  0
 20 21  1  0
 21 22  2  0
 22 23  1  0
 23 24  2  0
 24 25  1  0
 25 26  2  0
 26 27  1  0
 27 28  2  0
 11  7  1  0
 18 12  1  0
 28 19  1  0
 27 22  1  0
  3 29  1  0
  4 30  1  0
  4 31  1  0
  8 32  1  0
  8 33  1  0
  9 34  1  0
  9 35  1  0
 10 36  1  0
 10 37  1  0
 11 38  1  6
 13 39  1  0
 14 40  1  0
 15 41  1  0
 18 42  1  0
 20 43  1  0
 21 44  1  0
 23 45  1  0
 24 46  1  0
 25 47  1  0
 26 48  1  0
M  END
>  <smiles>  (47) 
O=C(NCC(=O)N1CCCC1c1cccc(F)c1)c1ccc2ccccc2n1

>  <score_type>  (47) 
oracle

>  <origin>  (47) 
autodockgpu

>  <m_score__min__energy>  (47) 
-8.8399999999999999

>  <m_primary>  (47) 
energy

>  <rmsd>  (47) 
1.6892791172344153

>  <m_score__min__rmsd>  (47) 
1.6892791172344153

>  <meeko>  (47) 
{"free_energy": -8.77, "intermolecular_energy": -10.26, "internal_energy": -1.78, "cluster_size": 38, "cluster_id": 1, "rank_in_cluster": 7}

>  <energy>  (47) 
-8.14

>  <cluster_rmsd>  (47) 
0.51

>  <cluster>  (47) 
2

$$$$

     RDKit          3D

 48 51  0  0  0  0  0  0  0  0999 V2000
  140.9810   71.5840  221.3090 O   0  0  0  0  0  0  0  0  0  0  0  0
  140.4360   72.1270  222.2970 C   0  0  0  0  0  0  0  0  0  0  0  0
  139.9900   73.4730  222.1830 N   0  0  0  0  0  0  0  0  0  0  0  0
  140.1410   74.2380  220.9770 C   0  0  0  0  0  0  0  0  0  0  0  0
  140.9560   75.4810  221.2150 C   0  0  0  0  0  0  0  0  0  0  0  0
  141.0000   75.8730  222.4010 O   0  0  0  0  0  0  0  0  0  0  0  0
  141.5800   76.0740  220.1140 N   0  0  0  0  0  0  0  0  0  0  0  0
  141.0590   77.2420  219.3410 C   0  0  0  0  0  0  0  0  0  0  0  0
  141.0230   76.6240  217.9610 C   0  0  0  0  0  0  0  0  0  0  0  0
  142.3260   75.8120  217.9600 C   0  0  0  0  0  0  0  0  0  0  0  0
  142.8070   75.7950  219.3940 C   0  0  2  0  0  0  0  0  0  0  0  0
  143.5830   74.6520  219.7980 C   0  0  0  0  0  0  0  0  0  0  0  0
  143.1390   73.3820  219.5390 C   0  0  0  0  0  0  0  0  0  0  0  0
  143.8790   72.2520  219.9050 C   0  0  0  0  0  0  0  0  0  0  0  0
  145.0950   72.3580  220.5480 C   0  0  0  0  0  0  0  0  0  0  0  0
  145.5440   73.6350  220.8120 C   0  0  0  0  0  0  0  0  0  0  0  0
  146.7390   73.7790  221.4450 F   0  0  0  0  0  0  0  0  0  0  0  0
  144.8180   74.7460  220.4520 C   0  0  0  0  0  0  0  0  0  0  0  0
  140.2450   71.4060  223.5720 C   0  0  0  0  0  0  0  0  0  0  0  0
  139.5650   70.2050  223.5610 C   0  0  0  0  0  0  0  0  0  0  0  0
  139.3630   69.4970  224.7250 C   0  0  0  0  0  0  0  0  0  0  0  0
  139.8840   70.0690  225.8890 C   0  0  0  0  0  0  0  0  0  0  0  0
  139.7020   69.3900  227.0820 C   0  0  0  0  0  0  0  0  0  0  0  0
  140.2280   69.9770  228.2310 C   0  0  0  0  0  0  0  0  0  0  0  0
  140.8980   71.1740  228.1980 C   0  0  0  0  0  0  0  0  0  0  0  0
  141.0760   71.8490  227.0000 C   0  0  0  0  0  0  0  0  0  0  0  0
  140.5540   71.2640  225.8690 C   0  0  0  0  0  0  0  0  0  0  0  0
  140.7250   71.9160  224.7050 N   0  0  0  0  0  0  0  0  0  0  0  0
  139.5340   73.8900  223.0480 H   0  0  0  0  0  0  0  0  0  0  0  0
  140.6452   73.6185  220.2207 H   0  0  0  0  0  0  0  0  0  0  0  0
  139.1416   74.5397  220.6304 H   0  0  0  0  0  0  0  0  0  0  0  0
  140.0585   77.5472  219.6813 H   0  0  0  0  0  0  0  0  0  0  0  0
  141.6505   78.1653  219.4278 H   0  0  0  0  0  0  0  0  0  0  0  0
  140.1441   75.9749  217.8334 H   0  0  0  0  0  0  0  0  0  0  0  0
  140.9474   77.3548  217.1423 H   0  0  0  0  0  0  0  0  0  0  0  0
  142.1375   74.7871  217.6078 H   0  0  0  0  0  0  0  0  0  0  0  0
  143.0763   76.2545  217.2883 H   0  0  0  0  0  0  0  0  0  0  0  0
  143.5915   76.5358  219.6082 H   0  0  0  0  0  0  0  0  0  0  0  0
  142.1738   73.2468  219.0290 H   0  0  0  0  0  0  0  0  0  0  0  0
  143.4806   71.2530  219.6739 H   0  0  0  0  0  0  0  0  0  0  0  0
  145.6765   71.4696  220.8354 H   0  0  0  0  0  0  0  0  0  0  0  0
  145.2209   75.7425  220.6856 H   0  0  0  0  0  0  0  0  0  0  0  0
  139.1794   69.8081  222.6103 H   0  0  0  0  0  0  0  0  0  0  0  0
  138.8237   68.5384  224.7378 H   0  0  0  0  0  0  0  0  0  0  0  0
  139.1661   68.4301  227.1209 H   0  0  0  0  0  0  0  0  0  0  0  0
  140.1020   69.4641  229.1959 H   0  0  0  0  0  0  0  0  0  0  0  0
  141.2971   71.6016  229.1296 H   0  0  0  0  0  0  0  0  0  0  0  0
  141.6106   72.8093  226.9556 H   0  0  0  0  0  0  0  0  0  0  0  0
  1  2  2  0
  2  3  1  0
  3  4  1  0
  4  5  1  0
  5  6  2  0
  5  7  1  0
  7  8  1  0
  8  9  1  0
  9 10  1  0
 10 11  1  0
 11 12  1  0
 12 13  2  0
 13 14  1  0
 14 15  2  0
 15 16  1  0
 16 17  1  0
 16 18  2  0
  2 19  1  0
 19 20  2  0
 20 21  1  0
 21 22  2  0
 22 23  1  0
 23 24  2  0
 24 25  1  0
 25 26  2  0
 26 27  1  0
 27 28  2  0
 11  7  1  0
 18 12  1  0
 28 19  1  0
 27 22  1  0
  3 29  1  0
  4 30  1  0
  4 31  1  0
  8 32  1  0
  8 33  1  0
  9 34  1  0
  9 35  1  0
 10 36  1  0
 10 37  1  0
 11 38  1  6
 13 39  1  0
 14 40  1  0
 15 41  1  0
 18 42  1  0
 20 43  1  0
 21 44  1  0
 23 45  1  0
 24 46  1  0
 25 47  1  0
 26 48  1  0
M  END
>  <smiles>  (48) 
O=C(NCC(=O)N1CCCC1c1cccc(F)c1)c1ccc2ccccc2n1

>  <score_type>  (48) 
oracle

>  <origin>  (48) 
autodockgpu

>  <m_score__min__energy>  (48) 
-8.8399999999999999

>  <m_primary>  (48) 
energy

>  <rmsd>  (48) 
2.0044655796574573

>  <m_score__min__rmsd>  (48) 
2.0044655796574573

>  <meeko>  (48) 
{"free_energy": -8.38, "intermolecular_energy": -9.87, "internal_energy": -1.84, "cluster_size": 10, "cluster_id": 2, "rank_in_cluster": 7}

>  <energy>  (48) 
-8.1

>  <cluster_rmsd>  (48) 
0.85

>  <cluster>  (48) 
2

$$$$

     RDKit          3D

 48 51  0  0  0  0  0  0  0  0999 V2000
  140.9270   71.7400  221.3510 O   0  0  0  0  0  0  0  0  0  0  0  0
  140.3820   72.2060  222.3780 C   0  0  0  0  0  0  0  0  0  0  0  0
  139.8920   73.5410  222.3510 N   0  0  0  0  0  0  0  0  0  0  0  0
  139.9990   74.3810  221.1910 C   0  0  0  0  0  0  0  0  0  0  0  0
  140.2830   75.8090  221.5730 C   0  0  0  0  0  0  0  0  0  0  0  0
  141.4350   76.2150  221.3060 O   0  0  0  0  0  0  0  0  0  0  0  0
  139.2570   76.5410  222.1790 N   0  0  0  0  0  0  0  0  0  0  0  0
  137.8640   76.0570  222.4140 C   0  0  0  0  0  0  0  0  0  0  0  0
  137.1030   77.1410  221.6850 C   0  0  0  0  0  0  0  0  0  0  0  0
  137.9040   78.3900  222.0800 C   0  0  0  0  0  0  0  0  0  0  0  0
  139.1780   77.8830  222.7200 C   0  0  2  0  0  0  0  0  0  0  0  0
  140.3350   78.7300  222.6040 C   0  0  0  0  0  0  0  0  0  0  0  0
  141.1390   78.9630  223.6870 C   0  0  0  0  0  0  0  0  0  0  0  0
  142.2810   79.7690  223.6000 C   0  0  0  0  0  0  0  0  0  0  0  0
  142.6540   80.3730  222.4170 C   0  0  0  0  0  0  0  0  0  0  0  0
  141.8460   80.1410  221.3250 C   0  0  0  0  0  0  0  0  0  0  0  0
  142.1830   80.7210  220.1410 F   0  0  0  0  0  0  0  0  0  0  0  0
  140.7250   79.3490  221.4090 C   0  0  0  0  0  0  0  0  0  0  0  0
  140.2360   71.4040  223.6110 C   0  0  0  0  0  0  0  0  0  0  0  0
  139.6200   70.1730  223.5320 C   0  0  0  0  0  0  0  0  0  0  0  0
  139.4600   69.3890  224.6550 C   0  0  0  0  0  0  0  0  0  0  0  0
  139.9560   69.9220  225.8490 C   0  0  0  0  0  0  0  0  0  0  0  0
  139.8150   69.1670  227.0010 C   0  0  0  0  0  0  0  0  0  0  0  0
  140.3160   69.7150  228.1810 C   0  0  0  0  0  0  0  0  0  0  0  0
  140.9220   70.9450  228.2140 C   0  0  0  0  0  0  0  0  0  0  0  0
  141.0590   71.6960  227.0560 C   0  0  0  0  0  0  0  0  0  0  0  0
  140.5630   71.1490  225.8950 C   0  0  0  0  0  0  0  0  0  0  0  0
  140.6930   71.8740  224.7700 N   0  0  0  0  0  0  0  0  0  0  0  0
  139.4380   73.8910  223.2460 H   0  0  0  0  0  0  0  0  0  0  0  0
  140.8167   74.0110  220.5550 H   0  0  0  0  0  0  0  0  0  0  0  0
  139.0411   74.3504  220.6511 H   0  0  0  0  0  0  0  0  0  0  0  0
  137.6929   75.0650  221.9704 H   0  0  0  0  0  0  0  0  0  0  0  0
  137.5868   75.9160  223.4691 H   0  0  0  0  0  0  0  0  0  0  0  0
  137.1177   76.9809  220.5968 H   0  0  0  0  0  0  0  0  0  0  0  0
  136.0346   77.1916  221.9420 H   0  0  0  0  0  0  0  0  0  0  0  0
  138.1370   78.9921  221.1894 H   0  0  0  0  0  0  0  0  0  0  0  0
  137.3353   79.0325  222.7683 H   0  0  0  0  0  0  0  0  0  0  0  0
  139.1568   77.8858  223.8198 H   0  0  0  0  0  0  0  0  0  0  0  0
  140.8809   78.5042  224.6529 H   0  0  0  0  0  0  0  0  0  0  0  0
  142.8966   79.9245  224.4983 H   0  0  0  0  0  0  0  0  0  0  0  0
  143.5502   81.0071  222.3489 H   0  0  0  0  0  0  0  0  0  0  0  0
  140.1137   79.1962  220.5074 H   0  0  0  0  0  0  0  0  0  0  0  0
  139.2514   69.8117  222.5606 H   0  0  0  0  0  0  0  0  0  0  0  0
  138.9719   68.4041  224.6142 H   0  0  0  0  0  0  0  0  0  0  0  0
  139.3299   68.1799  226.9859 H   0  0  0  0  0  0  0  0  0  0  0  0
  140.2223   69.1425  229.1156 H   0  0  0  0  0  0  0  0  0  0  0  0
  141.3028   71.3395  229.1676 H   0  0  0  0  0  0  0  0  0  0  0  0
  141.5423   72.6841  227.0654 H   0  0  0  0  0  0  0  0  0  0  0  0
  1  2  2  0
  2  3  1  0
  3  4  1  0
  4  5  1  0
  5  6  2  0
  5  7  1  0
  7  8  1  0
  8  9  1  0
  9 10  1  0
 10 11  1  0
 11 12  1  0
 12 13  2  0
 13 14  1  0
 14 15  2  0
 15 16  1  0
 16 17  1  0
 16 18  2  0
  2 19  1  0
 19 20  2  0
 20 21  1  0
 21 22  2  0
 22 23  1  0
 23 24  2  0
 24 25  1  0
 25 26  2  0
 26 27  1  0
 27 28  2  0
 11  7  1  0
 18 12  1  0
 28 19  1  0
 27 22  1  0
  3 29  1  0
  4 30  1  0
  4 31  1  0
  8 32  1  0
  8 33  1  0
  9 34  1  0
  9 35  1  0
 10 36  1  0
 10 37  1  0
 11 38  1  1
 13 39  1  0
 14 40  1  0
 15 41  1  0
 18 42  1  0
 20 43  1  0
 21 44  1  0
 23 45  1  0
 24 46  1  0
 25 47  1  0
 26 48  1  0
M  END
>  <smiles>  (49) 
O=C(NCC(=O)N1CCCC1c1cccc(F)c1)c1ccc2ccccc2n1

>  <score_type>  (49) 
oracle

>  <origin>  (49) 
autodockgpu

>  <m_score__min__energy>  (49) 
-8.8399999999999999

>  <m_primary>  (49) 
energy

>  <rmsd>  (49) 
2.8153192000136538

>  <m_score__min__rmsd>  (49) 
2.8153192000136538

>  <meeko>  (49) 
{"free_energy": -8.75, "intermolecular_energy": -10.24, "internal_energy": -1.33, "cluster_size": 38, "cluster_id": 1, "rank_in_cluster": 10}

>  <energy>  (49) 
-8.15

>  <cluster_rmsd>  (49) 
0.0

>  <cluster>  (49) 
3

$$$$

     RDKit          3D

 48 51  0  0  0  0  0  0  0  0999 V2000
  140.0620   71.1080  221.2940 O   0  0  0  0  0  0  0  0  0  0  0  0
  139.9450   71.6940  222.3940 C   0  0  0  0  0  0  0  0  0  0  0  0
  139.8220   73.1120  222.4080 N   0  0  0  0  0  0  0  0  0  0  0  0
  139.8280   73.9000  221.2080 C   0  0  0  0  0  0  0  0  0  0  0  0
  140.2020   75.3310  221.4930 C   0  0  0  0  0  0  0  0  0  0  0  0
  139.9760   75.7190  222.6600 O   0  0  0  0  0  0  0  0  0  0  0  0
  140.7550   76.0820  220.4530 N   0  0  0  0  0  0  0  0  0  0  0  0
  141.0880   75.5700  219.0890 C   0  0  0  0  0  0  0  0  0  0  0  0
  142.5550   75.9320  219.0450 C   0  0  0  0  0  0  0  0  0  0  0  0
  142.5460   77.3120  219.7170 C   0  0  0  0  0  0  0  0  0  0  0  0
  141.1750   77.4650  220.3370 C   0  0  2  0  0  0  0  0  0  0  0  0
  141.0880   78.2990  221.5070 C   0  0  0  0  0  0  0  0  0  0  0  0
  139.8870   78.4980  222.1330 C   0  0  0  0  0  0  0  0  0  0  0  0
  139.7740   79.2900  223.2810 C   0  0  0  0  0  0  0  0  0  0  0  0
  140.8690   79.9150  223.8410 C   0  0  0  0  0  0  0  0  0  0  0  0
  142.0800   79.7180  223.2130 C   0  0  0  0  0  0  0  0  0  0  0  0
  143.1820   80.3180  223.7370 F   0  0  0  0  0  0  0  0  0  0  0  0
  142.1920   78.9390  222.0850 C   0  0  0  0  0  0  0  0  0  0  0  0
  139.9310   70.9530  223.6720 C   0  0  0  0  0  0  0  0  0  0  0  0
  139.4850   69.6480  223.6780 C   0  0  0  0  0  0  0  0  0  0  0  0
  139.4530   68.9170  224.8450 C   0  0  0  0  0  0  0  0  0  0  0  0
  139.8960   69.5780  225.9940 C   0  0  0  0  0  0  0  0  0  0  0  0
  139.8800   68.8790  227.1900 C   0  0  0  0  0  0  0  0  0  0  0  0
  140.3260   69.5560  228.3240 C   0  0  0  0  0  0  0  0  0  0  0  0
  140.7610   70.8550  228.2740 C   0  0  0  0  0  0  0  0  0  0  0  0
  140.7740   71.5500  227.0740 C   0  0  0  0  0  0  0  0  0  0  0  0
  140.3340   70.8760  225.9580 C   0  0  0  0  0  0  0  0  0  0  0  0
  140.3440   71.5450  224.7910 N   0  0  0  0  0  0  0  0  0  0  0  0
  139.7260   73.5640  223.3650 H   0  0  0  0  0  0  0  0  0  0  0  0
  140.5565   73.4731  220.5030 H   0  0  0  0  0  0  0  0  0  0  0  0
  138.8153   73.8854  220.7788 H   0  0  0  0  0  0  0  0  0  0  0  0
  140.9295   74.4846  219.0070 H   0  0  0  0  0  0  0  0  0  0  0  0
  140.4775   75.9794  218.2707 H   0  0  0  0  0  0  0  0  0  0  0  0
  143.1642   75.2124  219.6116 H   0  0  0  0  0  0  0  0  0  0  0  0
  142.9897   75.9264  218.0345 H   0  0  0  0  0  0  0  0  0  0  0  0
  143.3242   77.3645  220.4926 H   0  0  0  0  0  0  0  0  0  0  0  0
  142.7525   78.1140  218.9930 H   0  0  0  0  0  0  0  0  0  0  0  0
  140.4770   78.0616  219.7313 H   0  0  0  0  0  0  0  0  0  0  0  0
  138.9848   78.0216  221.7217 H   0  0  0  0  0  0  0  0  0  0  0  0
  138.7867   79.4175  223.7490 H   0  0  0  0  0  0  0  0  0  0  0  0
  140.7802   80.5387  224.7427 H   0  0  0  0  0  0  0  0  0  0  0  0
  143.1816   78.8143  221.6212 H   0  0  0  0  0  0  0  0  0  0  0  0
  139.1503   69.1847  222.7382 H   0  0  0  0  0  0  0  0  0  0  0  0
  139.1000   67.8755  224.8711 H   0  0  0  0  0  0  0  0  0  0  0  0
  139.5312   67.8371  227.2424 H   0  0  0  0  0  0  0  0  0  0  0  0
  140.3290   69.0307  229.2905 H   0  0  0  0  0  0  0  0  0  0  0  0
  141.1030   71.3508  229.1944 H   0  0  0  0  0  0  0  0  0  0  0  0
  141.1203   72.5925  227.0169 H   0  0  0  0  0  0  0  0  0  0  0  0
  1  2  2  0
  2  3  1  0
  3  4  1  0
  4  5  1  0
  5  6  2  0
  5  7  1  0
  7  8  1  0
  8  9  1  0
  9 10  1  0
 10 11  1  0
 11 12  1  0
 12 13  2  0
 13 14  1  0
 14 15  2  0
 15 16  1  0
 16 17  1  0
 16 18  2  0
  2 19  1  0
 19 20  2  0
 20 21  1  0
 21 22  2  0
 22 23  1  0
 23 24  2  0
 24 25  1  0
 25 26  2  0
 26 27  1  0
 27 28  2  0
 11  7  1  0
 18 12  1  0
 28 19  1  0
 27 22  1  0
  3 29  1  0
  4 30  1  0
  4 31  1  0
  8 32  1  0
  8 33  1  0
  9 34  1  0
  9 35  1  0
 10 36  1  0
 10 37  1  0
 11 38  1  6
 13 39  1  0
 14 40  1  0
 15 41  1  0
 18 42  1  0
 20 43  1  0
 21 44  1  0
 23 45  1  0
 24 46  1  0
 25 47  1  0
 26 48  1  0
M  END
>  <smiles>  (50) 
O=C(NCC(=O)N1CCCC1c1cccc(F)c1)c1ccc2ccccc2n1

>  <score_type>  (50) 
oracle

>  <origin>  (50) 
autodockgpu

>  <m_score__min__energy>  (50) 
-8.8399999999999999

>  <m_primary>  (50) 
energy

>  <rmsd>  (50) 
1.6459994271711083

>  <m_score__min__rmsd>  (50) 
1.6459994271711083

>  <meeko>  (50) 
{"free_energy": -8.65, "intermolecular_energy": -10.14, "internal_energy": -1.84, "cluster_size": 38, "cluster_id": 1, "rank_in_cluster": 33}

>  <energy>  (50) 
-7.09

>  <cluster_rmsd>  (50) 
0.0

>  <cluster>  (50) 
4

$$$$

     RDKit          3D

 48 51  0  0  0  0  0  0  0  0999 V2000
  137.6270   75.7850  222.4520 O   0  0  0  0  0  0  0  0  0  0  0  0
  138.8670   76.0300  222.3790 C   0  0  0  0  0  0  0  0  0  0  0  0
  139.7110   74.9530  221.9970 N   0  0  0  0  0  0  0  0  0  0  0  0
  139.1870   73.6530  221.7070 C   0  0  0  0  0  0  0  0  0  0  0  0
  139.8650   72.5710  222.4290 C   0  0  0  0  0  0  0  0  0  0  0  0
  141.0750   72.7060  222.7110 O   0  0  0  0  0  0  0  0  0  0  0  0
  139.2240   71.3750  222.8270 N   0  0  0  0  0  0  0  0  0  0  0  0
  139.0930   70.1430  222.0580 C   0  0  0  0  0  0  0  0  0  0  0  0
  137.9520   69.3630  222.6130 C   0  0  0  0  0  0  0  0  0  0  0  0
  137.3070   70.2980  223.6030 C   0  0  0  0  0  0  0  0  0  0  0  0
  138.5340   71.0660  224.0830 C   0  0  1  0  0  0  0  0  0  0  0  0
  139.3310   70.2010  224.9440 C   0  0  0  0  0  0  0  0  0  0  0  0
  140.6160   70.6160  225.2670 C   0  0  0  0  0  0  0  0  0  0  0  0
  141.4500   69.8680  226.0840 C   0  0  0  0  0  0  0  0  0  0  0  0
  141.0440   68.6660  226.6210 C   0  0  0  0  0  0  0  0  0  0  0  0
  139.7720   68.2410  226.3100 C   0  0  0  0  0  0  0  0  0  0  0  0
  139.3450   67.0670  226.8210 F   0  0  0  0  0  0  0  0  0  0  0  0
  138.9330   69.0000  225.4850 C   0  0  0  0  0  0  0  0  0  0  0  0
  139.4170   77.3510  222.6720 C   0  0  0  0  0  0  0  0  0  0  0  0
  138.5290   78.3850  222.8880 C   0  0  0  0  0  0  0  0  0  0  0  0
  138.9660   79.6450  223.1650 C   0  0  0  0  0  0  0  0  0  0  0  0
  140.3330   79.8580  223.2250 C   0  0  0  0  0  0  0  0  0  0  0  0
  140.8000   81.1070  223.5010 C   0  0  0  0  0  0  0  0  0  0  0  0
  142.1660   81.3210  223.5610 C   0  0  0  0  0  0  0  0  0  0  0  0
  143.0650   80.2940  223.3470 C   0  0  0  0  0  0  0  0  0  0  0  0
  142.5430   79.0340  223.0670 C   0  0  0  0  0  0  0  0  0  0  0  0
  141.1950   78.8060  223.0050 C   0  0  0  0  0  0  0  0  0  0  0  0
  140.7580   77.5580  222.7290 N   0  0  0  0  0  0  0  0  0  0  0  0
  140.7330   75.1600  221.9380 H   0  0  0  0  0  0  0  0  0  0  0  0
  138.1216   73.6388  221.9802 H   0  0  0  0  0  0  0  0  0  0  0  0
  139.3466   73.4734  220.6336 H   0  0  0  0  0  0  0  0  0  0  0  0
  138.9006   70.3827  221.0018 H   0  0  0  0  0  0  0  0  0  0  0  0
  140.0206   69.5554  222.1236 H   0  0  0  0  0  0  0  0  0  0  0  0
  137.2436   69.0893  221.8172 H   0  0  0  0  0  0  0  0  0  0  0  0
  138.2746   68.4188  223.0760 H   0  0  0  0  0  0  0  0  0  0  0  0
  136.5739   70.9609  223.1201 H   0  0  0  0  0  0  0  0  0  0  0  0
  136.7304   69.8034  224.3986 H   0  0  0  0  0  0  0  0  0  0  0  0
  138.3173   71.9680  224.6741 H   0  0  0  0  0  0  0  0  0  0  0  0
  140.9846   71.5697  224.8613 H   0  0  0  0  0  0  0  0  0  0  0  0
  142.4594   70.2431  226.3086 H   0  0  0  0  0  0  0  0  0  0  0  0
  141.7061   68.0728  227.2688 H   0  0  0  0  0  0  0  0  0  0  0  0
  137.9235   68.6242  225.2623 H   0  0  0  0  0  0  0  0  0  0  0  0
  137.4481   78.1880  222.8355 H   0  0  0  0  0  0  0  0  0  0  0  0
  138.2556   80.4673  223.3356 H   0  0  0  0  0  0  0  0  0  0  0  0
  140.0991   81.9369  223.6744 H   0  0  0  0  0  0  0  0  0  0  0  0
  142.5438   82.3298  223.7837 H   0  0  0  0  0  0  0  0  0  0  0  0
  144.1505   80.4651  223.3959 H   0  0  0  0  0  0  0  0  0  0  0  0
  143.2345   78.1970  222.8904 H   0  0  0  0  0  0  0  0  0  0  0  0
  1  2  2  0
  2  3  1  0
  3  4  1  0
  4  5  1  0
  5  6  2  0
  5  7  1  0
  7  8  1  0
  8  9  1  0
  9 10  1  0
 10 11  1  0
 11 12  1  0
 12 13  2  0
 13 14  1  0
 14 15  2  0
 15 16  1  0
 16 17  1  0
 16 18  2  0
  2 19  1  0
 19 20  2  0
 20 21  1  0
 21 22  2  0
 22 23  1  0
 23 24  2  0
 24 25  1  0
 25 26  2  0
 26 27  1  0
 27 28  2  0
 11  7  1  0
 18 12  1  0
 28 19  1  0
 27 22  1  0
  3 29  1  0
  4 30  1  0
  4 31  1  0
  8 32  1  0
  8 33  1  0
  9 34  1  0
  9 35  1  0
 10 36  1  0
 10 37  1  0
 11 38  1  1
 13 39  1  0
 14 40  1  0
 15 41  1  0
 18 42  1  0
 20 43  1  0
 21 44  1  0
 23 45  1  0
 24 46  1  0
 25 47  1  0
 26 48  1  0
M  END
>  <smiles>  (51) 
O=C(NCC(=O)N1CCCC1c1cccc(F)c1)c1ccc2ccccc2n1

>  <score_type>  (51) 
oracle

>  <origin>  (51) 
autodockgpu

>  <m_score__min__energy>  (51) 
-8.8699999999999992

>  <m_primary>  (51) 
energy

>  <rmsd>  (51) 
8.371866066203173

>  <m_score__min__rmsd>  (51) 
8.371866066203173

>  <meeko>  (51) 
{"free_energy": -8.1, "intermolecular_energy": -9.59, "internal_energy": -1.55, "cluster_size": 7, "cluster_id": 2, "rank_in_cluster": 4}

>  <energy>  (51) 
-8.87

>  <cluster_rmsd>  (51) 
0.0

>  <cluster>  (51) 
1

$$$$

     RDKit          3D

 48 51  0  0  0  0  0  0  0  0999 V2000
  139.8740   71.4520  221.2280 O   0  0  0  0  0  0  0  0  0  0  0  0
  139.8060   72.0240  222.3560 C   0  0  0  0  0  0  0  0  0  0  0  0
  139.6050   73.4300  222.3500 N   0  0  0  0  0  0  0  0  0  0  0  0
  139.4850   74.1670  221.1280 C   0  0  0  0  0  0  0  0  0  0  0  0
  139.1600   75.5840  221.3250 C   0  0  0  0  0  0  0  0  0  0  0  0
  138.0860   75.8790  221.8910 O   0  0  0  0  0  0  0  0  0  0  0  0
  139.9990   76.6430  220.9070 N   0  0  0  0  0  0  0  0  0  0  0  0
  139.7630   77.5800  219.8150 C   0  0  0  0  0  0  0  0  0  0  0  0
  141.0720   78.1640  219.4070 C   0  0  0  0  0  0  0  0  0  0  0  0
  142.0920   77.3660  220.1780 C   0  0  0  0  0  0  0  0  0  0  0  0
  141.2960   77.0660  221.4430 C   0  0  1  0  0  0  0  0  0  0  0  0
  141.1860   78.2840  222.2370 C   0  0  0  0  0  0  0  0  0  0  0  0
  142.3180   79.0800  222.3620 C   0  0  0  0  0  0  0  0  0  0  0  0
  142.3140   80.2600  223.0900 C   0  0  0  0  0  0  0  0  0  0  0  0
  141.1800   80.7070  223.7320 C   0  0  0  0  0  0  0  0  0  0  0  0
  140.0500   79.9290  223.6170 C   0  0  0  0  0  0  0  0  0  0  0  0
  138.9220   80.3400  224.2350 F   0  0  0  0  0  0  0  0  0  0  0  0
  140.0580   78.7380  222.8810 C   0  0  0  0  0  0  0  0  0  0  0  0
  139.9270   71.2860  223.6100 C   0  0  0  0  0  0  0  0  0  0  0  0
  139.5410   69.9600  223.6180 C   0  0  0  0  0  0  0  0  0  0  0  0
  139.6240   69.2070  224.7490 C   0  0  0  0  0  0  0  0  0  0  0  0
  140.1090   69.8130  225.8970 C   0  0  0  0  0  0  0  0  0  0  0  0
  140.2030   69.0850  227.0430 C   0  0  0  0  0  0  0  0  0  0  0  0
  140.6880   69.6900  228.1900 C   0  0  0  0  0  0  0  0  0  0  0  0
  141.0780   71.0140  228.1950 C   0  0  0  0  0  0  0  0  0  0  0  0
  140.9630   71.7200  227.0010 C   0  0  0  0  0  0  0  0  0  0  0  0
  140.4860   71.1380  225.8580 C   0  0  0  0  0  0  0  0  0  0  0  0
  140.4020   71.8820  224.7340 N   0  0  0  0  0  0  0  0  0  0  0  0
  139.5500   73.8960  223.2820 H   0  0  0  0  0  0  0  0  0  0  0  0
  140.4407   74.1015  220.5874 H   0  0  0  0  0  0  0  0  0  0  0  0
  138.6529   73.7212  220.5634 H   0  0  0  0  0  0  0  0  0  0  0  0
  139.3099   77.0517  218.9632 H   0  0  0  0  0  0  0  0  0  0  0  0
  139.0782   78.3767  220.1411 H   0  0  0  0  0  0  0  0  0  0  0  0
  141.2278   78.0526  218.3238 H   0  0  0  0  0  0  0  0  0  0  0  0
  141.1352   79.2419  219.6172 H   0  0  0  0  0  0  0  0  0  0  0  0
  142.3759   76.4455  219.6469 H   0  0  0  0  0  0  0  0  0  0  0  0
  143.0502   77.8795  220.3456 H   0  0  0  0  0  0  0  0  0  0  0  0
  141.7419   76.3094  222.1054 H   0  0  0  0  0  0  0  0  0  0  0  0
  143.2480   78.7636  221.8671 H   0  0  0  0  0  0  0  0  0  0  0  0
  143.2380   80.8532  223.1565 H   0  0  0  0  0  0  0  0  0  0  0  0
  141.1775   81.6428  224.3101 H   0  0  0  0  0  0  0  0  0  0  0  0
  139.1330   78.1463  222.8155 H   0  0  0  0  0  0  0  0  0  0  0  0
  139.1592   69.5036  222.6928 H   0  0  0  0  0  0  0  0  0  0  0  0
  139.3159   68.1510  224.7516 H   0  0  0  0  0  0  0  0  0  0  0  0
  139.8973   68.0284  227.0578 H   0  0  0  0  0  0  0  0  0  0  0  0
  140.7642   69.1030  229.1171 H   0  0  0  0  0  0  0  0  0  0  0  0
  141.4646   71.4925  229.1069 H   0  0  0  0  0  0  0  0  0  0  0  0
  141.2646   72.7775  226.9754 H   0  0  0  0  0  0  0  0  0  0  0  0
  1  2  2  0
  2  3  1  0
  3  4  1  0
  4  5  1  0
  5  6  2  0
  5  7  1  0
  7  8  1  0
  8  9  1  0
  9 10  1  0
 10 11  1  0
 11 12  1  0
 12 13  2  0
 13 14  1  0
 14 15  2  0
 15 16  1  0
 16 17  1  0
 16 18  2  0
  2 19  1  0
 19 20  2  0
 20 21  1  0
 21 22  2  0
 22 23  1  0
 23 24  2  0
 24 25  1  0
 25 26  2  0
 26 27  1  0
 27 28  2  0
 11  7  1  0
 18 12  1  0
 28 19  1  0
 27 22  1  0
  3 29  1  0
  4 30  1  0
  4 31  1  0
  8 32  1  0
  8 33  1  0
  9 34  1  0
  9 35  1  0
 10 36  1  0
 10 37  1  0
 11 38  1  1
 13 39  1  0
 14 40  1  0
 15 41  1  0
 18 42  1  0
 20 43  1  0
 21 44  1  0
 23 45  1  0
 24 46  1  0
 25 47  1  0
 26 48  1  0
M  END
>  <smiles>  (52) 
O=C(NCC(=O)N1CCCC1c1cccc(F)c1)c1ccc2ccccc2n1

>  <score_type>  (52) 
oracle

>  <origin>  (52) 
autodockgpu

>  <m_score__min__energy>  (52) 
-8.8699999999999992

>  <m_primary>  (52) 
energy

>  <rmsd>  (52) 
1.797901080822459

>  <m_score__min__rmsd>  (52) 
1.797901080822459

>  <meeko>  (52) 
{"free_energy": -8.51, "intermolecular_energy": -10.0, "internal_energy": -1.37, "cluster_size": 38, "cluster_id": 1, "rank_in_cluster": 26}

>  <energy>  (52) 
-8.87

>  <cluster_rmsd>  (52) 
1.22

>  <cluster>  (52) 
1

$$$$

     RDKit          3D

 48 51  0  0  0  0  0  0  0  0999 V2000
  137.4750   76.0910  222.3390 O   0  0  0  0  0  0  0  0  0  0  0  0
  138.7280   76.2620  222.4160 C   0  0  0  0  0  0  0  0  0  0  0  0
  139.5440   75.1160  222.2250 N   0  0  0  0  0  0  0  0  0  0  0  0
  138.9800   73.8280  221.9570 C   0  0  0  0  0  0  0  0  0  0  0  0
  139.8400   72.7120  222.3650 C   0  0  0  0  0  0  0  0  0  0  0  0
  141.0790   72.8710  222.3430 O   0  0  0  0  0  0  0  0  0  0  0  0
  139.3440   71.4560  222.7860 N   0  0  0  0  0  0  0  0  0  0  0  0
  139.5420   70.1640  222.1380 C   0  0  0  0  0  0  0  0  0  0  0  0
  138.4670   69.2410  222.5960 C   0  0  0  0  0  0  0  0  0  0  0  0
  137.5250   70.1220  223.3770 C   0  0  0  0  0  0  0  0  0  0  0  0
  138.5170   71.1280  223.9510 C   0  0  1  0  0  0  0  0  0  0  0  0
  139.2910   70.4860  225.0060 C   0  0  0  0  0  0  0  0  0  0  0  0
  140.4150   71.1510  225.4810 C   0  0  0  0  0  0  0  0  0  0  0  0
  141.2130   70.6270  226.4860 C   0  0  0  0  0  0  0  0  0  0  0  0
  140.9300   69.4120  227.0710 C   0  0  0  0  0  0  0  0  0  0  0  0
  139.8200   68.7410  226.6110 C   0  0  0  0  0  0  0  0  0  0  0  0
  139.5170   67.5470  227.1640 F   0  0  0  0  0  0  0  0  0  0  0  0
  139.0160   69.2730  225.5950 C   0  0  0  0  0  0  0  0  0  0  0  0
  139.3180   77.5700  222.6890 C   0  0  0  0  0  0  0  0  0  0  0  0
  138.4620   78.6330  222.8960 C   0  0  0  0  0  0  0  0  0  0  0  0
  138.9370   79.8830  223.1550 C   0  0  0  0  0  0  0  0  0  0  0  0
  140.3110   80.0550  223.2060 C   0  0  0  0  0  0  0  0  0  0  0  0
  140.8150   81.2930  223.4640 C   0  0  0  0  0  0  0  0  0  0  0  0
  142.1880   81.4670  223.5160 C   0  0  0  0  0  0  0  0  0  0  0  0
  143.0540   80.4120  223.3120 C   0  0  0  0  0  0  0  0  0  0  0  0
  142.4950   79.1640  223.0510 C   0  0  0  0  0  0  0  0  0  0  0  0
  141.1400   78.9750  222.9970 C   0  0  0  0  0  0  0  0  0  0  0  0
  140.6650   77.7370  222.7390 N   0  0  0  0  0  0  0  0  0  0  0  0
  140.5750   75.2620  222.2900 H   0  0  0  0  0  0  0  0  0  0  0  0
  138.0258   73.7472  222.4982 H   0  0  0  0  0  0  0  0  0  0  0  0
  138.8515   73.7535  220.8671 H   0  0  0  0  0  0  0  0  0  0  0  0
  139.4890   70.2838  221.0458 H   0  0  0  0  0  0  0  0  0  0  0  0
  140.5291   69.7558  222.4008 H   0  0  0  0  0  0  0  0  0  0  0  0
  137.9524   68.7859  221.7369 H   0  0  0  0  0  0  0  0  0  0  0  0
  138.8579   68.4073  223.1978 H   0  0  0  0  0  0  0  0  0  0  0  0
  136.7838   70.6065  222.7244 H   0  0  0  0  0  0  0  0  0  0  0  0
  136.9128   69.5969  224.1250 H   0  0  0  0  0  0  0  0  0  0  0  0
  138.0639   72.0208  224.4067 H   0  0  0  0  0  0  0  0  0  0  0  0
  140.6802   72.1255  225.0450 H   0  0  0  0  0  0  0  0  0  0  0  0
  142.0926   71.1943  226.8243 H   0  0  0  0  0  0  0  0  0  0  0  0
  141.5626   68.9972  227.8695 H   0  0  0  0  0  0  0  0  0  0  0  0
  138.1375   68.7036  225.2574 H   0  0  0  0  0  0  0  0  0  0  0  0
  137.3755   78.4674  222.8509 H   0  0  0  0  0  0  0  0  0  0  0  0
  138.2523   80.7283  223.3183 H   0  0  0  0  0  0  0  0  0  0  0  0
  140.1395   82.1453  223.6293 H   0  0  0  0  0  0  0  0  0  0  0  0
  142.5967   82.4668  223.7242 H   0  0  0  0  0  0  0  0  0  0  0  0
  144.1443   80.5519  223.3540 H   0  0  0  0  0  0  0  0  0  0  0  0
  143.1612   78.3049  222.8833 H   0  0  0  0  0  0  0  0  0  0  0  0
  1  2  2  0
  2  3  1  0
  3  4  1  0
  4  5  1  0
  5  6  2  0
  5  7  1  0
  7  8  1  0
  8  9  1  0
  9 10  1  0
 10 11  1  0
 11 12  1  0
 12 13  2  0
 13 14  1  0
 14 15  2  0
 15 16  1  0
 16 17  1  0
 16 18  2  0
  2 19  1  0
 19 20  2  0
 20 21  1  0
 21 22  2  0
 22 23  1  0
 23 24  2  0
 24 25  1  0
 25 26  2  0
 26 27  1  0
 27 28  2  0
 11  7  1  0
 18 12  1  0
 28 19  1  0
 27 22  1  0
  3 29  1  0
  4 30  1  0
  4 31  1  0
  8 32  1  0
  8 33  1  0
  9 34  1  0
  9 35  1  0
 10 36  1  0
 10 37  1  0
 11 38  1  1
 13 39  1  0
 14 40  1  0
 15 41  1  0
 18 42  1  0
 20 43  1  0
 21 44  1  0
 23 45  1  0
 24 46  1  0
 25 47  1  0
 26 48  1  0
M  END
>  <smiles>  (53) 
O=C(NCC(=O)N1CCCC1c1cccc(F)c1)c1ccc2ccccc2n1

>  <score_type>  (53) 
oracle

>  <origin>  (53) 
autodockgpu

>  <m_score__min__energy>  (53) 
-8.8699999999999992

>  <m_primary>  (53) 
energy

>  <rmsd>  (53) 
8.45951233653988

>  <m_score__min__rmsd>  (53) 
8.45951233653988

>  <meeko>  (53) 
{"free_energy": -8.1, "intermolecular_energy": -9.59, "internal_energy": -1.66, "cluster_size": 7, "cluster_id": 2, "rank_in_cluster": 5}

>  <energy>  (53) 
-8.86

>  <cluster_rmsd>  (53) 
1.2

>  <cluster>  (53) 
1

$$$$

     RDKit          3D

 48 51  0  0  0  0  0  0  0  0999 V2000
  141.3170   72.3070  221.6440 O   0  0  0  0  0  0  0  0  0  0  0  0
  140.4130   72.4830  222.5140 C   0  0  0  0  0  0  0  0  0  0  0  0
  139.5750   73.6170  222.3470 N   0  0  0  0  0  0  0  0  0  0  0  0
  139.7410   74.5190  221.2480 C   0  0  0  0  0  0  0  0  0  0  0  0
  139.3930   75.9080  221.5680 C   0  0  0  0  0  0  0  0  0  0  0  0
  138.4340   76.1220  222.3410 O   0  0  0  0  0  0  0  0  0  0  0  0
  140.0840   77.0270  221.0490 N   0  0  0  0  0  0  0  0  0  0  0  0
  139.6140   77.9670  220.0380 C   0  0  0  0  0  0  0  0  0  0  0  0
  140.7990   78.6410  219.4380 C   0  0  0  0  0  0  0  0  0  0  0  0
  141.9800   77.8960  220.0060 C   0  0  0  0  0  0  0  0  0  0  0  0
  141.4250   77.5220  221.3760 C   0  0  1  0  0  0  0  0  0  0  0  0
  141.3750   78.7150  222.2120 C   0  0  0  0  0  0  0  0  0  0  0  0
  142.5550   79.4240  222.4000 C   0  0  0  0  0  0  0  0  0  0  0  0
  142.6110   80.5750  223.1720 C   0  0  0  0  0  0  0  0  0  0  0  0
  141.4910   81.0770  223.7970 C   0  0  0  0  0  0  0  0  0  0  0  0
  140.3140   80.3860  223.6210 C   0  0  0  0  0  0  0  0  0  0  0  0
  139.1990   80.8540  224.2220 F   0  0  0  0  0  0  0  0  0  0  0  0
  140.2620   79.2240  222.8400 C   0  0  0  0  0  0  0  0  0  0  0  0
  140.2320   71.5720  223.6410 C   0  0  0  0  0  0  0  0  0  0  0  0
  139.5870   70.3740  223.4040 C   0  0  0  0  0  0  0  0  0  0  0  0
  139.3800   69.4730  224.4050 C   0  0  0  0  0  0  0  0  0  0  0  0
  139.8370   69.7970  225.6720 C   0  0  0  0  0  0  0  0  0  0  0  0
  139.6450   68.9150  226.6920 C   0  0  0  0  0  0  0  0  0  0  0  0
  140.1010   69.2370  227.9590 C   0  0  0  0  0  0  0  0  0  0  0  0
  140.7470   70.4310  228.2080 C   0  0  0  0  0  0  0  0  0  0  0  0
  140.9220   71.3020  227.1360 C   0  0  0  0  0  0  0  0  0  0  0  0
  140.4770   70.9990  225.8780 C   0  0  0  0  0  0  0  0  0  0  0  0
  140.6800   71.8900  224.8830 N   0  0  0  0  0  0  0  0  0  0  0  0
  138.8320   73.7570  223.0670 H   0  0  0  0  0  0  0  0  0  0  0  0
  140.7936   74.4890  220.9299 H   0  0  0  0  0  0  0  0  0  0  0  0
  139.0537   74.1897  220.4548 H   0  0  0  0  0  0  0  0  0  0  0  0
  139.0588   77.4265  219.2572 H   0  0  0  0  0  0  0  0  0  0  0  0
  138.9458   78.7118  220.4950 H   0  0  0  0  0  0  0  0  0  0  0  0
  140.7788   78.5607  218.3411 H   0  0  0  0  0  0  0  0  0  0  0  0
  140.8312   79.7163  219.6674 H   0  0  0  0  0  0  0  0  0  0  0  0
  142.2264   77.0058  219.4087 H   0  0  0  0  0  0  0  0  0  0  0  0
  142.9202   78.4666  220.0276 H   0  0  0  0  0  0  0  0  0  0  0  0
  142.0198   76.7834  221.9334 H   0  0  0  0  0  0  0  0  0  0  0  0
  143.4757   79.0603  221.9205 H   0  0  0  0  0  0  0  0  0  0  0  0
  143.5714   81.0986  223.2877 H   0  0  0  0  0  0  0  0  0  0  0  0
  141.5354   81.9896  224.4095 H   0  0  0  0  0  0  0  0  0  0  0  0
  139.3005   78.7021  222.7253 H   0  0  0  0  0  0  0  0  0  0  0  0
  139.2338   70.1429  222.3882 H   0  0  0  0  0  0  0  0  0  0  0  0
  138.8666   68.5192  224.2132 H   0  0  0  0  0  0  0  0  0  0  0  0
  139.1336   67.9580  226.5112 H   0  0  0  0  0  0  0  0  0  0  0  0
  139.9452   68.5266  228.7842 H   0  0  0  0  0  0  0  0  0  0  0  0
  141.1097   70.6848  229.2150 H   0  0  0  0  0  0  0  0  0  0  0  0
  141.4327   72.2614  227.3052 H   0  0  0  0  0  0  0  0  0  0  0  0
  1  2  2  0
  2  3  1  0
  3  4  1  0
  4  5  1  0
  5  6  2  0
  5  7  1  0
  7  8  1  0
  8  9  1  0
  9 10  1  0
 10 11  1  0
 11 12  1  0
 12 13  2  0
 13 14  1  0
 14 15  2  0
 15 16  1  0
 16 17  1  0
 16 18  2  0
  2 19  1  0
 19 20  2  0
 20 21  1  0
 21 22  2  0
 22 23  1  0
 23 24  2  0
 24 25  1  0
 25 26  2  0
 26 27  1  0
 27 28  2  0
 11  7  1  0
 18 12  1  0
 28 19  1  0
 27 22  1  0
  3 29  1  0
  4 30  1  0
  4 31  1  0
  8 32  1  0
  8 33  1  0
  9 34  1  0
  9 35  1  0
 10 36  1  0
 10 37  1  0
 11 38  1  1
 13 39  1  0
 14 40  1  0
 15 41  1  0
 18 42  1  0
 20 43  1  0
 21 44  1  0
 23 45  1  0
 24 46  1  0
 25 47  1  0
 26 48  1  0
M  END
>  <smiles>  (54) 
O=C(NCC(=O)N1CCCC1c1cccc(F)c1)c1ccc2ccccc2n1

>  <score_type>  (54) 
oracle

>  <origin>  (54) 
autodockgpu

>  <m_score__min__energy>  (54) 
-8.8699999999999992

>  <m_primary>  (54) 
energy

>  <rmsd>  (54) 
2.0028047492087633

>  <m_score__min__rmsd>  (54) 
2.0028047492087633

>  <meeko>  (54) 
{"free_energy": -8.85, "intermolecular_energy": -10.34, "internal_energy": -1.35, "cluster_size": 38, "cluster_id": 1, "rank_in_cluster": 6}

>  <energy>  (54) 
-8.86

>  <cluster_rmsd>  (54) 
1.23

>  <cluster>  (54) 
1

$$$$

     RDKit          3D

 48 51  0  0  0  0  0  0  0  0999 V2000
  141.3800   72.3410  221.7290 O   0  0  0  0  0  0  0  0  0  0  0  0
  140.4300   72.4810  222.5570 C   0  0  0  0  0  0  0  0  0  0  0  0
  139.5600   73.5850  222.3530 N   0  0  0  0  0  0  0  0  0  0  0  0
  139.7450   74.4970  221.2660 C   0  0  0  0  0  0  0  0  0  0  0  0
  139.4120   75.8860  221.6000 C   0  0  0  0  0  0  0  0  0  0  0  0
  138.4640   76.1030  222.3850 O   0  0  0  0  0  0  0  0  0  0  0  0
  140.1070   77.0040  221.0810 N   0  0  0  0  0  0  0  0  0  0  0  0
  139.6420   77.9420  220.0670 C   0  0  0  0  0  0  0  0  0  0  0  0
  140.8290   78.6140  219.4690 C   0  0  0  0  0  0  0  0  0  0  0  0
  142.0070   77.8680  220.0430 C   0  0  0  0  0  0  0  0  0  0  0  0
  141.4470   77.4980  221.4120 C   0  0  1  0  0  0  0  0  0  0  0  0
  141.3970   78.6920  222.2460 C   0  0  0  0  0  0  0  0  0  0  0  0
  142.5800   79.3900  222.4510 C   0  0  0  0  0  0  0  0  0  0  0  0
  142.6360   80.5410  223.2220 C   0  0  0  0  0  0  0  0  0  0  0  0
  141.5110   81.0560  223.8290 C   0  0  0  0  0  0  0  0  0  0  0  0
  140.3300   80.3750  223.6350 C   0  0  0  0  0  0  0  0  0  0  0  0
  139.2100   80.8550  224.2180 F   0  0  0  0  0  0  0  0  0  0  0  0
  140.2790   79.2130  222.8550 C   0  0  0  0  0  0  0  0  0  0  0  0
  140.2290   71.5590  223.6710 C   0  0  0  0  0  0  0  0  0  0  0  0
  139.5650   70.3750  223.4160 C   0  0  0  0  0  0  0  0  0  0  0  0
  139.3390   69.4650  224.4040 C   0  0  0  0  0  0  0  0  0  0  0  0
  139.7970   69.7640  225.6770 C   0  0  0  0  0  0  0  0  0  0  0  0
  139.5860   68.8740  226.6850 C   0  0  0  0  0  0  0  0  0  0  0  0
  140.0440   69.1710  227.9570 C   0  0  0  0  0  0  0  0  0  0  0  0
  140.7090   70.3510  228.2250 C   0  0  0  0  0  0  0  0  0  0  0  0
  140.9020   71.2320  227.1650 C   0  0  0  0  0  0  0  0  0  0  0  0
  140.4570   70.9530  225.9010 C   0  0  0  0  0  0  0  0  0  0  0  0
  140.6790   71.8530  224.9180 N   0  0  0  0  0  0  0  0  0  0  0  0
  138.7800   73.6950  223.0380 H   0  0  0  0  0  0  0  0  0  0  0  0
  140.7994   74.4576  220.9549 H   0  0  0  0  0  0  0  0  0  0  0  0
  139.0595   74.1855  220.4641 H   0  0  0  0  0  0  0  0  0  0  0  0
  139.0888   77.4004  219.2856 H   0  0  0  0  0  0  0  0  0  0  0  0
  138.9736   78.6886  220.5207 H   0  0  0  0  0  0  0  0  0  0  0  0
  140.8122   78.5315  218.3722 H   0  0  0  0  0  0  0  0  0  0  0  0
  140.8617   79.6899  219.6954 H   0  0  0  0  0  0  0  0  0  0  0  0
  142.2539   76.9760  219.4486 H   0  0  0  0  0  0  0  0  0  0  0  0
  142.9480   78.4371  220.0666 H   0  0  0  0  0  0  0  0  0  0  0  0
  142.0386   76.7598  221.9734 H   0  0  0  0  0  0  0  0  0  0  0  0
  143.5043   79.0169  221.9857 H   0  0  0  0  0  0  0  0  0  0  0  0
  143.6000   81.0546  223.3521 H   0  0  0  0  0  0  0  0  0  0  0  0
  141.5545   81.9693  224.4405 H   0  0  0  0  0  0  0  0  0  0  0  0
  139.3143   78.7006  222.7252 H   0  0  0  0  0  0  0  0  0  0  0  0
  139.2121   70.1630  222.3959 H   0  0  0  0  0  0  0  0  0  0  0  0
  138.8099   68.5229  224.1978 H   0  0  0  0  0  0  0  0  0  0  0  0
  139.0573   67.9291  226.4909 H   0  0  0  0  0  0  0  0  0  0  0  0
  139.8746   68.4516  228.7717 H   0  0  0  0  0  0  0  0  0  0  0  0
  141.0720   70.5855  229.2366 H   0  0  0  0  0  0  0  0  0  0  0  0
  141.4277   72.1807  227.3484 H   0  0  0  0  0  0  0  0  0  0  0  0
  1  2  2  0
  2  3  1  0
  3  4  1  0
  4  5  1  0
  5  6  2  0
  5  7  1  0
  7  8  1  0
  8  9  1  0
  9 10  1  0
 10 11  1  0
 11 12  1  0
 12 13  2  0
 13 14  1  0
 14 15  2  0
 15 16  1  0
 16 17  1  0
 16 18  2  0
  2 19  1  0
 19 20  2  0
 20 21  1  0
 21 22  2  0
 22 23  1  0
 23 24  2  0
 24 25  1  0
 25 26  2  0
 26 27  1  0
 27 28  2  0
 11  7  1  0
 18 12  1  0
 28 19  1  0
 27 22  1  0
  3 29  1  0
  4 30  1  0
  4 31  1  0
  8 32  1  0
  8 33  1  0
  9 34  1  0
  9 35  1  0
 10 36  1  0
 10 37  1  0
 11 38  1  1
 13 39  1  0
 14 40  1  0
 15 41  1  0
 18 42  1  0
 20 43  1  0
 21 44  1  0
 23 45  1  0
 24 46  1  0
 25 47  1  0
 26 48  1  0
M  END
>  <smiles>  (55) 
O=C(NCC(=O)N1CCCC1c1cccc(F)c1)c1ccc2ccccc2n1

>  <score_type>  (55) 
oracle

>  <origin>  (55) 
autodockgpu

>  <m_score__min__energy>  (55) 
-8.8699999999999992

>  <m_primary>  (55) 
energy

>  <rmsd>  (55) 
2.0109469495006853

>  <m_score__min__rmsd>  (55) 
2.0109469495006853

>  <meeko>  (55) 
{"free_energy": -8.86, "intermolecular_energy": -10.35, "internal_energy": -1.35, "cluster_size": 38, "cluster_id": 1, "rank_in_cluster": 4}

>  <energy>  (55) 
-8.85

>  <cluster_rmsd>  (55) 
1.22

>  <cluster>  (55) 
1

$$$$

     RDKit          3D

 48 51  0  0  0  0  0  0  0  0999 V2000
  138.7030   71.2730  221.4920 O   0  0  0  0  0  0  0  0  0  0  0  0
  139.1920   71.6450  222.5990 C   0  0  0  0  0  0  0  0  0  0  0  0
  139.5420   73.0170  222.7170 N   0  0  0  0  0  0  0  0  0  0  0  0
  139.3510   73.9360  221.6360 C   0  0  0  0  0  0  0  0  0  0  0  0
  140.2600   75.0870  221.6760 C   0  0  0  0  0  0  0  0  0  0  0  0
  141.4680   74.8890  221.9280 O   0  0  0  0  0  0  0  0  0  0  0  0
  139.8440   76.4190  221.4440 N   0  0  0  0  0  0  0  0  0  0  0  0
  138.5590   77.0180  221.7860 C   0  0  0  0  0  0  0  0  0  0  0  0
  138.3620   78.2230  220.9340 C   0  0  0  0  0  0  0  0  0  0  0  0
  139.4990   78.1710  219.9450 C   0  0  0  0  0  0  0  0  0  0  0  0
  140.5730   77.5210  220.8080 C   0  0  1  0  0  0  0  0  0  0  0  0
  141.0530   78.4910  221.7850 C   0  0  0  0  0  0  0  0  0  0  0  0
  141.3380   78.0340  223.0660 C   0  0  0  0  0  0  0  0  0  0  0  0
  141.8050   78.8760  224.0630 C   0  0  0  0  0  0  0  0  0  0  0  0
  142.0130   80.2190  223.8340 C   0  0  0  0  0  0  0  0  0  0  0  0
  141.7350   80.6870  222.5690 C   0  0  0  0  0  0  0  0  0  0  0  0
  141.9280   81.9980  222.3140 F   0  0  0  0  0  0  0  0  0  0  0  0
  141.2630   79.8330  221.5650 C   0  0  0  0  0  0  0  0  0  0  0  0
  139.3930   70.7190  223.7100 C   0  0  0  0  0  0  0  0  0  0  0  0
  138.9820   69.4110  223.5420 C   0  0  0  0  0  0  0  0  0  0  0  0
  139.1350   68.4900  224.5330 C   0  0  0  0  0  0  0  0  0  0  0  0
  139.7180   68.9050  225.7190 C   0  0  0  0  0  0  0  0  0  0  0  0
  139.8850   68.0050  226.7270 C   0  0  0  0  0  0  0  0  0  0  0  0
  140.4680   68.4190  227.9130 C   0  0  0  0  0  0  0  0  0  0  0  0
  140.8840   69.7230  228.0930 C   0  0  0  0  0  0  0  0  0  0  0  0
  140.6930   70.6080  227.0360 C   0  0  0  0  0  0  0  0  0  0  0  0
  140.1190   70.2160  225.8570 C   0  0  0  0  0  0  0  0  0  0  0  0
  139.9650   71.1270  224.8720 N   0  0  0  0  0  0  0  0  0  0  0  0
  139.9450   73.3180  223.6310 H   0  0  0  0  0  0  0  0  0  0  0  0
  139.5121   73.3984  220.6899 H   0  0  0  0  0  0  0  0  0  0  0  0
  138.3277   74.3298  221.7244 H   0  0  0  0  0  0  0  0  0  0  0  0
  137.7508   76.2953  221.6003 H   0  0  0  0  0  0  0  0  0  0  0  0
  138.5437   77.2996  222.8492 H   0  0  0  0  0  0  0  0  0  0  0  0
  137.3927   78.1794  220.4158 H   0  0  0  0  0  0  0  0  0  0  0  0
  138.3565   79.1546  221.5190 H   0  0  0  0  0  0  0  0  0  0  0  0
  139.2501   77.5534  219.0694 H   0  0  0  0  0  0  0  0  0  0  0  0
  139.7793   79.1420  219.5108 H   0  0  0  0  0  0  0  0  0  0  0  0
  141.4620   77.1743  220.2608 H   0  0  0  0  0  0  0  0  0  0  0  0
  141.1880   76.9689  223.2963 H   0  0  0  0  0  0  0  0  0  0  0  0
  142.0145   78.4626  225.0606 H   0  0  0  0  0  0  0  0  0  0  0  0
  142.3841   80.8866  224.6255 H   0  0  0  0  0  0  0  0  0  0  0  0
  141.0533   80.2482  220.5682 H   0  0  0  0  0  0  0  0  0  0  0  0
  138.5225   69.1078  222.5897 H   0  0  0  0  0  0  0  0  0  0  0  0
  138.8060   67.4493  224.3962 H   0  0  0  0  0  0  0  0  0  0  0  0
  139.5607   66.9615  226.6008 H   0  0  0  0  0  0  0  0  0  0  0  0
  140.6025   67.6935  228.7288 H   0  0  0  0  0  0  0  0  0  0  0  0
  141.3483   70.0498  229.0351 H   0  0  0  0  0  0  0  0  0  0  0  0
  141.0130   71.6541  227.1516 H   0  0  0  0  0  0  0  0  0  0  0  0
  1  2  2  0
  2  3  1  0
  3  4  1  0
  4  5  1  0
  5  6  2  0
  5  7  1  0
  7  8  1  0
  8  9  1  0
  9 10  1  0
 10 11  1  0
 11 12  1  0
 12 13  2  0
 13 14  1  0
 14 15  2  0
 15 16  1  0
 16 17  1  0
 16 18  2  0
  2 19  1  0
 19 20  2  0
 20 21  1  0
 21 22  2  0
 22 23  1  0
 23 24  2  0
 24 25  1  0
 25 26  2  0
 26 27  1  0
 27 28  2  0
 11  7  1  0
 18 12  1  0
 28 19  1  0
 27 22  1  0
  3 29  1  0
  4 30  1  0
  4 31  1  0
  8 32  1  0
  8 33  1  0
  9 34  1  0
  9 35  1  0
 10 36  1  0
 10 37  1  0
 11 38  1  6
 13 39  1  0
 14 40  1  0
 15 41  1  0
 18 42  1  0
 20 43  1  0
 21 44  1  0
 23 45  1  0
 24 46  1  0
 25 47  1  0
 26 48  1  0
M  END
>  <smiles>  (56) 
O=C(NCC(=O)N1CCCC1c1cccc(F)c1)c1ccc2ccccc2n1

>  <score_type>  (56) 
oracle

>  <origin>  (56) 
autodockgpu

>  <m_score__min__energy>  (56) 
-8.8699999999999992

>  <m_primary>  (56) 
energy

>  <rmsd>  (56) 
1.9909879980108245

>  <m_score__min__rmsd>  (56) 
1.9909879980108245

>  <meeko>  (56) 
{"free_energy": -8.26, "intermolecular_energy": -9.75, "internal_energy": -1.47, "cluster_size": 38, "cluster_id": 1, "rank_in_cluster": 37}

>  <energy>  (56) 
-8.85

>  <cluster_rmsd>  (56) 
1.24

>  <cluster>  (56) 
1

$$$$

     RDKit          3D

 48 51  0  0  0  0  0  0  0  0999 V2000
  139.9440   71.3880  221.3420 O   0  0  0  0  0  0  0  0  0  0  0  0
  139.8510   71.9840  222.4560 C   0  0  0  0  0  0  0  0  0  0  0  0
  139.6280   73.3860  222.4150 N   0  0  0  0  0  0  0  0  0  0  0  0
  139.5120   74.0930  221.1760 C   0  0  0  0  0  0  0  0  0  0  0  0
  139.1540   75.5070  221.3360 C   0  0  0  0  0  0  0  0  0  0  0  0
  138.0590   75.7910  221.8660 O   0  0  0  0  0  0  0  0  0  0  0  0
  139.9840   76.5750  220.9220 N   0  0  0  0  0  0  0  0  0  0  0  0
  139.7560   77.4940  219.8130 C   0  0  0  0  0  0  0  0  0  0  0  0
  141.0630   78.0930  219.4250 C   0  0  0  0  0  0  0  0  0  0  0  0
  142.0800   77.3220  220.2260 C   0  0  0  0  0  0  0  0  0  0  0  0
  141.2630   77.0260  221.4790 C   0  0  1  0  0  0  0  0  0  0  0  0
  141.1180   78.2510  222.2550 C   0  0  0  0  0  0  0  0  0  0  0  0
  142.2190   79.0930  222.3490 C   0  0  0  0  0  0  0  0  0  0  0  0
  142.1800   80.2840  223.0570 C   0  0  0  0  0  0  0  0  0  0  0  0
  141.0380   80.6970  223.7090 C   0  0  0  0  0  0  0  0  0  0  0  0
  139.9380   79.8730  223.6260 C   0  0  0  0  0  0  0  0  0  0  0  0
  138.8050   80.2500  224.2550 F   0  0  0  0  0  0  0  0  0  0  0  0
  139.9820   78.6710  222.9090 C   0  0  0  0  0  0  0  0  0  0  0  0
  139.9670   71.2760  223.7280 C   0  0  0  0  0  0  0  0  0  0  0  0
  139.5600   69.9570  223.7710 C   0  0  0  0  0  0  0  0  0  0  0  0
  139.6370   69.2320  224.9210 C   0  0  0  0  0  0  0  0  0  0  0  0
  140.1390   69.8590  226.0500 C   0  0  0  0  0  0  0  0  0  0  0  0
  140.2280   69.1590  227.2140 C   0  0  0  0  0  0  0  0  0  0  0  0
  140.7290   69.7850  228.3430 C   0  0  0  0  0  0  0  0  0  0  0  0
  141.1400   71.1030  228.3120 C   0  0  0  0  0  0  0  0  0  0  0  0
  141.0300   71.7800  227.1010 C   0  0  0  0  0  0  0  0  0  0  0  0
  140.5370   71.1760  225.9760 C   0  0  0  0  0  0  0  0  0  0  0  0
  140.4590   71.8920  224.8340 N   0  0  0  0  0  0  0  0  0  0  0  0
  139.5520   73.8720  223.3360 H   0  0  0  0  0  0  0  0  0  0  0  0
  140.4774   74.0362  220.6518 H   0  0  0  0  0  0  0  0  0  0  0  0
  138.6984   73.6172  220.6089 H   0  0  0  0  0  0  0  0  0  0  0  0
  139.3292   76.9476  218.9590 H   0  0  0  0  0  0  0  0  0  0  0  0
  139.0520   78.2837  220.1142 H   0  0  0  0  0  0  0  0  0  0  0  0
  141.2426   77.9707  218.3467 H   0  0  0  0  0  0  0  0  0  0  0  0
  141.1046   79.1742  219.6234 H   0  0  0  0  0  0  0  0  0  0  0  0
  142.3890   76.3993  219.7130 H   0  0  0  0  0  0  0  0  0  0  0  0
  143.0267   77.8527  220.4054 H   0  0  0  0  0  0  0  0  0  0  0  0
  141.7071   76.2855  222.1605 H   0  0  0  0  0  0  0  0  0  0  0  0
  143.1531   78.8048  221.8446 H   0  0  0  0  0  0  0  0  0  0  0  0
  143.0808   80.9138  223.0995 H   0  0  0  0  0  0  0  0  0  0  0  0
  141.0068   81.6424  224.2704 H   0  0  0  0  0  0  0  0  0  0  0  0
  139.0802   78.0425  222.8671 H   0  0  0  0  0  0  0  0  0  0  0  0
  139.1664   69.4834  222.8595 H   0  0  0  0  0  0  0  0  0  0  0  0
  139.3110   68.1819  224.9527 H   0  0  0  0  0  0  0  0  0  0  0  0
  139.9057   68.1082  227.2573 H   0  0  0  0  0  0  0  0  0  0  0  0
  140.8011   69.2205  229.2844 H   0  0  0  0  0  0  0  0  0  0  0  0
  141.5388   71.5985  229.2095 H   0  0  0  0  0  0  0  0  0  0  0  0
  141.3486   72.8314  227.0464 H   0  0  0  0  0  0  0  0  0  0  0  0
  1  2  2  0
  2  3  1  0
  3  4  1  0
  4  5  1  0
  5  6  2  0
  5  7  1  0
  7  8  1  0
  8  9  1  0
  9 10  1  0
 10 11  1  0
 11 12  1  0
 12 13  2  0
 13 14  1  0
 14 15  2  0
 15 16  1  0
 16 17  1  0
 16 18  2  0
  2 19  1  0
 19 20  2  0
 20 21  1  0
 21 22  2  0
 22 23  1  0
 23 24  2  0
 24 25  1  0
 25 26  2  0
 26 27  1  0
 27 28  2  0
 11  7  1  0
 18 12  1  0
 28 19  1  0
 27 22  1  0
  3 29  1  0
  4 30  1  0
  4 31  1  0
  8 32  1  0
  8 33  1  0
  9 34  1  0
  9 35  1  0
 10 36  1  0
 10 37  1  0
 11 38  1  1
 13 39  1  0
 14 40  1  0
 15 41  1  0
 18 42  1  0
 20 43  1  0
 21 44  1  0
 23 45  1  0
 24 46  1  0
 25 47  1  0
 26 48  1  0
M  END
>  <smiles>  (57) 
O=C(NCC(=O)N1CCCC1c1cccc(F)c1)c1ccc2ccccc2n1

>  <score_type>  (57) 
oracle

>  <origin>  (57) 
autodockgpu

>  <m_score__min__energy>  (57) 
-8.8699999999999992

>  <m_primary>  (57) 
energy

>  <rmsd>  (57) 
1.8134735736396006

>  <m_score__min__rmsd>  (57) 
1.8134735736396006

>  <meeko>  (57) 
{"free_energy": -8.52, "intermolecular_energy": -10.01, "internal_energy": -1.37, "cluster_size": 38, "cluster_id": 1, "rank_in_cluster": 25}

>  <energy>  (57) 
-8.85

>  <cluster_rmsd>  (57) 
1.22

>  <cluster>  (57) 
1

$$$$

     RDKit          3D

 48 51  0  0  0  0  0  0  0  0999 V2000
  141.2870   71.5990  221.7020 O   0  0  0  0  0  0  0  0  0  0  0  0
  140.5350   71.9020  222.6760 C   0  0  0  0  0  0  0  0  0  0  0  0
  139.9110   73.1770  222.6300 N   0  0  0  0  0  0  0  0  0  0  0  0
  140.1200   74.0770  221.5370 C   0  0  0  0  0  0  0  0  0  0  0  0
  139.6580   75.4440  221.8040 C   0  0  0  0  0  0  0  0  0  0  0  0
  138.8280   75.6270  222.7200 O   0  0  0  0  0  0  0  0  0  0  0  0
  140.1010   76.5750  221.0800 N   0  0  0  0  0  0  0  0  0  0  0  0
  139.3010   77.4520  220.2330 C   0  0  0  0  0  0  0  0  0  0  0  0
  140.2160   78.1590  219.2940 C   0  0  0  0  0  0  0  0  0  0  0  0
  141.5530   77.4940  219.5040 C   0  0  0  0  0  0  0  0  0  0  0  0
  141.4480   77.1460  220.9840 C   0  0  1  0  0  0  0  0  0  0  0  0
  141.5790   78.3650  221.7720 C   0  0  0  0  0  0  0  0  0  0  0  0
  141.4420   78.2640  223.1500 C   0  0  0  0  0  0  0  0  0  0  0  0
  141.5560   79.3640  223.9870 C   0  0  0  0  0  0  0  0  0  0  0  0
  141.8140   80.6230  223.4900 C   0  0  0  0  0  0  0  0  0  0  0  0
  141.9530   80.7400  222.1250 C   0  0  0  0  0  0  0  0  0  0  0  0
  142.2050   81.9610  221.6090 F   0  0  0  0  0  0  0  0  0  0  0  0
  141.8360   79.6260  221.2840 C   0  0  0  0  0  0  0  0  0  0  0  0
  140.3130   70.9940  223.7980 C   0  0  0  0  0  0  0  0  0  0  0  0
  139.5900   69.8410  223.5610 C   0  0  0  0  0  0  0  0  0  0  0  0
  139.3400   68.9470  224.5570 C   0  0  0  0  0  0  0  0  0  0  0  0
  139.8360   69.2280  225.8190 C   0  0  0  0  0  0  0  0  0  0  0  0
  139.6040   68.3520  226.8340 C   0  0  0  0  0  0  0  0  0  0  0  0
  140.0980   68.6320  228.0970 C   0  0  0  0  0  0  0  0  0  0  0  0
  140.8230   69.7800  228.3460 C   0  0  0  0  0  0  0  0  0  0  0  0
  141.0370   70.6480  227.2790 C   0  0  0  0  0  0  0  0  0  0  0  0
  140.5540   70.3860  226.0250 C   0  0  0  0  0  0  0  0  0  0  0  0
  140.7990   71.2710  225.0350 N   0  0  0  0  0  0  0  0  0  0  0  0
  139.2930   73.4210  223.4350 H   0  0  0  0  0  0  0  0  0  0  0  0
  141.1970   74.1110  221.3158 H   0  0  0  0  0  0  0  0  0  0  0  0
  139.5302   73.6973  220.6897 H   0  0  0  0  0  0  0  0  0  0  0  0
  138.5723   76.8560  219.6640 H   0  0  0  0  0  0  0  0  0  0  0  0
  138.7556   78.1807  220.8508 H   0  0  0  0  0  0  0  0  0  0  0  0
  139.8786   78.0356  218.2543 H   0  0  0  0  0  0  0  0  0  0  0  0
  140.2523   79.2427  219.4791 H   0  0  0  0  0  0  0  0  0  0  0  0
  141.6637   76.5947  218.8803 H   0  0  0  0  0  0  0  0  0  0  0  0
  142.4235   78.1100  219.2342 H   0  0  0  0  0  0  0  0  0  0  0  0
  142.2219   76.4583  221.3557 H   0  0  0  0  0  0  0  0  0  0  0  0
  141.2361   77.2783  223.5928 H   0  0  0  0  0  0  0  0  0  0  0  0
  141.4378   79.2283  225.0722 H   0  0  0  0  0  0  0  0  0  0  0  0
  141.9048   81.4954  224.1538 H   0  0  0  0  0  0  0  0  0  0  0  0
  141.9533   79.7633  220.1989 H   0  0  0  0  0  0  0  0  0  0  0  0
  139.2091   69.6414  222.5485 H   0  0  0  0  0  0  0  0  0  0  0  0
  138.7624   68.0307  224.3653 H   0  0  0  0  0  0  0  0  0  0  0  0
  139.0301   67.4311  226.6532 H   0  0  0  0  0  0  0  0  0  0  0  0
  139.9089   67.9253  228.9185 H   0  0  0  0  0  0  0  0  0  0  0  0
  141.2166   70.0005  229.3492 H   0  0  0  0  0  0  0  0  0  0  0  0
  141.6108   71.5711  227.4483 H   0  0  0  0  0  0  0  0  0  0  0  0
  1  2  2  0
  2  3  1  0
  3  4  1  0
  4  5  1  0
  5  6  2  0
  5  7  1  0
  7  8  1  0
  8  9  1  0
  9 10  1  0
 10 11  1  0
 11 12  1  0
 12 13  2  0
 13 14  1  0
 14 15  2  0
 15 16  1  0
 16 17  1  0
 16 18  2  0
  2 19  1  0
 19 20  2  0
 20 21  1  0
 21 22  2  0
 22 23  1  0
 23 24  2  0
 24 25  1  0
 25 26  2  0
 26 27  1  0
 27 28  2  0
 11  7  1  0
 18 12  1  0
 28 19  1  0
 27 22  1  0
  3 29  1  0
  4 30  1  0
  4 31  1  0
  8 32  1  0
  8 33  1  0
  9 34  1  0
  9 35  1  0
 10 36  1  0
 10 37  1  0
 11 38  1  1
 13 39  1  0
 14 40  1  0
 15 41  1  0
 18 42  1  0
 20 43  1  0
 21 44  1  0
 23 45  1  0
 24 46  1  0
 25 47  1  0
 26 48  1  0
M  END
>  <smiles>  (58) 
O=C(NCC(=O)N1CCCC1c1cccc(F)c1)c1ccc2ccccc2n1

>  <score_type>  (58) 
oracle

>  <origin>  (58) 
autodockgpu

>  <m_score__min__energy>  (58) 
-8.8699999999999992

>  <m_primary>  (58) 
energy

>  <rmsd>  (58) 
1.792890732613527

>  <m_score__min__rmsd>  (58) 
1.792890732613527

>  <meeko>  (58) 
{"free_energy": -8.54, "intermolecular_energy": -10.04, "internal_energy": -1.4, "cluster_size": 38, "cluster_id": 1, "rank_in_cluster": 24}

>  <energy>  (58) 
-8.85

>  <cluster_rmsd>  (58) 
1.22

>  <cluster>  (58) 
1

$$$$

     RDKit          3D

 48 51  0  0  0  0  0  0  0  0999 V2000
  141.3600   72.3250  221.6960 O   0  0  0  0  0  0  0  0  0  0  0  0
  140.4310   72.4640  222.5460 C   0  0  0  0  0  0  0  0  0  0  0  0
  139.5710   73.5820  222.3770 N   0  0  0  0  0  0  0  0  0  0  0  0
  139.7430   74.5070  221.2990 C   0  0  0  0  0  0  0  0  0  0  0  0
  139.4260   75.8940  221.6570 C   0  0  0  0  0  0  0  0  0  0  0  0
  138.5080   76.1060  222.4780 O   0  0  0  0  0  0  0  0  0  0  0  0
  140.1050   77.0140  221.1220 N   0  0  0  0  0  0  0  0  0  0  0  0
  139.6150   77.9470  220.1130 C   0  0  0  0  0  0  0  0  0  0  0  0
  140.7880   78.6240  219.4930 C   0  0  0  0  0  0  0  0  0  0  0  0
  141.9810   77.8880  220.0490 C   0  0  0  0  0  0  0  0  0  0  0  0
  141.4470   77.5180  221.4280 C   0  0  1  0  0  0  0  0  0  0  0  0
  141.4030   78.7150  222.2590 C   0  0  0  0  0  0  0  0  0  0  0  0
  142.5900   79.4100  222.4570 C   0  0  0  0  0  0  0  0  0  0  0  0
  142.6510   80.5620  223.2250 C   0  0  0  0  0  0  0  0  0  0  0  0
  141.5310   81.0820  223.8350 C   0  0  0  0  0  0  0  0  0  0  0  0
  140.3470   80.4040  223.6490 C   0  0  0  0  0  0  0  0  0  0  0  0
  139.2310   80.8890  224.2350 F   0  0  0  0  0  0  0  0  0  0  0  0
  140.2890   79.2400  222.8720 C   0  0  0  0  0  0  0  0  0  0  0  0
  140.2430   71.5290  223.6520 C   0  0  0  0  0  0  0  0  0  0  0  0
  139.5800   70.3470  223.3900 C   0  0  0  0  0  0  0  0  0  0  0  0
  139.3650   69.4250  224.3700 C   0  0  0  0  0  0  0  0  0  0  0  0
  139.8350   69.7110  225.6420 C   0  0  0  0  0  0  0  0  0  0  0  0
  139.6360   68.8090  226.6410 C   0  0  0  0  0  0  0  0  0  0  0  0
  140.1050   69.0930  227.9120 C   0  0  0  0  0  0  0  0  0  0  0  0
  140.7700   70.2710  228.1860 C   0  0  0  0  0  0  0  0  0  0  0  0
  140.9510   71.1650  227.1350 C   0  0  0  0  0  0  0  0  0  0  0  0
  140.4940   70.8990  225.8720 C   0  0  0  0  0  0  0  0  0  0  0  0
  140.7040   71.8110  224.8980 N   0  0  0  0  0  0  0  0  0  0  0  0
  138.8080   73.6920  223.0810 H   0  0  0  0  0  0  0  0  0  0  0  0
  140.7913   74.4644  220.9685 H   0  0  0  0  0  0  0  0  0  0  0  0
  139.0410   74.2109  220.5056 H   0  0  0  0  0  0  0  0  0  0  0  0
  139.0515   77.3998  219.3429 H   0  0  0  0  0  0  0  0  0  0  0  0
  138.9493   78.6904  220.5758 H   0  0  0  0  0  0  0  0  0  0  0  0
  140.7531   78.5376  218.3969 H   0  0  0  0  0  0  0  0  0  0  0  0
  140.8176   79.7008  219.7160 H   0  0  0  0  0  0  0  0  0  0  0  0
  142.2242   76.9961  219.4529 H   0  0  0  0  0  0  0  0  0  0  0  0
  142.9182   78.4639  220.0551 H   0  0  0  0  0  0  0  0  0  0  0  0
  142.0530   76.7852  221.9810 H   0  0  0  0  0  0  0  0  0  0  0  0
  143.5114   79.0334  221.9888 H   0  0  0  0  0  0  0  0  0  0  0  0
  143.6169   81.0732  223.3504 H   0  0  0  0  0  0  0  0  0  0  0  0
  141.5801   81.9973  224.4431 H   0  0  0  0  0  0  0  0  0  0  0  0
  139.3224   78.7297  222.7481 H   0  0  0  0  0  0  0  0  0  0  0  0
  139.2184   70.1456  222.3709 H   0  0  0  0  0  0  0  0  0  0  0  0
  138.8356   68.4843  224.1584 H   0  0  0  0  0  0  0  0  0  0  0  0
  139.1084   67.8648  226.4409 H   0  0  0  0  0  0  0  0  0  0  0  0
  139.9443   68.3647  228.7205 H   0  0  0  0  0  0  0  0  0  0  0  0
  141.1427   70.4946  229.1965 H   0  0  0  0  0  0  0  0  0  0  0  0
  141.4764   72.1127  227.3244 H   0  0  0  0  0  0  0  0  0  0  0  0
  1  2  2  0
  2  3  1  0
  3  4  1  0
  4  5  1  0
  5  6  2  0
  5  7  1  0
  7  8  1  0
  8  9  1  0
  9 10  1  0
 10 11  1  0
 11 12  1  0
 12 13  2  0
 13 14  1  0
 14 15  2  0
 15 16  1  0
 16 17  1  0
 16 18  2  0
  2 19  1  0
 19 20  2  0
 20 21  1  0
 21 22  2  0
 22 23  1  0
 23 24  2  0
 24 25  1  0
 25 26  2  0
 26 27  1  0
 27 28  2  0
 11  7  1  0
 18 12  1  0
 28 19  1  0
 27 22  1  0
  3 29  1  0
  4 30  1  0
  4 31  1  0
  8 32  1  0
  8 33  1  0
  9 34  1  0
  9 35  1  0
 10 36  1  0
 10 37  1  0
 11 38  1  1
 13 39  1  0
 14 40  1  0
 15 41  1  0
 18 42  1  0
 20 43  1  0
 21 44  1  0
 23 45  1  0
 24 46  1  0
 25 47  1  0
 26 48  1  0
M  END
>  <smiles>  (59) 
O=C(NCC(=O)N1CCCC1c1cccc(F)c1)c1ccc2ccccc2n1

>  <score_type>  (59) 
oracle

>  <origin>  (59) 
autodockgpu

>  <m_score__min__energy>  (59) 
-8.8699999999999992

>  <m_primary>  (59) 
energy

>  <rmsd>  (59) 
2.0096054118411097

>  <m_score__min__rmsd>  (59) 
2.0096054118411097

>  <meeko>  (59) 
{"free_energy": -8.85, "intermolecular_energy": -10.34, "internal_energy": -1.34, "cluster_size": 38, "cluster_id": 1, "rank_in_cluster": 5}

>  <energy>  (59) 
-8.85

>  <cluster_rmsd>  (59) 
1.23

>  <cluster>  (59) 
1

$$$$

     RDKit          3D

 48 51  0  0  0  0  0  0  0  0999 V2000
  140.6310   75.2720  220.8320 O   0  0  0  0  0  0  0  0  0  0  0  0
  139.9430   75.7420  221.7860 C   0  0  0  0  0  0  0  0  0  0  0  0
  138.9490   74.8910  222.3390 N   0  0  0  0  0  0  0  0  0  0  0  0
  138.7350   73.5650  221.8430 C   0  0  0  0  0  0  0  0  0  0  0  0
  139.6780   72.5770  222.3800 C   0  0  0  0  0  0  0  0  0  0  0  0
  140.8960   72.8550  222.3900 O   0  0  0  0  0  0  0  0  0  0  0  0
  139.2840   71.3180  222.8920 N   0  0  0  0  0  0  0  0  0  0  0  0
  139.5840   70.0040  222.3360 C   0  0  0  0  0  0  0  0  0  0  0  0
  138.5860   69.0320  222.8630 C   0  0  0  0  0  0  0  0  0  0  0  0
  137.5770   69.8890  223.5850 C   0  0  0  0  0  0  0  0  0  0  0  0
  138.4850   71.0090  224.0810 C   0  0  1  0  0  0  0  0  0  0  0  0
  139.3080   70.5070  225.1750 C   0  0  0  0  0  0  0  0  0  0  0  0
  140.4020   71.2690  225.5640 C   0  0  0  0  0  0  0  0  0  0  0  0
  141.2420   70.8820  226.5970 C   0  0  0  0  0  0  0  0  0  0  0  0
  141.0320   69.7140  227.2960 C   0  0  0  0  0  0  0  0  0  0  0  0
  139.9510   68.9470  226.9220 C   0  0  0  0  0  0  0  0  0  0  0  0
  139.7200   67.7960  227.5880 F   0  0  0  0  0  0  0  0  0  0  0  0
  139.1060   69.3420  225.8780 C   0  0  0  0  0  0  0  0  0  0  0  0
  140.1490   77.0930  222.3020 C   0  0  0  0  0  0  0  0  0  0  0  0
  139.0330   77.8220  222.6610 C   0  0  0  0  0  0  0  0  0  0  0  0
  139.1450   79.0890  223.1490 C   0  0  0  0  0  0  0  0  0  0  0  0
  140.4160   79.6250  223.2750 C   0  0  0  0  0  0  0  0  0  0  0  0
  140.5590   80.8880  223.7610 C   0  0  0  0  0  0  0  0  0  0  0  0
  141.8290   81.4250  223.8870 C   0  0  0  0  0  0  0  0  0  0  0  0
  142.9520   80.7050  223.5320 C   0  0  0  0  0  0  0  0  0  0  0  0
  142.7590   79.4180  223.0400 C   0  0  0  0  0  0  0  0  0  0  0  0
  141.5100   78.8720  222.9090 C   0  0  0  0  0  0  0  0  0  0  0  0
  141.3960   77.6170  222.4240 N   0  0  0  0  0  0  0  0  0  0  0  0
  138.3840   75.2830  223.1240 H   0  0  0  0  0  0  0  0  0  0  0  0
  137.7148   73.2537  222.1118 H   0  0  0  0  0  0  0  0  0  0  0  0
  138.8891   73.5993  220.7544 H   0  0  0  0  0  0  0  0  0  0  0  0
  139.5220   70.0420  221.2384 H   0  0  0  0  0  0  0  0  0  0  0  0
  140.6002   69.6953  222.6223 H   0  0  0  0  0  0  0  0  0  0  0  0
  138.1096   68.4781  222.0407 H   0  0  0  0  0  0  0  0  0  0  0  0
  139.0416   68.2758  223.5192 H   0  0  0  0  0  0  0  0  0  0  0  0
  136.7997   70.2655  222.9038 H   0  0  0  0  0  0  0  0  0  0  0  0
  137.0088   69.3713  224.3719 H   0  0  0  0  0  0  0  0  0  0  0  0
  137.9615   71.8928  224.4744 H   0  0  0  0  0  0  0  0  0  0  0  0
  140.6090   72.2109  225.0349 H   0  0  0  0  0  0  0  0  0  0  0  0
  142.0955   71.5224  226.8643 H   0  0  0  0  0  0  0  0  0  0  0  0
  141.6978   69.4075  228.1162 H   0  0  0  0  0  0  0  0  0  0  0  0
  138.2533   68.7003  225.6114 H   0  0  0  0  0  0  0  0  0  0  0  0
  138.0354   77.3718  222.5510 H   0  0  0  0  0  0  0  0  0  0  0  0
  138.2542   79.6681  223.4340 H   0  0  0  0  0  0  0  0  0  0  0  0
  139.6755   81.4758  224.0506 H   0  0  0  0  0  0  0  0  0  0  0  0
  141.9455   82.4465  224.2781 H   0  0  0  0  0  0  0  0  0  0  0  0
  143.9605   81.1323  223.6342 H   0  0  0  0  0  0  0  0  0  0  0  0
  143.6357   78.8214  222.7476 H   0  0  0  0  0  0  0  0  0  0  0  0
  1  2  2  0
  2  3  1  0
  3  4  1  0
  4  5  1  0
  5  6  2  0
  5  7  1  0
  7  8  1  0
  8  9  1  0
  9 10  1  0
 10 11  1  0
 11 12  1  0
 12 13  2  0
 13 14  1  0
 14 15  2  0
 15 16  1  0
 16 17  1  0
 16 18  2  0
  2 19  1  0
 19 20  2  0
 20 21  1  0
 21 22  2  0
 22 23  1  0
 23 24  2  0
 24 25  1  0
 25 26  2  0
 26 27  1  0
 27 28  2  0
 11  7  1  0
 18 12  1  0
 28 19  1  0
 27 22  1  0
  3 29  1  0
  4 30  1  0
  4 31  1  0
  8 32  1  0
  8 33  1  0
  9 34  1  0
  9 35  1  0
 10 36  1  0
 10 37  1  0
 11 38  1  1
 13 39  1  0
 14 40  1  0
 15 41  1  0
 18 42  1  0
 20 43  1  0
 21 44  1  0
 23 45  1  0
 24 46  1  0
 25 47  1  0
 26 48  1  0
M  END
>  <smiles>  (60) 
O=C(NCC(=O)N1CCCC1c1cccc(F)c1)c1ccc2ccccc2n1

>  <score_type>  (60) 
oracle

>  <origin>  (60) 
autodockgpu

>  <m_score__min__energy>  (60) 
-8.8699999999999992

>  <m_primary>  (60) 
energy

>  <rmsd>  (60) 
8.321900239545652

>  <m_score__min__rmsd>  (60) 
8.321900239545652

>  <meeko>  (60) 
{"free_energy": -8.73, "intermolecular_energy": -10.22, "internal_energy": -1.08, "cluster_size": 7, "cluster_id": 2, "rank_in_cluster": 1}

>  <energy>  (60) 
-8.83

>  <cluster_rmsd>  (60) 
1.26

>  <cluster>  (60) 
1

$$$$

     RDKit          3D

 48 51  0  0  0  0  0  0  0  0999 V2000
  139.8430   71.1870  221.2700 O   0  0  0  0  0  0  0  0  0  0  0  0
  139.7710   71.8500  222.3480 C   0  0  0  0  0  0  0  0  0  0  0  0
  139.5610   73.2500  222.2260 N   0  0  0  0  0  0  0  0  0  0  0  0
  139.4370   73.8820  220.9480 C   0  0  0  0  0  0  0  0  0  0  0  0
  139.0280   75.2890  221.0250 C   0  0  0  0  0  0  0  0  0  0  0  0
  137.8440   75.5530  221.3240 O   0  0  0  0  0  0  0  0  0  0  0  0
  139.9030   76.3720  220.7780 N   0  0  0  0  0  0  0  0  0  0  0  0
  139.8410   77.3270  219.6770 C   0  0  0  0  0  0  0  0  0  0  0  0
  141.1870   77.9430  219.5140 C   0  0  0  0  0  0  0  0  0  0  0  0
  142.0750   77.1480  220.4380 C   0  0  0  0  0  0  0  0  0  0  0  0
  141.0770   76.8080  221.5390 C   0  0  1  0  0  0  0  0  0  0  0  0
  140.8040   78.0070  222.3220 C   0  0  0  0  0  0  0  0  0  0  0  0
  141.8760   78.8320  222.6390 C   0  0  0  0  0  0  0  0  0  0  0  0
  141.7200   79.9980  223.3730 C   0  0  0  0  0  0  0  0  0  0  0  0
  140.4840   80.4010  223.8300 C   0  0  0  0  0  0  0  0  0  0  0  0
  139.4110   79.5940  223.5240 C   0  0  0  0  0  0  0  0  0  0  0  0
  138.1870   79.9620  223.9580 F   0  0  0  0  0  0  0  0  0  0  0  0
  139.5740   78.4170  222.7820 C   0  0  0  0  0  0  0  0  0  0  0  0
  139.8960   71.2190  223.6580 C   0  0  0  0  0  0  0  0  0  0  0  0
  139.4990   69.9010  223.7800 C   0  0  0  0  0  0  0  0  0  0  0  0
  139.5850   69.2450  224.9700 C   0  0  0  0  0  0  0  0  0  0  0  0
  140.0840   69.9410  226.0590 C   0  0  0  0  0  0  0  0  0  0  0  0
  140.1820   69.3100  227.2610 C   0  0  0  0  0  0  0  0  0  0  0  0
  140.6800   70.0050  228.3510 C   0  0  0  0  0  0  0  0  0  0  0  0
  141.0800   71.3220  228.2420 C   0  0  0  0  0  0  0  0  0  0  0  0
  140.9620   71.9260  226.9940 C   0  0  0  0  0  0  0  0  0  0  0  0
  140.4710   71.2540  225.9070 C   0  0  0  0  0  0  0  0  0  0  0  0
  140.3840   71.9020  224.7250 N   0  0  0  0  0  0  0  0  0  0  0  0
  139.5020   73.7910  223.1160 H   0  0  0  0  0  0  0  0  0  0  0  0
  140.4106   73.8304  220.4387 H   0  0  0  0  0  0  0  0  0  0  0  0
  138.6483   73.3467  220.3989 H   0  0  0  0  0  0  0  0  0  0  0  0
  139.5552   76.8078  218.7503 H   0  0  0  0  0  0  0  0  0  0  0  0
  139.0928   78.1041  219.8919 H   0  0  0  0  0  0  0  0  0  0  0  0
  141.5315   77.8569  218.4729 H   0  0  0  0  0  0  0  0  0  0  0  0
  141.1890   79.0173  219.7505 H   0  0  0  0  0  0  0  0  0  0  0  0
  142.4670   76.2439  219.9493 H   0  0  0  0  0  0  0  0  0  0  0  0
  142.9782   77.6752  220.7789 H   0  0  0  0  0  0  0  0  0  0  0  0
  141.4168   76.0464  222.2563 H   0  0  0  0  0  0  0  0  0  0  0  0
  142.8826   78.5506  222.2961 H   0  0  0  0  0  0  0  0  0  0  0  0
  142.6029   80.6153  223.5955 H   0  0  0  0  0  0  0  0  0  0  0  0
  140.3601   81.3256  224.4129 H   0  0  0  0  0  0  0  0  0  0  0  0
  138.6902   77.8009  222.5601 H   0  0  0  0  0  0  0  0  0  0  0  0
  139.1061   69.3719  222.8992 H   0  0  0  0  0  0  0  0  0  0  0  0
  139.2684   68.1957  225.0638 H   0  0  0  0  0  0  0  0  0  0  0  0
  139.8695   68.2605  227.3657 H   0  0  0  0  0  0  0  0  0  0  0  0
  140.7584   69.4971  229.3235 H   0  0  0  0  0  0  0  0  0  0  0  0
  141.4765   71.8723  229.1080 H   0  0  0  0  0  0  0  0  0  0  0  0
  141.2725   72.9748  226.8773 H   0  0  0  0  0  0  0  0  0  0  0  0
  1  2  2  0
  2  3  1  0
  3  4  1  0
  4  5  1  0
  5  6  2  0
  5  7  1  0
  7  8  1  0
  8  9  1  0
  9 10  1  0
 10 11  1  0
 11 12  1  0
 12 13  2  0
 13 14  1  0
 14 15  2  0
 15 16  1  0
 16 17  1  0
 16 18  2  0
  2 19  1  0
 19 20  2  0
 20 21  1  0
 21 22  2  0
 22 23  1  0
 23 24  2  0
 24 25  1  0
 25 26  2  0
 26 27  1  0
 27 28  2  0
 11  7  1  0
 18 12  1  0
 28 19  1  0
 27 22  1  0
  3 29  1  0
  4 30  1  0
  4 31  1  0
  8 32  1  0
  8 33  1  0
  9 34  1  0
  9 35  1  0
 10 36  1  0
 10 37  1  0
 11 38  1  1
 13 39  1  0
 14 40  1  0
 15 41  1  0
 18 42  1  0
 20 43  1  0
 21 44  1  0
 23 45  1  0
 24 46  1  0
 25 47  1  0
 26 48  1  0
M  END
>  <smiles>  (61) 
O=C(NCC(=O)N1CCCC1c1cccc(F)c1)c1ccc2ccccc2n1

>  <score_type>  (61) 
oracle

>  <origin>  (61) 
autodockgpu

>  <m_score__min__energy>  (61) 
-8.8699999999999992

>  <m_primary>  (61) 
energy

>  <rmsd>  (61) 
1.8136785582807236

>  <m_score__min__rmsd>  (61) 
1.8136785582807236

>  <meeko>  (61) 
{"free_energy": -8.3, "intermolecular_energy": -9.79, "internal_energy": -1.35, "cluster_size": 38, "cluster_id": 1, "rank_in_cluster": 36}

>  <energy>  (61) 
-8.81

>  <cluster_rmsd>  (61) 
1.28

>  <cluster>  (61) 
1

$$$$

     RDKit          3D

 48 51  0  0  0  0  0  0  0  0999 V2000
  141.2760   72.1450  221.6260 O   0  0  0  0  0  0  0  0  0  0  0  0
  140.4190   72.4040  222.5220 C   0  0  0  0  0  0  0  0  0  0  0  0
  139.6490   73.5850  222.3480 N   0  0  0  0  0  0  0  0  0  0  0  0
  139.8300   74.4410  221.2150 C   0  0  0  0  0  0  0  0  0  0  0  0
  139.4070   75.8260  221.4500 C   0  0  0  0  0  0  0  0  0  0  0  0
  138.3610   76.0300  222.1030 O   0  0  0  0  0  0  0  0  0  0  0  0
  140.1190   76.9520  220.9770 N   0  0  0  0  0  0  0  0  0  0  0  0
  139.6900   77.9090  219.9630 C   0  0  0  0  0  0  0  0  0  0  0  0
  140.8980   78.5910  219.4210 C   0  0  0  0  0  0  0  0  0  0  0  0
  142.0550   77.8350  220.0240 C   0  0  0  0  0  0  0  0  0  0  0  0
  141.4460   77.4400  221.3640 C   0  0  1  0  0  0  0  0  0  0  0  0
  141.3650   78.6190  222.2170 C   0  0  0  0  0  0  0  0  0  0  0  0
  142.5250   79.3590  222.4120 C   0  0  0  0  0  0  0  0  0  0  0  0
  142.5500   80.4990  223.1990 C   0  0  0  0  0  0  0  0  0  0  0  0
  141.4180   80.9610  223.8340 C   0  0  0  0  0  0  0  0  0  0  0  0
  140.2600   80.2390  223.6520 C   0  0  0  0  0  0  0  0  0  0  0  0
  139.1340   80.6660  224.2620 F   0  0  0  0  0  0  0  0  0  0  0  0
  140.2400   79.0870  222.8550 C   0  0  0  0  0  0  0  0  0  0  0  0
  140.2230   71.5410  223.6840 C   0  0  0  0  0  0  0  0  0  0  0  0
  139.5630   70.3440  223.4920 C   0  0  0  0  0  0  0  0  0  0  0  0
  139.3420   69.4860  224.5270 C   0  0  0  0  0  0  0  0  0  0  0  0
  139.8010   69.8530  225.7820 C   0  0  0  0  0  0  0  0  0  0  0  0
  139.5950   69.0160  226.8350 C   0  0  0  0  0  0  0  0  0  0  0  0
  140.0540   69.3810  228.0900 C   0  0  0  0  0  0  0  0  0  0  0  0
  140.7150   70.5760  228.2930 C   0  0  0  0  0  0  0  0  0  0  0  0
  140.9030   71.4010  227.1880 C   0  0  0  0  0  0  0  0  0  0  0  0
  140.4570   71.0540  225.9410 C   0  0  0  0  0  0  0  0  0  0  0  0
  140.6740   71.9020  224.9130 N   0  0  0  0  0  0  0  0  0  0  0  0
  138.9440   73.7940  223.0890 H   0  0  0  0  0  0  0  0  0  0  0  0
  140.8973   74.4441  220.9488 H   0  0  0  0  0  0  0  0  0  0  0  0
  139.1977   74.0439  220.4072 H   0  0  0  0  0  0  0  0  0  0  0  0
  139.1657   77.3817  219.1524 H   0  0  0  0  0  0  0  0  0  0  0  0
  139.0050   78.6473  220.4052 H   0  0  0  0  0  0  0  0  0  0  0  0
  140.9213   78.5281  218.3231 H   0  0  0  0  0  0  0  0  0  0  0  0
  140.9219   79.6626  219.6680 H   0  0  0  0  0  0  0  0  0  0  0  0
  142.3243   76.9541  219.4228 H   0  0  0  0  0  0  0  0  0  0  0  0
  142.9940   78.4039  220.0924 H   0  0  0  0  0  0  0  0  0  0  0  0
  142.0175   76.6913  221.9322 H   0  0  0  0  0  0  0  0  0  0  0  0
  143.4544   79.0286  221.9252 H   0  0  0  0  0  0  0  0  0  0  0  0
  143.4956   81.0479  223.3196 H   0  0  0  0  0  0  0  0  0  0  0  0
  141.4385   81.8663  224.4585 H   0  0  0  0  0  0  0  0  0  0  0  0
  139.2938   78.5389  222.7356 H   0  0  0  0  0  0  0  0  0  0  0  0
  139.2090   70.0780  222.4851 H   0  0  0  0  0  0  0  0  0  0  0  0
  138.8161   68.5325  224.3714 H   0  0  0  0  0  0  0  0  0  0  0  0
  139.0698   68.0602  226.6912 H   0  0  0  0  0  0  0  0  0  0  0  0
  139.8885   68.7051  228.9420 H   0  0  0  0  0  0  0  0  0  0  0  0
  141.0791   70.8650  229.2899 H   0  0  0  0  0  0  0  0  0  0  0  0
  141.4253   72.3600  227.3205 H   0  0  0  0  0  0  0  0  0  0  0  0
  1  2  2  0
  2  3  1  0
  3  4  1  0
  4  5  1  0
  5  6  2  0
  5  7  1  0
  7  8  1  0
  8  9  1  0
  9 10  1  0
 10 11  1  0
 11 12  1  0
 12 13  2  0
 13 14  1  0
 14 15  2  0
 15 16  1  0
 16 17  1  0
 16 18  2  0
  2 19  1  0
 19 20  2  0
 20 21  1  0
 21 22  2  0
 22 23  1  0
 23 24  2  0
 24 25  1  0
 25 26  2  0
 26 27  1  0
 27 28  2  0
 11  7  1  0
 18 12  1  0
 28 19  1  0
 27 22  1  0
  3 29  1  0
  4 30  1  0
  4 31  1  0
  8 32  1  0
  8 33  1  0
  9 34  1  0
  9 35  1  0
 10 36  1  0
 10 37  1  0
 11 38  1  1
 13 39  1  0
 14 40  1  0
 15 41  1  0
 18 42  1  0
 20 43  1  0
 21 44  1  0
 23 45  1  0
 24 46  1  0
 25 47  1  0
 26 48  1  0
M  END
>  <smiles>  (62) 
O=C(NCC(=O)N1CCCC1c1cccc(F)c1)c1ccc2ccccc2n1

>  <score_type>  (62) 
oracle

>  <origin>  (62) 
autodockgpu

>  <m_score__min__energy>  (62) 
-8.8699999999999992

>  <m_primary>  (62) 
energy

>  <rmsd>  (62) 
1.9965442572604877

>  <m_score__min__rmsd>  (62) 
1.9965442572604877

>  <meeko>  (62) 
{"free_energy": -8.8, "intermolecular_energy": -10.29, "internal_energy": -1.36, "cluster_size": 38, "cluster_id": 1, "rank_in_cluster": 12}

>  <energy>  (62) 
-8.8

>  <cluster_rmsd>  (62) 
1.28

>  <cluster>  (62) 
1

$$$$

     RDKit          3D

 48 51  0  0  0  0  0  0  0  0999 V2000
  137.4970   76.1030  222.3020 O   0  0  0  0  0  0  0  0  0  0  0  0
  138.7500   76.2670  222.3930 C   0  0  0  0  0  0  0  0  0  0  0  0
  139.5630   75.1190  222.1990 N   0  0  0  0  0  0  0  0  0  0  0  0
  138.9950   73.8360  221.9130 C   0  0  0  0  0  0  0  0  0  0  0  0
  139.8340   72.7120  222.3430 C   0  0  0  0  0  0  0  0  0  0  0  0
  141.0750   72.8580  222.3460 O   0  0  0  0  0  0  0  0  0  0  0  0
  139.3160   71.4630  222.7580 N   0  0  0  0  0  0  0  0  0  0  0  0
  139.4930   70.1710  222.1060 C   0  0  0  0  0  0  0  0  0  0  0  0
  138.4010   69.2640  222.5570 C   0  0  0  0  0  0  0  0  0  0  0  0
  137.4720   70.1590  223.3380 C   0  0  0  0  0  0  0  0  0  0  0  0
  138.4790   71.1460  223.9190 C   0  0  1  0  0  0  0  0  0  0  0  0
  139.2380   70.4870  224.9740 C   0  0  0  0  0  0  0  0  0  0  0  0
  140.3690   71.1330  225.4580 C   0  0  0  0  0  0  0  0  0  0  0  0
  141.1540   70.5930  226.4650 C   0  0  0  0  0  0  0  0  0  0  0  0
  140.8510   69.3790  227.0410 C   0  0  0  0  0  0  0  0  0  0  0  0
  139.7330   68.7260  226.5720 C   0  0  0  0  0  0  0  0  0  0  0  0
  139.4110   67.5330  227.1170 F   0  0  0  0  0  0  0  0  0  0  0  0
  138.9430   69.2750  225.5550 C   0  0  0  0  0  0  0  0  0  0  0  0
  139.3440   77.5690  222.6850 C   0  0  0  0  0  0  0  0  0  0  0  0
  138.4900   78.6300  222.9140 C   0  0  0  0  0  0  0  0  0  0  0  0
  138.9690   79.8750  223.1910 C   0  0  0  0  0  0  0  0  0  0  0  0
  140.3430   80.0450  223.2380 C   0  0  0  0  0  0  0  0  0  0  0  0
  140.8510   81.2770  223.5130 C   0  0  0  0  0  0  0  0  0  0  0  0
  142.2240   81.4490  223.5600 C   0  0  0  0  0  0  0  0  0  0  0  0
  143.0880   80.3960  223.3340 C   0  0  0  0  0  0  0  0  0  0  0  0
  142.5250   79.1540  223.0550 C   0  0  0  0  0  0  0  0  0  0  0  0
  141.1700   78.9670  223.0050 C   0  0  0  0  0  0  0  0  0  0  0  0
  140.6910   77.7340  222.7300 N   0  0  0  0  0  0  0  0  0  0  0  0
  140.5940   75.2600  222.2750 H   0  0  0  0  0  0  0  0  0  0  0  0
  138.0254   73.7627  222.4274 H   0  0  0  0  0  0  0  0  0  0  0  0
  138.8958   73.7641  220.8198 H   0  0  0  0  0  0  0  0  0  0  0  0
  139.4451   70.2960  221.0142 H   0  0  0  0  0  0  0  0  0  0  0  0
  140.4720   69.7449  222.3704 H   0  0  0  0  0  0  0  0  0  0  0  0
  137.8815   68.8207  221.6947 H   0  0  0  0  0  0  0  0  0  0  0  0
  138.7754   68.4212  223.1567 H   0  0  0  0  0  0  0  0  0  0  0  0
  136.7416   70.6585  222.6845 H   0  0  0  0  0  0  0  0  0  0  0  0
  136.8485   69.6420  224.0823 H   0  0  0  0  0  0  0  0  0  0  0  0
  138.0398   72.0450  224.3760 H   0  0  0  0  0  0  0  0  0  0  0  0
  140.6509   72.1053  225.0278 H   0  0  0  0  0  0  0  0  0  0  0  0
  142.0390   71.1466  226.8119 H   0  0  0  0  0  0  0  0  0  0  0  0
  141.4741   68.9504  227.8398 H   0  0  0  0  0  0  0  0  0  0  0  0
  138.0584   68.7200  225.2094 H   0  0  0  0  0  0  0  0  0  0  0  0
  137.4030   78.4668  222.8720 H   0  0  0  0  0  0  0  0  0  0  0  0
  138.2863   80.7184  223.3716 H   0  0  0  0  0  0  0  0  0  0  0  0
  140.1778   82.1275  223.6961 H   0  0  0  0  0  0  0  0  0  0  0  0
  142.6349   82.4449  223.7819 H   0  0  0  0  0  0  0  0  0  0  0  0
  144.1787   80.5333  223.3729 H   0  0  0  0  0  0  0  0  0  0  0  0
  143.1890   78.2969  222.8691 H   0  0  0  0  0  0  0  0  0  0  0  0
  1  2  2  0
  2  3  1  0
  3  4  1  0
  4  5  1  0
  5  6  2  0
  5  7  1  0
  7  8  1  0
  8  9  1  0
  9 10  1  0
 10 11  1  0
 11 12  1  0
 12 13  2  0
 13 14  1  0
 14 15  2  0
 15 16  1  0
 16 17  1  0
 16 18  2  0
  2 19  1  0
 19 20  2  0
 20 21  1  0
 21 22  2  0
 22 23  1  0
 23 24  2  0
 24 25  1  0
 25 26  2  0
 26 27  1  0
 27 28  2  0
 11  7  1  0
 18 12  1  0
 28 19  1  0
 27 22  1  0
  3 29  1  0
  4 30  1  0
  4 31  1  0
  8 32  1  0
  8 33  1  0
  9 34  1  0
  9 35  1  0
 10 36  1  0
 10 37  1  0
 11 38  1  1
 13 39  1  0
 14 40  1  0
 15 41  1  0
 18 42  1  0
 20 43  1  0
 21 44  1  0
 23 45  1  0
 24 46  1  0
 25 47  1  0
 26 48  1  0
M  END
>  <smiles>  (63) 
O=C(NCC(=O)N1CCCC1c1cccc(F)c1)c1ccc2ccccc2n1

>  <score_type>  (63) 
oracle

>  <origin>  (63) 
autodockgpu

>  <m_score__min__energy>  (63) 
-8.8699999999999992

>  <m_primary>  (63) 
energy

>  <rmsd>  (63) 
8.444366915359922

>  <m_score__min__rmsd>  (63) 
8.444366915359922

>  <meeko>  (63) 
{"free_energy": -8.11, "intermolecular_energy": -9.6, "internal_energy": -1.65, "cluster_size": 7, "cluster_id": 2, "rank_in_cluster": 3}

>  <energy>  (63) 
-8.8

>  <cluster_rmsd>  (63) 
1.25

>  <cluster>  (63) 
1

$$$$

     RDKit          3D

 48 51  0  0  0  0  0  0  0  0999 V2000
  141.3420   72.0160  221.6130 O   0  0  0  0  0  0  0  0  0  0  0  0
  140.5080   72.3440  222.5080 C   0  0  0  0  0  0  0  0  0  0  0  0
  139.8060   73.5630  222.3150 N   0  0  0  0  0  0  0  0  0  0  0  0
  140.0280   74.3840  221.1630 C   0  0  0  0  0  0  0  0  0  0  0  0
  139.4730   75.7360  221.2880 C   0  0  0  0  0  0  0  0  0  0  0  0
  138.3440   75.8750  221.8060 O   0  0  0  0  0  0  0  0  0  0  0  0
  140.1460   76.9010  220.8520 N   0  0  0  0  0  0  0  0  0  0  0  0
  139.6910   77.8670  219.8590 C   0  0  0  0  0  0  0  0  0  0  0  0
  140.8780   78.6090  219.3490 C   0  0  0  0  0  0  0  0  0  0  0  0
  142.0570   77.8830  219.9450 C   0  0  0  0  0  0  0  0  0  0  0  0
  141.4490   77.4290  221.2670 C   0  0  1  0  0  0  0  0  0  0  0  0
  141.3130   78.5820  222.1500 C   0  0  0  0  0  0  0  0  0  0  0  0
  142.4290   79.3880  222.3380 C   0  0  0  0  0  0  0  0  0  0  0  0
  142.4000   80.5100  223.1520 C   0  0  0  0  0  0  0  0  0  0  0  0
  141.2550   80.8860  223.8210 C   0  0  0  0  0  0  0  0  0  0  0  0
  140.1410   80.0960  223.6450 C   0  0  0  0  0  0  0  0  0  0  0  0
  139.0040   80.4380  224.2870 F   0  0  0  0  0  0  0  0  0  0  0  0
  140.1750   78.9640  222.8210 C   0  0  0  0  0  0  0  0  0  0  0  0
  140.2700   71.5170  223.6890 C   0  0  0  0  0  0  0  0  0  0  0  0
  139.5490   70.3510  223.5240 C   0  0  0  0  0  0  0  0  0  0  0  0
  139.2870   69.5290  224.5780 C   0  0  0  0  0  0  0  0  0  0  0  0
  139.7670   69.8990  225.8230 C   0  0  0  0  0  0  0  0  0  0  0  0
  139.5200   69.0960  226.8950 C   0  0  0  0  0  0  0  0  0  0  0  0
  139.9990   69.4650  228.1410 C   0  0  0  0  0  0  0  0  0  0  0  0
  140.7220   70.6280  228.3180 C   0  0  0  0  0  0  0  0  0  0  0  0
  140.9500   71.4180  227.1950 C   0  0  0  0  0  0  0  0  0  0  0  0
  140.4830   71.0680  225.9560 C   0  0  0  0  0  0  0  0  0  0  0  0
  140.7410   71.8810  224.9090 N   0  0  0  0  0  0  0  0  0  0  0  0
  139.1200   73.8280  223.0550 H   0  0  0  0  0  0  0  0  0  0  0  0
  141.1126   74.4673  220.9995 H   0  0  0  0  0  0  0  0  0  0  0  0
  139.5128   73.9012  220.3195 H   0  0  0  0  0  0  0  0  0  0  0  0
  139.1960   77.3418  219.0289 H   0  0  0  0  0  0  0  0  0  0  0  0
  138.9732   78.5665  220.3123 H   0  0  0  0  0  0  0  0  0  0  0  0
  140.9153   78.5760  218.2501 H   0  0  0  0  0  0  0  0  0  0  0  0
  140.8577   79.6737  219.6245 H   0  0  0  0  0  0  0  0  0  0  0  0
  142.3671   77.0296  219.3241 H   0  0  0  0  0  0  0  0  0  0  0  0
  142.9723   78.4857  220.0393 H   0  0  0  0  0  0  0  0  0  0  0  0
  142.0428   76.6877  221.8219 H   0  0  0  0  0  0  0  0  0  0  0  0
  143.3661   79.1274  221.8243 H   0  0  0  0  0  0  0  0  0  0  0  0
  143.3120   81.1142  223.2666 H   0  0  0  0  0  0  0  0  0  0  0  0
  141.2322   81.7767  224.4661 H   0  0  0  0  0  0  0  0  0  0  0  0
  139.2621   78.3611  222.7069 H   0  0  0  0  0  0  0  0  0  0  0  0
  139.1796   70.0812  222.5236 H   0  0  0  0  0  0  0  0  0  0  0  0
  138.7123   68.6006  224.4444 H   0  0  0  0  0  0  0  0  0  0  0  0
  138.9467   68.1652  226.7726 H   0  0  0  0  0  0  0  0  0  0  0  0
  139.7993   68.8180  229.0079 H   0  0  0  0  0  0  0  0  0  0  0  0
  141.1030   70.9188  229.3081 H   0  0  0  0  0  0  0  0  0  0  0  0
  141.5221   72.3509  227.3059 H   0  0  0  0  0  0  0  0  0  0  0  0
  1  2  2  0
  2  3  1  0
  3  4  1  0
  4  5  1  0
  5  6  2  0
  5  7  1  0
  7  8  1  0
  8  9  1  0
  9 10  1  0
 10 11  1  0
 11 12  1  0
 12 13  2  0
 13 14  1  0
 14 15  2  0
 15 16  1  0
 16 17  1  0
 16 18  2  0
  2 19  1  0
 19 20  2  0
 20 21  1  0
 21 22  2  0
 22 23  1  0
 23 24  2  0
 24 25  1  0
 25 26  2  0
 26 27  1  0
 27 28  2  0
 11  7  1  0
 18 12  1  0
 28 19  1  0
 27 22  1  0
  3 29  1  0
  4 30  1  0
  4 31  1  0
  8 32  1  0
  8 33  1  0
  9 34  1  0
  9 35  1  0
 10 36  1  0
 10 37  1  0
 11 38  1  1
 13 39  1  0
 14 40  1  0
 15 41  1  0
 18 42  1  0
 20 43  1  0
 21 44  1  0
 23 45  1  0
 24 46  1  0
 25 47  1  0
 26 48  1  0
M  END
>  <smiles>  (64) 
O=C(NCC(=O)N1CCCC1c1cccc(F)c1)c1ccc2ccccc2n1

>  <score_type>  (64) 
oracle

>  <origin>  (64) 
autodockgpu

>  <m_score__min__energy>  (64) 
-8.8699999999999992

>  <m_primary>  (64) 
energy

>  <rmsd>  (64) 
2.0011711497752165

>  <m_score__min__rmsd>  (64) 
2.0011711497752165

>  <meeko>  (64) 
{"free_energy": -8.68, "intermolecular_energy": -10.17, "internal_energy": -1.36, "cluster_size": 38, "cluster_id": 1, "rank_in_cluster": 20}

>  <energy>  (64) 
-8.78

>  <cluster_rmsd>  (64) 
1.31

>  <cluster>  (64) 
1

$$$$

     RDKit          3D

 48 51  0  0  0  0  0  0  0  0999 V2000
  141.2960   71.8490  221.6480 O   0  0  0  0  0  0  0  0  0  0  0  0
  140.5120   72.0980  222.6110 C   0  0  0  0  0  0  0  0  0  0  0  0
  139.8670   73.3630  222.6030 N   0  0  0  0  0  0  0  0  0  0  0  0
  140.0910   74.3130  221.5560 C   0  0  0  0  0  0  0  0  0  0  0  0
  139.6390   75.6700  221.8850 C   0  0  0  0  0  0  0  0  0  0  0  0
  138.7590   75.8110  222.7610 O   0  0  0  0  0  0  0  0  0  0  0  0
  140.1450   76.8350  221.2640 N   0  0  0  0  0  0  0  0  0  0  0  0
  139.4670   77.6870  220.2940 C   0  0  0  0  0  0  0  0  0  0  0  0
  140.4980   78.4570  219.5450 C   0  0  0  0  0  0  0  0  0  0  0  0
  141.8070   77.8570  219.9890 C   0  0  0  0  0  0  0  0  0  0  0  0
  141.4540   77.4760  221.4220 C   0  0  1  0  0  0  0  0  0  0  0  0
  141.3740   78.6850  222.2310 C   0  0  0  0  0  0  0  0  0  0  0  0
  142.5320   79.4380  222.3870 C   0  0  0  0  0  0  0  0  0  0  0  0
  142.5580   80.6070  223.1310 C   0  0  0  0  0  0  0  0  0  0  0  0
  141.4290   81.0860  223.7600 C   0  0  0  0  0  0  0  0  0  0  0  0
  140.2740   80.3510  223.6150 C   0  0  0  0  0  0  0  0  0  0  0  0
  139.1510   80.7950  224.2200 F   0  0  0  0  0  0  0  0  0  0  0  0
  140.2520   79.1710  222.8620 C   0  0  0  0  0  0  0  0  0  0  0  0
  140.2750   71.1390  223.6870 C   0  0  0  0  0  0  0  0  0  0  0  0
  139.5660   69.9930  223.3840 C   0  0  0  0  0  0  0  0  0  0  0  0
  139.3040   69.0530  224.3330 C   0  0  0  0  0  0  0  0  0  0  0  0
  139.7720   69.2810  225.6170 C   0  0  0  0  0  0  0  0  0  0  0  0
  139.5260   68.3580  226.5870 C   0  0  0  0  0  0  0  0  0  0  0  0
  139.9940   68.5850  227.8710 C   0  0  0  0  0  0  0  0  0  0  0  0
  140.7040   69.7260  228.1860 C   0  0  0  0  0  0  0  0  0  0  0  0
  140.9320   70.6420  227.1630 C   0  0  0  0  0  0  0  0  0  0  0  0
  140.4770   70.4330  225.8890 C   0  0  0  0  0  0  0  0  0  0  0  0
  140.7340   71.3640  224.9450 N   0  0  0  0  0  0  0  0  0  0  0  0
  139.2230   73.5630  223.3990 H   0  0  0  0  0  0  0  0  0  0  0  0
  141.1697   74.3481  221.3436 H   0  0  0  0  0  0  0  0  0  0  0  0
  139.5034   73.9797  220.6879 H   0  0  0  0  0  0  0  0  0  0  0  0
  138.8865   77.0662  219.5957 H   0  0  0  0  0  0  0  0  0  0  0  0
  138.7807   78.3752  220.8092 H   0  0  0  0  0  0  0  0  0  0  0  0
  140.3623   78.3366  218.4601 H   0  0  0  0  0  0  0  0  0  0  0  0
  140.4422   79.5374  219.7438 H   0  0  0  0  0  0  0  0  0  0  0  0
  142.0768   76.9764  219.3876 H   0  0  0  0  0  0  0  0  0  0  0  0
  142.6779   78.5214  219.8884 H   0  0  0  0  0  0  0  0  0  0  0  0
  142.1828   76.8221  221.9233 H   0  0  0  0  0  0  0  0  0  0  0  0
  143.4586   79.0946  221.9038 H   0  0  0  0  0  0  0  0  0  0  0  0
  143.5014   81.1654  223.2216 H   0  0  0  0  0  0  0  0  0  0  0  0
  141.4499   82.0135  224.3510 H   0  0  0  0  0  0  0  0  0  0  0  0
  139.3074   78.6145  222.7719 H   0  0  0  0  0  0  0  0  0  0  0  0
  139.2062   69.8370  222.3563 H   0  0  0  0  0  0  0  0  0  0  0  0
  138.7388   68.1416  224.0883 H   0  0  0  0  0  0  0  0  0  0  0  0
  138.9622   67.4427  226.3540 H   0  0  0  0  0  0  0  0  0  0  0  0
  139.7956   67.8403  228.6559 H   0  0  0  0  0  0  0  0  0  0  0  0
  141.0752   69.9045  229.2060 H   0  0  0  0  0  0  0  0  0  0  0  0
  141.4944   71.5609  227.3849 H   0  0  0  0  0  0  0  0  0  0  0  0
  1  2  2  0
  2  3  1  0
  3  4  1  0
  4  5  1  0
  5  6  2  0
  5  7  1  0
  7  8  1  0
  8  9  1  0
  9 10  1  0
 10 11  1  0
 11 12  1  0
 12 13  2  0
 13 14  1  0
 14 15  2  0
 15 16  1  0
 16 17  1  0
 16 18  2  0
  2 19  1  0
 19 20  2  0
 20 21  1  0
 21 22  2  0
 22 23  1  0
 23 24  2  0
 24 25  1  0
 25 26  2  0
 26 27  1  0
 27 28  2  0
 11  7  1  0
 18 12  1  0
 28 19  1  0
 27 22  1  0
  3 29  1  0
  4 30  1  0
  4 31  1  0
  8 32  1  0
  8 33  1  0
  9 34  1  0
  9 35  1  0
 10 36  1  0
 10 37  1  0
 11 38  1  1
 13 39  1  0
 14 40  1  0
 15 41  1  0
 18 42  1  0
 20 43  1  0
 21 44  1  0
 23 45  1  0
 24 46  1  0
 25 47  1  0
 26 48  1  0
M  END
>  <smiles>  (65) 
O=C(NCC(=O)N1CCCC1c1cccc(F)c1)c1ccc2ccccc2n1

>  <score_type>  (65) 
oracle

>  <origin>  (65) 
autodockgpu

>  <m_score__min__energy>  (65) 
-8.8699999999999992

>  <m_primary>  (65) 
energy

>  <rmsd>  (65) 
1.9607294560502746

>  <m_score__min__rmsd>  (65) 
1.9607294560502746

>  <meeko>  (65) 
{"free_energy": -8.6, "intermolecular_energy": -10.09, "internal_energy": -1.44, "cluster_size": 38, "cluster_id": 1, "rank_in_cluster": 22}

>  <energy>  (65) 
-8.76

>  <cluster_rmsd>  (65) 
1.27

>  <cluster>  (65) 
1

$$$$

     RDKit          3D

 48 51  0  0  0  0  0  0  0  0999 V2000
  141.3950   72.5870  221.8850 O   0  0  0  0  0  0  0  0  0  0  0  0
  140.3620   72.5430  222.6160 C   0  0  0  0  0  0  0  0  0  0  0  0
  139.3480   73.5020  222.3510 N   0  0  0  0  0  0  0  0  0  0  0  0
  139.4860   74.4720  221.3060 C   0  0  0  0  0  0  0  0  0  0  0  0
  139.3570   75.8580  221.7690 C   0  0  0  0  0  0  0  0  0  0  0  0
  138.5770   76.1030  222.7140 O   0  0  0  0  0  0  0  0  0  0  0  0
  140.0690   76.9400  221.2030 N   0  0  0  0  0  0  0  0  0  0  0  0
  139.6230   77.8350  220.1410 C   0  0  0  0  0  0  0  0  0  0  0  0
  140.8230   78.4630  219.5220 C   0  0  0  0  0  0  0  0  0  0  0  0
  141.9880   77.7320  220.1410 C   0  0  0  0  0  0  0  0  0  0  0  0
  141.4120   77.4340  221.5210 C   0  0  1  0  0  0  0  0  0  0  0  0
  141.3700   78.6680  222.2960 C   0  0  0  0  0  0  0  0  0  0  0  0
  142.5520   79.3820  222.4420 C   0  0  0  0  0  0  0  0  0  0  0  0
  142.6150   80.5700  223.1550 C   0  0  0  0  0  0  0  0  0  0  0  0
  141.4990   81.1060  223.7590 C   0  0  0  0  0  0  0  0  0  0  0  0
  140.3190   80.4100  223.6240 C   0  0  0  0  0  0  0  0  0  0  0  0
  139.2080   80.9100  224.2060 F   0  0  0  0  0  0  0  0  0  0  0  0
  140.2610   79.2110  222.9030 C   0  0  0  0  0  0  0  0  0  0  0  0
  140.2070   71.5610  223.6860 C   0  0  0  0  0  0  0  0  0  0  0  0
  139.5530   70.3820  223.3880 C   0  0  0  0  0  0  0  0  0  0  0  0
  139.3700   69.4180  224.3330 C   0  0  0  0  0  0  0  0  0  0  0  0
  139.8610   69.6570  225.6060 C   0  0  0  0  0  0  0  0  0  0  0  0
  139.6940   68.7110  226.5700 C   0  0  0  0  0  0  0  0  0  0  0  0
  140.1840   68.9490  227.8430 C   0  0  0  0  0  0  0  0  0  0  0  0
  140.8400   70.1230  228.1530 C   0  0  0  0  0  0  0  0  0  0  0  0
  140.9890   71.0620  227.1360 C   0  0  0  0  0  0  0  0  0  0  0  0
  140.5100   70.8430  225.8730 C   0  0  0  0  0  0  0  0  0  0  0  0
  140.6890   71.7970  224.9330 N   0  0  0  0  0  0  0  0  0  0  0  0
  138.4990   73.4620  222.9560 H   0  0  0  0  0  0  0  0  0  0  0  0
  140.4782   74.3498  220.8472 H   0  0  0  0  0  0  0  0  0  0  0  0
  138.6691   74.2938  220.5912 H   0  0  0  0  0  0  0  0  0  0  0  0
  139.0691   77.2636  219.3816 H   0  0  0  0  0  0  0  0  0  0  0  0
  138.9603   78.6103  220.5530 H   0  0  0  0  0  0  0  0  0  0  0  0
  140.8140   78.3280  218.4304 H   0  0  0  0  0  0  0  0  0  0  0  0
  140.8669   79.5480  219.6974 H   0  0  0  0  0  0  0  0  0  0  0  0
  142.2295   76.8100  219.5919 H   0  0  0  0  0  0  0  0  0  0  0  0
  142.9354   78.2909  220.1457 H   0  0  0  0  0  0  0  0  0  0  0  0
  141.9895   76.7163  222.1221 H   0  0  0  0  0  0  0  0  0  0  0  0
  143.4693   78.9923  221.9765 H   0  0  0  0  0  0  0  0  0  0  0  0
  143.5774   81.0958  223.2400 H   0  0  0  0  0  0  0  0  0  0  0  0
  141.5485   82.0484  224.3242 H   0  0  0  0  0  0  0  0  0  0  0  0
  139.2978   78.6863  222.8192 H   0  0  0  0  0  0  0  0  0  0  0  0
  139.1728   70.2182  222.3689 H   0  0  0  0  0  0  0  0  0  0  0  0
  138.8488   68.4796  224.0927 H   0  0  0  0  0  0  0  0  0  0  0  0
  139.1758   67.7682  226.3406 H   0  0  0  0  0  0  0  0  0  0  0  0
  140.0475   68.1862  228.6237 H   0  0  0  0  0  0  0  0  0  0  0  0
  141.2300   70.3096  229.1645 H   0  0  0  0  0  0  0  0  0  0  0  0
  141.5069   72.0076  227.3541 H   0  0  0  0  0  0  0  0  0  0  0  0
  1  2  2  0
  2  3  1  0
  3  4  1  0
  4  5  1  0
  5  6  2  0
  5  7  1  0
  7  8  1  0
  8  9  1  0
  9 10  1  0
 10 11  1  0
 11 12  1  0
 12 13  2  0
 13 14  1  0
 14 15  2  0
 15 16  1  0
 16 17  1  0
 16 18  2  0
  2 19  1  0
 19 20  2  0
 20 21  1  0
 21 22  2  0
 22 23  1  0
 23 24  2  0
 24 25  1  0
 25 26  2  0
 26 27  1  0
 27 28  2  0
 11  7  1  0
 18 12  1  0
 28 19  1  0
 27 22  1  0
  3 29  1  0
  4 30  1  0
  4 31  1  0
  8 32  1  0
  8 33  1  0
  9 34  1  0
  9 35  1  0
 10 36  1  0
 10 37  1  0
 11 38  1  1
 13 39  1  0
 14 40  1  0
 15 41  1  0
 18 42  1  0
 20 43  1  0
 21 44  1  0
 23 45  1  0
 24 46  1  0
 25 47  1  0
 26 48  1  0
M  END
>  <smiles>  (66) 
O=C(NCC(=O)N1CCCC1c1cccc(F)c1)c1ccc2ccccc2n1

>  <score_type>  (66) 
oracle

>  <origin>  (66) 
autodockgpu

>  <m_score__min__energy>  (66) 
-8.8699999999999992

>  <m_primary>  (66) 
energy

>  <rmsd>  (66) 
1.9753623126022308

>  <m_score__min__rmsd>  (66) 
1.9753623126022308

>  <meeko>  (66) 
{"free_energy": -8.86, "intermolecular_energy": -10.35, "internal_energy": -1.27, "cluster_size": 38, "cluster_id": 1, "rank_in_cluster": 3}

>  <energy>  (66) 
-8.75

>  <cluster_rmsd>  (66) 
1.33

>  <cluster>  (66) 
1

$$$$

     RDKit          3D

 48 51  0  0  0  0  0  0  0  0999 V2000
  141.2690   72.1600  221.6880 O   0  0  0  0  0  0  0  0  0  0  0  0
  140.3710   72.3410  222.5630 C   0  0  0  0  0  0  0  0  0  0  0  0
  139.4830   73.4300  222.3540 N   0  0  0  0  0  0  0  0  0  0  0  0
  139.5970   74.2820  221.2100 C   0  0  0  0  0  0  0  0  0  0  0  0
  139.3600   75.7000  221.5060 C   0  0  0  0  0  0  0  0  0  0  0  0
  138.5070   75.9960  222.3700 O   0  0  0  0  0  0  0  0  0  0  0  0
  140.0470   76.7570  220.8670 N   0  0  0  0  0  0  0  0  0  0  0  0
  139.5170   77.6840  219.8730 C   0  0  0  0  0  0  0  0  0  0  0  0
  140.6600   78.2670  219.1180 C   0  0  0  0  0  0  0  0  0  0  0  0
  141.8570   77.4780  219.5860 C   0  0  0  0  0  0  0  0  0  0  0  0
  141.4400   77.1880  221.0230 C   0  0  1  0  0  0  0  0  0  0  0  0
  141.5470   78.4120  221.8070 C   0  0  0  0  0  0  0  0  0  0  0  0
  141.3530   78.3200  223.1800 C   0  0  0  0  0  0  0  0  0  0  0  0
  141.4400   79.4250  224.0130 C   0  0  0  0  0  0  0  0  0  0  0  0
  141.7250   80.6790  223.5190 C   0  0  0  0  0  0  0  0  0  0  0  0
  141.9200   80.7860  222.1610 C   0  0  0  0  0  0  0  0  0  0  0  0
  142.2010   82.0020  221.6470 F   0  0  0  0  0  0  0  0  0  0  0  0
  141.8310   79.6680  221.3230 C   0  0  0  0  0  0  0  0  0  0  0  0
  140.2440   71.4790  223.7350 C   0  0  0  0  0  0  0  0  0  0  0  0
  139.6410   70.2480  223.5680 C   0  0  0  0  0  0  0  0  0  0  0  0
  139.4850   69.3900  224.6140 C   0  0  0  0  0  0  0  0  0  0  0  0
  139.9520   69.7920  225.8560 C   0  0  0  0  0  0  0  0  0  0  0  0
  139.8110   68.9550  226.9200 C   0  0  0  0  0  0  0  0  0  0  0  0
  140.2760   69.3540  228.1610 C   0  0  0  0  0  0  0  0  0  0  0  0
  140.8810   70.5820  228.3410 C   0  0  0  0  0  0  0  0  0  0  0  0
  141.0040   71.4050  227.2250 C   0  0  0  0  0  0  0  0  0  0  0  0
  140.5490   71.0260  225.9910 C   0  0  0  0  0  0  0  0  0  0  0  0
  140.7010   71.8740  224.9510 N   0  0  0  0  0  0  0  0  0  0  0  0
  138.7460   73.5740  223.0780 H   0  0  0  0  0  0  0  0  0  0  0  0
  140.6119   74.1777  220.7988 H   0  0  0  0  0  0  0  0  0  0  0  0
  138.8213   73.9680  220.4960 H   0  0  0  0  0  0  0  0  0  0  0  0
  138.8506   77.1468  219.1820 H   0  0  0  0  0  0  0  0  0  0  0  0
  138.9443   78.4822  220.3679 H   0  0  0  0  0  0  0  0  0  0  0  0
  140.5133   78.1465  218.0345 H   0  0  0  0  0  0  0  0  0  0  0  0
  140.7733   79.3468  219.2946 H   0  0  0  0  0  0  0  0  0  0  0  0
  141.9886   76.5533  219.0049 H   0  0  0  0  0  0  0  0  0  0  0  0
  142.8221   77.9950  219.4798 H   0  0  0  0  0  0  0  0  0  0  0  0
  142.0539   76.4383  221.5437 H   0  0  0  0  0  0  0  0  0  0  0  0
  141.1229   77.3386  223.6203 H   0  0  0  0  0  0  0  0  0  0  0  0
  141.2777   79.2974  225.0934 H   0  0  0  0  0  0  0  0  0  0  0  0
  141.7936   81.5553  224.1803 H   0  0  0  0  0  0  0  0  0  0  0  0
  141.9934   79.7981  220.2429 H   0  0  0  0  0  0  0  0  0  0  0  0
  139.2798   69.9549  222.5712 H   0  0  0  0  0  0  0  0  0  0  0  0
  139.0042   68.4100  224.4779 H   0  0  0  0  0  0  0  0  0  0  0  0
  139.3328   67.9723  226.7950 H   0  0  0  0  0  0  0  0  0  0  0  0
  140.1612   68.6788  229.0218 H   0  0  0  0  0  0  0  0  0  0  0  0
  141.2513   70.8976  229.3276 H   0  0  0  0  0  0  0  0  0  0  0  0
  141.4812   72.3896  227.3383 H   0  0  0  0  0  0  0  0  0  0  0  0
  1  2  2  0
  2  3  1  0
  3  4  1  0
  4  5  1  0
  5  6  2  0
  5  7  1  0
  7  8  1  0
  8  9  1  0
  9 10  1  0
 10 11  1  0
 11 12  1  0
 12 13  2  0
 13 14  1  0
 14 15  2  0
 15 16  1  0
 16 17  1  0
 16 18  2  0
  2 19  1  0
 19 20  2  0
 20 21  1  0
 21 22  2  0
 22 23  1  0
 23 24  2  0
 24 25  1  0
 25 26  2  0
 26 27  1  0
 27 28  2  0
 11  7  1  0
 18 12  1  0
 28 19  1  0
 27 22  1  0
  3 29  1  0
  4 30  1  0
  4 31  1  0
  8 32  1  0
  8 33  1  0
  9 34  1  0
  9 35  1  0
 10 36  1  0
 10 37  1  0
 11 38  1  1
 13 39  1  0
 14 40  1  0
 15 41  1  0
 18 42  1  0
 20 43  1  0
 21 44  1  0
 23 45  1  0
 24 46  1  0
 25 47  1  0
 26 48  1  0
M  END
>  <smiles>  (67) 
O=C(NCC(=O)N1CCCC1c1cccc(F)c1)c1ccc2ccccc2n1

>  <score_type>  (67) 
oracle

>  <origin>  (67) 
autodockgpu

>  <m_score__min__energy>  (67) 
-8.8699999999999992

>  <m_primary>  (67) 
energy

>  <rmsd>  (67) 
1.7883423646117669

>  <m_score__min__rmsd>  (67) 
1.7883423646117669

>  <meeko>  (67) 
{"free_energy": -8.75, "intermolecular_energy": -10.24, "internal_energy": -1.13, "cluster_size": 38, "cluster_id": 1, "rank_in_cluster": 17}

>  <energy>  (67) 
-8.75

>  <cluster_rmsd>  (67) 
0.98

>  <cluster>  (67) 
1

$$$$

     RDKit          3D

 48 51  0  0  0  0  0  0  0  0999 V2000
  141.3360   72.1960  221.6860 O   0  0  0  0  0  0  0  0  0  0  0  0
  140.4240   72.3880  222.5440 C   0  0  0  0  0  0  0  0  0  0  0  0
  139.5730   73.5050  222.3350 N   0  0  0  0  0  0  0  0  0  0  0  0
  139.7360   74.3740  221.2090 C   0  0  0  0  0  0  0  0  0  0  0  0
  140.9430   75.2050  221.2770 C   0  0  0  0  0  0  0  0  0  0  0  0
  141.1350   75.9000  222.2970 O   0  0  0  0  0  0  0  0  0  0  0  0
  141.9110   75.2640  220.2470 N   0  0  0  0  0  0  0  0  0  0  0  0
  142.6960   76.4220  219.8350 C   0  0  0  0  0  0  0  0  0  0  0  0
  143.1790   76.1910  218.4460 C   0  0  0  0  0  0  0  0  0  0  0  0
  142.4640   74.9390  218.0050 C   0  0  0  0  0  0  0  0  0  0  0  0
  142.3650   74.2070  219.3380 C   0  0  1  0  0  0  0  0  0  0  0  0
  143.6820   73.7020  219.7050 C   0  0  0  0  0  0  0  0  0  0  0  0
  144.3000   72.8130  218.8350 C   0  0  0  0  0  0  0  0  0  0  0  0
  145.5550   72.2820  219.0900 C   0  0  0  0  0  0  0  0  0  0  0  0
  146.2590   72.6110  220.2280 C   0  0  0  0  0  0  0  0  0  0  0  0
  145.6590   73.4910  221.1010 C   0  0  0  0  0  0  0  0  0  0  0  0
  146.3240   73.8330  222.2250 F   0  0  0  0  0  0  0  0  0  0  0  0
  144.3910   74.0250  220.8390 C   0  0  0  0  0  0  0  0  0  0  0  0
  140.2450   71.5110  223.6980 C   0  0  0  0  0  0  0  0  0  0  0  0
  139.5770   70.3180  223.5040 C   0  0  0  0  0  0  0  0  0  0  0  0
  139.3710   69.4480  224.5320 C   0  0  0  0  0  0  0  0  0  0  0  0
  139.8540   69.7980  225.7820 C   0  0  0  0  0  0  0  0  0  0  0  0
  139.6630   68.9480  226.8290 C   0  0  0  0  0  0  0  0  0  0  0  0
  140.1450   69.2960  228.0790 C   0  0  0  0  0  0  0  0  0  0  0  0
  140.8150   70.4850  228.2860 C   0  0  0  0  0  0  0  0  0  0  0  0
  140.9870   71.3230  227.1880 C   0  0  0  0  0  0  0  0  0  0  0  0
  140.5170   70.9940  225.9450 C   0  0  0  0  0  0  0  0  0  0  0  0
  140.7190   71.8550  224.9240 N   0  0  0  0  0  0  0  0  0  0  0  0
  138.8230   73.6590  223.0440 H   0  0  0  0  0  0  0  0  0  0  0  0
  139.7890   73.7579  220.2993 H   0  0  0  0  0  0  0  0  0  0  0  0
  138.8742   75.0576  221.2023 H   0  0  0  0  0  0  0  0  0  0  0  0
  142.0694   77.3256  219.8652 H   0  0  0  0  0  0  0  0  0  0  0  0
  143.5499   76.5612  220.5143 H   0  0  0  0  0  0  0  0  0  0  0  0
  142.9163   77.0389  217.7963 H   0  0  0  0  0  0  0  0  0  0  0  0
  144.2731   76.0902  218.3933 H   0  0  0  0  0  0  0  0  0  0  0  0
  141.4712   75.1617  217.5869 H   0  0  0  0  0  0  0  0  0  0  0  0
  142.9660   74.3767  217.2039 H   0  0  0  0  0  0  0  0  0  0  0  0
  141.6934   73.3358  219.3409 H   0  0  0  0  0  0  0  0  0  0  0  0
  143.7762   72.5205  217.9130 H   0  0  0  0  0  0  0  0  0  0  0  0
  145.9991   71.5818  218.3671 H   0  0  0  0  0  0  0  0  0  0  0  0
  147.2549   72.1899  220.4299 H   0  0  0  0  0  0  0  0  0  0  0  0
  143.9479   74.7248  221.5628 H   0  0  0  0  0  0  0  0  0  0  0  0
  139.2042   70.0654  222.5004 H   0  0  0  0  0  0  0  0  0  0  0  0
  138.8384   68.4985  224.3744 H   0  0  0  0  0  0  0  0  0  0  0  0
  139.1318   67.9959  226.6829 H   0  0  0  0  0  0  0  0  0  0  0  0
  139.9909   68.6105  228.9254 H   0  0  0  0  0  0  0  0  0  0  0  0
  141.1981   70.7595  229.2799 H   0  0  0  0  0  0  0  0  0  0  0  0
  141.5162   72.2778  227.3230 H   0  0  0  0  0  0  0  0  0  0  0  0
  1  2  2  0
  2  3  1  0
  3  4  1  0
  4  5  1  0
  5  6  2  0
  5  7  1  0
  7  8  1  0
  8  9  1  0
  9 10  1  0
 10 11  1  0
 11 12  1  0
 12 13  2  0
 13 14  1  0
 14 15  2  0
 15 16  1  0
 16 17  1  0
 16 18  2  0
  2 19  1  0
 19 20  2  0
 20 21  1  0
 21 22  2  0
 22 23  1  0
 23 24  2  0
 24 25  1  0
 25 26  2  0
 26 27  1  0
 27 28  2  0
 11  7  1  0
 18 12  1  0
 28 19  1  0
 27 22  1  0
  3 29  1  0
  4 30  1  0
  4 31  1  0
  8 32  1  0
  8 33  1  0
  9 34  1  0
  9 35  1  0
 10 36  1  0
 10 37  1  0
 11 38  1  6
 13 39  1  0
 14 40  1  0
 15 41  1  0
 18 42  1  0
 20 43  1  0
 21 44  1  0
 23 45  1  0
 24 46  1  0
 25 47  1  0
 26 48  1  0
M  END
>  <smiles>  (68) 
O=C(NCC(=O)N1CCCC1c1cccc(F)c1)c1ccc2ccccc2n1

>  <score_type>  (68) 
oracle

>  <origin>  (68) 
autodockgpu

>  <m_score__min__energy>  (68) 
-8.8699999999999992

>  <m_primary>  (68) 
energy

>  <rmsd>  (68) 
2.3813804342475087

>  <m_score__min__rmsd>  (68) 
2.3813804342475087

>  <meeko>  (68) 
{"free_energy": -8.55, "intermolecular_energy": -10.05, "internal_energy": -1.46, "cluster_size": 5, "cluster_id": 3, "rank_in_cluster": 2}

>  <energy>  (68) 
-8.71

>  <cluster_rmsd>  (68) 
0.89

>  <cluster>  (68) 
1

$$$$

     RDKit          3D

 48 51  0  0  0  0  0  0  0  0999 V2000
  141.2340   71.5500  221.6630 O   0  0  0  0  0  0  0  0  0  0  0  0
  140.5280   71.8780  222.6620 C   0  0  0  0  0  0  0  0  0  0  0  0
  139.9500   73.1750  222.6400 N   0  0  0  0  0  0  0  0  0  0  0  0
  140.1560   74.0700  221.5420 C   0  0  0  0  0  0  0  0  0  0  0  0
  139.7020   75.4400  221.8070 C   0  0  0  0  0  0  0  0  0  0  0  0
  138.9000   75.6350  222.7450 O   0  0  0  0  0  0  0  0  0  0  0  0
  140.1230   76.5620  221.0550 N   0  0  0  0  0  0  0  0  0  0  0  0
  139.3070   77.4030  220.1870 C   0  0  0  0  0  0  0  0  0  0  0  0
  140.2080   78.1060  219.2320 C   0  0  0  0  0  0  0  0  0  0  0  0
  141.5580   77.4730  219.4580 C   0  0  0  0  0  0  0  0  0  0  0  0
  141.4580   77.1580  220.9470 C   0  0  1  0  0  0  0  0  0  0  0  0
  141.5640   78.3980  221.7050 C   0  0  0  0  0  0  0  0  0  0  0  0
  141.3940   78.3320  223.0820 C   0  0  0  0  0  0  0  0  0  0  0  0
  141.4830   79.4540  223.8920 C   0  0  0  0  0  0  0  0  0  0  0  0
  141.7450   80.7010  223.3690 C   0  0  0  0  0  0  0  0  0  0  0  0
  141.9160   80.7830  222.0050 C   0  0  0  0  0  0  0  0  0  0  0  0
  142.1740   81.9920  221.4630 F   0  0  0  0  0  0  0  0  0  0  0  0
  141.8260   79.6480  221.1910 C   0  0  0  0  0  0  0  0  0  0  0  0
  140.3100   70.9760  223.7900 C   0  0  0  0  0  0  0  0  0  0  0  0
  139.5910   69.8190  223.5600 C   0  0  0  0  0  0  0  0  0  0  0  0
  139.3460   68.9300  224.5620 C   0  0  0  0  0  0  0  0  0  0  0  0
  139.8420   69.2210  225.8220 C   0  0  0  0  0  0  0  0  0  0  0  0
  139.6130   68.3500  226.8430 C   0  0  0  0  0  0  0  0  0  0  0  0
  140.1080   68.6390  228.1030 C   0  0  0  0  0  0  0  0  0  0  0  0
  140.8290   69.7920  228.3450 C   0  0  0  0  0  0  0  0  0  0  0  0
  141.0380   70.6540  227.2720 C   0  0  0  0  0  0  0  0  0  0  0  0
  140.5560   70.3820  226.0210 C   0  0  0  0  0  0  0  0  0  0  0  0
  140.7960   71.2630  225.0250 N   0  0  0  0  0  0  0  0  0  0  0  0
  139.3700   73.4410  223.4650 H   0  0  0  0  0  0  0  0  0  0  0  0
  141.2317   74.0983  221.3136 H   0  0  0  0  0  0  0  0  0  0  0  0
  139.5591   73.6898  220.6999 H   0  0  0  0  0  0  0  0  0  0  0  0
  138.5909   76.7794  219.6318 H   0  0  0  0  0  0  0  0  0  0  0  0
  138.7472   78.1352  220.7874 H   0  0  0  0  0  0  0  0  0  0  0  0
  139.8738   77.9515  218.1954 H   0  0  0  0  0  0  0  0  0  0  0  0
  140.2223   79.1943  219.3914 H   0  0  0  0  0  0  0  0  0  0  0  0
  141.6873   76.5616  218.8559 H   0  0  0  0  0  0  0  0  0  0  0  0
  142.4164   78.0995  219.1740 H   0  0  0  0  0  0  0  0  0  0  0  0
  142.2446   76.4950  221.3365 H   0  0  0  0  0  0  0  0  0  0  0  0
  141.1817   77.3572  223.5454 H   0  0  0  0  0  0  0  0  0  0  0  0
  141.3411   79.3456  224.9774 H   0  0  0  0  0  0  0  0  0  0  0  0
  141.8145   81.5910  224.0117 H   0  0  0  0  0  0  0  0  0  0  0  0
  141.9692   79.7582  220.1059 H   0  0  0  0  0  0  0  0  0  0  0  0
  139.2095   69.6121  222.5492 H   0  0  0  0  0  0  0  0  0  0  0  0
  138.7723   68.0099  224.3766 H   0  0  0  0  0  0  0  0  0  0  0  0
  139.0409   67.4268  226.6686 H   0  0  0  0  0  0  0  0  0  0  0  0
  139.9234   67.9359  228.9286 H   0  0  0  0  0  0  0  0  0  0  0  0
  141.2227   70.0202  229.3465 H   0  0  0  0  0  0  0  0  0  0  0  0
  141.6074   71.5810  227.4349 H   0  0  0  0  0  0  0  0  0  0  0  0
  1  2  2  0
  2  3  1  0
  3  4  1  0
  4  5  1  0
  5  6  2  0
  5  7  1  0
  7  8  1  0
  8  9  1  0
  9 10  1  0
 10 11  1  0
 11 12  1  0
 12 13  2  0
 13 14  1  0
 14 15  2  0
 15 16  1  0
 16 17  1  0
 16 18  2  0
  2 19  1  0
 19 20  2  0
 20 21  1  0
 21 22  2  0
 22 23  1  0
 23 24  2  0
 24 25  1  0
 25 26  2  0
 26 27  1  0
 27 28  2  0
 11  7  1  0
 18 12  1  0
 28 19  1  0
 27 22  1  0
  3 29  1  0
  4 30  1  0
  4 31  1  0
  8 32  1  0
  8 33  1  0
  9 34  1  0
  9 35  1  0
 10 36  1  0
 10 37  1  0
 11 38  1  1
 13 39  1  0
 14 40  1  0
 15 41  1  0
 18 42  1  0
 20 43  1  0
 21 44  1  0
 23 45  1  0
 24 46  1  0
 25 47  1  0
 26 48  1  0
M  END
>  <smiles>  (69) 
O=C(NCC(=O)N1CCCC1c1cccc(F)c1)c1ccc2ccccc2n1

>  <score_type>  (69) 
oracle

>  <origin>  (69) 
autodockgpu

>  <m_score__min__energy>  (69) 
-8.8699999999999992

>  <m_primary>  (69) 
energy

>  <rmsd>  (69) 
1.7689965635609162

>  <m_score__min__rmsd>  (69) 
1.7689965635609162

>  <meeko>  (69) 
{"free_energy": -8.49, "intermolecular_energy": -9.99, "internal_energy": -1.42, "cluster_size": 38, "cluster_id": 1, "rank_in_cluster": 32}

>  <energy>  (69) 
-8.69

>  <cluster_rmsd>  (69) 
1.26

>  <cluster>  (69) 
1

$$$$

     RDKit          3D

 48 51  0  0  0  0  0  0  0  0999 V2000
  141.3560   72.4510  221.9540 O   0  0  0  0  0  0  0  0  0  0  0  0
  140.3220   72.3990  222.6840 C   0  0  0  0  0  0  0  0  0  0  0  0
  139.2790   73.3160  222.3840 N   0  0  0  0  0  0  0  0  0  0  0  0
  139.3900   74.2540  221.3090 C   0  0  0  0  0  0  0  0  0  0  0  0
  140.2030   75.4310  221.6370 C   0  0  0  0  0  0  0  0  0  0  0  0
  141.4070   75.2650  221.9270 O   0  0  0  0  0  0  0  0  0  0  0  0
  139.6990   76.7520  221.6430 N   0  0  0  0  0  0  0  0  0  0  0  0
  138.5270   77.2490  222.3540 C   0  0  0  0  0  0  0  0  0  0  0  0
  138.0780   78.5070  221.6960 C   0  0  0  0  0  0  0  0  0  0  0  0
  138.9220   78.5990  220.4510 C   0  0  0  0  0  0  0  0  0  0  0  0
  140.2040   77.9410  220.9490 C   0  0  1  0  0  0  0  0  0  0  0  0
  140.8870   78.8530  221.8570 C   0  0  0  0  0  0  0  0  0  0  0  0
  141.4640   78.3160  223.0010 C   0  0  0  0  0  0  0  0  0  0  0  0
  142.1410   79.0980  223.9240 C   0  0  0  0  0  0  0  0  0  0  0  0
  142.2780   80.4590  223.7520 C   0  0  0  0  0  0  0  0  0  0  0  0
  141.7120   81.0060  222.6230 C   0  0  0  0  0  0  0  0  0  0  0  0
  141.8280   82.3370  222.4270 F   0  0  0  0  0  0  0  0  0  0  0  0
  141.0280   80.2120  221.6940 C   0  0  0  0  0  0  0  0  0  0  0  0
  140.1950   71.4470  223.7850 C   0  0  0  0  0  0  0  0  0  0  0  0
  139.5520   70.2520  223.5320 C   0  0  0  0  0  0  0  0  0  0  0  0
  139.3940   69.3150  224.5080 C   0  0  0  0  0  0  0  0  0  0  0  0
  139.8990   69.5990  225.7660 C   0  0  0  0  0  0  0  0  0  0  0  0
  139.7570   68.6810  226.7610 C   0  0  0  0  0  0  0  0  0  0  0  0
  140.2620   68.9630  228.0190 C   0  0  0  0  0  0  0  0  0  0  0  0
  140.9070   70.1540  228.2840 C   0  0  0  0  0  0  0  0  0  0  0  0
  141.0290   71.0630  227.2370 C   0  0  0  0  0  0  0  0  0  0  0  0
  140.5360   70.8000  225.9880 C   0  0  0  0  0  0  0  0  0  0  0  0
  140.6910   71.7270  225.0180 N   0  0  0  0  0  0  0  0  0  0  0  0
  138.4300   73.2680  222.9880 H   0  0  0  0  0  0  0  0  0  0  0  0
  139.8478   73.7441  220.4486 H   0  0  0  0  0  0  0  0  0  0  0  0
  138.3742   74.6148  221.0900 H   0  0  0  0  0  0  0  0  0  0  0  0
  137.7221   76.5003  222.3130 H   0  0  0  0  0  0  0  0  0  0  0  0
  138.7771   77.4415  223.4078 H   0  0  0  0  0  0  0  0  0  0  0  0
  137.0098   78.4524  221.4392 H   0  0  0  0  0  0  0  0  0  0  0  0
  138.1935   79.3859  222.3474 H   0  0  0  0  0  0  0  0  0  0  0  0
  138.4761   78.0419  219.6138 H   0  0  0  0  0  0  0  0  0  0  0  0
  139.0488   79.6163  220.0521 H   0  0  0  0  0  0  0  0  0  0  0  0
  140.9336   77.6898  220.1650 H   0  0  0  0  0  0  0  0  0  0  0  0
  141.3809   77.2339  223.1805 H   0  0  0  0  0  0  0  0  0  0  0  0
  142.5788   78.6218  224.8137 H   0  0  0  0  0  0  0  0  0  0  0  0
  142.8154   81.0797  224.4841 H   0  0  0  0  0  0  0  0  0  0  0  0
  140.5895   80.6900  220.8057 H   0  0  0  0  0  0  0  0  0  0  0  0
  139.1600   70.0527  222.5237 H   0  0  0  0  0  0  0  0  0  0  0  0
  138.8817   68.3633  224.3036 H   0  0  0  0  0  0  0  0  0  0  0  0
  139.2468   67.7258  226.5678 H   0  0  0  0  0  0  0  0  0  0  0  0
  140.1467   68.2223  228.8240 H   0  0  0  0  0  0  0  0  0  0  0  0
  141.3089   70.3762  229.2835 H   0  0  0  0  0  0  0  0  0  0  0  0
  141.5370   72.0215  227.4191 H   0  0  0  0  0  0  0  0  0  0  0  0
  1  2  2  0
  2  3  1  0
  3  4  1  0
  4  5  1  0
  5  6  2  0
  5  7  1  0
  7  8  1  0
  8  9  1  0
  9 10  1  0
 10 11  1  0
 11 12  1  0
 12 13  2  0
 13 14  1  0
 14 15  2  0
 15 16  1  0
 16 17  1  0
 16 18  2  0
  2 19  1  0
 19 20  2  0
 20 21  1  0
 21 22  2  0
 22 23  1  0
 23 24  2  0
 24 25  1  0
 25 26  2  0
 26 27  1  0
 27 28  2  0
 11  7  1  0
 18 12  1  0
 28 19  1  0
 27 22  1  0
  3 29  1  0
  4 30  1  0
  4 31  1  0
  8 32  1  0
  8 33  1  0
  9 34  1  0
  9 35  1  0
 10 36  1  0
 10 37  1  0
 11 38  1  6
 13 39  1  0
 14 40  1  0
 15 41  1  0
 18 42  1  0
 20 43  1  0
 21 44  1  0
 23 45  1  0
 24 46  1  0
 25 47  1  0
 26 48  1  0
M  END
>  <smiles>  (70) 
O=C(NCC(=O)N1CCCC1c1cccc(F)c1)c1ccc2ccccc2n1

>  <score_type>  (70) 
oracle

>  <origin>  (70) 
autodockgpu

>  <m_score__min__energy>  (70) 
-8.8699999999999992

>  <m_primary>  (70) 
energy

>  <rmsd>  (70) 
2.4584588632823556

>  <m_score__min__rmsd>  (70) 
2.4584588632823556

>  <meeko>  (70) 
{"free_energy": -8.87, "intermolecular_energy": -10.36, "internal_energy": -1.13, "cluster_size": 38, "cluster_id": 1, "rank_in_cluster": 1}

>  <energy>  (70) 
-8.68

>  <cluster_rmsd>  (70) 
1.33

>  <cluster>  (70) 
1

$$$$

     RDKit          3D

 48 51  0  0  0  0  0  0  0  0999 V2000
  140.6070   71.4450  221.3380 O   0  0  0  0  0  0  0  0  0  0  0  0
  140.2320   72.0140  222.4060 C   0  0  0  0  0  0  0  0  0  0  0  0
  139.8650   73.3830  222.3080 N   0  0  0  0  0  0  0  0  0  0  0  0
  139.9150   74.0870  221.0620 C   0  0  0  0  0  0  0  0  0  0  0  0
  140.7330   75.3040  221.1070 C   0  0  0  0  0  0  0  0  0  0  0  0
  140.5240   76.1330  222.0190 O   0  0  0  0  0  0  0  0  0  0  0  0
  141.7530   75.5950  220.1710 N   0  0  0  0  0  0  0  0  0  0  0  0
  142.5370   76.8210  220.0700 C   0  0  0  0  0  0  0  0  0  0  0  0
  143.0980   76.9050  218.6930 C   0  0  0  0  0  0  0  0  0  0  0  0
  142.4320   75.7770  217.9480 C   0  0  0  0  0  0  0  0  0  0  0  0
  142.2740   74.7670  219.0800 C   0  0  1  0  0  0  0  0  0  0  0  0
  143.5790   74.2020  219.4000 C   0  0  0  0  0  0  0  0  0  0  0  0
  144.2880   73.5880  218.3750 C   0  0  0  0  0  0  0  0  0  0  0  0
  145.5400   73.0270  218.5760 C   0  0  0  0  0  0  0  0  0  0  0  0
  146.1490   73.0500  219.8120 C   0  0  0  0  0  0  0  0  0  0  0  0
  145.4590   73.6540  220.8380 C   0  0  0  0  0  0  0  0  0  0  0  0
  146.0300   73.6910  222.0610 F   0  0  0  0  0  0  0  0  0  0  0  0
  144.1950   74.2200  220.6300 C   0  0  0  0  0  0  0  0  0  0  0  0
  140.1760   71.3090  223.6830 C   0  0  0  0  0  0  0  0  0  0  0  0
  139.6120   70.0490  223.7000 C   0  0  0  0  0  0  0  0  0  0  0  0
  139.5240   69.3300  224.8530 C   0  0  0  0  0  0  0  0  0  0  0  0
  140.0190   69.9020  226.0130 C   0  0  0  0  0  0  0  0  0  0  0  0
  139.9450   69.2070  227.1810 C   0  0  0  0  0  0  0  0  0  0  0  0
  140.4400   69.7780  228.3410 C   0  0  0  0  0  0  0  0  0  0  0  0
  141.0070   71.0370  228.3370 C   0  0  0  0  0  0  0  0  0  0  0  0
  141.0610   71.7120  227.1210 C   0  0  0  0  0  0  0  0  0  0  0  0
  140.5770   71.1610  225.9650 C   0  0  0  0  0  0  0  0  0  0  0  0
  140.6620   71.8720  224.8200 N   0  0  0  0  0  0  0  0  0  0  0  0
  139.5570   73.8460  223.1910 H   0  0  0  0  0  0  0  0  0  0  0  0
  140.3341   73.4144  220.2992 H   0  0  0  0  0  0  0  0  0  0  0  0
  138.8867   74.3983  220.8261 H   0  0  0  0  0  0  0  0  0  0  0  0
  141.8928   77.6915  220.2629 H   0  0  0  0  0  0  0  0  0  0  0  0
  143.3501   76.8131  220.8108 H   0  0  0  0  0  0  0  0  0  0  0  0
  142.8545   77.8735  218.2318 H   0  0  0  0  0  0  0  0  0  0  0  0
  144.1951   76.8253  218.6814 H   0  0  0  0  0  0  0  0  0  0  0  0
  141.4595   76.0802  217.5330 H   0  0  0  0  0  0  0  0  0  0  0  0
  142.9877   75.4084  217.0731 H   0  0  0  0  0  0  0  0  0  0  0  0
  141.6192   73.9125  218.8542 H   0  0  0  0  0  0  0  0  0  0  0  0
  143.8413   73.5455  217.3707 H   0  0  0  0  0  0  0  0  0  0  0  0
  146.0588   72.5529  217.7298 H   0  0  0  0  0  0  0  0  0  0  0  0
  147.1424   72.6054  219.9713 H   0  0  0  0  0  0  0  0  0  0  0  0
  143.6781   74.6942  221.4773 H   0  0  0  0  0  0  0  0  0  0  0  0
  139.2264   69.6177  222.7644 H   0  0  0  0  0  0  0  0  0  0  0  0
  139.0739   68.3264  224.8627 H   0  0  0  0  0  0  0  0  0  0  0  0
  139.4968   68.2027  227.2030 H   0  0  0  0  0  0  0  0  0  0  0  0
  140.3804   69.2171  229.2854 H   0  0  0  0  0  0  0  0  0  0  0  0
  141.4008   71.4891  229.2593 H   0  0  0  0  0  0  0  0  0  0  0  0
  141.5056   72.7176  227.0878 H   0  0  0  0  0  0  0  0  0  0  0  0
  1  2  2  0
  2  3  1  0
  3  4  1  0
  4  5  1  0
  5  6  2  0
  5  7  1  0
  7  8  1  0
  8  9  1  0
  9 10  1  0
 10 11  1  0
 11 12  1  0
 12 13  2  0
 13 14  1  0
 14 15  2  0
 15 16  1  0
 16 17  1  0
 16 18  2  0
  2 19  1  0
 19 20  2  0
 20 21  1  0
 21 22  2  0
 22 23  1  0
 23 24  2  0
 24 25  1  0
 25 26  2  0
 26 27  1  0
 27 28  2  0
 11  7  1  0
 18 12  1  0
 28 19  1  0
 27 22  1  0
  3 29  1  0
  4 30  1  0
  4 31  1  0
  8 32  1  0
  8 33  1  0
  9 34  1  0
  9 35  1  0
 10 36  1  0
 10 37  1  0
 11 38  1  6
 13 39  1  0
 14 40  1  0
 15 41  1  0
 18 42  1  0
 20 43  1  0
 21 44  1  0
 23 45  1  0
 24 46  1  0
 25 47  1  0
 26 48  1  0
M  END
>  <smiles>  (71) 
O=C(NCC(=O)N1CCCC1c1cccc(F)c1)c1ccc2ccccc2n1

>  <score_type>  (71) 
oracle

>  <origin>  (71) 
autodockgpu

>  <m_score__min__energy>  (71) 
-8.8699999999999992

>  <m_primary>  (71) 
energy

>  <rmsd>  (71) 
2.2912573474114537

>  <m_score__min__rmsd>  (71) 
2.2912573474114537

>  <meeko>  (71) 
{"free_energy": -8.43, "intermolecular_energy": -9.92, "internal_energy": -1.46, "cluster_size": 5, "cluster_id": 3, "rank_in_cluster": 3}

>  <energy>  (71) 
-8.65

>  <cluster_rmsd>  (71) 
1.33

>  <cluster>  (71) 
1

$$$$

     RDKit          3D

 48 51  0  0  0  0  0  0  0  0999 V2000
  137.4870   76.0410  222.4240 O   0  0  0  0  0  0  0  0  0  0  0  0
  138.7390   76.2330  222.4270 C   0  0  0  0  0  0  0  0  0  0  0  0
  139.5600   75.1070  222.1540 N   0  0  0  0  0  0  0  0  0  0  0  0
  139.0020   73.8160  221.8880 C   0  0  0  0  0  0  0  0  0  0  0  0
  139.8440   72.7050  222.3440 C   0  0  0  0  0  0  0  0  0  0  0  0
  141.0780   72.8810  222.4190 O   0  0  0  0  0  0  0  0  0  0  0  0
  139.3340   71.4360  222.7060 N   0  0  0  0  0  0  0  0  0  0  0  0
  139.5480   70.1680  222.0190 C   0  0  0  0  0  0  0  0  0  0  0  0
  138.4590   69.2310  222.4130 C   0  0  0  0  0  0  0  0  0  0  0  0
  137.4980   70.0870  223.1980 C   0  0  0  0  0  0  0  0  0  0  0  0
  138.4740   71.0700  223.8350 C   0  0  1  0  0  0  0  0  0  0  0  0
  139.2170   70.3890  224.8880 C   0  0  0  0  0  0  0  0  0  0  0  0
  140.3490   71.0170  225.3910 C   0  0  0  0  0  0  0  0  0  0  0  0
  141.1200   70.4560  226.3980 C   0  0  0  0  0  0  0  0  0  0  0  0
  140.8000   69.2370  226.9540 C   0  0  0  0  0  0  0  0  0  0  0  0
  139.6810   68.6010  226.4660 C   0  0  0  0  0  0  0  0  0  0  0  0
  139.3420   67.4040  226.9910 F   0  0  0  0  0  0  0  0  0  0  0  0
  138.9050   69.1720  225.4490 C   0  0  0  0  0  0  0  0  0  0  0  0
  139.3240   77.5440  222.6980 C   0  0  0  0  0  0  0  0  0  0  0  0
  138.4630   78.6040  222.9000 C   0  0  0  0  0  0  0  0  0  0  0  0
  138.9330   79.8560  223.1570 C   0  0  0  0  0  0  0  0  0  0  0  0
  140.3060   80.0350  223.2100 C   0  0  0  0  0  0  0  0  0  0  0  0
  140.8050   81.2750  223.4660 C   0  0  0  0  0  0  0  0  0  0  0  0
  142.1770   81.4540  223.5200 C   0  0  0  0  0  0  0  0  0  0  0  0
  143.0480   80.4020  223.3200 C   0  0  0  0  0  0  0  0  0  0  0  0
  142.4930   79.1520  223.0610 C   0  0  0  0  0  0  0  0  0  0  0  0
  141.1400   78.9570  223.0050 C   0  0  0  0  0  0  0  0  0  0  0  0
  140.6700   77.7170  222.7500 N   0  0  0  0  0  0  0  0  0  0  0  0
  140.5910   75.2710  222.1590 H   0  0  0  0  0  0  0  0  0  0  0  0
  138.0293   73.7464  222.3970 H   0  0  0  0  0  0  0  0  0  0  0  0
  138.9113   73.7236  220.7956 H   0  0  0  0  0  0  0  0  0  0  0  0
  139.5262   70.3266  220.9307 H   0  0  0  0  0  0  0  0  0  0  0  0
  140.5265   69.7484  222.2955 H   0  0  0  0  0  0  0  0  0  0  0  0
  137.9679   68.8083  221.5241 H   0  0  0  0  0  0  0  0  0  0  0  0
  138.8310   68.3746  222.9946 H   0  0  0  0  0  0  0  0  0  0  0  0
  136.7762   70.5961  222.5423 H   0  0  0  0  0  0  0  0  0  0  0  0
  136.8649   69.5372  223.9100 H   0  0  0  0  0  0  0  0  0  0  0  0
  138.0096   71.9474  224.3089 H   0  0  0  0  0  0  0  0  0  0  0  0
  140.6440   71.9923  224.9767 H   0  0  0  0  0  0  0  0  0  0  0  0
  142.0067   70.9964  226.7608 H   0  0  0  0  0  0  0  0  0  0  0  0
  141.4115   68.7916  227.7525 H   0  0  0  0  0  0  0  0  0  0  0  0
  138.0184   68.6304  225.0876 H   0  0  0  0  0  0  0  0  0  0  0  0
  137.3772   78.4342  222.8525 H   0  0  0  0  0  0  0  0  0  0  0  0
  138.2444   80.6987  223.3175 H   0  0  0  0  0  0  0  0  0  0  0  0
  140.1262   82.1253  223.6282 H   0  0  0  0  0  0  0  0  0  0  0  0
  142.5814   82.4559  223.7267 H   0  0  0  0  0  0  0  0  0  0  0  0
  144.1377   80.5458  223.3636 H   0  0  0  0  0  0  0  0  0  0  0  0
  143.1626   78.2949  222.8964 H   0  0  0  0  0  0  0  0  0  0  0  0
  1  2  2  0
  2  3  1  0
  3  4  1  0
  4  5  1  0
  5  6  2  0
  5  7  1  0
  7  8  1  0
  8  9  1  0
  9 10  1  0
 10 11  1  0
 11 12  1  0
 12 13  2  0
 13 14  1  0
 14 15  2  0
 15 16  1  0
 16 17  1  0
 16 18  2  0
  2 19  1  0
 19 20  2  0
 20 21  1  0
 21 22  2  0
 22 23  1  0
 23 24  2  0
 24 25  1  0
 25 26  2  0
 26 27  1  0
 27 28  2  0
 11  7  1  0
 18 12  1  0
 28 19  1  0
 27 22  1  0
  3 29  1  0
  4 30  1  0
  4 31  1  0
  8 32  1  0
  8 33  1  0
  9 34  1  0
  9 35  1  0
 10 36  1  0
 10 37  1  0
 11 38  1  1
 13 39  1  0
 14 40  1  0
 15 41  1  0
 18 42  1  0
 20 43  1  0
 21 44  1  0
 23 45  1  0
 24 46  1  0
 25 47  1  0
 26 48  1  0
M  END
>  <smiles>  (72) 
O=C(NCC(=O)N1CCCC1c1cccc(F)c1)c1ccc2ccccc2n1

>  <score_type>  (72) 
oracle

>  <origin>  (72) 
autodockgpu

>  <m_score__min__energy>  (72) 
-8.8699999999999992

>  <m_primary>  (72) 
energy

>  <rmsd>  (72) 
8.431553248749548

>  <m_score__min__rmsd>  (72) 
8.431553248749548

>  <meeko>  (72) 
{"free_energy": -8.09, "intermolecular_energy": -9.58, "internal_energy": -1.66, "cluster_size": 7, "cluster_id": 2, "rank_in_cluster": 7}

>  <energy>  (72) 
-8.6

>  <cluster_rmsd>  (72) 
1.23

>  <cluster>  (72) 
1

$$$$

     RDKit          3D

 48 51  0  0  0  0  0  0  0  0999 V2000
  141.0070   73.0450  222.1560 O   0  0  0  0  0  0  0  0  0  0  0  0
  139.9440   72.6710  222.7350 C   0  0  0  0  0  0  0  0  0  0  0  0
  138.7390   73.3120  222.3400 N   0  0  0  0  0  0  0  0  0  0  0  0
  138.7250   74.3310  221.3350 C   0  0  0  0  0  0  0  0  0  0  0  0
  138.8450   75.6900  221.8750 C   0  0  0  0  0  0  0  0  0  0  0  0
  138.1410   76.0090  222.8570 O   0  0  0  0  0  0  0  0  0  0  0  0
  139.7170   76.6680  221.3430 N   0  0  0  0  0  0  0  0  0  0  0  0
  139.4810   77.5330  220.1920 C   0  0  0  0  0  0  0  0  0  0  0  0
  140.7980   78.0120  219.6870 C   0  0  0  0  0  0  0  0  0  0  0  0
  141.8100   77.2190  220.4750 C   0  0  0  0  0  0  0  0  0  0  0  0
  141.0570   77.0590  221.7910 C   0  0  1  0  0  0  0  0  0  0  0  0
  141.0460   78.3360  222.4930 C   0  0  0  0  0  0  0  0  0  0  0  0
  142.2430   79.0350  222.5840 C   0  0  0  0  0  0  0  0  0  0  0  0
  142.3350   80.2610  223.2250 C   0  0  0  0  0  0  0  0  0  0  0  0
  141.2370   80.8540  223.8080 C   0  0  0  0  0  0  0  0  0  0  0  0
  140.0430   80.1730  223.7260 C   0  0  0  0  0  0  0  0  0  0  0  0
  138.9480   80.7270  224.2890 F   0  0  0  0  0  0  0  0  0  0  0  0
  139.9540   78.9350  223.0780 C   0  0  0  0  0  0  0  0  0  0  0  0
  139.9430   71.6330  223.7620 C   0  0  0  0  0  0  0  0  0  0  0  0
  139.3400   70.4280  223.4600 C   0  0  0  0  0  0  0  0  0  0  0  0
  139.2980   69.4120  224.3660 C   0  0  0  0  0  0  0  0  0  0  0  0
  139.8820   69.6250  225.6040 C   0  0  0  0  0  0  0  0  0  0  0  0
  139.8560   68.6270  226.5300 C   0  0  0  0  0  0  0  0  0  0  0  0
  140.4390   68.8380  227.7680 C   0  0  0  0  0  0  0  0  0  0  0  0
  141.0460   70.0370  228.0820 C   0  0  0  0  0  0  0  0  0  0  0  0
  141.0490   71.0290  227.1050 C   0  0  0  0  0  0  0  0  0  0  0  0
  140.4770   70.8370  225.8760 C   0  0  0  0  0  0  0  0  0  0  0  0
  140.5160   71.8420  224.9750 N   0  0  0  0  0  0  0  0  0  0  0  0
  137.8670   73.0000  222.8200 H   0  0  0  0  0  0  0  0  0  0  0  0
  139.5661   74.1540  220.6485 H   0  0  0  0  0  0  0  0  0  0  0  0
  137.7510   74.2703  220.8275 H   0  0  0  0  0  0  0  0  0  0  0  0
  138.9633   76.9683  219.4026 H   0  0  0  0  0  0  0  0  0  0  0  0
  138.8539   78.3883  220.4838 H   0  0  0  0  0  0  0  0  0  0  0  0
  140.8988   77.8115  218.6101 H   0  0  0  0  0  0  0  0  0  0  0  0
  140.9260   79.0975  219.8107 H   0  0  0  0  0  0  0  0  0  0  0  0
  142.0219   76.2471  220.0055 H   0  0  0  0  0  0  0  0  0  0  0  0
  142.8001   77.6901  220.5628 H   0  0  0  0  0  0  0  0  0  0  0  0
  141.4928   76.3310  222.4910 H   0  0  0  0  0  0  0  0  0  0  0  0
  143.1477   78.6016  222.1326 H   0  0  0  0  0  0  0  0  0  0  0  0
  143.3080   80.7722  223.2690 H   0  0  0  0  0  0  0  0  0  0  0  0
  141.3105   81.8270  224.3158 H   0  0  0  0  0  0  0  0  0  0  0  0
  138.9803   78.4251  223.0352 H   0  0  0  0  0  0  0  0  0  0  0  0
  138.8849   70.2860  222.4687 H   0  0  0  0  0  0  0  0  0  0  0  0
  138.8161   68.4536  224.1227 H   0  0  0  0  0  0  0  0  0  0  0  0
  139.3774   67.6643  226.2972 H   0  0  0  0  0  0  0  0  0  0  0  0
  140.4179   68.0329  228.5172 H   0  0  0  0  0  0  0  0  0  0  0  0
  141.5094   70.2025  229.0658 H   0  0  0  0  0  0  0  0  0  0  0  0
  141.5250   71.9955  227.3271 H   0  0  0  0  0  0  0  0  0  0  0  0
  1  2  2  0
  2  3  1  0
  3  4  1  0
  4  5  1  0
  5  6  2  0
  5  7  1  0
  7  8  1  0
  8  9  1  0
  9 10  1  0
 10 11  1  0
 11 12  1  0
 12 13  2  0
 13 14  1  0
 14 15  2  0
 15 16  1  0
 16 17  1  0
 16 18  2  0
  2 19  1  0
 19 20  2  0
 20 21  1  0
 21 22  2  0
 22 23  1  0
 23 24  2  0
 24 25  1  0
 25 26  2  0
 26 27  1  0
 27 28  2  0
 11  7  1  0
 18 12  1  0
 28 19  1  0
 27 22  1  0
  3 29  1  0
  4 30  1  0
  4 31  1  0
  8 32  1  0
  8 33  1  0
  9 34  1  0
  9 35  1  0
 10 36  1  0
 10 37  1  0
 11 38  1  1
 13 39  1  0
 14 40  1  0
 15 41  1  0
 18 42  1  0
 20 43  1  0
 21 44  1  0
 23 45  1  0
 24 46  1  0
 25 47  1  0
 26 48  1  0
M  END
>  <smiles>  (73) 
O=C(NCC(=O)N1CCCC1c1cccc(F)c1)c1ccc2ccccc2n1

>  <score_type>  (73) 
oracle

>  <origin>  (73) 
autodockgpu

>  <m_score__min__energy>  (73) 
-8.8699999999999992

>  <m_primary>  (73) 
energy

>  <rmsd>  (73) 
1.9059342046216066

>  <m_score__min__rmsd>  (73) 
1.9059342046216066

>  <meeko>  (73) 
{"free_energy": -8.78, "intermolecular_energy": -10.27, "internal_energy": -1.27, "cluster_size": 38, "cluster_id": 1, "rank_in_cluster": 14}

>  <energy>  (73) 
-8.56

>  <cluster_rmsd>  (73) 
1.44

>  <cluster>  (73) 
1

$$$$

     RDKit          3D

 48 51  0  0  0  0  0  0  0  0999 V2000
  140.3460   71.6940  221.1700 O   0  0  0  0  0  0  0  0  0  0  0  0
  140.0780   72.1930  222.3030 C   0  0  0  0  0  0  0  0  0  0  0  0
  139.7580   73.5760  222.3340 N   0  0  0  0  0  0  0  0  0  0  0  0
  139.7390   74.3700  221.1430 C   0  0  0  0  0  0  0  0  0  0  0  0
  140.9060   75.2490  221.0030 C   0  0  0  0  0  0  0  0  0  0  0  0
  142.0350   74.7940  221.2850 O   0  0  0  0  0  0  0  0  0  0  0  0
  140.8260   76.5910  220.5640 N   0  0  0  0  0  0  0  0  0  0  0  0
  139.6520   77.2840  220.0460 C   0  0  0  0  0  0  0  0  0  0  0  0
  140.1120   78.4560  219.2500 C   0  0  0  0  0  0  0  0  0  0  0  0
  141.6070   78.2850  219.1660 C   0  0  0  0  0  0  0  0  0  0  0  0
  141.8750   77.6130  220.5070 C   0  0  1  0  0  0  0  0  0  0  0  0
  141.7330   78.5980  221.5720 C   0  0  0  0  0  0  0  0  0  0  0  0
  141.4430   78.1350  222.8490 C   0  0  0  0  0  0  0  0  0  0  0  0
  141.2950   78.9910  223.9300 C   0  0  0  0  0  0  0  0  0  0  0  0
  141.4290   80.3550  223.7910 C   0  0  0  0  0  0  0  0  0  0  0  0
  141.7170   80.8300  222.5310 C   0  0  0  0  0  0  0  0  0  0  0  0
  141.8540   82.1630  222.3640 F   0  0  0  0  0  0  0  0  0  0  0  0
  141.8650   79.9620  221.4430 C   0  0  0  0  0  0  0  0  0  0  0  0
  140.0930   71.3960  223.5270 C   0  0  0  0  0  0  0  0  0  0  0  0
  139.5830   70.1140  223.4680 C   0  0  0  0  0  0  0  0  0  0  0  0
  139.5630   69.3110  224.5670 C   0  0  0  0  0  0  0  0  0  0  0  0
  140.0710   69.8200  225.7510 C   0  0  0  0  0  0  0  0  0  0  0  0
  140.0650   69.0400  226.8660 C   0  0  0  0  0  0  0  0  0  0  0  0
  140.5720   69.5480  228.0500 C   0  0  0  0  0  0  0  0  0  0  0  0
  141.0850   70.8280  228.1220 C   0  0  0  0  0  0  0  0  0  0  0  0
  141.0710   71.5900  226.9570 C   0  0  0  0  0  0  0  0  0  0  0  0
  140.5730   71.1030  225.7790 C   0  0  0  0  0  0  0  0  0  0  0  0
  140.5910   71.8970  224.6860 N   0  0  0  0  0  0  0  0  0  0  0  0
  139.5380   73.9820  223.2700 H   0  0  0  0  0  0  0  0  0  0  0  0
  139.7066   73.6945  220.2754 H   0  0  0  0  0  0  0  0  0  0  0  0
  138.8525   75.0185  221.2023 H   0  0  0  0  0  0  0  0  0  0  0  0
  139.0718   76.6040  219.4050 H   0  0  0  0  0  0  0  0  0  0  0  0
  139.0129   77.6182  220.8766 H   0  0  0  0  0  0  0  0  0  0  0  0
  139.6616   78.4465  218.2465 H   0  0  0  0  0  0  0  0  0  0  0  0
  139.8235   79.4140  219.7071 H   0  0  0  0  0  0  0  0  0  0  0  0
  141.8971   77.6416  218.3223 H   0  0  0  0  0  0  0  0  0  0  0  0
  142.1696   79.2144  218.9941 H   0  0  0  0  0  0  0  0  0  0  0  0
  142.8824   77.1857  220.6196 H   0  0  0  0  0  0  0  0  0  0  0  0
  141.3268   77.0528  223.0083 H   0  0  0  0  0  0  0  0  0  0  0  0
  141.0655   78.5714  224.9206 H   0  0  0  0  0  0  0  0  0  0  0  0
  141.3112   81.0343  224.6482 H   0  0  0  0  0  0  0  0  0  0  0  0
  142.0942   80.3834  220.4531 H   0  0  0  0  0  0  0  0  0  0  0  0
  139.1855   69.7346  222.5151 H   0  0  0  0  0  0  0  0  0  0  0  0
  139.1563   68.2902  224.5165 H   0  0  0  0  0  0  0  0  0  0  0  0
  139.6618   68.0173  226.8271 H   0  0  0  0  0  0  0  0  0  0  0  0
  140.5660   68.9187  228.9522 H   0  0  0  0  0  0  0  0  0  0  0  0
  141.4889   71.2298  229.0630 H   0  0  0  0  0  0  0  0  0  0  0  0
  141.4721   72.6139  226.9841 H   0  0  0  0  0  0  0  0  0  0  0  0
  1  2  2  0
  2  3  1  0
  3  4  1  0
  4  5  1  0
  5  6  2  0
  5  7  1  0
  7  8  1  0
  8  9  1  0
  9 10  1  0
 10 11  1  0
 11 12  1  0
 12 13  2  0
 13 14  1  0
 14 15  2  0
 15 16  1  0
 16 17  1  0
 16 18  2  0
  2 19  1  0
 19 20  2  0
 20 21  1  0
 21 22  2  0
 22 23  1  0
 23 24  2  0
 24 25  1  0
 25 26  2  0
 26 27  1  0
 27 28  2  0
 11  7  1  0
 18 12  1  0
 28 19  1  0
 27 22  1  0
  3 29  1  0
  4 30  1  0
  4 31  1  0
  8 32  1  0
  8 33  1  0
  9 34  1  0
  9 35  1  0
 10 36  1  0
 10 37  1  0
 11 38  1  6
 13 39  1  0
 14 40  1  0
 15 41  1  0
 18 42  1  0
 20 43  1  0
 21 44  1  0
 23 45  1  0
 24 46  1  0
 25 47  1  0
 26 48  1  0
M  END
>  <smiles>  (74) 
O=C(NCC(=O)N1CCCC1c1cccc(F)c1)c1ccc2ccccc2n1

>  <score_type>  (74) 
oracle

>  <origin>  (74) 
autodockgpu

>  <m_score__min__energy>  (74) 
-8.8699999999999992

>  <m_primary>  (74) 
energy

>  <rmsd>  (74) 
1.6614923503785737

>  <m_score__min__rmsd>  (74) 
1.6614923503785737

>  <meeko>  (74) 
{"free_energy": -8.51, "intermolecular_energy": -10.0, "internal_energy": -1.29, "cluster_size": 38, "cluster_id": 1, "rank_in_cluster": 27}

>  <energy>  (74) 
-8.54

>  <cluster_rmsd>  (74) 
0.98

>  <cluster>  (74) 
1

$$$$

     RDKit          3D

 48 51  0  0  0  0  0  0  0  0999 V2000
  141.2850   72.1860  221.6780 O   0  0  0  0  0  0  0  0  0  0  0  0
  140.3950   72.4120  222.5520 C   0  0  0  0  0  0  0  0  0  0  0  0
  139.5750   73.5540  222.3500 N   0  0  0  0  0  0  0  0  0  0  0  0
  139.7440   74.4100  221.2150 C   0  0  0  0  0  0  0  0  0  0  0  0
  139.3680   75.8050  221.4690 C   0  0  0  0  0  0  0  0  0  0  0  0
  138.3360   76.0350  222.1350 O   0  0  0  0  0  0  0  0  0  0  0  0
  140.1110   76.9120  220.9990 N   0  0  0  0  0  0  0  0  0  0  0  0
  139.7250   77.8600  219.9590 C   0  0  0  0  0  0  0  0  0  0  0  0
  140.9580   78.5150  219.4410 C   0  0  0  0  0  0  0  0  0  0  0  0
  142.0860   77.7510  220.0860 C   0  0  0  0  0  0  0  0  0  0  0  0
  141.4340   77.3860  221.4150 C   0  0  1  0  0  0  0  0  0  0  0  0
  141.3480   78.5790  222.2480 C   0  0  0  0  0  0  0  0  0  0  0  0
  142.5030   79.3320  222.4230 C   0  0  0  0  0  0  0  0  0  0  0  0
  142.5230   80.4860  223.1900 C   0  0  0  0  0  0  0  0  0  0  0  0
  141.3910   80.9500  223.8230 C   0  0  0  0  0  0  0  0  0  0  0  0
  140.2380   80.2150  223.6600 C   0  0  0  0  0  0  0  0  0  0  0  0
  139.1120   80.6440  224.2680 F   0  0  0  0  0  0  0  0  0  0  0  0
  140.2220   79.0500  222.8840 C   0  0  0  0  0  0  0  0  0  0  0  0
  140.2120   71.5480  223.7150 C   0  0  0  0  0  0  0  0  0  0  0  0
  139.5450   70.3530  223.5320 C   0  0  0  0  0  0  0  0  0  0  0  0
  139.3340   69.4960  224.5690 C   0  0  0  0  0  0  0  0  0  0  0  0
  139.8110   69.8600  225.8180 C   0  0  0  0  0  0  0  0  0  0  0  0
  139.6160   69.0230  226.8730 C   0  0  0  0  0  0  0  0  0  0  0  0
  140.0920   69.3860  228.1220 C   0  0  0  0  0  0  0  0  0  0  0  0
  140.7610   70.5780  228.3180 C   0  0  0  0  0  0  0  0  0  0  0  0
  140.9370   71.4030  227.2110 C   0  0  0  0  0  0  0  0  0  0  0  0
  140.4730   71.0590  225.9700 C   0  0  0  0  0  0  0  0  0  0  0  0
  140.6790   71.9070  224.9390 N   0  0  0  0  0  0  0  0  0  0  0  0
  138.8450   73.7360  223.0730 H   0  0  0  0  0  0  0  0  0  0  0  0
  140.8019   74.3844  220.9148 H   0  0  0  0  0  0  0  0  0  0  0  0
  139.0755   74.0347  220.4262 H   0  0  0  0  0  0  0  0  0  0  0  0
  139.2152   77.3284  219.1420 H   0  0  0  0  0  0  0  0  0  0  0  0
  139.0395   78.6153  220.3708 H   0  0  0  0  0  0  0  0  0  0  0  0
  141.0103   78.4354  218.3451 H   0  0  0  0  0  0  0  0  0  0  0  0
  140.9919   79.5896  219.6735 H   0  0  0  0  0  0  0  0  0  0  0  0
  142.3576   76.8569  219.5056 H   0  0  0  0  0  0  0  0  0  0  0  0
  143.0318   78.3062  220.1714 H   0  0  0  0  0  0  0  0  0  0  0  0
  141.9781   76.6377  222.0100 H   0  0  0  0  0  0  0  0  0  0  0  0
  143.4323   79.0009  221.9364 H   0  0  0  0  0  0  0  0  0  0  0  0
  143.4648   81.0445  223.2958 H   0  0  0  0  0  0  0  0  0  0  0  0
  141.4073   81.8664  224.4313 H   0  0  0  0  0  0  0  0  0  0  0  0
  139.2792   78.4931  222.7792 H   0  0  0  0  0  0  0  0  0  0  0  0
  139.1771   70.0883  222.5297 H   0  0  0  0  0  0  0  0  0  0  0  0
  138.8018   68.5449  224.4199 H   0  0  0  0  0  0  0  0  0  0  0  0
  139.0863   68.0688  226.7354 H   0  0  0  0  0  0  0  0  0  0  0  0
  139.9338   68.7106  228.9757 H   0  0  0  0  0  0  0  0  0  0  0  0
  141.1400   70.8643  229.3102 H   0  0  0  0  0  0  0  0  0  0  0  0
  141.4646   72.3599  227.3371 H   0  0  0  0  0  0  0  0  0  0  0  0
  1  2  2  0
  2  3  1  0
  3  4  1  0
  4  5  1  0
  5  6  2  0
  5  7  1  0
  7  8  1  0
  8  9  1  0
  9 10  1  0
 10 11  1  0
 11 12  1  0
 12 13  2  0
 13 14  1  0
 14 15  2  0
 15 16  1  0
 16 17  1  0
 16 18  2  0
  2 19  1  0
 19 20  2  0
 20 21  1  0
 21 22  2  0
 22 23  1  0
 23 24  2  0
 24 25  1  0
 25 26  2  0
 26 27  1  0
 27 28  2  0
 11  7  1  0
 18 12  1  0
 28 19  1  0
 27 22  1  0
  3 29  1  0
  4 30  1  0
  4 31  1  0
  8 32  1  0
  8 33  1  0
  9 34  1  0
  9 35  1  0
 10 36  1  0
 10 37  1  0
 11 38  1  1
 13 39  1  0
 14 40  1  0
 15 41  1  0
 18 42  1  0
 20 43  1  0
 21 44  1  0
 23 45  1  0
 24 46  1  0
 25 47  1  0
 26 48  1  0
M  END
>  <smiles>  (75) 
O=C(NCC(=O)N1CCCC1c1cccc(F)c1)c1ccc2ccccc2n1

>  <score_type>  (75) 
oracle

>  <origin>  (75) 
autodockgpu

>  <m_score__min__energy>  (75) 
-8.8699999999999992

>  <m_primary>  (75) 
energy

>  <rmsd>  (75) 
1.9866920119796276

>  <m_score__min__rmsd>  (75) 
1.9866920119796276

>  <meeko>  (75) 
{"free_energy": -8.81, "intermolecular_energy": -10.3, "internal_energy": -1.36, "cluster_size": 38, "cluster_id": 1, "rank_in_cluster": 11}

>  <energy>  (75) 
-8.52

>  <cluster_rmsd>  (75) 
1.46

>  <cluster>  (75) 
1

$$$$

     RDKit          3D

 48 51  0  0  0  0  0  0  0  0999 V2000
  141.3610   72.7390  221.9590 O   0  0  0  0  0  0  0  0  0  0  0  0
  140.3070   72.6380  222.6540 C   0  0  0  0  0  0  0  0  0  0  0  0
  139.2490   73.5360  222.3470 N   0  0  0  0  0  0  0  0  0  0  0  0
  139.3670   74.5070  221.3020 C   0  0  0  0  0  0  0  0  0  0  0  0
  139.3110   75.8940  221.7790 C   0  0  0  0  0  0  0  0  0  0  0  0
  138.5310   76.1740  222.7150 O   0  0  0  0  0  0  0  0  0  0  0  0
  140.0930   76.9390  221.2370 N   0  0  0  0  0  0  0  0  0  0  0  0
  139.7440   77.8230  220.1300 C   0  0  0  0  0  0  0  0  0  0  0  0
  141.0010   78.3970  219.5740 C   0  0  0  0  0  0  0  0  0  0  0  0
  142.1000   77.6440  220.2810 C   0  0  0  0  0  0  0  0  0  0  0  0
  141.4300   77.3970  221.6280 C   0  0  1  0  0  0  0  0  0  0  0  0
  141.3810   78.6490  222.3730 C   0  0  0  0  0  0  0  0  0  0  0  0
  142.5600   79.3710  222.5040 C   0  0  0  0  0  0  0  0  0  0  0  0
  142.6160   80.5750  223.1880 C   0  0  0  0  0  0  0  0  0  0  0  0
  141.4970   81.1230  223.7760 C   0  0  0  0  0  0  0  0  0  0  0  0
  140.3200   80.4190  223.6550 C   0  0  0  0  0  0  0  0  0  0  0  0
  139.2060   80.9290  224.2210 F   0  0  0  0  0  0  0  0  0  0  0  0
  140.2680   79.2020  222.9630 C   0  0  0  0  0  0  0  0  0  0  0  0
  140.1720   71.6530  223.7230 C   0  0  0  0  0  0  0  0  0  0  0  0
  139.5200   70.4710  223.4310 C   0  0  0  0  0  0  0  0  0  0  0  0
  139.3540   69.5040  224.3760 C   0  0  0  0  0  0  0  0  0  0  0  0
  139.8610   69.7430  225.6430 C   0  0  0  0  0  0  0  0  0  0  0  0
  139.7120   68.7940  226.6080 C   0  0  0  0  0  0  0  0  0  0  0  0
  140.2180   69.0310  227.8740 C   0  0  0  0  0  0  0  0  0  0  0  0
  140.8720   70.2090  228.1780 C   0  0  0  0  0  0  0  0  0  0  0  0
  141.0020   71.1500  227.1610 C   0  0  0  0  0  0  0  0  0  0  0  0
  140.5080   70.9310  225.9040 C   0  0  0  0  0  0  0  0  0  0  0  0
  140.6690   71.8880  224.9640 N   0  0  0  0  0  0  0  0  0  0  0  0
  138.3830   73.4490  222.9230 H   0  0  0  0  0  0  0  0  0  0  0  0
  140.3293   74.3534  220.7918 H   0  0  0  0  0  0  0  0  0  0  0  0
  138.5088   74.3625  220.6293 H   0  0  0  0  0  0  0  0  0  0  0  0
  139.2191   77.2523  219.3498 H   0  0  0  0  0  0  0  0  0  0  0  0
  139.0837   78.6289  220.4829 H   0  0  0  0  0  0  0  0  0  0  0  0
  141.0554   78.2361  218.4872 H   0  0  0  0  0  0  0  0  0  0  0  0
  141.0704   79.4840  219.7279 H   0  0  0  0  0  0  0  0  0  0  0  0
  142.3444   76.7021  219.7681 H   0  0  0  0  0  0  0  0  0  0  0  0
  143.0633   78.1725  220.3334 H   0  0  0  0  0  0  0  0  0  0  0  0
  141.9453   76.6753  222.2789 H   0  0  0  0  0  0  0  0  0  0  0  0
  143.4799   78.9741  222.0498 H   0  0  0  0  0  0  0  0  0  0  0  0
  143.5766   81.1057  223.2632 H   0  0  0  0  0  0  0  0  0  0  0  0
  141.5419   82.0794  224.3175 H   0  0  0  0  0  0  0  0  0  0  0  0
  139.3070   78.6719  222.8891 H   0  0  0  0  0  0  0  0  0  0  0  0
  139.1275   70.3074  222.4165 H   0  0  0  0  0  0  0  0  0  0  0  0
  138.8341   68.5636  224.1407 H   0  0  0  0  0  0  0  0  0  0  0  0
  139.1951   67.8493  226.3837 H   0  0  0  0  0  0  0  0  0  0  0  0
  140.0969   68.2653  228.6544 H   0  0  0  0  0  0  0  0  0  0  0  0
  141.2743   70.3960  229.1846 H   0  0  0  0  0  0  0  0  0  0  0  0
  141.5173   72.0982  227.3741 H   0  0  0  0  0  0  0  0  0  0  0  0
  1  2  2  0
  2  3  1  0
  3  4  1  0
  4  5  1  0
  5  6  2  0
  5  7  1  0
  7  8  1  0
  8  9  1  0
  9 10  1  0
 10 11  1  0
 11 12  1  0
 12 13  2  0
 13 14  1  0
 14 15  2  0
 15 16  1  0
 16 17  1  0
 16 18  2  0
  2 19  1  0
 19 20  2  0
 20 21  1  0
 21 22  2  0
 22 23  1  0
 23 24  2  0
 24 25  1  0
 25 26  2  0
 26 27  1  0
 27 28  2  0
 11  7  1  0
 18 12  1  0
 28 19  1  0
 27 22  1  0
  3 29  1  0
  4 30  1  0
  4 31  1  0
  8 32  1  0
  8 33  1  0
  9 34  1  0
  9 35  1  0
 10 36  1  0
 10 37  1  0
 11 38  1  1
 13 39  1  0
 14 40  1  0
 15 41  1  0
 18 42  1  0
 20 43  1  0
 21 44  1  0
 23 45  1  0
 24 46  1  0
 25 47  1  0
 26 48  1  0
M  END
>  <smiles>  (76) 
O=C(NCC(=O)N1CCCC1c1cccc(F)c1)c1ccc2ccccc2n1

>  <score_type>  (76) 
oracle

>  <origin>  (76) 
autodockgpu

>  <m_score__min__energy>  (76) 
-8.8699999999999992

>  <m_primary>  (76) 
energy

>  <rmsd>  (76) 
2.0112237089165625

>  <m_score__min__rmsd>  (76) 
2.0112237089165625

>  <meeko>  (76) 
{"free_energy": -8.87, "intermolecular_energy": -10.36, "internal_energy": -1.26, "cluster_size": 38, "cluster_id": 1, "rank_in_cluster": 2}

>  <energy>  (76) 
-8.51

>  <cluster_rmsd>  (76) 
1.44

>  <cluster>  (76) 
1

$$$$

     RDKit          3D

 48 51  0  0  0  0  0  0  0  0999 V2000
  141.1980   71.6440  221.6370 O   0  0  0  0  0  0  0  0  0  0  0  0
  140.5030   71.9830  222.6400 C   0  0  0  0  0  0  0  0  0  0  0  0
  139.9330   73.2840  222.6140 N   0  0  0  0  0  0  0  0  0  0  0  0
  140.1330   74.1700  221.5070 C   0  0  0  0  0  0  0  0  0  0  0  0
  139.5970   75.5170  221.7270 C   0  0  0  0  0  0  0  0  0  0  0  0
  138.6840   75.6690  222.5670 O   0  0  0  0  0  0  0  0  0  0  0  0
  140.0560   76.6640  221.0380 N   0  0  0  0  0  0  0  0  0  0  0  0
  139.2690   77.5780  220.2180 C   0  0  0  0  0  0  0  0  0  0  0  0
  140.1950   78.3010  219.3020 C   0  0  0  0  0  0  0  0  0  0  0  0
  141.5220   77.6110  219.4920 C   0  0  0  0  0  0  0  0  0  0  0  0
  141.4110   77.2190  220.9600 C   0  0  1  0  0  0  0  0  0  0  0  0
  141.5580   78.4110  221.7850 C   0  0  0  0  0  0  0  0  0  0  0  0
  141.4420   78.2650  223.1620 C   0  0  0  0  0  0  0  0  0  0  0  0
  141.5730   79.3370  224.0320 C   0  0  0  0  0  0  0  0  0  0  0  0
  141.8270   80.6110  223.5730 C   0  0  0  0  0  0  0  0  0  0  0  0
  141.9450   80.7720  222.2110 C   0  0  0  0  0  0  0  0  0  0  0  0
  142.1930   82.0090  221.7300 F   0  0  0  0  0  0  0  0  0  0  0  0
  141.8120   79.6870  221.3360 C   0  0  0  0  0  0  0  0  0  0  0  0
  140.2910   71.0920  223.7770 C   0  0  0  0  0  0  0  0  0  0  0  0
  139.5700   69.9340  223.5620 C   0  0  0  0  0  0  0  0  0  0  0  0
  139.3310   69.0530  224.5730 C   0  0  0  0  0  0  0  0  0  0  0  0
  139.8340   69.3550  225.8280 C   0  0  0  0  0  0  0  0  0  0  0  0
  139.6110   68.4930  226.8570 C   0  0  0  0  0  0  0  0  0  0  0  0
  140.1130   68.7930  228.1120 C   0  0  0  0  0  0  0  0  0  0  0  0
  140.8350   69.9480  228.3400 C   0  0  0  0  0  0  0  0  0  0  0  0
  141.0390   70.8000  227.2590 C   0  0  0  0  0  0  0  0  0  0  0  0
  140.5490   70.5180  226.0120 C   0  0  0  0  0  0  0  0  0  0  0  0
  140.7850   71.3890  225.0070 N   0  0  0  0  0  0  0  0  0  0  0  0
  139.3620   73.5590  223.4420 H   0  0  0  0  0  0  0  0  0  0  0  0
  141.2136   74.2525  221.3188 H   0  0  0  0  0  0  0  0  0  0  0  0
  139.5898   73.7433  220.6509 H   0  0  0  0  0  0  0  0  0  0  0  0
  138.5328   77.0101  219.6302 H   0  0  0  0  0  0  0  0  0  0  0  0
  138.7330   78.2946  220.8576 H   0  0  0  0  0  0  0  0  0  0  0  0
  139.8570   78.2149  218.2588 H   0  0  0  0  0  0  0  0  0  0  0  0
  140.2464   79.3778  219.5208 H   0  0  0  0  0  0  0  0  0  0  0  0
  141.6205   76.7299  218.8409 H   0  0  0  0  0  0  0  0  0  0  0  0
  142.4014   78.2227  219.2419 H   0  0  0  0  0  0  0  0  0  0  0  0
  142.1750   76.5094  221.3105 H   0  0  0  0  0  0  0  0  0  0  0  0
  141.2396   77.2661  223.5757 H   0  0  0  0  0  0  0  0  0  0  0  0
  141.4717   79.1661  225.1139 H   0  0  0  0  0  0  0  0  0  0  0  0
  141.9308   81.4609  224.2636 H   0  0  0  0  0  0  0  0  0  0  0  0
  141.9138   79.8601  220.2545 H   0  0  0  0  0  0  0  0  0  0  0  0
  139.1815   69.7190  222.5556 H   0  0  0  0  0  0  0  0  0  0  0  0
  138.7569   68.1311  224.3985 H   0  0  0  0  0  0  0  0  0  0  0  0
  139.0383   67.5682  226.6936 H   0  0  0  0  0  0  0  0  0  0  0  0
  139.9331   68.0970  228.9446 H   0  0  0  0  0  0  0  0  0  0  0  0
  141.2334   70.1852  229.3375 H   0  0  0  0  0  0  0  0  0  0  0  0
  141.6108   71.7274  227.4107 H   0  0  0  0  0  0  0  0  0  0  0  0
  1  2  2  0
  2  3  1  0
  3  4  1  0
  4  5  1  0
  5  6  2  0
  5  7  1  0
  7  8  1  0
  8  9  1  0
  9 10  1  0
 10 11  1  0
 11 12  1  0
 12 13  2  0
 13 14  1  0
 14 15  2  0
 15 16  1  0
 16 17  1  0
 16 18  2  0
  2 19  1  0
 19 20  2  0
 20 21  1  0
 21 22  2  0
 22 23  1  0
 23 24  2  0
 24 25  1  0
 25 26  2  0
 26 27  1  0
 27 28  2  0
 11  7  1  0
 18 12  1  0
 28 19  1  0
 27 22  1  0
  3 29  1  0
  4 30  1  0
  4 31  1  0
  8 32  1  0
  8 33  1  0
  9 34  1  0
  9 35  1  0
 10 36  1  0
 10 37  1  0
 11 38  1  1
 13 39  1  0
 14 40  1  0
 15 41  1  0
 18 42  1  0
 20 43  1  0
 21 44  1  0
 23 45  1  0
 24 46  1  0
 25 47  1  0
 26 48  1  0
M  END
>  <smiles>  (77) 
O=C(NCC(=O)N1CCCC1c1cccc(F)c1)c1ccc2ccccc2n1

>  <score_type>  (77) 
oracle

>  <origin>  (77) 
autodockgpu

>  <m_score__min__energy>  (77) 
-8.8699999999999992

>  <m_primary>  (77) 
energy

>  <rmsd>  (77) 
1.8206095178433297

>  <m_score__min__rmsd>  (77) 
1.8206095178433297

>  <meeko>  (77) 
{"free_energy": -8.5, "intermolecular_energy": -10.0, "internal_energy": -1.37, "cluster_size": 38, "cluster_id": 1, "rank_in_cluster": 28}

>  <energy>  (77) 
-8.51

>  <cluster_rmsd>  (77) 
0.97

>  <cluster>  (77) 
1

$$$$

     RDKit          3D

 48 51  0  0  0  0  0  0  0  0999 V2000
  141.3500   72.2920  221.6690 O   0  0  0  0  0  0  0  0  0  0  0  0
  140.4390   72.4680  222.5310 C   0  0  0  0  0  0  0  0  0  0  0  0
  139.5990   73.6000  222.3520 N   0  0  0  0  0  0  0  0  0  0  0  0
  139.7730   74.4990  221.2510 C   0  0  0  0  0  0  0  0  0  0  0  0
  139.4080   75.8860  221.5610 C   0  0  0  0  0  0  0  0  0  0  0  0
  138.4420   76.0950  222.3250 O   0  0  0  0  0  0  0  0  0  0  0  0
  140.0930   77.0090  221.0400 N   0  0  0  0  0  0  0  0  0  0  0  0
  139.6120   77.9510  220.0360 C   0  0  0  0  0  0  0  0  0  0  0  0
  140.7900   78.6300  219.4290 C   0  0  0  0  0  0  0  0  0  0  0  0
  141.9780   77.8870  219.9860 C   0  0  0  0  0  0  0  0  0  0  0  0
  141.4340   77.5070  221.3590 C   0  0  1  0  0  0  0  0  0  0  0  0
  141.3880   78.6970  222.2000 C   0  0  0  0  0  0  0  0  0  0  0  0
  142.5690   79.4030  222.3890 C   0  0  0  0  0  0  0  0  0  0  0  0
  142.6280   80.5500  223.1650 C   0  0  0  0  0  0  0  0  0  0  0  0
  141.5100   81.0530  223.7930 C   0  0  0  0  0  0  0  0  0  0  0  0
  140.3310   80.3640  223.6150 C   0  0  0  0  0  0  0  0  0  0  0  0
  139.2170   80.8320  224.2190 F   0  0  0  0  0  0  0  0  0  0  0  0
  140.2760   79.2060  222.8300 C   0  0  0  0  0  0  0  0  0  0  0  0
  140.2500   71.5610  223.6590 C   0  0  0  0  0  0  0  0  0  0  0  0
  139.5840   70.3740  223.4270 C   0  0  0  0  0  0  0  0  0  0  0  0
  139.3690   69.4770  224.4290 C   0  0  0  0  0  0  0  0  0  0  0  0
  139.8400   69.7930  225.6930 C   0  0  0  0  0  0  0  0  0  0  0  0
  139.6400   68.9150  226.7140 C   0  0  0  0  0  0  0  0  0  0  0  0
  140.1100   69.2300  227.9780 C   0  0  0  0  0  0  0  0  0  0  0  0
  140.7780   70.4130  228.2230 C   0  0  0  0  0  0  0  0  0  0  0  0
  140.9590   71.2800  227.1490 C   0  0  0  0  0  0  0  0  0  0  0  0
  140.5010   70.9850  225.8940 C   0  0  0  0  0  0  0  0  0  0  0  0
  140.7120   71.8720  224.8970 N   0  0  0  0  0  0  0  0  0  0  0  0
  138.8500   73.7410  223.0650 H   0  0  0  0  0  0  0  0  0  0  0  0
  140.8302   74.4771  220.9481 H   0  0  0  0  0  0  0  0  0  0  0  0
  139.1006   74.1603  220.4490 H   0  0  0  0  0  0  0  0  0  0  0  0
  139.0520   77.4115  219.2580 H   0  0  0  0  0  0  0  0  0  0  0  0
  138.9453   78.6923  220.5007 H   0  0  0  0  0  0  0  0  0  0  0  0
  140.7616   78.5526  218.3321 H   0  0  0  0  0  0  0  0  0  0  0  0
  140.8206   79.7048  219.6612 H   0  0  0  0  0  0  0  0  0  0  0  0
  142.2230   76.9994  219.3842 H   0  0  0  0  0  0  0  0  0  0  0  0
  142.9165   78.4605  220.0024 H   0  0  0  0  0  0  0  0  0  0  0  0
  142.0345   76.7682  221.9100 H   0  0  0  0  0  0  0  0  0  0  0  0
  143.4884   79.0397  221.9067 H   0  0  0  0  0  0  0  0  0  0  0  0
  143.5899   81.0706  223.2820 H   0  0  0  0  0  0  0  0  0  0  0  0
  141.5568   81.9634  224.4086 H   0  0  0  0  0  0  0  0  0  0  0  0
  139.3133   78.6868  222.7133 H   0  0  0  0  0  0  0  0  0  0  0  0
  139.2202   70.1485  222.4137 H   0  0  0  0  0  0  0  0  0  0  0  0
  138.8384   68.5320  224.2408 H   0  0  0  0  0  0  0  0  0  0  0  0
  139.1114   67.9667  226.5371 H   0  0  0  0  0  0  0  0  0  0  0  0
  139.9476   68.5225  228.8044 H   0  0  0  0  0  0  0  0  0  0  0  0
  141.1525   70.6608  229.2272 H   0  0  0  0  0  0  0  0  0  0  0  0
  141.4863   72.2311  227.3144 H   0  0  0  0  0  0  0  0  0  0  0  0
  1  2  2  0
  2  3  1  0
  3  4  1  0
  4  5  1  0
  5  6  2  0
  5  7  1  0
  7  8  1  0
  8  9  1  0
  9 10  1  0
 10 11  1  0
 11 12  1  0
 12 13  2  0
 13 14  1  0
 14 15  2  0
 15 16  1  0
 16 17  1  0
 16 18  2  0
  2 19  1  0
 19 20  2  0
 20 21  1  0
 21 22  2  0
 22 23  1  0
 23 24  2  0
 24 25  1  0
 25 26  2  0
 26 27  1  0
 27 28  2  0
 11  7  1  0
 18 12  1  0
 28 19  1  0
 27 22  1  0
  3 29  1  0
  4 30  1  0
  4 31  1  0
  8 32  1  0
  8 33  1  0
  9 34  1  0
  9 35  1  0
 10 36  1  0
 10 37  1  0
 11 38  1  1
 13 39  1  0
 14 40  1  0
 15 41  1  0
 18 42  1  0
 20 43  1  0
 21 44  1  0
 23 45  1  0
 24 46  1  0
 25 47  1  0
 26 48  1  0
M  END
>  <smiles>  (78) 
O=C(NCC(=O)N1CCCC1c1cccc(F)c1)c1ccc2ccccc2n1

>  <score_type>  (78) 
oracle

>  <origin>  (78) 
autodockgpu

>  <m_score__min__energy>  (78) 
-8.8699999999999992

>  <m_primary>  (78) 
energy

>  <rmsd>  (78) 
2.000442625818443

>  <m_score__min__rmsd>  (78) 
2.000442625818443

>  <meeko>  (78) 
{"free_energy": -8.85, "intermolecular_energy": -10.34, "internal_energy": -1.35, "cluster_size": 38, "cluster_id": 1, "rank_in_cluster": 9}

>  <energy>  (78) 
-8.5

>  <cluster_rmsd>  (78) 
0.95

>  <cluster>  (78) 
1

$$$$

     RDKit          3D

 48 51  0  0  0  0  0  0  0  0999 V2000
  141.3770   72.3380  221.7060 O   0  0  0  0  0  0  0  0  0  0  0  0
  140.4300   72.4610  222.5380 C   0  0  0  0  0  0  0  0  0  0  0  0
  139.5520   73.5620  222.3510 N   0  0  0  0  0  0  0  0  0  0  0  0
  139.7270   74.4890  221.2750 C   0  0  0  0  0  0  0  0  0  0  0  0
  139.4160   75.8770  221.6370 C   0  0  0  0  0  0  0  0  0  0  0  0
  138.5030   76.0890  222.4630 O   0  0  0  0  0  0  0  0  0  0  0  0
  140.0940   76.9960  221.1000 N   0  0  0  0  0  0  0  0  0  0  0  0
  139.6030   77.9280  220.0910 C   0  0  0  0  0  0  0  0  0  0  0  0
  140.7740   78.6040  219.4680 C   0  0  0  0  0  0  0  0  0  0  0  0
  141.9680   77.8670  220.0210 C   0  0  0  0  0  0  0  0  0  0  0  0
  141.4370   77.4990  221.4020 C   0  0  1  0  0  0  0  0  0  0  0  0
  141.3960   78.6960  222.2320 C   0  0  0  0  0  0  0  0  0  0  0  0
  142.5820   79.3960  222.4180 C   0  0  0  0  0  0  0  0  0  0  0  0
  142.6460   80.5500  223.1840 C   0  0  0  0  0  0  0  0  0  0  0  0
  141.5290   81.0650  223.8050 C   0  0  0  0  0  0  0  0  0  0  0  0
  140.3470   80.3830  223.6300 C   0  0  0  0  0  0  0  0  0  0  0  0
  139.2350   80.8630  224.2260 F   0  0  0  0  0  0  0  0  0  0  0  0
  140.2860   79.2180  222.8550 C   0  0  0  0  0  0  0  0  0  0  0  0
  140.2380   71.5240  223.6410 C   0  0  0  0  0  0  0  0  0  0  0  0
  139.5860   70.3370  223.3720 C   0  0  0  0  0  0  0  0  0  0  0  0
  139.3690   69.4130  224.3490 C   0  0  0  0  0  0  0  0  0  0  0  0
  139.8250   69.7010  225.6250 C   0  0  0  0  0  0  0  0  0  0  0  0
  139.6230   68.7960  226.6220 C   0  0  0  0  0  0  0  0  0  0  0  0
  140.0780   69.0830  227.8980 C   0  0  0  0  0  0  0  0  0  0  0  0
  140.7320   70.2660  228.1790 C   0  0  0  0  0  0  0  0  0  0  0  0
  140.9160   71.1610  227.1300 C   0  0  0  0  0  0  0  0  0  0  0  0
  140.4730   70.8930  225.8630 C   0  0  0  0  0  0  0  0  0  0  0  0
  140.6850   71.8070  224.8910 N   0  0  0  0  0  0  0  0  0  0  0  0
  138.7730   73.6590  223.0400 H   0  0  0  0  0  0  0  0  0  0  0  0
  140.7748   74.4428  220.9435 H   0  0  0  0  0  0  0  0  0  0  0  0
  139.0231   74.1978  220.4814 H   0  0  0  0  0  0  0  0  0  0  0  0
  139.0379   77.3802  219.3226 H   0  0  0  0  0  0  0  0  0  0  0  0
  138.9388   78.6723  220.5546 H   0  0  0  0  0  0  0  0  0  0  0  0
  140.7361   78.5176  218.3721 H   0  0  0  0  0  0  0  0  0  0  0  0
  140.8049   79.6808  219.6906 H   0  0  0  0  0  0  0  0  0  0  0  0
  142.2084   76.9742  219.4250 H   0  0  0  0  0  0  0  0  0  0  0  0
  142.9061   78.4415  220.0237 H   0  0  0  0  0  0  0  0  0  0  0  0
  142.0440   76.7664  221.9541 H   0  0  0  0  0  0  0  0  0  0  0  0
  143.5004   79.0222  221.9418 H   0  0  0  0  0  0  0  0  0  0  0  0
  143.6106   81.0662  223.2986 H   0  0  0  0  0  0  0  0  0  0  0  0
  141.5800   81.9801  224.4132 H   0  0  0  0  0  0  0  0  0  0  0  0
  139.3201   78.7042  222.7408 H   0  0  0  0  0  0  0  0  0  0  0  0
  139.2352   70.1337  222.3494 H   0  0  0  0  0  0  0  0  0  0  0  0
  138.8485   68.4686  224.1318 H   0  0  0  0  0  0  0  0  0  0  0  0
  139.1044   67.8480  226.4163 H   0  0  0  0  0  0  0  0  0  0  0  0
  139.9150   68.3531  228.7046 H   0  0  0  0  0  0  0  0  0  0  0  0
  141.0935   70.4921  229.1930 H   0  0  0  0  0  0  0  0  0  0  0  0
  141.4329   72.1123  227.3246 H   0  0  0  0  0  0  0  0  0  0  0  0
  1  2  2  0
  2  3  1  0
  3  4  1  0
  4  5  1  0
  5  6  2  0
  5  7  1  0
  7  8  1  0
  8  9  1  0
  9 10  1  0
 10 11  1  0
 11 12  1  0
 12 13  2  0
 13 14  1  0
 14 15  2  0
 15 16  1  0
 16 17  1  0
 16 18  2  0
  2 19  1  0
 19 20  2  0
 20 21  1  0
 21 22  2  0
 22 23  1  0
 23 24  2  0
 24 25  1  0
 25 26  2  0
 26 27  1  0
 27 28  2  0
 11  7  1  0
 18 12  1  0
 28 19  1  0
 27 22  1  0
  3 29  1  0
  4 30  1  0
  4 31  1  0
  8 32  1  0
  8 33  1  0
  9 34  1  0
  9 35  1  0
 10 36  1  0
 10 37  1  0
 11 38  1  1
 13 39  1  0
 14 40  1  0
 15 41  1  0
 18 42  1  0
 20 43  1  0
 21 44  1  0
 23 45  1  0
 24 46  1  0
 25 47  1  0
 26 48  1  0
M  END
>  <smiles>  (79) 
O=C(NCC(=O)N1CCCC1c1cccc(F)c1)c1ccc2ccccc2n1

>  <score_type>  (79) 
oracle

>  <origin>  (79) 
autodockgpu

>  <m_score__min__energy>  (79) 
-8.8699999999999992

>  <m_primary>  (79) 
energy

>  <rmsd>  (79) 
1.9916972991169593

>  <m_score__min__rmsd>  (79) 
1.9916972991169593

>  <meeko>  (79) 
{"free_energy": -8.85, "intermolecular_energy": -10.34, "internal_energy": -1.35, "cluster_size": 38, "cluster_id": 1, "rank_in_cluster": 8}

>  <energy>  (79) 
-8.5

>  <cluster_rmsd>  (79) 
1.26

>  <cluster>  (79) 
1

$$$$

     RDKit          3D

 48 51  0  0  0  0  0  0  0  0999 V2000
  141.3800   72.0970  221.6830 O   0  0  0  0  0  0  0  0  0  0  0  0
  140.5010   72.3620  222.5560 C   0  0  0  0  0  0  0  0  0  0  0  0
  139.7390   73.5440  222.3590 N   0  0  0  0  0  0  0  0  0  0  0  0
  139.9510   74.3960  221.2290 C   0  0  0  0  0  0  0  0  0  0  0  0
  139.4550   75.7630  221.4200 C   0  0  0  0  0  0  0  0  0  0  0  0
  138.3870   75.9300  222.0460 O   0  0  0  0  0  0  0  0  0  0  0  0
  140.1220   76.9120  220.9340 N   0  0  0  0  0  0  0  0  0  0  0  0
  139.6280   77.8730  219.9550 C   0  0  0  0  0  0  0  0  0  0  0  0
  140.7960   78.5890  219.3700 C   0  0  0  0  0  0  0  0  0  0  0  0
  141.9940   77.8510  219.9100 C   0  0  0  0  0  0  0  0  0  0  0  0
  141.4540   77.4240  221.2700 C   0  0  1  0  0  0  0  0  0  0  0  0
  141.3850   78.5880  222.1440 C   0  0  0  0  0  0  0  0  0  0  0  0
  142.5500   79.3180  222.3440 C   0  0  0  0  0  0  0  0  0  0  0  0
  142.5870   80.4450  223.1510 C   0  0  0  0  0  0  0  0  0  0  0  0
  141.4610   80.9020  223.8000 C   0  0  0  0  0  0  0  0  0  0  0  0
  140.2980   80.1900  223.6120 C   0  0  0  0  0  0  0  0  0  0  0  0
  139.1780   80.6130  224.2360 F   0  0  0  0  0  0  0  0  0  0  0  0
  140.2660   79.0520  222.7960 C   0  0  0  0  0  0  0  0  0  0  0  0
  140.2730   71.5030  223.7150 C   0  0  0  0  0  0  0  0  0  0  0  0
  139.6040   70.3120  223.5130 C   0  0  0  0  0  0  0  0  0  0  0  0
  139.3530   69.4590  224.5450 C   0  0  0  0  0  0  0  0  0  0  0  0
  139.7920   69.8240  225.8080 C   0  0  0  0  0  0  0  0  0  0  0  0
  139.5560   68.9900  226.8580 C   0  0  0  0  0  0  0  0  0  0  0  0
  139.9940   69.3530  228.1210 C   0  0  0  0  0  0  0  0  0  0  0  0
  140.6650   70.5410  228.3350 C   0  0  0  0  0  0  0  0  0  0  0  0
  140.8830   71.3610  227.2330 C   0  0  0  0  0  0  0  0  0  0  0  0
  140.4570   71.0180  225.9780 C   0  0  0  0  0  0  0  0  0  0  0  0
  140.7040   71.8620  224.9520 N   0  0  0  0  0  0  0  0  0  0  0  0
  139.0160   73.7580  223.0820 H   0  0  0  0  0  0  0  0  0  0  0  0
  141.0314   74.4435  221.0278 H   0  0  0  0  0  0  0  0  0  0  0  0
  139.3864   73.9635  220.3899 H   0  0  0  0  0  0  0  0  0  0  0  0
  139.0793   77.3458  219.1607 H   0  0  0  0  0  0  0  0  0  0  0  0
  138.9479   78.5899  220.4382 H   0  0  0  0  0  0  0  0  0  0  0  0
  140.7718   78.5415  218.2713 H   0  0  0  0  0  0  0  0  0  0  0  0
  140.8078   79.6575  219.6312 H   0  0  0  0  0  0  0  0  0  0  0  0
  142.2553   76.9846  219.2846 H   0  0  0  0  0  0  0  0  0  0  0  0
  142.9225   78.4398  219.9453 H   0  0  0  0  0  0  0  0  0  0  0  0
  142.0668   76.6809  221.8013 H   0  0  0  0  0  0  0  0  0  0  0  0
  143.4743   78.9909  221.8453 H   0  0  0  0  0  0  0  0  0  0  0  0
  143.5365   80.9862  223.2758 H   0  0  0  0  0  0  0  0  0  0  0  0
  141.4900   81.7962  224.4400 H   0  0  0  0  0  0  0  0  0  0  0  0
  139.3157   78.5120  222.6726 H   0  0  0  0  0  0  0  0  0  0  0  0
  139.2675   70.0471  222.4998 H   0  0  0  0  0  0  0  0  0  0  0  0
  138.8192   68.5112  224.3813 H   0  0  0  0  0  0  0  0  0  0  0  0
  139.0239   68.0394  226.7052 H   0  0  0  0  0  0  0  0  0  0  0  0
  139.8035   68.6812  228.9710 H   0  0  0  0  0  0  0  0  0  0  0  0
  141.0135   70.8276  229.3382 H   0  0  0  0  0  0  0  0  0  0  0  0
  141.4138   72.3141  227.3741 H   0  0  0  0  0  0  0  0  0  0  0  0
  1  2  2  0
  2  3  1  0
  3  4  1  0
  4  5  1  0
  5  6  2  0
  5  7  1  0
  7  8  1  0
  8  9  1  0
  9 10  1  0
 10 11  1  0
 11 12  1  0
 12 13  2  0
 13 14  1  0
 14 15  2  0
 15 16  1  0
 16 17  1  0
 16 18  2  0
  2 19  1  0
 19 20  2  0
 20 21  1  0
 21 22  2  0
 22 23  1  0
 23 24  2  0
 24 25  1  0
 25 26  2  0
 26 27  1  0
 27 28  2  0
 11  7  1  0
 18 12  1  0
 28 19  1  0
 27 22  1  0
  3 29  1  0
  4 30  1  0
  4 31  1  0
  8 32  1  0
  8 33  1  0
  9 34  1  0
  9 35  1  0
 10 36  1  0
 10 37  1  0
 11 38  1  1
 13 39  1  0
 14 40  1  0
 15 41  1  0
 18 42  1  0
 20 43  1  0
 21 44  1  0
 23 45  1  0
 24 46  1  0
 25 47  1  0
 26 48  1  0
M  END
>  <smiles>  (80) 
O=C(NCC(=O)N1CCCC1c1cccc(F)c1)c1ccc2ccccc2n1

>  <score_type>  (80) 
oracle

>  <origin>  (80) 
autodockgpu

>  <m_score__min__energy>  (80) 
-8.8699999999999992

>  <m_primary>  (80) 
energy

>  <rmsd>  (80) 
1.9831474119367027

>  <m_score__min__rmsd>  (80) 
1.9831474119367027

>  <meeko>  (80) 
{"free_energy": -8.76, "intermolecular_energy": -10.26, "internal_energy": -1.37, "cluster_size": 38, "cluster_id": 1, "rank_in_cluster": 15}

>  <energy>  (80) 
-8.5

>  <cluster_rmsd>  (80) 
1.47

>  <cluster>  (80) 
1

$$$$

     RDKit          3D

 48 51  0  0  0  0  0  0  0  0999 V2000
  141.4510   72.2760  221.8290 O   0  0  0  0  0  0  0  0  0  0  0  0
  140.4720   72.3820  222.6260 C   0  0  0  0  0  0  0  0  0  0  0  0
  139.5580   73.4420  222.3820 N   0  0  0  0  0  0  0  0  0  0  0  0
  139.7340   74.3480  221.2880 C   0  0  0  0  0  0  0  0  0  0  0  0
  139.3610   75.7310  221.6050 C   0  0  0  0  0  0  0  0  0  0  0  0
  138.4780   75.9320  222.4660 O   0  0  0  0  0  0  0  0  0  0  0  0
  139.9480   76.8600  220.9860 N   0  0  0  0  0  0  0  0  0  0  0  0
  139.2850   77.8570  220.1530 C   0  0  0  0  0  0  0  0  0  0  0  0
  140.3190   78.5350  219.3220 C   0  0  0  0  0  0  0  0  0  0  0  0
  141.5760   77.7400  219.5680 C   0  0  0  0  0  0  0  0  0  0  0  0
  141.3420   77.3120  221.0120 C   0  0  1  0  0  0  0  0  0  0  0  0
  141.5250   78.4630  221.8870 C   0  0  0  0  0  0  0  0  0  0  0  0
  141.4530   78.2530  223.2580 C   0  0  0  0  0  0  0  0  0  0  0  0
  141.6200   79.2820  224.1730 C   0  0  0  0  0  0  0  0  0  0  0  0
  141.8680   80.5740  223.7660 C   0  0  0  0  0  0  0  0  0  0  0  0
  141.9430   80.7990  222.4090 C   0  0  0  0  0  0  0  0  0  0  0  0
  142.1850   82.0560  221.9790 F   0  0  0  0  0  0  0  0  0  0  0  0
  141.7740   79.7570  221.4890 C   0  0  0  0  0  0  0  0  0  0  0  0
  140.2800   71.4650  223.7470 C   0  0  0  0  0  0  0  0  0  0  0  0
  139.5990   70.2880  223.5080 C   0  0  0  0  0  0  0  0  0  0  0  0
  139.3810   69.3840  224.5030 C   0  0  0  0  0  0  0  0  0  0  0  0
  139.8640   69.6820  225.7660 C   0  0  0  0  0  0  0  0  0  0  0  0
  139.6610   68.7970  226.7810 C   0  0  0  0  0  0  0  0  0  0  0  0
  140.1440   69.0940  228.0440 C   0  0  0  0  0  0  0  0  0  0  0  0
  140.8270   70.2670  228.2960 C   0  0  0  0  0  0  0  0  0  0  0  0
  141.0100   71.1430  227.2290 C   0  0  0  0  0  0  0  0  0  0  0  0
  140.5400   70.8650  225.9740 C   0  0  0  0  0  0  0  0  0  0  0  0
  140.7540   71.7590  224.9850 N   0  0  0  0  0  0  0  0  0  0  0  0
  138.7550   73.5250  223.0430 H   0  0  0  0  0  0  0  0  0  0  0  0
  140.7930   74.3328  220.9908 H   0  0  0  0  0  0  0  0  0  0  0  0
  139.0679   74.0113  220.4800 H   0  0  0  0  0  0  0  0  0  0  0  0
  138.5473   77.3660  219.5013 H   0  0  0  0  0  0  0  0  0  0  0  0
  138.7642   78.5922  220.7841 H   0  0  0  0  0  0  0  0  0  0  0  0
  140.0428   78.5075  218.2576 H   0  0  0  0  0  0  0  0  0  0  0  0
  140.4364   79.5973  219.5821 H   0  0  0  0  0  0  0  0  0  0  0  0
  141.6501   76.8747  218.8929 H   0  0  0  0  0  0  0  0  0  0  0  0
  142.5127   78.2899  219.3944 H   0  0  0  0  0  0  0  0  0  0  0  0
  142.0267   76.5354  221.3836 H   0  0  0  0  0  0  0  0  0  0  0  0
  141.2570   77.2368  223.6306 H   0  0  0  0  0  0  0  0  0  0  0  0
  141.5528   79.0609  225.2485 H   0  0  0  0  0  0  0  0  0  0  0  0
  142.0003   81.3898  224.4919 H   0  0  0  0  0  0  0  0  0  0  0  0
  141.8424   79.9796  220.4139 H   0  0  0  0  0  0  0  0  0  0  0  0
  139.2256   70.0765  222.4952 H   0  0  0  0  0  0  0  0  0  0  0  0
  138.8384   68.4469  224.3095 H   0  0  0  0  0  0  0  0  0  0  0  0
  139.1194   67.8569  226.5994 H   0  0  0  0  0  0  0  0  0  0  0  0
  139.9800   68.3799  228.8645 H   0  0  0  0  0  0  0  0  0  0  0  0
  141.2114   70.5004  229.2999 H   0  0  0  0  0  0  0  0  0  0  0  0
  141.5485   72.0868  227.4000 H   0  0  0  0  0  0  0  0  0  0  0  0
  1  2  2  0
  2  3  1  0
  3  4  1  0
  4  5  1  0
  5  6  2  0
  5  7  1  0
  7  8  1  0
  8  9  1  0
  9 10  1  0
 10 11  1  0
 11 12  1  0
 12 13  2  0
 13 14  1  0
 14 15  2  0
 15 16  1  0
 16 17  1  0
 16 18  2  0
  2 19  1  0
 19 20  2  0
 20 21  1  0
 21 22  2  0
 22 23  1  0
 23 24  2  0
 24 25  1  0
 25 26  2  0
 26 27  1  0
 27 28  2  0
 11  7  1  0
 18 12  1  0
 28 19  1  0
 27 22  1  0
  3 29  1  0
  4 30  1  0
  4 31  1  0
  8 32  1  0
  8 33  1  0
  9 34  1  0
  9 35  1  0
 10 36  1  0
 10 37  1  0
 11 38  1  1
 13 39  1  0
 14 40  1  0
 15 41  1  0
 18 42  1  0
 20 43  1  0
 21 44  1  0
 23 45  1  0
 24 46  1  0
 25 47  1  0
 26 48  1  0
M  END
>  <smiles>  (81) 
O=C(NCC(=O)N1CCCC1c1cccc(F)c1)c1ccc2ccccc2n1

>  <score_type>  (81) 
oracle

>  <origin>  (81) 
autodockgpu

>  <m_score__min__energy>  (81) 
-8.8699999999999992

>  <m_primary>  (81) 
energy

>  <rmsd>  (81) 
1.8860217157157344

>  <m_score__min__rmsd>  (81) 
1.8860217157157344

>  <meeko>  (81) 
{"free_energy": -8.71, "intermolecular_energy": -10.2, "internal_energy": -1.18, "cluster_size": 38, "cluster_id": 1, "rank_in_cluster": 18}

>  <energy>  (81) 
-8.5

>  <cluster_rmsd>  (81) 
0.97

>  <cluster>  (81) 
1

$$$$

     RDKit          3D

 48 51  0  0  0  0  0  0  0  0999 V2000
  140.8160   73.2890  222.2920 O   0  0  0  0  0  0  0  0  0  0  0  0
  139.7440   72.7690  222.7240 C   0  0  0  0  0  0  0  0  0  0  0  0
  138.5260   73.3390  222.2670 N   0  0  0  0  0  0  0  0  0  0  0  0
  138.5080   74.4480  221.3620 C   0  0  0  0  0  0  0  0  0  0  0  0
  138.8350   75.7300  221.9970 C   0  0  0  0  0  0  0  0  0  0  0  0
  138.3030   76.0090  223.0920 O   0  0  0  0  0  0  0  0  0  0  0  0
  139.7260   76.6750  221.4360 N   0  0  0  0  0  0  0  0  0  0  0  0
  139.5090   77.5010  220.2540 C   0  0  0  0  0  0  0  0  0  0  0  0
  140.8370   77.9420  219.7400 C   0  0  0  0  0  0  0  0  0  0  0  0
  141.8320   77.1620  220.5610 C   0  0  0  0  0  0  0  0  0  0  0  0
  141.0700   77.0600  221.8780 C   0  0  1  0  0  0  0  0  0  0  0  0
  141.0750   78.3610  222.5340 C   0  0  0  0  0  0  0  0  0  0  0  0
  142.2800   79.0500  222.5960 C   0  0  0  0  0  0  0  0  0  0  0  0
  142.3870   80.2970  223.1930 C   0  0  0  0  0  0  0  0  0  0  0  0
  141.2980   80.9210  223.7590 C   0  0  0  0  0  0  0  0  0  0  0  0
  140.0960   80.2510  223.7060 C   0  0  0  0  0  0  0  0  0  0  0  0
  139.0100   80.8360  224.2530 F   0  0  0  0  0  0  0  0  0  0  0  0
  139.9920   78.9920  223.1020 C   0  0  0  0  0  0  0  0  0  0  0  0
  139.7470   71.6370  223.6470 C   0  0  0  0  0  0  0  0  0  0  0  0
  139.0270   70.5140  223.2910 C   0  0  0  0  0  0  0  0  0  0  0  0
  138.9810   69.4190  224.1010 C   0  0  0  0  0  0  0  0  0  0  0  0
  139.6800   69.4680  225.2960 C   0  0  0  0  0  0  0  0  0  0  0  0
  139.6530   68.3880  226.1250 C   0  0  0  0  0  0  0  0  0  0  0  0
  140.3510   68.4350  227.3190 C   0  0  0  0  0  0  0  0  0  0  0  0
  141.0750   69.5520  227.6860 C   0  0  0  0  0  0  0  0  0  0  0  0
  141.0740   70.6320  226.8080 C   0  0  0  0  0  0  0  0  0  0  0  0
  140.3890   70.6030  225.6230 C   0  0  0  0  0  0  0  0  0  0  0  0
  140.4320   71.6860  224.8180 N   0  0  0  0  0  0  0  0  0  0  0  0
  137.6470   72.9060  222.6250 H   0  0  0  0  0  0  0  0  0  0  0  0
  139.2413   74.2579  220.5644 H   0  0  0  0  0  0  0  0  0  0  0  0
  137.4816   74.5321  220.9753 H   0  0  0  0  0  0  0  0  0  0  0  0
  138.9872   76.9160  219.4823 H   0  0  0  0  0  0  0  0  0  0  0  0
  138.8930   78.3754  220.5109 H   0  0  0  0  0  0  0  0  0  0  0  0
  140.9404   77.7023  218.6714 H   0  0  0  0  0  0  0  0  0  0  0  0
  140.9812   79.0291  219.8265 H   0  0  0  0  0  0  0  0  0  0  0  0
  142.0310   76.1710  220.1271 H   0  0  0  0  0  0  0  0  0  0  0  0
  142.8288   77.6207  220.6378 H   0  0  0  0  0  0  0  0  0  0  0  0
  141.4909   76.3504  222.6056 H   0  0  0  0  0  0  0  0  0  0  0  0
  143.1784   78.5913  222.1572 H   0  0  0  0  0  0  0  0  0  0  0  0
  143.3652   80.7996  223.2149 H   0  0  0  0  0  0  0  0  0  0  0  0
  141.3842   81.9102  224.2323 H   0  0  0  0  0  0  0  0  0  0  0  0
  139.0129   78.4911  223.0809 H   0  0  0  0  0  0  0  0  0  0  0  0
  138.4806   70.5029  222.3363 H   0  0  0  0  0  0  0  0  0  0  0  0
  138.4073   68.5250  223.8151 H   0  0  0  0  0  0  0  0  0  0  0  0
  139.0830   67.4887  225.8488 H   0  0  0  0  0  0  0  0  0  0  0  0
  140.3286   67.5638  227.9901 H   0  0  0  0  0  0  0  0  0  0  0  0
  141.6306   69.5869  228.6347 H   0  0  0  0  0  0  0  0  0  0  0  0
  141.6408   71.5363  227.0743 H   0  0  0  0  0  0  0  0  0  0  0  0
  1  2  2  0
  2  3  1  0
  3  4  1  0
  4  5  1  0
  5  6  2  0
  5  7  1  0
  7  8  1  0
  8  9  1  0
  9 10  1  0
 10 11  1  0
 11 12  1  0
 12 13  2  0
 13 14  1  0
 14 15  2  0
 15 16  1  0
 16 17  1  0
 16 18  2  0
  2 19  1  0
 19 20  2  0
 20 21  1  0
 21 22  2  0
 22 23  1  0
 23 24  2  0
 24 25  1  0
 25 26  2  0
 26 27  1  0
 27 28  2  0
 11  7  1  0
 18 12  1  0
 28 19  1  0
 27 22  1  0
  3 29  1  0
  4 30  1  0
  4 31  1  0
  8 32  1  0
  8 33  1  0
  9 34  1  0
  9 35  1  0
 10 36  1  0
 10 37  1  0
 11 38  1  1
 13 39  1  0
 14 40  1  0
 15 41  1  0
 18 42  1  0
 20 43  1  0
 21 44  1  0
 23 45  1  0
 24 46  1  0
 25 47  1  0
 26 48  1  0
M  END
>  <smiles>  (82) 
O=C(NCC(=O)N1CCCC1c1cccc(F)c1)c1ccc2ccccc2n1

>  <score_type>  (82) 
oracle

>  <origin>  (82) 
autodockgpu

>  <m_score__min__energy>  (82) 
-8.8699999999999992

>  <m_primary>  (82) 
energy

>  <rmsd>  (82) 
1.959688016711966

>  <m_score__min__rmsd>  (82) 
1.959688016711966

>  <meeko>  (82) 
{"free_energy": -8.47, "intermolecular_energy": -9.96, "internal_energy": -1.28, "cluster_size": 38, "cluster_id": 1, "rank_in_cluster": 33}

>  <energy>  (82) 
-8.49

>  <cluster_rmsd>  (82) 
1.0

>  <cluster>  (82) 
1

$$$$

     RDKit          3D

 48 51  0  0  0  0  0  0  0  0999 V2000
  141.2860   72.1780  221.6450 O   0  0  0  0  0  0  0  0  0  0  0  0
  140.4130   72.4160  222.5330 C   0  0  0  0  0  0  0  0  0  0  0  0
  139.6150   73.5770  222.3520 N   0  0  0  0  0  0  0  0  0  0  0  0
  139.7870   74.4380  221.2210 C   0  0  0  0  0  0  0  0  0  0  0  0
  139.3940   75.8290  221.4750 C   0  0  0  0  0  0  0  0  0  0  0  0
  138.3750   76.0470  222.1640 O   0  0  0  0  0  0  0  0  0  0  0  0
  140.1090   76.9450  220.9820 N   0  0  0  0  0  0  0  0  0  0  0  0
  139.6770   77.8910  219.9600 C   0  0  0  0  0  0  0  0  0  0  0  0
  140.8840   78.5600  219.4000 C   0  0  0  0  0  0  0  0  0  0  0  0
  142.0420   77.8060  220.0030 C   0  0  0  0  0  0  0  0  0  0  0  0
  141.4410   77.4320  221.3530 C   0  0  1  0  0  0  0  0  0  0  0  0
  141.3720   78.6220  222.1920 C   0  0  0  0  0  0  0  0  0  0  0  0
  142.5370   79.3580  222.3690 C   0  0  0  0  0  0  0  0  0  0  0  0
  142.5740   80.5080  223.1410 C   0  0  0  0  0  0  0  0  0  0  0  0
  141.4490   80.9850  223.7780 C   0  0  0  0  0  0  0  0  0  0  0  0
  140.2860   80.2660  223.6120 C   0  0  0  0  0  0  0  0  0  0  0  0
  139.1660   80.7070  224.2240 F   0  0  0  0  0  0  0  0  0  0  0  0
  140.2530   79.1050  222.8310 C   0  0  0  0  0  0  0  0  0  0  0  0
  140.2270   71.5480  223.6920 C   0  0  0  0  0  0  0  0  0  0  0  0
  139.5490   70.3590  223.5050 C   0  0  0  0  0  0  0  0  0  0  0  0
  139.3360   69.4980  224.5370 C   0  0  0  0  0  0  0  0  0  0  0  0
  139.8210   69.8500  225.7860 C   0  0  0  0  0  0  0  0  0  0  0  0
  139.6230   69.0080  226.8370 C   0  0  0  0  0  0  0  0  0  0  0  0
  140.1080   69.3600  228.0860 C   0  0  0  0  0  0  0  0  0  0  0  0
  140.7880   70.5440  228.2860 C   0  0  0  0  0  0  0  0  0  0  0  0
  140.9670   71.3750  227.1830 C   0  0  0  0  0  0  0  0  0  0  0  0
  140.4940   71.0420  225.9420 C   0  0  0  0  0  0  0  0  0  0  0  0
  140.7040   71.8950  224.9150 N   0  0  0  0  0  0  0  0  0  0  0  0
  138.8980   73.7680  223.0860 H   0  0  0  0  0  0  0  0  0  0  0  0
  140.8482   74.4240  220.9317 H   0  0  0  0  0  0  0  0  0  0  0  0
  139.1305   74.0582  220.4243 H   0  0  0  0  0  0  0  0  0  0  0  0
  139.1436   77.3563  219.1602 H   0  0  0  0  0  0  0  0  0  0  0  0
  138.9992   78.6383  220.3984 H   0  0  0  0  0  0  0  0  0  0  0  0
  140.8982   78.4832  218.3028 H   0  0  0  0  0  0  0  0  0  0  0  0
  140.9151   79.6345  219.6335 H   0  0  0  0  0  0  0  0  0  0  0  0
  142.3019   76.9159  219.4113 H   0  0  0  0  0  0  0  0  0  0  0  0
  142.9847   78.3704  220.0562 H   0  0  0  0  0  0  0  0  0  0  0  0
  142.0135   76.6885  221.9269 H   0  0  0  0  0  0  0  0  0  0  0  0
  143.4611   79.0163  221.8798 H   0  0  0  0  0  0  0  0  0  0  0  0
  143.5236   81.0529  223.2479 H   0  0  0  0  0  0  0  0  0  0  0  0
  141.4784   81.8980  224.3909 H   0  0  0  0  0  0  0  0  0  0  0  0
  139.3026   78.5615  222.7246 H   0  0  0  0  0  0  0  0  0  0  0  0
  139.1742   70.1034  222.5029 H   0  0  0  0  0  0  0  0  0  0  0  0
  138.7956   68.5521  224.3843 H   0  0  0  0  0  0  0  0  0  0  0  0
  139.0843   68.0593  226.6963 H   0  0  0  0  0  0  0  0  0  0  0  0
  139.9476   68.6811  228.9366 H   0  0  0  0  0  0  0  0  0  0  0  0
  141.1737   70.8207  229.2783 H   0  0  0  0  0  0  0  0  0  0  0  0
  141.5038   72.3263  227.3125 H   0  0  0  0  0  0  0  0  0  0  0  0
  1  2  2  0
  2  3  1  0
  3  4  1  0
  4  5  1  0
  5  6  2  0
  5  7  1  0
  7  8  1  0
  8  9  1  0
  9 10  1  0
 10 11  1  0
 11 12  1  0
 12 13  2  0
 13 14  1  0
 14 15  2  0
 15 16  1  0
 16 17  1  0
 16 18  2  0
  2 19  1  0
 19 20  2  0
 20 21  1  0
 21 22  2  0
 22 23  1  0
 23 24  2  0
 24 25  1  0
 25 26  2  0
 26 27  1  0
 27 28  2  0
 11  7  1  0
 18 12  1  0
 28 19  1  0
 27 22  1  0
  3 29  1  0
  4 30  1  0
  4 31  1  0
  8 32  1  0
  8 33  1  0
  9 34  1  0
  9 35  1  0
 10 36  1  0
 10 37  1  0
 11 38  1  1
 13 39  1  0
 14 40  1  0
 15 41  1  0
 18 42  1  0
 20 43  1  0
 21 44  1  0
 23 45  1  0
 24 46  1  0
 25 47  1  0
 26 48  1  0
M  END
>  <smiles>  (83) 
O=C(NCC(=O)N1CCCC1c1cccc(F)c1)c1ccc2ccccc2n1

>  <score_type>  (83) 
oracle

>  <origin>  (83) 
autodockgpu

>  <m_score__min__energy>  (83) 
-8.8699999999999992

>  <m_primary>  (83) 
energy

>  <rmsd>  (83) 
1.9821165740643891

>  <m_score__min__rmsd>  (83) 
1.9821165740643891

>  <meeko>  (83) 
{"free_energy": -8.83, "intermolecular_energy": -10.32, "internal_energy": -1.36, "cluster_size": 38, "cluster_id": 1, "rank_in_cluster": 10}

>  <energy>  (83) 
-8.47

>  <cluster_rmsd>  (83) 
1.36

>  <cluster>  (83) 
1

$$$$

     RDKit          3D

 48 51  0  0  0  0  0  0  0  0999 V2000
  140.2680   71.5000  221.2710 O   0  0  0  0  0  0  0  0  0  0  0  0
  140.0380   72.0660  222.3810 C   0  0  0  0  0  0  0  0  0  0  0  0
  139.7560   73.4580  222.3440 N   0  0  0  0  0  0  0  0  0  0  0  0
  139.7330   74.1870  221.1120 C   0  0  0  0  0  0  0  0  0  0  0  0
  140.8590   75.1150  220.9560 C   0  0  0  0  0  0  0  0  0  0  0  0
  142.0120   74.7040  221.2040 O   0  0  0  0  0  0  0  0  0  0  0  0
  140.7120   76.4580  220.5380 N   0  0  0  0  0  0  0  0  0  0  0  0
  139.4800   77.1350  220.1500 C   0  0  0  0  0  0  0  0  0  0  0  0
  139.8370   78.3200  219.3210 C   0  0  0  0  0  0  0  0  0  0  0  0
  141.3180   78.1740  219.0800 C   0  0  0  0  0  0  0  0  0  0  0  0
  141.7340   77.4970  220.3810 C   0  0  1  0  0  0  0  0  0  0  0  0
  141.6880   78.4740  221.4630 C   0  0  0  0  0  0  0  0  0  0  0  0
  141.4330   78.0070  222.7460 C   0  0  0  0  0  0  0  0  0  0  0  0
  141.3750   78.8550  223.8420 C   0  0  0  0  0  0  0  0  0  0  0  0
  141.5700   80.2120  223.7140 C   0  0  0  0  0  0  0  0  0  0  0  0
  141.8240   80.6900  222.4480 C   0  0  0  0  0  0  0  0  0  0  0  0
  142.0190   82.0170  222.2900 F   0  0  0  0  0  0  0  0  0  0  0  0
  141.8810   79.8310  221.3440 C   0  0  0  0  0  0  0  0  0  0  0  0
  140.0590   71.3360  223.6450 C   0  0  0  0  0  0  0  0  0  0  0  0
  139.5750   70.0420  223.6500 C   0  0  0  0  0  0  0  0  0  0  0  0
  139.5610   69.2980  224.7910 C   0  0  0  0  0  0  0  0  0  0  0  0
  140.0500   69.8800  225.9490 C   0  0  0  0  0  0  0  0  0  0  0  0
  140.0490   69.1590  227.1050 C   0  0  0  0  0  0  0  0  0  0  0  0
  140.5370   69.7390  228.2630 C   0  0  0  0  0  0  0  0  0  0  0  0
  141.0240   71.0310  228.2710 C   0  0  0  0  0  0  0  0  0  0  0  0
  141.0050   71.7300  227.0670 C   0  0  0  0  0  0  0  0  0  0  0  0
  140.5260   71.1720  225.9130 C   0  0  0  0  0  0  0  0  0  0  0  0
  140.5380   71.9070  224.7800 N   0  0  0  0  0  0  0  0  0  0  0  0
  139.5680   73.9190  223.2610 H   0  0  0  0  0  0  0  0  0  0  0  0
  139.7589   73.4664  220.2813 H   0  0  0  0  0  0  0  0  0  0  0  0
  138.8146   74.7924  221.1131 H   0  0  0  0  0  0  0  0  0  0  0  0
  138.8474   76.4500  219.5663 H   0  0  0  0  0  0  0  0  0  0  0  0
  138.9248   77.4526  221.0449 H   0  0  0  0  0  0  0  0  0  0  0  0
  139.2847   78.3107  218.3697 H   0  0  0  0  0  0  0  0  0  0  0  0
  139.5833   79.2698  219.8145 H   0  0  0  0  0  0  0  0  0  0  0  0
  141.5286   77.5411  218.2053 H   0  0  0  0  0  0  0  0  0  0  0  0
  141.8455   79.1134  218.8580 H   0  0  0  0  0  0  0  0  0  0  0  0
  142.7537   77.0846  220.3856 H   0  0  0  0  0  0  0  0  0  0  0  0
  141.2718   76.9295  222.8978 H   0  0  0  0  0  0  0  0  0  0  0  0
  141.1684   78.4336  224.8368 H   0  0  0  0  0  0  0  0  0  0  0  0
  141.5249   80.8838  224.5838 H   0  0  0  0  0  0  0  0  0  0  0  0
  142.0866   80.2545  220.3498 H   0  0  0  0  0  0  0  0  0  0  0  0
  139.1939   69.6045  222.7155 H   0  0  0  0  0  0  0  0  0  0  0  0
  139.1739   68.2684  224.7927 H   0  0  0  0  0  0  0  0  0  0  0  0
  139.6649   68.1283  227.1178 H   0  0  0  0  0  0  0  0  0  0  0  0
  140.5369   69.1582  229.1971 H   0  0  0  0  0  0  0  0  0  0  0  0
  141.4118   71.4900  229.1924 H   0  0  0  0  0  0  0  0  0  0  0  0
  141.3864   72.7615  227.0427 H   0  0  0  0  0  0  0  0  0  0  0  0
  1  2  2  0
  2  3  1  0
  3  4  1  0
  4  5  1  0
  5  6  2  0
  5  7  1  0
  7  8  1  0
  8  9  1  0
  9 10  1  0
 10 11  1  0
 11 12  1  0
 12 13  2  0
 13 14  1  0
 14 15  2  0
 15 16  1  0
 16 17  1  0
 16 18  2  0
  2 19  1  0
 19 20  2  0
 20 21  1  0
 21 22  2  0
 22 23  1  0
 23 24  2  0
 24 25  1  0
 25 26  2  0
 26 27  1  0
 27 28  2  0
 11  7  1  0
 18 12  1  0
 28 19  1  0
 27 22  1  0
  3 29  1  0
  4 30  1  0
  4 31  1  0
  8 32  1  0
  8 33  1  0
  9 34  1  0
  9 35  1  0
 10 36  1  0
 10 37  1  0
 11 38  1  6
 13 39  1  0
 14 40  1  0
 15 41  1  0
 18 42  1  0
 20 43  1  0
 21 44  1  0
 23 45  1  0
 24 46  1  0
 25 47  1  0
 26 48  1  0
M  END
>  <smiles>  (84) 
O=C(NCC(=O)N1CCCC1c1cccc(F)c1)c1ccc2ccccc2n1

>  <score_type>  (84) 
oracle

>  <origin>  (84) 
autodockgpu

>  <m_score__min__energy>  (84) 
-8.8699999999999992

>  <m_primary>  (84) 
energy

>  <rmsd>  (84) 
1.6140655993988033

>  <m_score__min__rmsd>  (84) 
1.6140655993988033

>  <meeko>  (84) 
{"free_energy": -8.5, "intermolecular_energy": -9.99, "internal_energy": -1.31, "cluster_size": 38, "cluster_id": 1, "rank_in_cluster": 31}

>  <energy>  (84) 
-8.46

>  <cluster_rmsd>  (84) 
1.31

>  <cluster>  (84) 
1

$$$$

     RDKit          3D

 48 51  0  0  0  0  0  0  0  0999 V2000
  141.4160   72.2760  221.7680 O   0  0  0  0  0  0  0  0  0  0  0  0
  140.4740   72.4690  222.5930 C   0  0  0  0  0  0  0  0  0  0  0  0
  139.6330   73.5890  222.3570 N   0  0  0  0  0  0  0  0  0  0  0  0
  139.8380   74.4590  221.2390 C   0  0  0  0  0  0  0  0  0  0  0  0
  139.4190   75.8430  221.4870 C   0  0  0  0  0  0  0  0  0  0  0  0
  138.3970   76.0450  222.1760 O   0  0  0  0  0  0  0  0  0  0  0  0
  140.1110   76.9710  220.9850 N   0  0  0  0  0  0  0  0  0  0  0  0
  139.6410   77.9260  219.9890 C   0  0  0  0  0  0  0  0  0  0  0  0
  140.8250   78.6100  219.4000 C   0  0  0  0  0  0  0  0  0  0  0  0
  142.0060   77.8580  219.9580 C   0  0  0  0  0  0  0  0  0  0  0  0
  141.4500   77.4620  221.3210 C   0  0  1  0  0  0  0  0  0  0  0  0
  141.4000   78.6420  222.1760 C   0  0  0  0  0  0  0  0  0  0  0  0
  142.5750   79.3600  222.3590 C   0  0  0  0  0  0  0  0  0  0  0  0
  142.6280   80.4990  223.1470 C   0  0  0  0  0  0  0  0  0  0  0  0
  141.5110   80.9810  223.7940 C   0  0  0  0  0  0  0  0  0  0  0  0
  140.3390   80.2800  223.6220 C   0  0  0  0  0  0  0  0  0  0  0  0
  139.2270   80.7270  224.2440 F   0  0  0  0  0  0  0  0  0  0  0  0
  140.2890   79.1300  222.8250 C   0  0  0  0  0  0  0  0  0  0  0  0
  140.2530   71.5900  223.7390 C   0  0  0  0  0  0  0  0  0  0  0  0
  139.4900   70.4560  223.5430 C   0  0  0  0  0  0  0  0  0  0  0  0
  139.2400   69.5890  224.5630 C   0  0  0  0  0  0  0  0  0  0  0  0
  139.7760   69.8790  225.8060 C   0  0  0  0  0  0  0  0  0  0  0  0
  139.5430   69.0300  226.8450 C   0  0  0  0  0  0  0  0  0  0  0  0
  140.0780   69.3190  228.0880 C   0  0  0  0  0  0  0  0  0  0  0  0
  140.8440   70.4490  228.2960 C   0  0  0  0  0  0  0  0  0  0  0  0
  141.0560   71.2890  227.2070 C   0  0  0  0  0  0  0  0  0  0  0  0
  140.5340   71.0180  225.9710 C   0  0  0  0  0  0  0  0  0  0  0  0
  140.7800   71.8760  224.9570 N   0  0  0  0  0  0  0  0  0  0  0  0
  138.8600   73.7430  223.0400 H   0  0  0  0  0  0  0  0  0  0  0  0
  140.9096   74.4593  220.9905 H   0  0  0  0  0  0  0  0  0  0  0  0
  139.2175   74.0769  220.4150 H   0  0  0  0  0  0  0  0  0  0  0  0
  139.0864   77.3973  219.1998 H   0  0  0  0  0  0  0  0  0  0  0  0
  138.9724   78.6632  220.4575 H   0  0  0  0  0  0  0  0  0  0  0  0
  140.8057   78.5458  218.3020 H   0  0  0  0  0  0  0  0  0  0  0  0
  140.8558   79.6819  219.6449 H   0  0  0  0  0  0  0  0  0  0  0  0
  142.2545   76.9775  219.3473 H   0  0  0  0  0  0  0  0  0  0  0  0
  142.9453   78.4296  219.9898 H   0  0  0  0  0  0  0  0  0  0  0  0
  142.0439   76.7148  221.8677 H   0  0  0  0  0  0  0  0  0  0  0  0
  143.4932   79.0133  221.8624 H   0  0  0  0  0  0  0  0  0  0  0  0
  143.5845   81.0308  223.2585 H   0  0  0  0  0  0  0  0  0  0  0  0
  141.5540   81.8848  224.4195 H   0  0  0  0  0  0  0  0  0  0  0  0
  139.3316   78.5999  222.7141 H   0  0  0  0  0  0  0  0  0  0  0  0
  139.0766   70.2492  222.5449 H   0  0  0  0  0  0  0  0  0  0  0  0
  138.6313   68.6866  224.4042 H   0  0  0  0  0  0  0  0  0  0  0  0
  138.9362   68.1244  226.6977 H   0  0  0  0  0  0  0  0  0  0  0  0
  139.8892   68.6343  228.9280 H   0  0  0  0  0  0  0  0  0  0  0  0
  141.2701   70.6763  229.2843 H   0  0  0  0  0  0  0  0  0  0  0  0
  141.6609   72.1976  227.3435 H   0  0  0  0  0  0  0  0  0  0  0  0
  1  2  2  0
  2  3  1  0
  3  4  1  0
  4  5  1  0
  5  6  2  0
  5  7  1  0
  7  8  1  0
  8  9  1  0
  9 10  1  0
 10 11  1  0
 11 12  1  0
 12 13  2  0
 13 14  1  0
 14 15  2  0
 15 16  1  0
 16 17  1  0
 16 18  2  0
  2 19  1  0
 19 20  2  0
 20 21  1  0
 21 22  2  0
 22 23  1  0
 23 24  2  0
 24 25  1  0
 25 26  2  0
 26 27  1  0
 27 28  2  0
 11  7  1  0
 18 12  1  0
 28 19  1  0
 27 22  1  0
  3 29  1  0
  4 30  1  0
  4 31  1  0
  8 32  1  0
  8 33  1  0
  9 34  1  0
  9 35  1  0
 10 36  1  0
 10 37  1  0
 11 38  1  1
 13 39  1  0
 14 40  1  0
 15 41  1  0
 18 42  1  0
 20 43  1  0
 21 44  1  0
 23 45  1  0
 24 46  1  0
 25 47  1  0
 26 48  1  0
M  END
>  <smiles>  (85) 
O=C(NCC(=O)N1CCCC1c1cccc(F)c1)c1ccc2ccccc2n1

>  <score_type>  (85) 
oracle

>  <origin>  (85) 
autodockgpu

>  <m_score__min__energy>  (85) 
-8.8699999999999992

>  <m_primary>  (85) 
energy

>  <rmsd>  (85) 
2.0171755847266124

>  <m_score__min__rmsd>  (85) 
2.0171755847266124

>  <meeko>  (85) 
{"free_energy": -8.8, "intermolecular_energy": -10.29, "internal_energy": -1.35, "cluster_size": 38, "cluster_id": 1, "rank_in_cluster": 13}

>  <energy>  (85) 
-8.43

>  <cluster_rmsd>  (85) 
1.02

>  <cluster>  (85) 
1

$$$$

     RDKit          3D

 48 51  0  0  0  0  0  0  0  0999 V2000
  141.2690   72.4670  221.7000 O   0  0  0  0  0  0  0  0  0  0  0  0
  140.3140   72.5450  222.5280 C   0  0  0  0  0  0  0  0  0  0  0  0
  139.3750   73.5910  222.3260 N   0  0  0  0  0  0  0  0  0  0  0  0
  139.5010   74.5150  221.2390 C   0  0  0  0  0  0  0  0  0  0  0  0
  140.7330   75.3100  221.2830 C   0  0  0  0  0  0  0  0  0  0  0  0
  141.0720   75.8300  222.3670 O   0  0  0  0  0  0  0  0  0  0  0  0
  141.5640   75.5250  220.1590 N   0  0  0  0  0  0  0  0  0  0  0  0
  142.2360   76.7630  219.7790 C   0  0  0  0  0  0  0  0  0  0  0  0
  142.5590   76.6940  218.3270 C   0  0  0  0  0  0  0  0  0  0  0  0
  141.8590   75.4480  217.8480 C   0  0  0  0  0  0  0  0  0  0  0  0
  141.9570   74.5880  219.1030 C   0  0  1  0  0  0  0  0  0  0  0  0
  143.3320   74.1320  219.2630 C   0  0  0  0  0  0  0  0  0  0  0  0
  143.8480   74.0670  220.5510 C   0  0  0  0  0  0  0  0  0  0  0  0
  145.1410   73.6410  220.8090 C   0  0  0  0  0  0  0  0  0  0  0  0
  145.9890   73.2560  219.7930 C   0  0  0  0  0  0  0  0  0  0  0  0
  145.4930   73.3150  218.5100 C   0  0  0  0  0  0  0  0  0  0  0  0
  146.2990   72.9450  217.4920 F   0  0  0  0  0  0  0  0  0  0  0  0
  144.1850   73.7460  218.2540 C   0  0  0  0  0  0  0  0  0  0  0  0
  140.1730   71.6110  223.6420 C   0  0  0  0  0  0  0  0  0  0  0  0
  139.4680   70.4440  223.4190 C   0  0  0  0  0  0  0  0  0  0  0  0
  139.2930   69.5250  224.4090 C   0  0  0  0  0  0  0  0  0  0  0  0
  139.8460   69.7970  225.6500 C   0  0  0  0  0  0  0  0  0  0  0  0
  139.6880   68.8960  226.6580 C   0  0  0  0  0  0  0  0  0  0  0  0
  140.2400   69.1660  227.8990 C   0  0  0  0  0  0  0  0  0  0  0  0
  140.9470   70.3290  228.1340 C   0  0  0  0  0  0  0  0  0  0  0  0
  141.0830   71.2210  227.0740 C   0  0  0  0  0  0  0  0  0  0  0  0
  140.5440   70.9690  225.8420 C   0  0  0  0  0  0  0  0  0  0  0  0
  140.7150   71.8780  224.8580 N   0  0  0  0  0  0  0  0  0  0  0  0
  138.5900   73.6510  223.0110 H   0  0  0  0  0  0  0  0  0  0  0  0
  139.4870   73.9474  220.2969 H   0  0  0  0  0  0  0  0  0  0  0  0
  138.6598   75.2196  221.3158 H   0  0  0  0  0  0  0  0  0  0  0  0
  141.5739   77.6199  219.9723 H   0  0  0  0  0  0  0  0  0  0  0  0
  143.1575   76.8893  220.3663 H   0  0  0  0  0  0  0  0  0  0  0  0
  142.1782   77.5816  217.8006 H   0  0  0  0  0  0  0  0  0  0  0  0
  143.6424   76.6659  218.1385 H   0  0  0  0  0  0  0  0  0  0  0  0
  140.8134   75.6483  217.5714 H   0  0  0  0  0  0  0  0  0  0  0  0
  142.2886   74.9952  216.9422 H   0  0  0  0  0  0  0  0  0  0  0  0
  141.3348   73.6809  219.0957 H   0  0  0  0  0  0  0  0  0  0  0  0
  143.2082   74.3639  221.3951 H   0  0  0  0  0  0  0  0  0  0  0  0
  145.4989   73.6094  221.8487 H   0  0  0  0  0  0  0  0  0  0  0  0
  147.0152   72.9170  219.9978 H   0  0  0  0  0  0  0  0  0  0  0  0
  143.8283   73.7770  217.2139 H   0  0  0  0  0  0  0  0  0  0  0  0
  139.0401   70.2535  222.4237 H   0  0  0  0  0  0  0  0  0  0  0  0
  138.7308   68.5968  224.2291 H   0  0  0  0  0  0  0  0  0  0  0  0
  139.1284   67.9643  226.4888 H   0  0  0  0  0  0  0  0  0  0  0  0
  140.1127   68.4390  228.7147 H   0  0  0  0  0  0  0  0  0  0  0  0
  141.3854   70.5420  229.1201 H   0  0  0  0  0  0  0  0  0  0  0  0
  141.6403   72.1562  227.2316 H   0  0  0  0  0  0  0  0  0  0  0  0
  1  2  2  0
  2  3  1  0
  3  4  1  0
  4  5  1  0
  5  6  2  0
  5  7  1  0
  7  8  1  0
  8  9  1  0
  9 10  1  0
 10 11  1  0
 11 12  1  0
 12 13  2  0
 13 14  1  0
 14 15  2  0
 15 16  1  0
 16 17  1  0
 16 18  2  0
  2 19  1  0
 19 20  2  0
 20 21  1  0
 21 22  2  0
 22 23  1  0
 23 24  2  0
 24 25  1  0
 25 26  2  0
 26 27  1  0
 27 28  2  0
 11  7  1  0
 18 12  1  0
 28 19  1  0
 27 22  1  0
  3 29  1  0
  4 30  1  0
  4 31  1  0
  8 32  1  0
  8 33  1  0
  9 34  1  0
  9 35  1  0
 10 36  1  0
 10 37  1  0
 11 38  1  6
 13 39  1  0
 14 40  1  0
 15 41  1  0
 18 42  1  0
 20 43  1  0
 21 44  1  0
 23 45  1  0
 24 46  1  0
 25 47  1  0
 26 48  1  0
M  END
>  <smiles>  (86) 
O=C(NCC(=O)N1CCCC1c1cccc(F)c1)c1ccc2ccccc2n1

>  <score_type>  (86) 
oracle

>  <origin>  (86) 
autodockgpu

>  <m_score__min__energy>  (86) 
-8.8699999999999992

>  <m_primary>  (86) 
energy

>  <rmsd>  (86) 
2.184148419978155

>  <m_score__min__rmsd>  (86) 
2.184148419978155

>  <meeko>  (86) 
{"free_energy": -8.21, "intermolecular_energy": -9.7, "internal_energy": -1.47, "cluster_size": 5, "cluster_id": 3, "rank_in_cluster": 5}

>  <energy>  (86) 
-8.3

>  <cluster_rmsd>  (86) 
1.59

>  <cluster>  (86) 
1

$$$$

     RDKit          3D

 48 51  0  0  0  0  0  0  0  0999 V2000
  140.5000   72.1430  221.4730 O   0  0  0  0  0  0  0  0  0  0  0  0
  139.6980   72.2120  222.4510 C   0  0  0  0  0  0  0  0  0  0  0  0
  138.6280   73.1390  222.3380 N   0  0  0  0  0  0  0  0  0  0  0  0
  138.4630   73.9580  221.1750 C   0  0  0  0  0  0  0  0  0  0  0  0
  138.4820   75.3970  221.4610 C   0  0  0  0  0  0  0  0  0  0  0  0
  137.5080   75.9010  222.0590 O   0  0  0  0  0  0  0  0  0  0  0  0
  139.5470   76.2520  221.0950 N   0  0  0  0  0  0  0  0  0  0  0  0
  139.6650   77.0480  219.8780 C   0  0  0  0  0  0  0  0  0  0  0  0
  141.1040   77.3700  219.6670 C   0  0  0  0  0  0  0  0  0  0  0  0
  141.8260   76.5500  220.7050 C   0  0  0  0  0  0  0  0  0  0  0  0
  140.7860   76.5530  221.8190 C   0  0  1  0  0  0  0  0  0  0  0  0
  140.7500   77.8740  222.4340 C   0  0  0  0  0  0  0  0  0  0  0  0
  139.5190   78.3560  222.8610 C   0  0  0  0  0  0  0  0  0  0  0  0
  139.3800   79.5970  223.4640 C   0  0  0  0  0  0  0  0  0  0  0  0
  140.4640   80.4220  223.6720 C   0  0  0  0  0  0  0  0  0  0  0  0
  141.6910   79.9580  223.2550 C   0  0  0  0  0  0  0  0  0  0  0  0
  142.7720   80.7440  223.4450 F   0  0  0  0  0  0  0  0  0  0  0  0
  141.8260   78.7040  222.6460 C   0  0  0  0  0  0  0  0  0  0  0  0
  139.8540   71.3840  223.6440 C   0  0  0  0  0  0  0  0  0  0  0  0
  139.4900   70.0550  223.5580 C   0  0  0  0  0  0  0  0  0  0  0  0
  139.6060   69.2210  224.6280 C   0  0  0  0  0  0  0  0  0  0  0  0
  140.1020   69.7470  225.8100 C   0  0  0  0  0  0  0  0  0  0  0  0
  140.2300   68.9370  226.8960 C   0  0  0  0  0  0  0  0  0  0  0  0
  140.7260   69.4620  228.0770 C   0  0  0  0  0  0  0  0  0  0  0  0
  141.0950   70.7890  228.1750 C   0  0  0  0  0  0  0  0  0  0  0  0
  140.9460   71.5810  227.0400 C   0  0  0  0  0  0  0  0  0  0  0  0
  140.4580   71.0770  225.8650 C   0  0  0  0  0  0  0  0  0  0  0  0
  140.3410   71.9020  224.8010 N   0  0  0  0  0  0  0  0  0  0  0  0
  137.9710   73.1920  223.1470 H   0  0  0  0  0  0  0  0  0  0  0  0
  139.2789   73.7325  220.4725 H   0  0  0  0  0  0  0  0  0  0  0  0
  137.4729   73.7261  220.7556 H   0  0  0  0  0  0  0  0  0  0  0  0
  139.2825   76.4751  219.0204 H   0  0  0  0  0  0  0  0  0  0  0  0
  139.0795   77.9744  219.9730 H   0  0  0  0  0  0  0  0  0  0  0  0
  141.4227   77.0839  218.6538 H   0  0  0  0  0  0  0  0  0  0  0  0
  141.3120   78.4459  219.7626 H   0  0  0  0  0  0  0  0  0  0  0  0
  142.0363   75.5316  220.3462 H   0  0  0  0  0  0  0  0  0  0  0  0
  142.8143   76.9368  220.9942 H   0  0  0  0  0  0  0  0  0  0  0  0
  140.9766   75.8416  222.6360 H   0  0  0  0  0  0  0  0  0  0  0  0
  138.6246   77.7323  222.7159 H   0  0  0  0  0  0  0  0  0  0  0  0
  138.3817   79.9305  223.7836 H   0  0  0  0  0  0  0  0  0  0  0  0
  140.3538   81.4067  224.1496 H   0  0  0  0  0  0  0  0  0  0  0  0
  142.8250   78.3722  222.3269 H   0  0  0  0  0  0  0  0  0  0  0  0
  139.0991   69.6627  222.6076 H   0  0  0  0  0  0  0  0  0  0  0  0
  139.3150   68.1626  224.5563 H   0  0  0  0  0  0  0  0  0  0  0  0
  139.9425   67.8769  226.8361 H   0  0  0  0  0  0  0  0  0  0  0  0
  140.8283   68.8083  228.9558 H   0  0  0  0  0  0  0  0  0  0  0  0
  141.4913   71.2041  229.1134 H   0  0  0  0  0  0  0  0  0  0  0  0
  141.2288   72.6429  227.0890 H   0  0  0  0  0  0  0  0  0  0  0  0
  1  2  2  0
  2  3  1  0
  3  4  1  0
  4  5  1  0
  5  6  2  0
  5  7  1  0
  7  8  1  0
  8  9  1  0
  9 10  1  0
 10 11  1  0
 11 12  1  0
 12 13  2  0
 13 14  1  0
 14 15  2  0
 15 16  1  0
 16 17  1  0
 16 18  2  0
  2 19  1  0
 19 20  2  0
 20 21  1  0
 21 22  2  0
 22 23  1  0
 23 24  2  0
 24 25  1  0
 25 26  2  0
 26 27  1  0
 27 28  2  0
 11  7  1  0
 18 12  1  0
 28 19  1  0
 27 22  1  0
  3 29  1  0
  4 30  1  0
  4 31  1  0
  8 32  1  0
  8 33  1  0
  9 34  1  0
  9 35  1  0
 10 36  1  0
 10 37  1  0
 11 38  1  1
 13 39  1  0
 14 40  1  0
 15 41  1  0
 18 42  1  0
 20 43  1  0
 21 44  1  0
 23 45  1  0
 24 46  1  0
 25 47  1  0
 26 48  1  0
M  END
>  <smiles>  (87) 
O=C(NCC(=O)N1CCCC1c1cccc(F)c1)c1ccc2ccccc2n1

>  <score_type>  (87) 
oracle

>  <origin>  (87) 
autodockgpu

>  <m_score__min__energy>  (87) 
-8.8699999999999992

>  <m_primary>  (87) 
energy

>  <rmsd>  (87) 
1.7692768287995508

>  <m_score__min__rmsd>  (87) 
1.7692768287995508

>  <meeko>  (87) 
{"free_energy": -8.24, "intermolecular_energy": -9.73, "internal_energy": -1.32, "cluster_size": 38, "cluster_id": 1, "rank_in_cluster": 38}

>  <energy>  (87) 
-8.26

>  <cluster_rmsd>  (87) 
0.88

>  <cluster>  (87) 
1

$$$$

     RDKit          3D

 48 51  0  0  0  0  0  0  0  0999 V2000
  141.4040   72.0990  221.7450 O   0  0  0  0  0  0  0  0  0  0  0  0
  140.4690   72.3080  222.5740 C   0  0  0  0  0  0  0  0  0  0  0  0
  139.6140   73.4110  222.3110 N   0  0  0  0  0  0  0  0  0  0  0  0
  139.7980   74.2480  221.1640 C   0  0  0  0  0  0  0  0  0  0  0  0
  140.9190   75.1850  221.2940 C   0  0  0  0  0  0  0  0  0  0  0  0
  140.9870   75.9000  222.3160 O   0  0  0  0  0  0  0  0  0  0  0  0
  141.9360   75.3260  220.3200 N   0  0  0  0  0  0  0  0  0  0  0  0
  142.7550   76.5050  220.0610 C   0  0  0  0  0  0  0  0  0  0  0  0
  143.3020   76.4010  218.6790 C   0  0  0  0  0  0  0  0  0  0  0  0
  142.5930   75.2090  218.0860 C   0  0  0  0  0  0  0  0  0  0  0  0
  142.4190   74.3540  219.3360 C   0  0  1  0  0  0  0  0  0  0  0  0
  143.7110   73.7930  219.7130 C   0  0  0  0  0  0  0  0  0  0  0  0
  144.3160   72.9080  218.8300 C   0  0  0  0  0  0  0  0  0  0  0  0
  145.5460   72.3260  219.0940 C   0  0  0  0  0  0  0  0  0  0  0  0
  146.2380   72.5980  220.2540 C   0  0  0  0  0  0  0  0  0  0  0  0
  145.6510   73.4740  221.1400 C   0  0  0  0  0  0  0  0  0  0  0  0
  146.3040   73.7600  222.2870 F   0  0  0  0  0  0  0  0  0  0  0  0
  144.4080   74.0590  220.8690 C   0  0  0  0  0  0  0  0  0  0  0  0
  140.2700   71.4630  223.7480 C   0  0  0  0  0  0  0  0  0  0  0  0
  139.5620   70.2890  223.5850 C   0  0  0  0  0  0  0  0  0  0  0  0
  139.3340   69.4500  224.6330 C   0  0  0  0  0  0  0  0  0  0  0  0
  139.8360   69.8110  225.8730 C   0  0  0  0  0  0  0  0  0  0  0  0
  139.6250   68.9910  226.9390 C   0  0  0  0  0  0  0  0  0  0  0  0
  140.1260   69.3510  228.1780 C   0  0  0  0  0  0  0  0  0  0  0  0
  140.8350   70.5220  228.3550 C   0  0  0  0  0  0  0  0  0  0  0  0
  141.0270   71.3300  227.2370 C   0  0  0  0  0  0  0  0  0  0  0  0
  140.5380   70.9890  226.0050 C   0  0  0  0  0  0  0  0  0  0  0  0
  140.7620   71.8190  224.9630 N   0  0  0  0  0  0  0  0  0  0  0  0
  138.8460   73.5780  222.9970 H   0  0  0  0  0  0  0  0  0  0  0  0
  139.9817   73.6052  220.2904 H   0  0  0  0  0  0  0  0  0  0  0  0
  138.8846   74.8512  221.0552 H   0  0  0  0  0  0  0  0  0  0  0  0
  142.1394   77.4122  220.1500 H   0  0  0  0  0  0  0  0  0  0  0  0
  143.5766   76.5630  220.7901 H   0  0  0  0  0  0  0  0  0  0  0  0
  143.0813   77.3118  218.1031 H   0  0  0  0  0  0  0  0  0  0  0  0
  144.3961   76.2876  218.6676 H   0  0  0  0  0  0  0  0  0  0  0  0
  141.6249   75.4881  217.6446 H   0  0  0  0  0  0  0  0  0  0  0  0
  143.1267   74.7171  217.2594 H   0  0  0  0  0  0  0  0  0  0  0  0
  141.7361   73.4990  219.2238 H   0  0  0  0  0  0  0  0  0  0  0  0
  143.8018   72.6606  217.8896 H   0  0  0  0  0  0  0  0  0  0  0  0
  145.9798   71.6307  218.3602 H   0  0  0  0  0  0  0  0  0  0  0  0
  147.2145   72.1367  220.4629 H   0  0  0  0  0  0  0  0  0  0  0  0
  143.9749   74.7535  221.6039 H   0  0  0  0  0  0  0  0  0  0  0  0
  139.1747   70.0264  222.5895 H   0  0  0  0  0  0  0  0  0  0  0  0
  138.7693   68.5155  224.4994 H   0  0  0  0  0  0  0  0  0  0  0  0
  139.0629   68.0533  226.8171 H   0  0  0  0  0  0  0  0  0  0  0  0
  139.9555   68.6896  229.0403 H   0  0  0  0  0  0  0  0  0  0  0  0
  141.2328   70.8059  229.3405 H   0  0  0  0  0  0  0  0  0  0  0  0
  141.5880   72.2697  227.3474 H   0  0  0  0  0  0  0  0  0  0  0  0
  1  2  2  0
  2  3  1  0
  3  4  1  0
  4  5  1  0
  5  6  2  0
  5  7  1  0
  7  8  1  0
  8  9  1  0
  9 10  1  0
 10 11  1  0
 11 12  1  0
 12 13  2  0
 13 14  1  0
 14 15  2  0
 15 16  1  0
 16 17  1  0
 16 18  2  0
  2 19  1  0
 19 20  2  0
 20 21  1  0
 21 22  2  0
 22 23  1  0
 23 24  2  0
 24 25  1  0
 25 26  2  0
 26 27  1  0
 27 28  2  0
 11  7  1  0
 18 12  1  0
 28 19  1  0
 27 22  1  0
  3 29  1  0
  4 30  1  0
  4 31  1  0
  8 32  1  0
  8 33  1  0
  9 34  1  0
  9 35  1  0
 10 36  1  0
 10 37  1  0
 11 38  1  6
 13 39  1  0
 14 40  1  0
 15 41  1  0
 18 42  1  0
 20 43  1  0
 21 44  1  0
 23 45  1  0
 24 46  1  0
 25 47  1  0
 26 48  1  0
M  END
>  <smiles>  (88) 
O=C(NCC(=O)N1CCCC1c1cccc(F)c1)c1ccc2ccccc2n1

>  <score_type>  (88) 
oracle

>  <origin>  (88) 
autodockgpu

>  <m_score__min__energy>  (88) 
-8.8699999999999992

>  <m_primary>  (88) 
energy

>  <rmsd>  (88) 
2.4051635203767083

>  <m_score__min__rmsd>  (88) 
2.4051635203767083

>  <meeko>  (88) 
{"free_energy": -8.58, "intermolecular_energy": -10.07, "internal_energy": -1.42, "cluster_size": 5, "cluster_id": 3, "rank_in_cluster": 1}

>  <energy>  (88) 
-8.24

>  <cluster_rmsd>  (88) 
1.36

>  <cluster>  (88) 
1

$$$$

     RDKit          3D

 48 51  0  0  0  0  0  0  0  0999 V2000
  141.0530   71.7940  221.5530 O   0  0  0  0  0  0  0  0  0  0  0  0
  140.2670   72.1870  222.4670 C   0  0  0  0  0  0  0  0  0  0  0  0
  139.5350   73.3770  222.2130 N   0  0  0  0  0  0  0  0  0  0  0  0
  139.6760   74.0990  220.9850 C   0  0  0  0  0  0  0  0  0  0  0  0
  139.2380   75.4970  221.0710 C   0  0  0  0  0  0  0  0  0  0  0  0
  138.0680   75.7360  221.4400 O   0  0  0  0  0  0  0  0  0  0  0  0
  140.0690   76.5970  220.7580 N   0  0  0  0  0  0  0  0  0  0  0  0
  139.8720   77.5830  219.7020 C   0  0  0  0  0  0  0  0  0  0  0  0
  141.1850   78.2190  219.4030 C   0  0  0  0  0  0  0  0  0  0  0  0
  142.1810   77.4080  220.1920 C   0  0  0  0  0  0  0  0  0  0  0  0
  141.3210   77.0240  221.3910 C   0  0  1  0  0  0  0  0  0  0  0  0
  141.1320   78.1950  222.2370 C   0  0  0  0  0  0  0  0  0  0  0  0
  142.2180   79.0400  222.4270 C   0  0  0  0  0  0  0  0  0  0  0  0
  142.1380   80.1820  223.2080 C   0  0  0  0  0  0  0  0  0  0  0  0
  140.9680   80.5420  223.8410 C   0  0  0  0  0  0  0  0  0  0  0  0
  139.8820   79.7150  223.6620 C   0  0  0  0  0  0  0  0  0  0  0  0
  138.7210   80.0400  224.2700 F   0  0  0  0  0  0  0  0  0  0  0  0
  139.9670   78.5620  222.8720 C   0  0  0  0  0  0  0  0  0  0  0  0
  140.1140   71.4610  223.7250 C   0  0  0  0  0  0  0  0  0  0  0  0
  139.3480   70.3120  223.7160 C   0  0  0  0  0  0  0  0  0  0  0  0
  139.1580   69.5820  224.8500 C   0  0  0  0  0  0  0  0  0  0  0  0
  139.7590   70.0290  226.0160 C   0  0  0  0  0  0  0  0  0  0  0  0
  139.5870   69.3190  227.1650 C   0  0  0  0  0  0  0  0  0  0  0  0
  140.1870   69.7630  228.3310 C   0  0  0  0  0  0  0  0  0  0  0  0
  140.9550   70.9100  228.3520 C   0  0  0  0  0  0  0  0  0  0  0  0
  141.1030   71.6040  227.1540 C   0  0  0  0  0  0  0  0  0  0  0  0
  140.5170   71.1780  225.9930 C   0  0  0  0  0  0  0  0  0  0  0  0
  140.7030   71.9000  224.8670 N   0  0  0  0  0  0  0  0  0  0  0  0
  138.8900   73.6960  222.9690 H   0  0  0  0  0  0  0  0  0  0  0  0
  140.7364   74.0843  220.6929 H   0  0  0  0  0  0  0  0  0  0  0  0
  139.0307   73.6041  220.2443 H   0  0  0  0  0  0  0  0  0  0  0  0
  139.4845   77.0883  218.7992 H   0  0  0  0  0  0  0  0  0  0  0  0
  139.1477   78.3448  220.0261 H   0  0  0  0  0  0  0  0  0  0  0  0
  141.4065   78.1679  218.3267 H   0  0  0  0  0  0  0  0  0  0  0  0
  141.2056   79.2856  219.6711 H   0  0  0  0  0  0  0  0  0  0  0  0
  142.5207   76.5233  219.6334 H   0  0  0  0  0  0  0  0  0  0  0  0
  143.1136   77.9354  220.4412 H   0  0  0  0  0  0  0  0  0  0  0  0
  141.7482   76.2455  222.0402 H   0  0  0  0  0  0  0  0  0  0  0  0
  143.1738   78.7944  221.9411 H   0  0  0  0  0  0  0  0  0  0  0  0
  143.0292   80.8160  223.3254 H   0  0  0  0  0  0  0  0  0  0  0  0
  140.9047   81.4485  224.4608 H   0  0  0  0  0  0  0  0  0  0  0  0
  139.0747   77.9295  222.7551 H   0  0  0  0  0  0  0  0  0  0  0  0
  138.8829   69.9803  222.7760 H   0  0  0  0  0  0  0  0  0  0  0  0
  138.5473   68.6672  224.8407 H   0  0  0  0  0  0  0  0  0  0  0  0
  138.9781   68.4029  227.1668 H   0  0  0  0  0  0  0  0  0  0  0  0
  140.0489   69.1901  229.2598 H   0  0  0  0  0  0  0  0  0  0  0  0
  141.4314   71.2619  229.2789 H   0  0  0  0  0  0  0  0  0  0  0  0
  141.7089   72.5220  227.1404 H   0  0  0  0  0  0  0  0  0  0  0  0
  1  2  2  0
  2  3  1  0
  3  4  1  0
  4  5  1  0
  5  6  2  0
  5  7  1  0
  7  8  1  0
  8  9  1  0
  9 10  1  0
 10 11  1  0
 11 12  1  0
 12 13  2  0
 13 14  1  0
 14 15  2  0
 15 16  1  0
 16 17  1  0
 16 18  2  0
  2 19  1  0
 19 20  2  0
 20 21  1  0
 21 22  2  0
 22 23  1  0
 23 24  2  0
 24 25  1  0
 25 26  2  0
 26 27  1  0
 27 28  2  0
 11  7  1  0
 18 12  1  0
 28 19  1  0
 27 22  1  0
  3 29  1  0
  4 30  1  0
  4 31  1  0
  8 32  1  0
  8 33  1  0
  9 34  1  0
  9 35  1  0
 10 36  1  0
 10 37  1  0
 11 38  1  1
 13 39  1  0
 14 40  1  0
 15 41  1  0
 18 42  1  0
 20 43  1  0
 21 44  1  0
 23 45  1  0
 24 46  1  0
 25 47  1  0
 26 48  1  0
M  END
>  <smiles>  (89) 
O=C(NCC(=O)N1CCCC1c1cccc(F)c1)c1ccc2ccccc2n1

>  <score_type>  (89) 
oracle

>  <origin>  (89) 
autodockgpu

>  <m_score__min__energy>  (89) 
-8.8699999999999992

>  <m_primary>  (89) 
energy

>  <rmsd>  (89) 
1.916518002624937

>  <m_score__min__rmsd>  (89) 
1.916518002624937

>  <meeko>  (89) 
{"free_energy": -8.56, "intermolecular_energy": -10.06, "internal_energy": -1.28, "cluster_size": 38, "cluster_id": 1, "rank_in_cluster": 23}

>  <energy>  (89) 
-8.73

>  <cluster_rmsd>  (89) 
0.0

>  <cluster>  (89) 
2

$$$$

     RDKit          3D

 48 51  0  0  0  0  0  0  0  0999 V2000
  137.4910   76.0370  222.4240 O   0  0  0  0  0  0  0  0  0  0  0  0
  138.7440   76.2250  222.4190 C   0  0  0  0  0  0  0  0  0  0  0  0
  139.5600   75.0960  222.1440 N   0  0  0  0  0  0  0  0  0  0  0  0
  138.9960   73.8060  221.8840 C   0  0  0  0  0  0  0  0  0  0  0  0
  139.8390   72.6940  222.3350 C   0  0  0  0  0  0  0  0  0  0  0  0
  141.0750   72.8690  222.4050 O   0  0  0  0  0  0  0  0  0  0  0  0
  139.3310   71.4240  222.6960 N   0  0  0  0  0  0  0  0  0  0  0  0
  139.5440   70.1560  222.0060 C   0  0  0  0  0  0  0  0  0  0  0  0
  138.4560   69.2190  222.4010 C   0  0  0  0  0  0  0  0  0  0  0  0
  137.4960   70.0730  223.1890 C   0  0  0  0  0  0  0  0  0  0  0  0
  138.4730   71.0550  223.8260 C   0  0  1  0  0  0  0  0  0  0  0  0
  139.2190   70.3730  224.8760 C   0  0  0  0  0  0  0  0  0  0  0  0
  140.3290   71.0190  225.4060 C   0  0  0  0  0  0  0  0  0  0  0  0
  141.0990   70.4580  226.4130 C   0  0  0  0  0  0  0  0  0  0  0  0
  140.8020   69.2210  226.9430 C   0  0  0  0  0  0  0  0  0  0  0  0
  139.7050   68.5680  226.4280 C   0  0  0  0  0  0  0  0  0  0  0  0
  139.3880   67.3540  226.9270 F   0  0  0  0  0  0  0  0  0  0  0  0
  138.9290   69.1390  225.4110 C   0  0  0  0  0  0  0  0  0  0  0  0
  139.3340   77.5350  222.6830 C   0  0  0  0  0  0  0  0  0  0  0  0
  138.4780   78.6010  222.8760 C   0  0  0  0  0  0  0  0  0  0  0  0
  138.9530   79.8520  223.1250 C   0  0  0  0  0  0  0  0  0  0  0  0
  140.3270   80.0240  223.1810 C   0  0  0  0  0  0  0  0  0  0  0  0
  140.8310   81.2640  223.4300 C   0  0  0  0  0  0  0  0  0  0  0  0
  142.2040   81.4370  223.4850 C   0  0  0  0  0  0  0  0  0  0  0  0
  143.0700   80.3790  223.2950 C   0  0  0  0  0  0  0  0  0  0  0  0
  142.5100   79.1300  223.0430 C   0  0  0  0  0  0  0  0  0  0  0  0
  141.1560   78.9420  222.9850 C   0  0  0  0  0  0  0  0  0  0  0  0
  140.6810   77.7020  222.7360 N   0  0  0  0  0  0  0  0  0  0  0  0
  140.5910   75.2570  222.1420 H   0  0  0  0  0  0  0  0  0  0  0  0
  138.0273   73.7396  222.4008 H   0  0  0  0  0  0  0  0  0  0  0  0
  138.8957   73.7122  220.7926 H   0  0  0  0  0  0  0  0  0  0  0  0
  139.5199   70.3162  220.9180 H   0  0  0  0  0  0  0  0  0  0  0  0
  140.5232   69.7360  222.2795 H   0  0  0  0  0  0  0  0  0  0  0  0
  137.9633   68.7974  221.5125 H   0  0  0  0  0  0  0  0  0  0  0  0
  138.8295   68.3623  222.9811 H   0  0  0  0  0  0  0  0  0  0  0  0
  136.7730   70.5831  222.5355 H   0  0  0  0  0  0  0  0  0  0  0  0
  136.8641   69.5218  223.9010 H   0  0  0  0  0  0  0  0  0  0  0  0
  138.0085   71.9308  224.3026 H   0  0  0  0  0  0  0  0  0  0  0  0
  140.6060   72.0085  225.0135 H   0  0  0  0  0  0  0  0  0  0  0  0
  141.9672   71.0130  226.7979 H   0  0  0  0  0  0  0  0  0  0  0  0
  141.4138   68.7756  227.7413 H   0  0  0  0  0  0  0  0  0  0  0  0
  138.0604   68.5832  225.0281 H   0  0  0  0  0  0  0  0  0  0  0  0
  137.3915   78.4361  222.8276 H   0  0  0  0  0  0  0  0  0  0  0  0
  138.2682   80.6993  223.2769 H   0  0  0  0  0  0  0  0  0  0  0  0
  140.1557   82.1183  223.5856 H   0  0  0  0  0  0  0  0  0  0  0  0
  142.6130   82.4385  223.6843 H   0  0  0  0  0  0  0  0  0  0  0  0
  144.1603   80.5176  223.3410 H   0  0  0  0  0  0  0  0  0  0  0  0
  143.1757   78.2685  222.8858 H   0  0  0  0  0  0  0  0  0  0  0  0
  1  2  2  0
  2  3  1  0
  3  4  1  0
  4  5  1  0
  5  6  2  0
  5  7  1  0
  7  8  1  0
  8  9  1  0
  9 10  1  0
 10 11  1  0
 11 12  1  0
 12 13  2  0
 13 14  1  0
 14 15  2  0
 15 16  1  0
 16 17  1  0
 16 18  2  0
  2 19  1  0
 19 20  2  0
 20 21  1  0
 21 22  2  0
 22 23  1  0
 23 24  2  0
 24 25  1  0
 25 26  2  0
 26 27  1  0
 27 28  2  0
 11  7  1  0
 18 12  1  0
 28 19  1  0
 27 22  1  0
  3 29  1  0
  4 30  1  0
  4 31  1  0
  8 32  1  0
  8 33  1  0
  9 34  1  0
  9 35  1  0
 10 36  1  0
 10 37  1  0
 11 38  1  1
 13 39  1  0
 14 40  1  0
 15 41  1  0
 18 42  1  0
 20 43  1  0
 21 44  1  0
 23 45  1  0
 24 46  1  0
 25 47  1  0
 26 48  1  0
M  END
>  <smiles>  (90) 
O=C(NCC(=O)N1CCCC1c1cccc(F)c1)c1ccc2ccccc2n1

>  <score_type>  (90) 
oracle

>  <origin>  (90) 
autodockgpu

>  <m_score__min__energy>  (90) 
-8.8699999999999992

>  <m_primary>  (90) 
energy

>  <rmsd>  (90) 
8.431023184441127

>  <m_score__min__rmsd>  (90) 
8.431023184441127

>  <meeko>  (90) 
{"free_energy": -8.1, "intermolecular_energy": -9.59, "internal_energy": -1.65, "cluster_size": 7, "cluster_id": 2, "rank_in_cluster": 6}

>  <energy>  (90) 
-8.11

>  <cluster_rmsd>  (90) 
0.95

>  <cluster>  (90) 
2

$$$$

     RDKit          3D

 48 51  0  0  0  0  0  0  0  0999 V2000
  141.1110   72.0530  221.4030 O   0  0  0  0  0  0  0  0  0  0  0  0
  140.4080   72.3880  222.4020 C   0  0  0  0  0  0  0  0  0  0  0  0
  139.7860   73.6640  222.3500 N   0  0  0  0  0  0  0  0  0  0  0  0
  139.9460   74.5320  221.2230 C   0  0  0  0  0  0  0  0  0  0  0  0
  139.4750   75.9010  221.4640 C   0  0  0  0  0  0  0  0  0  0  0  0
  138.4400   76.0670  222.1450 O   0  0  0  0  0  0  0  0  0  0  0  0
  140.1290   77.0510  220.9650 N   0  0  0  0  0  0  0  0  0  0  0  0
  139.6160   78.0100  219.9930 C   0  0  0  0  0  0  0  0  0  0  0  0
  140.7720   78.7300  219.3900 C   0  0  0  0  0  0  0  0  0  0  0  0
  141.9820   77.9970  219.9110 C   0  0  0  0  0  0  0  0  0  0  0  0
  141.4640   77.5690  221.2800 C   0  0  1  0  0  0  0  0  0  0  0  0
  141.4050   78.7340  222.1530 C   0  0  0  0  0  0  0  0  0  0  0  0
  142.5830   79.4350  222.3790 C   0  0  0  0  0  0  0  0  0  0  0  0
  142.6290   80.5600  223.1880 C   0  0  0  0  0  0  0  0  0  0  0  0
  141.5020   81.0440  223.8140 C   0  0  0  0  0  0  0  0  0  0  0  0
  140.3260   80.3600  223.6010 C   0  0  0  0  0  0  0  0  0  0  0  0
  139.2040   80.8090  224.2010 F   0  0  0  0  0  0  0  0  0  0  0  0
  140.2840   79.2240  222.7830 C   0  0  0  0  0  0  0  0  0  0  0  0
  140.2360   71.5130  223.5590 C   0  0  0  0  0  0  0  0  0  0  0  0
  139.6260   70.2910  223.3590 C   0  0  0  0  0  0  0  0  0  0  0  0
  139.4300   69.4220  224.3880 C   0  0  0  0  0  0  0  0  0  0  0  0
  139.8640   69.8020  225.6480 C   0  0  0  0  0  0  0  0  0  0  0  0
  139.6830   68.9530  226.6970 C   0  0  0  0  0  0  0  0  0  0  0  0
  140.1160   69.3320  227.9560 C   0  0  0  0  0  0  0  0  0  0  0  0
  140.7280   70.5510  228.1700 C   0  0  0  0  0  0  0  0  0  0  0  0
  140.8920   71.3870  227.0690 C   0  0  0  0  0  0  0  0  0  0  0  0
  140.4700   71.0270  225.8170 C   0  0  0  0  0  0  0  0  0  0  0  0
  140.6620   71.8870  224.7930 N   0  0  0  0  0  0  0  0  0  0  0  0
  139.2090   73.9340  223.1770 H   0  0  0  0  0  0  0  0  0  0  0  0
  141.0143   74.5723  220.9641 H   0  0  0  0  0  0  0  0  0  0  0  0
  139.3333   74.1189  220.4082 H   0  0  0  0  0  0  0  0  0  0  0  0
  139.0571   77.4803  219.2074 H   0  0  0  0  0  0  0  0  0  0  0  0
  138.9405   78.7245  220.4863 H   0  0  0  0  0  0  0  0  0  0  0  0
  140.7307   78.6822  218.2918 H   0  0  0  0  0  0  0  0  0  0  0  0
  140.7837   79.7984  219.6515 H   0  0  0  0  0  0  0  0  0  0  0  0
  142.2368   77.1312  219.2821 H   0  0  0  0  0  0  0  0  0  0  0  0
  142.9089   78.5889  219.9310 H   0  0  0  0  0  0  0  0  0  0  0  0
  142.0868   76.8284  221.8030 H   0  0  0  0  0  0  0  0  0  0  0  0
  143.5098   79.0859  221.9003 H   0  0  0  0  0  0  0  0  0  0  0  0
  143.5884   81.0782  223.3332 H   0  0  0  0  0  0  0  0  0  0  0  0
  141.5395   81.9369  224.4554 H   0  0  0  0  0  0  0  0  0  0  0  0
  139.3239   78.7067  222.6395 H   0  0  0  0  0  0  0  0  0  0  0  0
  139.2918   70.0141  222.3482 H   0  0  0  0  0  0  0  0  0  0  0  0
  138.9428   68.4494  224.2247 H   0  0  0  0  0  0  0  0  0  0  0  0
  139.1983   67.9772  226.5458 H   0  0  0  0  0  0  0  0  0  0  0  0
  139.9693   68.6472  228.8043 H   0  0  0  0  0  0  0  0  0  0  0  0
  141.0724   70.8498  229.1710 H   0  0  0  0  0  0  0  0  0  0  0  0
  141.3747   72.3655  227.2088 H   0  0  0  0  0  0  0  0  0  0  0  0
  1  2  2  0
  2  3  1  0
  3  4  1  0
  4  5  1  0
  5  6  2  0
  5  7  1  0
  7  8  1  0
  8  9  1  0
  9 10  1  0
 10 11  1  0
 11 12  1  0
 12 13  2  0
 13 14  1  0
 14 15  2  0
 15 16  1  0
 16 17  1  0
 16 18  2  0
  2 19  1  0
 19 20  2  0
 20 21  1  0
 21 22  2  0
 22 23  1  0
 23 24  2  0
 24 25  1  0
 25 26  2  0
 26 27  1  0
 27 28  2  0
 11  7  1  0
 18 12  1  0
 28 19  1  0
 27 22  1  0
  3 29  1  0
  4 30  1  0
  4 31  1  0
  8 32  1  0
  8 33  1  0
  9 34  1  0
  9 35  1  0
 10 36  1  0
 10 37  1  0
 11 38  1  1
 13 39  1  0
 14 40  1  0
 15 41  1  0
 18 42  1  0
 20 43  1  0
 21 44  1  0
 23 45  1  0
 24 46  1  0
 25 47  1  0
 26 48  1  0
M  END
>  <smiles>  (91) 
O=C(NCC(=O)N1CCCC1c1cccc(F)c1)c1ccc2ccccc2n1

>  <score_type>  (91) 
oracle

>  <origin>  (91) 
autodockgpu

>  <m_score__min__energy>  (91) 
-8.8699999999999992

>  <m_primary>  (91) 
energy

>  <rmsd>  (91) 
2.003766735960768

>  <m_score__min__rmsd>  (91) 
2.003766735960768

>  <meeko>  (91) 
{"free_energy": -8.69, "intermolecular_energy": -10.18, "internal_energy": -1.37, "cluster_size": 38, "cluster_id": 1, "rank_in_cluster": 19}

>  <energy>  (91) 
-8.11

>  <cluster_rmsd>  (91) 
0.95

>  <cluster>  (91) 
2

$$$$

     RDKit          3D

 48 51  0  0  0  0  0  0  0  0999 V2000
  141.1280   71.5150  221.5780 O   0  0  0  0  0  0  0  0  0  0  0  0
  140.4520   71.8540  222.5940 C   0  0  0  0  0  0  0  0  0  0  0  0
  139.8980   73.1630  222.5870 N   0  0  0  0  0  0  0  0  0  0  0  0
  140.0950   74.0560  221.4860 C   0  0  0  0  0  0  0  0  0  0  0  0
  139.6870   75.4370  221.7690 C   0  0  0  0  0  0  0  0  0  0  0  0
  138.9080   75.6480  222.7230 O   0  0  0  0  0  0  0  0  0  0  0  0
  140.1280   76.5510  221.0180 N   0  0  0  0  0  0  0  0  0  0  0  0
  139.3500   77.3470  220.0750 C   0  0  0  0  0  0  0  0  0  0  0  0
  140.2950   78.0520  219.1650 C   0  0  0  0  0  0  0  0  0  0  0  0
  141.6430   77.4620  219.4970 C   0  0  0  0  0  0  0  0  0  0  0  0
  141.4510   77.1810  220.9830 C   0  0  1  0  0  0  0  0  0  0  0  0
  141.4730   78.4430  221.7140 C   0  0  0  0  0  0  0  0  0  0  0  0
  141.1220   78.4190  223.0580 C   0  0  0  0  0  0  0  0  0  0  0  0
  141.1180   79.5630  223.8410 C   0  0  0  0  0  0  0  0  0  0  0  0
  141.4640   80.7910  223.3220 C   0  0  0  0  0  0  0  0  0  0  0  0
  141.8150   80.8320  221.9910 C   0  0  0  0  0  0  0  0  0  0  0  0
  142.1590   82.0220  221.4540 F   0  0  0  0  0  0  0  0  0  0  0  0
  141.8180   79.6730  221.2040 C   0  0  0  0  0  0  0  0  0  0  0  0
  140.2430   70.9540  223.7250 C   0  0  0  0  0  0  0  0  0  0  0  0
  139.5340   69.7910  223.5010 C   0  0  0  0  0  0  0  0  0  0  0  0
  139.2980   68.9030  224.5060 C   0  0  0  0  0  0  0  0  0  0  0  0
  139.7940   69.2020  225.7640 C   0  0  0  0  0  0  0  0  0  0  0  0
  139.5740   68.3330  226.7880 C   0  0  0  0  0  0  0  0  0  0  0  0
  140.0690   68.6310  228.0470 C   0  0  0  0  0  0  0  0  0  0  0  0
  140.7800   69.7900  228.2830 C   0  0  0  0  0  0  0  0  0  0  0  0
  140.9800   70.6500  227.2080 C   0  0  0  0  0  0  0  0  0  0  0  0
  140.4980   70.3710  225.9570 C   0  0  0  0  0  0  0  0  0  0  0  0
  140.7290   71.2490  224.9580 N   0  0  0  0  0  0  0  0  0  0  0  0
  139.3420   73.4370  223.4270 H   0  0  0  0  0  0  0  0  0  0  0  0
  141.1636   74.0557  221.2250 H   0  0  0  0  0  0  0  0  0  0  0  0
  139.4626   73.6955  220.6613 H   0  0  0  0  0  0  0  0  0  0  0  0
  138.6905   76.6897  219.4893 H   0  0  0  0  0  0  0  0  0  0  0  0
  138.7307   78.0770  220.6167 H   0  0  0  0  0  0  0  0  0  0  0  0
  140.0359   77.8639  218.1126 H   0  0  0  0  0  0  0  0  0  0  0  0
  140.2701   79.1437  219.2974 H   0  0  0  0  0  0  0  0  0  0  0  0
  141.8361   76.5400  218.9289 H   0  0  0  0  0  0  0  0  0  0  0  0
  142.5022   78.1047  219.2545 H   0  0  0  0  0  0  0  0  0  0  0  0
  142.2267   76.5498  221.4411 H   0  0  0  0  0  0  0  0  0  0  0  0
  140.8377   77.4602  223.5162 H   0  0  0  0  0  0  0  0  0  0  0  0
  140.8321   79.4883  224.9006 H   0  0  0  0  0  0  0  0  0  0  0  0
  141.4601   81.6988  223.9432 H   0  0  0  0  0  0  0  0  0  0  0  0
  142.1053   79.7490  220.1449 H   0  0  0  0  0  0  0  0  0  0  0  0
  139.1524   69.5775  222.4916 H   0  0  0  0  0  0  0  0  0  0  0  0
  138.7315   67.9777  224.3244 H   0  0  0  0  0  0  0  0  0  0  0  0
  139.0095   67.4044  226.6178 H   0  0  0  0  0  0  0  0  0  0  0  0
  139.8917   67.9295  228.8755 H   0  0  0  0  0  0  0  0  0  0  0  0
  141.1736   70.0248  229.2830 H   0  0  0  0  0  0  0  0  0  0  0  0
  141.5421   71.5820  227.3676 H   0  0  0  0  0  0  0  0  0  0  0  0
  1  2  2  0
  2  3  1  0
  3  4  1  0
  4  5  1  0
  5  6  2  0
  5  7  1  0
  7  8  1  0
  8  9  1  0
  9 10  1  0
 10 11  1  0
 11 12  1  0
 12 13  2  0
 13 14  1  0
 14 15  2  0
 15 16  1  0
 16 17  1  0
 16 18  2  0
  2 19  1  0
 19 20  2  0
 20 21  1  0
 21 22  2  0
 22 23  1  0
 23 24  2  0
 24 25  1  0
 25 26  2  0
 26 27  1  0
 27 28  2  0
 11  7  1  0
 18 12  1  0
 28 19  1  0
 27 22  1  0
  3 29  1  0
  4 30  1  0
  4 31  1  0
  8 32  1  0
  8 33  1  0
  9 34  1  0
  9 35  1  0
 10 36  1  0
 10 37  1  0
 11 38  1  1
 13 39  1  0
 14 40  1  0
 15 41  1  0
 18 42  1  0
 20 43  1  0
 21 44  1  0
 23 45  1  0
 24 46  1  0
 25 47  1  0
 26 48  1  0
M  END
>  <smiles>  (92) 
O=C(NCC(=O)N1CCCC1c1cccc(F)c1)c1ccc2ccccc2n1

>  <score_type>  (92) 
oracle

>  <origin>  (92) 
autodockgpu

>  <m_score__min__energy>  (92) 
-8.8699999999999992

>  <m_primary>  (92) 
energy

>  <rmsd>  (92) 
1.718449524034859

>  <m_score__min__rmsd>  (92) 
1.718449524034859

>  <meeko>  (92) 
{"free_energy": -8.43, "intermolecular_energy": -9.92, "internal_energy": -1.47, "cluster_size": 38, "cluster_id": 1, "rank_in_cluster": 35}

>  <energy>  (92) 
-8.1

>  <cluster_rmsd>  (92) 
1.04

>  <cluster>  (92) 
2

$$$$

     RDKit          3D

 48 51  0  0  0  0  0  0  0  0999 V2000
  139.8200   71.4180  221.2670 O   0  0  0  0  0  0  0  0  0  0  0  0
  139.7770   72.0070  222.3880 C   0  0  0  0  0  0  0  0  0  0  0  0
  139.5860   73.4140  222.3660 N   0  0  0  0  0  0  0  0  0  0  0  0
  139.4500   74.1350  221.1370 C   0  0  0  0  0  0  0  0  0  0  0  0
  139.1480   75.5590  221.3200 C   0  0  0  0  0  0  0  0  0  0  0  0
  138.0780   75.8770  221.8840 O   0  0  0  0  0  0  0  0  0  0  0  0
  140.0040   76.6010  220.8930 N   0  0  0  0  0  0  0  0  0  0  0  0
  139.7770   77.5410  219.8010 C   0  0  0  0  0  0  0  0  0  0  0  0
  141.0930   78.0970  219.3810 C   0  0  0  0  0  0  0  0  0  0  0  0
  142.1040   77.2800  220.1430 C   0  0  0  0  0  0  0  0  0  0  0  0
  141.3140   76.9980  221.4160 C   0  0  1  0  0  0  0  0  0  0  0  0
  141.2370   78.2190  222.2090 C   0  0  0  0  0  0  0  0  0  0  0  0
  140.0040   78.5630  222.7500 C   0  0  0  0  0  0  0  0  0  0  0  0
  139.8280   79.6990  223.5240 C   0  0  0  0  0  0  0  0  0  0  0  0
  140.8740   80.5520  223.7990 C   0  0  0  0  0  0  0  0  0  0  0  0
  142.1030   80.2250  223.2700 C   0  0  0  0  0  0  0  0  0  0  0  0
  143.1480   81.0420  223.5220 F   0  0  0  0  0  0  0  0  0  0  0  0
  142.2760   79.0760  222.4890 C   0  0  0  0  0  0  0  0  0  0  0  0
  139.9150   71.2850  223.6500 C   0  0  0  0  0  0  0  0  0  0  0  0
  139.5440   69.9550  223.6760 C   0  0  0  0  0  0  0  0  0  0  0  0
  139.6430   69.2170  224.8160 C   0  0  0  0  0  0  0  0  0  0  0  0
  140.1310   69.8410  225.9520 C   0  0  0  0  0  0  0  0  0  0  0  0
  140.2430   69.1280  227.1060 C   0  0  0  0  0  0  0  0  0  0  0  0
  140.7300   69.7510  228.2420 C   0  0  0  0  0  0  0  0  0  0  0  0
  141.1060   71.0800  228.2290 C   0  0  0  0  0  0  0  0  0  0  0  0
  140.9740   71.7700  227.0270 C   0  0  0  0  0  0  0  0  0  0  0  0
  140.4940   71.1690  225.8950 C   0  0  0  0  0  0  0  0  0  0  0  0
  140.3940   71.8990  224.7630 N   0  0  0  0  0  0  0  0  0  0  0  0
  139.5520   73.8930  223.2920 H   0  0  0  0  0  0  0  0  0  0  0  0
  140.3932   74.0490  220.5775 H   0  0  0  0  0  0  0  0  0  0  0  0
  138.6001   73.6926  220.5966 H   0  0  0  0  0  0  0  0  0  0  0  0
  139.3058   77.0205  218.9542 H   0  0  0  0  0  0  0  0  0  0  0  0
  139.1112   78.3519  220.1314 H   0  0  0  0  0  0  0  0  0  0  0  0
  141.2365   77.9813  218.2965 H   0  0  0  0  0  0  0  0  0  0  0  0
  141.1799   79.1735  219.5899 H   0  0  0  0  0  0  0  0  0  0  0  0
  142.3642   76.3532  219.6107 H   0  0  0  0  0  0  0  0  0  0  0  0
  143.0741   77.7742  220.3005 H   0  0  0  0  0  0  0  0  0  0  0  0
  141.7502   76.2332  222.0754 H   0  0  0  0  0  0  0  0  0  0  0  0
  139.1387   77.9117  222.5574 H   0  0  0  0  0  0  0  0  0  0  0  0
  138.8301   79.9247  223.9280 H   0  0  0  0  0  0  0  0  0  0  0  0
  140.7341   81.4537  224.4133 H   0  0  0  0  0  0  0  0  0  0  0  0
  143.2747   78.8513  222.0864 H   0  0  0  0  0  0  0  0  0  0  0  0
  139.1615   69.4832  222.7589 H   0  0  0  0  0  0  0  0  0  0  0  0
  139.3447   68.1584  224.8341 H   0  0  0  0  0  0  0  0  0  0  0  0
  139.9497   68.0682  227.1355 H   0  0  0  0  0  0  0  0  0  0  0  0
  140.8195   69.1754  229.1751 H   0  0  0  0  0  0  0  0  0  0  0  0
  141.4942   71.5735  229.1322 H   0  0  0  0  0  0  0  0  0  0  0  0
  141.2643   72.8302  226.9859 H   0  0  0  0  0  0  0  0  0  0  0  0
  1  2  2  0
  2  3  1  0
  3  4  1  0
  4  5  1  0
  5  6  2  0
  5  7  1  0
  7  8  1  0
  8  9  1  0
  9 10  1  0
 10 11  1  0
 11 12  1  0
 12 13  2  0
 13 14  1  0
 14 15  2  0
 15 16  1  0
 16 17  1  0
 16 18  2  0
  2 19  1  0
 19 20  2  0
 20 21  1  0
 21 22  2  0
 22 23  1  0
 23 24  2  0
 24 25  1  0
 25 26  2  0
 26 27  1  0
 27 28  2  0
 11  7  1  0
 18 12  1  0
 28 19  1  0
 27 22  1  0
  3 29  1  0
  4 30  1  0
  4 31  1  0
  8 32  1  0
  8 33  1  0
  9 34  1  0
  9 35  1  0
 10 36  1  0
 10 37  1  0
 11 38  1  1
 13 39  1  0
 14 40  1  0
 15 41  1  0
 18 42  1  0
 20 43  1  0
 21 44  1  0
 23 45  1  0
 24 46  1  0
 25 47  1  0
 26 48  1  0
M  END
>  <smiles>  (93) 
O=C(NCC(=O)N1CCCC1c1cccc(F)c1)c1ccc2ccccc2n1

>  <score_type>  (93) 
oracle

>  <origin>  (93) 
autodockgpu

>  <m_score__min__energy>  (93) 
-8.8699999999999992

>  <m_primary>  (93) 
energy

>  <rmsd>  (93) 
1.7865388178884132

>  <m_score__min__rmsd>  (93) 
1.7865388178884132

>  <meeko>  (93) 
{"free_energy": -8.46, "intermolecular_energy": -9.95, "internal_energy": -1.36, "cluster_size": 38, "cluster_id": 1, "rank_in_cluster": 34}

>  <energy>  (93) 
-8.1

>  <cluster_rmsd>  (93) 
0.94

>  <cluster>  (93) 
2

$$$$

     RDKit          3D

 48 51  0  0  0  0  0  0  0  0999 V2000
  141.4030   72.3360  221.7200 O   0  0  0  0  0  0  0  0  0  0  0  0
  140.4490   72.4620  222.5450 C   0  0  0  0  0  0  0  0  0  0  0  0
  139.5730   73.5630  222.3480 N   0  0  0  0  0  0  0  0  0  0  0  0
  139.7580   74.4870  221.2700 C   0  0  0  0  0  0  0  0  0  0  0  0
  139.4280   75.8730  221.6190 C   0  0  0  0  0  0  0  0  0  0  0  0
  138.4990   76.0810  222.4290 O   0  0  0  0  0  0  0  0  0  0  0  0
  140.1050   76.9960  221.0880 N   0  0  0  0  0  0  0  0  0  0  0  0
  139.6170   77.9260  220.0770 C   0  0  0  0  0  0  0  0  0  0  0  0
  140.7900   78.6080  219.4630 C   0  0  0  0  0  0  0  0  0  0  0  0
  141.9830   77.8770  220.0250 C   0  0  0  0  0  0  0  0  0  0  0  0
  141.4430   77.5050  221.4010 C   0  0  1  0  0  0  0  0  0  0  0  0
  141.3900   78.7020  222.2320 C   0  0  0  0  0  0  0  0  0  0  0  0
  142.5680   79.4140  222.4170 C   0  0  0  0  0  0  0  0  0  0  0  0
  142.6200   80.5680  223.1840 C   0  0  0  0  0  0  0  0  0  0  0  0
  141.4980   81.0720  223.8050 C   0  0  0  0  0  0  0  0  0  0  0  0
  140.3230   80.3770  223.6310 C   0  0  0  0  0  0  0  0  0  0  0  0
  139.2060   80.8450  224.2280 F   0  0  0  0  0  0  0  0  0  0  0  0
  140.2750   79.2110  222.8560 C   0  0  0  0  0  0  0  0  0  0  0  0
  140.2480   71.5290  223.6490 C   0  0  0  0  0  0  0  0  0  0  0  0
  139.5800   70.3500  223.3840 C   0  0  0  0  0  0  0  0  0  0  0  0
  139.3540   69.4300  224.3620 C   0  0  0  0  0  0  0  0  0  0  0  0
  139.8170   69.7140  225.6370 C   0  0  0  0  0  0  0  0  0  0  0  0
  139.6060   68.8130  226.6350 C   0  0  0  0  0  0  0  0  0  0  0  0
  140.0680   69.0950  227.9100 C   0  0  0  0  0  0  0  0  0  0  0  0
  140.7380   70.2700  228.1880 C   0  0  0  0  0  0  0  0  0  0  0  0
  140.9300   71.1620  227.1370 C   0  0  0  0  0  0  0  0  0  0  0  0
  140.4800   70.8980  225.8720 C   0  0  0  0  0  0  0  0  0  0  0  0
  140.7020   71.8080  224.8980 N   0  0  0  0  0  0  0  0  0  0  0  0
  138.7900   73.6630  223.0300 H   0  0  0  0  0  0  0  0  0  0  0  0
  140.8118   74.4491  220.9569 H   0  0  0  0  0  0  0  0  0  0  0  0
  139.0706   74.1852  220.4660 H   0  0  0  0  0  0  0  0  0  0  0  0
  139.0599   77.3763  219.3040 H   0  0  0  0  0  0  0  0  0  0  0  0
  138.9459   78.6667  220.5362 H   0  0  0  0  0  0  0  0  0  0  0  0
  140.7611   78.5215  218.3668 H   0  0  0  0  0  0  0  0  0  0  0  0
  140.8139   79.6849  219.6861 H   0  0  0  0  0  0  0  0  0  0  0  0
  142.2329   76.9861  219.4302 H   0  0  0  0  0  0  0  0  0  0  0  0
  142.9179   78.4565  220.0359 H   0  0  0  0  0  0  0  0  0  0  0  0
  142.0488   76.7745  221.9572 H   0  0  0  0  0  0  0  0  0  0  0  0
  143.4899   79.0506  221.9395 H   0  0  0  0  0  0  0  0  0  0  0  0
  143.5795   81.0934  223.2994 H   0  0  0  0  0  0  0  0  0  0  0  0
  141.5396   81.9883  224.4122 H   0  0  0  0  0  0  0  0  0  0  0  0
  139.3151   78.6858  222.7429 H   0  0  0  0  0  0  0  0  0  0  0  0
  139.2234   70.1501  222.3628 H   0  0  0  0  0  0  0  0  0  0  0  0
  138.8213   68.4919  224.1471 H   0  0  0  0  0  0  0  0  0  0  0  0
  139.0747   67.8716  226.4314 H   0  0  0  0  0  0  0  0  0  0  0  0
  139.8976   68.3680  228.7177 H   0  0  0  0  0  0  0  0  0  0  0  0
  141.1057   70.4923  229.2006 H   0  0  0  0  0  0  0  0  0  0  0  0
  141.4591   72.1071  227.3289 H   0  0  0  0  0  0  0  0  0  0  0  0
  1  2  2  0
  2  3  1  0
  3  4  1  0
  4  5  1  0
  5  6  2  0
  5  7  1  0
  7  8  1  0
  8  9  1  0
  9 10  1  0
 10 11  1  0
 11 12  1  0
 12 13  2  0
 13 14  1  0
 14 15  2  0
 15 16  1  0
 16 17  1  0
 16 18  2  0
  2 19  1  0
 19 20  2  0
 20 21  1  0
 21 22  2  0
 22 23  1  0
 23 24  2  0
 24 25  1  0
 25 26  2  0
 26 27  1  0
 27 28  2  0
 11  7  1  0
 18 12  1  0
 28 19  1  0
 27 22  1  0
  3 29  1  0
  4 30  1  0
  4 31  1  0
  8 32  1  0
  8 33  1  0
  9 34  1  0
  9 35  1  0
 10 36  1  0
 10 37  1  0
 11 38  1  1
 13 39  1  0
 14 40  1  0
 15 41  1  0
 18 42  1  0
 20 43  1  0
 21 44  1  0
 23 45  1  0
 24 46  1  0
 25 47  1  0
 26 48  1  0
M  END
>  <smiles>  (94) 
O=C(NCC(=O)N1CCCC1c1cccc(F)c1)c1ccc2ccccc2n1

>  <score_type>  (94) 
oracle

>  <origin>  (94) 
autodockgpu

>  <m_score__min__energy>  (94) 
-8.8699999999999992

>  <m_primary>  (94) 
energy

>  <rmsd>  (94) 
1.999715499007574

>  <m_score__min__rmsd>  (94) 
1.999715499007574

>  <meeko>  (94) 
{"free_energy": -8.85, "intermolecular_energy": -10.34, "internal_energy": -1.34, "cluster_size": 38, "cluster_id": 1, "rank_in_cluster": 7}

>  <energy>  (94) 
-8.1

>  <cluster_rmsd>  (94) 
0.98

>  <cluster>  (94) 
2

$$$$

     RDKit          3D

 48 51  0  0  0  0  0  0  0  0999 V2000
  137.4970   76.0840  222.3400 O   0  0  0  0  0  0  0  0  0  0  0  0
  138.7500   76.2490  222.4280 C   0  0  0  0  0  0  0  0  0  0  0  0
  139.5630   75.1010  222.2360 N   0  0  0  0  0  0  0  0  0  0  0  0
  138.9960   73.8170  221.9550 C   0  0  0  0  0  0  0  0  0  0  0  0
  139.8550   72.6950  222.3500 C   0  0  0  0  0  0  0  0  0  0  0  0
  141.0940   72.8570  222.3370 O   0  0  0  0  0  0  0  0  0  0  0  0
  139.3580   71.4310  222.7460 N   0  0  0  0  0  0  0  0  0  0  0  0
  139.5760   70.1490  222.0860 C   0  0  0  0  0  0  0  0  0  0  0  0
  138.4970   69.2140  222.5120 C   0  0  0  0  0  0  0  0  0  0  0  0
  137.5360   70.0810  223.2850 C   0  0  0  0  0  0  0  0  0  0  0  0
  138.5100   71.0850  223.8900 C   0  0  1  0  0  0  0  0  0  0  0  0
  139.2680   70.4340  224.9520 C   0  0  0  0  0  0  0  0  0  0  0  0
  140.3720   71.1040  225.4640 C   0  0  0  0  0  0  0  0  0  0  0  0
  141.1530   70.5740  226.4790 C   0  0  0  0  0  0  0  0  0  0  0  0
  140.8710   69.3460  227.0370 C   0  0  0  0  0  0  0  0  0  0  0  0
  139.7800   68.6690  226.5400 C   0  0  0  0  0  0  0  0  0  0  0  0
  139.4790   67.4620  227.0660 F   0  0  0  0  0  0  0  0  0  0  0  0
  138.9940   69.2090  225.5150 C   0  0  0  0  0  0  0  0  0  0  0  0
  139.3430   77.5530  222.7140 C   0  0  0  0  0  0  0  0  0  0  0  0
  138.4890   78.6160  222.9300 C   0  0  0  0  0  0  0  0  0  0  0  0
  138.9670   79.8620  223.2020 C   0  0  0  0  0  0  0  0  0  0  0  0
  140.3410   80.0310  223.2550 C   0  0  0  0  0  0  0  0  0  0  0  0
  140.8490   81.2650  223.5250 C   0  0  0  0  0  0  0  0  0  0  0  0
  142.2220   81.4350  223.5790 C   0  0  0  0  0  0  0  0  0  0  0  0
  143.0860   80.3800  223.3650 C   0  0  0  0  0  0  0  0  0  0  0  0
  142.5230   79.1360  223.0920 C   0  0  0  0  0  0  0  0  0  0  0  0
  141.1680   78.9510  223.0350 C   0  0  0  0  0  0  0  0  0  0  0  0
  140.6900   77.7170  222.7660 N   0  0  0  0  0  0  0  0  0  0  0  0
  140.5940   75.2430  222.3100 H   0  0  0  0  0  0  0  0  0  0  0  0
  138.0424   73.7321  222.4967 H   0  0  0  0  0  0  0  0  0  0  0  0
  138.8655   73.7543  220.8646 H   0  0  0  0  0  0  0  0  0  0  0  0
  139.5433   70.2822  220.9946 H   0  0  0  0  0  0  0  0  0  0  0  0
  140.5603   69.7430  222.3624 H   0  0  0  0  0  0  0  0  0  0  0  0
  138.0014   68.7667  221.6377 H   0  0  0  0  0  0  0  0  0  0  0  0
  138.8805   68.3747  223.1108 H   0  0  0  0  0  0  0  0  0  0  0  0
  136.8050   70.5694  222.6239 H   0  0  0  0  0  0  0  0  0  0  0  0
  136.9128   69.5436  224.0150 H   0  0  0  0  0  0  0  0  0  0  0  0
  138.0425   71.9695  224.3472 H   0  0  0  0  0  0  0  0  0  0  0  0
  140.6352   72.0885  225.0499 H   0  0  0  0  0  0  0  0  0  0  0  0
  142.0172   71.1464  226.8473 H   0  0  0  0  0  0  0  0  0  0  0  0
  141.4898   68.9255  227.8434 H   0  0  0  0  0  0  0  0  0  0  0  0
  138.1299   68.6356  225.1482 H   0  0  0  0  0  0  0  0  0  0  0  0
  137.4021   78.4536  222.8815 H   0  0  0  0  0  0  0  0  0  0  0  0
  138.2840   80.7070  223.3741 H   0  0  0  0  0  0  0  0  0  0  0  0
  140.1759   82.1176  223.6983 H   0  0  0  0  0  0  0  0  0  0  0  0
  142.6330   82.4318  223.7970 H   0  0  0  0  0  0  0  0  0  0  0  0
  144.1766   80.5166  223.4084 H   0  0  0  0  0  0  0  0  0  0  0  0
  143.1868   78.2765  222.9170 H   0  0  0  0  0  0  0  0  0  0  0  0
  1  2  2  0
  2  3  1  0
  3  4  1  0
  4  5  1  0
  5  6  2  0
  5  7  1  0
  7  8  1  0
  8  9  1  0
  9 10  1  0
 10 11  1  0
 11 12  1  0
 12 13  2  0
 13 14  1  0
 14 15  2  0
 15 16  1  0
 16 17  1  0
 16 18  2  0
  2 19  1  0
 19 20  2  0
 20 21  1  0
 21 22  2  0
 22 23  1  0
 23 24  2  0
 24 25  1  0
 25 26  2  0
 26 27  1  0
 27 28  2  0
 11  7  1  0
 18 12  1  0
 28 19  1  0
 27 22  1  0
  3 29  1  0
  4 30  1  0
  4 31  1  0
  8 32  1  0
  8 33  1  0
  9 34  1  0
  9 35  1  0
 10 36  1  0
 10 37  1  0
 11 38  1  1
 13 39  1  0
 14 40  1  0
 15 41  1  0
 18 42  1  0
 20 43  1  0
 21 44  1  0
 23 45  1  0
 24 46  1  0
 25 47  1  0
 26 48  1  0
M  END
>  <smiles>  (95) 
O=C(NCC(=O)N1CCCC1c1cccc(F)c1)c1ccc2ccccc2n1

>  <score_type>  (95) 
oracle

>  <origin>  (95) 
autodockgpu

>  <m_score__min__energy>  (95) 
-8.8699999999999992

>  <m_primary>  (95) 
energy

>  <rmsd>  (95) 
8.437352706602226

>  <m_score__min__rmsd>  (95) 
8.437352706602226

>  <meeko>  (95) 
{"free_energy": -8.11, "intermolecular_energy": -9.6, "internal_energy": -1.65, "cluster_size": 7, "cluster_id": 2, "rank_in_cluster": 2}

>  <energy>  (95) 
-8.09

>  <cluster_rmsd>  (95) 
0.98

>  <cluster>  (95) 
2

$$$$

     RDKit          3D

 48 51  0  0  0  0  0  0  0  0999 V2000
  141.3890   71.9630  221.6280 O   0  0  0  0  0  0  0  0  0  0  0  0
  140.5520   72.2940  222.5200 C   0  0  0  0  0  0  0  0  0  0  0  0
  139.8560   73.5170  222.3230 N   0  0  0  0  0  0  0  0  0  0  0  0
  140.0880   74.3370  221.1730 C   0  0  0  0  0  0  0  0  0  0  0  0
  139.5000   75.6770  221.2780 C   0  0  0  0  0  0  0  0  0  0  0  0
  138.3570   75.7920  221.7700 O   0  0  0  0  0  0  0  0  0  0  0  0
  140.1560   76.8540  220.8510 N   0  0  0  0  0  0  0  0  0  0  0  0
  139.6860   77.8220  219.8660 C   0  0  0  0  0  0  0  0  0  0  0  0
  140.8610   78.5840  219.3590 C   0  0  0  0  0  0  0  0  0  0  0  0
  142.0510   77.8700  219.9480 C   0  0  0  0  0  0  0  0  0  0  0  0
  141.4520   77.3980  221.2680 C   0  0  1  0  0  0  0  0  0  0  0  0
  141.3020   78.5410  222.1600 C   0  0  0  0  0  0  0  0  0  0  0  0
  142.4090   79.3560  222.3600 C   0  0  0  0  0  0  0  0  0  0  0  0
  142.3660   80.4710  223.1830 C   0  0  0  0  0  0  0  0  0  0  0  0
  141.2150   80.8300  223.8500 C   0  0  0  0  0  0  0  0  0  0  0  0
  140.1090   80.0320  223.6620 C   0  0  0  0  0  0  0  0  0  0  0  0
  138.9660   80.3580  224.3020 F   0  0  0  0  0  0  0  0  0  0  0  0
  140.1570   78.9070  222.8290 C   0  0  0  0  0  0  0  0  0  0  0  0
  140.3060   71.4680  223.6980 C   0  0  0  0  0  0  0  0  0  0  0  0
  139.6020   70.2920  223.5260 C   0  0  0  0  0  0  0  0  0  0  0  0
  139.3320   69.4700  224.5770 C   0  0  0  0  0  0  0  0  0  0  0  0
  139.7870   69.8490  225.8300 C   0  0  0  0  0  0  0  0  0  0  0  0
  139.5330   69.0470  226.8990 C   0  0  0  0  0  0  0  0  0  0  0  0
  139.9860   69.4250  228.1520 C   0  0  0  0  0  0  0  0  0  0  0  0
  140.6910   70.5970  228.3370 C   0  0  0  0  0  0  0  0  0  0  0  0
  140.9280   71.3870  227.2160 C   0  0  0  0  0  0  0  0  0  0  0  0
  140.4860   71.0280  225.9710 C   0  0  0  0  0  0  0  0  0  0  0  0
  140.7520   71.8410  224.9250 N   0  0  0  0  0  0  0  0  0  0  0  0
  139.1690   73.7840  223.0610 H   0  0  0  0  0  0  0  0  0  0  0  0
  141.1741   74.4438  221.0356 H   0  0  0  0  0  0  0  0  0  0  0  0
  139.6049   73.8391  220.3194 H   0  0  0  0  0  0  0  0  0  0  0  0
  139.1962   77.2965  219.0329 H   0  0  0  0  0  0  0  0  0  0  0  0
  138.9602   78.5083  220.3266 H   0  0  0  0  0  0  0  0  0  0  0  0
  140.8966   78.5592  218.2598 H   0  0  0  0  0  0  0  0  0  0  0  0
  140.8264   79.6465  219.6417 H   0  0  0  0  0  0  0  0  0  0  0  0
  142.3717   77.0254  219.3204 H   0  0  0  0  0  0  0  0  0  0  0  0
  142.9580   78.4848  220.0451 H   0  0  0  0  0  0  0  0  0  0  0  0
  142.0573   76.6614  221.8167 H   0  0  0  0  0  0  0  0  0  0  0  0
  143.3509   79.1086  221.8485 H   0  0  0  0  0  0  0  0  0  0  0  0
  143.2716   81.0831  223.3063 H   0  0  0  0  0  0  0  0  0  0  0  0
  141.1813   81.7144  224.5033 H   0  0  0  0  0  0  0  0  0  0  0  0
  139.2502   78.2966  222.7058 H   0  0  0  0  0  0  0  0  0  0  0  0
  139.2529   70.0144  222.5205 H   0  0  0  0  0  0  0  0  0  0  0  0
  138.7705   68.5346  224.4362 H   0  0  0  0  0  0  0  0  0  0  0  0
  138.9740   68.1085  226.7697 H   0  0  0  0  0  0  0  0  0  0  0  0
  139.7797   68.7780  229.0173 H   0  0  0  0  0  0  0  0  0  0  0  0
  141.0518   70.8953  229.3324 H   0  0  0  0  0  0  0  0  0  0  0  0
  141.4867   72.3272  227.3337 H   0  0  0  0  0  0  0  0  0  0  0  0
  1  2  2  0
  2  3  1  0
  3  4  1  0
  4  5  1  0
  5  6  2  0
  5  7  1  0
  7  8  1  0
  8  9  1  0
  9 10  1  0
 10 11  1  0
 11 12  1  0
 12 13  2  0
 13 14  1  0
 14 15  2  0
 15 16  1  0
 16 17  1  0
 16 18  2  0
  2 19  1  0
 19 20  2  0
 20 21  1  0
 21 22  2  0
 22 23  1  0
 23 24  2  0
 24 25  1  0
 25 26  2  0
 26 27  1  0
 27 28  2  0
 11  7  1  0
 18 12  1  0
 28 19  1  0
 27 22  1  0
  3 29  1  0
  4 30  1  0
  4 31  1  0
  8 32  1  0
  8 33  1  0
  9 34  1  0
  9 35  1  0
 10 36  1  0
 10 37  1  0
 11 38  1  1
 13 39  1  0
 14 40  1  0
 15 41  1  0
 18 42  1  0
 20 43  1  0
 21 44  1  0
 23 45  1  0
 24 46  1  0
 25 47  1  0
 26 48  1  0
M  END
>  <smiles>  (96) 
O=C(NCC(=O)N1CCCC1c1cccc(F)c1)c1ccc2ccccc2n1

>  <score_type>  (96) 
oracle

>  <origin>  (96) 
autodockgpu

>  <m_score__min__energy>  (96) 
-8.8699999999999992

>  <m_primary>  (96) 
energy

>  <rmsd>  (96) 
1.992700829660135

>  <m_score__min__rmsd>  (96) 
1.992700829660135

>  <meeko>  (96) 
{"free_energy": -8.65, "intermolecular_energy": -10.14, "internal_energy": -1.36, "cluster_size": 38, "cluster_id": 1, "rank_in_cluster": 21}

>  <energy>  (96) 
-8.58

>  <cluster_rmsd>  (96) 
0.0

>  <cluster>  (96) 
3

$$$$

     RDKit          3D

 48 51  0  0  0  0  0  0  0  0999 V2000
  141.1190   72.7150  221.9710 O   0  0  0  0  0  0  0  0  0  0  0  0
  140.0900   72.5390  222.6880 C   0  0  0  0  0  0  0  0  0  0  0  0
  138.9440   73.3130  222.3640 N   0  0  0  0  0  0  0  0  0  0  0  0
  138.9500   74.2480  221.2810 C   0  0  0  0  0  0  0  0  0  0  0  0
  138.8920   75.6490  221.7120 C   0  0  0  0  0  0  0  0  0  0  0  0
  138.0220   75.9840  222.5440 O   0  0  0  0  0  0  0  0  0  0  0  0
  139.7710   76.6500  221.2370 N   0  0  0  0  0  0  0  0  0  0  0  0
  139.5710   77.5350  220.0960 C   0  0  0  0  0  0  0  0  0  0  0  0
  140.9000   78.0430  219.6560 C   0  0  0  0  0  0  0  0  0  0  0  0
  141.8900   77.2480  220.4690 C   0  0  0  0  0  0  0  0  0  0  0  0
  141.0860   77.0490  221.7490 C   0  0  1  0  0  0  0  0  0  0  0  0
  141.0270   78.3110  222.4760 C   0  0  0  0  0  0  0  0  0  0  0  0
  142.1940   79.0600  222.5690 C   0  0  0  0  0  0  0  0  0  0  0  0
  142.2400   80.2760  223.2330 C   0  0  0  0  0  0  0  0  0  0  0  0
  141.1230   80.8090  223.8390 C   0  0  0  0  0  0  0  0  0  0  0  0
  139.9590   80.0780  223.7550 C   0  0  0  0  0  0  0  0  0  0  0  0
  138.8480   80.5740  224.3400 F   0  0  0  0  0  0  0  0  0  0  0  0
  139.9170   78.8500  223.0840 C   0  0  0  0  0  0  0  0  0  0  0  0
  140.0680   71.5890  223.7970 C   0  0  0  0  0  0  0  0  0  0  0  0
  139.4890   70.3550  223.5780 C   0  0  0  0  0  0  0  0  0  0  0  0
  139.4300   69.4170  224.5630 C   0  0  0  0  0  0  0  0  0  0  0  0
  139.9720   69.7390  225.7970 C   0  0  0  0  0  0  0  0  0  0  0  0
  139.9290   68.8210  226.8010 C   0  0  0  0  0  0  0  0  0  0  0  0
  140.4700   69.1420  228.0350 C   0  0  0  0  0  0  0  0  0  0  0  0
  141.0520   70.3720  228.2660 C   0  0  0  0  0  0  0  0  0  0  0  0
  141.0740   71.2800  227.2110 C   0  0  0  0  0  0  0  0  0  0  0  0
  140.5440   70.9780  225.9860 C   0  0  0  0  0  0  0  0  0  0  0  0
  140.5990   71.9060  225.0060 N   0  0  0  0  0  0  0  0  0  0  0  0
  138.0980   73.1640  222.9580 H   0  0  0  0  0  0  0  0  0  0  0  0
  139.8726   74.1011  220.7003 H   0  0  0  0  0  0  0  0  0  0  0  0
  138.0449   74.0567  220.6858 H   0  0  0  0  0  0  0  0  0  0  0  0
  139.0949   76.9799  219.2743 H   0  0  0  0  0  0  0  0  0  0  0  0
  138.9202   78.3754  220.3792 H   0  0  0  0  0  0  0  0  0  0  0  0
  141.0481   77.8666  218.5804 H   0  0  0  0  0  0  0  0  0  0  0  0
  141.0066   79.1274  219.8069 H   0  0  0  0  0  0  0  0  0  0  0  0
  142.1358   76.2895  219.9886 H   0  0  0  0  0  0  0  0  0  0  0  0
  142.8683   77.7314  220.6079 H   0  0  0  0  0  0  0  0  0  0  0  0
  141.5031   76.3120  222.4511 H   0  0  0  0  0  0  0  0  0  0  0  0
  143.1116   78.6751  222.1001 H   0  0  0  0  0  0  0  0  0  0  0  0
  143.1903   80.8283  223.2772 H   0  0  0  0  0  0  0  0  0  0  0  0
  141.1595   81.7740  224.3656 H   0  0  0  0  0  0  0  0  0  0  0  0
  138.9661   78.2986  223.0416 H   0  0  0  0  0  0  0  0  0  0  0  0
  139.0671   70.1252  222.5884 H   0  0  0  0  0  0  0  0  0  0  0  0
  138.9670   68.4352  224.3850 H   0  0  0  0  0  0  0  0  0  0  0  0
  139.4698   67.8354  226.6343 H   0  0  0  0  0  0  0  0  0  0  0  0
  140.4351   68.4014  228.8476 H   0  0  0  0  0  0  0  0  0  0  0  0
  141.4820   70.6252  229.2463 H   0  0  0  0  0  0  0  0  0  0  0  0
  141.5305   72.2686  227.3665 H   0  0  0  0  0  0  0  0  0  0  0  0
  1  2  2  0
  2  3  1  0
  3  4  1  0
  4  5  1  0
  5  6  2  0
  5  7  1  0
  7  8  1  0
  8  9  1  0
  9 10  1  0
 10 11  1  0
 11 12  1  0
 12 13  2  0
 13 14  1  0
 14 15  2  0
 15 16  1  0
 16 17  1  0
 16 18  2  0
  2 19  1  0
 19 20  2  0
 20 21  1  0
 21 22  2  0
 22 23  1  0
 23 24  2  0
 24 25  1  0
 25 26  2  0
 26 27  1  0
 27 28  2  0
 11  7  1  0
 18 12  1  0
 28 19  1  0
 27 22  1  0
  3 29  1  0
  4 30  1  0
  4 31  1  0
  8 32  1  0
  8 33  1  0
  9 34  1  0
  9 35  1  0
 10 36  1  0
 10 37  1  0
 11 38  1  1
 13 39  1  0
 14 40  1  0
 15 41  1  0
 18 42  1  0
 20 43  1  0
 21 44  1  0
 23 45  1  0
 24 46  1  0
 25 47  1  0
 26 48  1  0
M  END
>  <smiles>  (97) 
O=C(NCC(=O)N1CCCC1c1cccc(F)c1)c1ccc2ccccc2n1

>  <score_type>  (97) 
oracle

>  <origin>  (97) 
autodockgpu

>  <m_score__min__energy>  (97) 
-8.8699999999999992

>  <m_primary>  (97) 
energy

>  <rmsd>  (97) 
1.900853812594839

>  <m_score__min__rmsd>  (97) 
1.900853812594839

>  <meeko>  (97) 
{"free_energy": -8.75, "intermolecular_energy": -10.24, "internal_energy": -1.28, "cluster_size": 38, "cluster_id": 1, "rank_in_cluster": 16}

>  <energy>  (97) 
-8.55

>  <cluster_rmsd>  (97) 
0.13

>  <cluster>  (97) 
3

$$$$

     RDKit          3D

 48 51  0  0  0  0  0  0  0  0999 V2000
  141.3970   72.3320  221.8020 O   0  0  0  0  0  0  0  0  0  0  0  0
  140.4020   72.4180  222.5810 C   0  0  0  0  0  0  0  0  0  0  0  0
  139.4320   73.4090  222.2740 N   0  0  0  0  0  0  0  0  0  0  0  0
  139.5700   74.2700  221.1380 C   0  0  0  0  0  0  0  0  0  0  0  0
  140.6670   75.2360  221.2620 C   0  0  0  0  0  0  0  0  0  0  0  0
  140.8270   75.8230  222.3540 O   0  0  0  0  0  0  0  0  0  0  0  0
  141.5600   75.5440  220.2100 N   0  0  0  0  0  0  0  0  0  0  0  0
  142.2810   76.7940  219.9980 C   0  0  0  0  0  0  0  0  0  0  0  0
  142.6760   76.8700  218.5640 C   0  0  0  0  0  0  0  0  0  0  0  0
  141.9700   75.7040  217.9200 C   0  0  0  0  0  0  0  0  0  0  0  0
  141.9820   74.7130  219.0790 C   0  0  1  0  0  0  0  0  0  0  0  0
  143.3360   74.2010  219.2540 C   0  0  0  0  0  0  0  0  0  0  0  0
  143.8050   74.0420  220.5520 C   0  0  0  0  0  0  0  0  0  0  0  0
  145.0740   73.5560  220.8240 C   0  0  0  0  0  0  0  0  0  0  0  0
  145.9420   73.2020  219.8150 C   0  0  0  0  0  0  0  0  0  0  0  0
  145.4920   73.3540  218.5220 C   0  0  0  0  0  0  0  0  0  0  0  0
  146.3190   73.0160  217.5110 F   0  0  0  0  0  0  0  0  0  0  0  0
  144.2090   73.8450  218.2520 C   0  0  0  0  0  0  0  0  0  0  0  0
  140.2470   71.5480  223.7440 C   0  0  0  0  0  0  0  0  0  0  0  0
  139.5670   70.3590  223.5730 C   0  0  0  0  0  0  0  0  0  0  0  0
  139.3820   69.4960  224.6100 C   0  0  0  0  0  0  0  0  0  0  0  0
  139.8990   69.8480  225.8460 C   0  0  0  0  0  0  0  0  0  0  0  0
  139.7300   69.0050  226.9010 C   0  0  0  0  0  0  0  0  0  0  0  0
  140.2460   69.3560  228.1370 C   0  0  0  0  0  0  0  0  0  0  0  0
  140.9280   70.5420  228.3210 C   0  0  0  0  0  0  0  0  0  0  0  0
  141.0770   71.3740  227.2150 C   0  0  0  0  0  0  0  0  0  0  0  0
  140.5730   71.0420  225.9860 C   0  0  0  0  0  0  0  0  0  0  0  0
  140.7540   71.8950  224.9550 N   0  0  0  0  0  0  0  0  0  0  0  0
  138.6140   73.4770  222.9200 H   0  0  0  0  0  0  0  0  0  0  0  0
  139.7540   73.6472  220.2501 H   0  0  0  0  0  0  0  0  0  0  0  0
  138.6383   74.8491  221.0576 H   0  0  0  0  0  0  0  0  0  0  0  0
  141.6315   77.6452  220.2503 H   0  0  0  0  0  0  0  0  0  0  0  0
  143.1743   76.8291  220.6390 H   0  0  0  0  0  0  0  0  0  0  0  0
  142.3452   77.8199  218.1187 H   0  0  0  0  0  0  0  0  0  0  0  0
  143.7665   76.8288  218.4261 H   0  0  0  0  0  0  0  0  0  0  0  0
  140.9453   75.9645  217.6164 H   0  0  0  0  0  0  0  0  0  0  0  0
  142.4336   75.3371  216.9924 H   0  0  0  0  0  0  0  0  0  0  0  0
  141.3377   73.8316  218.9449 H   0  0  0  0  0  0  0  0  0  0  0  0
  143.1472   74.3108  221.3917 H   0  0  0  0  0  0  0  0  0  0  0  0
  145.3956   73.4505  221.8706 H   0  0  0  0  0  0  0  0  0  0  0  0
  146.9488   72.8155  220.0318 H   0  0  0  0  0  0  0  0  0  0  0  0
  143.8886   73.9495  217.2049 H   0  0  0  0  0  0  0  0  0  0  0  0
  139.1671   70.1038  222.5805 H   0  0  0  0  0  0  0  0  0  0  0  0
  138.8393   68.5494  224.4706 H   0  0  0  0  0  0  0  0  0  0  0  0
  139.1895   68.0555  226.7732 H   0  0  0  0  0  0  0  0  0  0  0  0
  140.1096   68.6754  228.9903 H   0  0  0  0  0  0  0  0  0  0  0  0
  141.3378   70.8189  229.3035 H   0  0  0  0  0  0  0  0  0  0  0  0
  141.6154   72.3261  227.3318 H   0  0  0  0  0  0  0  0  0  0  0  0
  1  2  2  0
  2  3  1  0
  3  4  1  0
  4  5  1  0
  5  6  2  0
  5  7  1  0
  7  8  1  0
  8  9  1  0
  9 10  1  0
 10 11  1  0
 11 12  1  0
 12 13  2  0
 13 14  1  0
 14 15  2  0
 15 16  1  0
 16 17  1  0
 16 18  2  0
  2 19  1  0
 19 20  2  0
 20 21  1  0
 21 22  2  0
 22 23  1  0
 23 24  2  0
 24 25  1  0
 25 26  2  0
 26 27  1  0
 27 28  2  0
 11  7  1  0
 18 12  1  0
 28 19  1  0
 27 22  1  0
  3 29  1  0
  4 30  1  0
  4 31  1  0
  8 32  1  0
  8 33  1  0
  9 34  1  0
  9 35  1  0
 10 36  1  0
 10 37  1  0
 11 38  1  6
 13 39  1  0
 14 40  1  0
 15 41  1  0
 18 42  1  0
 20 43  1  0
 21 44  1  0
 23 45  1  0
 24 46  1  0
 25 47  1  0
 26 48  1  0
M  END
>  <smiles>  (98) 
O=C(NCC(=O)N1CCCC1c1cccc(F)c1)c1ccc2ccccc2n1

>  <score_type>  (98) 
oracle

>  <origin>  (98) 
autodockgpu

>  <m_score__min__energy>  (98) 
-8.8699999999999992

>  <m_primary>  (98) 
energy

>  <rmsd>  (98) 
2.2011112199558034

>  <m_score__min__rmsd>  (98) 
2.2011112199558034

>  <meeko>  (98) 
{"free_energy": -8.4, "intermolecular_energy": -9.89, "internal_energy": -1.47, "cluster_size": 5, "cluster_id": 3, "rank_in_cluster": 4}

>  <energy>  (98) 
-8.43

>  <cluster_rmsd>  (98) 
0.51

>  <cluster>  (98) 
3

$$$$

     RDKit          3D

 48 51  0  0  0  0  0  0  0  0999 V2000
  141.2420   71.8860  221.6070 O   0  0  0  0  0  0  0  0  0  0  0  0
  140.3740   72.2370  222.4600 C   0  0  0  0  0  0  0  0  0  0  0  0
  139.6000   73.3870  222.1500 N   0  0  0  0  0  0  0  0  0  0  0  0
  139.7900   74.1160  220.9330 C   0  0  0  0  0  0  0  0  0  0  0  0
  139.3180   75.5030  220.9980 C   0  0  0  0  0  0  0  0  0  0  0  0
  138.1480   75.7200  221.3810 O   0  0  0  0  0  0  0  0  0  0  0  0
  140.1160   76.6180  220.6500 N   0  0  0  0  0  0  0  0  0  0  0  0
  139.8410   77.6180  219.6260 C   0  0  0  0  0  0  0  0  0  0  0  0
  141.1250   78.2740  219.2530 C   0  0  0  0  0  0  0  0  0  0  0  0
  142.1780   77.4610  219.9620 C   0  0  0  0  0  0  0  0  0  0  0  0
  141.4020   77.0480  221.2080 C   0  0  1  0  0  0  0  0  0  0  0  0
  141.2560   78.2040  222.0840 C   0  0  0  0  0  0  0  0  0  0  0  0
  140.0270   78.3970  222.7020 C   0  0  0  0  0  0  0  0  0  0  0  0
  139.7890   79.4610  223.5580 C   0  0  0  0  0  0  0  0  0  0  0  0
  140.7680   80.3890  223.8420 C   0  0  0  0  0  0  0  0  0  0  0  0
  141.9910   80.2120  223.2370 C   0  0  0  0  0  0  0  0  0  0  0  0
  142.9700   81.1050  223.4950 F   0  0  0  0  0  0  0  0  0  0  0  0
  142.2270   79.1350  222.3730 C   0  0  0  0  0  0  0  0  0  0  0  0
  140.1690   71.5040  223.7060 C   0  0  0  0  0  0  0  0  0  0  0  0
  139.3830   70.3680  223.6640 C   0  0  0  0  0  0  0  0  0  0  0  0
  139.1460   69.6330  224.7850 C   0  0  0  0  0  0  0  0  0  0  0  0
  139.7170   70.0590  225.9730 C   0  0  0  0  0  0  0  0  0  0  0  0
  139.4980   69.3420  227.1100 C   0  0  0  0  0  0  0  0  0  0  0  0
  140.0680   69.7670  228.2980 C   0  0  0  0  0  0  0  0  0  0  0  0
  140.8560   70.9000  228.3520 C   0  0  0  0  0  0  0  0  0  0  0  0
  141.0530   71.6010  227.1660 C   0  0  0  0  0  0  0  0  0  0  0  0
  140.4960   71.1950  225.9840 C   0  0  0  0  0  0  0  0  0  0  0  0
  140.7290   71.9220  224.8700 N   0  0  0  0  0  0  0  0  0  0  0  0
  138.8860   73.6710  222.8570 H   0  0  0  0  0  0  0  0  0  0  0  0
  140.8645   74.1253  220.6976 H   0  0  0  0  0  0  0  0  0  0  0  0
  139.1956   73.6096  220.1583 H   0  0  0  0  0  0  0  0  0  0  0  0
  139.4009   77.1333  218.7421 H   0  0  0  0  0  0  0  0  0  0  0  0
  139.1316   78.3662  220.0092 H   0  0  0  0  0  0  0  0  0  0  0  0
  141.2765   78.2431  218.1639 H   0  0  0  0  0  0  0  0  0  0  0  0
  141.1523   79.3364  219.5369 H   0  0  0  0  0  0  0  0  0  0  0  0
  142.4891   76.5893  219.3676 H   0  0  0  0  0  0  0  0  0  0  0  0
  143.1195   77.9946  220.1591 H   0  0  0  0  0  0  0  0  0  0  0  0
  141.8784   76.2641  221.8150 H   0  0  0  0  0  0  0  0  0  0  0  0
  139.2152   77.6813  222.5054 H   0  0  0  0  0  0  0  0  0  0  0  0
  138.7968   79.5672  224.0210 H   0  0  0  0  0  0  0  0  0  0  0  0
  140.5799   81.2331  224.5218 H   0  0  0  0  0  0  0  0  0  0  0  0
  143.2198   79.0303  221.9111 H   0  0  0  0  0  0  0  0  0  0  0  0
  138.9410   70.0521  222.7075 H   0  0  0  0  0  0  0  0  0  0  0  0
  138.5205   68.7289  224.7486 H   0  0  0  0  0  0  0  0  0  0  0  0
  138.8753   68.4355  227.0848 H   0  0  0  0  0  0  0  0  0  0  0  0
  139.8896   69.1905  229.2177 H   0  0  0  0  0  0  0  0  0  0  0  0
  141.3104   71.2353  229.2960 H   0  0  0  0  0  0  0  0  0  0  0  0
  141.6748   72.5083  227.1792 H   0  0  0  0  0  0  0  0  0  0  0  0
  1  2  2  0
  2  3  1  0
  3  4  1  0
  4  5  1  0
  5  6  2  0
  5  7  1  0
  7  8  1  0
  8  9  1  0
  9 10  1  0
 10 11  1  0
 11 12  1  0
 12 13  2  0
 13 14  1  0
 14 15  2  0
 15 16  1  0
 16 17  1  0
 16 18  2  0
  2 19  1  0
 19 20  2  0
 20 21  1  0
 21 22  2  0
 22 23  1  0
 23 24  2  0
 24 25  1  0
 25 26  2  0
 26 27  1  0
 27 28  2  0
 11  7  1  0
 18 12  1  0
 28 19  1  0
 27 22  1  0
  3 29  1  0
  4 30  1  0
  4 31  1  0
  8 32  1  0
  8 33  1  0
  9 34  1  0
  9 35  1  0
 10 36  1  0
 10 37  1  0
 11 38  1  1
 13 39  1  0
 14 40  1  0
 15 41  1  0
 18 42  1  0
 20 43  1  0
 21 44  1  0
 23 45  1  0
 24 46  1  0
 25 47  1  0
 26 48  1  0
M  END
>  <smiles>  (99) 
O=C(NCC(=O)N1CCCC1c1cccc(F)c1)c1ccc2ccccc2n1

>  <score_type>  (99) 
oracle

>  <origin>  (99) 
autodockgpu

>  <m_score__min__energy>  (99) 
-8.8699999999999992

>  <m_primary>  (99) 
energy

>  <rmsd>  (99) 
1.9077548198988301

>  <m_score__min__rmsd>  (99) 
1.9077548198988301

>  <meeko>  (99) 
{"free_energy": -8.5, "intermolecular_energy": -9.99, "internal_energy": -1.3, "cluster_size": 38, "cluster_id": 1, "rank_in_cluster": 29}

>  <energy>  (99) 
-8.4

>  <cluster_rmsd>  (99) 
1.03

>  <cluster>  (99) 
3

$$$$

     RDKit          3D

 48 51  0  0  0  0  0  0  0  0999 V2000
  139.7760   71.3730  221.3530 O   0  0  0  0  0  0  0  0  0  0  0  0
  139.7600   71.9740  222.4680 C   0  0  0  0  0  0  0  0  0  0  0  0
  139.5880   73.3840  222.4340 N   0  0  0  0  0  0  0  0  0  0  0  0
  139.4390   74.0930  221.1990 C   0  0  0  0  0  0  0  0  0  0  0  0
  139.1060   75.5110  221.3720 C   0  0  0  0  0  0  0  0  0  0  0  0
  138.0160   75.8090  221.9040 O   0  0  0  0  0  0  0  0  0  0  0  0
  139.9540   76.5680  220.9670 N   0  0  0  0  0  0  0  0  0  0  0  0
  139.7440   77.4970  219.8620 C   0  0  0  0  0  0  0  0  0  0  0  0
  141.0620   78.0780  219.4820 C   0  0  0  0  0  0  0  0  0  0  0  0
  142.0640   77.2870  220.2830 C   0  0  0  0  0  0  0  0  0  0  0  0
  141.2380   76.9960  221.5310 C   0  0  1  0  0  0  0  0  0  0  0  0
  141.1080   78.2190  222.3130 C   0  0  0  0  0  0  0  0  0  0  0  0
  142.2270   79.0350  222.4300 C   0  0  0  0  0  0  0  0  0  0  0  0
  142.2040   80.2210  223.1460 C   0  0  0  0  0  0  0  0  0  0  0  0
  141.0630   80.6560  223.7840 C   0  0  0  0  0  0  0  0  0  0  0  0
  139.9460   79.8580  223.6780 C   0  0  0  0  0  0  0  0  0  0  0  0
  138.8120   80.2570  224.2920 F   0  0  0  0  0  0  0  0  0  0  0  0
  139.9730   78.6600  222.9530 C   0  0  0  0  0  0  0  0  0  0  0  0
  139.9100   71.2640  223.7360 C   0  0  0  0  0  0  0  0  0  0  0  0
  139.5680   69.9270  223.7700 C   0  0  0  0  0  0  0  0  0  0  0  0
  139.6800   69.1990  224.9160 C   0  0  0  0  0  0  0  0  0  0  0  0
  140.1510   69.8420  226.0490 C   0  0  0  0  0  0  0  0  0  0  0  0
  140.2750   69.1390  227.2080 C   0  0  0  0  0  0  0  0  0  0  0  0
  140.7450   69.7810  228.3410 C   0  0  0  0  0  0  0  0  0  0  0  0
  141.0910   71.1170  228.3190 C   0  0  0  0  0  0  0  0  0  0  0  0
  140.9480   71.7970  227.1130 C   0  0  0  0  0  0  0  0  0  0  0  0
  140.4850   71.1770  225.9830 C   0  0  0  0  0  0  0  0  0  0  0  0
  140.3720   71.8960  224.8460 N   0  0  0  0  0  0  0  0  0  0  0  0
  139.5760   73.8740  223.3550 H   0  0  0  0  0  0  0  0  0  0  0  0
  140.3849   74.0235  220.6419 H   0  0  0  0  0  0  0  0  0  0  0  0
  138.6004   73.6284  220.6597 H   0  0  0  0  0  0  0  0  0  0  0  0
  139.3119   76.9621  219.0034 H   0  0  0  0  0  0  0  0  0  0  0  0
  139.0511   78.2958  220.1651 H   0  0  0  0  0  0  0  0  0  0  0  0
  141.2439   77.9586  218.4037 H   0  0  0  0  0  0  0  0  0  0  0  0
  141.1195   79.1574  219.6862 H   0  0  0  0  0  0  0  0  0  0  0  0
  142.3612   76.3627  219.7659 H   0  0  0  0  0  0  0  0  0  0  0  0
  143.0176   77.8026  220.4694 H   0  0  0  0  0  0  0  0  0  0  0  0
  141.6686   76.2448  222.2095 H   0  0  0  0  0  0  0  0  0  0  0  0
  143.1620   78.7291  221.9378 H   0  0  0  0  0  0  0  0  0  0  0  0
  143.1183   80.8296  223.2065 H   0  0  0  0  0  0  0  0  0  0  0  0
  141.0452   81.5978  224.3521 H   0  0  0  0  0  0  0  0  0  0  0  0
  139.0578   78.0526  222.8935 H   0  0  0  0  0  0  0  0  0  0  0  0
  139.1983   69.4407  222.8552 H   0  0  0  0  0  0  0  0  0  0  0  0
  139.4051   68.1342  224.9409 H   0  0  0  0  0  0  0  0  0  0  0  0
  140.0049   68.0733  227.2440 H   0  0  0  0  0  0  0  0  0  0  0  0
  140.8448   69.2144  229.2785 H   0  0  0  0  0  0  0  0  0  0  0  0
  141.4654   71.6249  229.2200 H   0  0  0  0  0  0  0  0  0  0  0  0
  141.2146   72.8632  227.0661 H   0  0  0  0  0  0  0  0  0  0  0  0
  1  2  2  0
  2  3  1  0
  3  4  1  0
  4  5  1  0
  5  6  2  0
  5  7  1  0
  7  8  1  0
  8  9  1  0
  9 10  1  0
 10 11  1  0
 11 12  1  0
 12 13  2  0
 13 14  1  0
 14 15  2  0
 15 16  1  0
 16 17  1  0
 16 18  2  0
  2 19  1  0
 19 20  2  0
 20 21  1  0
 21 22  2  0
 22 23  1  0
 23 24  2  0
 24 25  1  0
 25 26  2  0
 26 27  1  0
 27 28  2  0
 11  7  1  0
 18 12  1  0
 28 19  1  0
 27 22  1  0
  3 29  1  0
  4 30  1  0
  4 31  1  0
  8 32  1  0
  8 33  1  0
  9 34  1  0
  9 35  1  0
 10 36  1  0
 10 37  1  0
 11 38  1  1
 13 39  1  0
 14 40  1  0
 15 41  1  0
 18 42  1  0
 20 43  1  0
 21 44  1  0
 23 45  1  0
 24 46  1  0
 25 47  1  0
 26 48  1  0
M  END
>  <smiles>  (100) 
O=C(NCC(=O)N1CCCC1c1cccc(F)c1)c1ccc2ccccc2n1

>  <score_type>  (100) 
oracle

>  <origin>  (100) 
autodockgpu

>  <m_score__min__energy>  (100) 
-8.8699999999999992

>  <m_primary>  (100) 
energy

>  <rmsd>  (100) 
1.8172041371406225

>  <m_score__min__rmsd>  (100) 
1.8172041371406225

>  <meeko>  (100) 
{"free_energy": -8.5, "intermolecular_energy": -9.99, "internal_energy": -1.38, "cluster_size": 38, "cluster_id": 1, "rank_in_cluster": 30}

>  <energy>  (100) 
-8.21

>  <cluster_rmsd>  (100) 
1.04

>  <cluster>  (100) 
3

$$$$
