
     RDKit          3D

 50 52  0  0  0  0  0  0  0  0999 V2000
  139.0910   68.3730  224.7890 C   0  0  0  0  0  0  0  0  0  0  0  0
  139.9310   69.6170  224.5980 C   0  0  1  0  0  0  0  0  0  0  0  0
  139.3980   70.3850  223.4890 N   0  0  0  0  0  0  0  0  0  0  0  0
  138.0850   70.9060  223.5270 C   0  0  0  0  0  0  0  0  0  0  0  0
  137.4100   70.6740  224.5700 O   0  0  0  0  0  0  0  0  0  0  0  0
  137.4380   71.6950  222.4710 C   0  0  0  0  0  0  0  0  0  0  0  0
  138.0720   72.9820  222.3680 N   0  0  0  0  0  0  0  0  0  0  0  0
  139.3600   73.1760  221.7660 C   0  0  0  0  0  0  0  0  0  0  0  0
  140.0190   72.2090  221.2760 O   0  0  0  0  0  0  0  0  0  0  0  0
  139.9490   74.5210  221.7070 C   0  0  0  0  0  0  0  0  0  0  0  0
  141.0860   74.7450  220.9640 C   0  0  0  0  0  0  0  0  0  0  0  0
  141.6940   75.9760  220.8550 C   0  0  0  0  0  0  0  0  0  0  0  0
  141.1060   77.0210  221.5400 C   0  0  0  0  0  0  0  0  0  0  0  0
  141.7180   78.2550  221.4260 C   0  0  0  0  0  0  0  0  0  0  0  0
  141.1490   79.3140  222.1000 C   0  0  0  0  0  0  0  0  0  0  0  0
  141.8620   80.9330  222.0150 Cl  0  0  0  0  0  0  0  0  0  0  0  0
  140.0200   79.1310  222.8490 C   0  0  0  0  0  0  0  0  0  0  0  0
  139.3870   77.8890  222.9750 C   0  0  0  0  0  0  0  0  0  0  0  0
  139.9660   76.8140  222.2890 C   0  0  0  0  0  0  0  0  0  0  0  0
  139.4230   75.5740  222.3500 N   0  0  0  0  0  0  0  0  0  0  0  0
  140.0210   70.4370  225.8590 C   0  0  0  0  0  0  0  0  0  0  0  0
  139.8620   69.6170  227.0940 C   0  0  0  0  0  0  0  0  0  0  0  0
  140.7370   70.0310  228.2460 C   0  0  0  0  0  0  0  0  0  0  0  0
  140.9730   71.4950  228.3670 C   0  0  0  0  0  0  0  0  0  0  0  0
  141.0620   72.2490  227.0850 C   0  0  0  0  0  0  0  0  0  0  0  0
  141.2360   71.3410  225.8720 C   0  0  0  0  0  0  0  0  0  0  0  0
  138.9607   68.1800  225.8641 H   0  0  0  0  0  0  0  0  0  0  0  0
  138.1065   68.5199  224.3209 H   0  0  0  0  0  0  0  0  0  0  0  0
  139.5952   67.5147  224.3209 H   0  0  0  0  0  0  0  0  0  0  0  0
  140.9622   69.3164  224.3608 H   0  0  0  0  0  0  0  0  0  0  0  0
  140.0210   70.5470  222.6740 H   0  0  0  0  0  0  0  0  0  0  0  0
  137.5289   71.1651  221.5113 H   0  0  0  0  0  0  0  0  0  0  0  0
  136.3751   71.8320  222.7190 H   0  0  0  0  0  0  0  0  0  0  0  0
  137.6230   73.8760  222.7330 H   0  0  0  0  0  0  0  0  0  0  0  0
  141.5332   73.8947  220.4283 H   0  0  0  0  0  0  0  0  0  0  0  0
  142.6029   76.1196  220.2522 H   0  0  0  0  0  0  0  0  0  0  0  0
  142.6261   78.3871  220.8194 H   0  0  0  0  0  0  0  0  0  0  0  0
  139.5909   79.9966  223.3749 H   0  0  0  0  0  0  0  0  0  0  0  0
  138.4790   77.7634  223.5832 H   0  0  0  0  0  0  0  0  0  0  0  0
  139.1545   71.1146  225.8589 H   0  0  0  0  0  0  0  0  0  0  0  0
  138.8134   69.6878  227.4186 H   0  0  0  0  0  0  0  0  0  0  0  0
  140.1668   68.5944  226.8269 H   0  0  0  0  0  0  0  0  0  0  0  0
  140.2621   69.6847  229.1758 H   0  0  0  0  0  0  0  0  0  0  0  0
  141.7216   69.5770  228.0605 H   0  0  0  0  0  0  0  0  0  0  0  0
  140.1455   71.9223  228.9523 H   0  0  0  0  0  0  0  0  0  0  0  0
  141.9598   71.5987  228.8419 H   0  0  0  0  0  0  0  0  0  0  0  0
  140.1386   72.8328  226.9566 H   0  0  0  0  0  0  0  0  0  0  0  0
  141.9505   72.8948  227.1435 H   0  0  0  0  0  0  0  0  0  0  0  0
  141.2797   71.9380  224.9491 H   0  0  0  0  0  0  0  0  0  0  0  0
  142.1708   70.7639  225.9277 H   0  0  0  0  0  0  0  0  0  0  0  0
  1  2  1  0
  2  3  1  0
  3  4  1  0
  4  5  2  0
  4  6  1  0
  6  7  1  0
  7  8  1  0
  8  9  2  0
  8 10  1  0
 10 11  2  0
 11 12  1  0
 12 13  2  0
 13 14  1  0
 14 15  2  0
 15 16  1  0
 15 17  1  0
 17 18  2  0
 18 19  1  0
 19 20  2  0
  2 21  1  0
 21 22  1  0
 22 23  1  0
 23 24  1  0
 24 25  1  0
 25 26  1  0
 20 10  1  0
 26 21  1  0
 19 13  1  0
  1 27  1  0
  1 28  1  0
  1 29  1  0
  2 30  1  6
  3 31  1  0
  6 32  1  0
  6 33  1  0
  7 34  1  0
 11 35  1  0
 12 36  1  0
 14 37  1  0
 17 38  1  0
 18 39  1  0
 21 40  1  0
 22 41  1  0
 22 42  1  0
 23 43  1  0
 23 44  1  0
 24 45  1  0
 24 46  1  0
 25 47  1  0
 25 48  1  0
 26 49  1  0
 26 50  1  0
M  END
>  <smiles>  (1) 
C[C@@H](NC(=O)CNC(=O)c1ccc2cc(Cl)ccc2n1)C1CCCCC1

>  <score_type>  (1) 
oracle

>  <origin>  (1) 
autodockgpu

>  <m_score__min__energy>  (1) 
-8.3399999999999999

>  <m_primary>  (1) 
energy

>  <rmsd>  (1) 
9.735347813918677

>  <m_score__min__rmsd>  (1) 
9.735347813918677

>  <meeko>  (1) 
{"free_energy": -7.94, "intermolecular_energy": -9.43, "internal_energy": -2.07, "cluster_size": 24, "cluster_id": 2, "rank_in_cluster": 16}

>  <energy>  (1) 
-8.34

>  <cluster_rmsd>  (1) 
0.0

>  <cluster>  (1) 
1

$$$$

     RDKit          3D

 50 52  0  0  0  0  0  0  0  0999 V2000
  138.6890   80.0320  221.0440 C   0  0  0  0  0  0  0  0  0  0  0  0
  139.1130   78.9790  222.0460 C   0  0  1  0  0  0  0  0  0  0  0  0
  139.4190   77.7490  221.3400 N   0  0  0  0  0  0  0  0  0  0  0  0
  139.1170   76.4900  221.9060 C   0  0  0  0  0  0  0  0  0  0  0  0
  138.5690   76.4940  223.0450 O   0  0  0  0  0  0  0  0  0  0  0  0
  139.3780   75.1810  221.2910 C   0  0  0  0  0  0  0  0  0  0  0  0
  139.5030   74.1790  222.3160 N   0  0  0  0  0  0  0  0  0  0  0  0
  139.8010   72.8040  222.0360 C   0  0  0  0  0  0  0  0  0  0  0  0
  139.9830   72.3890  220.8510 O   0  0  0  0  0  0  0  0  0  0  0  0
  139.9030   71.8360  223.1350 C   0  0  0  0  0  0  0  0  0  0  0  0
  139.4920   70.5340  222.9510 C   0  0  0  0  0  0  0  0  0  0  0  0
  139.5600   69.5690  223.9290 C   0  0  0  0  0  0  0  0  0  0  0  0
  140.0730   69.9580  225.1510 C   0  0  0  0  0  0  0  0  0  0  0  0
  140.1410   68.9840  226.1300 C   0  0  0  0  0  0  0  0  0  0  0  0
  140.6500   69.3490  227.3580 C   0  0  0  0  0  0  0  0  0  0  0  0
  140.7770   68.1720  228.6750 Cl  0  0  0  0  0  0  0  0  0  0  0  0
  141.0680   70.6310  227.5810 C   0  0  0  0  0  0  0  0  0  0  0  0
  141.0060   71.6290  226.6010 C   0  0  0  0  0  0  0  0  0  0  0  0
  140.4900   71.2580  225.3530 C   0  0  0  0  0  0  0  0  0  0  0  0
  140.3920   72.1550  224.3430 N   0  0  0  0  0  0  0  0  0  0  0  0
  140.2650   79.4410  222.8980 C   0  0  0  0  0  0  0  0  0  0  0  0
  141.4830   78.5970  222.7300 C   0  0  0  0  0  0  0  0  0  0  0  0
  142.7850   79.3510  222.7550 C   0  0  0  0  0  0  0  0  0  0  0  0
  142.8250   80.5150  223.6820 C   0  0  0  0  0  0  0  0  0  0  0  0
  141.5490   81.2710  223.8350 C   0  0  0  0  0  0  0  0  0  0  0  0
  140.5230   80.9270  222.7610 C   0  0  0  0  0  0  0  0  0  0  0  0
  138.3300   80.9236  221.5789 H   0  0  0  0  0  0  0  0  0  0  0  0
  139.5476   80.3042  220.4126 H   0  0  0  0  0  0  0  0  0  0  0  0
  137.8814   79.6332  220.4126 H   0  0  0  0  0  0  0  0  0  0  0  0
  138.2814   78.7943  222.7419 H   0  0  0  0  0  0  0  0  0  0  0  0
  139.8550   77.8300  220.4020 H   0  0  0  0  0  0  0  0  0  0  0  0
  138.5446   74.9184  220.6229 H   0  0  0  0  0  0  0  0  0  0  0  0
  140.3132   75.2300  220.7140 H   0  0  0  0  0  0  0  0  0  0  0  0
  139.3810   74.3960  223.3510 H   0  0  0  0  0  0  0  0  0  0  0  0
  139.0873   70.2505  221.9682 H   0  0  0  0  0  0  0  0  0  0  0  0
  139.2224   68.5381  223.7468 H   0  0  0  0  0  0  0  0  0  0  0  0
  139.8015   67.9558  225.9361 H   0  0  0  0  0  0  0  0  0  0  0  0
  141.4699   70.8895  228.5718 H   0  0  0  0  0  0  0  0  0  0  0  0
  141.3464   72.6556  226.8017 H   0  0  0  0  0  0  0  0  0  0  0  0
  139.9628   79.2934  223.9453 H   0  0  0  0  0  0  0  0  0  0  0  0
  141.5009   77.8572  223.5439 H   0  0  0  0  0  0  0  0  0  0  0  0
  141.4085   78.1434  221.7306 H   0  0  0  0  0  0  0  0  0  0  0  0
  143.5785   78.6503  223.0540 H   0  0  0  0  0  0  0  0  0  0  0  0
  142.9199   79.7613  221.7434 H   0  0  0  0  0  0  0  0  0  0  0  0
  143.1182   80.1446  224.6754 H   0  0  0  0  0  0  0  0  0  0  0  0
  143.5392   81.2241  223.2381 H   0  0  0  0  0  0  0  0  0  0  0  0
  141.1182   81.0369  224.8197 H   0  0  0  0  0  0  0  0  0  0  0  0
  141.7852   82.3407  223.7353 H   0  0  0  0  0  0  0  0  0  0  0  0
  139.5942   81.4936  222.9230 H   0  0  0  0  0  0  0  0  0  0  0  0
  140.8878   81.1837  221.7555 H   0  0  0  0  0  0  0  0  0  0  0  0
  1  2  1  0
  2  3  1  0
  3  4  1  0
  4  5  2  0
  4  6  1  0
  6  7  1  0
  7  8  1  0
  8  9  2  0
  8 10  1  0
 10 11  2  0
 11 12  1  0
 12 13  2  0
 13 14  1  0
 14 15  2  0
 15 16  1  0
 15 17  1  0
 17 18  2  0
 18 19  1  0
 19 20  2  0
  2 21  1  0
 21 22  1  0
 22 23  1  0
 23 24  1  0
 24 25  1  0
 25 26  1  0
 20 10  1  0
 26 21  1  0
 19 13  1  0
  1 27  1  0
  1 28  1  0
  1 29  1  0
  2 30  1  1
  3 31  1  0
  6 32  1  0
  6 33  1  0
  7 34  1  0
 11 35  1  0
 12 36  1  0
 14 37  1  0
 17 38  1  0
 18 39  1  0
 21 40  1  0
 22 41  1  0
 22 42  1  0
 23 43  1  0
 23 44  1  0
 24 45  1  0
 24 46  1  0
 25 47  1  0
 25 48  1  0
 26 49  1  0
 26 50  1  0
M  END
>  <smiles>  (2) 
C[C@@H](NC(=O)CNC(=O)c1ccc2cc(Cl)ccc2n1)C1CCCCC1

>  <score_type>  (2) 
oracle

>  <origin>  (2) 
autodockgpu

>  <m_score__min__energy>  (2) 
-8.3399999999999999

>  <m_primary>  (2) 
energy

>  <rmsd>  (2) 
4.035899770530182

>  <m_score__min__rmsd>  (2) 
4.035899770530182

>  <meeko>  (2) 
{"free_energy": -8.3, "intermolecular_energy": -9.8, "internal_energy": -1.62, "cluster_size": 17, "cluster_id": 1, "rank_in_cluster": 2}

>  <energy>  (2) 
-8.3

>  <cluster_rmsd>  (2) 
0.11

>  <cluster>  (2) 
1

$$$$

     RDKit          3D

 50 52  0  0  0  0  0  0  0  0999 V2000
  139.0940   68.4150  224.7420 C   0  0  0  0  0  0  0  0  0  0  0  0
  139.9320   69.6650  224.5780 C   0  0  1  0  0  0  0  0  0  0  0  0
  139.3990   70.4550  223.4850 N   0  0  0  0  0  0  0  0  0  0  0  0
  138.0640   70.9210  223.5050 C   0  0  0  0  0  0  0  0  0  0  0  0
  137.3710   70.6180  224.5170 O   0  0  0  0  0  0  0  0  0  0  0  0
  137.4140   71.7250  222.4610 C   0  0  0  0  0  0  0  0  0  0  0  0
  138.0620   73.0060  222.3610 N   0  0  0  0  0  0  0  0  0  0  0  0
  139.3380   73.1920  221.7310 C   0  0  0  0  0  0  0  0  0  0  0  0
  139.9730   72.2250  221.2120 O   0  0  0  0  0  0  0  0  0  0  0  0
  139.9410   74.5310  221.6770 C   0  0  0  0  0  0  0  0  0  0  0  0
  141.0870   74.7430  220.9420 C   0  0  0  0  0  0  0  0  0  0  0  0
  141.7080   75.9670  220.8380 C   0  0  0  0  0  0  0  0  0  0  0  0
  141.1270   77.0180  221.5190 C   0  0  0  0  0  0  0  0  0  0  0  0
  141.7540   78.2450  221.4100 C   0  0  0  0  0  0  0  0  0  0  0  0
  141.1910   79.3100  222.0810 C   0  0  0  0  0  0  0  0  0  0  0  0
  141.9220   80.9210  222.0020 Cl  0  0  0  0  0  0  0  0  0  0  0  0
  140.0540   79.1400  222.8210 C   0  0  0  0  0  0  0  0  0  0  0  0
  139.4070   77.9050  222.9420 C   0  0  0  0  0  0  0  0  0  0  0  0
  139.9790   76.8230  222.2600 C   0  0  0  0  0  0  0  0  0  0  0  0
  139.4230   75.5890  222.3170 N   0  0  0  0  0  0  0  0  0  0  0  0
  140.0180   70.4580  225.8560 C   0  0  0  0  0  0  0  0  0  0  0  0
  139.8830   69.6080  227.0730 C   0  0  0  0  0  0  0  0  0  0  0  0
  140.7600   70.0120  228.2280 C   0  0  0  0  0  0  0  0  0  0  0  0
  140.9730   71.4770  228.3800 C   0  0  0  0  0  0  0  0  0  0  0  0
  141.0400   72.2600  227.1140 C   0  0  0  0  0  0  0  0  0  0  0  0
  141.2180   71.3810  225.8800 C   0  0  0  0  0  0  0  0  0  0  0  0
  138.9536   68.2056  225.8127 H   0  0  0  0  0  0  0  0  0  0  0  0
  138.1137   68.5657  224.2662 H   0  0  0  0  0  0  0  0  0  0  0  0
  139.6057   67.5654  224.2662 H   0  0  0  0  0  0  0  0  0  0  0  0
  140.9641   69.3718  224.3356 H   0  0  0  0  0  0  0  0  0  0  0  0
  140.0360   70.6750  222.6960 H   0  0  0  0  0  0  0  0  0  0  0  0
  137.4887   71.2012  221.4966 H   0  0  0  0  0  0  0  0  0  0  0  0
  136.3552   71.8718  222.7208 H   0  0  0  0  0  0  0  0  0  0  0  0
  137.6330   73.8990  222.7500 H   0  0  0  0  0  0  0  0  0  0  0  0
  141.5295   73.8881  220.4097 H   0  0  0  0  0  0  0  0  0  0  0  0
  142.6224   76.1012  220.2415 H   0  0  0  0  0  0  0  0  0  0  0  0
  142.6680   78.3673  220.8104 H   0  0  0  0  0  0  0  0  0  0  0  0
  139.6300   80.0104  223.3431 H   0  0  0  0  0  0  0  0  0  0  0  0
  138.4934   77.7893  223.5436 H   0  0  0  0  0  0  0  0  0  0  0  0
  139.1404   71.1208  225.8778 H   0  0  0  0  0  0  0  0  0  0  0  0
  138.8358   69.6529  227.4069 H   0  0  0  0  0  0  0  0  0  0  0  0
  140.2035   68.5971  226.7807 H   0  0  0  0  0  0  0  0  0  0  0  0
  140.2979   69.6375  229.1533 H   0  0  0  0  0  0  0  0  0  0  0  0
  141.7506   69.5791  228.0250 H   0  0  0  0  0  0  0  0  0  0  0  0
  140.1430   71.8777  228.9805 H   0  0  0  0  0  0  0  0  0  0  0  0
  141.9613   71.5867  228.8504 H   0  0  0  0  0  0  0  0  0  0  0  0
  140.1067   72.8321  227.0055 H   0  0  0  0  0  0  0  0  0  0  0  0
  141.9189   72.9182  227.1795 H   0  0  0  0  0  0  0  0  0  0  0  0
  141.2448   71.9986  224.9701 H   0  0  0  0  0  0  0  0  0  0  0  0
  142.1621   70.8176  225.9164 H   0  0  0  0  0  0  0  0  0  0  0  0
  1  2  1  0
  2  3  1  0
  3  4  1  0
  4  5  2  0
  4  6  1  0
  6  7  1  0
  7  8  1  0
  8  9  2  0
  8 10  1  0
 10 11  2  0
 11 12  1  0
 12 13  2  0
 13 14  1  0
 14 15  2  0
 15 16  1  0
 15 17  1  0
 17 18  2  0
 18 19  1  0
 19 20  2  0
  2 21  1  0
 21 22  1  0
 22 23  1  0
 23 24  1  0
 24 25  1  0
 25 26  1  0
 20 10  1  0
 26 21  1  0
 19 13  1  0
  1 27  1  0
  1 28  1  0
  1 29  1  0
  2 30  1  6
  3 31  1  0
  6 32  1  0
  6 33  1  0
  7 34  1  0
 11 35  1  0
 12 36  1  0
 14 37  1  0
 17 38  1  0
 18 39  1  0
 21 40  1  0
 22 41  1  0
 22 42  1  0
 23 43  1  0
 23 44  1  0
 24 45  1  0
 24 46  1  0
 25 47  1  0
 25 48  1  0
 26 49  1  0
 26 50  1  0
M  END
>  <smiles>  (3) 
C[C@@H](NC(=O)CNC(=O)c1ccc2cc(Cl)ccc2n1)C1CCCCC1

>  <score_type>  (3) 
oracle

>  <origin>  (3) 
autodockgpu

>  <m_score__min__energy>  (3) 
-8.3399999999999999

>  <m_primary>  (3) 
energy

>  <rmsd>  (3) 
9.725977958783606

>  <m_score__min__rmsd>  (3) 
9.725977958783606

>  <meeko>  (3) 
{"free_energy": -7.92, "intermolecular_energy": -9.41, "internal_energy": -2.06, "cluster_size": 24, "cluster_id": 2, "rank_in_cluster": 20}

>  <energy>  (3) 
-8.28

>  <cluster_rmsd>  (3) 
0.19

>  <cluster>  (3) 
1

$$$$

     RDKit          3D

 50 52  0  0  0  0  0  0  0  0999 V2000
  139.1020   68.4070  224.7820 C   0  0  0  0  0  0  0  0  0  0  0  0
  139.9570   69.6400  224.5840 C   0  0  1  0  0  0  0  0  0  0  0  0
  139.4310   70.4100  223.4720 N   0  0  0  0  0  0  0  0  0  0  0  0
  138.1250   70.9490  223.5130 C   0  0  0  0  0  0  0  0  0  0  0  0
  137.4510   70.7300  224.5590 O   0  0  0  0  0  0  0  0  0  0  0  0
  137.4850   71.7410  222.4540 C   0  0  0  0  0  0  0  0  0  0  0  0
  138.1290   73.0240  222.3510 N   0  0  0  0  0  0  0  0  0  0  0  0
  139.4240   73.2060  221.7620 C   0  0  0  0  0  0  0  0  0  0  0  0
  140.0820   72.2320  221.2840 O   0  0  0  0  0  0  0  0  0  0  0  0
  140.0220   74.5460  221.7010 C   0  0  0  0  0  0  0  0  0  0  0  0
  141.1620   74.7610  220.9580 C   0  0  0  0  0  0  0  0  0  0  0  0
  141.7780   75.9870  220.8480 C   0  0  0  0  0  0  0  0  0  0  0  0
  141.1980   77.0370  221.5310 C   0  0  0  0  0  0  0  0  0  0  0  0
  141.8190   78.2670  221.4160 C   0  0  0  0  0  0  0  0  0  0  0  0
  141.2570   79.3310  222.0890 C   0  0  0  0  0  0  0  0  0  0  0  0
  141.9810   80.9450  222.0020 Cl  0  0  0  0  0  0  0  0  0  0  0  0
  140.1260   79.1570  222.8370 C   0  0  0  0  0  0  0  0  0  0  0  0
  139.4840   77.9200  222.9640 C   0  0  0  0  0  0  0  0  0  0  0  0
  140.0550   76.8390  222.2800 C   0  0  0  0  0  0  0  0  0  0  0  0
  139.5040   75.6030  222.3430 N   0  0  0  0  0  0  0  0  0  0  0  0
  140.0610   70.4640  225.8400 C   0  0  0  0  0  0  0  0  0  0  0  0
  139.8910   69.6520  227.0790 C   0  0  0  0  0  0  0  0  0  0  0  0
  140.7730   70.0580  228.2280 C   0  0  0  0  0  0  0  0  0  0  0  0
  141.0310   71.5190  228.3430 C   0  0  0  0  0  0  0  0  0  0  0  0
  141.1310   72.2660  227.0570 C   0  0  0  0  0  0  0  0  0  0  0  0
  141.2890   71.3490  225.8480 C   0  0  0  0  0  0  0  0  0  0  0  0
  138.9722   68.2198  225.8581 H   0  0  0  0  0  0  0  0  0  0  0  0
  138.1181   68.5643  224.3159 H   0  0  0  0  0  0  0  0  0  0  0  0
  139.5943   67.5407  224.3159 H   0  0  0  0  0  0  0  0  0  0  0  0
  140.9838   69.3252  224.3463 H   0  0  0  0  0  0  0  0  0  0  0  0
  140.0530   70.5600  222.6550 H   0  0  0  0  0  0  0  0  0  0  0  0
  137.5741   71.2092  221.4952 H   0  0  0  0  0  0  0  0  0  0  0  0
  136.4224   71.8855  222.6990 H   0  0  0  0  0  0  0  0  0  0  0  0
  137.6820   73.9230  222.7070 H   0  0  0  0  0  0  0  0  0  0  0  0
  141.6038   73.9069  220.4238 H   0  0  0  0  0  0  0  0  0  0  0  0
  142.6880   76.1234  220.2453 H   0  0  0  0  0  0  0  0  0  0  0  0
  142.7283   78.3921  220.8097 H   0  0  0  0  0  0  0  0  0  0  0  0
  139.7026   80.0263  223.3614 H   0  0  0  0  0  0  0  0  0  0  0  0
  138.5747   77.8022  223.5717 H   0  0  0  0  0  0  0  0  0  0  0  0
  139.2051   71.1550  225.8371 H   0  0  0  0  0  0  0  0  0  0  0  0
  138.8439   69.7400  227.4043 H   0  0  0  0  0  0  0  0  0  0  0  0
  140.1803   68.6238  226.8162 H   0  0  0  0  0  0  0  0  0  0  0  0
  140.2940   69.7226  229.1597 H   0  0  0  0  0  0  0  0  0  0  0  0
  141.7506   69.5889  228.0430 H   0  0  0  0  0  0  0  0  0  0  0  0
  140.2101   71.9612  228.9266 H   0  0  0  0  0  0  0  0  0  0  0  0
  142.0192   71.6101  228.8176 H   0  0  0  0  0  0  0  0  0  0  0  0
  140.2171   72.8642  226.9267 H   0  0  0  0  0  0  0  0  0  0  0  0
  142.0298   72.8979  227.1115 H   0  0  0  0  0  0  0  0  0  0  0  0
  141.3409   71.9408  224.9223 H   0  0  0  0  0  0  0  0  0  0  0  0
  142.2146   70.7575  225.9061 H   0  0  0  0  0  0  0  0  0  0  0  0
  1  2  1  0
  2  3  1  0
  3  4  1  0
  4  5  2  0
  4  6  1  0
  6  7  1  0
  7  8  1  0
  8  9  2  0
  8 10  1  0
 10 11  2  0
 11 12  1  0
 12 13  2  0
 13 14  1  0
 14 15  2  0
 15 16  1  0
 15 17  1  0
 17 18  2  0
 18 19  1  0
 19 20  2  0
  2 21  1  0
 21 22  1  0
 22 23  1  0
 23 24  1  0
 24 25  1  0
 25 26  1  0
 20 10  1  0
 26 21  1  0
 19 13  1  0
  1 27  1  0
  1 28  1  0
  1 29  1  0
  2 30  1  6
  3 31  1  0
  6 32  1  0
  6 33  1  0
  7 34  1  0
 11 35  1  0
 12 36  1  0
 14 37  1  0
 17 38  1  0
 18 39  1  0
 21 40  1  0
 22 41  1  0
 22 42  1  0
 23 43  1  0
 23 44  1  0
 24 45  1  0
 24 46  1  0
 25 47  1  0
 25 48  1  0
 26 49  1  0
 26 50  1  0
M  END
>  <smiles>  (4) 
C[C@@H](NC(=O)CNC(=O)c1ccc2cc(Cl)ccc2n1)C1CCCCC1

>  <score_type>  (4) 
oracle

>  <origin>  (4) 
autodockgpu

>  <m_score__min__energy>  (4) 
-8.3399999999999999

>  <m_primary>  (4) 
energy

>  <rmsd>  (4) 
9.721552116517923

>  <m_score__min__rmsd>  (4) 
9.721552116517923

>  <meeko>  (4) 
{"free_energy": -7.98, "intermolecular_energy": -9.47, "internal_energy": -2.07, "cluster_size": 24, "cluster_id": 2, "rank_in_cluster": 3}

>  <energy>  (4) 
-8.27

>  <cluster_rmsd>  (4) 
1.05

>  <cluster>  (4) 
1

$$$$

     RDKit          3D

 50 52  0  0  0  0  0  0  0  0999 V2000
  139.4440   67.3760  226.6550 C   0  0  0  0  0  0  0  0  0  0  0  0
  139.9370   68.5010  225.7700 C   0  0  1  0  0  0  0  0  0  0  0  0
  138.8190   69.0420  225.0210 N   0  0  0  0  0  0  0  0  0  0  0  0
  138.3440   68.3990  223.8560 C   0  0  0  0  0  0  0  0  0  0  0  0
  138.9370   67.3390  223.5080 O   0  0  0  0  0  0  0  0  0  0  0  0
  137.2250   68.8490  223.0170 C   0  0  0  0  0  0  0  0  0  0  0  0
  136.5010   69.8930  223.6920 N   0  0  0  0  0  0  0  0  0  0  0  0
  135.4260   69.6370  224.6070 C   0  0  0  0  0  0  0  0  0  0  0  0
  135.0530   68.4560  224.8840 O   0  0  0  0  0  0  0  0  0  0  0  0
  134.7270   70.7570  225.2510 C   0  0  0  0  0  0  0  0  0  0  0  0
  133.7730   70.5140  226.2150 C   0  0  0  0  0  0  0  0  0  0  0  0
  133.0790   71.5080  226.8660 C   0  0  0  0  0  0  0  0  0  0  0  0
  133.3780   72.8090  226.5110 C   0  0  0  0  0  0  0  0  0  0  0  0
  132.6800   73.8040  227.1700 C   0  0  0  0  0  0  0  0  0  0  0  0
  132.9620   75.1110  226.8330 C   0  0  0  0  0  0  0  0  0  0  0  0
  132.1190   76.4540  227.6200 Cl  0  0  0  0  0  0  0  0  0  0  0  0
  133.9020   75.3920  225.8800 C   0  0  0  0  0  0  0  0  0  0  0  0
  134.6180   74.3970  225.2050 C   0  0  0  0  0  0  0  0  0  0  0  0
  134.3310   73.0700  225.5480 C   0  0  0  0  0  0  0  0  0  0  0  0
  134.9740   72.0390  224.9480 N   0  0  0  0  0  0  0  0  0  0  0  0
  140.6550   69.5650  226.5580 C   0  0  0  0  0  0  0  0  0  0  0  0
  141.4550   70.4820  225.6960 C   0  0  0  0  0  0  0  0  0  0  0  0
  141.4490   71.9230  226.1280 C   0  0  0  0  0  0  0  0  0  0  0  0
  141.4220   72.1440  227.6000 C   0  0  0  0  0  0  0  0  0  0  0  0
  140.6450   71.1490  228.3930 C   0  0  0  0  0  0  0  0  0  0  0  0
  139.7380   70.2780  227.5290 C   0  0  0  0  0  0  0  0  0  0  0  0
  139.5679   67.6588  227.7108 H   0  0  0  0  0  0  0  0  0  0  0  0
  138.3803   67.1864  226.4486 H   0  0  0  0  0  0  0  0  0  0  0  0
  140.0256   66.4654  226.4486 H   0  0  0  0  0  0  0  0  0  0  0  0
  140.6778   68.0990  225.0632 H   0  0  0  0  0  0  0  0  0  0  0  0
  138.3750   69.9080  225.3800 H   0  0  0  0  0  0  0  0  0  0  0  0
  137.6150   69.2328  222.0627 H   0  0  0  0  0  0  0  0  0  0  0  0
  136.5494   68.0021  222.8266 H   0  0  0  0  0  0  0  0  0  0  0  0
  136.7180   70.9260  223.5530 H   0  0  0  0  0  0  0  0  0  0  0  0
  133.5543   69.4687  226.4785 H   0  0  0  0  0  0  0  0  0  0  0  0
  132.3233   71.2779  227.6315 H   0  0  0  0  0  0  0  0  0  0  0  0
  131.9275   73.5619  227.9349 H   0  0  0  0  0  0  0  0  0  0  0  0
  134.1037   76.4449  225.6337 H   0  0  0  0  0  0  0  0  0  0  0  0
  135.3701   74.6453  224.4417 H   0  0  0  0  0  0  0  0  0  0  0  0
  141.3979   69.0487  227.1837 H   0  0  0  0  0  0  0  0  0  0  0  0
  142.4969   70.1294  225.6966 H   0  0  0  0  0  0  0  0  0  0  0  0
  140.9874   70.4563  224.7007 H   0  0  0  0  0  0  0  0  0  0  0  0
  142.3554   72.4016  225.7287 H   0  0  0  0  0  0  0  0  0  0  0  0
  140.5155   72.3545  225.7377 H   0  0  0  0  0  0  0  0  0  0  0  0
  142.4604   72.1272  227.9626 H   0  0  0  0  0  0  0  0  0  0  0  0
  140.9111   73.1069  227.7474 H   0  0  0  0  0  0  0  0  0  0  0  0
  141.3519   70.4973  228.9275 H   0  0  0  0  0  0  0  0  0  0  0  0
  140.0008   71.7102  229.0859 H   0  0  0  0  0  0  0  0  0  0  0  0
  139.1992   69.5494  228.1525 H   0  0  0  0  0  0  0  0  0  0  0  0
  138.9801   70.8781  227.0042 H   0  0  0  0  0  0  0  0  0  0  0  0
  1  2  1  0
  2  3  1  0
  3  4  1  0
  4  5  2  0
  4  6  1  0
  6  7  1  0
  7  8  1  0
  8  9  2  0
  8 10  1  0
 10 11  2  0
 11 12  1  0
 12 13  2  0
 13 14  1  0
 14 15  2  0
 15 16  1  0
 15 17  1  0
 17 18  2  0
 18 19  1  0
 19 20  2  0
  2 21  1  0
 21 22  1  0
 22 23  1  0
 23 24  1  0
 24 25  1  0
 25 26  1  0
 20 10  1  0
 26 21  1  0
 19 13  1  0
  1 27  1  0
  1 28  1  0
  1 29  1  0
  2 30  1  6
  3 31  1  0
  6 32  1  0
  6 33  1  0
  7 34  1  0
 11 35  1  0
 12 36  1  0
 14 37  1  0
 17 38  1  0
 18 39  1  0
 21 40  1  0
 22 41  1  0
 22 42  1  0
 23 43  1  0
 23 44  1  0
 24 45  1  0
 24 46  1  0
 25 47  1  0
 25 48  1  0
 26 49  1  0
 26 50  1  0
M  END
>  <smiles>  (5) 
C[C@@H](NC(=O)CNC(=O)c1ccc2cc(Cl)ccc2n1)C1CCCCC1

>  <score_type>  (5) 
oracle

>  <origin>  (5) 
autodockgpu

>  <m_score__min__energy>  (5) 
-8.3399999999999999

>  <m_primary>  (5) 
energy

>  <rmsd>  (5) 
10.49532334658133

>  <m_score__min__rmsd>  (5) 
10.49532334658133

>  <meeko>  (5) 
{"free_energy": -7.96, "intermolecular_energy": -9.45, "internal_energy": -1.5, "cluster_size": 3, "cluster_id": 3, "rank_in_cluster": 1}

>  <energy>  (5) 
-8.26

>  <cluster_rmsd>  (5) 
0.2

>  <cluster>  (5) 
1

$$$$

     RDKit          3D

 50 52  0  0  0  0  0  0  0  0999 V2000
  143.0000   76.4900  218.7640 C   0  0  0  0  0  0  0  0  0  0  0  0
  143.0700   75.4950  219.9030 C   0  0  1  0  0  0  0  0  0  0  0  0
  141.7650   74.8860  220.0810 N   0  0  0  0  0  0  0  0  0  0  0  0
  140.7560   75.5310  220.8300 C   0  0  0  0  0  0  0  0  0  0  0  0
  141.0460   76.6550  221.3280 O   0  0  0  0  0  0  0  0  0  0  0  0
  139.4030   75.0160  221.0800 C   0  0  0  0  0  0  0  0  0  0  0  0
  139.4420   74.0350  222.1310 N   0  0  0  0  0  0  0  0  0  0  0  0
  140.1360   72.7840  222.0120 C   0  0  0  0  0  0  0  0  0  0  0  0
  140.7710   72.4720  220.9590 O   0  0  0  0  0  0  0  0  0  0  0  0
  140.1230   71.8280  223.1260 C   0  0  0  0  0  0  0  0  0  0  0  0
  139.6060   70.5640  222.9470 C   0  0  0  0  0  0  0  0  0  0  0  0
  139.5630   69.6110  223.9390 C   0  0  0  0  0  0  0  0  0  0  0  0
  140.0730   69.9730  225.1700 C   0  0  0  0  0  0  0  0  0  0  0  0
  140.0300   69.0120  226.1630 C   0  0  0  0  0  0  0  0  0  0  0  0
  140.5340   69.3500  227.4000 C   0  0  0  0  0  0  0  0  0  0  0  0
  140.5220   68.1860  228.7350 Cl  0  0  0  0  0  0  0  0  0  0  0  0
  141.0560   70.5950  227.6180 C   0  0  0  0  0  0  0  0  0  0  0  0
  141.1080   71.5790  226.6250 C   0  0  0  0  0  0  0  0  0  0  0  0
  140.5960   71.2350  225.3680 C   0  0  0  0  0  0  0  0  0  0  0  0
  140.6040   72.1220  224.3430 N   0  0  0  0  0  0  0  0  0  0  0  0
  144.1470   74.4650  219.6870 C   0  0  0  0  0  0  0  0  0  0  0  0
  145.2060   74.5080  220.7360 C   0  0  0  0  0  0  0  0  0  0  0  0
  145.7410   73.1650  221.1520 C   0  0  0  0  0  0  0  0  0  0  0  0
  145.8330   72.1550  220.0620 C   0  0  0  0  0  0  0  0  0  0  0  0
  144.7660   72.2180  219.0230 C   0  0  0  0  0  0  0  0  0  0  0  0
  143.5810   73.0830  219.4410 C   0  0  0  0  0  0  0  0  0  0  0  0
  142.9283   77.5092  219.1714 H   0  0  0  0  0  0  0  0  0  0  0  0
  143.9064   76.4049  218.1465 H   0  0  0  0  0  0  0  0  0  0  0  0
  142.1145   76.2788  218.1465 H   0  0  0  0  0  0  0  0  0  0  0  0
  143.3448   76.0277  220.8253 H   0  0  0  0  0  0  0  0  0  0  0  0
  141.5980   73.9670  219.6270 H   0  0  0  0  0  0  0  0  0  0  0  0
  138.7458   75.8458  221.3791 H   0  0  0  0  0  0  0  0  0  0  0  0
  139.0163   74.5497  220.1618 H   0  0  0  0  0  0  0  0  0  0  0  0
  138.9570   74.1760  223.0690 H   0  0  0  0  0  0  0  0  0  0  0  0
  139.2054   70.3018  221.9567 H   0  0  0  0  0  0  0  0  0  0  0  0
  139.1430   68.6102  223.7600 H   0  0  0  0  0  0  0  0  0  0  0  0
  139.6088   68.0139  225.9724 H   0  0  0  0  0  0  0  0  0  0  0  0
  141.4518   70.8328  228.6164 H   0  0  0  0  0  0  0  0  0  0  0  0
  141.5308   72.5752  226.8222 H   0  0  0  0  0  0  0  0  0  0  0  0
  144.6633   74.7377  218.7548 H   0  0  0  0  0  0  0  0  0  0  0  0
  146.0451   75.1054  220.3500 H   0  0  0  0  0  0  0  0  0  0  0  0
  144.7364   74.9433  221.6304 H   0  0  0  0  0  0  0  0  0  0  0  0
  146.7498   73.3133  221.5648 H   0  0  0  0  0  0  0  0  0  0  0  0
  145.0230   72.7626  221.8818 H   0  0  0  0  0  0  0  0  0  0  0  0
  146.8017   72.2899  219.5586 H   0  0  0  0  0  0  0  0  0  0  0  0
  145.7135   71.1774  220.5518 H   0  0  0  0  0  0  0  0  0  0  0  0
  145.1977   72.6356  218.1014 H   0  0  0  0  0  0  0  0  0  0  0  0
  144.3911   71.1949  218.8723 H   0  0  0  0  0  0  0  0  0  0  0  0
  142.8279   73.1143  218.6398 H   0  0  0  0  0  0  0  0  0  0  0  0
  143.0836   72.6834  220.3370 H   0  0  0  0  0  0  0  0  0  0  0  0
  1  2  1  0
  2  3  1  0
  3  4  1  0
  4  5  2  0
  4  6  1  0
  6  7  1  0
  7  8  1  0
  8  9  2  0
  8 10  1  0
 10 11  2  0
 11 12  1  0
 12 13  2  0
 13 14  1  0
 14 15  2  0
 15 16  1  0
 15 17  1  0
 17 18  2  0
 18 19  1  0
 19 20  2  0
  2 21  1  0
 21 22  1  0
 22 23  1  0
 23 24  1  0
 24 25  1  0
 25 26  1  0
 20 10  1  0
 26 21  1  0
 19 13  1  0
  1 27  1  0
  1 28  1  0
  1 29  1  0
  2 30  1  1
  3 31  1  0
  6 32  1  0
  6 33  1  0
  7 34  1  0
 11 35  1  0
 12 36  1  0
 14 37  1  0
 17 38  1  0
 18 39  1  0
 21 40  1  0
 22 41  1  0
 22 42  1  0
 23 43  1  0
 23 44  1  0
 24 45  1  0
 24 46  1  0
 25 47  1  0
 25 48  1  0
 26 49  1  0
 26 50  1  0
M  END
>  <smiles>  (6) 
C[C@@H](NC(=O)CNC(=O)c1ccc2cc(Cl)ccc2n1)C1CCCCC1

>  <score_type>  (6) 
oracle

>  <origin>  (6) 
autodockgpu

>  <m_score__min__energy>  (6) 
-8.3399999999999999

>  <m_primary>  (6) 
energy

>  <rmsd>  (6) 
6.354505048874364

>  <m_score__min__rmsd>  (6) 
6.354505048874364

>  <meeko>  (6) 
{"free_energy": -7.86, "intermolecular_energy": -9.35, "internal_energy": -1.89, "cluster_size": 3, "cluster_id": 4, "rank_in_cluster": 1}

>  <energy>  (6) 
-8.19

>  <cluster_rmsd>  (6) 
0.83

>  <cluster>  (6) 
1

$$$$

     RDKit          3D

 50 52  0  0  0  0  0  0  0  0999 V2000
  139.5850   67.4190  226.0880 C   0  0  0  0  0  0  0  0  0  0  0  0
  139.3680   68.7240  225.3530 C   0  0  1  0  0  0  0  0  0  0  0  0
  137.9840   68.8040  224.9250 N   0  0  0  0  0  0  0  0  0  0  0  0
  137.6520   69.1110  223.5860 C   0  0  0  0  0  0  0  0  0  0  0  0
  138.6150   69.3050  222.7900 O   0  0  0  0  0  0  0  0  0  0  0  0
  136.2950   69.2190  223.0350 C   0  0  0  0  0  0  0  0  0  0  0  0
  135.5720   70.2540  223.7260 N   0  0  0  0  0  0  0  0  0  0  0  0
  135.0020   70.0770  225.0300 C   0  0  0  0  0  0  0  0  0  0  0  0
  135.1120   68.9820  225.6620 O   0  0  0  0  0  0  0  0  0  0  0  0
  134.2680   71.1780  225.6680 C   0  0  0  0  0  0  0  0  0  0  0  0
  133.2600   70.9090  226.5670 C   0  0  0  0  0  0  0  0  0  0  0  0
  132.5320   71.8840  227.2080 C   0  0  0  0  0  0  0  0  0  0  0  0
  132.8530   73.1940  226.9120 C   0  0  0  0  0  0  0  0  0  0  0  0
  132.1190   74.1710  227.5600 C   0  0  0  0  0  0  0  0  0  0  0  0
  132.4230   75.4860  227.2820 C   0  0  0  0  0  0  0  0  0  0  0  0
  131.5380   76.8070  228.0620 Cl  0  0  0  0  0  0  0  0  0  0  0  0
  133.4160   75.7950  226.3950 C   0  0  0  0  0  0  0  0  0  0  0  0
  134.1690   74.8190  225.7300 C   0  0  0  0  0  0  0  0  0  0  0  0
  133.8600   73.4830  226.0140 C   0  0  0  0  0  0  0  0  0  0  0  0
  134.5350   72.4690  225.4200 N   0  0  0  0  0  0  0  0  0  0  0  0
  139.7690   69.9140  226.1850 C   0  0  0  0  0  0  0  0  0  0  0  0
  139.8900   69.5910  227.6350 C   0  0  0  0  0  0  0  0  0  0  0  0
  141.0210   70.2840  228.3460 C   0  0  0  0  0  0  0  0  0  0  0  0
  141.3080   71.6680  227.8800 C   0  0  0  0  0  0  0  0  0  0  0  0
  141.1080   71.9200  226.4250 C   0  0  0  0  0  0  0  0  0  0  0  0
  140.9710   70.6370  225.6130 C   0  0  0  0  0  0  0  0  0  0  0  0
  139.5550   67.5997  227.1726 H   0  0  0  0  0  0  0  0  0  0  0  0
  138.7929   66.7071  225.8128 H   0  0  0  0  0  0  0  0  0  0  0  0
  140.5649   67.0017  225.8128 H   0  0  0  0  0  0  0  0  0  0  0  0
  140.0180   68.7445  224.4658 H   0  0  0  0  0  0  0  0  0  0  0  0
  137.2500   68.6160  225.6340 H   0  0  0  0  0  0  0  0  0  0  0  0
  136.3535   69.4659  221.9647 H   0  0  0  0  0  0  0  0  0  0  0  0
  135.7717   68.2602  223.1647 H   0  0  0  0  0  0  0  0  0  0  0  0
  135.4140   71.2220  223.3090 H   0  0  0  0  0  0  0  0  0  0  0  0
  133.0242   69.8568  226.7843 H   0  0  0  0  0  0  0  0  0  0  0  0
  131.7333   71.6326  227.9214 H   0  0  0  0  0  0  0  0  0  0  0  0
  131.3220   73.9080  228.2710 H   0  0  0  0  0  0  0  0  0  0  0  0
  133.6329   76.8547  226.1950 H   0  0  0  0  0  0  0  0  0  0  0  0
  134.9642   75.0887  225.0194 H   0  0  0  0  0  0  0  0  0  0  0  0
  138.9403   70.6350  226.1265 H   0  0  0  0  0  0  0  0  0  0  0  0
  138.9495   69.8773  228.1285 H   0  0  0  0  0  0  0  0  0  0  0  0
  140.1022   68.5133  227.6945 H   0  0  0  0  0  0  0  0  0  0  0  0
  140.7729   70.3298  229.4167 H   0  0  0  0  0  0  0  0  0  0  0  0
  141.9245   69.6951  228.1296 H   0  0  0  0  0  0  0  0  0  0  0  0
  140.6499   72.3534  228.4342 H   0  0  0  0  0  0  0  0  0  0  0  0
  142.3805   71.8277  228.0648 H   0  0  0  0  0  0  0  0  0  0  0  0
  140.1932   72.5169  226.2949 H   0  0  0  0  0  0  0  0  0  0  0  0
  141.9989   72.4497  226.0567 H   0  0  0  0  0  0  0  0  0  0  0  0
  140.8075   70.8714  224.5508 H   0  0  0  0  0  0  0  0  0  0  0  0
  141.8804   70.0209  225.6722 H   0  0  0  0  0  0  0  0  0  0  0  0
  1  2  1  0
  2  3  1  0
  3  4  1  0
  4  5  2  0
  4  6  1  0
  6  7  1  0
  7  8  1  0
  8  9  2  0
  8 10  1  0
 10 11  2  0
 11 12  1  0
 12 13  2  0
 13 14  1  0
 14 15  2  0
 15 16  1  0
 15 17  1  0
 17 18  2  0
 18 19  1  0
 19 20  2  0
  2 21  1  0
 21 22  1  0
 22 23  1  0
 23 24  1  0
 24 25  1  0
 25 26  1  0
 20 10  1  0
 26 21  1  0
 19 13  1  0
  1 27  1  0
  1 28  1  0
  1 29  1  0
  2 30  1  6
  3 31  1  0
  6 32  1  0
  6 33  1  0
  7 34  1  0
 11 35  1  0
 12 36  1  0
 14 37  1  0
 17 38  1  0
 18 39  1  0
 21 40  1  0
 22 41  1  0
 22 42  1  0
 23 43  1  0
 23 44  1  0
 24 45  1  0
 24 46  1  0
 25 47  1  0
 25 48  1  0
 26 49  1  0
 26 50  1  0
M  END
>  <smiles>  (7) 
C[C@@H](NC(=O)CNC(=O)c1ccc2cc(Cl)ccc2n1)C1CCCCC1

>  <score_type>  (7) 
oracle

>  <origin>  (7) 
autodockgpu

>  <m_score__min__energy>  (7) 
-8.3399999999999999

>  <m_primary>  (7) 
energy

>  <rmsd>  (7) 
10.508820188609453

>  <m_score__min__rmsd>  (7) 
10.508820188609453

>  <meeko>  (7) 
{"free_energy": -7.64, "intermolecular_energy": -9.13, "internal_energy": -1.98, "cluster_size": 3, "cluster_id": 3, "rank_in_cluster": 3}

>  <energy>  (7) 
-8.17

>  <cluster_rmsd>  (7) 
0.32

>  <cluster>  (7) 
1

$$$$

     RDKit          3D

 50 52  0  0  0  0  0  0  0  0999 V2000
  142.1640   76.9990  220.0050 C   0  0  0  0  0  0  0  0  0  0  0  0
  140.8410   77.6070  220.4220 C   0  0  1  0  0  0  0  0  0  0  0  0
  139.8120   76.5870  220.3670 N   0  0  0  0  0  0  0  0  0  0  0  0
  139.8630   75.4530  221.2100 C   0  0  0  0  0  0  0  0  0  0  0  0
  140.8410   75.3800  222.0070 O   0  0  0  0  0  0  0  0  0  0  0  0
  138.8840   74.3590  221.2460 C   0  0  0  0  0  0  0  0  0  0  0  0
  139.2030   73.4570  222.3210 N   0  0  0  0  0  0  0  0  0  0  0  0
  138.8370   72.0700  222.3150 C   0  0  0  0  0  0  0  0  0  0  0  0
  138.2090   71.5500  221.3430 O   0  0  0  0  0  0  0  0  0  0  0  0
  139.1890   71.2120  223.4550 C   0  0  0  0  0  0  0  0  0  0  0  0
  138.8980   69.8670  223.4240 C   0  0  0  0  0  0  0  0  0  0  0  0
  139.2000   68.9990  224.4490 C   0  0  0  0  0  0  0  0  0  0  0  0
  139.8290   69.5380  225.5530 C   0  0  0  0  0  0  0  0  0  0  0  0
  140.1320   68.6620  226.5790 C   0  0  0  0  0  0  0  0  0  0  0  0
  140.7620   69.1760  227.6920 C   0  0  0  0  0  0  0  0  0  0  0  0
  141.1900   68.1330  229.0570 Cl  0  0  0  0  0  0  0  0  0  0  0  0
  141.0680   70.5070  227.7610 C   0  0  0  0  0  0  0  0  0  0  0  0
  140.7680   71.4080  226.7320 C   0  0  0  0  0  0  0  0  0  0  0  0
  140.1290   70.8840  225.6010 C   0  0  0  0  0  0  0  0  0  0  0  0
  139.8010   71.6780  224.5540 N   0  0  0  0  0  0  0  0  0  0  0  0
  140.9210   78.2550  221.7790 C   0  0  0  0  0  0  0  0  0  0  0  0
  142.1600   79.0640  221.9610 C   0  0  0  0  0  0  0  0  0  0  0  0
  141.9750   80.3370  222.7420 C   0  0  0  0  0  0  0  0  0  0  0  0
  140.9820   80.2640  223.8480 C   0  0  0  0  0  0  0  0  0  0  0  0
  139.8010   79.3870  223.6050 C   0  0  0  0  0  0  0  0  0  0  0  0
  139.6470   78.9890  222.1410 C   0  0  0  0  0  0  0  0  0  0  0  0
  142.7437   76.7326  220.9011 H   0  0  0  0  0  0  0  0  0  0  0  0
  141.9795   76.0953  219.4055 H   0  0  0  0  0  0  0  0  0  0  0  0
  142.7296   77.7275  219.4055 H   0  0  0  0  0  0  0  0  0  0  0  0
  140.5818   78.4130  219.7197 H   0  0  0  0  0  0  0  0  0  0  0  0
  139.0320   76.7270  219.6970 H   0  0  0  0  0  0  0  0  0  0  0  0
  137.8776   74.7741  221.4036 H   0  0  0  0  0  0  0  0  0  0  0  0
  138.9133   73.8128  220.2917 H   0  0  0  0  0  0  0  0  0  0  0  0
  139.7330   73.7640  223.1920 H   0  0  0  0  0  0  0  0  0  0  0  0
  138.3969   69.4637  222.5317 H   0  0  0  0  0  0  0  0  0  0  0  0
  138.9523   67.9288  224.3910 H   0  0  0  0  0  0  0  0  0  0  0  0
  139.8795   67.5936  226.5095 H   0  0  0  0  0  0  0  0  0  0  0  0
  141.5710   70.8858  228.6629 H   0  0  0  0  0  0  0  0  0  0  0  0
  141.0219   72.4756  226.8081 H   0  0  0  0  0  0  0  0  0  0  0  0
  141.0074   77.4417  222.5146 H   0  0  0  0  0  0  0  0  0  0  0  0
  142.8992   78.4434  222.4887 H   0  0  0  0  0  0  0  0  0  0  0  0
  142.4841   79.3638  220.9535 H   0  0  0  0  0  0  0  0  0  0  0  0
  142.9472   80.6145  223.1755 H   0  0  0  0  0  0  0  0  0  0  0  0
  141.5837   81.0779  222.0293 H   0  0  0  0  0  0  0  0  0  0  0  0
  141.5010   79.8903  224.7430 H   0  0  0  0  0  0  0  0  0  0  0  0
  140.5800   81.2823  223.9553 H   0  0  0  0  0  0  0  0  0  0  0  0
  139.9129   78.4732  224.2070 H   0  0  0  0  0  0  0  0  0  0  0  0
  138.9036   79.9569  223.8877 H   0  0  0  0  0  0  0  0  0  0  0  0
  138.7753   78.3305  222.0124 H   0  0  0  0  0  0  0  0  0  0  0  0
  139.4871   79.8661  221.4968 H   0  0  0  0  0  0  0  0  0  0  0  0
  1  2  1  0
  2  3  1  0
  3  4  1  0
  4  5  2  0
  4  6  1  0
  6  7  1  0
  7  8  1  0
  8  9  2  0
  8 10  1  0
 10 11  2  0
 11 12  1  0
 12 13  2  0
 13 14  1  0
 14 15  2  0
 15 16  1  0
 15 17  1  0
 17 18  2  0
 18 19  1  0
 19 20  2  0
  2 21  1  0
 21 22  1  0
 22 23  1  0
 23 24  1  0
 24 25  1  0
 25 26  1  0
 20 10  1  0
 26 21  1  0
 19 13  1  0
  1 27  1  0
  1 28  1  0
  1 29  1  0
  2 30  1  6
  3 31  1  0
  6 32  1  0
  6 33  1  0
  7 34  1  0
 11 35  1  0
 12 36  1  0
 14 37  1  0
 17 38  1  0
 18 39  1  0
 21 40  1  0
 22 41  1  0
 22 42  1  0
 23 43  1  0
 23 44  1  0
 24 45  1  0
 24 46  1  0
 25 47  1  0
 25 48  1  0
 26 49  1  0
 26 50  1  0
M  END
>  <smiles>  (8) 
C[C@@H](NC(=O)CNC(=O)c1ccc2cc(Cl)ccc2n1)C1CCCCC1

>  <score_type>  (8) 
oracle

>  <origin>  (8) 
autodockgpu

>  <m_score__min__energy>  (8) 
-8.3399999999999999

>  <m_primary>  (8) 
energy

>  <rmsd>  (8) 
4.162949142404006

>  <m_score__min__rmsd>  (8) 
4.162949142404006

>  <meeko>  (8) 
{"free_energy": -8.1, "intermolecular_energy": -9.59, "internal_energy": -1.71, "cluster_size": 17, "cluster_id": 1, "rank_in_cluster": 11}

>  <energy>  (8) 
-8.16

>  <cluster_rmsd>  (8) 
0.84

>  <cluster>  (8) 
1

$$$$

     RDKit          3D

 50 52  0  0  0  0  0  0  0  0999 V2000
  139.1040   68.4400  224.7820 C   0  0  0  0  0  0  0  0  0  0  0  0
  139.9630   69.6710  224.5870 C   0  0  1  0  0  0  0  0  0  0  0  0
  139.4390   70.4440  223.4770 N   0  0  0  0  0  0  0  0  0  0  0  0
  138.1240   70.9610  223.5050 C   0  0  0  0  0  0  0  0  0  0  0  0
  137.4390   70.7190  224.5390 O   0  0  0  0  0  0  0  0  0  0  0  0
  137.4850   71.7550  222.4470 C   0  0  0  0  0  0  0  0  0  0  0  0
  138.1290   73.0380  222.3460 N   0  0  0  0  0  0  0  0  0  0  0  0
  139.4210   73.2220  221.7510 C   0  0  0  0  0  0  0  0  0  0  0  0
  140.0760   72.2510  221.2650 O   0  0  0  0  0  0  0  0  0  0  0  0
  140.0190   74.5630  221.6940 C   0  0  0  0  0  0  0  0  0  0  0  0
  141.1560   74.7820  220.9480 C   0  0  0  0  0  0  0  0  0  0  0  0
  141.7710   76.0080  220.8410 C   0  0  0  0  0  0  0  0  0  0  0  0
  141.1930   77.0550  221.5310 C   0  0  0  0  0  0  0  0  0  0  0  0
  141.8140   78.2850  221.4190 C   0  0  0  0  0  0  0  0  0  0  0  0
  141.2550   79.3460  222.0990 C   0  0  0  0  0  0  0  0  0  0  0  0
  141.9780   80.9600  222.0160 Cl  0  0  0  0  0  0  0  0  0  0  0  0
  140.1270   79.1690  222.8510 C   0  0  0  0  0  0  0  0  0  0  0  0
  139.4860   77.9310  222.9750 C   0  0  0  0  0  0  0  0  0  0  0  0
  140.0540   76.8540  222.2840 C   0  0  0  0  0  0  0  0  0  0  0  0
  139.5030   75.6170  222.3430 N   0  0  0  0  0  0  0  0  0  0  0  0
  140.0680   70.4910  225.8450 C   0  0  0  0  0  0  0  0  0  0  0  0
  139.8840   69.6790  227.0820 C   0  0  0  0  0  0  0  0  0  0  0  0
  140.7640   70.0750  228.2360 C   0  0  0  0  0  0  0  0  0  0  0  0
  141.0350   71.5340  228.3550 C   0  0  0  0  0  0  0  0  0  0  0  0
  141.1480   72.2820  227.0700 C   0  0  0  0  0  0  0  0  0  0  0  0
  141.3040   71.3660  225.8610 C   0  0  0  0  0  0  0  0  0  0  0  0
  138.9724   68.2514  225.8577 H   0  0  0  0  0  0  0  0  0  0  0  0
  138.1212   68.6010  224.3150 H   0  0  0  0  0  0  0  0  0  0  0  0
  139.5942   67.5731  224.3150 H   0  0  0  0  0  0  0  0  0  0  0  0
  140.9894   69.3551  224.3488 H   0  0  0  0  0  0  0  0  0  0  0  0
  140.0690   70.6130  222.6700 H   0  0  0  0  0  0  0  0  0  0  0  0
  137.5745   71.2246  221.4875 H   0  0  0  0  0  0  0  0  0  0  0  0
  136.4224   71.8996  222.6921 H   0  0  0  0  0  0  0  0  0  0  0  0
  137.6840   73.9350  222.7090 H   0  0  0  0  0  0  0  0  0  0  0  0
  141.5962   73.9304  220.4085 H   0  0  0  0  0  0  0  0  0  0  0  0
  142.6787   76.1473  220.2354 H   0  0  0  0  0  0  0  0  0  0  0  0
  142.7209   78.4125  220.8097 H   0  0  0  0  0  0  0  0  0  0  0  0
  139.7055   80.0360  223.3808 H   0  0  0  0  0  0  0  0  0  0  0  0
  138.5794   77.8100  223.5861 H   0  0  0  0  0  0  0  0  0  0  0  0
  139.2179   71.1890  225.8389 H   0  0  0  0  0  0  0  0  0  0  0  0
  138.8361   69.7765  227.4021 H   0  0  0  0  0  0  0  0  0  0  0  0
  140.1648   68.6484  226.8193 H   0  0  0  0  0  0  0  0  0  0  0  0
  140.2774   69.7424  229.1648 H   0  0  0  0  0  0  0  0  0  0  0  0
  141.7382   69.5974  228.0549 H   0  0  0  0  0  0  0  0  0  0  0  0
  140.2154   71.9828  228.9354 H   0  0  0  0  0  0  0  0  0  0  0  0
  142.0215   71.6155  228.8348 H   0  0  0  0  0  0  0  0  0  0  0  0
  140.2400   72.8883  226.9360 H   0  0  0  0  0  0  0  0  0  0  0  0
  142.0521   72.9057  227.1300 H   0  0  0  0  0  0  0  0  0  0  0  0
  141.3658   71.9589  224.9365 H   0  0  0  0  0  0  0  0  0  0  0  0
  142.2241   70.7664  225.9230 H   0  0  0  0  0  0  0  0  0  0  0  0
  1  2  1  0
  2  3  1  0
  3  4  1  0
  4  5  2  0
  4  6  1  0
  6  7  1  0
  7  8  1  0
  8  9  2  0
  8 10  1  0
 10 11  2  0
 11 12  1  0
 12 13  2  0
 13 14  1  0
 14 15  2  0
 15 16  1  0
 15 17  1  0
 17 18  2  0
 18 19  1  0
 19 20  2  0
  2 21  1  0
 21 22  1  0
 22 23  1  0
 23 24  1  0
 24 25  1  0
 25 26  1  0
 20 10  1  0
 26 21  1  0
 19 13  1  0
  1 27  1  0
  1 28  1  0
  1 29  1  0
  2 30  1  6
  3 31  1  0
  6 32  1  0
  6 33  1  0
  7 34  1  0
 11 35  1  0
 12 36  1  0
 14 37  1  0
 17 38  1  0
 18 39  1  0
 21 40  1  0
 22 41  1  0
 22 42  1  0
 23 43  1  0
 23 44  1  0
 24 45  1  0
 24 46  1  0
 25 47  1  0
 25 48  1  0
 26 49  1  0
 26 50  1  0
M  END
>  <smiles>  (9) 
C[C@@H](NC(=O)CNC(=O)c1ccc2cc(Cl)ccc2n1)C1CCCCC1

>  <score_type>  (9) 
oracle

>  <origin>  (9) 
autodockgpu

>  <m_score__min__energy>  (9) 
-8.3399999999999999

>  <m_primary>  (9) 
energy

>  <rmsd>  (9) 
9.712490093179678

>  <m_score__min__rmsd>  (9) 
9.712490093179678

>  <meeko>  (9) 
{"free_energy": -7.96, "intermolecular_energy": -9.46, "internal_energy": -2.06, "cluster_size": 24, "cluster_id": 2, "rank_in_cluster": 8}

>  <energy>  (9) 
-8.16

>  <cluster_rmsd>  (9) 
0.86

>  <cluster>  (9) 
1

$$$$

     RDKit          3D

 50 52  0  0  0  0  0  0  0  0999 V2000
  142.2200   76.8050  220.3380 C   0  0  0  0  0  0  0  0  0  0  0  0
  140.8430   77.4140  220.1800 C   0  0  1  0  0  0  0  0  0  0  0  0
  139.8600   76.3510  220.0920 N   0  0  0  0  0  0  0  0  0  0  0  0
  139.7900   75.3390  221.0770 C   0  0  0  0  0  0  0  0  0  0  0  0
  140.6180   75.4130  222.0290 O   0  0  0  0  0  0  0  0  0  0  0  0
  138.8430   74.2160  221.0960 C   0  0  0  0  0  0  0  0  0  0  0  0
  139.1600   73.3330  222.1870 N   0  0  0  0  0  0  0  0  0  0  0  0
  138.8550   71.9310  222.1740 C   0  0  0  0  0  0  0  0  0  0  0  0
  138.2890   71.3800  221.1810 O   0  0  0  0  0  0  0  0  0  0  0  0
  139.2000   71.0940  223.3310 C   0  0  0  0  0  0  0  0  0  0  0  0
  138.8840   69.7530  223.3320 C   0  0  0  0  0  0  0  0  0  0  0  0
  139.1780   68.9040  224.3750 C   0  0  0  0  0  0  0  0  0  0  0  0
  139.8240   69.4560  225.4630 C   0  0  0  0  0  0  0  0  0  0  0  0
  140.1190   68.5980  226.5060 C   0  0  0  0  0  0  0  0  0  0  0  0
  140.7650   69.1270  227.6030 C   0  0  0  0  0  0  0  0  0  0  0  0
  141.1830   68.1070  228.9890 Cl  0  0  0  0  0  0  0  0  0  0  0  0
  141.0950   70.4530  227.6390 C   0  0  0  0  0  0  0  0  0  0  0  0
  140.8050   71.3350  226.5920 C   0  0  0  0  0  0  0  0  0  0  0  0
  140.1490   70.7980  225.4780 C   0  0  0  0  0  0  0  0  0  0  0  0
  139.8270   71.5730  224.4150 N   0  0  0  0  0  0  0  0  0  0  0  0
  140.5250   78.3840  221.2870 C   0  0  0  0  0  0  0  0  0  0  0  0
  139.0690   78.4500  221.5980 C   0  0  0  0  0  0  0  0  0  0  0  0
  138.7390   78.6040  223.0580 C   0  0  0  0  0  0  0  0  0  0  0  0
  139.6900   79.4420  223.8370 C   0  0  0  0  0  0  0  0  0  0  0  0
  141.1200   79.3600  223.4250 C   0  0  0  0  0  0  0  0  0  0  0  0
  141.4050   78.1790  222.5020 C   0  0  0  0  0  0  0  0  0  0  0  0
  142.4545   76.7013  221.4077 H   0  0  0  0  0  0  0  0  0  0  0  0
  142.2397   75.8142  219.8606 H   0  0  0  0  0  0  0  0  0  0  0  0
  142.9663   77.4570  219.8606 H   0  0  0  0  0  0  0  0  0  0  0  0
  140.8183   78.0004  219.2497 H   0  0  0  0  0  0  0  0  0  0  0  0
  139.2050   76.3690  219.2880 H   0  0  0  0  0  0  0  0  0  0  0  0
  137.8207   74.6018  221.2230 H   0  0  0  0  0  0  0  0  0  0  0  0
  138.9140   73.6634  220.1475 H   0  0  0  0  0  0  0  0  0  0  0  0
  139.6410   73.6660  223.0760 H   0  0  0  0  0  0  0  0  0  0  0  0
  138.3694   69.3386  222.4525 H   0  0  0  0  0  0  0  0  0  0  0  0
  138.9111   67.8374  224.3430 H   0  0  0  0  0  0  0  0  0  0  0  0
  139.8483   67.5327  226.4622 H   0  0  0  0  0  0  0  0  0  0  0  0
  141.6105   70.8434  228.5289 H   0  0  0  0  0  0  0  0  0  0  0  0
  141.0793   72.3991  226.6419 H   0  0  0  0  0  0  0  0  0  0  0  0
  140.7767   79.3865  220.9107 H   0  0  0  0  0  0  0  0  0  0  0  0
  138.6431   79.3092  221.0590 H   0  0  0  0  0  0  0  0  0  0  0  0
  138.6430   77.4851  221.2857 H   0  0  0  0  0  0  0  0  0  0  0  0
  137.7411   79.0604  223.1351 H   0  0  0  0  0  0  0  0  0  0  0  0
  138.7950   77.5948  223.4919 H   0  0  0  0  0  0  0  0  0  0  0  0
  139.3715   80.4905  223.7411 H   0  0  0  0  0  0  0  0  0  0  0  0
  139.6544   79.0537  224.8656 H   0  0  0  0  0  0  0  0  0  0  0  0
  141.3877   80.2886  222.8997 H   0  0  0  0  0  0  0  0  0  0  0  0
  141.7187   79.2184  224.3369 H   0  0  0  0  0  0  0  0  0  0  0  0
  142.4654   78.1684  222.2097 H   0  0  0  0  0  0  0  0  0  0  0  0
  141.1958   77.2188  222.9963 H   0  0  0  0  0  0  0  0  0  0  0  0
  1  2  1  0
  2  3  1  0
  3  4  1  0
  4  5  2  0
  4  6  1  0
  6  7  1  0
  7  8  1  0
  8  9  2  0
  8 10  1  0
 10 11  2  0
 11 12  1  0
 12 13  2  0
 13 14  1  0
 14 15  2  0
 15 16  1  0
 15 17  1  0
 17 18  2  0
 18 19  1  0
 19 20  2  0
  2 21  1  0
 21 22  1  0
 22 23  1  0
 23 24  1  0
 24 25  1  0
 25 26  1  0
 20 10  1  0
 26 21  1  0
 19 13  1  0
  1 27  1  0
  1 28  1  0
  1 29  1  0
  2 30  1  6
  3 31  1  0
  6 32  1  0
  6 33  1  0
  7 34  1  0
 11 35  1  0
 12 36  1  0
 14 37  1  0
 17 38  1  0
 18 39  1  0
 21 40  1  0
 22 41  1  0
 22 42  1  0
 23 43  1  0
 23 44  1  0
 24 45  1  0
 24 46  1  0
 25 47  1  0
 25 48  1  0
 26 49  1  0
 26 50  1  0
M  END
>  <smiles>  (10) 
C[C@@H](NC(=O)CNC(=O)c1ccc2cc(Cl)ccc2n1)C1CCCCC1

>  <score_type>  (10) 
oracle

>  <origin>  (10) 
autodockgpu

>  <m_score__min__energy>  (10) 
-8.3399999999999999

>  <m_primary>  (10) 
energy

>  <rmsd>  (10) 
4.000259059743443

>  <m_score__min__rmsd>  (10) 
4.000259059743443

>  <meeko>  (10) 
{"free_energy": -7.59, "intermolecular_energy": -9.08, "internal_energy": -1.74, "cluster_size": 17, "cluster_id": 1, "rank_in_cluster": 17}

>  <energy>  (10) 
-8.12

>  <cluster_rmsd>  (10) 
1.36

>  <cluster>  (10) 
1

$$$$

     RDKit          3D

 50 52  0  0  0  0  0  0  0  0999 V2000
  139.2520   67.4620  226.3940 C   0  0  0  0  0  0  0  0  0  0  0  0
  140.2160   68.2740  225.5540 C   0  0  1  0  0  0  0  0  0  0  0  0
  139.5150   68.7930  224.3950 N   0  0  0  0  0  0  0  0  0  0  0  0
  138.3060   69.5110  224.5350 C   0  0  0  0  0  0  0  0  0  0  0  0
  137.8760   69.6790  225.7120 O   0  0  0  0  0  0  0  0  0  0  0  0
  137.5090   70.0830  223.4420 C   0  0  0  0  0  0  0  0  0  0  0  0
  138.1190   71.3010  222.9810 N   0  0  0  0  0  0  0  0  0  0  0  0
  139.4160   71.3450  222.3670 C   0  0  0  0  0  0  0  0  0  0  0  0
  140.1040   70.2950  222.1850 O   0  0  0  0  0  0  0  0  0  0  0  0
  139.9790   72.6300  221.9300 C   0  0  0  0  0  0  0  0  0  0  0  0
  141.0410   72.6570  221.0540 C   0  0  0  0  0  0  0  0  0  0  0  0
  141.6190   73.8190  220.5960 C   0  0  0  0  0  0  0  0  0  0  0  0
  141.0830   75.0040  221.0580 C   0  0  0  0  0  0  0  0  0  0  0  0
  141.6660   76.1680  220.5940 C   0  0  0  0  0  0  0  0  0  0  0  0
  141.1470   77.3640  221.0410 C   0  0  0  0  0  0  0  0  0  0  0  0
  141.8280   78.9080  220.5020 Cl  0  0  0  0  0  0  0  0  0  0  0  0
  140.0930   77.3790  221.9120 C   0  0  0  0  0  0  0  0  0  0  0  0
  139.4910   76.2100  222.3920 C   0  0  0  0  0  0  0  0  0  0  0  0
  140.0180   74.9950  221.9370 C   0  0  0  0  0  0  0  0  0  0  0  0
  139.5010   73.8120  222.3450 N   0  0  0  0  0  0  0  0  0  0  0  0
  140.8740   69.3690  226.3510 C   0  0  0  0  0  0  0  0  0  0  0  0
  141.3380   70.5030  225.5010 C   0  0  0  0  0  0  0  0  0  0  0  0
  141.1680   71.8660  226.1160 C   0  0  0  0  0  0  0  0  0  0  0  0
  141.3720   71.9270  227.5890 C   0  0  0  0  0  0  0  0  0  0  0  0
  140.9320   70.7270  228.3570 C   0  0  0  0  0  0  0  0  0  0  0  0
  140.0430   69.7930  227.5430 C   0  0  0  0  0  0  0  0  0  0  0  0
  139.4585   67.6360  227.4603 H   0  0  0  0  0  0  0  0  0  0  0  0
  138.2201   67.7671  226.1658 H   0  0  0  0  0  0  0  0  0  0  0  0
  139.3773   66.3932  226.1658 H   0  0  0  0  0  0  0  0  0  0  0  0
  141.0312   67.6185  225.2138 H   0  0  0  0  0  0  0  0  0  0  0  0
  139.9400   68.6270  223.4630 H   0  0  0  0  0  0  0  0  0  0  0  0
  137.4577   69.3632  222.6118 H   0  0  0  0  0  0  0  0  0  0  0  0
  136.4943   70.3001  223.8071 H   0  0  0  0  0  0  0  0  0  0  0  0
  137.6460   72.2510  223.0670 H   0  0  0  0  0  0  0  0  0  0  0  0
  141.4493   71.6984  220.7013 H   0  0  0  0  0  0  0  0  0  0  0  0
  142.4671   73.8041  219.8956 H   0  0  0  0  0  0  0  0  0  0  0  0
  142.5135   76.1409  219.8933 H   0  0  0  0  0  0  0  0  0  0  0  0
  139.7019   78.3501  222.2495 H   0  0  0  0  0  0  0  0  0  0  0  0
  138.6442   76.2441  223.0933 H   0  0  0  0  0  0  0  0  0  0  0  0
  141.7941   68.9418  226.7762 H   0  0  0  0  0  0  0  0  0  0  0  0
  142.4069   70.3552  225.2876 H   0  0  0  0  0  0  0  0  0  0  0  0
  140.7085   70.4905  224.5990 H   0  0  0  0  0  0  0  0  0  0  0  0
  141.8930   72.5452  225.6437 H   0  0  0  0  0  0  0  0  0  0  0  0
  140.1201   72.1510  225.9411 H   0  0  0  0  0  0  0  0  0  0  0  0
  142.4466   72.0709  227.7749 H   0  0  0  0  0  0  0  0  0  0  0  0
  140.7408   72.7554  227.9432 H   0  0  0  0  0  0  0  0  0  0  0  0
  141.8243   70.1699  228.6787 H   0  0  0  0  0  0  0  0  0  0  0  0
  140.3398   71.0826  229.2131 H   0  0  0  0  0  0  0  0  0  0  0  0
  139.7579   68.9161  228.1428 H   0  0  0  0  0  0  0  0  0  0  0  0
  139.1117   70.2890  227.2319 H   0  0  0  0  0  0  0  0  0  0  0  0
  1  2  1  0
  2  3  1  0
  3  4  1  0
  4  5  2  0
  4  6  1  0
  6  7  1  0
  7  8  1  0
  8  9  2  0
  8 10  1  0
 10 11  2  0
 11 12  1  0
 12 13  2  0
 13 14  1  0
 14 15  2  0
 15 16  1  0
 15 17  1  0
 17 18  2  0
 18 19  1  0
 19 20  2  0
  2 21  1  0
 21 22  1  0
 22 23  1  0
 23 24  1  0
 24 25  1  0
 25 26  1  0
 20 10  1  0
 26 21  1  0
 19 13  1  0
  1 27  1  0
  1 28  1  0
  1 29  1  0
  2 30  1  6
  3 31  1  0
  6 32  1  0
  6 33  1  0
  7 34  1  0
 11 35  1  0
 12 36  1  0
 14 37  1  0
 17 38  1  0
 18 39  1  0
 21 40  1  0
 22 41  1  0
 22 42  1  0
 23 43  1  0
 23 44  1  0
 24 45  1  0
 24 46  1  0
 25 47  1  0
 25 48  1  0
 26 49  1  0
 26 50  1  0
M  END
>  <smiles>  (11) 
C[C@@H](NC(=O)CNC(=O)c1ccc2cc(Cl)ccc2n1)C1CCCCC1

>  <score_type>  (11) 
oracle

>  <origin>  (11) 
autodockgpu

>  <m_score__min__energy>  (11) 
-8.3399999999999999

>  <m_primary>  (11) 
energy

>  <rmsd>  (11) 
10.129998504588803

>  <m_score__min__rmsd>  (11) 
10.129998504588803

>  <meeko>  (11) 
{"free_energy": -7.46, "intermolecular_energy": -8.95, "internal_energy": -2.29, "cluster_size": 3, "cluster_id": 5, "rank_in_cluster": 3}

>  <energy>  (11) 
-8.1

>  <cluster_rmsd>  (11) 
1.37

>  <cluster>  (11) 
1

$$$$

     RDKit          3D

 50 52  0  0  0  0  0  0  0  0999 V2000
  139.1370   68.4070  224.7560 C   0  0  0  0  0  0  0  0  0  0  0  0
  139.9900   69.6430  224.5670 C   0  0  1  0  0  0  0  0  0  0  0  0
  139.4630   70.4180  223.4590 N   0  0  0  0  0  0  0  0  0  0  0  0
  138.1520   70.9460  223.4970 C   0  0  0  0  0  0  0  0  0  0  0  0
  137.4740   70.7110  224.5370 O   0  0  0  0  0  0  0  0  0  0  0  0
  137.5110   71.7420  222.4420 C   0  0  0  0  0  0  0  0  0  0  0  0
  138.1530   73.0260  222.3450 N   0  0  0  0  0  0  0  0  0  0  0  0
  139.4470   73.2140  221.7540 C   0  0  0  0  0  0  0  0  0  0  0  0
  140.1050   72.2440  221.2680 O   0  0  0  0  0  0  0  0  0  0  0  0
  140.0430   74.5550  221.7000 C   0  0  0  0  0  0  0  0  0  0  0  0
  141.1750   74.7790  220.9490 C   0  0  0  0  0  0  0  0  0  0  0  0
  141.7890   76.0070  220.8450 C   0  0  0  0  0  0  0  0  0  0  0  0
  141.2140   77.0500  221.5430 C   0  0  0  0  0  0  0  0  0  0  0  0
  141.8320   78.2810  221.4340 C   0  0  0  0  0  0  0  0  0  0  0  0
  141.2760   79.3380  222.1220 C   0  0  0  0  0  0  0  0  0  0  0  0
  141.9970   80.9530  222.0440 Cl  0  0  0  0  0  0  0  0  0  0  0  0
  140.1520   79.1560  222.8790 C   0  0  0  0  0  0  0  0  0  0  0  0
  139.5130   77.9160  223.0010 C   0  0  0  0  0  0  0  0  0  0  0  0
  140.0790   76.8430  222.3010 C   0  0  0  0  0  0  0  0  0  0  0  0
  139.5300   75.6060  222.3570 N   0  0  0  0  0  0  0  0  0  0  0  0
  140.0890   70.4590  225.8290 C   0  0  0  0  0  0  0  0  0  0  0  0
  139.9000   69.6420  227.0610 C   0  0  0  0  0  0  0  0  0  0  0  0
  140.7740   70.0340  228.2210 C   0  0  0  0  0  0  0  0  0  0  0  0
  141.0450   71.4920  228.3460 C   0  0  0  0  0  0  0  0  0  0  0  0
  141.1640   72.2450  227.0650 C   0  0  0  0  0  0  0  0  0  0  0  0
  141.3250   71.3330  225.8530 C   0  0  0  0  0  0  0  0  0  0  0  0
  139.0039   68.2142  225.8308 H   0  0  0  0  0  0  0  0  0  0  0  0
  138.1544   68.5644  224.2873 H   0  0  0  0  0  0  0  0  0  0  0  0
  139.6328   67.5441  224.2873 H   0  0  0  0  0  0  0  0  0  0  0  0
  141.0183   69.3334  224.3290 H   0  0  0  0  0  0  0  0  0  0  0  0
  140.0880   70.5810  222.6470 H   0  0  0  0  0  0  0  0  0  0  0  0
  137.6008   71.2148  221.4807 H   0  0  0  0  0  0  0  0  0  0  0  0
  136.4483   71.8839  222.6878 H   0  0  0  0  0  0  0  0  0  0  0  0
  137.7060   73.9220  222.7080 H   0  0  0  0  0  0  0  0  0  0  0  0
  141.6127   73.9307  220.4023 H   0  0  0  0  0  0  0  0  0  0  0  0
  142.6935   76.1500  220.2355 H   0  0  0  0  0  0  0  0  0  0  0  0
  142.7353   78.4127  220.8202 H   0  0  0  0  0  0  0  0  0  0  0  0
  139.7320   80.0201  223.4147 H   0  0  0  0  0  0  0  0  0  0  0  0
  138.6102   77.7907  223.6168 H   0  0  0  0  0  0  0  0  0  0  0  0
  139.2392   71.1574  225.8227 H   0  0  0  0  0  0  0  0  0  0  0  0
  138.8505   69.7371  227.3764 H   0  0  0  0  0  0  0  0  0  0  0  0
  140.1831   68.6128  226.7952 H   0  0  0  0  0  0  0  0  0  0  0  0
  140.2823   69.6987  229.1461 H   0  0  0  0  0  0  0  0  0  0  0  0
  141.7489   69.5565  228.0436 H   0  0  0  0  0  0  0  0  0  0  0  0
  140.2231   71.9390  228.9245 H   0  0  0  0  0  0  0  0  0  0  0  0
  142.0297   71.5710  228.8299 H   0  0  0  0  0  0  0  0  0  0  0  0
  140.2569   72.8522  226.9293 H   0  0  0  0  0  0  0  0  0  0  0  0
  142.0679   72.8684  227.1313 H   0  0  0  0  0  0  0  0  0  0  0  0
  141.3909   71.9291  224.9309 H   0  0  0  0  0  0  0  0  0  0  0  0
  142.2447   70.7329  225.9166 H   0  0  0  0  0  0  0  0  0  0  0  0
  1  2  1  0
  2  3  1  0
  3  4  1  0
  4  5  2  0
  4  6  1  0
  6  7  1  0
  7  8  1  0
  8  9  2  0
  8 10  1  0
 10 11  2  0
 11 12  1  0
 12 13  2  0
 13 14  1  0
 14 15  2  0
 15 16  1  0
 15 17  1  0
 17 18  2  0
 18 19  1  0
 19 20  2  0
  2 21  1  0
 21 22  1  0
 22 23  1  0
 23 24  1  0
 24 25  1  0
 25 26  1  0
 20 10  1  0
 26 21  1  0
 19 13  1  0
  1 27  1  0
  1 28  1  0
  1 29  1  0
  2 30  1  6
  3 31  1  0
  6 32  1  0
  6 33  1  0
  7 34  1  0
 11 35  1  0
 12 36  1  0
 14 37  1  0
 17 38  1  0
 18 39  1  0
 21 40  1  0
 22 41  1  0
 22 42  1  0
 23 43  1  0
 23 44  1  0
 24 45  1  0
 24 46  1  0
 25 47  1  0
 25 48  1  0
 26 49  1  0
 26 50  1  0
M  END
>  <smiles>  (12) 
C[C@@H](NC(=O)CNC(=O)c1ccc2cc(Cl)ccc2n1)C1CCCCC1

>  <score_type>  (12) 
oracle

>  <origin>  (12) 
autodockgpu

>  <m_score__min__energy>  (12) 
-8.3399999999999999

>  <m_primary>  (12) 
energy

>  <rmsd>  (12) 
9.723811080214888

>  <m_score__min__rmsd>  (12) 
9.723811080214888

>  <meeko>  (12) 
{"free_energy": -7.97, "intermolecular_energy": -9.46, "internal_energy": -2.06, "cluster_size": 24, "cluster_id": 2, "rank_in_cluster": 6}

>  <energy>  (12) 
-8.07

>  <cluster_rmsd>  (12) 
0.66

>  <cluster>  (12) 
1

$$$$

     RDKit          3D

 50 52  0  0  0  0  0  0  0  0999 V2000
  142.1550   77.3130  220.3200 C   0  0  0  0  0  0  0  0  0  0  0  0
  140.7660   77.8960  220.4720 C   0  0  1  0  0  0  0  0  0  0  0  0
  139.7880   76.8350  220.3260 N   0  0  0  0  0  0  0  0  0  0  0  0
  139.7580   75.7420  221.2210 C   0  0  0  0  0  0  0  0  0  0  0  0
  140.6180   75.7410  222.1470 O   0  0  0  0  0  0  0  0  0  0  0  0
  138.8190   74.6130  221.1750 C   0  0  0  0  0  0  0  0  0  0  0  0
  139.1290   73.6810  222.2260 N   0  0  0  0  0  0  0  0  0  0  0  0
  138.8840   72.2710  222.1210 C   0  0  0  0  0  0  0  0  0  0  0  0
  138.3800   71.7570  221.0760 O   0  0  0  0  0  0  0  0  0  0  0  0
  139.2180   71.3810  223.2410 C   0  0  0  0  0  0  0  0  0  0  0  0
  138.8980   70.0430  223.1810 C   0  0  0  0  0  0  0  0  0  0  0  0
  139.1820   69.1470  224.1860 C   0  0  0  0  0  0  0  0  0  0  0  0
  139.8230   69.6480  225.3020 C   0  0  0  0  0  0  0  0  0  0  0  0
  140.1070   68.7440  226.3080 C   0  0  0  0  0  0  0  0  0  0  0  0
  140.7480   69.2210  227.4320 C   0  0  0  0  0  0  0  0  0  0  0  0
  141.1530   68.1390  228.7740 Cl  0  0  0  0  0  0  0  0  0  0  0  0
  141.0820   70.5430  227.5300 C   0  0  0  0  0  0  0  0  0  0  0  0
  140.8010   71.4720  226.5210 C   0  0  0  0  0  0  0  0  0  0  0  0
  140.1510   70.9860  225.3790 C   0  0  0  0  0  0  0  0  0  0  0  0
  139.8390   71.8100  224.3500 N   0  0  0  0  0  0  0  0  0  0  0  0
  140.6040   78.6370  221.7730 C   0  0  0  0  0  0  0  0  0  0  0  0
  141.8460   78.6370  222.5970 C   0  0  0  0  0  0  0  0  0  0  0  0
  142.1140   79.9190  223.3380 C   0  0  0  0  0  0  0  0  0  0  0  0
  140.9040   80.6240  223.8410 C   0  0  0  0  0  0  0  0  0  0  0  0
  139.6890   80.5260  222.9840 C   0  0  0  0  0  0  0  0  0  0  0  0
  139.9920   80.0080  221.5820 C   0  0  0  0  0  0  0  0  0  0  0  0
  142.5874   77.1315  221.3151 H   0  0  0  0  0  0  0  0  0  0  0  0
  142.0958   76.3638  219.7673 H   0  0  0  0  0  0  0  0  0  0  0  0
  142.7910   78.0201  219.7673 H   0  0  0  0  0  0  0  0  0  0  0  0
  140.6041   78.6421  219.6801 H   0  0  0  0  0  0  0  0  0  0  0  0
  139.1050   76.9160  219.5480 H   0  0  0  0  0  0  0  0  0  0  0  0
  137.7926   74.9856  221.3078 H   0  0  0  0  0  0  0  0  0  0  0  0
  138.9055   74.1068  220.2022 H   0  0  0  0  0  0  0  0  0  0  0  0
  139.5620   73.9800  223.1510 H   0  0  0  0  0  0  0  0  0  0  0  0
  138.3876   69.6702  222.2807 H   0  0  0  0  0  0  0  0  0  0  0  0
  138.9118   68.0838  224.1045 H   0  0  0  0  0  0  0  0  0  0  0  0
  139.8319   67.6830  226.2156 H   0  0  0  0  0  0  0  0  0  0  0  0
  141.5929   70.8914  228.4397 H   0  0  0  0  0  0  0  0  0  0  0  0
  141.0772   72.5321  226.6201 H   0  0  0  0  0  0  0  0  0  0  0  0
  139.8722   78.0725  222.3695 H   0  0  0  0  0  0  0  0  0  0  0  0
  141.7663   77.8256  223.3354 H   0  0  0  0  0  0  0  0  0  0  0  0
  142.6824   78.5056  221.8948 H   0  0  0  0  0  0  0  0  0  0  0  0
  142.7555   79.6859  224.2007 H   0  0  0  0  0  0  0  0  0  0  0  0
  142.5842   80.5989  222.6123 H   0  0  0  0  0  0  0  0  0  0  0  0
  140.6554   80.2046  224.8271 H   0  0  0  0  0  0  0  0  0  0  0  0
  141.1686   81.6915  223.8604 H   0  0  0  0  0  0  0  0  0  0  0  0
  138.9748   79.8411  223.4645 H   0  0  0  0  0  0  0  0  0  0  0  0
  139.2762   81.5402  222.8792 H   0  0  0  0  0  0  0  0  0  0  0  0
  139.0665   79.9356  220.9919 H   0  0  0  0  0  0  0  0  0  0  0  0
  140.6703   80.6824  221.0388 H   0  0  0  0  0  0  0  0  0  0  0  0
  1  2  1  0
  2  3  1  0
  3  4  1  0
  4  5  2  0
  4  6  1  0
  6  7  1  0
  7  8  1  0
  8  9  2  0
  8 10  1  0
 10 11  2  0
 11 12  1  0
 12 13  2  0
 13 14  1  0
 14 15  2  0
 15 16  1  0
 15 17  1  0
 17 18  2  0
 18 19  1  0
 19 20  2  0
  2 21  1  0
 21 22  1  0
 22 23  1  0
 23 24  1  0
 24 25  1  0
 25 26  1  0
 20 10  1  0
 26 21  1  0
 19 13  1  0
  1 27  1  0
  1 28  1  0
  1 29  1  0
  2 30  1  6
  3 31  1  0
  6 32  1  0
  6 33  1  0
  7 34  1  0
 11 35  1  0
 12 36  1  0
 14 37  1  0
 17 38  1  0
 18 39  1  0
 21 40  1  0
 22 41  1  0
 22 42  1  0
 23 43  1  0
 23 44  1  0
 24 45  1  0
 24 46  1  0
 25 47  1  0
 25 48  1  0
 26 49  1  0
 26 50  1  0
M  END
>  <smiles>  (13) 
C[C@@H](NC(=O)CNC(=O)c1ccc2cc(Cl)ccc2n1)C1CCCCC1

>  <score_type>  (13) 
oracle

>  <origin>  (13) 
autodockgpu

>  <m_score__min__energy>  (13) 
-8.3399999999999999

>  <m_primary>  (13) 
energy

>  <rmsd>  (13) 
3.935198023689145

>  <m_score__min__rmsd>  (13) 
3.935198023689145

>  <meeko>  (13) 
{"free_energy": -7.92, "intermolecular_energy": -9.41, "internal_energy": -1.68, "cluster_size": 17, "cluster_id": 1, "rank_in_cluster": 15}

>  <energy>  (13) 
-8.05

>  <cluster_rmsd>  (13) 
0.67

>  <cluster>  (13) 
1

$$$$

     RDKit          3D

 50 52  0  0  0  0  0  0  0  0999 V2000
  139.0820   68.4180  224.7960 C   0  0  0  0  0  0  0  0  0  0  0  0
  139.9410   69.6510  224.6120 C   0  0  1  0  0  0  0  0  0  0  0  0
  139.4120   70.4390  223.5140 N   0  0  0  0  0  0  0  0  0  0  0  0
  138.0870   70.9280  223.5400 C   0  0  0  0  0  0  0  0  0  0  0  0
  137.3960   70.6480  224.5610 O   0  0  0  0  0  0  0  0  0  0  0  0
  137.4420   71.7320  222.4940 C   0  0  0  0  0  0  0  0  0  0  0  0
  138.0950   73.0100  222.3920 N   0  0  0  0  0  0  0  0  0  0  0  0
  139.3750   73.1890  221.7680 C   0  0  0  0  0  0  0  0  0  0  0  0
  140.0090   72.2170  221.2560 O   0  0  0  0  0  0  0  0  0  0  0  0
  139.9840   74.5250  221.7110 C   0  0  0  0  0  0  0  0  0  0  0  0
  141.1330   74.7300  220.9790 C   0  0  0  0  0  0  0  0  0  0  0  0
  141.7590   75.9510  220.8740 C   0  0  0  0  0  0  0  0  0  0  0  0
  141.1800   77.0070  221.5490 C   0  0  0  0  0  0  0  0  0  0  0  0
  141.8120   78.2310  221.4380 C   0  0  0  0  0  0  0  0  0  0  0  0
  141.2510   79.3010  222.1040 C   0  0  0  0  0  0  0  0  0  0  0  0
  141.9880   80.9090  222.0220 Cl  0  0  0  0  0  0  0  0  0  0  0  0
  140.1110   79.1370  222.8400 C   0  0  0  0  0  0  0  0  0  0  0  0
  139.4590   77.9050  222.9630 C   0  0  0  0  0  0  0  0  0  0  0  0
  140.0280   76.8190  222.2870 C   0  0  0  0  0  0  0  0  0  0  0  0
  139.4670   75.5870  222.3460 N   0  0  0  0  0  0  0  0  0  0  0  0
  140.0520   70.4560  225.8800 C   0  0  0  0  0  0  0  0  0  0  0  0
  139.9210   69.6210  227.1080 C   0  0  0  0  0  0  0  0  0  0  0  0
  140.8170   70.0250  228.2480 C   0  0  0  0  0  0  0  0  0  0  0  0
  141.0500   71.4890  228.3820 C   0  0  0  0  0  0  0  0  0  0  0  0
  141.1110   72.2580  227.1060 C   0  0  0  0  0  0  0  0  0  0  0  0
  141.2640   71.3650  225.8800 C   0  0  0  0  0  0  0  0  0  0  0  0
  138.9460   68.2228  225.8700 H   0  0  0  0  0  0  0  0  0  0  0  0
  138.1010   68.5811  224.3259 H   0  0  0  0  0  0  0  0  0  0  0  0
  139.5749   67.5543  224.3259 H   0  0  0  0  0  0  0  0  0  0  0  0
  140.9658   69.3369  224.3649 H   0  0  0  0  0  0  0  0  0  0  0  0
  140.0470   70.6390  222.7180 H   0  0  0  0  0  0  0  0  0  0  0  0
  137.5159   71.2059  221.5308 H   0  0  0  0  0  0  0  0  0  0  0  0
  136.3835   71.8836  222.7522 H   0  0  0  0  0  0  0  0  0  0  0  0
  137.6680   73.9070  222.7750 H   0  0  0  0  0  0  0  0  0  0  0  0
  141.5735   73.8719  220.4503 H   0  0  0  0  0  0  0  0  0  0  0  0
  142.6764   76.0794  220.2809 H   0  0  0  0  0  0  0  0  0  0  0  0
  142.7283   78.3477  220.8408 H   0  0  0  0  0  0  0  0  0  0  0  0
  139.6881   80.0106  223.3576 H   0  0  0  0  0  0  0  0  0  0  0  0
  138.5431   77.7950  223.5622 H   0  0  0  0  0  0  0  0  0  0  0  0
  139.1827   71.1295  225.9048 H   0  0  0  0  0  0  0  0  0  0  0  0
  138.8787   69.6834  227.4540 H   0  0  0  0  0  0  0  0  0  0  0  0
  140.2250   68.6031  226.8226 H   0  0  0  0  0  0  0  0  0  0  0  0
  140.3616   69.6658  229.1827 H   0  0  0  0  0  0  0  0  0  0  0  0
  141.7995   69.5772  228.0379 H   0  0  0  0  0  0  0  0  0  0  0  0
  140.2325   71.9063  228.9883 H   0  0  0  0  0  0  0  0  0  0  0  0
  142.0452   71.5915  228.8393 H   0  0  0  0  0  0  0  0  0  0  0  0
  140.1832   72.8398  227.0025 H   0  0  0  0  0  0  0  0  0  0  0  0
  141.9984   72.9062  227.1542 H   0  0  0  0  0  0  0  0  0  0  0  0
  141.2874   71.9728  224.9635 H   0  0  0  0  0  0  0  0  0  0  0  0
  142.2017   70.7908  225.9109 H   0  0  0  0  0  0  0  0  0  0  0  0
  1  2  1  0
  2  3  1  0
  3  4  1  0
  4  5  2  0
  4  6  1  0
  6  7  1  0
  7  8  1  0
  8  9  2  0
  8 10  1  0
 10 11  2  0
 11 12  1  0
 12 13  2  0
 13 14  1  0
 14 15  2  0
 15 16  1  0
 15 17  1  0
 17 18  2  0
 18 19  1  0
 19 20  2  0
  2 21  1  0
 21 22  1  0
 22 23  1  0
 23 24  1  0
 24 25  1  0
 25 26  1  0
 20 10  1  0
 26 21  1  0
 19 13  1  0
  1 27  1  0
  1 28  1  0
  1 29  1  0
  2 30  1  6
  3 31  1  0
  6 32  1  0
  6 33  1  0
  7 34  1  0
 11 35  1  0
 12 36  1  0
 14 37  1  0
 17 38  1  0
 18 39  1  0
 21 40  1  0
 22 41  1  0
 22 42  1  0
 23 43  1  0
 23 44  1  0
 24 45  1  0
 24 46  1  0
 25 47  1  0
 25 48  1  0
 26 49  1  0
 26 50  1  0
M  END
>  <smiles>  (14) 
C[C@@H](NC(=O)CNC(=O)c1ccc2cc(Cl)ccc2n1)C1CCCCC1

>  <score_type>  (14) 
oracle

>  <origin>  (14) 
autodockgpu

>  <m_score__min__energy>  (14) 
-8.3399999999999999

>  <m_primary>  (14) 
energy

>  <rmsd>  (14) 
9.727617813022153

>  <m_score__min__rmsd>  (14) 
9.727617813022153

>  <meeko>  (14) 
{"free_energy": -7.92, "intermolecular_energy": -9.41, "internal_energy": -2.06, "cluster_size": 24, "cluster_id": 2, "rank_in_cluster": 21}

>  <energy>  (14) 
-8.02

>  <cluster_rmsd>  (14) 
1.39

>  <cluster>  (14) 
1

$$$$

     RDKit          3D

 50 52  0  0  0  0  0  0  0  0999 V2000
  138.4150   79.7170  221.0110 C   0  0  0  0  0  0  0  0  0  0  0  0
  139.3440   78.8460  221.8290 C   0  0  1  0  0  0  0  0  0  0  0  0
  139.5420   77.5850  221.1400 N   0  0  0  0  0  0  0  0  0  0  0  0
  139.2940   76.3530  221.7880 C   0  0  0  0  0  0  0  0  0  0  0  0
  138.8920   76.4100  222.9840 O   0  0  0  0  0  0  0  0  0  0  0  0
  139.4570   75.0190  221.1970 C   0  0  0  0  0  0  0  0  0  0  0  0
  139.5860   74.0370  222.2410 N   0  0  0  0  0  0  0  0  0  0  0  0
  139.7830   72.6400  221.9840 C   0  0  0  0  0  0  0  0  0  0  0  0
  139.8640   72.1840  220.8030 O   0  0  0  0  0  0  0  0  0  0  0  0
  139.8950   71.6950  223.1040 C   0  0  0  0  0  0  0  0  0  0  0  0
  139.4950   70.3870  222.9480 C   0  0  0  0  0  0  0  0  0  0  0  0
  139.5730   69.4430  223.9460 C   0  0  0  0  0  0  0  0  0  0  0  0
  140.0840   69.8620  225.1580 C   0  0  0  0  0  0  0  0  0  0  0  0
  140.1630   68.9100  226.1580 C   0  0  0  0  0  0  0  0  0  0  0  0
  140.6710   69.3050  227.3770 C   0  0  0  0  0  0  0  0  0  0  0  0
  140.8100   68.1570  228.7180 Cl  0  0  0  0  0  0  0  0  0  0  0  0
  141.0780   70.5960  227.5720 C   0  0  0  0  0  0  0  0  0  0  0  0
  141.0060   71.5720  226.5710 C   0  0  0  0  0  0  0  0  0  0  0  0
  140.4900   71.1700  225.3330 C   0  0  0  0  0  0  0  0  0  0  0  0
  140.3830   72.0440  224.3040 N   0  0  0  0  0  0  0  0  0  0  0  0
  140.6490   79.5360  222.1270 C   0  0  0  0  0  0  0  0  0  0  0  0
  140.4650   80.8820  222.7400 C   0  0  0  0  0  0  0  0  0  0  0  0
  141.4670   81.2370  223.8040 C   0  0  0  0  0  0  0  0  0  0  0  0
  142.8450   80.7230  223.5730 C   0  0  0  0  0  0  0  0  0  0  0  0
  142.9410   79.3940  222.9040 C   0  0  0  0  0  0  0  0  0  0  0  0
  141.6130   78.6440  222.8800 C   0  0  0  0  0  0  0  0  0  0  0  0
  137.7810   80.3114  221.6854 H   0  0  0  0  0  0  0  0  0  0  0  0
  139.0087   80.3915  220.3765 H   0  0  0  0  0  0  0  0  0  0  0  0
  137.7801   79.0811  220.3765 H   0  0  0  0  0  0  0  0  0  0  0  0
  138.8787   78.6496  222.8062 H   0  0  0  0  0  0  0  0  0  0  0  0
  139.8600   77.6220  220.1530 H   0  0  0  0  0  0  0  0  0  0  0  0
  138.5776   74.7828  220.5799 H   0  0  0  0  0  0  0  0  0  0  0  0
  140.3620   75.0063  220.5719 H   0  0  0  0  0  0  0  0  0  0  0  0
  139.5430   74.2880  223.2750 H   0  0  0  0  0  0  0  0  0  0  0  0
  139.0909   70.0797  221.9721 H   0  0  0  0  0  0  0  0  0  0  0  0
  139.2443   68.4055  223.7860 H   0  0  0  0  0  0  0  0  0  0  0  0
  139.8324   67.8749  225.9868 H   0  0  0  0  0  0  0  0  0  0  0  0
  141.4787   70.8793  228.5565 H   0  0  0  0  0  0  0  0  0  0  0  0
  141.3389   72.6053  226.7485 H   0  0  0  0  0  0  0  0  0  0  0  0
  141.1307   79.7327  221.1578 H   0  0  0  0  0  0  0  0  0  0  0  0
  140.5353   81.6339  221.9402 H   0  0  0  0  0  0  0  0  0  0  0  0
  139.4832   80.8630  223.2357 H   0  0  0  0  0  0  0  0  0  0  0  0
  141.5194   82.3338  223.8699 H   0  0  0  0  0  0  0  0  0  0  0  0
  141.1133   80.7579  224.7288 H   0  0  0  0  0  0  0  0  0  0  0  0
  143.3770   81.4546  222.9470 H   0  0  0  0  0  0  0  0  0  0  0  0
  143.2826   80.5852  224.5727 H   0  0  0  0  0  0  0  0  0  0  0  0
  143.2768   79.5462  221.8677 H   0  0  0  0  0  0  0  0  0  0  0  0
  143.6534   78.7852  223.4801 H   0  0  0  0  0  0  0  0  0  0  0  0
  141.7268   77.6800  222.3625 H   0  0  0  0  0  0  0  0  0  0  0  0
  141.2530   78.4257  223.8962 H   0  0  0  0  0  0  0  0  0  0  0  0
  1  2  1  0
  2  3  1  0
  3  4  1  0
  4  5  2  0
  4  6  1  0
  6  7  1  0
  7  8  1  0
  8  9  2  0
  8 10  1  0
 10 11  2  0
 11 12  1  0
 12 13  2  0
 13 14  1  0
 14 15  2  0
 15 16  1  0
 15 17  1  0
 17 18  2  0
 18 19  1  0
 19 20  2  0
  2 21  1  0
 21 22  1  0
 22 23  1  0
 23 24  1  0
 24 25  1  0
 25 26  1  0
 20 10  1  0
 26 21  1  0
 19 13  1  0
  1 27  1  0
  1 28  1  0
  1 29  1  0
  2 30  1  1
  3 31  1  0
  6 32  1  0
  6 33  1  0
  7 34  1  0
 11 35  1  0
 12 36  1  0
 14 37  1  0
 17 38  1  0
 18 39  1  0
 21 40  1  0
 22 41  1  0
 22 42  1  0
 23 43  1  0
 23 44  1  0
 24 45  1  0
 24 46  1  0
 25 47  1  0
 25 48  1  0
 26 49  1  0
 26 50  1  0
M  END
>  <smiles>  (15) 
C[C@@H](NC(=O)CNC(=O)c1ccc2cc(Cl)ccc2n1)C1CCCCC1

>  <score_type>  (15) 
oracle

>  <origin>  (15) 
autodockgpu

>  <m_score__min__energy>  (15) 
-8.3399999999999999

>  <m_primary>  (15) 
energy

>  <rmsd>  (15) 
3.8948359775514962

>  <m_score__min__rmsd>  (15) 
3.8948359775514962

>  <meeko>  (15) 
{"free_energy": -8.17, "intermolecular_energy": -9.66, "internal_energy": -1.67, "cluster_size": 17, "cluster_id": 1, "rank_in_cluster": 7}

>  <energy>  (15) 
-7.92

>  <cluster_rmsd>  (15) 
1.24

>  <cluster>  (15) 
1

$$$$

     RDKit          3D

 50 52  0  0  0  0  0  0  0  0999 V2000
  138.7360   80.1230  221.1460 C   0  0  0  0  0  0  0  0  0  0  0  0
  139.1780   79.0630  222.1320 C   0  0  1  0  0  0  0  0  0  0  0  0
  139.4700   77.8370  221.4120 N   0  0  0  0  0  0  0  0  0  0  0  0
  139.1110   76.5780  221.9430 C   0  0  0  0  0  0  0  0  0  0  0  0
  138.5250   76.5770  223.0620 O   0  0  0  0  0  0  0  0  0  0  0  0
  139.3520   75.2740  221.3110 C   0  0  0  0  0  0  0  0  0  0  0  0
  139.4750   74.2590  222.3230 N   0  0  0  0  0  0  0  0  0  0  0  0
  139.8420   72.9020  222.0330 C   0  0  0  0  0  0  0  0  0  0  0  0
  140.0900   72.5170  220.8500 O   0  0  0  0  0  0  0  0  0  0  0  0
  139.9380   71.9190  223.1200 C   0  0  0  0  0  0  0  0  0  0  0  0
  139.5280   70.6200  222.9150 C   0  0  0  0  0  0  0  0  0  0  0  0
  139.5900   69.6410  223.8800 C   0  0  0  0  0  0  0  0  0  0  0  0
  140.0960   70.0130  225.1100 C   0  0  0  0  0  0  0  0  0  0  0  0
  140.1590   69.0260  226.0750 C   0  0  0  0  0  0  0  0  0  0  0  0
  140.6610   69.3730  227.3110 C   0  0  0  0  0  0  0  0  0  0  0  0
  140.7800   68.1780  228.6120 Cl  0  0  0  0  0  0  0  0  0  0  0  0
  141.0780   70.6520  227.5540 C   0  0  0  0  0  0  0  0  0  0  0  0
  141.0220   71.6640  226.5880 C   0  0  0  0  0  0  0  0  0  0  0  0
  140.5120   71.3100  225.3320 C   0  0  0  0  0  0  0  0  0  0  0  0
  140.4200   72.2210  224.3340 N   0  0  0  0  0  0  0  0  0  0  0  0
  140.3470   79.5190  222.9650 C   0  0  0  0  0  0  0  0  0  0  0  0
  141.5440   78.6440  222.8080 C   0  0  0  0  0  0  0  0  0  0  0  0
  142.8620   79.3700  222.8070 C   0  0  0  0  0  0  0  0  0  0  0  0
  142.9350   80.5530  223.7070 C   0  0  0  0  0  0  0  0  0  0  0  0
  141.6770   81.3400  223.8520 C   0  0  0  0  0  0  0  0  0  0  0  0
  140.6360   80.9950  222.7920 C   0  0  0  0  0  0  0  0  0  0  0  0
  138.3689   81.0033  221.6940 H   0  0  0  0  0  0  0  0  0  0  0  0
  139.5879   80.4137  220.5137 H   0  0  0  0  0  0  0  0  0  0  0  0
  137.9300   79.7223  220.5137 H   0  0  0  0  0  0  0  0  0  0  0  0
  138.3594   78.8738  222.8420 H   0  0  0  0  0  0  0  0  0  0  0  0
  139.9400   77.9220  220.4910 H   0  0  0  0  0  0  0  0  0  0  0  0
  138.5098   75.0283  220.6474 H   0  0  0  0  0  0  0  0  0  0  0  0
  140.2826   75.3195  220.7263 H   0  0  0  0  0  0  0  0  0  0  0  0
  139.3010   74.4520  223.3550 H   0  0  0  0  0  0  0  0  0  0  0  0
  139.1293   70.3506  221.9258 H   0  0  0  0  0  0  0  0  0  0  0  0
  139.2531   68.6128  223.6815 H   0  0  0  0  0  0  0  0  0  0  0  0
  139.8208   68.0006  225.8645 H   0  0  0  0  0  0  0  0  0  0  0  0
  141.4743   70.8964  228.5506 H   0  0  0  0  0  0  0  0  0  0  0  0
  141.3620   72.6875  226.8047 H   0  0  0  0  0  0  0  0  0  0  0  0
  140.0506   79.4027  224.0179 H   0  0  0  0  0  0  0  0  0  0  0  0
  141.5516   77.9226  223.6384 H   0  0  0  0  0  0  0  0  0  0  0  0
  141.4521   78.1688  221.8202 H   0  0  0  0  0  0  0  0  0  0  0  0
  143.6423   78.6589  223.1159 H   0  0  0  0  0  0  0  0  0  0  0  0
  142.9974   79.7550  221.7855 H   0  0  0  0  0  0  0  0  0  0  0  0
  143.2278   80.1986  224.7063 H   0  0  0  0  0  0  0  0  0  0  0  0
  143.6613   81.2360  223.2422 H   0  0  0  0  0  0  0  0  0  0  0  0
  141.2482   81.1368  224.8444 H   0  0  0  0  0  0  0  0  0  0  0  0
  141.9356   82.4019  223.7277 H   0  0  0  0  0  0  0  0  0  0  0  0
  139.7210   81.5855  222.9469 H   0  0  0  0  0  0  0  0  0  0  0  0
  140.9989   81.2211  221.7785 H   0  0  0  0  0  0  0  0  0  0  0  0
  1  2  1  0
  2  3  1  0
  3  4  1  0
  4  5  2  0
  4  6  1  0
  6  7  1  0
  7  8  1  0
  8  9  2  0
  8 10  1  0
 10 11  2  0
 11 12  1  0
 12 13  2  0
 13 14  1  0
 14 15  2  0
 15 16  1  0
 15 17  1  0
 17 18  2  0
 18 19  1  0
 19 20  2  0
  2 21  1  0
 21 22  1  0
 22 23  1  0
 23 24  1  0
 24 25  1  0
 25 26  1  0
 20 10  1  0
 26 21  1  0
 19 13  1  0
  1 27  1  0
  1 28  1  0
  1 29  1  0
  2 30  1  1
  3 31  1  0
  6 32  1  0
  6 33  1  0
  7 34  1  0
 11 35  1  0
 12 36  1  0
 14 37  1  0
 17 38  1  0
 18 39  1  0
 21 40  1  0
 22 41  1  0
 22 42  1  0
 23 43  1  0
 23 44  1  0
 24 45  1  0
 24 46  1  0
 25 47  1  0
 25 48  1  0
 26 49  1  0
 26 50  1  0
M  END
>  <smiles>  (16) 
C[C@@H](NC(=O)CNC(=O)c1ccc2cc(Cl)ccc2n1)C1CCCCC1

>  <score_type>  (16) 
oracle

>  <origin>  (16) 
autodockgpu

>  <m_score__min__energy>  (16) 
-8.3399999999999999

>  <m_primary>  (16) 
energy

>  <rmsd>  (16) 
4.021566224130708

>  <m_score__min__rmsd>  (16) 
4.021566224130708

>  <meeko>  (16) 
{"free_energy": -8.34, "intermolecular_energy": -9.83, "internal_energy": -1.6, "cluster_size": 17, "cluster_id": 1, "rank_in_cluster": 1}

>  <energy>  (16) 
-7.69

>  <cluster_rmsd>  (16) 
1.27

>  <cluster>  (16) 
1

$$$$

     RDKit          3D

 50 52  0  0  0  0  0  0  0  0999 V2000
  138.4060   69.0850  223.8270 C   0  0  0  0  0  0  0  0  0  0  0  0
  139.1650   70.3480  224.1760 C   0  0  1  0  0  0  0  0  0  0  0  0
  138.3670   71.5000  223.8020 N   0  0  0  0  0  0  0  0  0  0  0  0
  138.0220   71.7410  222.4530 C   0  0  0  0  0  0  0  0  0  0  0  0
  138.4380   70.9060  221.6010 O   0  0  0  0  0  0  0  0  0  0  0  0
  137.2230   72.8680  221.9530 C   0  0  0  0  0  0  0  0  0  0  0  0
  137.8780   74.1080  222.2740 N   0  0  0  0  0  0  0  0  0  0  0  0
  137.2950   75.3930  222.0160 C   0  0  0  0  0  0  0  0  0  0  0  0
  136.1470   75.5110  221.4890 O   0  0  0  0  0  0  0  0  0  0  0  0
  138.0310   76.6170  222.3620 C   0  0  0  0  0  0  0  0  0  0  0  0
  137.3460   77.7700  222.6750 C   0  0  0  0  0  0  0  0  0  0  0  0
  137.9620   78.9530  223.0140 C   0  0  0  0  0  0  0  0  0  0  0  0
  139.3430   78.9510  223.0310 C   0  0  0  0  0  0  0  0  0  0  0  0
  139.9570   80.1410  223.3740 C   0  0  0  0  0  0  0  0  0  0  0  0
  141.3350   80.1630  223.3990 C   0  0  0  0  0  0  0  0  0  0  0  0
  142.2130   81.6400  223.8260 Cl  0  0  0  0  0  0  0  0  0  0  0  0
  142.0510   79.0380  223.0940 C   0  0  0  0  0  0  0  0  0  0  0  0
  141.4450   77.8260  222.7450 C   0  0  0  0  0  0  0  0  0  0  0  0
  140.0450   77.8040  222.7200 C   0  0  0  0  0  0  0  0  0  0  0  0
  139.3700   76.6750  222.3950 N   0  0  0  0  0  0  0  0  0  0  0  0
  139.5620   70.3850  225.6280 C   0  0  0  0  0  0  0  0  0  0  0  0
  139.6340   69.0290  226.2430 C   0  0  0  0  0  0  0  0  0  0  0  0
  140.7540   68.8390  227.2290 C   0  0  0  0  0  0  0  0  0  0  0  0
  141.0790   70.0330  228.0560 C   0  0  0  0  0  0  0  0  0  0  0  0
  140.9260   71.3540  227.3820 C   0  0  0  0  0  0  0  0  0  0  0  0
  140.7920   71.2350  225.8670 C   0  0  0  0  0  0  0  0  0  0  0  0
  138.0991   68.5743  224.7517 H   0  0  0  0  0  0  0  0  0  0  0  0
  137.5139   69.3442  223.2379 H   0  0  0  0  0  0  0  0  0  0  0  0
  139.0536   68.4190  223.2379 H   0  0  0  0  0  0  0  0  0  0  0  0
  140.1063   70.3662  223.6072 H   0  0  0  0  0  0  0  0  0  0  0  0
  138.0500   72.1320  224.5620 H   0  0  0  0  0  0  0  0  0  0  0  0
  137.1149   72.7836  220.8616 H   0  0  0  0  0  0  0  0  0  0  0  0
  136.2299   72.8480  222.4256 H   0  0  0  0  0  0  0  0  0  0  0  0
  138.8420   74.1500  222.7250 H   0  0  0  0  0  0  0  0  0  0  0  0
  136.2465   77.7439  222.6528 H   0  0  0  0  0  0  0  0  0  0  0  0
  137.3831   79.8556  223.2593 H   0  0  0  0  0  0  0  0  0  0  0  0
  139.3677   81.0372  223.6179 H   0  0  0  0  0  0  0  0  0  0  0  0
  143.1494   79.0883  223.1244 H   0  0  0  0  0  0  0  0  0  0  0  0
  142.0399   76.9332  222.5019 H   0  0  0  0  0  0  0  0  0  0  0  0
  138.7478   70.8935  226.1652 H   0  0  0  0  0  0  0  0  0  0  0  0
  138.6841   68.8394  226.7643 H   0  0  0  0  0  0  0  0  0  0  0  0
  139.8264   68.3264  225.4187 H   0  0  0  0  0  0  0  0  0  0  0  0
  140.4742   68.0203  227.9083 H   0  0  0  0  0  0  0  0  0  0  0  0
  141.6534   68.6266  226.6324 H   0  0  0  0  0  0  0  0  0  0  0  0
  140.4173   70.0245  228.9347 H   0  0  0  0  0  0  0  0  0  0  0  0
  142.1484   69.9448  228.2982 H   0  0  0  0  0  0  0  0  0  0  0  0
  140.0253   71.8471  227.7764 H   0  0  0  0  0  0  0  0  0  0  0  0
  141.8354   71.9374  227.5883 H   0  0  0  0  0  0  0  0  0  0  0  0
  140.6645   72.2294  225.4143 H   0  0  0  0  0  0  0  0  0  0  0  0
  141.6888   70.7862  225.4149 H   0  0  0  0  0  0  0  0  0  0  0  0
  1  2  1  0
  2  3  1  0
  3  4  1  0
  4  5  2  0
  4  6  1  0
  6  7  1  0
  7  8  1  0
  8  9  2  0
  8 10  1  0
 10 11  2  0
 11 12  1  0
 12 13  2  0
 13 14  1  0
 14 15  2  0
 15 16  1  0
 15 17  1  0
 17 18  2  0
 18 19  1  0
 19 20  2  0
  2 21  1  0
 21 22  1  0
 22 23  1  0
 23 24  1  0
 24 25  1  0
 25 26  1  0
 20 10  1  0
 26 21  1  0
 19 13  1  0
  1 27  1  0
  1 28  1  0
  1 29  1  0
  2 30  1  6
  3 31  1  0
  6 32  1  0
  6 33  1  0
  7 34  1  0
 11 35  1  0
 12 36  1  0
 14 37  1  0
 17 38  1  0
 18 39  1  0
 21 40  1  0
 22 41  1  0
 22 42  1  0
 23 43  1  0
 23 44  1  0
 24 45  1  0
 24 46  1  0
 25 47  1  0
 25 48  1  0
 26 49  1  0
 26 50  1  0
M  END
>  <smiles>  (17) 
C[C@@H](NC(=O)CNC(=O)c1ccc2cc(Cl)ccc2n1)C1CCCCC1

>  <score_type>  (17) 
oracle

>  <origin>  (17) 
autodockgpu

>  <m_score__min__energy>  (17) 
-8.3399999999999999

>  <m_primary>  (17) 
energy

>  <rmsd>  (17) 
10.015253362647682

>  <m_score__min__rmsd>  (17) 
10.015253362647682

>  <meeko>  (17) 
{"free_energy": -8.25, "intermolecular_energy": -9.75, "internal_energy": -1.03, "cluster_size": 24, "cluster_id": 2, "rank_in_cluster": 1}

>  <energy>  (17) 
-7.59

>  <cluster_rmsd>  (17) 
1.39

>  <cluster>  (17) 
1

$$$$

     RDKit          3D

 50 52  0  0  0  0  0  0  0  0999 V2000
  139.0640   68.4230  224.7940 C   0  0  0  0  0  0  0  0  0  0  0  0
  139.9280   69.6510  224.6040 C   0  0  1  0  0  0  0  0  0  0  0  0
  139.4120   70.4270  223.4920 N   0  0  0  0  0  0  0  0  0  0  0  0
  138.0980   70.9470  223.5130 C   0  0  0  0  0  0  0  0  0  0  0  0
  137.4070   70.7050  224.5430 O   0  0  0  0  0  0  0  0  0  0  0  0
  137.4670   71.7440  222.4530 C   0  0  0  0  0  0  0  0  0  0  0  0
  138.1190   73.0230  222.3530 N   0  0  0  0  0  0  0  0  0  0  0  0
  139.4120   73.2000  221.7570 C   0  0  0  0  0  0  0  0  0  0  0  0
  140.0600   72.2250  221.2680 O   0  0  0  0  0  0  0  0  0  0  0  0
  140.0190   74.5370  221.7010 C   0  0  0  0  0  0  0  0  0  0  0  0
  141.1580   74.7480  220.9560 C   0  0  0  0  0  0  0  0  0  0  0  0
  141.7820   75.9710  220.8510 C   0  0  0  0  0  0  0  0  0  0  0  0
  141.2090   77.0210  221.5400 C   0  0  0  0  0  0  0  0  0  0  0  0
  141.8380   78.2470  221.4290 C   0  0  0  0  0  0  0  0  0  0  0  0
  141.2840   79.3120  222.1070 C   0  0  0  0  0  0  0  0  0  0  0  0
  142.0180   80.9210  222.0270 Cl  0  0  0  0  0  0  0  0  0  0  0  0
  140.1540   79.1420  222.8570 C   0  0  0  0  0  0  0  0  0  0  0  0
  139.5040   77.9080  222.9800 C   0  0  0  0  0  0  0  0  0  0  0  0
  140.0670   76.8270  222.2900 C   0  0  0  0  0  0  0  0  0  0  0  0
  139.5080   75.5940  222.3480 N   0  0  0  0  0  0  0  0  0  0  0  0
  140.0300   70.4700  225.8640 C   0  0  0  0  0  0  0  0  0  0  0  0
  139.8570   69.6530  227.0990 C   0  0  0  0  0  0  0  0  0  0  0  0
  140.7380   70.0550  228.2510 C   0  0  0  0  0  0  0  0  0  0  0  0
  140.9960   71.5150  228.3720 C   0  0  0  0  0  0  0  0  0  0  0  0
  141.0990   72.2670  227.0880 C   0  0  0  0  0  0  0  0  0  0  0  0
  141.2580   71.3540  225.8770 C   0  0  0  0  0  0  0  0  0  0  0  0
  138.9296   68.2320  225.8689 H   0  0  0  0  0  0  0  0  0  0  0  0
  138.0827   68.5891  224.3256 H   0  0  0  0  0  0  0  0  0  0  0  0
  139.5518   67.5554  224.3256 H   0  0  0  0  0  0  0  0  0  0  0  0
  140.9543   69.3317  224.3702 H   0  0  0  0  0  0  0  0  0  0  0  0
  140.0480   70.5960  222.6890 H   0  0  0  0  0  0  0  0  0  0  0  0
  137.5560   71.2125  221.4941 H   0  0  0  0  0  0  0  0  0  0  0  0
  136.4046   71.8952  222.6950 H   0  0  0  0  0  0  0  0  0  0  0  0
  137.6810   73.9220  222.7180 H   0  0  0  0  0  0  0  0  0  0  0  0
  141.5925   73.8938  220.4160 H   0  0  0  0  0  0  0  0  0  0  0  0
  142.6921   76.1047  220.2479 H   0  0  0  0  0  0  0  0  0  0  0  0
  142.7473   78.3684  220.8219 H   0  0  0  0  0  0  0  0  0  0  0  0
  139.7376   80.0116  223.3865 H   0  0  0  0  0  0  0  0  0  0  0  0
  138.5952   77.7931  223.5890 H   0  0  0  0  0  0  0  0  0  0  0  0
  139.1746   71.1616  225.8634 H   0  0  0  0  0  0  0  0  0  0  0  0
  138.8094   69.7402  227.4229 H   0  0  0  0  0  0  0  0  0  0  0  0
  140.1453   68.6253  226.8330 H   0  0  0  0  0  0  0  0  0  0  0  0
  140.2579   69.7161  229.1809 H   0  0  0  0  0  0  0  0  0  0  0  0
  141.7159   69.5867  228.0652 H   0  0  0  0  0  0  0  0  0  0  0  0
  140.1740   71.9553  228.9554 H   0  0  0  0  0  0  0  0  0  0  0  0
  141.9831   71.6043  228.8492 H   0  0  0  0  0  0  0  0  0  0  0  0
  140.1860   72.8666  226.9581 H   0  0  0  0  0  0  0  0  0  0  0  0
  141.9981   72.8980  227.1461 H   0  0  0  0  0  0  0  0  0  0  0  0
  141.3118   71.9487  224.9532 H   0  0  0  0  0  0  0  0  0  0  0  0
  142.1830   70.7616  225.9349 H   0  0  0  0  0  0  0  0  0  0  0  0
  1  2  1  0
  2  3  1  0
  3  4  1  0
  4  5  2  0
  4  6  1  0
  6  7  1  0
  7  8  1  0
  8  9  2  0
  8 10  1  0
 10 11  2  0
 11 12  1  0
 12 13  2  0
 13 14  1  0
 14 15  2  0
 15 16  1  0
 15 17  1  0
 17 18  2  0
 18 19  1  0
 19 20  2  0
  2 21  1  0
 21 22  1  0
 22 23  1  0
 23 24  1  0
 24 25  1  0
 25 26  1  0
 20 10  1  0
 26 21  1  0
 19 13  1  0
  1 27  1  0
  1 28  1  0
  1 29  1  0
  2 30  1  6
  3 31  1  0
  6 32  1  0
  6 33  1  0
  7 34  1  0
 11 35  1  0
 12 36  1  0
 14 37  1  0
 17 38  1  0
 18 39  1  0
 21 40  1  0
 22 41  1  0
 22 42  1  0
 23 43  1  0
 23 44  1  0
 24 45  1  0
 24 46  1  0
 25 47  1  0
 25 48  1  0
 26 49  1  0
 26 50  1  0
M  END
>  <smiles>  (18) 
C[C@@H](NC(=O)CNC(=O)c1ccc2cc(Cl)ccc2n1)C1CCCCC1

>  <score_type>  (18) 
oracle

>  <origin>  (18) 
autodockgpu

>  <m_score__min__energy>  (18) 
-8.3399999999999999

>  <m_primary>  (18) 
energy

>  <rmsd>  (18) 
9.721750274505387

>  <m_score__min__rmsd>  (18) 
9.721750274505387

>  <meeko>  (18) 
{"free_energy": -7.96, "intermolecular_energy": -9.45, "internal_energy": -2.07, "cluster_size": 24, "cluster_id": 2, "rank_in_cluster": 12}

>  <energy>  (18) 
-8.25

>  <cluster_rmsd>  (18) 
0.0

>  <cluster>  (18) 
2

$$$$

     RDKit          3D

 50 52  0  0  0  0  0  0  0  0999 V2000
  139.1090   68.3930  224.7880 C   0  0  0  0  0  0  0  0  0  0  0  0
  139.9660   69.6250  224.5950 C   0  0  1  0  0  0  0  0  0  0  0  0
  139.4400   70.4010  223.4870 N   0  0  0  0  0  0  0  0  0  0  0  0
  138.1260   70.9190  223.5190 C   0  0  0  0  0  0  0  0  0  0  0  0
  137.4430   70.6760  224.5540 O   0  0  0  0  0  0  0  0  0  0  0  0
  137.4860   71.7140  222.4630 C   0  0  0  0  0  0  0  0  0  0  0  0
  138.1300   72.9970  222.3630 N   0  0  0  0  0  0  0  0  0  0  0  0
  139.4210   73.1820  221.7660 C   0  0  0  0  0  0  0  0  0  0  0  0
  140.0740   72.2110  221.2760 O   0  0  0  0  0  0  0  0  0  0  0  0
  140.0190   74.5230  221.7090 C   0  0  0  0  0  0  0  0  0  0  0  0
  141.1580   74.7410  220.9650 C   0  0  0  0  0  0  0  0  0  0  0  0
  141.7740   75.9670  220.8590 C   0  0  0  0  0  0  0  0  0  0  0  0
  141.1950   77.0140  221.5480 C   0  0  0  0  0  0  0  0  0  0  0  0
  141.8160   78.2440  221.4370 C   0  0  0  0  0  0  0  0  0  0  0  0
  141.2560   79.3060  222.1160 C   0  0  0  0  0  0  0  0  0  0  0  0
  141.9800   80.9190  222.0350 Cl  0  0  0  0  0  0  0  0  0  0  0  0
  140.1270   79.1290  222.8650 C   0  0  0  0  0  0  0  0  0  0  0  0
  139.4850   77.8910  222.9890 C   0  0  0  0  0  0  0  0  0  0  0  0
  140.0540   76.8140  222.2990 C   0  0  0  0  0  0  0  0  0  0  0  0
  139.5030   75.5770  222.3570 N   0  0  0  0  0  0  0  0  0  0  0  0
  140.0710   70.4430  225.8550 C   0  0  0  0  0  0  0  0  0  0  0  0
  139.9050   69.6250  227.0900 C   0  0  0  0  0  0  0  0  0  0  0  0
  140.7890   70.0280  228.2400 C   0  0  0  0  0  0  0  0  0  0  0  0
  141.0450   71.4890  228.3610 C   0  0  0  0  0  0  0  0  0  0  0  0
  141.1400   72.2420  227.0780 C   0  0  0  0  0  0  0  0  0  0  0  0
  141.2970   71.3310  225.8650 C   0  0  0  0  0  0  0  0  0  0  0  0
  138.9769   68.2030  225.8634 H   0  0  0  0  0  0  0  0  0  0  0  0
  138.1262   68.5530  224.3205 H   0  0  0  0  0  0  0  0  0  0  0  0
  139.6009   67.5273  224.3205 H   0  0  0  0  0  0  0  0  0  0  0  0
  140.9923   69.3100  224.3551 H   0  0  0  0  0  0  0  0  0  0  0  0
  140.0690   70.5700  222.6790 H   0  0  0  0  0  0  0  0  0  0  0  0
  137.5744   71.1848  221.5027 H   0  0  0  0  0  0  0  0  0  0  0  0
  136.4237   71.8582  222.7093 H   0  0  0  0  0  0  0  0  0  0  0  0
  137.6860   73.8940  222.7290 H   0  0  0  0  0  0  0  0  0  0  0  0
  141.5988   73.8890  220.4266 H   0  0  0  0  0  0  0  0  0  0  0  0
  142.6829   76.1060  220.2551 H   0  0  0  0  0  0  0  0  0  0  0  0
  142.7239   78.3712  220.8291 H   0  0  0  0  0  0  0  0  0  0  0  0
  139.7044   79.9964  223.3932 H   0  0  0  0  0  0  0  0  0  0  0  0
  138.5776   77.7704  223.5990 H   0  0  0  0  0  0  0  0  0  0  0  0
  139.2136   71.1321  225.8571 H   0  0  0  0  0  0  0  0  0  0  0  0
  138.8583   69.7092  227.4176 H   0  0  0  0  0  0  0  0  0  0  0  0
  140.1958   68.5986  226.8219 H   0  0  0  0  0  0  0  0  0  0  0  0
  140.3122   69.6878  229.1711 H   0  0  0  0  0  0  0  0  0  0  0  0
  141.7671   69.5614  228.0511 H   0  0  0  0  0  0  0  0  0  0  0  0
  140.2251   71.9272  228.9490 H   0  0  0  0  0  0  0  0  0  0  0  0
  142.0344   71.5796  228.8332 H   0  0  0  0  0  0  0  0  0  0  0  0
  140.2244   72.8386  226.9526 H   0  0  0  0  0  0  0  0  0  0  0  0
  142.0374   72.8757  227.1330 H   0  0  0  0  0  0  0  0  0  0  0  0
  141.3457   71.9272  224.9419 H   0  0  0  0  0  0  0  0  0  0  0  0
  142.2239   70.7411  225.9189 H   0  0  0  0  0  0  0  0  0  0  0  0
  1  2  1  0
  2  3  1  0
  3  4  1  0
  4  5  2  0
  4  6  1  0
  6  7  1  0
  7  8  1  0
  8  9  2  0
  8 10  1  0
 10 11  2  0
 11 12  1  0
 12 13  2  0
 13 14  1  0
 14 15  2  0
 15 16  1  0
 15 17  1  0
 17 18  2  0
 18 19  1  0
 19 20  2  0
  2 21  1  0
 21 22  1  0
 22 23  1  0
 23 24  1  0
 24 25  1  0
 25 26  1  0
 20 10  1  0
 26 21  1  0
 19 13  1  0
  1 27  1  0
  1 28  1  0
  1 29  1  0
  2 30  1  6
  3 31  1  0
  6 32  1  0
  6 33  1  0
  7 34  1  0
 11 35  1  0
 12 36  1  0
 14 37  1  0
 17 38  1  0
 18 39  1  0
 21 40  1  0
 22 41  1  0
 22 42  1  0
 23 43  1  0
 23 44  1  0
 24 45  1  0
 24 46  1  0
 25 47  1  0
 25 48  1  0
 26 49  1  0
 26 50  1  0
M  END
>  <smiles>  (19) 
C[C@@H](NC(=O)CNC(=O)c1ccc2cc(Cl)ccc2n1)C1CCCCC1

>  <score_type>  (19) 
oracle

>  <origin>  (19) 
autodockgpu

>  <m_score__min__energy>  (19) 
-8.3399999999999999

>  <m_primary>  (19) 
energy

>  <rmsd>  (19) 
9.730334779936625

>  <m_score__min__rmsd>  (19) 
9.730334779936625

>  <meeko>  (19) 
{"free_energy": -7.96, "intermolecular_energy": -9.45, "internal_energy": -2.07, "cluster_size": 24, "cluster_id": 2, "rank_in_cluster": 9}

>  <energy>  (19) 
-7.98

>  <cluster_rmsd>  (19) 
1.73

>  <cluster>  (19) 
2

$$$$

     RDKit          3D

 50 52  0  0  0  0  0  0  0  0999 V2000
  138.1040   79.8570  220.5660 C   0  0  0  0  0  0  0  0  0  0  0  0
  138.8220   78.9640  221.5540 C   0  0  1  0  0  0  0  0  0  0  0  0
  139.1820   77.7210  220.8970 N   0  0  0  0  0  0  0  0  0  0  0  0
  139.1690   76.4950  221.6000 C   0  0  0  0  0  0  0  0  0  0  0  0
  138.8280   76.5390  222.8160 O   0  0  0  0  0  0  0  0  0  0  0  0
  139.5120   75.1780  221.0450 C   0  0  0  0  0  0  0  0  0  0  0  0
  139.6060   74.2130  222.1080 N   0  0  0  0  0  0  0  0  0  0  0  0
  139.8760   72.8220  221.8830 C   0  0  0  0  0  0  0  0  0  0  0  0
  140.0570   72.3580  220.7160 O   0  0  0  0  0  0  0  0  0  0  0  0
  139.9470   71.8940  223.0200 C   0  0  0  0  0  0  0  0  0  0  0  0
  139.5060   70.5970  222.8820 C   0  0  0  0  0  0  0  0  0  0  0  0
  139.5440   69.6680  223.8970 C   0  0  0  0  0  0  0  0  0  0  0  0
  140.0580   70.0910  225.1060 C   0  0  0  0  0  0  0  0  0  0  0  0
  140.0970   69.1540  226.1220 C   0  0  0  0  0  0  0  0  0  0  0  0
  140.6070   69.5530  227.3390 C   0  0  0  0  0  0  0  0  0  0  0  0
  140.6960   68.4250  228.7000 Cl  0  0  0  0  0  0  0  0  0  0  0  0
  141.0540   70.8330  227.5160 C   0  0  0  0  0  0  0  0  0  0  0  0
  141.0230   71.7940  226.4980 C   0  0  0  0  0  0  0  0  0  0  0  0
  140.5050   71.3880  225.2620 C   0  0  0  0  0  0  0  0  0  0  0  0
  140.4360   72.2480  224.2180 N   0  0  0  0  0  0  0  0  0  0  0  0
  140.0190   79.6450  222.1650 C   0  0  0  0  0  0  0  0  0  0  0  0
  140.3310   79.1460  223.5350 C   0  0  0  0  0  0  0  0  0  0  0  0
  141.7980   79.0330  223.8490 C   0  0  0  0  0  0  0  0  0  0  0  0
  142.6590   80.0840  223.2400 C   0  0  0  0  0  0  0  0  0  0  0  0
  142.2440   80.5670  221.8930 C   0  0  0  0  0  0  0  0  0  0  0  0
  141.2100   79.6620  221.2300 C   0  0  0  0  0  0  0  0  0  0  0  0
  137.5056   80.6012  221.1120 H   0  0  0  0  0  0  0  0  0  0  0  0
  138.8421   80.3723  219.9338 H   0  0  0  0  0  0  0  0  0  0  0  0
  137.4422   79.2467  219.9338 H   0  0  0  0  0  0  0  0  0  0  0  0
  138.1433   78.7420  222.3907 H   0  0  0  0  0  0  0  0  0  0  0  0
  139.4360   77.7660  219.8920 H   0  0  0  0  0  0  0  0  0  0  0  0
  138.7314   74.8657  220.3357 H   0  0  0  0  0  0  0  0  0  0  0  0
  140.4793   75.2426  220.5252 H   0  0  0  0  0  0  0  0  0  0  0  0
  139.4810   74.4720  223.1340 H   0  0  0  0  0  0  0  0  0  0  0  0
  139.1012   70.2863  221.9075 H   0  0  0  0  0  0  0  0  0  0  0  0
  139.1826   68.6393  223.7517 H   0  0  0  0  0  0  0  0  0  0  0  0
  139.7343   68.1275  225.9649 H   0  0  0  0  0  0  0  0  0  0  0  0
  141.4548   71.1199  228.4994 H   0  0  0  0  0  0  0  0  0  0  0  0
  141.3880   72.8187  226.6614 H   0  0  0  0  0  0  0  0  0  0  0  0
  139.7449   80.7008  222.3069 H   0  0  0  0  0  0  0  0  0  0  0  0
  139.8782   79.8367  224.2616 H   0  0  0  0  0  0  0  0  0  0  0  0
  139.9237   78.1258  223.5920 H   0  0  0  0  0  0  0  0  0  0  0  0
  141.9174   79.0859  224.9412 H   0  0  0  0  0  0  0  0  0  0  0  0
  142.1302   78.0776  223.4167 H   0  0  0  0  0  0  0  0  0  0  0  0
  142.6671   80.9486  223.9201 H   0  0  0  0  0  0  0  0  0  0  0  0
  143.6439   79.6153  223.0972 H   0  0  0  0  0  0  0  0  0  0  0  0
  141.8131   81.5736  221.9985 H   0  0  0  0  0  0  0  0  0  0  0  0
  143.1388   80.5696  221.2533 H   0  0  0  0  0  0  0  0  0  0  0  0
  140.9209   80.0653  220.2483 H   0  0  0  0  0  0  0  0  0  0  0  0
  141.6064   78.6501  221.0598 H   0  0  0  0  0  0  0  0  0  0  0  0
  1  2  1  0
  2  3  1  0
  3  4  1  0
  4  5  2  0
  4  6  1  0
  6  7  1  0
  7  8  1  0
  8  9  2  0
  8 10  1  0
 10 11  2  0
 11 12  1  0
 12 13  2  0
 13 14  1  0
 14 15  2  0
 15 16  1  0
 15 17  1  0
 17 18  2  0
 18 19  1  0
 19 20  2  0
  2 21  1  0
 21 22  1  0
 22 23  1  0
 23 24  1  0
 24 25  1  0
 25 26  1  0
 20 10  1  0
 26 21  1  0
 19 13  1  0
  1 27  1  0
  1 28  1  0
  1 29  1  0
  2 30  1  1
  3 31  1  0
  6 32  1  0
  6 33  1  0
  7 34  1  0
 11 35  1  0
 12 36  1  0
 14 37  1  0
 17 38  1  0
 18 39  1  0
 21 40  1  0
 22 41  1  0
 22 42  1  0
 23 43  1  0
 23 44  1  0
 24 45  1  0
 24 46  1  0
 25 47  1  0
 25 48  1  0
 26 49  1  0
 26 50  1  0
M  END
>  <smiles>  (20) 
C[C@@H](NC(=O)CNC(=O)c1ccc2cc(Cl)ccc2n1)C1CCCCC1

>  <score_type>  (20) 
oracle

>  <origin>  (20) 
autodockgpu

>  <m_score__min__energy>  (20) 
-8.3399999999999999

>  <m_primary>  (20) 
energy

>  <rmsd>  (20) 
3.9131521416904413

>  <m_score__min__rmsd>  (20) 
3.9131521416904413

>  <meeko>  (20) 
{"free_energy": -8.05, "intermolecular_energy": -9.54, "internal_energy": -1.79, "cluster_size": 17, "cluster_id": 1, "rank_in_cluster": 13}

>  <energy>  (20) 
-7.98

>  <cluster_rmsd>  (20) 
1.74

>  <cluster>  (20) 
2

$$$$

     RDKit          3D

 50 52  0  0  0  0  0  0  0  0999 V2000
  141.8060   77.3700  220.5360 C   0  0  0  0  0  0  0  0  0  0  0  0
  140.3280   77.6980  220.5600 C   0  0  1  0  0  0  0  0  0  0  0  0
  139.5690   76.4890  220.3020 N   0  0  0  0  0  0  0  0  0  0  0  0
  139.5330   75.4360  221.2440 C   0  0  0  0  0  0  0  0  0  0  0  0
  140.1880   75.6050  222.3110 O   0  0  0  0  0  0  0  0  0  0  0  0
  138.8040   74.1700  221.0970 C   0  0  0  0  0  0  0  0  0  0  0  0
  139.1140   73.3000  222.2000 N   0  0  0  0  0  0  0  0  0  0  0  0
  138.8660   71.8870  222.1770 C   0  0  0  0  0  0  0  0  0  0  0  0
  138.3600   71.3140  221.1650 O   0  0  0  0  0  0  0  0  0  0  0  0
  139.2010   71.0640  223.3470 C   0  0  0  0  0  0  0  0  0  0  0  0
  138.8940   69.7210  223.3580 C   0  0  0  0  0  0  0  0  0  0  0  0
  139.1780   68.8840  224.4130 C   0  0  0  0  0  0  0  0  0  0  0  0
  139.8060   69.4520  225.5040 C   0  0  0  0  0  0  0  0  0  0  0  0
  140.0920   68.6070  226.5600 C   0  0  0  0  0  0  0  0  0  0  0  0
  140.7200   69.1510  227.6610 C   0  0  0  0  0  0  0  0  0  0  0  0
  141.1260   68.1480  229.0630 Cl  0  0  0  0  0  0  0  0  0  0  0  0
  141.0400   70.4800  227.6880 C   0  0  0  0  0  0  0  0  0  0  0  0
  140.7580   71.3490  226.6270 C   0  0  0  0  0  0  0  0  0  0  0  0
  140.1210   70.7960  225.5100 C   0  0  0  0  0  0  0  0  0  0  0  0
  139.8090   71.5590  224.4350 N   0  0  0  0  0  0  0  0  0  0  0  0
  139.9170   78.3580  221.8490 C   0  0  0  0  0  0  0  0  0  0  0  0
  141.0810   78.7660  222.6870 C   0  0  0  0  0  0  0  0  0  0  0  0
  140.9110   80.0720  223.4150 C   0  0  0  0  0  0  0  0  0  0  0  0
  139.5310   80.3540  223.8960 C   0  0  0  0  0  0  0  0  0  0  0  0
  138.4250   79.8620  223.0260 C   0  0  0  0  0  0  0  0  0  0  0  0
  138.8990   79.4580  221.6340 C   0  0  0  0  0  0  0  0  0  0  0  0
  142.1800   77.2870  221.5671 H   0  0  0  0  0  0  0  0  0  0  0  0
  141.9613   76.4155  220.0117 H   0  0  0  0  0  0  0  0  0  0  0  0
  142.3505   78.1692  220.0117 H   0  0  0  0  0  0  0  0  0  0  0  0
  140.1128   78.4297  219.7673 H   0  0  0  0  0  0  0  0  0  0  0  0
  139.0440   76.4330  219.4080 H   0  0  0  0  0  0  0  0  0  0  0  0
  137.7225   74.3706  221.0825 H   0  0  0  0  0  0  0  0  0  0  0  0
  139.1029   73.6851  220.1560 H   0  0  0  0  0  0  0  0  0  0  0  0
  139.5480   73.6510  223.1060 H   0  0  0  0  0  0  0  0  0  0  0  0
  138.3947   69.2944  222.4755 H   0  0  0  0  0  0  0  0  0  0  0  0
  138.9177   67.8155  224.3884 H   0  0  0  0  0  0  0  0  0  0  0  0
  139.8284   67.5397  226.5236 H   0  0  0  0  0  0  0  0  0  0  0  0
  141.5400   70.8835  228.5808 H   0  0  0  0  0  0  0  0  0  0  0  0
  141.0243   72.4154  226.6692 H   0  0  0  0  0  0  0  0  0  0  0  0
  139.3973   77.5924  222.4437 H   0  0  0  0  0  0  0  0  0  0  0  0
  141.2565   77.9784  223.4346 H   0  0  0  0  0  0  0  0  0  0  0  0
  141.9249   78.9059  221.9955 H   0  0  0  0  0  0  0  0  0  0  0  0
  141.5808   80.0650  224.2875 H   0  0  0  0  0  0  0  0  0  0  0  0
  141.1476   80.8611  222.6860 H   0  0  0  0  0  0  0  0  0  0  0  0
  139.4163   79.8852  224.8845 H   0  0  0  0  0  0  0  0  0  0  0  0
  139.4372   81.4500  223.9055 H   0  0  0  0  0  0  0  0  0  0  0  0
  137.9629   78.9872  223.5069 H   0  0  0  0  0  0  0  0  0  0  0  0
  137.7091   80.6882  222.9038 H   0  0  0  0  0  0  0  0  0  0  0  0
  138.0547   79.0869  221.0344 H   0  0  0  0  0  0  0  0  0  0  0  0
  139.3322   80.3104  221.0902 H   0  0  0  0  0  0  0  0  0  0  0  0
  1  2  1  0
  2  3  1  0
  3  4  1  0
  4  5  2  0
  4  6  1  0
  6  7  1  0
  7  8  1  0
  8  9  2  0
  8 10  1  0
 10 11  2  0
 11 12  1  0
 12 13  2  0
 13 14  1  0
 14 15  2  0
 15 16  1  0
 15 17  1  0
 17 18  2  0
 18 19  1  0
 19 20  2  0
  2 21  1  0
 21 22  1  0
 22 23  1  0
 23 24  1  0
 24 25  1  0
 25 26  1  0
 20 10  1  0
 26 21  1  0
 19 13  1  0
  1 27  1  0
  1 28  1  0
  1 29  1  0
  2 30  1  6
  3 31  1  0
  6 32  1  0
  6 33  1  0
  7 34  1  0
 11 35  1  0
 12 36  1  0
 14 37  1  0
 17 38  1  0
 18 39  1  0
 21 40  1  0
 22 41  1  0
 22 42  1  0
 23 43  1  0
 23 44  1  0
 24 45  1  0
 24 46  1  0
 25 47  1  0
 25 48  1  0
 26 49  1  0
 26 50  1  0
M  END
>  <smiles>  (21) 
C[C@@H](NC(=O)CNC(=O)c1ccc2cc(Cl)ccc2n1)C1CCCCC1

>  <score_type>  (21) 
oracle

>  <origin>  (21) 
autodockgpu

>  <m_score__min__energy>  (21) 
-8.3399999999999999

>  <m_primary>  (21) 
energy

>  <rmsd>  (21) 
4.015202285300209

>  <m_score__min__rmsd>  (21) 
4.015202285300209

>  <meeko>  (21) 
{"free_energy": -7.69, "intermolecular_energy": -9.18, "internal_energy": -1.77, "cluster_size": 17, "cluster_id": 1, "rank_in_cluster": 16}

>  <energy>  (21) 
-7.97

>  <cluster_rmsd>  (21) 
1.73

>  <cluster>  (21) 
2

$$$$

     RDKit          3D

 50 52  0  0  0  0  0  0  0  0999 V2000
  136.8570   77.3390  222.3010 C   0  0  0  0  0  0  0  0  0  0  0  0
  138.2330   76.8630  222.7140 C   0  0  1  0  0  0  0  0  0  0  0  0
  138.4060   75.4850  222.2940 N   0  0  0  0  0  0  0  0  0  0  0  0
  138.1770   75.0980  220.9540 C   0  0  0  0  0  0  0  0  0  0  0  0
  137.8220   76.0060  220.1510 O   0  0  0  0  0  0  0  0  0  0  0  0
  138.3180   73.7400  220.4120 C   0  0  0  0  0  0  0  0  0  0  0  0
  138.5490   72.8100  221.4860 N   0  0  0  0  0  0  0  0  0  0  0  0
  139.6750   72.8980  222.3710 C   0  0  0  0  0  0  0  0  0  0  0  0
  140.5390   73.8190  222.2610 O   0  0  0  0  0  0  0  0  0  0  0  0
  139.8490   71.9040  223.4390 C   0  0  0  0  0  0  0  0  0  0  0  0
  139.5130   70.5860  223.2190 C   0  0  0  0  0  0  0  0  0  0  0  0
  139.6520   69.5970  224.1660 C   0  0  0  0  0  0  0  0  0  0  0  0
  140.1570   69.9790  225.3930 C   0  0  0  0  0  0  0  0  0  0  0  0
  140.2960   68.9820  226.3400 C   0  0  0  0  0  0  0  0  0  0  0  0
  140.8000   69.3390  227.5730 C   0  0  0  0  0  0  0  0  0  0  0  0
  141.0140   68.1320  228.8510 Cl  0  0  0  0  0  0  0  0  0  0  0  0
  141.1440   70.6370  227.8300 C   0  0  0  0  0  0  0  0  0  0  0  0
  141.0100   71.6590  226.8830 C   0  0  0  0  0  0  0  0  0  0  0  0
  140.4990   71.2950  225.6310 C   0  0  0  0  0  0  0  0  0  0  0  0
  140.3340   72.2150  224.6500 N   0  0  0  0  0  0  0  0  0  0  0  0
  139.3230   77.7560  222.1790 C   0  0  0  0  0  0  0  0  0  0  0  0
  139.5120   78.9890  222.9950 C   0  0  0  0  0  0  0  0  0  0  0  0
  140.9410   79.4320  223.1500 C   0  0  0  0  0  0  0  0  0  0  0  0
  141.8080   79.2030  221.9620 C   0  0  0  0  0  0  0  0  0  0  0  0
  141.5150   77.9760  221.1690 C   0  0  0  0  0  0  0  0  0  0  0  0
  140.6040   76.9970  221.9040 C   0  0  0  0  0  0  0  0  0  0  0  0
  136.2562   77.5468  223.1987 H   0  0  0  0  0  0  0  0  0  0  0  0
  136.9510   78.2569  221.7021 H   0  0  0  0  0  0  0  0  0  0  0  0
  136.3637   76.5593  221.7021 H   0  0  0  0  0  0  0  0  0  0  0  0
  138.3128   76.9141  223.8099 H   0  0  0  0  0  0  0  0  0  0  0  0
  138.7150   74.8010  223.0100 H   0  0  0  0  0  0  0  0  0  0  0  0
  137.3968   73.4616  219.8792 H   0  0  0  0  0  0  0  0  0  0  0  0
  139.1700   73.7122  219.7168 H   0  0  0  0  0  0  0  0  0  0  0  0
  137.8960   71.9940  221.6910 H   0  0  0  0  0  0  0  0  0  0  0  0
  139.1119   70.3092  222.2329 H   0  0  0  0  0  0  0  0  0  0  0  0
  139.3744   68.5536  223.9557 H   0  0  0  0  0  0  0  0  0  0  0  0
  140.0149   67.9419  226.1183 H   0  0  0  0  0  0  0  0  0  0  0  0
  141.5432   70.8890  228.8236 H   0  0  0  0  0  0  0  0  0  0  0  0
  141.2923   72.6974  227.1111 H   0  0  0  0  0  0  0  0  0  0  0  0
  138.9831   78.1189  221.1978 H   0  0  0  0  0  0  0  0  0  0  0  0
  138.9511   79.8051  222.5161 H   0  0  0  0  0  0  0  0  0  0  0  0
  139.1518   78.7484  224.0061 H   0  0  0  0  0  0  0  0  0  0  0  0
  140.9412   80.5100  223.3687 H   0  0  0  0  0  0  0  0  0  0  0  0
  141.3644   78.8193  223.9595 H   0  0  0  0  0  0  0  0  0  0  0  0
  141.6998   80.0700  221.2937 H   0  0  0  0  0  0  0  0  0  0  0  0
  142.8250   79.0656  222.3579 H   0  0  0  0  0  0  0  0  0  0  0  0
  141.0254   78.2736  220.2300 H   0  0  0  0  0  0  0  0  0  0  0  0
  142.4716   77.4641  220.9877 H   0  0  0  0  0  0  0  0  0  0  0  0
  140.4010   76.1169  221.2762 H   0  0  0  0  0  0  0  0  0  0  0  0
  141.0664   76.6315  222.8327 H   0  0  0  0  0  0  0  0  0  0  0  0
  1  2  1  0
  2  3  1  0
  3  4  1  0
  4  5  2  0
  4  6  1  0
  6  7  1  0
  7  8  1  0
  8  9  2  0
  8 10  1  0
 10 11  2  0
 11 12  1  0
 12 13  2  0
 13 14  1  0
 14 15  2  0
 15 16  1  0
 15 17  1  0
 17 18  2  0
 18 19  1  0
 19 20  2  0
  2 21  1  0
 21 22  1  0
 22 23  1  0
 23 24  1  0
 24 25  1  0
 25 26  1  0
 20 10  1  0
 26 21  1  0
 19 13  1  0
  1 27  1  0
  1 28  1  0
  1 29  1  0
  2 30  1  1
  3 31  1  0
  6 32  1  0
  6 33  1  0
  7 34  1  0
 11 35  1  0
 12 36  1  0
 14 37  1  0
 17 38  1  0
 18 39  1  0
 21 40  1  0
 22 41  1  0
 22 42  1  0
 23 43  1  0
 23 44  1  0
 24 45  1  0
 24 46  1  0
 25 47  1  0
 25 48  1  0
 26 49  1  0
 26 50  1  0
M  END
>  <smiles>  (22) 
C[C@@H](NC(=O)CNC(=O)c1ccc2cc(Cl)ccc2n1)C1CCCCC1

>  <score_type>  (22) 
oracle

>  <origin>  (22) 
autodockgpu

>  <m_score__min__energy>  (22) 
-8.3399999999999999

>  <m_primary>  (22) 
energy

>  <rmsd>  (22) 
4.483554180552377

>  <m_score__min__rmsd>  (22) 
4.483554180552377

>  <meeko>  (22) 
{"free_energy": -8.02, "intermolecular_energy": -9.51, "internal_energy": -1.57, "cluster_size": 17, "cluster_id": 1, "rank_in_cluster": 14}

>  <energy>  (22) 
-7.97

>  <cluster_rmsd>  (22) 
1.74

>  <cluster>  (22) 
2

$$$$

     RDKit          3D

 50 52  0  0  0  0  0  0  0  0999 V2000
  139.1460   68.4090  224.7600 C   0  0  0  0  0  0  0  0  0  0  0  0
  139.9880   69.6530  224.5720 C   0  0  1  0  0  0  0  0  0  0  0  0
  139.4560   70.4250  223.4650 N   0  0  0  0  0  0  0  0  0  0  0  0
  138.1490   70.9600  223.5110 C   0  0  0  0  0  0  0  0  0  0  0  0
  137.4780   70.7350  224.5590 O   0  0  0  0  0  0  0  0  0  0  0  0
  137.5020   71.7540  222.4580 C   0  0  0  0  0  0  0  0  0  0  0  0
  138.1410   73.0390  222.3580 N   0  0  0  0  0  0  0  0  0  0  0  0
  139.4350   73.2280  221.7680 C   0  0  0  0  0  0  0  0  0  0  0  0
  140.0970   72.2580  221.2870 O   0  0  0  0  0  0  0  0  0  0  0  0
  140.0280   74.5710  221.7110 C   0  0  0  0  0  0  0  0  0  0  0  0
  141.1590   74.7960  220.9580 C   0  0  0  0  0  0  0  0  0  0  0  0
  141.7690   76.0250  220.8500 C   0  0  0  0  0  0  0  0  0  0  0  0
  141.1920   77.0680  221.5470 C   0  0  0  0  0  0  0  0  0  0  0  0
  141.8080   78.3000  221.4350 C   0  0  0  0  0  0  0  0  0  0  0  0
  141.2490   79.3570  222.1210 C   0  0  0  0  0  0  0  0  0  0  0  0
  141.9660   80.9740  222.0390 Cl  0  0  0  0  0  0  0  0  0  0  0  0
  140.1270   79.1740  222.8800 C   0  0  0  0  0  0  0  0  0  0  0  0
  139.4910   77.9330  223.0050 C   0  0  0  0  0  0  0  0  0  0  0  0
  140.0590   76.8600  222.3070 C   0  0  0  0  0  0  0  0  0  0  0  0
  139.5130   75.6210  222.3660 N   0  0  0  0  0  0  0  0  0  0  0  0
  140.0800   70.4690  225.8340 C   0  0  0  0  0  0  0  0  0  0  0  0
  139.9050   69.6480  227.0670 C   0  0  0  0  0  0  0  0  0  0  0  0
  140.7780   70.0500  228.2240 C   0  0  0  0  0  0  0  0  0  0  0  0
  141.0300   71.5110  228.3500 C   0  0  0  0  0  0  0  0  0  0  0  0
  141.1350   72.2670  227.0700 C   0  0  0  0  0  0  0  0  0  0  0  0
  141.3050   71.3590  225.8560 C   0  0  0  0  0  0  0  0  0  0  0  0
  139.0142   68.2143  225.8346 H   0  0  0  0  0  0  0  0  0  0  0  0
  138.1622   68.5578  224.2910 H   0  0  0  0  0  0  0  0  0  0  0  0
  139.6498   67.5509  224.2910 H   0  0  0  0  0  0  0  0  0  0  0  0
  141.0186   69.3512  224.3337 H   0  0  0  0  0  0  0  0  0  0  0  0
  140.0740   70.5790  222.6460 H   0  0  0  0  0  0  0  0  0  0  0  0
  137.5891   71.2265  221.4966 H   0  0  0  0  0  0  0  0  0  0  0  0
  136.4399   71.8937  222.7077 H   0  0  0  0  0  0  0  0  0  0  0  0
  137.6910   73.9350  222.7170 H   0  0  0  0  0  0  0  0  0  0  0  0
  141.5986   73.9474  220.4133 H   0  0  0  0  0  0  0  0  0  0  0  0
  142.6719   76.1693  220.2385 H   0  0  0  0  0  0  0  0  0  0  0  0
  142.7111   78.4323  220.8211 H   0  0  0  0  0  0  0  0  0  0  0  0
  139.7061   80.0380  223.4151 H   0  0  0  0  0  0  0  0  0  0  0  0
  138.5888   77.8069  223.6216 H   0  0  0  0  0  0  0  0  0  0  0  0
  139.2212   71.1564  225.8300 H   0  0  0  0  0  0  0  0  0  0  0  0
  138.8555   69.7299  227.3861 H   0  0  0  0  0  0  0  0  0  0  0  0
  140.1997   68.6225  226.7995 H   0  0  0  0  0  0  0  0  0  0  0  0
  140.2943   69.7070  229.1505 H   0  0  0  0  0  0  0  0  0  0  0  0
  141.7585   69.5858  228.0422 H   0  0  0  0  0  0  0  0  0  0  0  0
  140.2040   71.9464  228.9316 H   0  0  0  0  0  0  0  0  0  0  0  0
  142.0151   71.6024  228.8309 H   0  0  0  0  0  0  0  0  0  0  0  0
  140.2193   72.8620  226.9377 H   0  0  0  0  0  0  0  0  0  0  0  0
  142.0305   72.9025  227.1347 H   0  0  0  0  0  0  0  0  0  0  0  0
  141.3608   71.9573  224.9346 H   0  0  0  0  0  0  0  0  0  0  0  0
  142.2326   70.7709  225.9161 H   0  0  0  0  0  0  0  0  0  0  0  0
  1  2  1  0
  2  3  1  0
  3  4  1  0
  4  5  2  0
  4  6  1  0
  6  7  1  0
  7  8  1  0
  8  9  2  0
  8 10  1  0
 10 11  2  0
 11 12  1  0
 12 13  2  0
 13 14  1  0
 14 15  2  0
 15 16  1  0
 15 17  1  0
 17 18  2  0
 18 19  1  0
 19 20  2  0
  2 21  1  0
 21 22  1  0
 22 23  1  0
 23 24  1  0
 24 25  1  0
 25 26  1  0
 20 10  1  0
 26 21  1  0
 19 13  1  0
  1 27  1  0
  1 28  1  0
  1 29  1  0
  2 30  1  6
  3 31  1  0
  6 32  1  0
  6 33  1  0
  7 34  1  0
 11 35  1  0
 12 36  1  0
 14 37  1  0
 17 38  1  0
 18 39  1  0
 21 40  1  0
 22 41  1  0
 22 42  1  0
 23 43  1  0
 23 44  1  0
 24 45  1  0
 24 46  1  0
 25 47  1  0
 25 48  1  0
 26 49  1  0
 26 50  1  0
M  END
>  <smiles>  (23) 
C[C@@H](NC(=O)CNC(=O)c1ccc2cc(Cl)ccc2n1)C1CCCCC1

>  <score_type>  (23) 
oracle

>  <origin>  (23) 
autodockgpu

>  <m_score__min__energy>  (23) 
-8.3399999999999999

>  <m_primary>  (23) 
energy

>  <rmsd>  (23) 
9.721241078597

>  <m_score__min__rmsd>  (23) 
9.721241078597

>  <meeko>  (23) 
{"free_energy": -7.96, "intermolecular_energy": -9.45, "internal_energy": -2.07, "cluster_size": 24, "cluster_id": 2, "rank_in_cluster": 11}

>  <energy>  (23) 
-7.97

>  <cluster_rmsd>  (23) 
1.74

>  <cluster>  (23) 
2

$$$$

     RDKit          3D

 50 52  0  0  0  0  0  0  0  0999 V2000
  137.2460   78.2470  222.5860 C   0  0  0  0  0  0  0  0  0  0  0  0
  138.5850   77.7550  223.0910 C   0  0  1  0  0  0  0  0  0  0  0  0
  138.7560   76.3660  222.7090 N   0  0  0  0  0  0  0  0  0  0  0  0
  138.7800   75.9820  221.3490 C   0  0  0  0  0  0  0  0  0  0  0  0
  138.6500   76.9040  220.4940 O   0  0  0  0  0  0  0  0  0  0  0  0
  138.9460   74.6140  220.8410 C   0  0  0  0  0  0  0  0  0  0  0  0
  139.1490   73.7080  221.9410 N   0  0  0  0  0  0  0  0  0  0  0  0
  139.4930   72.3260  221.7660 C   0  0  0  0  0  0  0  0  0  0  0  0
  139.6490   71.8190  220.6140 O   0  0  0  0  0  0  0  0  0  0  0  0
  139.6740   71.4600  222.9380 C   0  0  0  0  0  0  0  0  0  0  0  0
  139.2960   70.1370  222.8850 C   0  0  0  0  0  0  0  0  0  0  0  0
  139.4370   69.2620  223.9380 C   0  0  0  0  0  0  0  0  0  0  0  0
  139.9910   69.7690  225.0970 C   0  0  0  0  0  0  0  0  0  0  0  0
  140.1330   68.8870  226.1510 C   0  0  0  0  0  0  0  0  0  0  0  0
  140.6850   69.3700  227.3180 C   0  0  0  0  0  0  0  0  0  0  0  0
  140.9060   68.3160  228.7230 Cl  0  0  0  0  0  0  0  0  0  0  0  0
  141.0720   70.6780  227.4110 C   0  0  0  0  0  0  0  0  0  0  0  0
  140.9360   71.5850  226.3530 C   0  0  0  0  0  0  0  0  0  0  0  0
  140.3760   71.0930  225.1680 C   0  0  0  0  0  0  0  0  0  0  0  0
  140.2050   71.8960  224.0900 N   0  0  0  0  0  0  0  0  0  0  0  0
  139.7220   78.6160  222.6070 C   0  0  0  0  0  0  0  0  0  0  0  0
  139.6930   79.9900  223.1860 C   0  0  0  0  0  0  0  0  0  0  0  0
  141.0420   80.5660  223.5170 C   0  0  0  0  0  0  0  0  0  0  0  0
  142.1390   80.1910  222.5840 C   0  0  0  0  0  0  0  0  0  0  0  0
  142.0610   78.8180  222.0070 C   0  0  0  0  0  0  0  0  0  0  0  0
  141.0630   77.9240  222.7340 C   0  0  0  0  0  0  0  0  0  0  0  0
  136.5967   78.4856  223.4413 H   0  0  0  0  0  0  0  0  0  0  0  0
  137.3938   79.1496  221.9748 H   0  0  0  0  0  0  0  0  0  0  0  0
  136.7742   77.4635  221.9748 H   0  0  0  0  0  0  0  0  0  0  0  0
  138.5994   77.8275  224.1885 H   0  0  0  0  0  0  0  0  0  0  0  0
  138.8730   75.6700  223.4700 H   0  0  0  0  0  0  0  0  0  0  0  0
  138.0436   74.3183  220.2858 H   0  0  0  0  0  0  0  0  0  0  0  0
  139.8196   74.5773  220.1736 H   0  0  0  0  0  0  0  0  0  0  0  0
  139.0550   74.0080  222.9580 H   0  0  0  0  0  0  0  0  0  0  0  0
  138.8573   69.7587  221.9499 H   0  0  0  0  0  0  0  0  0  0  0  0
  139.1238   68.2104  223.8602 H   0  0  0  0  0  0  0  0  0  0  0  0
  139.8169   67.8372  226.0620 H   0  0  0  0  0  0  0  0  0  0  0  0
  141.5084   71.0326  228.3564 H   0  0  0  0  0  0  0  0  0  0  0  0
  141.2539   72.6337  226.4483 H   0  0  0  0  0  0  0  0  0  0  0  0
  139.5708   78.7620  221.5273 H   0  0  0  0  0  0  0  0  0  0  0  0
  139.2056   80.6568  222.4595 H   0  0  0  0  0  0  0  0  0  0  0  0
  139.1486   79.9120  224.1387 H   0  0  0  0  0  0  0  0  0  0  0  0
  140.9535   81.6624  223.5145 H   0  0  0  0  0  0  0  0  0  0  0  0
  141.3193   80.1489  224.4964 H   0  0  0  0  0  0  0  0  0  0  0  0
  142.1323   80.9082  221.7500 H   0  0  0  0  0  0  0  0  0  0  0  0
  143.0606   80.2103  223.1842 H   0  0  0  0  0  0  0  0  0  0  0  0
  141.7578   78.8973  220.9526 H   0  0  0  0  0  0  0  0  0  0  0  0
  143.0546   78.3583  222.1142 H   0  0  0  0  0  0  0  0  0  0  0  0
  141.0270   76.9295  222.2652 H   0  0  0  0  0  0  0  0  0  0  0  0
  141.3442   77.7753  223.7870 H   0  0  0  0  0  0  0  0  0  0  0  0
  1  2  1  0
  2  3  1  0
  3  4  1  0
  4  5  2  0
  4  6  1  0
  6  7  1  0
  7  8  1  0
  8  9  2  0
  8 10  1  0
 10 11  2  0
 11 12  1  0
 12 13  2  0
 13 14  1  0
 14 15  2  0
 15 16  1  0
 15 17  1  0
 17 18  2  0
 18 19  1  0
 19 20  2  0
  2 21  1  0
 21 22  1  0
 22 23  1  0
 23 24  1  0
 24 25  1  0
 25 26  1  0
 20 10  1  0
 26 21  1  0
 19 13  1  0
  1 27  1  0
  1 28  1  0
  1 29  1  0
  2 30  1  1
  3 31  1  0
  6 32  1  0
  6 33  1  0
  7 34  1  0
 11 35  1  0
 12 36  1  0
 14 37  1  0
 17 38  1  0
 18 39  1  0
 21 40  1  0
 22 41  1  0
 22 42  1  0
 23 43  1  0
 23 44  1  0
 24 45  1  0
 24 46  1  0
 25 47  1  0
 25 48  1  0
 26 49  1  0
 26 50  1  0
M  END
>  <smiles>  (24) 
C[C@@H](NC(=O)CNC(=O)c1ccc2cc(Cl)ccc2n1)C1CCCCC1

>  <score_type>  (24) 
oracle

>  <origin>  (24) 
autodockgpu

>  <m_score__min__energy>  (24) 
-8.3399999999999999

>  <m_primary>  (24) 
energy

>  <rmsd>  (24) 
4.151151754505768

>  <m_score__min__rmsd>  (24) 
4.151151754505768

>  <meeko>  (24) 
{"free_energy": -8.27, "intermolecular_energy": -9.76, "internal_energy": -1.09, "cluster_size": 17, "cluster_id": 1, "rank_in_cluster": 4}

>  <energy>  (24) 
-7.97

>  <cluster_rmsd>  (24) 
1.73

>  <cluster>  (24) 
2

$$$$

     RDKit          3D

 50 52  0  0  0  0  0  0  0  0999 V2000
  138.9850   79.6520  220.3110 C   0  0  0  0  0  0  0  0  0  0  0  0
  139.3150   78.5970  221.3450 C   0  0  1  0  0  0  0  0  0  0  0  0
  139.3130   77.2920  220.7100 N   0  0  0  0  0  0  0  0  0  0  0  0
  139.3860   76.1080  221.4770 C   0  0  0  0  0  0  0  0  0  0  0  0
  139.4480   76.2450  222.7320 O   0  0  0  0  0  0  0  0  0  0  0  0
  139.3920   74.7370  220.9510 C   0  0  0  0  0  0  0  0  0  0  0  0
  139.5390   73.8010  222.0340 N   0  0  0  0  0  0  0  0  0  0  0  0
  139.6980   72.3890  221.8350 C   0  0  0  0  0  0  0  0  0  0  0  0
  139.7260   71.8790  220.6740 O   0  0  0  0  0  0  0  0  0  0  0  0
  139.8310   71.4940  222.9920 C   0  0  0  0  0  0  0  0  0  0  0  0
  139.4370   70.1780  222.8980 C   0  0  0  0  0  0  0  0  0  0  0  0
  139.5350   69.2780  223.9340 C   0  0  0  0  0  0  0  0  0  0  0  0
  140.0610   69.7510  225.1200 C   0  0  0  0  0  0  0  0  0  0  0  0
  140.1600   68.8430  226.1570 C   0  0  0  0  0  0  0  0  0  0  0  0
  140.6830   69.2930  227.3510 C   0  0  0  0  0  0  0  0  0  0  0  0
  140.8480   68.2040  228.7380 Cl  0  0  0  0  0  0  0  0  0  0  0  0
  141.0850   70.5930  227.4850 C   0  0  0  0  0  0  0  0  0  0  0  0
  140.9930   71.5250  226.4450 C   0  0  0  0  0  0  0  0  0  0  0  0
  140.4620   71.0680  225.2320 C   0  0  0  0  0  0  0  0  0  0  0  0
  140.3350   71.8970  224.1680 N   0  0  0  0  0  0  0  0  0  0  0  0
  140.6180   78.8810  222.0450 C   0  0  0  0  0  0  0  0  0  0  0  0
  141.4410   79.9050  221.3410 C   0  0  0  0  0  0  0  0  0  0  0  0
  142.1850   80.8500  222.2440 C   0  0  0  0  0  0  0  0  0  0  0  0
  142.6910   80.2510  223.5090 C   0  0  0  0  0  0  0  0  0  0  0  0
  141.8340   79.1940  224.1180 C   0  0  0  0  0  0  0  0  0  0  0  0
  140.4300   79.1520  223.5230 C   0  0  0  0  0  0  0  0  0  0  0  0
  138.6936   80.5837  220.8179 H   0  0  0  0  0  0  0  0  0  0  0  0
  139.8680   79.8376  219.6818 H   0  0  0  0  0  0  0  0  0  0  0  0
  138.1536   79.3014  219.6818 H   0  0  0  0  0  0  0  0  0  0  0  0
  138.5434   78.6133  222.1288 H   0  0  0  0  0  0  0  0  0  0  0  0
  139.2440   77.2630  219.6750 H   0  0  0  0  0  0  0  0  0  0  0  0
  138.4449   74.5428  220.4263 H   0  0  0  0  0  0  0  0  0  0  0  0
  140.2332   74.6194  220.2521 H   0  0  0  0  0  0  0  0  0  0  0  0
  139.5380   74.0990  223.0560 H   0  0  0  0  0  0  0  0  0  0  0  0
  139.0210   69.8270  221.9421 H   0  0  0  0  0  0  0  0  0  0  0  0
  139.2103   68.2329  223.8230 H   0  0  0  0  0  0  0  0  0  0  0  0
  139.8336   67.7997  226.0345 H   0  0  0  0  0  0  0  0  0  0  0  0
  141.4980   70.9200  228.4507 H   0  0  0  0  0  0  0  0  0  0  0  0
  141.3220   72.5667  226.5740 H   0  0  0  0  0  0  0  0  0  0  0  0
  141.2137   77.9578  221.9920 H   0  0  0  0  0  0  0  0  0  0  0  0
  142.1773   79.3800  220.7148 H   0  0  0  0  0  0  0  0  0  0  0  0
  140.7374   80.5213  220.7621 H   0  0  0  0  0  0  0  0  0  0  0  0
  143.0466   81.2461  221.6865 H   0  0  0  0  0  0  0  0  0  0  0  0
  141.4607   81.6229  222.5405 H   0  0  0  0  0  0  0  0  0  0  0  0
  143.6762   79.8079  223.3015 H   0  0  0  0  0  0  0  0  0  0  0  0
  142.7133   81.0732  224.2394 H   0  0  0  0  0  0  0  0  0  0  0  0
  142.3132   78.2172  223.9560 H   0  0  0  0  0  0  0  0  0  0  0  0
  141.7321   79.4277  225.1880 H   0  0  0  0  0  0  0  0  0  0  0  0
  139.8404   78.3482  223.9881 H   0  0  0  0  0  0  0  0  0  0  0  0
  139.8875   80.0930  223.6970 H   0  0  0  0  0  0  0  0  0  0  0  0
  1  2  1  0
  2  3  1  0
  3  4  1  0
  4  5  2  0
  4  6  1  0
  6  7  1  0
  7  8  1  0
  8  9  2  0
  8 10  1  0
 10 11  2  0
 11 12  1  0
 12 13  2  0
 13 14  1  0
 14 15  2  0
 15 16  1  0
 15 17  1  0
 17 18  2  0
 18 19  1  0
 19 20  2  0
  2 21  1  0
 21 22  1  0
 22 23  1  0
 23 24  1  0
 24 25  1  0
 25 26  1  0
 20 10  1  0
 26 21  1  0
 19 13  1  0
  1 27  1  0
  1 28  1  0
  1 29  1  0
  2 30  1  1
  3 31  1  0
  6 32  1  0
  6 33  1  0
  7 34  1  0
 11 35  1  0
 12 36  1  0
 14 37  1  0
 17 38  1  0
 18 39  1  0
 21 40  1  0
 22 41  1  0
 22 42  1  0
 23 43  1  0
 23 44  1  0
 24 45  1  0
 24 46  1  0
 25 47  1  0
 25 48  1  0
 26 49  1  0
 26 50  1  0
M  END
>  <smiles>  (25) 
C[C@@H](NC(=O)CNC(=O)c1ccc2cc(Cl)ccc2n1)C1CCCCC1

>  <score_type>  (25) 
oracle

>  <origin>  (25) 
autodockgpu

>  <m_score__min__energy>  (25) 
-8.3399999999999999

>  <m_primary>  (25) 
energy

>  <rmsd>  (25) 
4.120957912380605

>  <m_score__min__rmsd>  (25) 
4.120957912380605

>  <meeko>  (25) 
{"free_energy": -8.19, "intermolecular_energy": -9.68, "internal_energy": -1.75, "cluster_size": 17, "cluster_id": 1, "rank_in_cluster": 6}

>  <energy>  (25) 
-7.96

>  <cluster_rmsd>  (25) 
1.73

>  <cluster>  (25) 
2

$$$$

     RDKit          3D

 50 52  0  0  0  0  0  0  0  0999 V2000
  139.0690   68.4540  224.7350 C   0  0  0  0  0  0  0  0  0  0  0  0
  139.9200   69.6950  224.5670 C   0  0  1  0  0  0  0  0  0  0  0  0
  139.3870   70.4930  223.4800 N   0  0  0  0  0  0  0  0  0  0  0  0
  138.0540   70.9610  223.5050 C   0  0  0  0  0  0  0  0  0  0  0  0
  137.3610   70.6530  224.5160 O   0  0  0  0  0  0  0  0  0  0  0  0
  137.4030   71.7730  222.4680 C   0  0  0  0  0  0  0  0  0  0  0  0
  138.0560   73.0530  222.3740 N   0  0  0  0  0  0  0  0  0  0  0  0
  139.3260   73.2400  221.7340 C   0  0  0  0  0  0  0  0  0  0  0  0
  139.9530   72.2740  221.2000 O   0  0  0  0  0  0  0  0  0  0  0  0
  139.9350   74.5760  221.6860 C   0  0  0  0  0  0  0  0  0  0  0  0
  141.0670   74.7930  220.9320 C   0  0  0  0  0  0  0  0  0  0  0  0
  141.6920   76.0150  220.8320 C   0  0  0  0  0  0  0  0  0  0  0  0
  141.1290   77.0600  221.5390 C   0  0  0  0  0  0  0  0  0  0  0  0
  141.7590   78.2860  221.4340 C   0  0  0  0  0  0  0  0  0  0  0  0
  141.2150   79.3440  222.1300 C   0  0  0  0  0  0  0  0  0  0  0  0
  141.9510   80.9530  222.0580 Cl  0  0  0  0  0  0  0  0  0  0  0  0
  140.0920   79.1690  222.8890 C   0  0  0  0  0  0  0  0  0  0  0  0
  139.4410   77.9350  223.0060 C   0  0  0  0  0  0  0  0  0  0  0  0
  139.9940   76.8600  222.2990 C   0  0  0  0  0  0  0  0  0  0  0  0
  139.4340   75.6280  222.3500 N   0  0  0  0  0  0  0  0  0  0  0  0
  140.0270   70.4840  225.8460 C   0  0  0  0  0  0  0  0  0  0  0  0
  139.9030   69.6320  227.0630 C   0  0  0  0  0  0  0  0  0  0  0  0
  140.7970   70.0270  228.2070 C   0  0  0  0  0  0  0  0  0  0  0  0
  141.0190   71.4910  228.3600 C   0  0  0  0  0  0  0  0  0  0  0  0
  141.0740   72.2780  227.0950 C   0  0  0  0  0  0  0  0  0  0  0  0
  141.2320   71.4010  225.8570 C   0  0  0  0  0  0  0  0  0  0  0  0
  138.9280   68.2484  225.8064 H   0  0  0  0  0  0  0  0  0  0  0  0
  138.0897   68.6140  224.2603 H   0  0  0  0  0  0  0  0  0  0  0  0
  139.5711   67.5981  224.2603 H   0  0  0  0  0  0  0  0  0  0  0  0
  140.9468   69.3908  224.3156 H   0  0  0  0  0  0  0  0  0  0  0  0
  140.0240   70.7170  222.6910 H   0  0  0  0  0  0  0  0  0  0  0  0
  137.4727   71.2548  221.5002 H   0  0  0  0  0  0  0  0  0  0  0  0
  136.3454   71.9216  222.7316 H   0  0  0  0  0  0  0  0  0  0  0  0
  137.6340   73.9450  222.7740 H   0  0  0  0  0  0  0  0  0  0  0  0
  141.4948   73.9433  220.3797 H   0  0  0  0  0  0  0  0  0  0  0  0
  142.5952   76.1529  220.2194 H   0  0  0  0  0  0  0  0  0  0  0  0
  142.6613   78.4125  220.8177 H   0  0  0  0  0  0  0  0  0  0  0  0
  139.6823   80.0342  223.4309 H   0  0  0  0  0  0  0  0  0  0  0  0
  138.5386   77.8156  223.6235 H   0  0  0  0  0  0  0  0  0  0  0  0
  139.1530   71.1510  225.8805 H   0  0  0  0  0  0  0  0  0  0  0  0
  138.8606   69.6826  227.4107 H   0  0  0  0  0  0  0  0  0  0  0  0
  140.2138   68.6201  226.7640 H   0  0  0  0  0  0  0  0  0  0  0  0
  140.3454   69.6520  229.1373 H   0  0  0  0  0  0  0  0  0  0  0  0
  141.7826   69.5892  227.9902 H   0  0  0  0  0  0  0  0  0  0  0  0
  140.1985   71.8939  228.9720 H   0  0  0  0  0  0  0  0  0  0  0  0
  142.0138   71.5945  228.8179 H   0  0  0  0  0  0  0  0  0  0  0  0
  140.1424   72.8551  226.9998 H   0  0  0  0  0  0  0  0  0  0  0  0
  141.9566   72.9321  227.1511 H   0  0  0  0  0  0  0  0  0  0  0  0
  141.2504   72.0205  224.9482 H   0  0  0  0  0  0  0  0  0  0  0  0
  142.1736   70.8328  225.8802 H   0  0  0  0  0  0  0  0  0  0  0  0
  1  2  1  0
  2  3  1  0
  3  4  1  0
  4  5  2  0
  4  6  1  0
  6  7  1  0
  7  8  1  0
  8  9  2  0
  8 10  1  0
 10 11  2  0
 11 12  1  0
 12 13  2  0
 13 14  1  0
 14 15  2  0
 15 16  1  0
 15 17  1  0
 17 18  2  0
 18 19  1  0
 19 20  2  0
  2 21  1  0
 21 22  1  0
 22 23  1  0
 23 24  1  0
 24 25  1  0
 25 26  1  0
 20 10  1  0
 26 21  1  0
 19 13  1  0
  1 27  1  0
  1 28  1  0
  1 29  1  0
  2 30  1  6
  3 31  1  0
  6 32  1  0
  6 33  1  0
  7 34  1  0
 11 35  1  0
 12 36  1  0
 14 37  1  0
 17 38  1  0
 18 39  1  0
 21 40  1  0
 22 41  1  0
 22 42  1  0
 23 43  1  0
 23 44  1  0
 24 45  1  0
 24 46  1  0
 25 47  1  0
 25 48  1  0
 26 49  1  0
 26 50  1  0
M  END
>  <smiles>  (26) 
C[C@@H](NC(=O)CNC(=O)c1ccc2cc(Cl)ccc2n1)C1CCCCC1

>  <score_type>  (26) 
oracle

>  <origin>  (26) 
autodockgpu

>  <m_score__min__energy>  (26) 
-8.3399999999999999

>  <m_primary>  (26) 
energy

>  <rmsd>  (26) 
9.71809815743916

>  <m_score__min__rmsd>  (26) 
9.71809815743916

>  <meeko>  (26) 
{"free_energy": -7.93, "intermolecular_energy": -9.42, "internal_energy": -2.05, "cluster_size": 24, "cluster_id": 2, "rank_in_cluster": 18}

>  <energy>  (26) 
-7.96

>  <cluster_rmsd>  (26) 
1.74

>  <cluster>  (26) 
2

$$$$

     RDKit          3D

 50 52  0  0  0  0  0  0  0  0999 V2000
  139.1140   68.4120  224.7790 C   0  0  0  0  0  0  0  0  0  0  0  0
  139.9680   69.6480  224.5900 C   0  0  1  0  0  0  0  0  0  0  0  0
  139.4430   70.4220  223.4810 N   0  0  0  0  0  0  0  0  0  0  0  0
  138.1310   70.9450  223.5130 C   0  0  0  0  0  0  0  0  0  0  0  0
  137.4480   70.7080  224.5500 O   0  0  0  0  0  0  0  0  0  0  0  0
  137.4910   71.7400  222.4560 C   0  0  0  0  0  0  0  0  0  0  0  0
  138.1350   73.0230  222.3570 N   0  0  0  0  0  0  0  0  0  0  0  0
  139.4290   73.2080  221.7640 C   0  0  0  0  0  0  0  0  0  0  0  0
  140.0850   72.2360  221.2790 O   0  0  0  0  0  0  0  0  0  0  0  0
  140.0270   74.5480  221.7080 C   0  0  0  0  0  0  0  0  0  0  0  0
  141.1680   74.7660  220.9670 C   0  0  0  0  0  0  0  0  0  0  0  0
  141.7840   75.9920  220.8610 C   0  0  0  0  0  0  0  0  0  0  0  0
  141.2030   77.0400  221.5470 C   0  0  0  0  0  0  0  0  0  0  0  0
  141.8240   78.2700  221.4360 C   0  0  0  0  0  0  0  0  0  0  0  0
  141.2610   79.3320  222.1120 C   0  0  0  0  0  0  0  0  0  0  0  0
  141.9850   80.9460  222.0310 Cl  0  0  0  0  0  0  0  0  0  0  0  0
  140.1300   79.1560  222.8580 C   0  0  0  0  0  0  0  0  0  0  0  0
  139.4880   77.9180  222.9810 C   0  0  0  0  0  0  0  0  0  0  0  0
  140.0590   76.8400  222.2940 C   0  0  0  0  0  0  0  0  0  0  0  0
  139.5090   75.6040  222.3530 N   0  0  0  0  0  0  0  0  0  0  0  0
  140.0650   70.4650  225.8510 C   0  0  0  0  0  0  0  0  0  0  0  0
  139.9010   69.6450  227.0850 C   0  0  0  0  0  0  0  0  0  0  0  0
  140.7800   70.0510  228.2370 C   0  0  0  0  0  0  0  0  0  0  0  0
  141.0280   71.5130  228.3600 C   0  0  0  0  0  0  0  0  0  0  0  0
  141.1230   72.2680  227.0780 C   0  0  0  0  0  0  0  0  0  0  0  0
  141.2880   71.3590  225.8640 C   0  0  0  0  0  0  0  0  0  0  0  0
  138.9808   68.2192  225.8538 H   0  0  0  0  0  0  0  0  0  0  0  0
  138.1315   68.5700  224.3103 H   0  0  0  0  0  0  0  0  0  0  0  0
  139.6093   67.5489  224.3103 H   0  0  0  0  0  0  0  0  0  0  0  0
  140.9966   69.3377  224.3537 H   0  0  0  0  0  0  0  0  0  0  0  0
  140.0710   70.5880  222.6710 H   0  0  0  0  0  0  0  0  0  0  0  0
  137.5803   71.2110  221.4957 H   0  0  0  0  0  0  0  0  0  0  0  0
  136.4283   71.8837  222.7011 H   0  0  0  0  0  0  0  0  0  0  0  0
  137.6900   73.9200  222.7190 H   0  0  0  0  0  0  0  0  0  0  0  0
  141.6107   73.9136  220.4309 H   0  0  0  0  0  0  0  0  0  0  0  0
  142.6944   76.1303  220.2594 H   0  0  0  0  0  0  0  0  0  0  0  0
  142.7337   78.3970  220.8308 H   0  0  0  0  0  0  0  0  0  0  0  0
  139.7059   80.0238  223.3843 H   0  0  0  0  0  0  0  0  0  0  0  0
  138.5787   77.7980  223.5882 H   0  0  0  0  0  0  0  0  0  0  0  0
  139.2036   71.1491  225.8525 H   0  0  0  0  0  0  0  0  0  0  0  0
  138.8532   69.7233  227.4105 H   0  0  0  0  0  0  0  0  0  0  0  0
  140.1981   68.6205  226.8164 H   0  0  0  0  0  0  0  0  0  0  0  0
  140.3029   69.7074  229.1667 H   0  0  0  0  0  0  0  0  0  0  0  0
  141.7609   69.5896  228.0499 H   0  0  0  0  0  0  0  0  0  0  0  0
  140.2041   71.9464  228.9460 H   0  0  0  0  0  0  0  0  0  0  0  0
  142.0155   71.6082  228.8351 H   0  0  0  0  0  0  0  0  0  0  0  0
  140.2048   72.8603  226.9507 H   0  0  0  0  0  0  0  0  0  0  0  0
  142.0172   72.9060  227.1364 H   0  0  0  0  0  0  0  0  0  0  0  0
  141.3361   71.9563  224.9415 H   0  0  0  0  0  0  0  0  0  0  0  0
  142.2178   70.7737  225.9188 H   0  0  0  0  0  0  0  0  0  0  0  0
  1  2  1  0
  2  3  1  0
  3  4  1  0
  4  5  2  0
  4  6  1  0
  6  7  1  0
  7  8  1  0
  8  9  2  0
  8 10  1  0
 10 11  2  0
 11 12  1  0
 12 13  2  0
 13 14  1  0
 14 15  2  0
 15 16  1  0
 15 17  1  0
 17 18  2  0
 18 19  1  0
 19 20  2  0
  2 21  1  0
 21 22  1  0
 22 23  1  0
 23 24  1  0
 24 25  1  0
 25 26  1  0
 20 10  1  0
 26 21  1  0
 19 13  1  0
  1 27  1  0
  1 28  1  0
  1 29  1  0
  2 30  1  6
  3 31  1  0
  6 32  1  0
  6 33  1  0
  7 34  1  0
 11 35  1  0
 12 36  1  0
 14 37  1  0
 17 38  1  0
 18 39  1  0
 21 40  1  0
 22 41  1  0
 22 42  1  0
 23 43  1  0
 23 44  1  0
 24 45  1  0
 24 46  1  0
 25 47  1  0
 25 48  1  0
 26 49  1  0
 26 50  1  0
M  END
>  <smiles>  (27) 
C[C@@H](NC(=O)CNC(=O)c1ccc2cc(Cl)ccc2n1)C1CCCCC1

>  <score_type>  (27) 
oracle

>  <origin>  (27) 
autodockgpu

>  <m_score__min__energy>  (27) 
-8.3399999999999999

>  <m_primary>  (27) 
energy

>  <rmsd>  (27) 
9.721394211405428

>  <m_score__min__rmsd>  (27) 
9.721394211405428

>  <meeko>  (27) 
{"free_energy": -7.97, "intermolecular_energy": -9.46, "internal_energy": -2.07, "cluster_size": 24, "cluster_id": 2, "rank_in_cluster": 5}

>  <energy>  (27) 
-7.96

>  <cluster_rmsd>  (27) 
1.73

>  <cluster>  (27) 
2

$$$$

     RDKit          3D

 50 52  0  0  0  0  0  0  0  0999 V2000
  138.4050   80.0920  221.1440 C   0  0  0  0  0  0  0  0  0  0  0  0
  138.9310   79.0690  222.1280 C   0  0  1  0  0  0  0  0  0  0  0  0
  139.2840   77.8580  221.4110 N   0  0  0  0  0  0  0  0  0  0  0  0
  139.0210   76.5830  221.9590 C   0  0  0  0  0  0  0  0  0  0  0  0
  138.4640   76.5550  223.0930 O   0  0  0  0  0  0  0  0  0  0  0  0
  139.3300   75.2920  221.3310 C   0  0  0  0  0  0  0  0  0  0  0  0
  139.4580   74.2780  222.3440 N   0  0  0  0  0  0  0  0  0  0  0  0
  139.8130   72.9180  222.0520 C   0  0  0  0  0  0  0  0  0  0  0  0
  140.0470   72.5300  220.8670 O   0  0  0  0  0  0  0  0  0  0  0  0
  139.9140   71.9360  223.1390 C   0  0  0  0  0  0  0  0  0  0  0  0
  139.5270   70.6300  222.9290 C   0  0  0  0  0  0  0  0  0  0  0  0
  139.5960   69.6520  223.8950 C   0  0  0  0  0  0  0  0  0  0  0  0
  140.0840   70.0310  225.1300 C   0  0  0  0  0  0  0  0  0  0  0  0
  140.1530   69.0450  226.0960 C   0  0  0  0  0  0  0  0  0  0  0  0
  140.6370   69.4000  227.3360 C   0  0  0  0  0  0  0  0  0  0  0  0
  140.7630   68.2060  228.6380 Cl  0  0  0  0  0  0  0  0  0  0  0  0
  141.0310   70.6850  227.5840 C   0  0  0  0  0  0  0  0  0  0  0  0
  140.9680   71.6960  226.6180 C   0  0  0  0  0  0  0  0  0  0  0  0
  140.4760   71.3350  225.3570 C   0  0  0  0  0  0  0  0  0  0  0  0
  140.3790   72.2450  224.3580 N   0  0  0  0  0  0  0  0  0  0  0  0
  140.0860   79.6030  222.9340 C   0  0  0  0  0  0  0  0  0  0  0  0
  141.1790   78.6050  223.1100 C   0  0  0  0  0  0  0  0  0  0  0  0
  142.5710   79.1740  223.0590 C   0  0  0  0  0  0  0  0  0  0  0  0
  142.7220   80.5320  223.6480 C   0  0  0  0  0  0  0  0  0  0  0  0
  141.5590   81.4500  223.4750 C   0  0  0  0  0  0  0  0  0  0  0  0
  140.5590   80.9530  222.4370 C   0  0  0  0  0  0  0  0  0  0  0  0
  137.9693   80.9393  221.6937 H   0  0  0  0  0  0  0  0  0  0  0  0
  139.2305   80.4507  220.5116 H   0  0  0  0  0  0  0  0  0  0  0  0
  137.6330   79.6293  220.5116 H   0  0  0  0  0  0  0  0  0  0  0  0
  138.1397   78.8353  222.8554 H   0  0  0  0  0  0  0  0  0  0  0  0
  139.7250   77.9650  220.4770 H   0  0  0  0  0  0  0  0  0  0  0  0
  138.5191   75.0182  220.6400 H   0  0  0  0  0  0  0  0  0  0  0  0
  140.2763   75.3741  220.7762 H   0  0  0  0  0  0  0  0  0  0  0  0
  139.2960   74.4730  223.3780 H   0  0  0  0  0  0  0  0  0  0  0  0
  139.1423   70.3545  221.9360 H   0  0  0  0  0  0  0  0  0  0  0  0
  139.2778   68.6186  223.6931 H   0  0  0  0  0  0  0  0  0  0  0  0
  139.8331   68.0144  225.8825 H   0  0  0  0  0  0  0  0  0  0  0  0
  141.4136   70.9351  228.5845 H   0  0  0  0  0  0  0  0  0  0  0  0
  141.2894   72.7246  226.8384 H   0  0  0  0  0  0  0  0  0  0  0  0
  139.7057   79.7838  223.9502 H   0  0  0  0  0  0  0  0  0  0  0  0
  141.0440   78.1193  224.0877 H   0  0  0  0  0  0  0  0  0  0  0  0
  141.0995   77.9080  222.2628 H   0  0  0  0  0  0  0  0  0  0  0  0
  143.2383   78.4904  223.6043 H   0  0  0  0  0  0  0  0  0  0  0  0
  142.8211   79.2742  221.9925 H   0  0  0  0  0  0  0  0  0  0  0  0
  142.9003   80.4135  224.7270 H   0  0  0  0  0  0  0  0  0  0  0  0
  143.5552   81.0013  223.1044 H   0  0  0  0  0  0  0  0  0  0  0  0
  141.0424   81.5477  224.4412 H   0  0  0  0  0  0  0  0  0  0  0  0
  141.9505   82.4148  223.1202 H   0  0  0  0  0  0  0  0  0  0  0  0
  139.7118   81.6500  222.3566 H   0  0  0  0  0  0  0  0  0  0  0  0
  141.0142   80.8803  221.4383 H   0  0  0  0  0  0  0  0  0  0  0  0
  1  2  1  0
  2  3  1  0
  3  4  1  0
  4  5  2  0
  4  6  1  0
  6  7  1  0
  7  8  1  0
  8  9  2  0
  8 10  1  0
 10 11  2  0
 11 12  1  0
 12 13  2  0
 13 14  1  0
 14 15  2  0
 15 16  1  0
 15 17  1  0
 17 18  2  0
 18 19  1  0
 19 20  2  0
  2 21  1  0
 21 22  1  0
 22 23  1  0
 23 24  1  0
 24 25  1  0
 25 26  1  0
 20 10  1  0
 26 21  1  0
 19 13  1  0
  1 27  1  0
  1 28  1  0
  1 29  1  0
  2 30  1  1
  3 31  1  0
  6 32  1  0
  6 33  1  0
  7 34  1  0
 11 35  1  0
 12 36  1  0
 14 37  1  0
 17 38  1  0
 18 39  1  0
 21 40  1  0
 22 41  1  0
 22 42  1  0
 23 43  1  0
 23 44  1  0
 24 45  1  0
 24 46  1  0
 25 47  1  0
 25 48  1  0
 26 49  1  0
 26 50  1  0
M  END
>  <smiles>  (28) 
C[C@@H](NC(=O)CNC(=O)c1ccc2cc(Cl)ccc2n1)C1CCCCC1

>  <score_type>  (28) 
oracle

>  <origin>  (28) 
autodockgpu

>  <m_score__min__energy>  (28) 
-8.3399999999999999

>  <m_primary>  (28) 
energy

>  <rmsd>  (28) 
4.010472528816019

>  <m_score__min__rmsd>  (28) 
4.010472528816019

>  <meeko>  (28) 
{"free_energy": -8.26, "intermolecular_energy": -9.75, "internal_energy": -1.62, "cluster_size": 17, "cluster_id": 1, "rank_in_cluster": 5}

>  <energy>  (28) 
-7.96

>  <cluster_rmsd>  (28) 
1.73

>  <cluster>  (28) 
2

$$$$

     RDKit          3D

 50 52  0  0  0  0  0  0  0  0999 V2000
  139.2000   68.1580  224.9830 C   0  0  0  0  0  0  0  0  0  0  0  0
  140.0450   69.3890  224.7350 C   0  0  1  0  0  0  0  0  0  0  0  0
  139.5090   70.1120  223.5970 N   0  0  0  0  0  0  0  0  0  0  0  0
  138.1970   70.6360  223.6180 C   0  0  0  0  0  0  0  0  0  0  0  0
  137.5250   70.4470  224.6710 O   0  0  0  0  0  0  0  0  0  0  0  0
  137.5470   71.3810  222.5320 C   0  0  0  0  0  0  0  0  0  0  0  0
  138.1790   72.6650  222.3780 N   0  0  0  0  0  0  0  0  0  0  0  0
  139.4720   72.8350  221.7800 C   0  0  0  0  0  0  0  0  0  0  0  0
  140.1390   71.8500  221.3390 O   0  0  0  0  0  0  0  0  0  0  0  0
  140.0580   74.1780  221.6660 C   0  0  0  0  0  0  0  0  0  0  0  0
  141.2230   74.3660  220.9560 C   0  0  0  0  0  0  0  0  0  0  0  0
  141.8290   75.5920  220.8010 C   0  0  0  0  0  0  0  0  0  0  0  0
  141.2120   76.6710  221.4010 C   0  0  0  0  0  0  0  0  0  0  0  0
  141.8230   77.9000  221.2400 C   0  0  0  0  0  0  0  0  0  0  0  0
  141.2250   78.9930  221.8300 C   0  0  0  0  0  0  0  0  0  0  0  0
  141.9340   80.6080  221.6800 Cl  0  0  0  0  0  0  0  0  0  0  0  0
  140.0680   78.8470  222.5440 C   0  0  0  0  0  0  0  0  0  0  0  0
  139.4350   77.6100  222.7160 C   0  0  0  0  0  0  0  0  0  0  0  0
  140.0430   76.5000  222.1160 C   0  0  0  0  0  0  0  0  0  0  0  0
  139.5040   75.2630  222.2280 N   0  0  0  0  0  0  0  0  0  0  0  0
  140.1450   70.2610  225.9590 C   0  0  0  0  0  0  0  0  0  0  0  0
  140.1480   69.4780  227.2280 C   0  0  0  0  0  0  0  0  0  0  0  0
  141.0580   70.0140  228.3000 C   0  0  0  0  0  0  0  0  0  0  0  0
  141.1640   71.4980  228.3570 C   0  0  0  0  0  0  0  0  0  0  0  0
  141.0950   72.2070  227.0480 C   0  0  0  0  0  0  0  0  0  0  0  0
  141.2680   71.2710  225.8560 C   0  0  0  0  0  0  0  0  0  0  0  0
  139.0915   67.9999  226.0662 H   0  0  0  0  0  0  0  0  0  0  0  0
  138.2067   68.2980  224.5315 H   0  0  0  0  0  0  0  0  0  0  0  0
  139.6877   67.2814  224.5315 H   0  0  0  0  0  0  0  0  0  0  0  0
  141.0736   69.0738  224.5055 H   0  0  0  0  0  0  0  0  0  0  0  0
  140.1290   70.2390  222.7740 H   0  0  0  0  0  0  0  0  0  0  0  0
  137.6382   70.8138  221.5939 H   0  0  0  0  0  0  0  0  0  0  0  0
  136.4839   71.5252  222.7748 H   0  0  0  0  0  0  0  0  0  0  0  0
  137.7250   73.5720  222.6990 H   0  0  0  0  0  0  0  0  0  0  0  0
  141.6944   73.4894  220.4877 H   0  0  0  0  0  0  0  0  0  0  0  0
  142.7601   75.7064  220.2266 H   0  0  0  0  0  0  0  0  0  0  0  0
  142.7532   78.0025  220.6618 H   0  0  0  0  0  0  0  0  0  0  0  0
  139.6156   79.7387  223.0025 H   0  0  0  0  0  0  0  0  0  0  0  0
  138.5045   77.5145  223.2948 H   0  0  0  0  0  0  0  0  0  0  0  0
  139.2212   70.8568  225.9994 H   0  0  0  0  0  0  0  0  0  0  0  0
  139.1221   69.4661  227.6248 H   0  0  0  0  0  0  0  0  0  0  0  0
  140.5272   68.4775  226.9727 H   0  0  0  0  0  0  0  0  0  0  0  0
  140.6830   69.6619  229.2723 H   0  0  0  0  0  0  0  0  0  0  0  0
  142.0656   69.6448  228.0582 H   0  0  0  0  0  0  0  0  0  0  0  0
  140.3418   71.8706  228.9857 H   0  0  0  0  0  0  0  0  0  0  0  0
  142.1666   71.7093  228.7571 H   0  0  0  0  0  0  0  0  0  0  0  0
  140.1152   72.7005  226.9674 H   0  0  0  0  0  0  0  0  0  0  0  0
  141.9220   72.9318  227.0212 H   0  0  0  0  0  0  0  0  0  0  0  0
  141.1926   71.8330  224.9134 H   0  0  0  0  0  0  0  0  0  0  0  0
  142.2538   70.7829  225.8639 H   0  0  0  0  0  0  0  0  0  0  0  0
  1  2  1  0
  2  3  1  0
  3  4  1  0
  4  5  2  0
  4  6  1  0
  6  7  1  0
  7  8  1  0
  8  9  2  0
  8 10  1  0
 10 11  2  0
 11 12  1  0
 12 13  2  0
 13 14  1  0
 14 15  2  0
 15 16  1  0
 15 17  1  0
 17 18  2  0
 18 19  1  0
 19 20  2  0
  2 21  1  0
 21 22  1  0
 22 23  1  0
 23 24  1  0
 24 25  1  0
 25 26  1  0
 20 10  1  0
 26 21  1  0
 19 13  1  0
  1 27  1  0
  1 28  1  0
  1 29  1  0
  2 30  1  6
  3 31  1  0
  6 32  1  0
  6 33  1  0
  7 34  1  0
 11 35  1  0
 12 36  1  0
 14 37  1  0
 17 38  1  0
 18 39  1  0
 21 40  1  0
 22 41  1  0
 22 42  1  0
 23 43  1  0
 23 44  1  0
 24 45  1  0
 24 46  1  0
 25 47  1  0
 25 48  1  0
 26 49  1  0
 26 50  1  0
M  END
>  <smiles>  (29) 
C[C@@H](NC(=O)CNC(=O)c1ccc2cc(Cl)ccc2n1)C1CCCCC1

>  <score_type>  (29) 
oracle

>  <origin>  (29) 
autodockgpu

>  <m_score__min__energy>  (29) 
-8.3399999999999999

>  <m_primary>  (29) 
energy

>  <rmsd>  (29) 
9.78578731028005

>  <m_score__min__rmsd>  (29) 
9.78578731028005

>  <meeko>  (29) 
{"free_energy": -7.91, "intermolecular_energy": -9.41, "internal_energy": -2.1, "cluster_size": 24, "cluster_id": 2, "rank_in_cluster": 22}

>  <energy>  (29) 
-7.96

>  <cluster_rmsd>  (29) 
1.73

>  <cluster>  (29) 
2

$$$$

     RDKit          3D

 50 52  0  0  0  0  0  0  0  0999 V2000
  142.8880   76.6330  218.7210 C   0  0  0  0  0  0  0  0  0  0  0  0
  142.9910   75.6450  219.8630 C   0  0  1  0  0  0  0  0  0  0  0  0
  141.7070   74.9960  220.0460 N   0  0  0  0  0  0  0  0  0  0  0  0
  140.6600   75.6350  220.7490 C   0  0  0  0  0  0  0  0  0  0  0  0
  140.9000   76.7910  221.2000 O   0  0  0  0  0  0  0  0  0  0  0  0
  139.3230   75.0810  220.9980 C   0  0  0  0  0  0  0  0  0  0  0  0
  139.3880   74.1150  222.0630 N   0  0  0  0  0  0  0  0  0  0  0  0
  140.0860   72.8660  221.9470 C   0  0  0  0  0  0  0  0  0  0  0  0
  140.7020   72.5420  220.8860 O   0  0  0  0  0  0  0  0  0  0  0  0
  140.0990   71.9250  223.0750 C   0  0  0  0  0  0  0  0  0  0  0  0
  139.6140   70.6460  222.9140 C   0  0  0  0  0  0  0  0  0  0  0  0
  139.5970   69.7070  223.9200 C   0  0  0  0  0  0  0  0  0  0  0  0
  140.1010   70.0990  225.1440 C   0  0  0  0  0  0  0  0  0  0  0  0
  140.0830   69.1510  226.1500 C   0  0  0  0  0  0  0  0  0  0  0  0
  140.5820   69.5190  227.3820 C   0  0  0  0  0  0  0  0  0  0  0  0
  140.6020   68.3740  228.7330 Cl  0  0  0  0  0  0  0  0  0  0  0  0
  141.0730   70.7790  227.5810 C   0  0  0  0  0  0  0  0  0  0  0  0
  141.0980   71.7510  226.5740 C   0  0  0  0  0  0  0  0  0  0  0  0
  140.5920   71.3760  225.3230 C   0  0  0  0  0  0  0  0  0  0  0  0
  140.5760   72.2480  224.2860 N   0  0  0  0  0  0  0  0  0  0  0  0
  144.1000   74.6490  219.6490 C   0  0  0  0  0  0  0  0  0  0  0  0
  144.3510   73.7970  220.8460 C   0  0  0  0  0  0  0  0  0  0  0  0
  144.6910   72.3630  220.5430 C   0  0  0  0  0  0  0  0  0  0  0  0
  145.5020   72.1510  219.3140 C   0  0  0  0  0  0  0  0  0  0  0  0
  145.2270   73.0830  218.1830 C   0  0  0  0  0  0  0  0  0  0  0  0
  143.9330   73.8690  218.3620 C   0  0  0  0  0  0  0  0  0  0  0  0
  142.7819   77.6506  219.1250 H   0  0  0  0  0  0  0  0  0  0  0  0
  143.7969   76.5763  218.1040 H   0  0  0  0  0  0  0  0  0  0  0  0
  142.0103   76.3901  218.1040 H   0  0  0  0  0  0  0  0  0  0  0  0
  143.2500   76.1896  220.7829 H   0  0  0  0  0  0  0  0  0  0  0  0
  141.5830   74.0520  219.6320 H   0  0  0  0  0  0  0  0  0  0  0  0
  138.6380   75.8933  221.2826 H   0  0  0  0  0  0  0  0  0  0  0  0
  138.9561   74.5910  220.0841 H   0  0  0  0  0  0  0  0  0  0  0  0
  138.9200   74.2660  223.0070 H   0  0  0  0  0  0  0  0  0  0  0  0
  139.2189   70.3596  221.9282 H   0  0  0  0  0  0  0  0  0  0  0  0
  139.2012   68.6937  223.7568 H   0  0  0  0  0  0  0  0  0  0  0  0
  139.6854   68.1405  225.9744 H   0  0  0  0  0  0  0  0  0  0  0  0
  141.4652   71.0403  228.5749 H   0  0  0  0  0  0  0  0  0  0  0  0
  141.4957   72.7602  226.7563 H   0  0  0  0  0  0  0  0  0  0  0  0
  145.0254   75.2293  219.5191 H   0  0  0  0  0  0  0  0  0  0  0  0
  145.1889   74.2354  221.4078 H   0  0  0  0  0  0  0  0  0  0  0  0
  143.4090   73.7773  221.4136 H   0  0  0  0  0  0  0  0  0  0  0  0
  145.2548   71.9591  221.3968 H   0  0  0  0  0  0  0  0  0  0  0  0
  143.7326   71.8521  220.3685 H   0  0  0  0  0  0  0  0  0  0  0  0
  146.5622   72.2567  219.5875 H   0  0  0  0  0  0  0  0  0  0  0  0
  145.2305   71.1501  218.9474 H   0  0  0  0  0  0  0  0  0  0  0  0
  146.0618   73.7949  218.1041 H   0  0  0  0  0  0  0  0  0  0  0  0
  145.1200   72.4745  217.2729 H   0  0  0  0  0  0  0  0  0  0  0  0
  143.7808   74.5546  217.5154 H   0  0  0  0  0  0  0  0  0  0  0  0
  143.0573   73.2045  218.4016 H   0  0  0  0  0  0  0  0  0  0  0  0
  1  2  1  0
  2  3  1  0
  3  4  1  0
  4  5  2  0
  4  6  1  0
  6  7  1  0
  7  8  1  0
  8  9  2  0
  8 10  1  0
 10 11  2  0
 11 12  1  0
 12 13  2  0
 13 14  1  0
 14 15  2  0
 15 16  1  0
 15 17  1  0
 17 18  2  0
 18 19  1  0
 19 20  2  0
  2 21  1  0
 21 22  1  0
 22 23  1  0
 23 24  1  0
 24 25  1  0
 25 26  1  0
 20 10  1  0
 26 21  1  0
 19 13  1  0
  1 27  1  0
  1 28  1  0
  1 29  1  0
  2 30  1  1
  3 31  1  0
  6 32  1  0
  6 33  1  0
  7 34  1  0
 11 35  1  0
 12 36  1  0
 14 37  1  0
 17 38  1  0
 18 39  1  0
 21 40  1  0
 22 41  1  0
 22 42  1  0
 23 43  1  0
 23 44  1  0
 24 45  1  0
 24 46  1  0
 25 47  1  0
 25 48  1  0
 26 49  1  0
 26 50  1  0
M  END
>  <smiles>  (30) 
C[C@@H](NC(=O)CNC(=O)c1ccc2cc(Cl)ccc2n1)C1CCCCC1

>  <score_type>  (30) 
oracle

>  <origin>  (30) 
autodockgpu

>  <m_score__min__energy>  (30) 
-8.3399999999999999

>  <m_primary>  (30) 
energy

>  <rmsd>  (30) 
6.239958829966691

>  <m_score__min__rmsd>  (30) 
6.239958829966691

>  <meeko>  (30) 
{"free_energy": -7.53, "intermolecular_energy": -9.02, "internal_energy": -2.01, "cluster_size": 3, "cluster_id": 4, "rank_in_cluster": 2}

>  <energy>  (30) 
-7.95

>  <cluster_rmsd>  (30) 
1.68

>  <cluster>  (30) 
2

$$$$

     RDKit          3D

 50 52  0  0  0  0  0  0  0  0999 V2000
  139.2240   67.5200  226.2000 C   0  0  0  0  0  0  0  0  0  0  0  0
  140.2050   68.3760  225.4270 C   0  0  1  0  0  0  0  0  0  0  0  0
  139.5270   68.9630  224.2870 N   0  0  0  0  0  0  0  0  0  0  0  0
  138.2940   69.6350  224.4390 C   0  0  0  0  0  0  0  0  0  0  0  0
  137.8200   69.6990  225.6090 O   0  0  0  0  0  0  0  0  0  0  0  0
  137.5160   70.2670  223.3650 C   0  0  0  0  0  0  0  0  0  0  0  0
  138.1380   71.5060  222.9790 N   0  0  0  0  0  0  0  0  0  0  0  0
  139.3880   71.5710  222.2780 C   0  0  0  0  0  0  0  0  0  0  0  0
  140.0220   70.5240  221.9460 O   0  0  0  0  0  0  0  0  0  0  0  0
  139.9660   72.8750  221.9270 C   0  0  0  0  0  0  0  0  0  0  0  0
  141.1210   72.9410  221.1800 C   0  0  0  0  0  0  0  0  0  0  0  0
  141.7210   74.1220  220.8070 C   0  0  0  0  0  0  0  0  0  0  0  0
  141.1070   75.2870  221.2210 C   0  0  0  0  0  0  0  0  0  0  0  0
  141.7110   76.4720  220.8430 C   0  0  0  0  0  0  0  0  0  0  0  0
  141.1150   77.6490  221.2440 C   0  0  0  0  0  0  0  0  0  0  0  0
  141.8160   79.2160  220.8090 Cl  0  0  0  0  0  0  0  0  0  0  0  0
  139.9680   77.6250  221.9870 C   0  0  0  0  0  0  0  0  0  0  0  0
  139.3430   76.4360  222.3790 C   0  0  0  0  0  0  0  0  0  0  0  0
  139.9480   75.2410  221.9710 C   0  0  0  0  0  0  0  0  0  0  0  0
  139.4150   74.0400  222.3010 N   0  0  0  0  0  0  0  0  0  0  0  0
  140.8510   69.4210  226.2980 C   0  0  0  0  0  0  0  0  0  0  0  0
  141.4320   70.5480  225.5140 C   0  0  0  0  0  0  0  0  0  0  0  0
  141.2790   71.9040  226.1460 C   0  0  0  0  0  0  0  0  0  0  0  0
  141.3720   71.9250  227.6320 C   0  0  0  0  0  0  0  0  0  0  0  0
  140.8180   70.7330  228.3350 C   0  0  0  0  0  0  0  0  0  0  0  0
  139.9510   69.8600  227.4330 C   0  0  0  0  0  0  0  0  0  0  0  0
  139.3854   67.6608  227.2789 H   0  0  0  0  0  0  0  0  0  0  0  0
  138.1965   67.8154  225.9413 H   0  0  0  0  0  0  0  0  0  0  0  0
  139.3775   66.4619  225.9413 H   0  0  0  0  0  0  0  0  0  0  0  0
  141.0253   67.7387  225.0650 H   0  0  0  0  0  0  0  0  0  0  0  0
  139.9880   68.8820  223.3600 H   0  0  0  0  0  0  0  0  0  0  0  0
  137.4758   69.5923  222.4972 H   0  0  0  0  0  0  0  0  0  0  0  0
  136.4961   70.4683  223.7245 H   0  0  0  0  0  0  0  0  0  0  0  0
  137.7080   72.4570  223.1920 H   0  0  0  0  0  0  0  0  0  0  0  0
  141.5900   71.9975  220.8639 H   0  0  0  0  0  0  0  0  0  0  0  0
  142.6439   74.1369  220.2087 H   0  0  0  0  0  0  0  0  0  0  0  0
  142.6336   76.4756  220.2440 H   0  0  0  0  0  0  0  0  0  0  0  0
  139.5169   78.5814  222.2898 H   0  0  0  0  0  0  0  0  0  0  0  0
  138.4209   76.4399  222.9787 H   0  0  0  0  0  0  0  0  0  0  0  0
  141.7149   68.9410  226.7810 H   0  0  0  0  0  0  0  0  0  0  0  0
  142.5062   70.3528  225.3797 H   0  0  0  0  0  0  0  0  0  0  0  0
  140.8743   70.5845  224.5665 H   0  0  0  0  0  0  0  0  0  0  0  0
  142.0690   72.5568  225.7463 H   0  0  0  0  0  0  0  0  0  0  0  0
  140.2621   72.2430  225.8989 H   0  0  0  0  0  0  0  0  0  0  0  0
  142.4347   72.0121  227.9022 H   0  0  0  0  0  0  0  0  0  0  0  0
  140.7556   72.7761  227.9572 H   0  0  0  0  0  0  0  0  0  0  0  0
  141.6554   70.1265  228.7103 H   0  0  0  0  0  0  0  0  0  0  0  0
  140.1789   71.0996  229.1518 H   0  0  0  0  0  0  0  0  0  0  0  0
  139.5796   68.9858  227.9878 H   0  0  0  0  0  0  0  0  0  0  0  0
  139.0707   70.4068  227.0642 H   0  0  0  0  0  0  0  0  0  0  0  0
  1  2  1  0
  2  3  1  0
  3  4  1  0
  4  5  2  0
  4  6  1  0
  6  7  1  0
  7  8  1  0
  8  9  2  0
  8 10  1  0
 10 11  2  0
 11 12  1  0
 12 13  2  0
 13 14  1  0
 14 15  2  0
 15 16  1  0
 15 17  1  0
 17 18  2  0
 18 19  1  0
 19 20  2  0
  2 21  1  0
 21 22  1  0
 22 23  1  0
 23 24  1  0
 24 25  1  0
 25 26  1  0
 20 10  1  0
 26 21  1  0
 19 13  1  0
  1 27  1  0
  1 28  1  0
  1 29  1  0
  2 30  1  6
  3 31  1  0
  6 32  1  0
  6 33  1  0
  7 34  1  0
 11 35  1  0
 12 36  1  0
 14 37  1  0
 17 38  1  0
 18 39  1  0
 21 40  1  0
 22 41  1  0
 22 42  1  0
 23 43  1  0
 23 44  1  0
 24 45  1  0
 24 46  1  0
 25 47  1  0
 25 48  1  0
 26 49  1  0
 26 50  1  0
M  END
>  <smiles>  (31) 
C[C@@H](NC(=O)CNC(=O)c1ccc2cc(Cl)ccc2n1)C1CCCCC1

>  <score_type>  (31) 
oracle

>  <origin>  (31) 
autodockgpu

>  <m_score__min__energy>  (31) 
-8.3399999999999999

>  <m_primary>  (31) 
energy

>  <rmsd>  (31) 
10.086121745703684

>  <m_score__min__rmsd>  (31) 
10.086121745703684

>  <meeko>  (31) 
{"free_energy": -7.62, "intermolecular_energy": -9.12, "internal_energy": -2.25, "cluster_size": 3, "cluster_id": 5, "rank_in_cluster": 1}

>  <energy>  (31) 
-7.95

>  <cluster_rmsd>  (31) 
1.74

>  <cluster>  (31) 
2

$$$$

     RDKit          3D

 50 52  0  0  0  0  0  0  0  0999 V2000
  139.1290   68.4710  224.6260 C   0  0  0  0  0  0  0  0  0  0  0  0
  139.9690   69.7250  224.5030 C   0  0  1  0  0  0  0  0  0  0  0  0
  139.4270   70.5560  223.4450 N   0  0  0  0  0  0  0  0  0  0  0  0
  138.0750   70.9650  223.4580 C   0  0  0  0  0  0  0  0  0  0  0  0
  137.3720   70.5740  224.4330 O   0  0  0  0  0  0  0  0  0  0  0  0
  137.4150   71.8030  222.4480 C   0  0  0  0  0  0  0  0  0  0  0  0
  138.0810   73.0750  222.3620 N   0  0  0  0  0  0  0  0  0  0  0  0
  139.3510   73.2540  221.7180 C   0  0  0  0  0  0  0  0  0  0  0  0
  139.9630   72.2860  221.1720 O   0  0  0  0  0  0  0  0  0  0  0  0
  139.9740   74.5830  221.6800 C   0  0  0  0  0  0  0  0  0  0  0  0
  141.1140   74.7910  220.9340 C   0  0  0  0  0  0  0  0  0  0  0  0
  141.7530   76.0070  220.8440 C   0  0  0  0  0  0  0  0  0  0  0  0
  141.1970   77.0540  221.5510 C   0  0  0  0  0  0  0  0  0  0  0  0
  141.8410   78.2740  221.4560 C   0  0  0  0  0  0  0  0  0  0  0  0
  141.3040   79.3350  222.1530 C   0  0  0  0  0  0  0  0  0  0  0  0
  142.0590   80.9360  222.0930 Cl  0  0  0  0  0  0  0  0  0  0  0  0
  140.1740   79.1690  222.9040 C   0  0  0  0  0  0  0  0  0  0  0  0
  139.5090   77.9420  223.0120 C   0  0  0  0  0  0  0  0  0  0  0  0
  140.0550   76.8640  222.3030 C   0  0  0  0  0  0  0  0  0  0  0  0
  139.4810   75.6380  222.3450 N   0  0  0  0  0  0  0  0  0  0  0  0
  140.0690   70.4680  225.8090 C   0  0  0  0  0  0  0  0  0  0  0  0
  139.9590   69.5710  226.9940 C   0  0  0  0  0  0  0  0  0  0  0  0
  140.8500   69.9380  228.1500 C   0  0  0  0  0  0  0  0  0  0  0  0
  141.0540   71.3980  228.3550 C   0  0  0  0  0  0  0  0  0  0  0  0
  141.0950   72.2300  227.1190 C   0  0  0  0  0  0  0  0  0  0  0  0
  141.2610   71.4000  225.8500 C   0  0  0  0  0  0  0  0  0  0  0  0
  138.9725   68.2374  225.6895 H   0  0  0  0  0  0  0  0  0  0  0  0
  138.1560   68.6322  224.1390 H   0  0  0  0  0  0  0  0  0  0  0  0
  139.6484   67.6325  224.1390 H   0  0  0  0  0  0  0  0  0  0  0  0
  140.9988   69.4403  224.2413 H   0  0  0  0  0  0  0  0  0  0  0  0
  140.0730   70.8500  222.6870 H   0  0  0  0  0  0  0  0  0  0  0  0
  137.4592   71.3004  221.4705 H   0  0  0  0  0  0  0  0  0  0  0  0
  136.3650   71.9606  222.7356 H   0  0  0  0  0  0  0  0  0  0  0  0
  137.6720   73.9680  222.7740 H   0  0  0  0  0  0  0  0  0  0  0  0
  141.5362   73.9393  220.3806 H   0  0  0  0  0  0  0  0  0  0  0  0
  142.6620   76.1378  220.2384 H   0  0  0  0  0  0  0  0  0  0  0  0
  142.7488   78.3934  220.8464 H   0  0  0  0  0  0  0  0  0  0  0  0
  139.7701   80.0365  223.4465 H   0  0  0  0  0  0  0  0  0  0  0  0
  138.6018   77.8296  223.6238 H   0  0  0  0  0  0  0  0  0  0  0  0
  139.1865   71.1218  225.8704 H   0  0  0  0  0  0  0  0  0  0  0  0
  138.9167   69.5942  227.3449 H   0  0  0  0  0  0  0  0  0  0  0  0
  140.2827   68.5747  226.6585 H   0  0  0  0  0  0  0  0  0  0  0  0
  140.4050   69.5246  229.0671 H   0  0  0  0  0  0  0  0  0  0  0  0
  141.8408   69.5216  227.9156 H   0  0  0  0  0  0  0  0  0  0  0  0
  140.2305   71.7683  228.9832 H   0  0  0  0  0  0  0  0  0  0  0  0
  142.0487   71.4978  228.8138 H   0  0  0  0  0  0  0  0  0  0  0  0
  140.1556   72.7977  227.0467 H   0  0  0  0  0  0  0  0  0  0  0  0
  141.9692   72.8932  227.1964 H   0  0  0  0  0  0  0  0  0  0  0  0
  141.2684   72.0519  224.9640 H   0  0  0  0  0  0  0  0  0  0  0  0
  142.2102   70.8441  225.8507 H   0  0  0  0  0  0  0  0  0  0  0  0
  1  2  1  0
  2  3  1  0
  3  4  1  0
  4  5  2  0
  4  6  1  0
  6  7  1  0
  7  8  1  0
  8  9  2  0
  8 10  1  0
 10 11  2  0
 11 12  1  0
 12 13  2  0
 13 14  1  0
 14 15  2  0
 15 16  1  0
 15 17  1  0
 17 18  2  0
 18 19  1  0
 19 20  2  0
  2 21  1  0
 21 22  1  0
 22 23  1  0
 23 24  1  0
 24 25  1  0
 25 26  1  0
 20 10  1  0
 26 21  1  0
 19 13  1  0
  1 27  1  0
  1 28  1  0
  1 29  1  0
  2 30  1  6
  3 31  1  0
  6 32  1  0
  6 33  1  0
  7 34  1  0
 11 35  1  0
 12 36  1  0
 14 37  1  0
 17 38  1  0
 18 39  1  0
 21 40  1  0
 22 41  1  0
 22 42  1  0
 23 43  1  0
 23 44  1  0
 24 45  1  0
 24 46  1  0
 25 47  1  0
 25 48  1  0
 26 49  1  0
 26 50  1  0
M  END
>  <smiles>  (32) 
C[C@@H](NC(=O)CNC(=O)c1ccc2cc(Cl)ccc2n1)C1CCCCC1

>  <score_type>  (32) 
oracle

>  <origin>  (32) 
autodockgpu

>  <m_score__min__energy>  (32) 
-8.3399999999999999

>  <m_primary>  (32) 
energy

>  <rmsd>  (32) 
9.71741748957369

>  <m_score__min__rmsd>  (32) 
9.71741748957369

>  <meeko>  (32) 
{"free_energy": -7.93, "intermolecular_energy": -9.42, "internal_energy": -2.03, "cluster_size": 24, "cluster_id": 2, "rank_in_cluster": 19}

>  <energy>  (32) 
-7.95

>  <cluster_rmsd>  (32) 
1.74

>  <cluster>  (32) 
2

$$$$

     RDKit          3D

 50 52  0  0  0  0  0  0  0  0999 V2000
  139.0890   68.4220  224.7630 C   0  0  0  0  0  0  0  0  0  0  0  0
  139.9480   69.6530  224.5700 C   0  0  1  0  0  0  0  0  0  0  0  0
  139.4180   70.4350  223.4690 N   0  0  0  0  0  0  0  0  0  0  0  0
  138.1000   70.9430  223.5030 C   0  0  0  0  0  0  0  0  0  0  0  0
  137.4170   70.6860  224.5350 O   0  0  0  0  0  0  0  0  0  0  0  0
  137.4550   71.7430  222.4540 C   0  0  0  0  0  0  0  0  0  0  0  0
  138.0990   73.0260  222.3570 N   0  0  0  0  0  0  0  0  0  0  0  0
  139.3800   73.2160  221.7400 C   0  0  0  0  0  0  0  0  0  0  0  0
  140.0250   72.2500  221.2300 O   0  0  0  0  0  0  0  0  0  0  0  0
  139.9790   74.5570  221.6890 C   0  0  0  0  0  0  0  0  0  0  0  0
  141.1120   74.7790  220.9380 C   0  0  0  0  0  0  0  0  0  0  0  0
  141.7280   76.0060  220.8350 C   0  0  0  0  0  0  0  0  0  0  0  0
  141.1550   77.0490  221.5350 C   0  0  0  0  0  0  0  0  0  0  0  0
  141.7760   78.2790  221.4280 C   0  0  0  0  0  0  0  0  0  0  0  0
  141.2220   79.3360  222.1170 C   0  0  0  0  0  0  0  0  0  0  0  0
  141.9460   80.9500  222.0410 Cl  0  0  0  0  0  0  0  0  0  0  0  0
  140.0970   79.1550  222.8740 C   0  0  0  0  0  0  0  0  0  0  0  0
  139.4560   77.9170  222.9940 C   0  0  0  0  0  0  0  0  0  0  0  0
  140.0190   76.8440  222.2930 C   0  0  0  0  0  0  0  0  0  0  0  0
  139.4680   75.6080  222.3470 N   0  0  0  0  0  0  0  0  0  0  0  0
  140.0620   70.4650  225.8340 C   0  0  0  0  0  0  0  0  0  0  0  0
  139.9040   69.6420  227.0660 C   0  0  0  0  0  0  0  0  0  0  0  0
  140.7960   70.0390  228.2110 C   0  0  0  0  0  0  0  0  0  0  0  0
  141.0530   71.4990  228.3370 C   0  0  0  0  0  0  0  0  0  0  0  0
  141.1400   72.2580  227.0570 C   0  0  0  0  0  0  0  0  0  0  0  0
  141.2890   71.3520  225.8390 C   0  0  0  0  0  0  0  0  0  0  0  0
  138.9566   68.2322  225.8384 H   0  0  0  0  0  0  0  0  0  0  0  0
  138.1065   68.5835  224.2954 H   0  0  0  0  0  0  0  0  0  0  0  0
  139.5796   67.5556  224.2954 H   0  0  0  0  0  0  0  0  0  0  0  0
  140.9720   69.3369  224.3221 H   0  0  0  0  0  0  0  0  0  0  0  0
  140.0470   70.6160  222.6630 H   0  0  0  0  0  0  0  0  0  0  0  0
  137.5385   71.2183  221.4908 H   0  0  0  0  0  0  0  0  0  0  0  0
  136.3939   71.8863  222.7061 H   0  0  0  0  0  0  0  0  0  0  0  0
  137.6620   73.9190  222.7390 H   0  0  0  0  0  0  0  0  0  0  0  0
  141.5483   73.9302  220.3910 H   0  0  0  0  0  0  0  0  0  0  0  0
  142.6322   76.1483  220.2250 H   0  0  0  0  0  0  0  0  0  0  0  0
  142.6799   78.4095  220.8149 H   0  0  0  0  0  0  0  0  0  0  0  0
  139.6787   80.0191  223.4110 H   0  0  0  0  0  0  0  0  0  0  0  0
  138.5529   77.7929  223.6097 H   0  0  0  0  0  0  0  0  0  0  0  0
  139.2047   71.1542  225.8460 H   0  0  0  0  0  0  0  0  0  0  0  0
  138.8597   69.7256  227.4013 H   0  0  0  0  0  0  0  0  0  0  0  0
  140.1920   68.6165  226.7914 H   0  0  0  0  0  0  0  0  0  0  0  0
  140.3259   69.6944  229.1439 H   0  0  0  0  0  0  0  0  0  0  0  0
  141.7726   69.5731  228.0129 H   0  0  0  0  0  0  0  0  0  0  0  0
  140.2370   71.9346  228.9323 H   0  0  0  0  0  0  0  0  0  0  0  0
  142.0454   71.5872  228.8032 H   0  0  0  0  0  0  0  0  0  0  0  0
  140.2238   72.8554  226.9402 H   0  0  0  0  0  0  0  0  0  0  0  0
  142.0377   72.8915  227.1091 H   0  0  0  0  0  0  0  0  0  0  0  0
  141.3321   71.9519  224.9180 H   0  0  0  0  0  0  0  0  0  0  0  0
  142.2160   70.7615  225.8839 H   0  0  0  0  0  0  0  0  0  0  0  0
  1  2  1  0
  2  3  1  0
  3  4  1  0
  4  5  2  0
  4  6  1  0
  6  7  1  0
  7  8  1  0
  8  9  2  0
  8 10  1  0
 10 11  2  0
 11 12  1  0
 12 13  2  0
 13 14  1  0
 14 15  2  0
 15 16  1  0
 15 17  1  0
 17 18  2  0
 18 19  1  0
 19 20  2  0
  2 21  1  0
 21 22  1  0
 22 23  1  0
 23 24  1  0
 24 25  1  0
 25 26  1  0
 20 10  1  0
 26 21  1  0
 19 13  1  0
  1 27  1  0
  1 28  1  0
  1 29  1  0
  2 30  1  6
  3 31  1  0
  6 32  1  0
  6 33  1  0
  7 34  1  0
 11 35  1  0
 12 36  1  0
 14 37  1  0
 17 38  1  0
 18 39  1  0
 21 40  1  0
 22 41  1  0
 22 42  1  0
 23 43  1  0
 23 44  1  0
 24 45  1  0
 24 46  1  0
 25 47  1  0
 25 48  1  0
 26 49  1  0
 26 50  1  0
M  END
>  <smiles>  (33) 
C[C@@H](NC(=O)CNC(=O)c1ccc2cc(Cl)ccc2n1)C1CCCCC1

>  <score_type>  (33) 
oracle

>  <origin>  (33) 
autodockgpu

>  <m_score__min__energy>  (33) 
-8.3399999999999999

>  <m_primary>  (33) 
energy

>  <rmsd>  (33) 
9.722433228137916

>  <m_score__min__rmsd>  (33) 
9.722433228137916

>  <meeko>  (33) 
{"free_energy": -7.97, "intermolecular_energy": -9.47, "internal_energy": -2.06, "cluster_size": 24, "cluster_id": 2, "rank_in_cluster": 4}

>  <energy>  (33) 
-7.94

>  <cluster_rmsd>  (33) 
1.74

>  <cluster>  (33) 
2

$$$$

     RDKit          3D

 50 52  0  0  0  0  0  0  0  0999 V2000
  139.2950   67.4750  226.2550 C   0  0  0  0  0  0  0  0  0  0  0  0
  140.2480   68.3310  225.4490 C   0  0  1  0  0  0  0  0  0  0  0  0
  139.5390   68.8920  224.3140 N   0  0  0  0  0  0  0  0  0  0  0  0
  138.3540   69.6400  224.4920 C   0  0  0  0  0  0  0  0  0  0  0  0
  137.9520   69.7970  225.6800 O   0  0  0  0  0  0  0  0  0  0  0  0
  137.5510   70.2540  223.4260 C   0  0  0  0  0  0  0  0  0  0  0  0
  138.1560   71.4930  223.0150 N   0  0  0  0  0  0  0  0  0  0  0  0
  139.4430   71.5670  222.3850 C   0  0  0  0  0  0  0  0  0  0  0  0
  140.1270   70.5260  222.1430 O   0  0  0  0  0  0  0  0  0  0  0  0
  140.0010   72.8710  222.0020 C   0  0  0  0  0  0  0  0  0  0  0  0
  141.1550   72.9370  221.2530 C   0  0  0  0  0  0  0  0  0  0  0  0
  141.7350   74.1180  220.8520 C   0  0  0  0  0  0  0  0  0  0  0  0
  141.1020   75.2830  221.2380 C   0  0  0  0  0  0  0  0  0  0  0  0
  141.6880   76.4670  220.8310 C   0  0  0  0  0  0  0  0  0  0  0  0
  141.0740   77.6440  221.2030 C   0  0  0  0  0  0  0  0  0  0  0  0
  141.7490   79.2110  220.7300 Cl  0  0  0  0  0  0  0  0  0  0  0  0
  139.9270   77.6200  221.9480 C   0  0  0  0  0  0  0  0  0  0  0  0
  139.3210   76.4310  222.3680 C   0  0  0  0  0  0  0  0  0  0  0  0
  139.9450   75.2360  221.9890 C   0  0  0  0  0  0  0  0  0  0  0  0
  139.4310   74.0350  222.3470 N   0  0  0  0  0  0  0  0  0  0  0  0
  140.8970   69.3990  226.2900 C   0  0  0  0  0  0  0  0  0  0  0  0
  141.2970   70.5960  225.4970 C   0  0  0  0  0  0  0  0  0  0  0  0
  141.1030   71.9140  226.1970 C   0  0  0  0  0  0  0  0  0  0  0  0
  141.3520   71.8930  227.6650 C   0  0  0  0  0  0  0  0  0  0  0  0
  140.9750   70.6360  228.3720 C   0  0  0  0  0  0  0  0  0  0  0  0
  140.0900   69.7230  227.5300 C   0  0  0  0  0  0  0  0  0  0  0  0
  139.4750   67.6367  227.3281 H   0  0  0  0  0  0  0  0  0  0  0  0
  138.2585   67.7513  226.0114 H   0  0  0  0  0  0  0  0  0  0  0  0
  139.4588   66.4149  226.0114 H   0  0  0  0  0  0  0  0  0  0  0  0
  141.0688   67.6982  225.0805 H   0  0  0  0  0  0  0  0  0  0  0  0
  139.9410   68.7320  223.3700 H   0  0  0  0  0  0  0  0  0  0  0  0
  137.4997   69.5694  222.5665 H   0  0  0  0  0  0  0  0  0  0  0  0
  136.5364   70.4515  223.8023 H   0  0  0  0  0  0  0  0  0  0  0  0
  137.6850   72.4380  223.1540 H   0  0  0  0  0  0  0  0  0  0  0  0
  141.6392   71.9939  220.9595 H   0  0  0  0  0  0  0  0  0  0  0  0
  142.6577   74.1337  220.2533 H   0  0  0  0  0  0  0  0  0  0  0  0
  142.6107   76.4700  220.2321 H   0  0  0  0  0  0  0  0  0  0  0  0
  139.4613   78.5762  222.2288 H   0  0  0  0  0  0  0  0  0  0  0  0
  138.3985   76.4347  222.9672 H   0  0  0  0  0  0  0  0  0  0  0  0
  141.8442   68.9795  226.6600 H   0  0  0  0  0  0  0  0  0  0  0  0
  142.3629   70.4974  225.2436 H   0  0  0  0  0  0  0  0  0  0  0  0
  140.6396   70.6155  224.6152 H   0  0  0  0  0  0  0  0  0  0  0  0
  141.7907   72.6441  225.7453 H   0  0  0  0  0  0  0  0  0  0  0  0
  140.0418   72.1745  226.0703 H   0  0  0  0  0  0  0  0  0  0  0  0
  142.4270   72.0611  227.8268 H   0  0  0  0  0  0  0  0  0  0  0  0
  140.7062   72.6769  228.0874 H   0  0  0  0  0  0  0  0  0  0  0  0
  141.8942   70.0908  228.6324 H   0  0  0  0  0  0  0  0  0  0  0  0
  140.3999   70.9201  229.2656 H   0  0  0  0  0  0  0  0  0  0  0  0
  139.8517   68.8029  228.0837 H   0  0  0  0  0  0  0  0  0  0  0  0
  139.1339   70.2048  227.2775 H   0  0  0  0  0  0  0  0  0  0  0  0
  1  2  1  0
  2  3  1  0
  3  4  1  0
  4  5  2  0
  4  6  1  0
  6  7  1  0
  7  8  1  0
  8  9  2  0
  8 10  1  0
 10 11  2  0
 11 12  1  0
 12 13  2  0
 13 14  1  0
 14 15  2  0
 15 16  1  0
 15 17  1  0
 17 18  2  0
 18 19  1  0
 19 20  2  0
  2 21  1  0
 21 22  1  0
 22 23  1  0
 23 24  1  0
 24 25  1  0
 25 26  1  0
 20 10  1  0
 26 21  1  0
 19 13  1  0
  1 27  1  0
  1 28  1  0
  1 29  1  0
  2 30  1  6
  3 31  1  0
  6 32  1  0
  6 33  1  0
  7 34  1  0
 11 35  1  0
 12 36  1  0
 14 37  1  0
 17 38  1  0
 18 39  1  0
 21 40  1  0
 22 41  1  0
 22 42  1  0
 23 43  1  0
 23 44  1  0
 24 45  1  0
 24 46  1  0
 25 47  1  0
 25 48  1  0
 26 49  1  0
 26 50  1  0
M  END
>  <smiles>  (34) 
C[C@@H](NC(=O)CNC(=O)c1ccc2cc(Cl)ccc2n1)C1CCCCC1

>  <score_type>  (34) 
oracle

>  <origin>  (34) 
autodockgpu

>  <m_score__min__energy>  (34) 
-8.3399999999999999

>  <m_primary>  (34) 
energy

>  <rmsd>  (34) 
10.104762399653243

>  <m_score__min__rmsd>  (34) 
10.104762399653243

>  <meeko>  (34) 
{"free_energy": -7.55, "intermolecular_energy": -9.04, "internal_energy": -2.31, "cluster_size": 3, "cluster_id": 5, "rank_in_cluster": 2}

>  <energy>  (34) 
-7.93

>  <cluster_rmsd>  (34) 
1.71

>  <cluster>  (34) 
2

$$$$

     RDKit          3D

 50 52  0  0  0  0  0  0  0  0999 V2000
  138.4380   80.0770  221.1100 C   0  0  0  0  0  0  0  0  0  0  0  0
  138.9500   79.0550  222.1010 C   0  0  1  0  0  0  0  0  0  0  0  0
  139.3060   77.8410  221.3900 N   0  0  0  0  0  0  0  0  0  0  0  0
  139.0530   76.5680  221.9490 C   0  0  0  0  0  0  0  0  0  0  0  0
  138.5030   76.5450  223.0870 O   0  0  0  0  0  0  0  0  0  0  0  0
  139.3660   75.2740  221.3280 C   0  0  0  0  0  0  0  0  0  0  0  0
  139.4760   74.2620  222.3450 N   0  0  0  0  0  0  0  0  0  0  0  0
  139.8720   72.9110  222.0660 C   0  0  0  0  0  0  0  0  0  0  0  0
  140.1590   72.5290  220.8910 O   0  0  0  0  0  0  0  0  0  0  0  0
  139.9520   71.9290  223.1560 C   0  0  0  0  0  0  0  0  0  0  0  0
  139.5230   70.6360  222.9550 C   0  0  0  0  0  0  0  0  0  0  0  0
  139.5700   69.6590  223.9240 C   0  0  0  0  0  0  0  0  0  0  0  0
  140.0800   70.0280  225.1530 C   0  0  0  0  0  0  0  0  0  0  0  0
  140.1270   69.0430  226.1220 C   0  0  0  0  0  0  0  0  0  0  0  0
  140.6320   69.3870  227.3570 C   0  0  0  0  0  0  0  0  0  0  0  0
  140.7320   68.1940  228.6620 Cl  0  0  0  0  0  0  0  0  0  0  0  0
  141.0670   70.6610  227.5960 C   0  0  0  0  0  0  0  0  0  0  0  0
  141.0270   71.6700  226.6270 C   0  0  0  0  0  0  0  0  0  0  0  0
  140.5140   71.3200  225.3720 C   0  0  0  0  0  0  0  0  0  0  0  0
  140.4360   72.2290  224.3710 N   0  0  0  0  0  0  0  0  0  0  0  0
  140.0990   79.5860  222.9180 C   0  0  0  0  0  0  0  0  0  0  0  0
  141.1930   78.5890  223.0920 C   0  0  0  0  0  0  0  0  0  0  0  0
  142.5840   79.1620  223.0540 C   0  0  0  0  0  0  0  0  0  0  0  0
  142.7280   80.5170  223.6530 C   0  0  0  0  0  0  0  0  0  0  0  0
  141.5640   81.4330  223.4810 C   0  0  0  0  0  0  0  0  0  0  0  0
  140.5710   80.9400  222.4330 C   0  0  0  0  0  0  0  0  0  0  0  0
  138.0096   80.9321  221.6534 H   0  0  0  0  0  0  0  0  0  0  0  0
  139.2691   80.4233  220.4780 H   0  0  0  0  0  0  0  0  0  0  0  0
  137.6630   79.6187  220.4780 H   0  0  0  0  0  0  0  0  0  0  0  0
  138.1503   78.8263  222.8208 H   0  0  0  0  0  0  0  0  0  0  0  0
  139.7400   77.9440  220.4530 H   0  0  0  0  0  0  0  0  0  0  0  0
  138.5638   75.0016  220.6263 H   0  0  0  0  0  0  0  0  0  0  0  0
  140.3202   75.3512  220.7862 H   0  0  0  0  0  0  0  0  0  0  0  0
  139.2700   74.4520  223.3720 H   0  0  0  0  0  0  0  0  0  0  0  0
  139.1209   70.3692  221.9665 H   0  0  0  0  0  0  0  0  0  0  0  0
  139.2187   68.6351  223.7288 H   0  0  0  0  0  0  0  0  0  0  0  0
  139.7741   68.0220  225.9146 H   0  0  0  0  0  0  0  0  0  0  0  0
  141.4654   70.9032  228.5923 H   0  0  0  0  0  0  0  0  0  0  0  0
  141.3815   72.6891  226.8410 H   0  0  0  0  0  0  0  0  0  0  0  0
  139.7134   79.7588  223.9336 H   0  0  0  0  0  0  0  0  0  0  0  0
  141.0534   78.0947  224.0647 H   0  0  0  0  0  0  0  0  0  0  0  0
  141.1201   77.8987  222.2386 H   0  0  0  0  0  0  0  0  0  0  0  0
  143.2494   78.4765  223.5992 H   0  0  0  0  0  0  0  0  0  0  0  0
  142.8406   79.2699  221.9898 H   0  0  0  0  0  0  0  0  0  0  0  0
  142.9015   80.3916  224.7320 H   0  0  0  0  0  0  0  0  0  0  0  0
  143.5622   80.9923  223.1162 H   0  0  0  0  0  0  0  0  0  0  0  0
  141.0418   81.5219  224.4450 H   0  0  0  0  0  0  0  0  0  0  0  0
  141.9543   82.4019  223.1362 H   0  0  0  0  0  0  0  0  0  0  0  0
  139.7224   81.6353  222.3522 H   0  0  0  0  0  0  0  0  0  0  0  0
  141.0323   80.8752  221.4365 H   0  0  0  0  0  0  0  0  0  0  0  0
  1  2  1  0
  2  3  1  0
  3  4  1  0
  4  5  2  0
  4  6  1  0
  6  7  1  0
  7  8  1  0
  8  9  2  0
  8 10  1  0
 10 11  2  0
 11 12  1  0
 12 13  2  0
 13 14  1  0
 14 15  2  0
 15 16  1  0
 15 17  1  0
 17 18  2  0
 18 19  1  0
 19 20  2  0
  2 21  1  0
 21 22  1  0
 22 23  1  0
 23 24  1  0
 24 25  1  0
 25 26  1  0
 20 10  1  0
 26 21  1  0
 19 13  1  0
  1 27  1  0
  1 28  1  0
  1 29  1  0
  2 30  1  1
  3 31  1  0
  6 32  1  0
  6 33  1  0
  7 34  1  0
 11 35  1  0
 12 36  1  0
 14 37  1  0
 17 38  1  0
 18 39  1  0
 21 40  1  0
 22 41  1  0
 22 42  1  0
 23 43  1  0
 23 44  1  0
 24 45  1  0
 24 46  1  0
 25 47  1  0
 25 48  1  0
 26 49  1  0
 26 50  1  0
M  END
>  <smiles>  (35) 
C[C@@H](NC(=O)CNC(=O)c1ccc2cc(Cl)ccc2n1)C1CCCCC1

>  <score_type>  (35) 
oracle

>  <origin>  (35) 
autodockgpu

>  <m_score__min__energy>  (35) 
-8.3399999999999999

>  <m_primary>  (35) 
energy

>  <rmsd>  (35) 
4.010518119174792

>  <m_score__min__rmsd>  (35) 
4.010518119174792

>  <meeko>  (35) 
{"free_energy": -8.28, "intermolecular_energy": -9.77, "internal_energy": -1.6, "cluster_size": 17, "cluster_id": 1, "rank_in_cluster": 3}

>  <energy>  (35) 
-7.93

>  <cluster_rmsd>  (35) 
1.71

>  <cluster>  (35) 
2

$$$$

     RDKit          3D

 50 52  0  0  0  0  0  0  0  0999 V2000
  138.1260   79.8600  220.5730 C   0  0  0  0  0  0  0  0  0  0  0  0
  138.8420   78.9720  221.5670 C   0  0  1  0  0  0  0  0  0  0  0  0
  139.2140   77.7310  220.9130 N   0  0  0  0  0  0  0  0  0  0  0  0
  139.1620   76.4990  221.6040 C   0  0  0  0  0  0  0  0  0  0  0  0
  138.7760   76.5370  222.8070 O   0  0  0  0  0  0  0  0  0  0  0  0
  139.5120   75.1840  221.0520 C   0  0  0  0  0  0  0  0  0  0  0  0
  139.6060   74.2200  222.1160 N   0  0  0  0  0  0  0  0  0  0  0  0
  139.9030   72.8340  221.8940 C   0  0  0  0  0  0  0  0  0  0  0  0
  140.1110   72.3740  220.7300 O   0  0  0  0  0  0  0  0  0  0  0  0
  139.9730   71.9060  223.0320 C   0  0  0  0  0  0  0  0  0  0  0  0
  139.5410   70.6060  222.8910 C   0  0  0  0  0  0  0  0  0  0  0  0
  139.5780   69.6780  223.9060 C   0  0  0  0  0  0  0  0  0  0  0  0
  140.0810   70.1040  225.1190 C   0  0  0  0  0  0  0  0  0  0  0  0
  140.1180   69.1670  226.1350 C   0  0  0  0  0  0  0  0  0  0  0  0
  140.6170   69.5700  227.3560 C   0  0  0  0  0  0  0  0  0  0  0  0
  140.7050   68.4420  228.7180 Cl  0  0  0  0  0  0  0  0  0  0  0  0
  141.0560   70.8520  227.5350 C   0  0  0  0  0  0  0  0  0  0  0  0
  141.0260   71.8130  226.5180 C   0  0  0  0  0  0  0  0  0  0  0  0
  140.5190   71.4040  225.2780 C   0  0  0  0  0  0  0  0  0  0  0  0
  140.4510   72.2630  224.2330 N   0  0  0  0  0  0  0  0  0  0  0  0
  140.0310   79.6600  222.1860 C   0  0  0  0  0  0  0  0  0  0  0  0
  140.3380   79.1620  223.5570 C   0  0  0  0  0  0  0  0  0  0  0  0
  141.8030   79.0590  223.8800 C   0  0  0  0  0  0  0  0  0  0  0  0
  142.6610   80.1160  223.2780 C   0  0  0  0  0  0  0  0  0  0  0  0
  142.2500   80.5980  221.9280 C   0  0  0  0  0  0  0  0  0  0  0  0
  141.2270   79.6870  221.2580 C   0  0  0  0  0  0  0  0  0  0  0  0
  137.5248   80.6056  221.1140 H   0  0  0  0  0  0  0  0  0  0  0  0
  138.8655   80.3737  219.9412 H   0  0  0  0  0  0  0  0  0  0  0  0
  137.4671   79.2463  219.9412 H   0  0  0  0  0  0  0  0  0  0  0  0
  138.1586   78.7470  222.3991 H   0  0  0  0  0  0  0  0  0  0  0  0
  139.5060   77.7810  219.9190 H   0  0  0  0  0  0  0  0  0  0  0  0
  138.7353   74.8680  220.3400 H   0  0  0  0  0  0  0  0  0  0  0  0
  140.4810   75.2521  220.5359 H   0  0  0  0  0  0  0  0  0  0  0  0
  139.4610   74.4760  223.1390 H   0  0  0  0  0  0  0  0  0  0  0  0
  139.1449   70.2926  221.9138 H   0  0  0  0  0  0  0  0  0  0  0  0
  139.2241   68.6470  223.7583 H   0  0  0  0  0  0  0  0  0  0  0  0
  139.7626   68.1383  225.9754 H   0  0  0  0  0  0  0  0  0  0  0  0
  141.4498   71.1408  228.5207 H   0  0  0  0  0  0  0  0  0  0  0  0
  141.3833   72.8399  226.6844 H   0  0  0  0  0  0  0  0  0  0  0  0
  139.7491   80.7138  222.3278 H   0  0  0  0  0  0  0  0  0  0  0  0
  139.8759   79.8488  224.2814 H   0  0  0  0  0  0  0  0  0  0  0  0
  139.9377   78.1388  223.6103 H   0  0  0  0  0  0  0  0  0  0  0  0
  141.9149   79.1116  224.9730 H   0  0  0  0  0  0  0  0  0  0  0  0
  142.1443   78.1065  223.4484 H   0  0  0  0  0  0  0  0  0  0  0  0
  142.6595   80.9798  223.9591 H   0  0  0  0  0  0  0  0  0  0  0  0
  143.6500   79.6543  223.1409 H   0  0  0  0  0  0  0  0  0  0  0  0
  141.8113   81.6013  222.0322 H   0  0  0  0  0  0  0  0  0  0  0  0
  143.1486   80.6077  221.2936 H   0  0  0  0  0  0  0  0  0  0  0  0
  140.9406   80.0897  220.2752 H   0  0  0  0  0  0  0  0  0  0  0  0
  141.6317   78.6783  221.0885 H   0  0  0  0  0  0  0  0  0  0  0  0
  1  2  1  0
  2  3  1  0
  3  4  1  0
  4  5  2  0
  4  6  1  0
  6  7  1  0
  7  8  1  0
  8  9  2  0
  8 10  1  0
 10 11  2  0
 11 12  1  0
 12 13  2  0
 13 14  1  0
 14 15  2  0
 15 16  1  0
 15 17  1  0
 17 18  2  0
 18 19  1  0
 19 20  2  0
  2 21  1  0
 21 22  1  0
 22 23  1  0
 23 24  1  0
 24 25  1  0
 25 26  1  0
 20 10  1  0
 26 21  1  0
 19 13  1  0
  1 27  1  0
  1 28  1  0
  1 29  1  0
  2 30  1  1
  3 31  1  0
  6 32  1  0
  6 33  1  0
  7 34  1  0
 11 35  1  0
 12 36  1  0
 14 37  1  0
 17 38  1  0
 18 39  1  0
 21 40  1  0
 22 41  1  0
 22 42  1  0
 23 43  1  0
 23 44  1  0
 24 45  1  0
 24 46  1  0
 25 47  1  0
 25 48  1  0
 26 49  1  0
 26 50  1  0
M  END
>  <smiles>  (36) 
C[C@@H](NC(=O)CNC(=O)c1ccc2cc(Cl)ccc2n1)C1CCCCC1

>  <score_type>  (36) 
oracle

>  <origin>  (36) 
autodockgpu

>  <m_score__min__energy>  (36) 
-8.3399999999999999

>  <m_primary>  (36) 
energy

>  <rmsd>  (36) 
3.908212231281065

>  <m_score__min__rmsd>  (36) 
3.908212231281065

>  <meeko>  (36) 
{"free_energy": -8.07, "intermolecular_energy": -9.56, "internal_energy": -1.78, "cluster_size": 17, "cluster_id": 1, "rank_in_cluster": 12}

>  <energy>  (36) 
-7.93

>  <cluster_rmsd>  (36) 
1.7

>  <cluster>  (36) 
2

$$$$

     RDKit          3D

 50 52  0  0  0  0  0  0  0  0999 V2000
  142.6790   75.9440  218.3390 C   0  0  0  0  0  0  0  0  0  0  0  0
  142.8150   75.4080  219.7480 C   0  0  1  0  0  0  0  0  0  0  0  0
  141.5330   74.8880  220.1840 N   0  0  0  0  0  0  0  0  0  0  0  0
  140.5780   75.7270  220.8020 C   0  0  0  0  0  0  0  0  0  0  0  0
  140.8970   76.9410  220.9490 O   0  0  0  0  0  0  0  0  0  0  0  0
  139.2520   75.3180  221.2840 C   0  0  0  0  0  0  0  0  0  0  0  0
  139.3940   74.3040  222.2940 N   0  0  0  0  0  0  0  0  0  0  0  0
  139.7650   72.9490  221.9990 C   0  0  0  0  0  0  0  0  0  0  0  0
  140.0010   72.5660  220.8130 O   0  0  0  0  0  0  0  0  0  0  0  0
  139.8800   71.9660  223.0850 C   0  0  0  0  0  0  0  0  0  0  0  0
  139.4900   70.6610  222.8790 C   0  0  0  0  0  0  0  0  0  0  0  0
  139.5710   69.6820  223.8430 C   0  0  0  0  0  0  0  0  0  0  0  0
  140.0750   70.0610  225.0720 C   0  0  0  0  0  0  0  0  0  0  0  0
  140.1560   69.0740  226.0360 C   0  0  0  0  0  0  0  0  0  0  0  0
  140.6580   69.4280  227.2710 C   0  0  0  0  0  0  0  0  0  0  0  0
  140.8000   68.2330  228.5700 Cl  0  0  0  0  0  0  0  0  0  0  0  0
  141.0550   70.7130  227.5130 C   0  0  0  0  0  0  0  0  0  0  0  0
  140.9800   71.7240  226.5490 C   0  0  0  0  0  0  0  0  0  0  0  0
  140.4710   71.3640  225.2950 C   0  0  0  0  0  0  0  0  0  0  0  0
  140.3610   72.2750  224.2980 N   0  0  0  0  0  0  0  0  0  0  0  0
  143.9070   74.3760  219.8560 C   0  0  0  0  0  0  0  0  0  0  0  0
  143.5900   73.3000  220.8380 C   0  0  0  0  0  0  0  0  0  0  0  0
  144.0410   71.9220  220.4350 C   0  0  0  0  0  0  0  0  0  0  0  0
  145.3250   71.8700  219.6840 C   0  0  0  0  0  0  0  0  0  0  0  0
  145.5900   73.0150  218.7660 C   0  0  0  0  0  0  0  0  0  0  0  0
  144.3500   73.8630  218.5020 C   0  0  0  0  0  0  0  0  0  0  0  0
  142.4086   77.0096  218.3766 H   0  0  0  0  0  0  0  0  0  0  0  0
  143.6353   75.8269  217.8082 H   0  0  0  0  0  0  0  0  0  0  0  0
  141.8942   75.3851  217.8082 H   0  0  0  0  0  0  0  0  0  0  0  0
  143.1119   76.2310  220.4148 H   0  0  0  0  0  0  0  0  0  0  0  0
  141.3390   73.8820  220.0140 H   0  0  0  0  0  0  0  0  0  0  0  0
  138.7336   76.1892  221.7110 H   0  0  0  0  0  0  0  0  0  0  0  0
  138.6676   74.9153  220.4436 H   0  0  0  0  0  0  0  0  0  0  0  0
  139.2310   74.4950  223.3290 H   0  0  0  0  0  0  0  0  0  0  0  0
  139.0924   70.3866  221.8908 H   0  0  0  0  0  0  0  0  0  0  0  0
  139.2502   68.6487  223.6446 H   0  0  0  0  0  0  0  0  0  0  0  0
  139.8321   68.0440  225.8261 H   0  0  0  0  0  0  0  0  0  0  0  0
  141.4505   70.9631  228.5085 H   0  0  0  0  0  0  0  0  0  0  0  0
  141.3052   72.7523  226.7656 H   0  0  0  0  0  0  0  0  0  0  0  0
  144.7861   74.8877  220.2747 H   0  0  0  0  0  0  0  0  0  0  0  0
  144.0762   73.5535  221.7916 H   0  0  0  0  0  0  0  0  0  0  0  0
  142.4929   73.2580  220.9065 H   0  0  0  0  0  0  0  0  0  0  0  0
  144.1567   71.3209  221.3489 H   0  0  0  0  0  0  0  0  0  0  0  0
  143.2710   71.5368  219.7504 H   0  0  0  0  0  0  0  0  0  0  0  0
  146.1433   71.8303  220.4180 H   0  0  0  0  0  0  0  0  0  0  0  0
  145.2567   70.9814  219.0392 H   0  0  0  0  0  0  0  0  0  0  0  0
  146.3632   73.6546  219.2167 H   0  0  0  0  0  0  0  0  0  0  0  0
  145.9155   72.5969  217.8020 H   0  0  0  0  0  0  0  0  0  0  0  0
  144.5949   74.7029  217.8352 H   0  0  0  0  0  0  0  0  0  0  0  0
  143.5574   73.2801  218.0101 H   0  0  0  0  0  0  0  0  0  0  0  0
  1  2  1  0
  2  3  1  0
  3  4  1  0
  4  5  2  0
  4  6  1  0
  6  7  1  0
  7  8  1  0
  8  9  2  0
  8 10  1  0
 10 11  2  0
 11 12  1  0
 12 13  2  0
 13 14  1  0
 14 15  2  0
 15 16  1  0
 15 17  1  0
 17 18  2  0
 18 19  1  0
 19 20  2  0
  2 21  1  0
 21 22  1  0
 22 23  1  0
 23 24  1  0
 24 25  1  0
 25 26  1  0
 20 10  1  0
 26 21  1  0
 19 13  1  0
  1 27  1  0
  1 28  1  0
  1 29  1  0
  2 30  1  1
  3 31  1  0
  6 32  1  0
  6 33  1  0
  7 34  1  0
 11 35  1  0
 12 36  1  0
 14 37  1  0
 17 38  1  0
 18 39  1  0
 21 40  1  0
 22 41  1  0
 22 42  1  0
 23 43  1  0
 23 44  1  0
 24 45  1  0
 24 46  1  0
 25 47  1  0
 25 48  1  0
 26 49  1  0
 26 50  1  0
M  END
>  <smiles>  (37) 
C[C@@H](NC(=O)CNC(=O)c1ccc2cc(Cl)ccc2n1)C1CCCCC1

>  <score_type>  (37) 
oracle

>  <origin>  (37) 
autodockgpu

>  <m_score__min__energy>  (37) 
-8.3399999999999999

>  <m_primary>  (37) 
energy

>  <rmsd>  (37) 
6.359823983793155

>  <m_score__min__rmsd>  (37) 
6.359823983793155

>  <meeko>  (37) 
{"free_energy": -7.17, "intermolecular_energy": -8.66, "internal_energy": -2.17, "cluster_size": 3, "cluster_id": 4, "rank_in_cluster": 3}

>  <energy>  (37) 
-7.92

>  <cluster_rmsd>  (37) 
1.73

>  <cluster>  (37) 
2

$$$$

     RDKit          3D

 50 52  0  0  0  0  0  0  0  0999 V2000
  137.9340   68.9200  224.3450 C   0  0  0  0  0  0  0  0  0  0  0  0
  139.2710   69.6240  224.2470 C   0  0  1  0  0  0  0  0  0  0  0  0
  139.2420   70.5440  223.1260 N   0  0  0  0  0  0  0  0  0  0  0  0
  139.5770   70.1150  221.8220 C   0  0  0  0  0  0  0  0  0  0  0  0
  139.8950   68.9000  221.6860 O   0  0  0  0  0  0  0  0  0  0  0  0
  139.5840   70.9500  220.6130 C   0  0  0  0  0  0  0  0  0  0  0  0
  139.6060   72.3400  220.9840 N   0  0  0  0  0  0  0  0  0  0  0  0
  138.5150   72.9910  221.6520 C   0  0  0  0  0  0  0  0  0  0  0  0
  137.4570   72.3660  221.9660 O   0  0  0  0  0  0  0  0  0  0  0  0
  138.6070   74.4180  221.9890 C   0  0  0  0  0  0  0  0  0  0  0  0
  137.4690   75.1290  222.3000 C   0  0  0  0  0  0  0  0  0  0  0  0
  137.4730   76.4650  222.6300 C   0  0  0  0  0  0  0  0  0  0  0  0
  138.7000   77.0980  222.6420 C   0  0  0  0  0  0  0  0  0  0  0  0
  138.6990   78.4390  222.9770 C   0  0  0  0  0  0  0  0  0  0  0  0
  139.9130   79.0920  222.9960 C   0  0  0  0  0  0  0  0  0  0  0  0
  140.0140   80.8110  223.4120 Cl  0  0  0  0  0  0  0  0  0  0  0  0
  141.0650   78.4210  222.6930 C   0  0  0  0  0  0  0  0  0  0  0  0
  141.0840   77.0640  222.3520 C   0  0  0  0  0  0  0  0  0  0  0  0
  139.8510   76.4000  222.3340 C   0  0  0  0  0  0  0  0  0  0  0  0
  139.7690   75.0860  222.0170 N   0  0  0  0  0  0  0  0  0  0  0  0
  139.6410   70.3140  225.5330 C   0  0  0  0  0  0  0  0  0  0  0  0
  139.5470   69.4160  226.7190 C   0  0  0  0  0  0  0  0  0  0  0  0
  140.6190   69.6190  227.7550 C   0  0  0  0  0  0  0  0  0  0  0  0
  141.0620   71.0280  227.9400 C   0  0  0  0  0  0  0  0  0  0  0  0
  141.0730   71.8740  226.7120 C   0  0  0  0  0  0  0  0  0  0  0  0
  140.9550   71.0590  225.4280 C   0  0  0  0  0  0  0  0  0  0  0  0
  137.6696   68.7808  225.4037 H   0  0  0  0  0  0  0  0  0  0  0  0
  137.1621   69.5286  223.8513 H   0  0  0  0  0  0  0  0  0  0  0  0
  137.9990   67.9392  223.8513 H   0  0  0  0  0  0  0  0  0  0  0  0
  140.0564   68.8739  224.0725 H   0  0  0  0  0  0  0  0  0  0  0  0
  138.9540   71.5230  223.3160 H   0  0  0  0  0  0  0  0  0  0  0  0
  140.4762   70.7174  220.0131 H   0  0  0  0  0  0  0  0  0  0  0  0
  138.6786   70.7446  220.0231 H   0  0  0  0  0  0  0  0  0  0  0  0
  140.4360   72.9760  220.7840 H   0  0  0  0  0  0  0  0  0  0  0  0
  136.5046   74.6002  222.2837 H   0  0  0  0  0  0  0  0  0  0  0  0
  136.5442   77.0022  222.8723 H   0  0  0  0  0  0  0  0  0  0  0  0
  137.7642   78.9657  223.2195 H   0  0  0  0  0  0  0  0  0  0  0  0
  142.0172   78.9711  222.7183 H   0  0  0  0  0  0  0  0  0  0  0  0
  142.0224   76.5437  222.1097 H   0  0  0  0  0  0  0  0  0  0  0  0
  138.8797   71.0886  225.7071 H   0  0  0  0  0  0  0  0  0  0  0  0
  138.5718   69.5851  227.1990 H   0  0  0  0  0  0  0  0  0  0  0  0
  139.6746   68.3912  226.3403 H   0  0  0  0  0  0  0  0  0  0  0  0
  140.2346   69.2537  228.7187 H   0  0  0  0  0  0  0  0  0  0  0  0
  141.4997   69.0665  227.3957 H   0  0  0  0  0  0  0  0  0  0  0  0
  140.3870   71.5006  228.6688 H   0  0  0  0  0  0  0  0  0  0  0  0
  142.1095   70.9697  228.2706 H   0  0  0  0  0  0  0  0  0  0  0  0
  140.2270   72.5753  226.7615 H   0  0  0  0  0  0  0  0  0  0  0  0
  142.0391   72.3991  226.6818 H   0  0  0  0  0  0  0  0  0  0  0  0
  140.9498   71.7235  224.5514 H   0  0  0  0  0  0  0  0  0  0  0  0
  141.8033   70.3694  225.3062 H   0  0  0  0  0  0  0  0  0  0  0  0
  1  2  1  0
  2  3  1  0
  3  4  1  0
  4  5  2  0
  4  6  1  0
  6  7  1  0
  7  8  1  0
  8  9  2  0
  8 10  1  0
 10 11  2  0
 11 12  1  0
 12 13  2  0
 13 14  1  0
 14 15  2  0
 15 16  1  0
 15 17  1  0
 17 18  2  0
 18 19  1  0
 19 20  2  0
  2 21  1  0
 21 22  1  0
 22 23  1  0
 23 24  1  0
 24 25  1  0
 25 26  1  0
 20 10  1  0
 26 21  1  0
 19 13  1  0
  1 27  1  0
  1 28  1  0
  1 29  1  0
  2 30  1  6
  3 31  1  0
  6 32  1  0
  6 33  1  0
  7 34  1  0
 11 35  1  0
 12 36  1  0
 14 37  1  0
 17 38  1  0
 18 39  1  0
 21 40  1  0
 22 41  1  0
 22 42  1  0
 23 43  1  0
 23 44  1  0
 24 45  1  0
 24 46  1  0
 25 47  1  0
 25 48  1  0
 26 49  1  0
 26 50  1  0
M  END
>  <smiles>  (38) 
C[C@@H](NC(=O)CNC(=O)c1ccc2cc(Cl)ccc2n1)C1CCCCC1

>  <score_type>  (38) 
oracle

>  <origin>  (38) 
autodockgpu

>  <m_score__min__energy>  (38) 
-8.3399999999999999

>  <m_primary>  (38) 
energy

>  <rmsd>  (38) 
9.630448039273082

>  <m_score__min__rmsd>  (38) 
9.630448039273082

>  <meeko>  (38) 
{"free_energy": -7.12, "intermolecular_energy": -8.61, "internal_energy": -2.02, "cluster_size": 24, "cluster_id": 2, "rank_in_cluster": 24}

>  <energy>  (38) 
-7.92

>  <cluster_rmsd>  (38) 
1.73

>  <cluster>  (38) 
2

$$$$

     RDKit          3D

 50 52  0  0  0  0  0  0  0  0999 V2000
  138.8560   79.6280  220.3840 C   0  0  0  0  0  0  0  0  0  0  0  0
  139.2980   78.5790  221.3820 C   0  0  1  0  0  0  0  0  0  0  0  0
  139.2370   77.2720  220.7560 N   0  0  0  0  0  0  0  0  0  0  0  0
  139.3920   76.0910  221.5170 C   0  0  0  0  0  0  0  0  0  0  0  0
  139.5800   76.2340  222.7580 O   0  0  0  0  0  0  0  0  0  0  0  0
  139.3510   74.7180  220.9980 C   0  0  0  0  0  0  0  0  0  0  0  0
  139.5210   73.7850  222.0800 N   0  0  0  0  0  0  0  0  0  0  0  0
  139.6280   72.3670  221.8840 C   0  0  0  0  0  0  0  0  0  0  0  0
  139.5870   71.8490  220.7260 O   0  0  0  0  0  0  0  0  0  0  0  0
  139.7900   71.4760  223.0400 C   0  0  0  0  0  0  0  0  0  0  0  0
  139.4250   70.1500  222.9470 C   0  0  0  0  0  0  0  0  0  0  0  0
  139.5510   69.2530  223.9830 C   0  0  0  0  0  0  0  0  0  0  0  0
  140.0730   69.7380  225.1650 C   0  0  0  0  0  0  0  0  0  0  0  0
  140.1980   68.8320  226.2020 C   0  0  0  0  0  0  0  0  0  0  0  0
  140.7180   69.2930  227.3930 C   0  0  0  0  0  0  0  0  0  0  0  0
  140.9170   68.2080  228.7780 Cl  0  0  0  0  0  0  0  0  0  0  0  0
  141.0910   70.6020  227.5240 C   0  0  0  0  0  0  0  0  0  0  0  0
  140.9710   71.5320  226.4850 C   0  0  0  0  0  0  0  0  0  0  0  0
  140.4430   71.0630  225.2760 C   0  0  0  0  0  0  0  0  0  0  0  0
  140.2900   71.8890  224.2130 N   0  0  0  0  0  0  0  0  0  0  0  0
  140.6650   78.8730  221.9420 C   0  0  0  0  0  0  0  0  0  0  0  0
  141.3920   79.9200  221.1700 C   0  0  0  0  0  0  0  0  0  0  0  0
  142.2160   80.8640  222.0030 C   0  0  0  0  0  0  0  0  0  0  0  0
  142.8640   80.2540  223.1960 C   0  0  0  0  0  0  0  0  0  0  0  0
  142.0930   79.1740  223.8760 C   0  0  0  0  0  0  0  0  0  0  0  0
  140.6340   79.1190  223.4360 C   0  0  0  0  0  0  0  0  0  0  0  0
  138.4835   80.5121  220.9221 H   0  0  0  0  0  0  0  0  0  0  0  0
  139.7094   79.9158  219.7524 H   0  0  0  0  0  0  0  0  0  0  0  0
  138.0540   79.2183  219.7524 H   0  0  0  0  0  0  0  0  0  0  0  0
  138.6121   78.5945  222.2419 H   0  0  0  0  0  0  0  0  0  0  0  0
  139.0640   77.2370  219.7330 H   0  0  0  0  0  0  0  0  0  0  0  0
  138.3809   74.5401  220.5109 H   0  0  0  0  0  0  0  0  0  0  0  0
  140.1620   74.5804  220.2677 H   0  0  0  0  0  0  0  0  0  0  0  0
  139.5770   74.0890  223.0990 H   0  0  0  0  0  0  0  0  0  0  0  0
  139.0109   69.7896  221.9938 H   0  0  0  0  0  0  0  0  0  0  0  0
  139.2503   68.2005  223.8743 H   0  0  0  0  0  0  0  0  0  0  0  0
  139.8937   67.7818  226.0813 H   0  0  0  0  0  0  0  0  0  0  0  0
  141.5029   70.9384  228.4869 H   0  0  0  0  0  0  0  0  0  0  0  0
  141.2768   72.5810  226.6121 H   0  0  0  0  0  0  0  0  0  0  0  0
  141.2647   77.9603  221.8103 H   0  0  0  0  0  0  0  0  0  0  0  0
  142.0637   79.4160  220.4595 H   0  0  0  0  0  0  0  0  0  0  0  0
  140.6211   80.5333  220.6804 H   0  0  0  0  0  0  0  0  0  0  0  0
  143.0066   81.2819  221.3624 H   0  0  0  0  0  0  0  0  0  0  0  0
  141.5173   81.6213  222.3883 H   0  0  0  0  0  0  0  0  0  0  0  0
  143.8273   79.8300  222.8762 H   0  0  0  0  0  0  0  0  0  0  0  0
  142.9529   81.0653  223.9335 H   0  0  0  0  0  0  0  0  0  0  0  0
  142.5655   78.2076  223.6463 H   0  0  0  0  0  0  0  0  0  0  0  0
  142.1045   79.3893  224.9547 H   0  0  0  0  0  0  0  0  0  0  0  0
  140.1095   78.2993  223.9488 H   0  0  0  0  0  0  0  0  0  0  0  0
  140.1003   80.0485  223.6832 H   0  0  0  0  0  0  0  0  0  0  0  0
  1  2  1  0
  2  3  1  0
  3  4  1  0
  4  5  2  0
  4  6  1  0
  6  7  1  0
  7  8  1  0
  8  9  2  0
  8 10  1  0
 10 11  2  0
 11 12  1  0
 12 13  2  0
 13 14  1  0
 14 15  2  0
 15 16  1  0
 15 17  1  0
 17 18  2  0
 18 19  1  0
 19 20  2  0
  2 21  1  0
 21 22  1  0
 22 23  1  0
 23 24  1  0
 24 25  1  0
 25 26  1  0
 20 10  1  0
 26 21  1  0
 19 13  1  0
  1 27  1  0
  1 28  1  0
  1 29  1  0
  2 30  1  1
  3 31  1  0
  6 32  1  0
  6 33  1  0
  7 34  1  0
 11 35  1  0
 12 36  1  0
 14 37  1  0
 17 38  1  0
 18 39  1  0
 21 40  1  0
 22 41  1  0
 22 42  1  0
 23 43  1  0
 23 44  1  0
 24 45  1  0
 24 46  1  0
 25 47  1  0
 25 48  1  0
 26 49  1  0
 26 50  1  0
M  END
>  <smiles>  (39) 
C[C@@H](NC(=O)CNC(=O)c1ccc2cc(Cl)ccc2n1)C1CCCCC1

>  <score_type>  (39) 
oracle

>  <origin>  (39) 
autodockgpu

>  <m_score__min__energy>  (39) 
-8.3399999999999999

>  <m_primary>  (39) 
energy

>  <rmsd>  (39) 
4.126140408440345

>  <m_score__min__rmsd>  (39) 
4.126140408440345

>  <meeko>  (39) 
{"free_energy": -8.16, "intermolecular_energy": -9.65, "internal_energy": -1.77, "cluster_size": 17, "cluster_id": 1, "rank_in_cluster": 9}

>  <energy>  (39) 
-7.91

>  <cluster_rmsd>  (39) 
1.88

>  <cluster>  (39) 
2

$$$$

     RDKit          3D

 50 52  0  0  0  0  0  0  0  0999 V2000
  139.1880   68.1320  225.3310 C   0  0  0  0  0  0  0  0  0  0  0  0
  139.5140   69.5590  224.9460 C   0  0  1  0  0  0  0  0  0  0  0  0
  138.3990   70.1170  224.2060 N   0  0  0  0  0  0  0  0  0  0  0  0
  138.5780   71.2180  223.3380 C   0  0  0  0  0  0  0  0  0  0  0  0
  139.7500   71.6820  223.2410 O   0  0  0  0  0  0  0  0  0  0  0  0
  137.5300   71.8680  222.5390 C   0  0  0  0  0  0  0  0  0  0  0  0
  136.6350   72.5870  223.4050 N   0  0  0  0  0  0  0  0  0  0  0  0
  135.6670   71.9400  224.2450 C   0  0  0  0  0  0  0  0  0  0  0  0
  135.5510   70.6770  224.2770 O   0  0  0  0  0  0  0  0  0  0  0  0
  134.7790   72.7430  225.0960 C   0  0  0  0  0  0  0  0  0  0  0  0
  133.8440   72.1250  225.8970 C   0  0  0  0  0  0  0  0  0  0  0  0
  132.9810   72.8070  226.7240 C   0  0  0  0  0  0  0  0  0  0  0  0
  133.0820   74.1830  226.7280 C   0  0  0  0  0  0  0  0  0  0  0  0
  132.2150   74.8640  227.5620 C   0  0  0  0  0  0  0  0  0  0  0  0
  132.2980   76.2390  227.5840 C   0  0  0  0  0  0  0  0  0  0  0  0
  131.2280   77.1980  228.6190 Cl  0  0  0  0  0  0  0  0  0  0  0  0
  133.2120   76.8900  226.8020 C   0  0  0  0  0  0  0  0  0  0  0  0
  134.0980   76.2170  225.9530 C   0  0  0  0  0  0  0  0  0  0  0  0
  134.0130   74.8200  225.9320 C   0  0  0  0  0  0  0  0  0  0  0  0
  134.8300   74.0820  225.1420 N   0  0  0  0  0  0  0  0  0  0  0  0
  139.8720   70.3990  226.1440 C   0  0  0  0  0  0  0  0  0  0  0  0
  139.9730   69.6020  227.4000 C   0  0  0  0  0  0  0  0  0  0  0  0
  141.0730   70.0280  228.3340 C   0  0  0  0  0  0  0  0  0  0  0  0
  141.3380   71.4920  228.3750 C   0  0  0  0  0  0  0  0  0  0  0  0
  141.1600   72.2220  227.0880 C   0  0  0  0  0  0  0  0  0  0  0  0
  141.0680   71.2910  225.8840 C   0  0  0  0  0  0  0  0  0  0  0  0
  139.1678   68.0435  226.4272 H   0  0  0  0  0  0  0  0  0  0  0  0
  138.2041   67.8577  224.9228 H   0  0  0  0  0  0  0  0  0  0  0  0
  139.9552   67.4577  224.9228 H   0  0  0  0  0  0  0  0  0  0  0  0
  140.4058   69.5594  224.3020 H   0  0  0  0  0  0  0  0  0  0  0  0
  137.4700   69.6710  224.3270 H   0  0  0  0  0  0  0  0  0  0  0  0
  137.9935   72.5689  221.8291 H   0  0  0  0  0  0  0  0  0  0  0  0
  136.9654   71.1020  221.9871 H   0  0  0  0  0  0  0  0  0  0  0  0
  136.6330   73.6490  223.4780 H   0  0  0  0  0  0  0  0  0  0  0  0
  133.7840   71.0269  225.8743 H   0  0  0  0  0  0  0  0  0  0  0  0
  132.2465   72.2807  227.3513 H   0  0  0  0  0  0  0  0  0  0  0  0
  131.4850   74.3273  228.1857 H   0  0  0  0  0  0  0  0  0  0  0  0
  133.2524   77.9885  226.8421 H   0  0  0  0  0  0  0  0  0  0  0  0
  134.8260   76.7597  225.3322 H   0  0  0  0  0  0  0  0  0  0  0  0
  139.0282   71.0841  226.3136 H   0  0  0  0  0  0  0  0  0  0  0  0
  139.0167   69.6876  227.9368 H   0  0  0  0  0  0  0  0  0  0  0  0
  140.2099   68.5724  227.0937 H   0  0  0  0  0  0  0  0  0  0  0  0
  140.8024   69.7026  229.3493 H   0  0  0  0  0  0  0  0  0  0  0  0
  141.9939   69.5616  227.9539 H   0  0  0  0  0  0  0  0  0  0  0  0
  140.6544   71.9377  229.1126 H   0  0  0  0  0  0  0  0  0  0  0  0
  142.4029   71.5947  228.6306 H   0  0  0  0  0  0  0  0  0  0  0  0
  140.2344   72.8136  227.1454 H   0  0  0  0  0  0  0  0  0  0  0  0
  142.0455   72.8588  226.9452 H   0  0  0  0  0  0  0  0  0  0  0  0
  140.9199   71.8713  224.9613 H   0  0  0  0  0  0  0  0  0  0  0  0
  141.9898   70.7051  225.7533 H   0  0  0  0  0  0  0  0  0  0  0  0
  1  2  1  0
  2  3  1  0
  3  4  1  0
  4  5  2  0
  4  6  1  0
  6  7  1  0
  7  8  1  0
  8  9  2  0
  8 10  1  0
 10 11  2  0
 11 12  1  0
 12 13  2  0
 13 14  1  0
 14 15  2  0
 15 16  1  0
 15 17  1  0
 17 18  2  0
 18 19  1  0
 19 20  2  0
  2 21  1  0
 21 22  1  0
 22 23  1  0
 23 24  1  0
 24 25  1  0
 25 26  1  0
 20 10  1  0
 26 21  1  0
 19 13  1  0
  1 27  1  0
  1 28  1  0
  1 29  1  0
  2 30  1  6
  3 31  1  0
  6 32  1  0
  6 33  1  0
  7 34  1  0
 11 35  1  0
 12 36  1  0
 14 37  1  0
 17 38  1  0
 18 39  1  0
 21 40  1  0
 22 41  1  0
 22 42  1  0
 23 43  1  0
 23 44  1  0
 24 45  1  0
 24 46  1  0
 25 47  1  0
 25 48  1  0
 26 49  1  0
 26 50  1  0
M  END
>  <smiles>  (40) 
C[C@@H](NC(=O)CNC(=O)c1ccc2cc(Cl)ccc2n1)C1CCCCC1

>  <score_type>  (40) 
oracle

>  <origin>  (40) 
autodockgpu

>  <m_score__min__energy>  (40) 
-8.3399999999999999

>  <m_primary>  (40) 
energy

>  <rmsd>  (40) 
10.02723654038928

>  <m_score__min__rmsd>  (40) 
10.02723654038928

>  <meeko>  (40) 
{"free_energy": -7.75, "intermolecular_energy": -9.24, "internal_energy": -2.09, "cluster_size": 3, "cluster_id": 3, "rank_in_cluster": 2}

>  <energy>  (40) 
-7.9

>  <cluster_rmsd>  (40) 
1.73

>  <cluster>  (40) 
2

$$$$

     RDKit          3D

 50 52  0  0  0  0  0  0  0  0999 V2000
  139.1280   68.4740  224.6620 C   0  0  0  0  0  0  0  0  0  0  0  0
  139.9710   69.7230  224.5250 C   0  0  1  0  0  0  0  0  0  0  0  0
  139.4300   70.5480  223.4610 N   0  0  0  0  0  0  0  0  0  0  0  0
  138.0790   70.9620  223.4740 C   0  0  0  0  0  0  0  0  0  0  0  0
  137.3780   70.5840  224.4550 O   0  0  0  0  0  0  0  0  0  0  0  0
  137.4200   71.7940  222.4580 C   0  0  0  0  0  0  0  0  0  0  0  0
  138.0860   73.0660  222.3660 N   0  0  0  0  0  0  0  0  0  0  0  0
  139.3540   73.2420  221.7180 C   0  0  0  0  0  0  0  0  0  0  0  0
  139.9660   72.2730  221.1750 O   0  0  0  0  0  0  0  0  0  0  0  0
  139.9770   74.5720  221.6720 C   0  0  0  0  0  0  0  0  0  0  0  0
  141.1130   74.7780  220.9200 C   0  0  0  0  0  0  0  0  0  0  0  0
  141.7510   75.9930  220.8230 C   0  0  0  0  0  0  0  0  0  0  0  0
  141.1980   77.0430  221.5300 C   0  0  0  0  0  0  0  0  0  0  0  0
  141.8420   78.2620  221.4280 C   0  0  0  0  0  0  0  0  0  0  0  0
  141.3080   79.3250  222.1240 C   0  0  0  0  0  0  0  0  0  0  0  0
  142.0620   80.9260  222.0560 Cl  0  0  0  0  0  0  0  0  0  0  0  0
  140.1820   79.1610  222.8830 C   0  0  0  0  0  0  0  0  0  0  0  0
  139.5180   77.9340  222.9970 C   0  0  0  0  0  0  0  0  0  0  0  0
  140.0610   76.8540  222.2890 C   0  0  0  0  0  0  0  0  0  0  0  0
  139.4870   75.6280  222.3370 N   0  0  0  0  0  0  0  0  0  0  0  0
  140.0770   70.4780  225.8240 C   0  0  0  0  0  0  0  0  0  0  0  0
  139.9720   69.5920  227.0180 C   0  0  0  0  0  0  0  0  0  0  0  0
  140.8680   69.9680  228.1660 C   0  0  0  0  0  0  0  0  0  0  0  0
  141.0730   71.4300  228.3580 C   0  0  0  0  0  0  0  0  0  0  0  0
  141.1080   72.2510  227.1140 C   0  0  0  0  0  0  0  0  0  0  0  0
  141.2690   71.4110  225.8520 C   0  0  0  0  0  0  0  0  0  0  0  0
  138.9763   68.2492  225.7280 H   0  0  0  0  0  0  0  0  0  0  0  0
  138.1530   68.6349  224.1788 H   0  0  0  0  0  0  0  0  0  0  0  0
  139.6419   67.6300  224.1788 H   0  0  0  0  0  0  0  0  0  0  0  0
  140.9985   69.4309  224.2624 H   0  0  0  0  0  0  0  0  0  0  0  0
  140.0750   70.8300  222.6980 H   0  0  0  0  0  0  0  0  0  0  0  0
  137.4660   71.2859  221.4834 H   0  0  0  0  0  0  0  0  0  0  0  0
  136.3694   71.9528  222.7428 H   0  0  0  0  0  0  0  0  0  0  0  0
  137.6770   73.9600  222.7740 H   0  0  0  0  0  0  0  0  0  0  0  0
  141.5326   73.9246  220.3671 H   0  0  0  0  0  0  0  0  0  0  0  0
  142.6569   76.1220  220.2125 H   0  0  0  0  0  0  0  0  0  0  0  0
  142.7472   78.3792  220.8140 H   0  0  0  0  0  0  0  0  0  0  0  0
  139.7816   80.0295  223.4265 H   0  0  0  0  0  0  0  0  0  0  0  0
  138.6134   77.8231  223.6129 H   0  0  0  0  0  0  0  0  0  0  0  0
  139.1947   71.1323  225.8825 H   0  0  0  0  0  0  0  0  0  0  0  0
  138.9314   69.6194  227.3735 H   0  0  0  0  0  0  0  0  0  0  0  0
  140.2937   68.5926  226.6899 H   0  0  0  0  0  0  0  0  0  0  0  0
  140.4274   69.5622  229.0886 H   0  0  0  0  0  0  0  0  0  0  0  0
  141.8576   69.5495  227.9304 H   0  0  0  0  0  0  0  0  0  0  0  0
  140.2525   71.8058  228.9869 H   0  0  0  0  0  0  0  0  0  0  0  0
  142.0696   71.5340  228.8117 H   0  0  0  0  0  0  0  0  0  0  0  0
  140.1678   72.8173  227.0409 H   0  0  0  0  0  0  0  0  0  0  0  0
  141.9823   72.9151  227.1818 H   0  0  0  0  0  0  0  0  0  0  0  0
  141.2723   72.0554  224.9605 H   0  0  0  0  0  0  0  0  0  0  0  0
  142.2185   70.8556  225.8532 H   0  0  0  0  0  0  0  0  0  0  0  0
  1  2  1  0
  2  3  1  0
  3  4  1  0
  4  5  2  0
  4  6  1  0
  6  7  1  0
  7  8  1  0
  8  9  2  0
  8 10  1  0
 10 11  2  0
 11 12  1  0
 12 13  2  0
 13 14  1  0
 14 15  2  0
 15 16  1  0
 15 17  1  0
 17 18  2  0
 18 19  1  0
 19 20  2  0
  2 21  1  0
 21 22  1  0
 22 23  1  0
 23 24  1  0
 24 25  1  0
 25 26  1  0
 20 10  1  0
 26 21  1  0
 19 13  1  0
  1 27  1  0
  1 28  1  0
  1 29  1  0
  2 30  1  6
  3 31  1  0
  6 32  1  0
  6 33  1  0
  7 34  1  0
 11 35  1  0
 12 36  1  0
 14 37  1  0
 17 38  1  0
 18 39  1  0
 21 40  1  0
 22 41  1  0
 22 42  1  0
 23 43  1  0
 23 44  1  0
 24 45  1  0
 24 46  1  0
 25 47  1  0
 25 48  1  0
 26 49  1  0
 26 50  1  0
M  END
>  <smiles>  (41) 
C[C@@H](NC(=O)CNC(=O)c1ccc2cc(Cl)ccc2n1)C1CCCCC1

>  <score_type>  (41) 
oracle

>  <origin>  (41) 
autodockgpu

>  <m_score__min__energy>  (41) 
-8.3399999999999999

>  <m_primary>  (41) 
energy

>  <rmsd>  (41) 
9.714913973511546

>  <m_score__min__rmsd>  (41) 
9.714913973511546

>  <meeko>  (41) 
{"free_energy": -7.93, "intermolecular_energy": -9.42, "internal_energy": -2.03, "cluster_size": 24, "cluster_id": 2, "rank_in_cluster": 17}

>  <energy>  (41) 
-7.12

>  <cluster_rmsd>  (41) 
1.57

>  <cluster>  (41) 
2

$$$$

     RDKit          3D

 50 52  0  0  0  0  0  0  0  0999 V2000
  139.0820   68.3970  224.7430 C   0  0  0  0  0  0  0  0  0  0  0  0
  139.9350   69.6340  224.5550 C   0  0  1  0  0  0  0  0  0  0  0  0
  139.4080   70.4100  223.4480 N   0  0  0  0  0  0  0  0  0  0  0  0
  138.0990   70.9410  223.4870 C   0  0  0  0  0  0  0  0  0  0  0  0
  137.4210   70.7090  224.5290 O   0  0  0  0  0  0  0  0  0  0  0  0
  137.4580   71.7380  222.4330 C   0  0  0  0  0  0  0  0  0  0  0  0
  138.1000   73.0220  222.3370 N   0  0  0  0  0  0  0  0  0  0  0  0
  139.3920   73.2100  221.7410 C   0  0  0  0  0  0  0  0  0  0  0  0
  140.0470   72.2400  221.2490 O   0  0  0  0  0  0  0  0  0  0  0  0
  139.9890   74.5510  221.6880 C   0  0  0  0  0  0  0  0  0  0  0  0
  141.1200   74.7750  220.9350 C   0  0  0  0  0  0  0  0  0  0  0  0
  141.7340   76.0020  220.8320 C   0  0  0  0  0  0  0  0  0  0  0  0
  141.1610   77.0440  221.5330 C   0  0  0  0  0  0  0  0  0  0  0  0
  141.7810   78.2760  221.4240 C   0  0  0  0  0  0  0  0  0  0  0  0
  141.2260   79.3320  222.1150 C   0  0  0  0  0  0  0  0  0  0  0  0
  141.9480   80.9470  222.0380 Cl  0  0  0  0  0  0  0  0  0  0  0  0
  140.1030   79.1500  222.8730 C   0  0  0  0  0  0  0  0  0  0  0  0
  139.4640   77.9100  222.9940 C   0  0  0  0  0  0  0  0  0  0  0  0
  140.0270   76.8380  222.2920 C   0  0  0  0  0  0  0  0  0  0  0  0
  139.4780   75.6010  222.3470 N   0  0  0  0  0  0  0  0  0  0  0  0
  140.0330   70.4490  225.8170 C   0  0  0  0  0  0  0  0  0  0  0  0
  139.8470   69.6300  227.0490 C   0  0  0  0  0  0  0  0  0  0  0  0
  140.7220   70.0230  228.2090 C   0  0  0  0  0  0  0  0  0  0  0  0
  140.9890   71.4820  228.3350 C   0  0  0  0  0  0  0  0  0  0  0  0
  141.1050   72.2360  227.0540 C   0  0  0  0  0  0  0  0  0  0  0  0
  141.2670   71.3260  225.8420 C   0  0  0  0  0  0  0  0  0  0  0  0
  138.9486   68.2035  225.8176 H   0  0  0  0  0  0  0  0  0  0  0  0
  138.0995   68.5543  224.2740 H   0  0  0  0  0  0  0  0  0  0  0  0
  139.5783   67.5346  224.2740 H   0  0  0  0  0  0  0  0  0  0  0  0
  140.9633   69.3245  224.3168 H   0  0  0  0  0  0  0  0  0  0  0  0
  140.0320   70.5700  222.6340 H   0  0  0  0  0  0  0  0  0  0  0  0
  137.5475   71.2117  221.4712 H   0  0  0  0  0  0  0  0  0  0  0  0
  136.3953   71.8798  222.6792 H   0  0  0  0  0  0  0  0  0  0  0  0
  137.6560   73.9170  222.7040 H   0  0  0  0  0  0  0  0  0  0  0  0
  141.5561   73.9272  220.3862 H   0  0  0  0  0  0  0  0  0  0  0  0
  142.6373   76.1456  220.2209 H   0  0  0  0  0  0  0  0  0  0  0  0
  142.6833   78.4081  220.8088 H   0  0  0  0  0  0  0  0  0  0  0  0
  139.6839   80.0136  223.4102 H   0  0  0  0  0  0  0  0  0  0  0  0
  138.5624   77.7843  223.6115 H   0  0  0  0  0  0  0  0  0  0  0  0
  139.1816   71.1455  225.8109 H   0  0  0  0  0  0  0  0  0  0  0  0
  138.7977   69.7225  227.3657 H   0  0  0  0  0  0  0  0  0  0  0  0
  140.1320   68.6017  226.7819 H   0  0  0  0  0  0  0  0  0  0  0  0
  140.2324   69.6854  229.1344 H   0  0  0  0  0  0  0  0  0  0  0  0
  141.6980   69.5482  228.0301 H   0  0  0  0  0  0  0  0  0  0  0  0
  140.1662   71.9264  228.9143 H   0  0  0  0  0  0  0  0  0  0  0  0
  141.9736   71.5637  228.8186 H   0  0  0  0  0  0  0  0  0  0  0  0
  140.1963   72.8411  226.9195 H   0  0  0  0  0  0  0  0  0  0  0  0
  142.0075   72.8614  227.1199 H   0  0  0  0  0  0  0  0  0  0  0  0
  141.3313   71.9232  224.9204 H   0  0  0  0  0  0  0  0  0  0  0  0
  142.1878   70.7276  225.9051 H   0  0  0  0  0  0  0  0  0  0  0  0
  1  2  1  0
  2  3  1  0
  3  4  1  0
  4  5  2  0
  4  6  1  0
  6  7  1  0
  7  8  1  0
  8  9  2  0
  8 10  1  0
 10 11  2  0
 11 12  1  0
 12 13  2  0
 13 14  1  0
 14 15  2  0
 15 16  1  0
 15 17  1  0
 17 18  2  0
 18 19  1  0
 19 20  2  0
  2 21  1  0
 21 22  1  0
 22 23  1  0
 23 24  1  0
 24 25  1  0
 25 26  1  0
 20 10  1  0
 26 21  1  0
 19 13  1  0
  1 27  1  0
  1 28  1  0
  1 29  1  0
  2 30  1  6
  3 31  1  0
  6 32  1  0
  6 33  1  0
  7 34  1  0
 11 35  1  0
 12 36  1  0
 14 37  1  0
 17 38  1  0
 18 39  1  0
 21 40  1  0
 22 41  1  0
 22 42  1  0
 23 43  1  0
 23 44  1  0
 24 45  1  0
 24 46  1  0
 25 47  1  0
 25 48  1  0
 26 49  1  0
 26 50  1  0
M  END
>  <smiles>  (42) 
C[C@@H](NC(=O)CNC(=O)c1ccc2cc(Cl)ccc2n1)C1CCCCC1

>  <score_type>  (42) 
oracle

>  <origin>  (42) 
autodockgpu

>  <m_score__min__energy>  (42) 
-8.3399999999999999

>  <m_primary>  (42) 
energy

>  <rmsd>  (42) 
9.728418553444577

>  <m_score__min__rmsd>  (42) 
9.728418553444577

>  <meeko>  (42) 
{"free_energy": -7.96, "intermolecular_energy": -9.45, "internal_energy": -2.06, "cluster_size": 24, "cluster_id": 2, "rank_in_cluster": 10}

>  <energy>  (42) 
-7.96

>  <cluster_rmsd>  (42) 
0.0

>  <cluster>  (42) 
3

$$$$

     RDKit          3D

 50 52  0  0  0  0  0  0  0  0999 V2000
  142.2400   77.0120  220.0480 C   0  0  0  0  0  0  0  0  0  0  0  0
  140.8930   77.5980  220.4130 C   0  0  1  0  0  0  0  0  0  0  0  0
  139.8840   76.5600  220.3240 N   0  0  0  0  0  0  0  0  0  0  0  0
  139.9050   75.4450  221.1920 C   0  0  0  0  0  0  0  0  0  0  0  0
  140.8390   75.4040  222.0430 O   0  0  0  0  0  0  0  0  0  0  0  0
  138.9430   74.3350  221.1970 C   0  0  0  0  0  0  0  0  0  0  0  0
  139.2390   73.4410  222.2840 N   0  0  0  0  0  0  0  0  0  0  0  0
  138.9260   72.0410  222.2550 C   0  0  0  0  0  0  0  0  0  0  0  0
  138.3680   71.5030  221.2510 O   0  0  0  0  0  0  0  0  0  0  0  0
  139.2500   71.1910  223.4090 C   0  0  0  0  0  0  0  0  0  0  0  0
  138.9320   69.8510  223.3930 C   0  0  0  0  0  0  0  0  0  0  0  0
  139.2070   68.9910  224.4310 C   0  0  0  0  0  0  0  0  0  0  0  0
  139.8370   69.5310  225.5340 C   0  0  0  0  0  0  0  0  0  0  0  0
  140.1130   68.6620  226.5740 C   0  0  0  0  0  0  0  0  0  0  0  0
  140.7430   69.1790  227.6860 C   0  0  0  0  0  0  0  0  0  0  0  0
  141.1380   68.1450  229.0680 Cl  0  0  0  0  0  0  0  0  0  0  0  0
  141.0760   70.5040  227.7410 C   0  0  0  0  0  0  0  0  0  0  0  0
  140.8040   71.3970  226.6980 C   0  0  0  0  0  0  0  0  0  0  0  0
  140.1640   70.8720  225.5680 C   0  0  0  0  0  0  0  0  0  0  0  0
  139.8610   71.6590  224.5080 N   0  0  0  0  0  0  0  0  0  0  0  0
  140.9100   78.2510  221.7700 C   0  0  0  0  0  0  0  0  0  0  0  0
  142.1420   79.0560  222.0080 C   0  0  0  0  0  0  0  0  0  0  0  0
  141.9260   80.3330  222.7750 C   0  0  0  0  0  0  0  0  0  0  0  0
  140.8810   80.2670  223.8330 C   0  0  0  0  0  0  0  0  0  0  0  0
  139.7090   79.3940  223.5380 C   0  0  0  0  0  0  0  0  0  0  0  0
  139.6240   78.9910  222.0690 C   0  0  0  0  0  0  0  0  0  0  0  0
  142.7956   76.7703  220.9661 H   0  0  0  0  0  0  0  0  0  0  0  0
  142.0934   76.0963  219.4563 H   0  0  0  0  0  0  0  0  0  0  0  0
  142.8099   77.7435  219.4563 H   0  0  0  0  0  0  0  0  0  0  0  0
  140.6476   78.3973  219.6982 H   0  0  0  0  0  0  0  0  0  0  0  0
  139.1400   76.6740  219.6080 H   0  0  0  0  0  0  0  0  0  0  0  0
  137.9252   74.7340  221.3187 H   0  0  0  0  0  0  0  0  0  0  0  0
  139.0142   73.7874  220.2457 H   0  0  0  0  0  0  0  0  0  0  0  0
  139.7120   73.7630  223.1820 H   0  0  0  0  0  0  0  0  0  0  0  0
  138.4307   69.4463  222.5014 H   0  0  0  0  0  0  0  0  0  0  0  0
  138.9380   67.9254  224.3842 H   0  0  0  0  0  0  0  0  0  0  0  0
  139.8400   67.5980  226.5161 H   0  0  0  0  0  0  0  0  0  0  0  0
  141.5787   70.8841  228.6426 H   0  0  0  0  0  0  0  0  0  0  0  0
  141.0796   72.4600  226.7626 H   0  0  0  0  0  0  0  0  0  0  0  0
  140.9571   77.4396  222.5113 H   0  0  0  0  0  0  0  0  0  0  0  0
  142.8527   78.4344  222.5724 H   0  0  0  0  0  0  0  0  0  0  0  0
  142.5143   79.3511  221.0159 H   0  0  0  0  0  0  0  0  0  0  0  0
  142.8777   80.6081  223.2532 H   0  0  0  0  0  0  0  0  0  0  0  0
  141.5727   81.0735  222.0423 H   0  0  0  0  0  0  0  0  0  0  0  0
  141.3557   79.8943  224.7526 H   0  0  0  0  0  0  0  0  0  0  0  0
  140.4782   81.2871  223.9172 H   0  0  0  0  0  0  0  0  0  0  0  0
  139.7881   78.4821  224.1481 H   0  0  0  0  0  0  0  0  0  0  0  0
  138.8014   79.9682  223.7759 H   0  0  0  0  0  0  0  0  0  0  0  0
  138.7568   78.3354  221.9011 H   0  0  0  0  0  0  0  0  0  0  0  0
  139.4991   79.8668  221.4152 H   0  0  0  0  0  0  0  0  0  0  0  0
  1  2  1  0
  2  3  1  0
  3  4  1  0
  4  5  2  0
  4  6  1  0
  6  7  1  0
  7  8  1  0
  8  9  2  0
  8 10  1  0
 10 11  2  0
 11 12  1  0
 12 13  2  0
 13 14  1  0
 14 15  2  0
 15 16  1  0
 15 17  1  0
 17 18  2  0
 18 19  1  0
 19 20  2  0
  2 21  1  0
 21 22  1  0
 22 23  1  0
 23 24  1  0
 24 25  1  0
 25 26  1  0
 20 10  1  0
 26 21  1  0
 19 13  1  0
  1 27  1  0
  1 28  1  0
  1 29  1  0
  2 30  1  6
  3 31  1  0
  6 32  1  0
  6 33  1  0
  7 34  1  0
 11 35  1  0
 12 36  1  0
 14 37  1  0
 17 38  1  0
 18 39  1  0
 21 40  1  0
 22 41  1  0
 22 42  1  0
 23 43  1  0
 23 44  1  0
 24 45  1  0
 24 46  1  0
 25 47  1  0
 25 48  1  0
 26 49  1  0
 26 50  1  0
M  END
>  <smiles>  (43) 
C[C@@H](NC(=O)CNC(=O)c1ccc2cc(Cl)ccc2n1)C1CCCCC1

>  <score_type>  (43) 
oracle

>  <origin>  (43) 
autodockgpu

>  <m_score__min__energy>  (43) 
-8.3399999999999999

>  <m_primary>  (43) 
energy

>  <rmsd>  (43) 
4.141963294154097

>  <m_score__min__rmsd>  (43) 
4.141963294154097

>  <meeko>  (43) 
{"free_energy": -8.12, "intermolecular_energy": -9.61, "internal_energy": -1.71, "cluster_size": 17, "cluster_id": 1, "rank_in_cluster": 10}

>  <energy>  (43) 
-7.75

>  <cluster_rmsd>  (43) 
1.8

>  <cluster>  (43) 
3

$$$$

     RDKit          3D

 50 52  0  0  0  0  0  0  0  0999 V2000
  139.1240   68.4260  224.6390 C   0  0  0  0  0  0  0  0  0  0  0  0
  139.9570   69.6810  224.4880 C   0  0  1  0  0  0  0  0  0  0  0  0
  139.4050   70.4920  223.4190 N   0  0  0  0  0  0  0  0  0  0  0  0
  138.0660   70.9420  223.4620 C   0  0  0  0  0  0  0  0  0  0  0  0
  137.3850   70.6050  224.4720 O   0  0  0  0  0  0  0  0  0  0  0  0
  137.3980   71.7640  222.4450 C   0  0  0  0  0  0  0  0  0  0  0  0
  138.0620   73.0370  222.3370 N   0  0  0  0  0  0  0  0  0  0  0  0
  139.3380   73.2040  221.7030 C   0  0  0  0  0  0  0  0  0  0  0  0
  139.9590   72.2260  221.1860 O   0  0  0  0  0  0  0  0  0  0  0  0
  139.9580   74.5340  221.6400 C   0  0  0  0  0  0  0  0  0  0  0  0
  141.1030   74.7290  220.8990 C   0  0  0  0  0  0  0  0  0  0  0  0
  141.7390   75.9450  220.7880 C   0  0  0  0  0  0  0  0  0  0  0  0
  141.1750   77.0060  221.4670 C   0  0  0  0  0  0  0  0  0  0  0  0
  141.8160   78.2250  221.3500 C   0  0  0  0  0  0  0  0  0  0  0  0
  141.2700   79.2990  222.0190 C   0  0  0  0  0  0  0  0  0  0  0  0
  142.0210   80.9010  221.9310 Cl  0  0  0  0  0  0  0  0  0  0  0  0
  140.1350   79.1460  222.7650 C   0  0  0  0  0  0  0  0  0  0  0  0
  139.4730   77.9200  222.8940 C   0  0  0  0  0  0  0  0  0  0  0  0
  140.0270   76.8280  222.2140 C   0  0  0  0  0  0  0  0  0  0  0  0
  139.4560   75.6020  222.2780 N   0  0  0  0  0  0  0  0  0  0  0  0
  140.0630   70.4470  225.7800 C   0  0  0  0  0  0  0  0  0  0  0  0
  140.0150   69.5650  226.9800 C   0  0  0  0  0  0  0  0  0  0  0  0
  140.9220   69.9800  228.1080 C   0  0  0  0  0  0  0  0  0  0  0  0
  141.0780   71.4490  228.2870 C   0  0  0  0  0  0  0  0  0  0  0  0
  141.0590   72.2630  227.0380 C   0  0  0  0  0  0  0  0  0  0  0  0
  141.2220   71.4210  225.7780 C   0  0  0  0  0  0  0  0  0  0  0  0
  138.9794   68.2082  225.7075 H   0  0  0  0  0  0  0  0  0  0  0  0
  138.1453   68.5756  224.1596 H   0  0  0  0  0  0  0  0  0  0  0  0
  139.6419   67.5822  224.1596 H   0  0  0  0  0  0  0  0  0  0  0  0
  140.9859   69.3956  224.2237 H   0  0  0  0  0  0  0  0  0  0  0  0
  140.0340   70.7400  222.6310 H   0  0  0  0  0  0  0  0  0  0  0  0
  137.4368   71.2479  221.4744 H   0  0  0  0  0  0  0  0  0  0  0  0
  136.3495   71.9237  222.7368 H   0  0  0  0  0  0  0  0  0  0  0  0
  137.6450   73.9370  222.7230 H   0  0  0  0  0  0  0  0  0  0  0  0
  141.5321   73.8668  220.3675 H   0  0  0  0  0  0  0  0  0  0  0  0
  142.6525   76.0651  220.1871 H   0  0  0  0  0  0  0  0  0  0  0  0
  142.7283   78.3338  220.7452 H   0  0  0  0  0  0  0  0  0  0  0  0
  139.7247   80.0237  223.2859 H   0  0  0  0  0  0  0  0  0  0  0  0
  138.5610   77.8186  223.5006 H   0  0  0  0  0  0  0  0  0  0  0  0
  139.1596   71.0702  225.8536 H   0  0  0  0  0  0  0  0  0  0  0  0
  138.9818   69.5573  227.3574 H   0  0  0  0  0  0  0  0  0  0  0  0
  140.3653   68.5758  226.6502 H   0  0  0  0  0  0  0  0  0  0  0  0
  140.5157   69.5645  229.0420 H   0  0  0  0  0  0  0  0  0  0  0  0
  141.9208   69.5953  227.8543 H   0  0  0  0  0  0  0  0  0  0  0  0
  140.2571   71.7992  228.9300 H   0  0  0  0  0  0  0  0  0  0  0  0
  142.0792   71.5914  228.7198 H   0  0  0  0  0  0  0  0  0  0  0  0
  140.0988   72.7967  226.9816 H   0  0  0  0  0  0  0  0  0  0  0  0
  141.9113   72.9569  227.0835 H   0  0  0  0  0  0  0  0  0  0  0  0
  141.1842   72.0595  224.8831 H   0  0  0  0  0  0  0  0  0  0  0  0
  142.1899   70.8985  225.7626 H   0  0  0  0  0  0  0  0  0  0  0  0
  1  2  1  0
  2  3  1  0
  3  4  1  0
  4  5  2  0
  4  6  1  0
  6  7  1  0
  7  8  1  0
  8  9  2  0
  8 10  1  0
 10 11  2  0
 11 12  1  0
 12 13  2  0
 13 14  1  0
 14 15  2  0
 15 16  1  0
 15 17  1  0
 17 18  2  0
 18 19  1  0
 19 20  2  0
  2 21  1  0
 21 22  1  0
 22 23  1  0
 23 24  1  0
 24 25  1  0
 25 26  1  0
 20 10  1  0
 26 21  1  0
 19 13  1  0
  1 27  1  0
  1 28  1  0
  1 29  1  0
  2 30  1  6
  3 31  1  0
  6 32  1  0
  6 33  1  0
  7 34  1  0
 11 35  1  0
 12 36  1  0
 14 37  1  0
 17 38  1  0
 18 39  1  0
 21 40  1  0
 22 41  1  0
 22 42  1  0
 23 43  1  0
 23 44  1  0
 24 45  1  0
 24 46  1  0
 25 47  1  0
 25 48  1  0
 26 49  1  0
 26 50  1  0
M  END
>  <smiles>  (44) 
C[C@@H](NC(=O)CNC(=O)c1ccc2cc(Cl)ccc2n1)C1CCCCC1

>  <score_type>  (44) 
oracle

>  <origin>  (44) 
autodockgpu

>  <m_score__min__energy>  (44) 
-8.3399999999999999

>  <m_primary>  (44) 
energy

>  <rmsd>  (44) 
9.715985571292295

>  <m_score__min__rmsd>  (44) 
9.715985571292295

>  <meeko>  (44) 
{"free_energy": -7.9, "intermolecular_energy": -9.39, "internal_energy": -2.06, "cluster_size": 24, "cluster_id": 2, "rank_in_cluster": 23}

>  <energy>  (44) 
-7.64

>  <cluster_rmsd>  (44) 
0.94

>  <cluster>  (44) 
3

$$$$

     RDKit          3D

 50 52  0  0  0  0  0  0  0  0999 V2000
  139.0980   68.4150  224.7620 C   0  0  0  0  0  0  0  0  0  0  0  0
  139.9530   69.6490  224.5720 C   0  0  1  0  0  0  0  0  0  0  0  0
  139.4270   70.4260  223.4660 N   0  0  0  0  0  0  0  0  0  0  0  0
  138.1160   70.9520  223.5020 C   0  0  0  0  0  0  0  0  0  0  0  0
  137.4360   70.7150  224.5400 O   0  0  0  0  0  0  0  0  0  0  0  0
  137.4760   71.7500  222.4480 C   0  0  0  0  0  0  0  0  0  0  0  0
  138.1210   73.0330  222.3500 N   0  0  0  0  0  0  0  0  0  0  0  0
  139.4130   73.2180  221.7550 C   0  0  0  0  0  0  0  0  0  0  0  0
  140.0670   72.2470  221.2660 O   0  0  0  0  0  0  0  0  0  0  0  0
  140.0120   74.5580  221.7010 C   0  0  0  0  0  0  0  0  0  0  0  0
  141.1530   74.7770  220.9620 C   0  0  0  0  0  0  0  0  0  0  0  0
  141.7700   76.0030  220.8590 C   0  0  0  0  0  0  0  0  0  0  0  0
  141.1880   77.0500  221.5450 C   0  0  0  0  0  0  0  0  0  0  0  0
  141.8100   78.2800  221.4360 C   0  0  0  0  0  0  0  0  0  0  0  0
  141.2470   79.3410  222.1120 C   0  0  0  0  0  0  0  0  0  0  0  0
  141.9720   80.9550  222.0340 Cl  0  0  0  0  0  0  0  0  0  0  0  0
  140.1140   79.1650  222.8570 C   0  0  0  0  0  0  0  0  0  0  0  0
  139.4720   77.9270  222.9780 C   0  0  0  0  0  0  0  0  0  0  0  0
  140.0440   76.8490  222.2900 C   0  0  0  0  0  0  0  0  0  0  0  0
  139.4930   75.6130  222.3460 N   0  0  0  0  0  0  0  0  0  0  0  0
  140.0550   70.4650  225.8340 C   0  0  0  0  0  0  0  0  0  0  0  0
  139.8840   69.6450  227.0680 C   0  0  0  0  0  0  0  0  0  0  0  0
  140.7650   70.0440  228.2200 C   0  0  0  0  0  0  0  0  0  0  0  0
  141.0230   71.5040  228.3450 C   0  0  0  0  0  0  0  0  0  0  0  0
  141.1240   72.2590  227.0640 C   0  0  0  0  0  0  0  0  0  0  0  0
  141.2830   71.3500  225.8490 C   0  0  0  0  0  0  0  0  0  0  0  0
  138.9650   68.2230  225.8369 H   0  0  0  0  0  0  0  0  0  0  0  0
  138.1155   68.5740  224.2936 H   0  0  0  0  0  0  0  0  0  0  0  0
  139.5920   67.5510  224.2936 H   0  0  0  0  0  0  0  0  0  0  0  0
  140.9800   69.3362  224.3322 H   0  0  0  0  0  0  0  0  0  0  0  0
  140.0540   70.5910  222.6540 H   0  0  0  0  0  0  0  0  0  0  0  0
  137.5633   71.2227  221.4866 H   0  0  0  0  0  0  0  0  0  0  0  0
  136.4140   71.8947  222.6955 H   0  0  0  0  0  0  0  0  0  0  0  0
  137.6770   73.9290  222.7160 H   0  0  0  0  0  0  0  0  0  0  0  0
  141.5957   73.9254  220.4245 H   0  0  0  0  0  0  0  0  0  0  0  0
  142.6819   76.1417  220.2596 H   0  0  0  0  0  0  0  0  0  0  0  0
  142.7206   78.4071  220.8321 H   0  0  0  0  0  0  0  0  0  0  0  0
  139.6893   80.0326  223.3833 H   0  0  0  0  0  0  0  0  0  0  0  0
  138.5621   77.8064  223.5842 H   0  0  0  0  0  0  0  0  0  0  0  0
  139.1986   71.1553  225.8347 H   0  0  0  0  0  0  0  0  0  0  0  0
  138.8366   69.7308  227.3930 H   0  0  0  0  0  0  0  0  0  0  0  0
  140.1735   68.6184  226.7991 H   0  0  0  0  0  0  0  0  0  0  0  0
  140.2854   69.7025  229.1492 H   0  0  0  0  0  0  0  0  0  0  0  0
  141.7429   69.5765  228.0323 H   0  0  0  0  0  0  0  0  0  0  0  0
  140.2017   71.9425  228.9308 H   0  0  0  0  0  0  0  0  0  0  0  0
  142.0106   71.5921  228.8212 H   0  0  0  0  0  0  0  0  0  0  0  0
  140.2102   72.8580  226.9368 H   0  0  0  0  0  0  0  0  0  0  0  0
  142.0228   72.8903  227.1233 H   0  0  0  0  0  0  0  0  0  0  0  0
  141.3357   71.9480  224.9272 H   0  0  0  0  0  0  0  0  0  0  0  0
  142.2086   70.7581  225.9040 H   0  0  0  0  0  0  0  0  0  0  0  0
  1  2  1  0
  2  3  1  0
  3  4  1  0
  4  5  2  0
  4  6  1  0
  6  7  1  0
  7  8  1  0
  8  9  2  0
  8 10  1  0
 10 11  2  0
 11 12  1  0
 12 13  2  0
 13 14  1  0
 14 15  2  0
 15 16  1  0
 15 17  1  0
 17 18  2  0
 18 19  1  0
 19 20  2  0
  2 21  1  0
 21 22  1  0
 22 23  1  0
 23 24  1  0
 24 25  1  0
 25 26  1  0
 20 10  1  0
 26 21  1  0
 19 13  1  0
  1 27  1  0
  1 28  1  0
  1 29  1  0
  2 30  1  6
  3 31  1  0
  6 32  1  0
  6 33  1  0
  7 34  1  0
 11 35  1  0
 12 36  1  0
 14 37  1  0
 17 38  1  0
 18 39  1  0
 21 40  1  0
 22 41  1  0
 22 42  1  0
 23 43  1  0
 23 44  1  0
 24 45  1  0
 24 46  1  0
 25 47  1  0
 25 48  1  0
 26 49  1  0
 26 50  1  0
M  END
>  <smiles>  (45) 
C[C@@H](NC(=O)CNC(=O)c1ccc2cc(Cl)ccc2n1)C1CCCCC1

>  <score_type>  (45) 
oracle

>  <origin>  (45) 
autodockgpu

>  <m_score__min__energy>  (45) 
-8.3399999999999999

>  <m_primary>  (45) 
energy

>  <rmsd>  (45) 
9.721166098281332

>  <m_score__min__rmsd>  (45) 
9.721166098281332

>  <meeko>  (45) 
{"free_energy": -7.98, "intermolecular_energy": -9.47, "internal_energy": -2.07, "cluster_size": 24, "cluster_id": 2, "rank_in_cluster": 2}

>  <energy>  (45) 
-7.86

>  <cluster_rmsd>  (45) 
0.0

>  <cluster>  (45) 
4

$$$$

     RDKit          3D

 50 52  0  0  0  0  0  0  0  0999 V2000
  139.1340   68.4180  224.7820 C   0  0  0  0  0  0  0  0  0  0  0  0
  139.9810   69.6590  224.6000 C   0  0  1  0  0  0  0  0  0  0  0  0
  139.4550   70.4350  223.4930 N   0  0  0  0  0  0  0  0  0  0  0  0
  138.1370   70.9440  223.5210 C   0  0  0  0  0  0  0  0  0  0  0  0
  137.4510   70.6920  224.5520 O   0  0  0  0  0  0  0  0  0  0  0  0
  137.4960   71.7390  222.4660 C   0  0  0  0  0  0  0  0  0  0  0  0
  138.1400   73.0220  222.3650 N   0  0  0  0  0  0  0  0  0  0  0  0
  139.4290   73.2070  221.7620 C   0  0  0  0  0  0  0  0  0  0  0  0
  140.0800   72.2360  221.2680 O   0  0  0  0  0  0  0  0  0  0  0  0
  140.0280   74.5470  221.7040 C   0  0  0  0  0  0  0  0  0  0  0  0
  141.1650   74.7650  220.9590 C   0  0  0  0  0  0  0  0  0  0  0  0
  141.7820   75.9900  220.8520 C   0  0  0  0  0  0  0  0  0  0  0  0
  141.2050   77.0380  221.5410 C   0  0  0  0  0  0  0  0  0  0  0  0
  141.8270   78.2680  221.4290 C   0  0  0  0  0  0  0  0  0  0  0  0
  141.2680   79.3290  222.1090 C   0  0  0  0  0  0  0  0  0  0  0  0
  141.9930   80.9430  222.0270 Cl  0  0  0  0  0  0  0  0  0  0  0  0
  140.1390   79.1530  222.8600 C   0  0  0  0  0  0  0  0  0  0  0  0
  139.4970   77.9160  222.9840 C   0  0  0  0  0  0  0  0  0  0  0  0
  140.0650   76.8380  222.2930 C   0  0  0  0  0  0  0  0  0  0  0  0
  139.5130   75.6020  222.3530 N   0  0  0  0  0  0  0  0  0  0  0  0
  140.0720   70.4710  225.8650 C   0  0  0  0  0  0  0  0  0  0  0  0
  139.9050   69.6460  227.0950 C   0  0  0  0  0  0  0  0  0  0  0  0
  140.7790   70.0500  228.2520 C   0  0  0  0  0  0  0  0  0  0  0  0
  141.0220   71.5120  228.3820 C   0  0  0  0  0  0  0  0  0  0  0  0
  141.1190   72.2730  227.1030 C   0  0  0  0  0  0  0  0  0  0  0  0
  141.2910   71.3690  225.8870 C   0  0  0  0  0  0  0  0  0  0  0  0
  138.9991   68.2204  225.8557 H   0  0  0  0  0  0  0  0  0  0  0  0
  138.1518   68.5722  224.3113 H   0  0  0  0  0  0  0  0  0  0  0  0
  139.6355   67.5595  224.3113 H   0  0  0  0  0  0  0  0  0  0  0  0
  141.0116   69.3551  224.3643 H   0  0  0  0  0  0  0  0  0  0  0  0
  140.0860   70.6120  222.6890 H   0  0  0  0  0  0  0  0  0  0  0  0
  137.5831   71.2098  221.5056 H   0  0  0  0  0  0  0  0  0  0  0  0
  136.4340   71.8835  222.7138 H   0  0  0  0  0  0  0  0  0  0  0  0
  137.6990   73.9180  222.7330 H   0  0  0  0  0  0  0  0  0  0  0  0
  141.6043   73.9129  220.4196 H   0  0  0  0  0  0  0  0  0  0  0  0
  142.6904   76.1277  220.2472 H   0  0  0  0  0  0  0  0  0  0  0  0
  142.7341   78.3951  220.8199 H   0  0  0  0  0  0  0  0  0  0  0  0
  139.7177   80.0205  223.3890 H   0  0  0  0  0  0  0  0  0  0  0  0
  138.5900   77.7958  223.5946 H   0  0  0  0  0  0  0  0  0  0  0  0
  139.2088   71.1529  225.8653 H   0  0  0  0  0  0  0  0  0  0  0  0
  138.8558   69.7207  227.4168 H   0  0  0  0  0  0  0  0  0  0  0  0
  140.2052   68.6231  226.8238 H   0  0  0  0  0  0  0  0  0  0  0  0
  140.2998   69.7010  229.1786 H   0  0  0  0  0  0  0  0  0  0  0  0
  141.7620   69.5925  228.0664 H   0  0  0  0  0  0  0  0  0  0  0  0
  140.1948   71.9403  228.9670 H   0  0  0  0  0  0  0  0  0  0  0  0
  142.0076   71.6083  228.8609 H   0  0  0  0  0  0  0  0  0  0  0  0
  140.1994   72.8628  226.9748 H   0  0  0  0  0  0  0  0  0  0  0  0
  142.0106   72.9141  227.1668 H   0  0  0  0  0  0  0  0  0  0  0  0
  141.3408   71.9699  224.9669 H   0  0  0  0  0  0  0  0  0  0  0  0
  142.2222   70.7863  225.9441 H   0  0  0  0  0  0  0  0  0  0  0  0
  1  2  1  0
  2  3  1  0
  3  4  1  0
  4  5  2  0
  4  6  1  0
  6  7  1  0
  7  8  1  0
  8  9  2  0
  8 10  1  0
 10 11  2  0
 11 12  1  0
 12 13  2  0
 13 14  1  0
 14 15  2  0
 15 16  1  0
 15 17  1  0
 17 18  2  0
 18 19  1  0
 19 20  2  0
  2 21  1  0
 21 22  1  0
 22 23  1  0
 23 24  1  0
 24 25  1  0
 25 26  1  0
 20 10  1  0
 26 21  1  0
 19 13  1  0
  1 27  1  0
  1 28  1  0
  1 29  1  0
  2 30  1  6
  3 31  1  0
  6 32  1  0
  6 33  1  0
  7 34  1  0
 11 35  1  0
 12 36  1  0
 14 37  1  0
 17 38  1  0
 18 39  1  0
 21 40  1  0
 22 41  1  0
 22 42  1  0
 23 43  1  0
 23 44  1  0
 24 45  1  0
 24 46  1  0
 25 47  1  0
 25 48  1  0
 26 49  1  0
 26 50  1  0
M  END
>  <smiles>  (46) 
C[C@@H](NC(=O)CNC(=O)c1ccc2cc(Cl)ccc2n1)C1CCCCC1

>  <score_type>  (46) 
oracle

>  <origin>  (46) 
autodockgpu

>  <m_score__min__energy>  (46) 
-8.3399999999999999

>  <m_primary>  (46) 
energy

>  <rmsd>  (46) 
9.721585923883376

>  <m_score__min__rmsd>  (46) 
9.721585923883376

>  <meeko>  (46) 
{"free_energy": -7.95, "intermolecular_energy": -9.44, "internal_energy": -2.07, "cluster_size": 24, "cluster_id": 2, "rank_in_cluster": 14}

>  <energy>  (46) 
-7.53

>  <cluster_rmsd>  (46) 
0.52

>  <cluster>  (46) 
4

$$$$

     RDKit          3D

 50 52  0  0  0  0  0  0  0  0999 V2000
  139.1290   68.3880  224.7700 C   0  0  0  0  0  0  0  0  0  0  0  0
  139.9760   69.6300  224.5910 C   0  0  1  0  0  0  0  0  0  0  0  0
  139.4450   70.4120  223.4900 N   0  0  0  0  0  0  0  0  0  0  0  0
  138.1180   70.8990  223.5150 C   0  0  0  0  0  0  0  0  0  0  0  0
  137.4290   70.6220  224.5370 O   0  0  0  0  0  0  0  0  0  0  0  0
  137.4720   71.6970  222.4650 C   0  0  0  0  0  0  0  0  0  0  0  0
  138.1120   72.9810  222.3670 N   0  0  0  0  0  0  0  0  0  0  0  0
  139.3930   73.1740  221.7500 C   0  0  0  0  0  0  0  0  0  0  0  0
  140.0400   72.2090  221.2410 O   0  0  0  0  0  0  0  0  0  0  0  0
  139.9890   74.5160  221.6980 C   0  0  0  0  0  0  0  0  0  0  0  0
  141.1270   74.7380  220.9540 C   0  0  0  0  0  0  0  0  0  0  0  0
  141.7410   75.9660  220.8520 C   0  0  0  0  0  0  0  0  0  0  0  0
  141.1600   77.0100  221.5430 C   0  0  0  0  0  0  0  0  0  0  0  0
  141.7790   78.2420  221.4350 C   0  0  0  0  0  0  0  0  0  0  0  0
  141.2170   79.3000  222.1170 C   0  0  0  0  0  0  0  0  0  0  0  0
  141.9380   80.9150  222.0400 Cl  0  0  0  0  0  0  0  0  0  0  0  0
  140.0870   79.1190  222.8660 C   0  0  0  0  0  0  0  0  0  0  0  0
  139.4480   77.8800  222.9860 C   0  0  0  0  0  0  0  0  0  0  0  0
  140.0190   76.8050  222.2930 C   0  0  0  0  0  0  0  0  0  0  0  0
  139.4710   75.5680  222.3480 N   0  0  0  0  0  0  0  0  0  0  0  0
  140.0710   70.4360  225.8590 C   0  0  0  0  0  0  0  0  0  0  0  0
  139.9160   69.6040  227.0860 C   0  0  0  0  0  0  0  0  0  0  0  0
  140.7950   70.0050  228.2390 C   0  0  0  0  0  0  0  0  0  0  0  0
  141.0340   71.4670  228.3750 C   0  0  0  0  0  0  0  0  0  0  0  0
  141.1200   72.2350  227.1000 C   0  0  0  0  0  0  0  0  0  0  0  0
  141.2870   71.3380  225.8780 C   0  0  0  0  0  0  0  0  0  0  0  0
  138.9929   68.1885  225.8432 H   0  0  0  0  0  0  0  0  0  0  0  0
  138.1473   68.5426  224.2984 H   0  0  0  0  0  0  0  0  0  0  0  0
  139.6313   67.5305  224.2984 H   0  0  0  0  0  0  0  0  0  0  0  0
  141.0056   69.3268  224.3501 H   0  0  0  0  0  0  0  0  0  0  0  0
  140.0790   70.6100  222.6920 H   0  0  0  0  0  0  0  0  0  0  0  0
  137.5575   71.1718  221.5023 H   0  0  0  0  0  0  0  0  0  0  0  0
  136.4105   71.8381  222.7168 H   0  0  0  0  0  0  0  0  0  0  0  0
  137.6740   73.8740  222.7490 H   0  0  0  0  0  0  0  0  0  0  0  0
  141.5688   73.8886  220.4124 H   0  0  0  0  0  0  0  0  0  0  0  0
  142.6501   76.1082  220.2493 H   0  0  0  0  0  0  0  0  0  0  0  0
  142.6865   78.3729  220.8272 H   0  0  0  0  0  0  0  0  0  0  0  0
  139.6626   79.9841  223.3965 H   0  0  0  0  0  0  0  0  0  0  0  0
  138.5406   77.7561  223.5954 H   0  0  0  0  0  0  0  0  0  0  0  0
  139.2048   71.1140  225.8679 H   0  0  0  0  0  0  0  0  0  0  0  0
  138.8686   69.6724  227.4150 H   0  0  0  0  0  0  0  0  0  0  0  0
  140.2194   68.5841  226.8072 H   0  0  0  0  0  0  0  0  0  0  0  0
  140.3225   69.6497  229.1667 H   0  0  0  0  0  0  0  0  0  0  0  0
  141.7784   69.5518  228.0451 H   0  0  0  0  0  0  0  0  0  0  0  0
  140.2093   71.8895  228.9677 H   0  0  0  0  0  0  0  0  0  0  0  0
  142.0225   71.5639  228.8477 H   0  0  0  0  0  0  0  0  0  0  0  0
  140.1976   72.8224  226.9810 H   0  0  0  0  0  0  0  0  0  0  0  0
  142.0098   72.8789  227.1614 H   0  0  0  0  0  0  0  0  0  0  0  0
  141.3288   71.9439  224.9609 H   0  0  0  0  0  0  0  0  0  0  0  0
  142.2205   70.7581  225.9260 H   0  0  0  0  0  0  0  0  0  0  0  0
  1  2  1  0
  2  3  1  0
  3  4  1  0
  4  5  2  0
  4  6  1  0
  6  7  1  0
  7  8  1  0
  8  9  2  0
  8 10  1  0
 10 11  2  0
 11 12  1  0
 12 13  2  0
 13 14  1  0
 14 15  2  0
 15 16  1  0
 15 17  1  0
 17 18  2  0
 18 19  1  0
 19 20  2  0
  2 21  1  0
 21 22  1  0
 22 23  1  0
 23 24  1  0
 24 25  1  0
 25 26  1  0
 20 10  1  0
 26 21  1  0
 19 13  1  0
  1 27  1  0
  1 28  1  0
  1 29  1  0
  2 30  1  6
  3 31  1  0
  6 32  1  0
  6 33  1  0
  7 34  1  0
 11 35  1  0
 12 36  1  0
 14 37  1  0
 17 38  1  0
 18 39  1  0
 21 40  1  0
 22 41  1  0
 22 42  1  0
 23 43  1  0
 23 44  1  0
 24 45  1  0
 24 46  1  0
 25 47  1  0
 25 48  1  0
 26 49  1  0
 26 50  1  0
M  END
>  <smiles>  (47) 
C[C@@H](NC(=O)CNC(=O)c1ccc2cc(Cl)ccc2n1)C1CCCCC1

>  <score_type>  (47) 
oracle

>  <origin>  (47) 
autodockgpu

>  <m_score__min__energy>  (47) 
-8.3399999999999999

>  <m_primary>  (47) 
energy

>  <rmsd>  (47) 
9.733957234935437

>  <m_score__min__rmsd>  (47) 
9.733957234935437

>  <meeko>  (47) 
{"free_energy": -7.95, "intermolecular_energy": -9.44, "internal_energy": -2.06, "cluster_size": 24, "cluster_id": 2, "rank_in_cluster": 15}

>  <energy>  (47) 
-7.17

>  <cluster_rmsd>  (47) 
0.64

>  <cluster>  (47) 
4

$$$$

     RDKit          3D

 50 52  0  0  0  0  0  0  0  0999 V2000
  139.1150   68.5330  224.6060 C   0  0  0  0  0  0  0  0  0  0  0  0
  139.9580   69.7830  224.4770 C   0  0  1  0  0  0  0  0  0  0  0  0
  139.4240   70.6090  223.4110 N   0  0  0  0  0  0  0  0  0  0  0  0
  138.0830   71.0540  223.4360 C   0  0  0  0  0  0  0  0  0  0  0  0
  137.3840   70.7010  224.4280 O   0  0  0  0  0  0  0  0  0  0  0  0
  137.4310   71.8910  222.4200 C   0  0  0  0  0  0  0  0  0  0  0  0
  138.0910   73.1670  222.3450 N   0  0  0  0  0  0  0  0  0  0  0  0
  139.3540   73.3600  221.6900 C   0  0  0  0  0  0  0  0  0  0  0  0
  139.9640   72.4030  221.1240 O   0  0  0  0  0  0  0  0  0  0  0  0
  139.9710   74.6920  221.6630 C   0  0  0  0  0  0  0  0  0  0  0  0
  141.1090   74.9120  220.9190 C   0  0  0  0  0  0  0  0  0  0  0  0
  141.7430   76.1310  220.8400 C   0  0  0  0  0  0  0  0  0  0  0  0
  141.1830   77.1700  221.5560 C   0  0  0  0  0  0  0  0  0  0  0  0
  141.8220   78.3930  221.4720 C   0  0  0  0  0  0  0  0  0  0  0  0
  141.2810   79.4450  222.1790 C   0  0  0  0  0  0  0  0  0  0  0  0
  142.0280   81.0500  222.1330 Cl  0  0  0  0  0  0  0  0  0  0  0  0
  140.1520   79.2670  222.9300 C   0  0  0  0  0  0  0  0  0  0  0  0
  139.4930   78.0360  223.0260 C   0  0  0  0  0  0  0  0  0  0  0  0
  140.0430   76.9680  222.3080 C   0  0  0  0  0  0  0  0  0  0  0  0
  139.4740   75.7390  222.3380 N   0  0  0  0  0  0  0  0  0  0  0  0
  140.0550   70.5360  225.7780 C   0  0  0  0  0  0  0  0  0  0  0  0
  139.8440   69.6630  226.9680 C   0  0  0  0  0  0  0  0  0  0  0  0
  140.7120   69.9870  228.1540 C   0  0  0  0  0  0  0  0  0  0  0  0
  140.9980   71.4340  228.3520 C   0  0  0  0  0  0  0  0  0  0  0  0
  141.1390   72.2460  227.1100 C   0  0  0  0  0  0  0  0  0  0  0  0
  141.3010   71.3920  225.8570 C   0  0  0  0  0  0  0  0  0  0  0  0
  138.9602   68.3034  225.6706 H   0  0  0  0  0  0  0  0  0  0  0  0
  138.1414   68.6956  224.1206 H   0  0  0  0  0  0  0  0  0  0  0  0
  139.6307   67.6913  224.1206 H   0  0  0  0  0  0  0  0  0  0  0  0
  140.9875   69.4920  224.2211 H   0  0  0  0  0  0  0  0  0  0  0  0
  140.0660   70.8700  222.6380 H   0  0  0  0  0  0  0  0  0  0  0  0
  137.4899   71.3910  221.4420 H   0  0  0  0  0  0  0  0  0  0  0  0
  136.3768   72.0423  222.6952 H   0  0  0  0  0  0  0  0  0  0  0  0
  137.6830   74.0520  222.7720 H   0  0  0  0  0  0  0  0  0  0  0  0
  141.5344   74.0673  220.3573 H   0  0  0  0  0  0  0  0  0  0  0  0
  142.6516   76.2706  220.2358 H   0  0  0  0  0  0  0  0  0  0  0  0
  142.7291   78.5217  220.8632 H   0  0  0  0  0  0  0  0  0  0  0  0
  139.7448   80.1272  223.4816 H   0  0  0  0  0  0  0  0  0  0  0  0
  138.5862   77.9138  223.6366 H   0  0  0  0  0  0  0  0  0  0  0  0
  139.2139   71.2446  225.7962 H   0  0  0  0  0  0  0  0  0  0  0  0
  138.7928   69.7566  227.2783 H   0  0  0  0  0  0  0  0  0  0  0  0
  140.1169   68.6443  226.6553 H   0  0  0  0  0  0  0  0  0  0  0  0
  140.2079   69.6128  229.0573 H   0  0  0  0  0  0  0  0  0  0  0  0
  141.6830   69.5068  227.9626 H   0  0  0  0  0  0  0  0  0  0  0  0
  140.1751   71.8623  228.9430 H   0  0  0  0  0  0  0  0  0  0  0  0
  141.9782   71.4782  228.8492 H   0  0  0  0  0  0  0  0  0  0  0  0
  140.2408   72.8705  226.9952 H   0  0  0  0  0  0  0  0  0  0  0  0
  142.0499   72.8537  227.2149 H   0  0  0  0  0  0  0  0  0  0  0  0
  141.3838   72.0313  224.9657 H   0  0  0  0  0  0  0  0  0  0  0  0
  142.2124   70.7776  225.9006 H   0  0  0  0  0  0  0  0  0  0  0  0
  1  2  1  0
  2  3  1  0
  3  4  1  0
  4  5  2  0
  4  6  1  0
  6  7  1  0
  7  8  1  0
  8  9  2  0
  8 10  1  0
 10 11  2  0
 11 12  1  0
 12 13  2  0
 13 14  1  0
 14 15  2  0
 15 16  1  0
 15 17  1  0
 17 18  2  0
 18 19  1  0
 19 20  2  0
  2 21  1  0
 21 22  1  0
 22 23  1  0
 23 24  1  0
 24 25  1  0
 25 26  1  0
 20 10  1  0
 26 21  1  0
 19 13  1  0
  1 27  1  0
  1 28  1  0
  1 29  1  0
  2 30  1  6
  3 31  1  0
  6 32  1  0
  6 33  1  0
  7 34  1  0
 11 35  1  0
 12 36  1  0
 14 37  1  0
 17 38  1  0
 18 39  1  0
 21 40  1  0
 22 41  1  0
 22 42  1  0
 23 43  1  0
 23 44  1  0
 24 45  1  0
 24 46  1  0
 25 47  1  0
 25 48  1  0
 26 49  1  0
 26 50  1  0
M  END
>  <smiles>  (48) 
C[C@@H](NC(=O)CNC(=O)c1ccc2cc(Cl)ccc2n1)C1CCCCC1

>  <score_type>  (48) 
oracle

>  <origin>  (48) 
autodockgpu

>  <m_score__min__energy>  (48) 
-8.3399999999999999

>  <m_primary>  (48) 
energy

>  <rmsd>  (48) 
9.701572755312998

>  <m_score__min__rmsd>  (48) 
9.701572755312998

>  <meeko>  (48) 
{"free_energy": -7.95, "intermolecular_energy": -9.44, "internal_energy": -2.03, "cluster_size": 24, "cluster_id": 2, "rank_in_cluster": 13}

>  <energy>  (48) 
-7.62

>  <cluster_rmsd>  (48) 
0.0

>  <cluster>  (48) 
5

$$$$

     RDKit          3D

 50 52  0  0  0  0  0  0  0  0999 V2000
  139.0980   68.3820  224.7560 C   0  0  0  0  0  0  0  0  0  0  0  0
  139.9460   69.6220  224.5620 C   0  0  1  0  0  0  0  0  0  0  0  0
  139.4130   70.3930  223.4560 N   0  0  0  0  0  0  0  0  0  0  0  0
  138.1020   70.9180  223.4970 C   0  0  0  0  0  0  0  0  0  0  0  0
  137.4270   70.6840  224.5400 O   0  0  0  0  0  0  0  0  0  0  0  0
  137.4550   71.7110  222.4430 C   0  0  0  0  0  0  0  0  0  0  0  0
  138.0880   72.9990  222.3470 N   0  0  0  0  0  0  0  0  0  0  0  0
  139.3780   73.1960  221.7500 C   0  0  0  0  0  0  0  0  0  0  0  0
  140.0400   72.2320  221.2590 O   0  0  0  0  0  0  0  0  0  0  0  0
  139.9650   74.5420  221.6980 C   0  0  0  0  0  0  0  0  0  0  0  0
  141.0970   74.7730  220.9480 C   0  0  0  0  0  0  0  0  0  0  0  0
  141.7030   76.0050  220.8450 C   0  0  0  0  0  0  0  0  0  0  0  0
  141.1200   77.0440  221.5430 C   0  0  0  0  0  0  0  0  0  0  0  0
  141.7310   78.2790  221.4340 C   0  0  0  0  0  0  0  0  0  0  0  0
  141.1650   79.3320  222.1210 C   0  0  0  0  0  0  0  0  0  0  0  0
  141.8760   80.9520  222.0440 Cl  0  0  0  0  0  0  0  0  0  0  0  0
  140.0410   79.1430  222.8760 C   0  0  0  0  0  0  0  0  0  0  0  0
  139.4100   77.8990  222.9970 C   0  0  0  0  0  0  0  0  0  0  0  0
  139.9850   76.8300  222.2980 C   0  0  0  0  0  0  0  0  0  0  0  0
  139.4440   75.5890  222.3530 N   0  0  0  0  0  0  0  0  0  0  0  0
  140.0460   70.4390  225.8230 C   0  0  0  0  0  0  0  0  0  0  0  0
  139.8870   69.6190  227.0580 C   0  0  0  0  0  0  0  0  0  0  0  0
  140.7690   70.0280  228.2070 C   0  0  0  0  0  0  0  0  0  0  0  0
  141.0140   71.4910  228.3280 C   0  0  0  0  0  0  0  0  0  0  0  0
  141.1030   72.2450  227.0460 C   0  0  0  0  0  0  0  0  0  0  0  0
  141.2660   71.3360  225.8320 C   0  0  0  0  0  0  0  0  0  0  0  0
  138.9677   68.1915  225.8315 H   0  0  0  0  0  0  0  0  0  0  0  0
  138.1139   68.5340  224.2887 H   0  0  0  0  0  0  0  0  0  0  0  0
  139.5966   67.5200  224.2887 H   0  0  0  0  0  0  0  0  0  0  0  0
  140.9746   69.3165  224.3200 H   0  0  0  0  0  0  0  0  0  0  0  0
  140.0350   70.5560  222.6410 H   0  0  0  0  0  0  0  0  0  0  0  0
  137.5478   71.1855  221.4811 H   0  0  0  0  0  0  0  0  0  0  0  0
  136.3915   71.8455  222.6896 H   0  0  0  0  0  0  0  0  0  0  0  0
  137.6370   73.8910  222.7140 H   0  0  0  0  0  0  0  0  0  0  0  0
  141.5408   73.9276  220.4019 H   0  0  0  0  0  0  0  0  0  0  0  0
  142.6072   76.1542  220.2366 H   0  0  0  0  0  0  0  0  0  0  0  0
  142.6348   78.4166  220.8222 H   0  0  0  0  0  0  0  0  0  0  0  0
  139.6145   80.0044  223.4109 H   0  0  0  0  0  0  0  0  0  0  0  0
  138.5068   77.7676  223.6110 H   0  0  0  0  0  0  0  0  0  0  0  0
  139.1831   71.1213  225.8272 H   0  0  0  0  0  0  0  0  0  0  0  0
  138.8400   69.6954  227.3866 H   0  0  0  0  0  0  0  0  0  0  0  0
  140.1848   68.5948  226.7893 H   0  0  0  0  0  0  0  0  0  0  0  0
  140.2958   69.6840  229.1385 H   0  0  0  0  0  0  0  0  0  0  0  0
  141.7503   69.5687  228.0171 H   0  0  0  0  0  0  0  0  0  0  0  0
  140.1910   71.9228  228.9164 H   0  0  0  0  0  0  0  0  0  0  0  0
  142.0029   71.5888  228.7996 H   0  0  0  0  0  0  0  0  0  0  0  0
  140.1831   72.8351  226.9215 H   0  0  0  0  0  0  0  0  0  0  0  0
  141.9960   72.8849  227.1011 H   0  0  0  0  0  0  0  0  0  0  0  0
  141.3095   71.9331  224.9092 H   0  0  0  0  0  0  0  0  0  0  0  0
  142.1974   70.7530  225.8842 H   0  0  0  0  0  0  0  0  0  0  0  0
  1  2  1  0
  2  3  1  0
  3  4  1  0
  4  5  2  0
  4  6  1  0
  6  7  1  0
  7  8  1  0
  8  9  2  0
  8 10  1  0
 10 11  2  0
 11 12  1  0
 12 13  2  0
 13 14  1  0
 14 15  2  0
 15 16  1  0
 15 17  1  0
 17 18  2  0
 18 19  1  0
 19 20  2  0
  2 21  1  0
 21 22  1  0
 22 23  1  0
 23 24  1  0
 24 25  1  0
 25 26  1  0
 20 10  1  0
 26 21  1  0
 19 13  1  0
  1 27  1  0
  1 28  1  0
  1 29  1  0
  2 30  1  6
  3 31  1  0
  6 32  1  0
  6 33  1  0
  7 34  1  0
 11 35  1  0
 12 36  1  0
 14 37  1  0
 17 38  1  0
 18 39  1  0
 21 40  1  0
 22 41  1  0
 22 42  1  0
 23 43  1  0
 23 44  1  0
 24 45  1  0
 24 46  1  0
 25 47  1  0
 25 48  1  0
 26 49  1  0
 26 50  1  0
M  END
>  <smiles>  (49) 
C[C@@H](NC(=O)CNC(=O)c1ccc2cc(Cl)ccc2n1)C1CCCCC1

>  <score_type>  (49) 
oracle

>  <origin>  (49) 
autodockgpu

>  <m_score__min__energy>  (49) 
-8.3399999999999999

>  <m_primary>  (49) 
energy

>  <rmsd>  (49) 
9.729991079287732

>  <m_score__min__rmsd>  (49) 
9.729991079287732

>  <meeko>  (49) 
{"free_energy": -7.97, "intermolecular_energy": -9.46, "internal_energy": -2.06, "cluster_size": 24, "cluster_id": 2, "rank_in_cluster": 7}

>  <energy>  (49) 
-7.55

>  <cluster_rmsd>  (49) 
0.11

>  <cluster>  (49) 
5

$$$$

     RDKit          3D

 50 52  0  0  0  0  0  0  0  0999 V2000
  138.8990   79.6540  220.3350 C   0  0  0  0  0  0  0  0  0  0  0  0
  139.2340   78.5940  221.3640 C   0  0  1  0  0  0  0  0  0  0  0  0
  139.1730   77.2870  220.7360 N   0  0  0  0  0  0  0  0  0  0  0  0
  139.3280   76.1060  221.4960 C   0  0  0  0  0  0  0  0  0  0  0  0
  139.5160   76.2480  222.7370 O   0  0  0  0  0  0  0  0  0  0  0  0
  139.2860   74.7330  220.9750 C   0  0  0  0  0  0  0  0  0  0  0  0
  139.4650   73.7990  222.0550 N   0  0  0  0  0  0  0  0  0  0  0  0
  139.5470   72.3800  221.8590 C   0  0  0  0  0  0  0  0  0  0  0  0
  139.4730   71.8610  220.7040 O   0  0  0  0  0  0  0  0  0  0  0  0
  139.7200   71.4870  223.0130 C   0  0  0  0  0  0  0  0  0  0  0  0
  139.3560   70.1620  222.9230 C   0  0  0  0  0  0  0  0  0  0  0  0
  139.4910   69.2640  223.9570 C   0  0  0  0  0  0  0  0  0  0  0  0
  140.0240   69.7490  225.1350 C   0  0  0  0  0  0  0  0  0  0  0  0
  140.1600   68.8420  226.1700 C   0  0  0  0  0  0  0  0  0  0  0  0
  140.6910   69.3030  227.3560 C   0  0  0  0  0  0  0  0  0  0  0  0
  140.9030   68.2170  228.7380 Cl  0  0  0  0  0  0  0  0  0  0  0  0
  141.0640   70.6120  227.4850 C   0  0  0  0  0  0  0  0  0  0  0  0
  140.9340   71.5430  226.4470 C   0  0  0  0  0  0  0  0  0  0  0  0
  140.3950   71.0740  225.2430 C   0  0  0  0  0  0  0  0  0  0  0  0
  140.2310   71.9010  224.1820 N   0  0  0  0  0  0  0  0  0  0  0  0
  140.5670   78.8430  222.0180 C   0  0  0  0  0  0  0  0  0  0  0  0
  141.4200   79.7930  221.2490 C   0  0  0  0  0  0  0  0  0  0  0  0
  142.2320   80.7390  222.0910 C   0  0  0  0  0  0  0  0  0  0  0  0
  142.7420   80.1720  223.3690 C   0  0  0  0  0  0  0  0  0  0  0  0
  141.8510   79.1860  224.0450 C   0  0  0  0  0  0  0  0  0  0  0  0
  140.4320   79.1870  223.4860 C   0  0  0  0  0  0  0  0  0  0  0  0
  138.6056   80.5823  220.8470 H   0  0  0  0  0  0  0  0  0  0  0  0
  139.7805   79.8454  219.7054 H   0  0  0  0  0  0  0  0  0  0  0  0
  138.0677   79.3041  219.7054 H   0  0  0  0  0  0  0  0  0  0  0  0
  138.4905   78.6363  222.1736 H   0  0  0  0  0  0  0  0  0  0  0  0
  138.9990   77.2540  219.7130 H   0  0  0  0  0  0  0  0  0  0  0  0
  138.3130   74.5539  220.4942 H   0  0  0  0  0  0  0  0  0  0  0  0
  140.0921   74.5978  220.2389 H   0  0  0  0  0  0  0  0  0  0  0  0
  139.5480   74.1030  223.0720 H   0  0  0  0  0  0  0  0  0  0  0  0
  138.9344   69.8018  221.9730 H   0  0  0  0  0  0  0  0  0  0  0  0
  139.1892   68.2116  223.8504 H   0  0  0  0  0  0  0  0  0  0  0  0
  139.8558   67.7916  226.0515 H   0  0  0  0  0  0  0  0  0  0  0  0
  141.4839   70.9480  228.4446 H   0  0  0  0  0  0  0  0  0  0  0  0
  141.2406   72.5920  226.5716 H   0  0  0  0  0  0  0  0  0  0  0  0
  141.1154   77.8898  221.9916 H   0  0  0  0  0  0  0  0  0  0  0  0
  142.1137   79.2052  220.6299 H   0  0  0  0  0  0  0  0  0  0  0  0
  140.7324   80.4172  220.6594 H   0  0  0  0  0  0  0  0  0  0  0  0
  143.0966   81.0678  221.4957 H   0  0  0  0  0  0  0  0  0  0  0  0
  141.5532   81.5583  222.3701 H   0  0  0  0  0  0  0  0  0  0  0  0
  143.6990   79.6723  223.1580 H   0  0  0  0  0  0  0  0  0  0  0  0
  142.8235   81.0232  224.0610 H   0  0  0  0  0  0  0  0  0  0  0  0
  142.2783   78.1807  223.9159 H   0  0  0  0  0  0  0  0  0  0  0  0
  141.7880   79.4711  225.1055 H   0  0  0  0  0  0  0  0  0  0  0  0
  139.8169   78.4343  224.0008 H   0  0  0  0  0  0  0  0  0  0  0  0
  139.9406   80.1605  223.6302 H   0  0  0  0  0  0  0  0  0  0  0  0
  1  2  1  0
  2  3  1  0
  3  4  1  0
  4  5  2  0
  4  6  1  0
  6  7  1  0
  7  8  1  0
  8  9  2  0
  8 10  1  0
 10 11  2  0
 11 12  1  0
 12 13  2  0
 13 14  1  0
 14 15  2  0
 15 16  1  0
 15 17  1  0
 17 18  2  0
 18 19  1  0
 19 20  2  0
  2 21  1  0
 21 22  1  0
 22 23  1  0
 23 24  1  0
 24 25  1  0
 25 26  1  0
 20 10  1  0
 26 21  1  0
 19 13  1  0
  1 27  1  0
  1 28  1  0
  1 29  1  0
  2 30  1  1
  3 31  1  0
  6 32  1  0
  6 33  1  0
  7 34  1  0
 11 35  1  0
 12 36  1  0
 14 37  1  0
 17 38  1  0
 18 39  1  0
 21 40  1  0
 22 41  1  0
 22 42  1  0
 23 43  1  0
 23 44  1  0
 24 45  1  0
 24 46  1  0
 25 47  1  0
 25 48  1  0
 26 49  1  0
 26 50  1  0
M  END
>  <smiles>  (50) 
C[C@@H](NC(=O)CNC(=O)c1ccc2cc(Cl)ccc2n1)C1CCCCC1

>  <score_type>  (50) 
oracle

>  <origin>  (50) 
autodockgpu

>  <m_score__min__energy>  (50) 
-8.3399999999999999

>  <m_primary>  (50) 
energy

>  <rmsd>  (50) 
4.144066230035345

>  <m_score__min__rmsd>  (50) 
4.144066230035345

>  <meeko>  (50) 
{"free_energy": -8.16, "intermolecular_energy": -9.65, "internal_energy": -1.77, "cluster_size": 17, "cluster_id": 1, "rank_in_cluster": 8}

>  <energy>  (50) 
-7.46

>  <cluster_rmsd>  (50) 
0.25

>  <cluster>  (50) 
5

$$$$
