
     RDKit          3D

 39 41  0  0  0  0  0  0  0  0999 V2000
  141.7510   67.6670  229.5510 N   0  0  0  0  0  0  0  0  0  0  0  0
  141.3020   68.3630  228.7380 C   0  0  0  0  0  0  0  0  0  0  0  0
  140.7560   69.2170  227.7240 C   0  0  0  0  0  0  0  0  0  0  0  0
  139.9660   68.6750  226.7370 C   0  0  0  0  0  0  0  0  0  0  0  0
  139.4100   69.4230  225.7370 C   0  0  0  0  0  0  0  0  0  0  0  0
  139.6230   70.8060  225.6690 C   0  0  0  0  0  0  0  0  0  0  0  0
  139.0150   71.5060  224.6070 N   0  0  0  0  0  0  0  0  0  0  0  0
  139.3800   71.4440  223.2490 C   0  0  0  0  0  0  0  0  0  0  0  0
  140.3190   70.7280  222.8330 O   0  0  0  0  0  0  0  0  0  0  0  0
  138.6430   72.2430  222.2410 C   0  0  0  0  0  0  0  0  0  0  0  0
  139.1300   73.6050  222.1660 N   0  0  0  0  0  0  0  0  0  0  0  0
  140.2530   73.9470  221.3670 C   0  0  0  0  0  0  0  0  0  0  0  0
  140.8610   73.0710  220.6960 O   0  0  0  0  0  0  0  0  0  0  0  0
  140.6790   75.3590  221.3520 C   0  0  0  0  0  0  0  0  0  0  0  0
  141.6470   75.8030  220.4750 C   0  0  0  0  0  0  0  0  0  0  0  0
  142.0510   77.1310  220.4550 C   0  0  0  0  0  0  0  0  0  0  0  0
  141.4660   78.0180  221.3340 C   0  0  0  0  0  0  0  0  0  0  0  0
  141.7990   79.3500  221.3930 C   0  0  0  0  0  0  0  0  0  0  0  0
  141.1560   80.1690  222.3120 C   0  0  0  0  0  0  0  0  0  0  0  0
  141.5490   81.8820  222.4200 Cl  0  0  0  0  0  0  0  0  0  0  0  0
  140.1900   79.7020  223.1790 C   0  0  0  0  0  0  0  0  0  0  0  0
  139.8620   78.3800  223.1190 C   0  0  0  0  0  0  0  0  0  0  0  0
  140.5000   77.5570  222.2040 C   0  0  0  0  0  0  0  0  0  0  0  0
  140.1430   76.2660  222.1850 N   0  0  0  0  0  0  0  0  0  0  0  0
  140.4040   71.3370  226.6460 C   0  0  0  0  0  0  0  0  0  0  0  0
  140.9760   70.5750  227.6740 C   0  0  0  0  0  0  0  0  0  0  0  0
  139.7732   67.5922  226.7531 H   0  0  0  0  0  0  0  0  0  0  0  0
  138.7867   68.9322  224.9751 H   0  0  0  0  0  0  0  0  0  0  0  0
  138.2000   72.1520  224.8320 H   0  0  0  0  0  0  0  0  0  0  0  0
  138.7621   71.7686  221.2557 H   0  0  0  0  0  0  0  0  0  0  0  0
  137.5854   72.2766  222.5415 H   0  0  0  0  0  0  0  0  0  0  0  0
  138.6480   74.3780  222.7160 H   0  0  0  0  0  0  0  0  0  0  0  0
  142.1086   75.0894  219.7766 H   0  0  0  0  0  0  0  0  0  0  0  0
  142.8245   77.4699  219.7501 H   0  0  0  0  0  0  0  0  0  0  0  0
  142.5655   79.7625  220.7205 H   0  0  0  0  0  0  0  0  0  0  0  0
  139.6993   80.3757  223.8969 H   0  0  0  0  0  0  0  0  0  0  0  0
  139.0957   77.9689  223.7926 H   0  0  0  0  0  0  0  0  0  0  0  0
  140.5971   72.4198  226.6293 H   0  0  0  0  0  0  0  0  0  0  0  0
  141.5993   71.0610  228.4391 H   0  0  0  0  0  0  0  0  0  0  0  0
  1  2  3  0
  2  3  1  0
  3  4  2  0
  4  5  1  0
  5  6  2  0
  6  7  1  0
  7  8  1  0
  8  9  2  0
  8 10  1  0
 10 11  1  0
 11 12  1  0
 12 13  2  0
 12 14  1  0
 14 15  2  0
 15 16  1  0
 16 17  2  0
 17 18  1  0
 18 19  2  0
 19 20  1  0
 19 21  1  0
 21 22  2  0
 22 23  1  0
 23 24  2  0
  6 25  1  0
 25 26  2  0
 26  3  1  0
 24 14  1  0
 23 17  1  0
  4 27  1  0
  5 28  1  0
  7 29  1  0
 10 30  1  0
 10 31  1  0
 11 32  1  0
 15 33  1  0
 16 34  1  0
 18 35  1  0
 21 36  1  0
 22 37  1  0
 25 38  1  0
 26 39  1  0
M  END
>  <smiles>  (1) 
N#Cc1ccc(NC(=O)CNC(=O)c2ccc3cc(Cl)ccc3n2)cc1

>  <score_type>  (1) 
oracle

>  <origin>  (1) 
autodockgpu

>  <m_score__min__energy>  (1) 
-8.3300000000000001

>  <m_primary>  (1) 
energy

>  <rmsd>  (1) 
8.607016512213145

>  <m_score__min__rmsd>  (1) 
8.607016512213145

>  <meeko>  (1) 
{"free_energy": -8.1, "intermolecular_energy": -9.59, "internal_energy": -1.12, "cluster_size": 28, "cluster_id": 2, "rank_in_cluster": 5}

>  <energy>  (1) 
-8.33

>  <cluster_rmsd>  (1) 
0.0

>  <cluster>  (1) 
1

$$$$

     RDKit          3D

 39 41  0  0  0  0  0  0  0  0999 V2000
  142.4440   81.6730  223.9390 N   0  0  0  0  0  0  0  0  0  0  0  0
  141.8250   80.7240  223.6880 C   0  0  0  0  0  0  0  0  0  0  0  0
  141.0670   79.5500  223.3660 C   0  0  0  0  0  0  0  0  0  0  0  0
  141.7270   78.3940  223.0170 C   0  0  0  0  0  0  0  0  0  0  0  0
  141.0740   77.2360  222.6970 C   0  0  0  0  0  0  0  0  0  0  0  0
  139.6760   77.1700  222.7100 C   0  0  0  0  0  0  0  0  0  0  0  0
  139.0790   75.9390  222.3670 N   0  0  0  0  0  0  0  0  0  0  0  0
  138.7370   75.5090  221.0720 C   0  0  0  0  0  0  0  0  0  0  0  0
  138.9390   76.2070  220.0530 O   0  0  0  0  0  0  0  0  0  0  0  0
  138.1120   74.1810  220.8670 C   0  0  0  0  0  0  0  0  0  0  0  0
  138.4180   73.2640  221.9460 N   0  0  0  0  0  0  0  0  0  0  0  0
  138.9450   71.9710  221.6900 C   0  0  0  0  0  0  0  0  0  0  0  0
  139.1640   71.5810  220.5120 O   0  0  0  0  0  0  0  0  0  0  0  0
  139.2280   71.1040  222.8500 C   0  0  0  0  0  0  0  0  0  0  0  0
  138.8850   69.7680  222.8430 C   0  0  0  0  0  0  0  0  0  0  0  0
  139.1480   68.9470  223.9310 C   0  0  0  0  0  0  0  0  0  0  0  0
  139.7670   69.4880  225.0380 C   0  0  0  0  0  0  0  0  0  0  0  0
  140.0690   68.7600  226.1630 C   0  0  0  0  0  0  0  0  0  0  0  0
  140.6940   69.3900  227.2310 C   0  0  0  0  0  0  0  0  0  0  0  0
  141.1010   68.4940  228.6920 Cl  0  0  0  0  0  0  0  0  0  0  0  0
  141.0280   70.7280  227.2150 C   0  0  0  0  0  0  0  0  0  0  0  0
  140.7270   71.4490  226.0970 C   0  0  0  0  0  0  0  0  0  0  0  0
  140.1040   70.8260  225.0280 C   0  0  0  0  0  0  0  0  0  0  0  0
  139.8280   71.5770  223.9540 N   0  0  0  0  0  0  0  0  0  0  0  0
  139.0280   78.3140  223.0550 C   0  0  0  0  0  0  0  0  0  0  0  0
  139.6920   79.5040  223.3840 C   0  0  0  0  0  0  0  0  0  0  0  0
  142.8267   78.4018  222.9945 H   0  0  0  0  0  0  0  0  0  0  0  0
  141.6561   76.3430  222.4253 H   0  0  0  0  0  0  0  0  0  0  0  0
  138.8560   75.2540  223.1500 H   0  0  0  0  0  0  0  0  0  0  0  0
  137.0209   74.3075  220.8073 H   0  0  0  0  0  0  0  0  0  0  0  0
  138.5152   73.7562  219.9359 H   0  0  0  0  0  0  0  0  0  0  0  0
  138.2500   73.5490  222.9570 H   0  0  0  0  0  0  0  0  0  0  0  0
  138.3922   69.3438  221.9557 H   0  0  0  0  0  0  0  0  0  0  0  0
  138.8675   67.8836  223.9104 H   0  0  0  0  0  0  0  0  0  0  0  0
  139.8186   67.6903  226.2172 H   0  0  0  0  0  0  0  0  0  0  0  0
  141.5220   71.1993  228.0775 H   0  0  0  0  0  0  0  0  0  0  0  0
  140.9775   72.5188  226.0445 H   0  0  0  0  0  0  0  0  0  0  0  0
  137.9283   78.3056  223.0771 H   0  0  0  0  0  0  0  0  0  0  0  0
  139.1145   80.3998  223.6562 H   0  0  0  0  0  0  0  0  0  0  0  0
  1  2  3  0
  2  3  1  0
  3  4  2  0
  4  5  1  0
  5  6  2  0
  6  7  1  0
  7  8  1  0
  8  9  2  0
  8 10  1  0
 10 11  1  0
 11 12  1  0
 12 13  2  0
 12 14  1  0
 14 15  2  0
 15 16  1  0
 16 17  2  0
 17 18  1  0
 18 19  2  0
 19 20  1  0
 19 21  1  0
 21 22  2  0
 22 23  1  0
 23 24  2  0
  6 25  1  0
 25 26  2  0
 26  3  1  0
 24 14  1  0
 23 17  1  0
  4 27  1  0
  5 28  1  0
  7 29  1  0
 10 30  1  0
 10 31  1  0
 11 32  1  0
 15 33  1  0
 16 34  1  0
 18 35  1  0
 21 36  1  0
 22 37  1  0
 25 38  1  0
 26 39  1  0
M  END
>  <smiles>  (2) 
N#Cc1ccc(NC(=O)CNC(=O)c2ccc3cc(Cl)ccc3n2)cc1

>  <score_type>  (2) 
oracle

>  <origin>  (2) 
autodockgpu

>  <m_score__min__energy>  (2) 
-8.3300000000000001

>  <m_primary>  (2) 
energy

>  <rmsd>  (2) 
2.5749076929691608

>  <m_score__min__rmsd>  (2) 
2.5749076929691608

>  <meeko>  (2) 
{"free_energy": -8.33, "intermolecular_energy": -9.82, "internal_energy": -0.95, "cluster_size": 21, "cluster_id": 1, "rank_in_cluster": 2}

>  <energy>  (2) 
-8.33

>  <cluster_rmsd>  (2) 
1.76

>  <cluster>  (2) 
1

$$$$

     RDKit          3D

 39 41  0  0  0  0  0  0  0  0999 V2000
  141.6080   67.4890  229.5950 N   0  0  0  0  0  0  0  0  0  0  0  0
  141.1900   68.1840  228.7650 C   0  0  0  0  0  0  0  0  0  0  0  0
  140.6780   69.0330  227.7280 C   0  0  0  0  0  0  0  0  0  0  0  0
  139.8640   68.4990  226.7570 C   0  0  0  0  0  0  0  0  0  0  0  0
  139.3380   69.2440  225.7380 C   0  0  0  0  0  0  0  0  0  0  0  0
  139.6090   70.6140  225.6330 C   0  0  0  0  0  0  0  0  0  0  0  0
  139.0300   71.3110  224.5530 N   0  0  0  0  0  0  0  0  0  0  0  0
  139.6180   71.5410  223.2950 C   0  0  0  0  0  0  0  0  0  0  0  0
  140.7620   71.1290  223.0000 O   0  0  0  0  0  0  0  0  0  0  0  0
  138.8820   72.2960  222.2540 C   0  0  0  0  0  0  0  0  0  0  0  0
  139.3290   73.6700  222.1600 N   0  0  0  0  0  0  0  0  0  0  0  0
  140.4180   74.0390  221.3270 C   0  0  0  0  0  0  0  0  0  0  0  0
  141.0300   73.1770  220.6410 O   0  0  0  0  0  0  0  0  0  0  0  0
  140.8050   75.4620  221.2940 C   0  0  0  0  0  0  0  0  0  0  0  0
  141.7430   75.9260  220.3960 C   0  0  0  0  0  0  0  0  0  0  0  0
  142.1110   77.2640  220.3600 C   0  0  0  0  0  0  0  0  0  0  0  0
  141.5190   78.1410  221.2450 C   0  0  0  0  0  0  0  0  0  0  0  0
  141.8160   79.4820  221.2880 C   0  0  0  0  0  0  0  0  0  0  0  0
  141.1690   80.2890  222.2140 C   0  0  0  0  0  0  0  0  0  0  0  0
  141.5180   82.0140  222.3030 Cl  0  0  0  0  0  0  0  0  0  0  0  0
  140.2330   79.8020  223.1020 C   0  0  0  0  0  0  0  0  0  0  0  0
  139.9400   78.4720  223.0570 C   0  0  0  0  0  0  0  0  0  0  0  0
  140.5820   77.6600  222.1360 C   0  0  0  0  0  0  0  0  0  0  0  0
  140.2610   76.3600  222.1320 N   0  0  0  0  0  0  0  0  0  0  0  0
  140.4150   71.1370  226.5950 C   0  0  0  0  0  0  0  0  0  0  0  0
  140.9560   70.3790  227.6420 C   0  0  0  0  0  0  0  0  0  0  0  0
  139.6256   67.4261  226.8018 H   0  0  0  0  0  0  0  0  0  0  0  0
  138.6927   68.7602  224.9900 H   0  0  0  0  0  0  0  0  0  0  0  0
  138.0530   71.7120  224.6810 H   0  0  0  0  0  0  0  0  0  0  0  0
  139.0383   71.8048  221.2823 H   0  0  0  0  0  0  0  0  0  0  0  0
  137.8173   72.3041  222.5301 H   0  0  0  0  0  0  0  0  0  0  0  0
  138.8420   74.4320  222.7210 H   0  0  0  0  0  0  0  0  0  0  0  0
  142.2098   75.2205  219.6929 H   0  0  0  0  0  0  0  0  0  0  0  0
  142.8616   77.6187  219.6383 H   0  0  0  0  0  0  0  0  0  0  0  0
  142.5571   79.9107  220.5973 H   0  0  0  0  0  0  0  0  0  0  0  0
  139.7379   80.4671  223.8248 H   0  0  0  0  0  0  0  0  0  0  0  0
  139.1980   78.0454  223.7480 H   0  0  0  0  0  0  0  0  0  0  0  0
  140.6545   72.2096  226.5491 H   0  0  0  0  0  0  0  0  0  0  0  0
  141.6011   70.8579  228.3933 H   0  0  0  0  0  0  0  0  0  0  0  0
  1  2  3  0
  2  3  1  0
  3  4  2  0
  4  5  1  0
  5  6  2  0
  6  7  1  0
  7  8  1  0
  8  9  2  0
  8 10  1  0
 10 11  1  0
 11 12  1  0
 12 13  2  0
 12 14  1  0
 14 15  2  0
 15 16  1  0
 16 17  2  0
 17 18  1  0
 18 19  2  0
 19 20  1  0
 19 21  1  0
 21 22  2  0
 22 23  1  0
 23 24  2  0
  6 25  1  0
 25 26  2  0
 26  3  1  0
 24 14  1  0
 23 17  1  0
  4 27  1  0
  5 28  1  0
  7 29  1  0
 10 30  1  0
 10 31  1  0
 11 32  1  0
 15 33  1  0
 16 34  1  0
 18 35  1  0
 21 36  1  0
 22 37  1  0
 25 38  1  0
 26 39  1  0
M  END
>  <smiles>  (3) 
N#Cc1ccc(NC(=O)CNC(=O)c2ccc3cc(Cl)ccc3n2)cc1

>  <score_type>  (3) 
oracle

>  <origin>  (3) 
autodockgpu

>  <m_score__min__energy>  (3) 
-8.3300000000000001

>  <m_primary>  (3) 
energy

>  <rmsd>  (3) 
8.72054303626016

>  <m_score__min__rmsd>  (3) 
8.72054303626016

>  <meeko>  (3) 
{"free_energy": -8.16, "intermolecular_energy": -9.65, "internal_energy": -1.1, "cluster_size": 28, "cluster_id": 2, "rank_in_cluster": 4}

>  <energy>  (3) 
-8.31

>  <cluster_rmsd>  (3) 
0.05

>  <cluster>  (3) 
1

$$$$

     RDKit          3D

 39 41  0  0  0  0  0  0  0  0999 V2000
  142.5520   81.9350  224.1980 N   0  0  0  0  0  0  0  0  0  0  0  0
  142.2390   80.9680  223.6380 C   0  0  0  0  0  0  0  0  0  0  0  0
  141.8390   79.7770  222.9450 C   0  0  0  0  0  0  0  0  0  0  0  0
  141.4530   78.6720  223.6680 C   0  0  0  0  0  0  0  0  0  0  0  0
  141.0590   77.5020  223.0800 C   0  0  0  0  0  0  0  0  0  0  0  0
  141.0290   77.3720  221.6860 C   0  0  0  0  0  0  0  0  0  0  0  0
  140.6110   76.1320  221.1570 N   0  0  0  0  0  0  0  0  0  0  0  0
  139.2870   75.7470  220.8780 C   0  0  0  0  0  0  0  0  0  0  0  0
  138.3080   76.5010  221.0780 O   0  0  0  0  0  0  0  0  0  0  0  0
  139.0020   74.4030  220.3220 C   0  0  0  0  0  0  0  0  0  0  0  0
  138.9860   73.3830  221.3490 N   0  0  0  0  0  0  0  0  0  0  0  0
  140.1340   73.1090  222.1380 C   0  0  0  0  0  0  0  0  0  0  0  0
  141.2050   73.7500  221.9670 O   0  0  0  0  0  0  0  0  0  0  0  0
  140.0270   72.0520  223.1620 C   0  0  0  0  0  0  0  0  0  0  0  0
  139.3710   70.8680  222.8990 C   0  0  0  0  0  0  0  0  0  0  0  0
  139.2680   69.8700  223.8580 C   0  0  0  0  0  0  0  0  0  0  0  0
  139.8360   70.0760  225.0970 C   0  0  0  0  0  0  0  0  0  0  0  0
  139.7870   69.1510  226.1120 C   0  0  0  0  0  0  0  0  0  0  0  0
  140.3890   69.4460  227.3280 C   0  0  0  0  0  0  0  0  0  0  0  0
  140.3520   68.2890  228.6550 Cl  0  0  0  0  0  0  0  0  0  0  0  0
  141.0390   70.6380  227.5670 C   0  0  0  0  0  0  0  0  0  0  0  0
  141.0870   71.5550  226.5590 C   0  0  0  0  0  0  0  0  0  0  0  0
  140.4890   71.2660  225.3430 C   0  0  0  0  0  0  0  0  0  0  0  0
  140.5620   72.1990  224.3850 N   0  0  0  0  0  0  0  0  0  0  0  0
  141.4110   78.4660  220.9760 C   0  0  0  0  0  0  0  0  0  0  0  0
  141.8150   79.6670  221.5730 C   0  0  0  0  0  0  0  0  0  0  0  0
  141.4617   78.7323  224.7663 H   0  0  0  0  0  0  0  0  0  0  0  0
  140.7615   76.6512  223.7107 H   0  0  0  0  0  0  0  0  0  0  0  0
  141.3540   75.4020  220.9430 H   0  0  0  0  0  0  0  0  0  0  0  0
  138.0197   74.4244  219.8275 H   0  0  0  0  0  0  0  0  0  0  0  0
  139.8015   74.1541  219.6087 H   0  0  0  0  0  0  0  0  0  0  0  0
  138.1040   72.8160  221.5290 H   0  0  0  0  0  0  0  0  0  0  0  0
  138.9198   70.7111  221.9082 H   0  0  0  0  0  0  0  0  0  0  0  0
  138.7420   68.9305  223.6331 H   0  0  0  0  0  0  0  0  0  0  0  0
  139.2768   68.1880  225.9629 H   0  0  0  0  0  0  0  0  0  0  0  0
  141.5051   70.8433  228.5420 H   0  0  0  0  0  0  0  0  0  0  0  0
  141.5971   72.5178  226.7102 H   0  0  0  0  0  0  0  0  0  0  0  0
  141.4025   78.4053  219.8777 H   0  0  0  0  0  0  0  0  0  0  0  0
  142.1126   80.5208  220.9466 H   0  0  0  0  0  0  0  0  0  0  0  0
  1  2  3  0
  2  3  1  0
  3  4  2  0
  4  5  1  0
  5  6  2  0
  6  7  1  0
  7  8  1  0
  8  9  2  0
  8 10  1  0
 10 11  1  0
 11 12  1  0
 12 13  2  0
 12 14  1  0
 14 15  2  0
 15 16  1  0
 16 17  2  0
 17 18  1  0
 18 19  2  0
 19 20  1  0
 19 21  1  0
 21 22  2  0
 22 23  1  0
 23 24  2  0
  6 25  1  0
 25 26  2  0
 26  3  1  0
 24 14  1  0
 23 17  1  0
  4 27  1  0
  5 28  1  0
  7 29  1  0
 10 30  1  0
 10 31  1  0
 11 32  1  0
 15 33  1  0
 16 34  1  0
 18 35  1  0
 21 36  1  0
 22 37  1  0
 25 38  1  0
 26 39  1  0
M  END
>  <smiles>  (4) 
N#Cc1ccc(NC(=O)CNC(=O)c2ccc3cc(Cl)ccc3n2)cc1

>  <score_type>  (4) 
oracle

>  <origin>  (4) 
autodockgpu

>  <m_score__min__energy>  (4) 
-8.3300000000000001

>  <m_primary>  (4) 
energy

>  <rmsd>  (4) 
2.989550920438892

>  <m_score__min__rmsd>  (4) 
2.989550920438892

>  <meeko>  (4) 
{"free_energy": -7.91, "intermolecular_energy": -9.4, "internal_energy": -1.47, "cluster_size": 21, "cluster_id": 1, "rank_in_cluster": 18}

>  <energy>  (4) 
-8.3

>  <cluster_rmsd>  (4) 
0.08

>  <cluster>  (4) 
1

$$$$

     RDKit          3D

 39 41  0  0  0  0  0  0  0  0999 V2000
  141.4040   67.7700  229.4670 N   0  0  0  0  0  0  0  0  0  0  0  0
  141.1130   68.3670  228.5140 C   0  0  0  0  0  0  0  0  0  0  0  0
  140.7550   69.1160  227.3450 C   0  0  0  0  0  0  0  0  0  0  0  0
  140.0900   68.4880  226.3180 C   0  0  0  0  0  0  0  0  0  0  0  0
  139.7150   69.1340  225.1720 C   0  0  0  0  0  0  0  0  0  0  0  0
  139.9970   70.4940  224.9880 C   0  0  0  0  0  0  0  0  0  0  0  0
  139.5780   71.0860  223.7790 N   0  0  0  0  0  0  0  0  0  0  0  0
  138.2670   71.4820  223.4530 C   0  0  0  0  0  0  0  0  0  0  0  0
  137.3040   71.3430  224.2400 O   0  0  0  0  0  0  0  0  0  0  0  0
  137.9780   72.0950  222.1340 C   0  0  0  0  0  0  0  0  0  0  0  0
  138.5620   73.4140  222.0090 N   0  0  0  0  0  0  0  0  0  0  0  0
  139.9160   73.5890  221.6190 C   0  0  0  0  0  0  0  0  0  0  0  0
  140.6530   72.5980  221.3690 O   0  0  0  0  0  0  0  0  0  0  0  0
  140.4280   74.9700  221.5170 C   0  0  0  0  0  0  0  0  0  0  0  0
  141.4250   75.2970  220.6220 C   0  0  0  0  0  0  0  0  0  0  0  0
  141.9090   76.5940  220.5210 C   0  0  0  0  0  0  0  0  0  0  0  0
  141.3760   77.5690  221.3370 C   0  0  0  0  0  0  0  0  0  0  0  0
  141.7880   78.8800  221.3140 C   0  0  0  0  0  0  0  0  0  0  0  0
  141.1920   79.7930  222.1730 C   0  0  0  0  0  0  0  0  0  0  0  0
  141.6880   81.4830  222.1750 Cl  0  0  0  0  0  0  0  0  0  0  0  0
  140.1960   79.4420  223.0600 C   0  0  0  0  0  0  0  0  0  0  0  0
  139.7890   78.1410  223.0820 C   0  0  0  0  0  0  0  0  0  0  0  0
  140.3790   77.2240  222.2260 C   0  0  0  0  0  0  0  0  0  0  0  0
  139.9450   75.9580  222.2860 N   0  0  0  0  0  0  0  0  0  0  0  0
  140.6540   71.1100  226.0050 C   0  0  0  0  0  0  0  0  0  0  0  0
  141.0400   70.4520  227.1810 C   0  0  0  0  0  0  0  0  0  0  0  0
  139.8492   67.4198  226.4226 H   0  0  0  0  0  0  0  0  0  0  0  0
  139.1850   68.5783  224.3844 H   0  0  0  0  0  0  0  0  0  0  0  0
  140.3080   71.2590  223.0240 H   0  0  0  0  0  0  0  0  0  0  0  0
  138.3886   71.4486  221.3444 H   0  0  0  0  0  0  0  0  0  0  0  0
  136.8869   72.1962  222.0382 H   0  0  0  0  0  0  0  0  0  0  0  0
  137.9790   74.2810  222.2090 H   0  0  0  0  0  0  0  0  0  0  0  0
  141.8455   74.5134  219.9745 H   0  0  0  0  0  0  0  0  0  0  0  0
  142.7044   76.8397  219.8020 H   0  0  0  0  0  0  0  0  0  0  0  0
  142.5809   79.2020  220.6228 H   0  0  0  0  0  0  0  0  0  0  0  0
  139.7438   80.1888  223.7292 H   0  0  0  0  0  0  0  0  0  0  0  0
  138.9970   77.8208  223.7750 H   0  0  0  0  0  0  0  0  0  0  0  0
  140.8951   72.1782  225.9005 H   0  0  0  0  0  0  0  0  0  0  0  0
  141.5701   71.0031  227.9718 H   0  0  0  0  0  0  0  0  0  0  0  0
  1  2  3  0
  2  3  1  0
  3  4  2  0
  4  5  1  0
  5  6  2  0
  6  7  1  0
  7  8  1  0
  8  9  2  0
  8 10  1  0
 10 11  1  0
 11 12  1  0
 12 13  2  0
 12 14  1  0
 14 15  2  0
 15 16  1  0
 16 17  2  0
 17 18  1  0
 18 19  2  0
 19 20  1  0
 19 21  1  0
 21 22  2  0
 22 23  1  0
 23 24  2  0
  6 25  1  0
 25 26  2  0
 26  3  1  0
 24 14  1  0
 23 17  1  0
  4 27  1  0
  5 28  1  0
  7 29  1  0
 10 30  1  0
 10 31  1  0
 11 32  1  0
 15 33  1  0
 16 34  1  0
 18 35  1  0
 21 36  1  0
 22 37  1  0
 25 38  1  0
 26 39  1  0
M  END
>  <smiles>  (5) 
N#Cc1ccc(NC(=O)CNC(=O)c2ccc3cc(Cl)ccc3n2)cc1

>  <score_type>  (5) 
oracle

>  <origin>  (5) 
autodockgpu

>  <m_score__min__energy>  (5) 
-8.3300000000000001

>  <m_primary>  (5) 
energy

>  <rmsd>  (5) 
8.36861085032732

>  <m_score__min__rmsd>  (5) 
8.36861085032732

>  <meeko>  (5) 
{"free_energy": -7.46, "intermolecular_energy": -8.95, "internal_energy": -1.75, "cluster_size": 28, "cluster_id": 2, "rank_in_cluster": 21}

>  <energy>  (5) 
-8.26

>  <cluster_rmsd>  (5) 
1.75

>  <cluster>  (5) 
1

$$$$

     RDKit          3D

 39 41  0  0  0  0  0  0  0  0999 V2000
  142.2700   82.0410  224.0310 N   0  0  0  0  0  0  0  0  0  0  0  0
  141.7870   81.0490  223.6720 C   0  0  0  0  0  0  0  0  0  0  0  0
  141.1970   79.8150  223.2380 C   0  0  0  0  0  0  0  0  0  0  0  0
  141.9430   78.9370  222.4870 C   0  0  0  0  0  0  0  0  0  0  0  0
  141.4510   77.7420  222.0370 C   0  0  0  0  0  0  0  0  0  0  0  0
  140.1380   77.3500  222.3280 C   0  0  0  0  0  0  0  0  0  0  0  0
  139.7070   76.1040  221.8270 N   0  0  0  0  0  0  0  0  0  0  0  0
  138.3720   75.6930  221.6480 C   0  0  0  0  0  0  0  0  0  0  0  0
  137.3970   76.4250  221.9260 O   0  0  0  0  0  0  0  0  0  0  0  0
  138.0730   74.3450  221.1080 C   0  0  0  0  0  0  0  0  0  0  0  0
  138.3250   73.3020  222.0810 N   0  0  0  0  0  0  0  0  0  0  0  0
  139.6460   72.9520  222.4650 C   0  0  0  0  0  0  0  0  0  0  0  0
  140.6430   73.5410  221.9690 O   0  0  0  0  0  0  0  0  0  0  0  0
  139.8090   71.8780  223.4630 C   0  0  0  0  0  0  0  0  0  0  0  0
  139.4230   70.5830  223.1880 C   0  0  0  0  0  0  0  0  0  0  0  0
  139.5730   69.5680  224.1220 C   0  0  0  0  0  0  0  0  0  0  0  0
  140.1220   69.8710  225.3500 C   0  0  0  0  0  0  0  0  0  0  0  0
  140.3120   68.9380  226.3420 C   0  0  0  0  0  0  0  0  0  0  0  0
  140.8730   69.3350  227.5480 C   0  0  0  0  0  0  0  0  0  0  0  0
  141.1350   68.1730  228.8450 Cl  0  0  0  0  0  0  0  0  0  0  0  0
  141.2520   70.6370  227.8010 C   0  0  0  0  0  0  0  0  0  0  0  0
  141.0630   71.5610  226.8160 C   0  0  0  0  0  0  0  0  0  0  0  0
  140.5030   71.1710  225.6100 C   0  0  0  0  0  0  0  0  0  0  0  0
  140.3370   72.1160  224.6750 N   0  0  0  0  0  0  0  0  0  0  0  0
  139.4060   78.2200  223.0700 C   0  0  0  0  0  0  0  0  0  0  0  0
  139.9050   79.4450  223.5340 C   0  0  0  0  0  0  0  0  0  0  0  0
  142.9797   79.2069  222.2373 H   0  0  0  0  0  0  0  0  0  0  0  0
  142.0950   77.0805  221.4389 H   0  0  0  0  0  0  0  0  0  0  0  0
  140.4450   75.3900  221.5530 H   0  0  0  0  0  0  0  0  0  0  0  0
  137.0138   74.3074  220.8135 H   0  0  0  0  0  0  0  0  0  0  0  0
  138.7326   74.1709  220.2451 H   0  0  0  0  0  0  0  0  0  0  0  0
  137.5140   72.7770  222.5280 H   0  0  0  0  0  0  0  0  0  0  0  0
  138.9862   70.3494  222.2058 H   0  0  0  0  0  0  0  0  0  0  0  0
  139.2596   68.5401  223.8870 H   0  0  0  0  0  0  0  0  0  0  0  0
  140.0227   67.8889  226.1817 H   0  0  0  0  0  0  0  0  0  0  0  0
  141.6932   70.9213  228.7677 H   0  0  0  0  0  0  0  0  0  0  0  0
  141.3533   72.6096  226.9779 H   0  0  0  0  0  0  0  0  0  0  0  0
  138.3693   77.9500  223.3196 H   0  0  0  0  0  0  0  0  0  0  0  0
  139.2651   80.1092  224.1335 H   0  0  0  0  0  0  0  0  0  0  0  0
  1  2  3  0
  2  3  1  0
  3  4  2  0
  4  5  1  0
  5  6  2  0
  6  7  1  0
  7  8  1  0
  8  9  2  0
  8 10  1  0
 10 11  1  0
 11 12  1  0
 12 13  2  0
 12 14  1  0
 14 15  2  0
 15 16  1  0
 16 17  2  0
 17 18  1  0
 18 19  2  0
 19 20  1  0
 19 21  1  0
 21 22  2  0
 22 23  1  0
 23 24  2  0
  6 25  1  0
 25 26  2  0
 26  3  1  0
 24 14  1  0
 23 17  1  0
  4 27  1  0
  5 28  1  0
  7 29  1  0
 10 30  1  0
 10 31  1  0
 11 32  1  0
 15 33  1  0
 16 34  1  0
 18 35  1  0
 21 36  1  0
 22 37  1  0
 25 38  1  0
 26 39  1  0
M  END
>  <smiles>  (6) 
N#Cc1ccc(NC(=O)CNC(=O)c2ccc3cc(Cl)ccc3n2)cc1

>  <score_type>  (6) 
oracle

>  <origin>  (6) 
autodockgpu

>  <m_score__min__energy>  (6) 
-8.3300000000000001

>  <m_primary>  (6) 
energy

>  <rmsd>  (6) 
2.6243249447089365

>  <m_score__min__rmsd>  (6) 
2.6243249447089365

>  <meeko>  (6) 
{"free_energy": -7.93, "intermolecular_energy": -9.42, "internal_energy": -1.48, "cluster_size": 21, "cluster_id": 1, "rank_in_cluster": 16}

>  <energy>  (6) 
-8.22

>  <cluster_rmsd>  (6) 
1.82

>  <cluster>  (6) 
1

$$$$

     RDKit          3D

 39 41  0  0  0  0  0  0  0  0999 V2000
  141.8960   67.6200  229.7680 N   0  0  0  0  0  0  0  0  0  0  0  0
  141.3940   68.1110  228.8440 C   0  0  0  0  0  0  0  0  0  0  0  0
  140.7630   68.7090  227.7020 C   0  0  0  0  0  0  0  0  0  0  0  0
  140.8750   70.0650  227.5020 C   0  0  0  0  0  0  0  0  0  0  0  0
  140.3020   70.7070  226.4380 C   0  0  0  0  0  0  0  0  0  0  0  0
  139.5600   69.9980  225.4840 C   0  0  0  0  0  0  0  0  0  0  0  0
  139.0020   70.7340  224.4180 N   0  0  0  0  0  0  0  0  0  0  0  0
  139.7110   71.4580  223.4410 C   0  0  0  0  0  0  0  0  0  0  0  0
  140.9600   71.5200  223.4210 O   0  0  0  0  0  0  0  0  0  0  0  0
  138.9810   72.1850  222.3760 C   0  0  0  0  0  0  0  0  0  0  0  0
  139.4090   73.5640  222.2690 N   0  0  0  0  0  0  0  0  0  0  0  0
  140.4550   73.9480  221.3880 C   0  0  0  0  0  0  0  0  0  0  0  0
  141.0420   73.0950  220.6690 O   0  0  0  0  0  0  0  0  0  0  0  0
  140.8260   75.3750  221.3430 C   0  0  0  0  0  0  0  0  0  0  0  0
  141.7570   75.8430  220.4400 C   0  0  0  0  0  0  0  0  0  0  0  0
  142.1100   77.1840  220.3940 C   0  0  0  0  0  0  0  0  0  0  0  0
  141.5110   78.0610  221.2730 C   0  0  0  0  0  0  0  0  0  0  0  0
  141.7930   79.4050  221.3070 C   0  0  0  0  0  0  0  0  0  0  0  0
  141.1390   80.2120  222.2280 C   0  0  0  0  0  0  0  0  0  0  0  0
  141.4690   81.9410  222.3050 Cl  0  0  0  0  0  0  0  0  0  0  0  0
  140.2110   79.7210  223.1230 C   0  0  0  0  0  0  0  0  0  0  0  0
  139.9320   78.3870  223.0880 C   0  0  0  0  0  0  0  0  0  0  0  0
  140.5810   77.5760  222.1700 C   0  0  0  0  0  0  0  0  0  0  0  0
  140.2740   76.2720  222.1760 N   0  0  0  0  0  0  0  0  0  0  0  0
  139.4530   68.6590  225.6870 C   0  0  0  0  0  0  0  0  0  0  0  0
  140.0370   67.9960  226.7750 C   0  0  0  0  0  0  0  0  0  0  0  0
  141.4496   70.6588  228.2282 H   0  0  0  0  0  0  0  0  0  0  0  0
  140.4256   71.7947  226.3302 H   0  0  0  0  0  0  0  0  0  0  0  0
  137.9420   70.7580  224.3260 H   0  0  0  0  0  0  0  0  0  0  0  0
  139.1614   71.6816  221.4147 H   0  0  0  0  0  0  0  0  0  0  0  0
  137.9115   72.1803  222.6333 H   0  0  0  0  0  0  0  0  0  0  0  0
  138.9430   74.3190  222.8560 H   0  0  0  0  0  0  0  0  0  0  0  0
  142.2302   75.1378  219.7408 H   0  0  0  0  0  0  0  0  0  0  0  0
  142.8554   77.5414  219.6683 H   0  0  0  0  0  0  0  0  0  0  0  0
  142.5286   79.8368  220.6124 H   0  0  0  0  0  0  0  0  0  0  0  0
  139.7113   80.3857  223.8430 H   0  0  0  0  0  0  0  0  0  0  0  0
  139.1966   77.9569  223.7838 H   0  0  0  0  0  0  0  0  0  0  0  0
  138.8789   68.0650  224.9606 H   0  0  0  0  0  0  0  0  0  0  0  0
  139.9155   66.9086  226.8878 H   0  0  0  0  0  0  0  0  0  0  0  0
  1  2  3  0
  2  3  1  0
  3  4  2  0
  4  5  1  0
  5  6  2  0
  6  7  1  0
  7  8  1  0
  8  9  2  0
  8 10  1  0
 10 11  1  0
 11 12  1  0
 12 13  2  0
 12 14  1  0
 14 15  2  0
 15 16  1  0
 16 17  2  0
 17 18  1  0
 18 19  2  0
 19 20  1  0
 19 21  1  0
 21 22  2  0
 22 23  1  0
 23 24  2  0
  6 25  1  0
 25 26  2  0
 26  3  1  0
 24 14  1  0
 23 17  1  0
  4 27  1  0
  5 28  1  0
  7 29  1  0
 10 30  1  0
 10 31  1  0
 11 32  1  0
 15 33  1  0
 16 34  1  0
 18 35  1  0
 21 36  1  0
 22 37  1  0
 25 38  1  0
 26 39  1  0
M  END
>  <smiles>  (7) 
N#Cc1ccc(NC(=O)CNC(=O)c2ccc3cc(Cl)ccc3n2)cc1

>  <score_type>  (7) 
oracle

>  <origin>  (7) 
autodockgpu

>  <m_score__min__energy>  (7) 
-8.3300000000000001

>  <m_primary>  (7) 
energy

>  <rmsd>  (7) 
8.601293389587589

>  <m_score__min__rmsd>  (7) 
8.601293389587589

>  <meeko>  (7) 
{"free_energy": -8.03, "intermolecular_energy": -9.52, "internal_energy": -1.1, "cluster_size": 28, "cluster_id": 2, "rank_in_cluster": 9}

>  <energy>  (7) 
-8.2

>  <cluster_rmsd>  (7) 
1.8

>  <cluster>  (7) 
1

$$$$

     RDKit          3D

 39 41  0  0  0  0  0  0  0  0999 V2000
  142.1280   81.4650  223.8490 N   0  0  0  0  0  0  0  0  0  0  0  0
  141.5220   80.5070  223.5990 C   0  0  0  0  0  0  0  0  0  0  0  0
  140.7800   79.3160  223.3000 C   0  0  0  0  0  0  0  0  0  0  0  0
  141.4560   78.1570  222.9980 C   0  0  0  0  0  0  0  0  0  0  0  0
  140.8190   76.9840  222.7030 C   0  0  0  0  0  0  0  0  0  0  0  0
  139.4210   76.9050  222.6950 C   0  0  0  0  0  0  0  0  0  0  0  0
  138.8410   75.6580  222.3800 N   0  0  0  0  0  0  0  0  0  0  0  0
  137.8390   75.4220  221.4200 C   0  0  0  0  0  0  0  0  0  0  0  0
  137.3440   76.3350  220.7220 O   0  0  0  0  0  0  0  0  0  0  0  0
  137.3260   74.0490  221.2000 C   0  0  0  0  0  0  0  0  0  0  0  0
  137.7400   73.1400  222.2480 N   0  0  0  0  0  0  0  0  0  0  0  0
  138.3270   71.8820  221.9470 C   0  0  0  0  0  0  0  0  0  0  0  0
  138.5060   71.5200  220.7540 O   0  0  0  0  0  0  0  0  0  0  0  0
  138.7190   71.0200  223.0780 C   0  0  0  0  0  0  0  0  0  0  0  0
  138.3810   69.6830  223.1070 C   0  0  0  0  0  0  0  0  0  0  0  0
  138.7470   68.8670  224.1680 C   0  0  0  0  0  0  0  0  0  0  0  0
  139.4650   69.4130  225.2110 C   0  0  0  0  0  0  0  0  0  0  0  0
  139.8730   68.6890  226.3050 C   0  0  0  0  0  0  0  0  0  0  0  0
  140.5940   69.3240  227.3080 C   0  0  0  0  0  0  0  0  0  0  0  0
  141.1380   68.4350  228.7270 Cl  0  0  0  0  0  0  0  0  0  0  0  0
  140.9200   70.6630  227.2570 C   0  0  0  0  0  0  0  0  0  0  0  0
  140.5150   71.3800  226.1700 C   0  0  0  0  0  0  0  0  0  0  0  0
  139.7960   70.7510  225.1660 C   0  0  0  0  0  0  0  0  0  0  0  0
  139.4190   71.4990  224.1190 N   0  0  0  0  0  0  0  0  0  0  0  0
  138.7580   78.0530  222.9940 C   0  0  0  0  0  0  0  0  0  0  0  0
  139.4050   79.2580  223.2980 C   0  0  0  0  0  0  0  0  0  0  0  0
  142.5558   78.1746  222.9936 H   0  0  0  0  0  0  0  0  0  0  0  0
  141.4136   76.0888  222.4684 H   0  0  0  0  0  0  0  0  0  0  0  0
  139.1800   74.8000  222.9080 H   0  0  0  0  0  0  0  0  0  0  0  0
  136.2268   74.0811  221.1717 H   0  0  0  0  0  0  0  0  0  0  0  0
  137.7385   73.6809  220.2490 H   0  0  0  0  0  0  0  0  0  0  0  0
  137.6090   73.4030  223.2700 H   0  0  0  0  0  0  0  0  0  0  0  0
  137.8089   69.2544  222.2709 H   0  0  0  0  0  0  0  0  0  0  0  0
  138.4691   67.8027  224.1769 H   0  0  0  0  0  0  0  0  0  0  0  0
  139.6315   67.6189  226.3856 H   0  0  0  0  0  0  0  0  0  0  0  0
  141.4897   71.1385  228.0689 H   0  0  0  0  0  0  0  0  0  0  0  0
  140.7573   72.4500  226.0907 H   0  0  0  0  0  0  0  0  0  0  0  0
  137.6581   78.0353  222.9975 H   0  0  0  0  0  0  0  0  0  0  0  0
  138.8152   80.1558  223.5346 H   0  0  0  0  0  0  0  0  0  0  0  0
  1  2  3  0
  2  3  1  0
  3  4  2  0
  4  5  1  0
  5  6  2  0
  6  7  1  0
  7  8  1  0
  8  9  2  0
  8 10  1  0
 10 11  1  0
 11 12  1  0
 12 13  2  0
 12 14  1  0
 14 15  2  0
 15 16  1  0
 16 17  2  0
 17 18  1  0
 18 19  2  0
 19 20  1  0
 19 21  1  0
 21 22  2  0
 22 23  1  0
 23 24  2  0
  6 25  1  0
 25 26  2  0
 26  3  1  0
 24 14  1  0
 23 17  1  0
  4 27  1  0
  5 28  1  0
  7 29  1  0
 10 30  1  0
 10 31  1  0
 11 32  1  0
 15 33  1  0
 16 34  1  0
 18 35  1  0
 21 36  1  0
 22 37  1  0
 25 38  1  0
 26 39  1  0
M  END
>  <smiles>  (8) 
N#Cc1ccc(NC(=O)CNC(=O)c2ccc3cc(Cl)ccc3n2)cc1

>  <score_type>  (8) 
oracle

>  <origin>  (8) 
autodockgpu

>  <m_score__min__energy>  (8) 
-8.3300000000000001

>  <m_primary>  (8) 
energy

>  <rmsd>  (8) 
2.5789345095498106

>  <m_score__min__rmsd>  (8) 
2.5789345095498106

>  <meeko>  (8) 
{"free_energy": -8.03, "intermolecular_energy": -9.52, "internal_energy": -0.97, "cluster_size": 1, "cluster_id": 3, "rank_in_cluster": 1}

>  <energy>  (8) 
-8.14

>  <cluster_rmsd>  (8) 
1.89

>  <cluster>  (8) 
1

$$$$

     RDKit          3D

 39 41  0  0  0  0  0  0  0  0999 V2000
  142.6000   81.9020  224.1210 N   0  0  0  0  0  0  0  0  0  0  0  0
  142.2300   80.9430  223.5810 C   0  0  0  0  0  0  0  0  0  0  0  0
  141.7860   79.7520  222.9170 C   0  0  0  0  0  0  0  0  0  0  0  0
  141.4730   78.6390  223.6620 C   0  0  0  0  0  0  0  0  0  0  0  0
  141.0430   77.4680  223.1010 C   0  0  0  0  0  0  0  0  0  0  0  0
  140.8980   77.3450  221.7140 C   0  0  0  0  0  0  0  0  0  0  0  0
  140.4500   76.1040  221.2140 N   0  0  0  0  0  0  0  0  0  0  0  0
  139.1170   75.6580  221.1600 C   0  0  0  0  0  0  0  0  0  0  0  0
  138.1560   76.3500  221.5650 O   0  0  0  0  0  0  0  0  0  0  0  0
  138.7990   74.3210  220.6050 C   0  0  0  0  0  0  0  0  0  0  0  0
  138.8800   73.2820  221.6100 N   0  0  0  0  0  0  0  0  0  0  0  0
  140.1040   72.9770  222.2630 C   0  0  0  0  0  0  0  0  0  0  0  0
  141.1600   73.6050  221.9850 O   0  0  0  0  0  0  0  0  0  0  0  0
  140.0930   71.9040  223.2740 C   0  0  0  0  0  0  0  0  0  0  0  0
  139.6020   70.6490  222.9790 C   0  0  0  0  0  0  0  0  0  0  0  0
  139.5890   69.6350  223.9260 C   0  0  0  0  0  0  0  0  0  0  0  0
  140.0820   69.8970  225.1870 C   0  0  0  0  0  0  0  0  0  0  0  0
  140.1120   68.9610  226.1930 C   0  0  0  0  0  0  0  0  0  0  0  0
  140.6270   69.3150  227.4330 C   0  0  0  0  0  0  0  0  0  0  0  0
  140.6860   68.1480  228.7510 Cl  0  0  0  0  0  0  0  0  0  0  0  0
  141.1130   70.5770  227.7060 C   0  0  0  0  0  0  0  0  0  0  0  0
  141.0820   71.5040  226.7060 C   0  0  0  0  0  0  0  0  0  0  0  0
  140.5690   71.1570  225.4660 C   0  0  0  0  0  0  0  0  0  0  0  0
  140.5600   72.1030  224.5180 N   0  0  0  0  0  0  0  0  0  0  0  0
  141.2080   78.4470  220.9820 C   0  0  0  0  0  0  0  0  0  0  0  0
  141.6490   79.6500  221.5510 C   0  0  0  0  0  0  0  0  0  0  0  0
  141.5728   78.6929  224.7561 H   0  0  0  0  0  0  0  0  0  0  0  0
  140.8078   76.6107  223.7489 H   0  0  0  0  0  0  0  0  0  0  0  0
  141.1760   75.4230  220.8380 H   0  0  0  0  0  0  0  0  0  0  0  0
  137.7781   74.3402  220.1959 H   0  0  0  0  0  0  0  0  0  0  0  0
  139.5378   74.0942  219.8222 H   0  0  0  0  0  0  0  0  0  0  0  0
  138.0140   72.7260  221.8780 H   0  0  0  0  0  0  0  0  0  0  0  0
  139.2120   70.4477  221.9703 H   0  0  0  0  0  0  0  0  0  0  0  0
  139.1926   68.6400  223.6754 H   0  0  0  0  0  0  0  0  0  0  0  0
  139.7325   67.9435  226.0179 H   0  0  0  0  0  0  0  0  0  0  0  0
  141.5131   70.8278  228.6995 H   0  0  0  0  0  0  0  0  0  0  0  0
  141.4619   72.5211  226.8825 H   0  0  0  0  0  0  0  0  0  0  0  0
  141.1079   78.3925  219.8879 H   0  0  0  0  0  0  0  0  0  0  0  0
  141.8850   80.5103  220.9075 H   0  0  0  0  0  0  0  0  0  0  0  0
  1  2  3  0
  2  3  1  0
  3  4  2  0
  4  5  1  0
  5  6  2  0
  6  7  1  0
  7  8  1  0
  8  9  2  0
  8 10  1  0
 10 11  1  0
 11 12  1  0
 12 13  2  0
 12 14  1  0
 14 15  2  0
 15 16  1  0
 16 17  2  0
 17 18  1  0
 18 19  2  0
 19 20  1  0
 19 21  1  0
 21 22  2  0
 22 23  1  0
 23 24  2  0
  6 25  1  0
 25 26  2  0
 26  3  1  0
 24 14  1  0
 23 17  1  0
  4 27  1  0
  5 28  1  0
  7 29  1  0
 10 30  1  0
 10 31  1  0
 11 32  1  0
 15 33  1  0
 16 34  1  0
 18 35  1  0
 21 36  1  0
 22 37  1  0
 25 38  1  0
 26 39  1  0
M  END
>  <smiles>  (9) 
N#Cc1ccc(NC(=O)CNC(=O)c2ccc3cc(Cl)ccc3n2)cc1

>  <score_type>  (9) 
oracle

>  <origin>  (9) 
autodockgpu

>  <m_score__min__energy>  (9) 
-8.3300000000000001

>  <m_primary>  (9) 
energy

>  <rmsd>  (9) 
2.9327684087633683

>  <m_score__min__rmsd>  (9) 
2.9327684087633683

>  <meeko>  (9) 
{"free_energy": -8.01, "intermolecular_energy": -9.5, "internal_energy": -1.51, "cluster_size": 21, "cluster_id": 1, "rank_in_cluster": 12}

>  <energy>  (9) 
-8.14

>  <cluster_rmsd>  (9) 
1.87

>  <cluster>  (9) 
1

$$$$

     RDKit          3D

 39 41  0  0  0  0  0  0  0  0999 V2000
  142.2030   81.6600  223.7630 N   0  0  0  0  0  0  0  0  0  0  0  0
  141.5870   80.7020  223.5380 C   0  0  0  0  0  0  0  0  0  0  0  0
  140.8360   79.5110  223.2630 C   0  0  0  0  0  0  0  0  0  0  0  0
  141.5030   78.3440  222.9720 C   0  0  0  0  0  0  0  0  0  0  0  0
  140.8580   77.1700  222.7000 C   0  0  0  0  0  0  0  0  0  0  0  0
  139.4590   77.0980  222.7060 C   0  0  0  0  0  0  0  0  0  0  0  0
  138.8710   75.8500  222.4150 N   0  0  0  0  0  0  0  0  0  0  0  0
  138.7650   75.2530  221.1450 C   0  0  0  0  0  0  0  0  0  0  0  0
  139.2040   75.7930  220.1050 O   0  0  0  0  0  0  0  0  0  0  0  0
  138.1160   73.9290  220.9940 C   0  0  0  0  0  0  0  0  0  0  0  0
  138.4850   73.0180  222.0580 N   0  0  0  0  0  0  0  0  0  0  0  0
  138.3070   71.6160  221.9270 C   0  0  0  0  0  0  0  0  0  0  0  0
  137.8200   71.1200  220.8760 O   0  0  0  0  0  0  0  0  0  0  0  0
  138.7120   70.7640  223.0610 C   0  0  0  0  0  0  0  0  0  0  0  0
  138.4450   69.4110  223.0690 C   0  0  0  0  0  0  0  0  0  0  0  0
  138.8230   68.6040  224.1330 C   0  0  0  0  0  0  0  0  0  0  0  0
  139.4810   69.1770  225.2010 C   0  0  0  0  0  0  0  0  0  0  0  0
  139.8960   68.4640  226.3000 C   0  0  0  0  0  0  0  0  0  0  0  0
  140.5520   69.1260  227.3290 C   0  0  0  0  0  0  0  0  0  0  0  0
  141.1020   68.2520  228.7560 Cl  0  0  0  0  0  0  0  0  0  0  0  0
  140.8080   70.4810  227.2990 C   0  0  0  0  0  0  0  0  0  0  0  0
  140.3960   71.1860  226.2070 C   0  0  0  0  0  0  0  0  0  0  0  0
  139.7410   70.5310  225.1770 C   0  0  0  0  0  0  0  0  0  0  0  0
  139.3550   71.2680  224.1270 N   0  0  0  0  0  0  0  0  0  0  0  0
  138.8050   78.2530  222.9950 C   0  0  0  0  0  0  0  0  0  0  0  0
  139.4600   79.4600  223.2750 C   0  0  0  0  0  0  0  0  0  0  0  0
  142.6028   78.3559  222.9575 H   0  0  0  0  0  0  0  0  0  0  0  0
  141.4461   76.2685  222.4731 H   0  0  0  0  0  0  0  0  0  0  0  0
  138.4590   75.2890  223.2190 H   0  0  0  0  0  0  0  0  0  0  0  0
  137.0245   74.0653  221.0061 H   0  0  0  0  0  0  0  0  0  0  0  0
  138.4526   73.4928  220.0419 H   0  0  0  0  0  0  0  0  0  0  0  0
  138.9000   73.3910  222.9640 H   0  0  0  0  0  0  0  0  0  0  0  0
  137.9207   68.9614  222.2129 H   0  0  0  0  0  0  0  0  0  0  0  0
  138.6017   67.5265  224.1246 H   0  0  0  0  0  0  0  0  0  0  0  0
  139.7106   67.3816  226.3637 H   0  0  0  0  0  0  0  0  0  0  0  0
  141.3288   70.9778  228.1308 H   0  0  0  0  0  0  0  0  0  0  0  0
  140.5826   72.2682  226.1443 H   0  0  0  0  0  0  0  0  0  0  0  0
  137.7052   78.2403  223.0100 H   0  0  0  0  0  0  0  0  0  0  0  0
  138.8765   80.3640  223.5037 H   0  0  0  0  0  0  0  0  0  0  0  0
  1  2  3  0
  2  3  1  0
  3  4  2  0
  4  5  1  0
  5  6  2  0
  6  7  1  0
  7  8  1  0
  8  9  2  0
  8 10  1  0
 10 11  1  0
 11 12  1  0
 12 13  2  0
 12 14  1  0
 14 15  2  0
 15 16  1  0
 16 17  2  0
 17 18  1  0
 18 19  2  0
 19 20  1  0
 19 21  1  0
 21 22  2  0
 22 23  1  0
 23 24  2  0
  6 25  1  0
 25 26  2  0
 26  3  1  0
 24 14  1  0
 23 17  1  0
  4 27  1  0
  5 28  1  0
  7 29  1  0
 10 30  1  0
 10 31  1  0
 11 32  1  0
 15 33  1  0
 16 34  1  0
 18 35  1  0
 21 36  1  0
 22 37  1  0
 25 38  1  0
 26 39  1  0
M  END
>  <smiles>  (10) 
N#Cc1ccc(NC(=O)CNC(=O)c2ccc3cc(Cl)ccc3n2)cc1

>  <score_type>  (10) 
oracle

>  <origin>  (10) 
autodockgpu

>  <m_score__min__energy>  (10) 
-8.3300000000000001

>  <m_primary>  (10) 
energy

>  <rmsd>  (10) 
2.515843616812385

>  <m_score__min__rmsd>  (10) 
2.515843616812385

>  <meeko>  (10) 
{"free_energy": -8.14, "intermolecular_energy": -9.63, "internal_energy": -1.1, "cluster_size": 21, "cluster_id": 1, "rank_in_cluster": 9}

>  <energy>  (10) 
-8.13

>  <cluster_rmsd>  (10) 
1.77

>  <cluster>  (10) 
1

$$$$

     RDKit          3D

 39 41  0  0  0  0  0  0  0  0999 V2000
  141.6670   67.7610  229.4790 N   0  0  0  0  0  0  0  0  0  0  0  0
  141.2210   68.2150  228.5090 C   0  0  0  0  0  0  0  0  0  0  0  0
  140.6570   68.7760  227.3150 C   0  0  0  0  0  0  0  0  0  0  0  0
  140.8790   70.1010  227.0200 C   0  0  0  0  0  0  0  0  0  0  0  0
  140.3760   70.7060  225.9020 C   0  0  0  0  0  0  0  0  0  0  0  0
  139.5950   69.9900  224.9860 C   0  0  0  0  0  0  0  0  0  0  0  0
  139.1130   70.6880  223.8580 N   0  0  0  0  0  0  0  0  0  0  0  0
  137.8050   71.1740  223.6740 C   0  0  0  0  0  0  0  0  0  0  0  0
  136.9040   71.0310  224.5300 O   0  0  0  0  0  0  0  0  0  0  0  0
  137.4450   71.8920  222.4280 C   0  0  0  0  0  0  0  0  0  0  0  0
  138.1440   73.1540  222.3060 N   0  0  0  0  0  0  0  0  0  0  0  0
  139.4520   73.2250  221.7580 C   0  0  0  0  0  0  0  0  0  0  0  0
  140.0450   72.1880  221.3590 O   0  0  0  0  0  0  0  0  0  0  0  0
  140.0890   74.5530  221.6730 C   0  0  0  0  0  0  0  0  0  0  0  0
  141.2190   74.7560  220.9080 C   0  0  0  0  0  0  0  0  0  0  0  0
  141.8220   76.0030  220.8240 C   0  0  0  0  0  0  0  0  0  0  0  0
  141.2720   77.0560  221.5230 C   0  0  0  0  0  0  0  0  0  0  0  0
  141.7940   78.3270  221.5050 C   0  0  0  0  0  0  0  0  0  0  0  0
  141.1720   79.3270  222.2410 C   0  0  0  0  0  0  0  0  0  0  0  0
  141.8070   80.9700  222.2460 Cl  0  0  0  0  0  0  0  0  0  0  0  0
  140.0420   79.1000  222.9990 C   0  0  0  0  0  0  0  0  0  0  0  0
  139.5250   77.8390  223.0150 C   0  0  0  0  0  0  0  0  0  0  0  0
  140.1410   76.8370  222.2830 C   0  0  0  0  0  0  0  0  0  0  0  0
  139.5960   75.6140  222.3320 N   0  0  0  0  0  0  0  0  0  0  0  0
  139.3780   68.6820  225.2810 C   0  0  0  0  0  0  0  0  0  0  0  0
  139.8920   68.0560  226.4250 C   0  0  0  0  0  0  0  0  0  0  0  0
  141.4876   70.6997  227.7137 H   0  0  0  0  0  0  0  0  0  0  0  0
  140.5876   71.7699  225.7193 H   0  0  0  0  0  0  0  0  0  0  0  0
  139.7870   70.8730  223.0570 H   0  0  0  0  0  0  0  0  0  0  0  0
  137.7031   71.2587  221.5664 H   0  0  0  0  0  0  0  0  0  0  0  0
  136.3660   72.1037  222.4584 H   0  0  0  0  0  0  0  0  0  0  0  0
  137.6830   74.0560  222.6300 H   0  0  0  0  0  0  0  0  0  0  0  0
  141.6515   73.9108  220.3524 H   0  0  0  0  0  0  0  0  0  0  0  0
  142.7232   76.1486  220.2103 H   0  0  0  0  0  0  0  0  0  0  0  0
  142.6947   78.5499  220.9141 H   0  0  0  0  0  0  0  0  0  0  0  0
  139.5724   79.9122  223.5732 H   0  0  0  0  0  0  0  0  0  0  0  0
  138.6238   77.6181  223.6058 H   0  0  0  0  0  0  0  0  0  0  0  0
  138.7684   68.0841  224.5875 H   0  0  0  0  0  0  0  0  0  0  0  0
  139.6846   66.9919  226.6113 H   0  0  0  0  0  0  0  0  0  0  0  0
  1  2  3  0
  2  3  1  0
  3  4  2  0
  4  5  1  0
  5  6  2  0
  6  7  1  0
  7  8  1  0
  8  9  2  0
  8 10  1  0
 10 11  1  0
 11 12  1  0
 12 13  2  0
 12 14  1  0
 14 15  2  0
 15 16  1  0
 16 17  2  0
 17 18  1  0
 18 19  2  0
 19 20  1  0
 19 21  1  0
 21 22  2  0
 22 23  1  0
 23 24  2  0
  6 25  1  0
 25 26  2  0
 26  3  1  0
 24 14  1  0
 23 17  1  0
  4 27  1  0
  5 28  1  0
  7 29  1  0
 10 30  1  0
 10 31  1  0
 11 32  1  0
 15 33  1  0
 16 34  1  0
 18 35  1  0
 21 36  1  0
 22 37  1  0
 25 38  1  0
 26 39  1  0
M  END
>  <smiles>  (11) 
N#Cc1ccc(NC(=O)CNC(=O)c2ccc3cc(Cl)ccc3n2)cc1

>  <score_type>  (11) 
oracle

>  <origin>  (11) 
autodockgpu

>  <m_score__min__energy>  (11) 
-8.3300000000000001

>  <m_primary>  (11) 
energy

>  <rmsd>  (11) 
8.05800952856065

>  <m_score__min__rmsd>  (11) 
8.05800952856065

>  <meeko>  (11) 
{"free_energy": -7.4, "intermolecular_energy": -8.89, "internal_energy": -1.84, "cluster_size": 28, "cluster_id": 2, "rank_in_cluster": 26}

>  <energy>  (11) 
-8.02

>  <cluster_rmsd>  (11) 
1.38

>  <cluster>  (11) 
1

$$$$

     RDKit          3D

 39 41  0  0  0  0  0  0  0  0999 V2000
  142.5500   82.0120  224.1930 N   0  0  0  0  0  0  0  0  0  0  0  0
  142.2190   81.0420  223.6480 C   0  0  0  0  0  0  0  0  0  0  0  0
  141.8050   79.8510  222.9630 C   0  0  0  0  0  0  0  0  0  0  0  0
  141.4860   78.7290  223.6920 C   0  0  0  0  0  0  0  0  0  0  0  0
  141.0840   77.5580  223.1120 C   0  0  0  0  0  0  0  0  0  0  0  0
  140.9740   77.4440  221.7210 C   0  0  0  0  0  0  0  0  0  0  0  0
  140.5530   76.2030  221.2010 N   0  0  0  0  0  0  0  0  0  0  0  0
  139.2230   75.7830  221.0150 C   0  0  0  0  0  0  0  0  0  0  0  0
  138.2410   76.5030  221.3030 O   0  0  0  0  0  0  0  0  0  0  0  0
  138.9350   74.4410  220.4550 C   0  0  0  0  0  0  0  0  0  0  0  0
  138.9650   73.4110  221.4720 N   0  0  0  0  0  0  0  0  0  0  0  0
  140.1630   73.0860  222.1610 C   0  0  0  0  0  0  0  0  0  0  0  0
  141.2410   73.6880  221.9060 O   0  0  0  0  0  0  0  0  0  0  0  0
  140.1010   72.0220  223.1810 C   0  0  0  0  0  0  0  0  0  0  0  0
  139.5370   70.7960  222.9010 C   0  0  0  0  0  0  0  0  0  0  0  0
  139.4760   69.7920  223.8570 C   0  0  0  0  0  0  0  0  0  0  0  0
  139.9940   70.0350  225.1110 C   0  0  0  0  0  0  0  0  0  0  0  0
  139.9810   69.1070  226.1250 C   0  0  0  0  0  0  0  0  0  0  0  0
  140.5280   69.4410  227.3570 C   0  0  0  0  0  0  0  0  0  0  0  0
  140.5330   68.2820  228.6830 Cl  0  0  0  0  0  0  0  0  0  0  0  0
  141.0870   70.6750  227.6140 C   0  0  0  0  0  0  0  0  0  0  0  0
  141.0990   71.5940  226.6070 C   0  0  0  0  0  0  0  0  0  0  0  0
  140.5560   71.2670  225.3750 C   0  0  0  0  0  0  0  0  0  0  0  0
  140.5910   72.2040  224.4190 N   0  0  0  0  0  0  0  0  0  0  0  0
  141.2910   78.5550  221.0050 C   0  0  0  0  0  0  0  0  0  0  0  0
  141.7030   79.7580  221.5940 C   0  0  0  0  0  0  0  0  0  0  0  0
  141.5574   78.7759  224.7887 H   0  0  0  0  0  0  0  0  0  0  0  0
  140.8435   76.6929  223.7475 H   0  0  0  0  0  0  0  0  0  0  0  0
  141.2980   75.4990  220.9170 H   0  0  0  0  0  0  0  0  0  0  0  0
  137.9365   74.4555  219.9936 H   0  0  0  0  0  0  0  0  0  0  0  0
  139.7129   74.2084  219.7129 H   0  0  0  0  0  0  0  0  0  0  0  0
  138.0800   72.8760  221.7210 H   0  0  0  0  0  0  0  0  0  0  0  0
  139.1263   70.6093  221.8978 H   0  0  0  0  0  0  0  0  0  0  0  0
  139.0220   68.8189  223.6182 H   0  0  0  0  0  0  0  0  0  0  0  0
  139.5424   68.1114  225.9625 H   0  0  0  0  0  0  0  0  0  0  0  0
  141.5104   70.9108  228.6015 H   0  0  0  0  0  0  0  0  0  0  0  0
  141.5373   72.5894  226.7717 H   0  0  0  0  0  0  0  0  0  0  0  0
  141.2206   78.5075  219.9083 H   0  0  0  0  0  0  0  0  0  0  0  0
  141.9444   80.6262  220.9631 H   0  0  0  0  0  0  0  0  0  0  0  0
  1  2  3  0
  2  3  1  0
  3  4  2  0
  4  5  1  0
  5  6  2  0
  6  7  1  0
  7  8  1  0
  8  9  2  0
  8 10  1  0
 10 11  1  0
 11 12  1  0
 12 13  2  0
 12 14  1  0
 14 15  2  0
 15 16  1  0
 16 17  2  0
 17 18  1  0
 18 19  2  0
 19 20  1  0
 19 21  1  0
 21 22  2  0
 22 23  1  0
 23 24  2  0
  6 25  1  0
 25 26  2  0
 26  3  1  0
 24 14  1  0
 23 17  1  0
  4 27  1  0
  5 28  1  0
  7 29  1  0
 10 30  1  0
 10 31  1  0
 11 32  1  0
 15 33  1  0
 16 34  1  0
 18 35  1  0
 21 36  1  0
 22 37  1  0
 25 38  1  0
 26 39  1  0
M  END
>  <smiles>  (12) 
N#Cc1ccc(NC(=O)CNC(=O)c2ccc3cc(Cl)ccc3n2)cc1

>  <score_type>  (12) 
oracle

>  <origin>  (12) 
autodockgpu

>  <m_score__min__energy>  (12) 
-8.3300000000000001

>  <m_primary>  (12) 
energy

>  <rmsd>  (12) 
2.9962395130374997

>  <m_score__min__rmsd>  (12) 
2.9962395130374997

>  <meeko>  (12) 
{"free_energy": -7.91, "intermolecular_energy": -9.4, "internal_energy": -1.51, "cluster_size": 21, "cluster_id": 1, "rank_in_cluster": 17}

>  <energy>  (12) 
-8.01

>  <cluster_rmsd>  (12) 
1.28

>  <cluster>  (12) 
1

$$$$

     RDKit          3D

 39 41  0  0  0  0  0  0  0  0999 V2000
  141.5860   67.5400  229.5560 N   0  0  0  0  0  0  0  0  0  0  0  0
  141.1870   68.2340  228.7160 C   0  0  0  0  0  0  0  0  0  0  0  0
  140.6810   69.0920  227.6830 C   0  0  0  0  0  0  0  0  0  0  0  0
  139.8160   68.5800  226.7440 C   0  0  0  0  0  0  0  0  0  0  0  0
  139.2920   69.3340  225.7300 C   0  0  0  0  0  0  0  0  0  0  0  0
  139.6190   70.6900  225.5980 C   0  0  0  0  0  0  0  0  0  0  0  0
  139.0370   71.3970  224.5260 N   0  0  0  0  0  0  0  0  0  0  0  0
  139.5750   71.5440  223.2330 C   0  0  0  0  0  0  0  0  0  0  0  0
  140.6670   71.0370  222.8940 O   0  0  0  0  0  0  0  0  0  0  0  0
  138.8430   72.3210  222.2050 C   0  0  0  0  0  0  0  0  0  0  0  0
  139.3010   73.6930  222.1340 N   0  0  0  0  0  0  0  0  0  0  0  0
  140.3800   74.0700  221.2910 C   0  0  0  0  0  0  0  0  0  0  0  0
  140.9730   73.2190  220.5760 O   0  0  0  0  0  0  0  0  0  0  0  0
  140.7800   75.4910  221.2820 C   0  0  0  0  0  0  0  0  0  0  0  0
  141.7270   75.9600  220.3960 C   0  0  0  0  0  0  0  0  0  0  0  0
  142.1070   77.2950  220.3830 C   0  0  0  0  0  0  0  0  0  0  0  0
  141.5180   78.1630  221.2780 C   0  0  0  0  0  0  0  0  0  0  0  0
  141.8260   79.5010  221.3440 C   0  0  0  0  0  0  0  0  0  0  0  0
  141.1810   80.3000  222.2780 C   0  0  0  0  0  0  0  0  0  0  0  0
  141.5440   82.0190  222.3970 Cl  0  0  0  0  0  0  0  0  0  0  0  0
  140.2360   79.8070  223.1540 C   0  0  0  0  0  0  0  0  0  0  0  0
  139.9320   78.4800  223.0870 C   0  0  0  0  0  0  0  0  0  0  0  0
  140.5720   77.6770  222.1560 C   0  0  0  0  0  0  0  0  0  0  0  0
  140.2390   76.3800  222.1310 N   0  0  0  0  0  0  0  0  0  0  0  0
  140.4740   71.1900  226.5280 C   0  0  0  0  0  0  0  0  0  0  0  0
  141.0140   70.4230  227.5690 C   0  0  0  0  0  0  0  0  0  0  0  0
  139.5336   67.5190  226.8114 H   0  0  0  0  0  0  0  0  0  0  0  0
  138.6043   68.8692  225.0081 H   0  0  0  0  0  0  0  0  0  0  0  0
  138.1020   71.8760  224.6880 H   0  0  0  0  0  0  0  0  0  0  0  0
  138.9946   71.8448  221.2251 H   0  0  0  0  0  0  0  0  0  0  0  0
  137.7784   72.3320  222.4815 H   0  0  0  0  0  0  0  0  0  0  0  0
  138.8310   74.4470  222.7190 H   0  0  0  0  0  0  0  0  0  0  0  0
  142.1912   75.2613  219.6844 H   0  0  0  0  0  0  0  0  0  0  0  0
  142.8648   77.6542  219.6711 H   0  0  0  0  0  0  0  0  0  0  0  0
  142.5750   79.9336  220.6644 H   0  0  0  0  0  0  0  0  0  0  0  0
  139.7427   80.4650  223.8845 H   0  0  0  0  0  0  0  0  0  0  0  0
  139.1832   78.0489  223.7678 H   0  0  0  0  0  0  0  0  0  0  0  0
  140.7567   72.2509  226.4603 H   0  0  0  0  0  0  0  0  0  0  0  0
  141.7022   70.8832  228.2933 H   0  0  0  0  0  0  0  0  0  0  0  0
  1  2  3  0
  2  3  1  0
  3  4  2  0
  4  5  1  0
  5  6  2  0
  6  7  1  0
  7  8  1  0
  8  9  2  0
  8 10  1  0
 10 11  1  0
 11 12  1  0
 12 13  2  0
 12 14  1  0
 14 15  2  0
 15 16  1  0
 16 17  2  0
 17 18  1  0
 18 19  2  0
 19 20  1  0
 19 21  1  0
 21 22  2  0
 22 23  1  0
 23 24  2  0
  6 25  1  0
 25 26  2  0
 26  3  1  0
 24 14  1  0
 23 17  1  0
  4 27  1  0
  5 28  1  0
  7 29  1  0
 10 30  1  0
 10 31  1  0
 11 32  1  0
 15 33  1  0
 16 34  1  0
 18 35  1  0
 21 36  1  0
 22 37  1  0
 25 38  1  0
 26 39  1  0
M  END
>  <smiles>  (13) 
N#Cc1ccc(NC(=O)CNC(=O)c2ccc3cc(Cl)ccc3n2)cc1

>  <score_type>  (13) 
oracle

>  <origin>  (13) 
autodockgpu

>  <m_score__min__energy>  (13) 
-8.3300000000000001

>  <m_primary>  (13) 
energy

>  <rmsd>  (13) 
8.70076404144815

>  <m_score__min__rmsd>  (13) 
8.70076404144815

>  <meeko>  (13) 
{"free_energy": -8.19, "intermolecular_energy": -9.68, "internal_energy": -1.1, "cluster_size": 28, "cluster_id": 2, "rank_in_cluster": 2}

>  <energy>  (13) 
-7.98

>  <cluster_rmsd>  (13) 
1.28

>  <cluster>  (13) 
1

$$$$

     RDKit          3D

 39 41  0  0  0  0  0  0  0  0999 V2000
  141.7820   67.4520  229.8430 N   0  0  0  0  0  0  0  0  0  0  0  0
  141.3110   67.9080  228.8850 C   0  0  0  0  0  0  0  0  0  0  0  0
  140.7240   68.4820  227.7090 C   0  0  0  0  0  0  0  0  0  0  0  0
  140.5810   69.8470  227.6230 C   0  0  0  0  0  0  0  0  0  0  0  0
  140.0310   70.4680  226.5360 C   0  0  0  0  0  0  0  0  0  0  0  0
  139.5810   69.7280  225.4350 C   0  0  0  0  0  0  0  0  0  0  0  0
  139.0260   70.4430  224.3530 N   0  0  0  0  0  0  0  0  0  0  0  0
  139.6440   71.4870  223.6380 C   0  0  0  0  0  0  0  0  0  0  0  0
  140.7960   71.8980  223.9020 O   0  0  0  0  0  0  0  0  0  0  0  0
  138.9310   72.1470  222.5190 C   0  0  0  0  0  0  0  0  0  0  0  0
  139.3520   73.5210  222.3420 N   0  0  0  0  0  0  0  0  0  0  0  0
  140.5030   73.8500  221.5780 C   0  0  0  0  0  0  0  0  0  0  0  0
  141.1940   72.9510  221.0280 O   0  0  0  0  0  0  0  0  0  0  0  0
  140.8580   75.2760  221.4510 C   0  0  0  0  0  0  0  0  0  0  0  0
  141.7030   75.7160  220.4540 C   0  0  0  0  0  0  0  0  0  0  0  0
  142.0410   77.0560  220.3300 C   0  0  0  0  0  0  0  0  0  0  0  0
  141.5140   77.9610  221.2270 C   0  0  0  0  0  0  0  0  0  0  0  0
  141.7880   79.3070  221.1890 C   0  0  0  0  0  0  0  0  0  0  0  0
  141.2110   80.1430  222.1350 C   0  0  0  0  0  0  0  0  0  0  0  0
  141.5340   81.8750  222.1220 Cl  0  0  0  0  0  0  0  0  0  0  0  0
  140.3690   79.6800  223.1250 C   0  0  0  0  0  0  0  0  0  0  0  0
  140.0990   78.3450  223.1610 C   0  0  0  0  0  0  0  0  0  0  0  0
  140.6710   77.5050  222.2190 C   0  0  0  0  0  0  0  0  0  0  0  0
  140.3750   76.2000  222.2970 N   0  0  0  0  0  0  0  0  0  0  0  0
  139.7250   68.3800  225.5240 C   0  0  0  0  0  0  0  0  0  0  0  0
  140.2870   67.7380  226.6360 C   0  0  0  0  0  0  0  0  0  0  0  0
  140.9239   70.4661  228.4651 H   0  0  0  0  0  0  0  0  0  0  0  0
  139.9407   71.5642  226.5260 H   0  0  0  0  0  0  0  0  0  0  0  0
  138.0460   70.1860  224.0310 H   0  0  0  0  0  0  0  0  0  0  0  0
  139.1340   71.5912  221.5917 H   0  0  0  0  0  0  0  0  0  0  0  0
  137.8566   72.1489  222.7551 H   0  0  0  0  0  0  0  0  0  0  0  0
  138.8000   74.3140  222.7880 H   0  0  0  0  0  0  0  0  0  0  0  0
  142.1183   74.9885  219.7411 H   0  0  0  0  0  0  0  0  0  0  0  0
  142.7177   77.3906  219.5299 H   0  0  0  0  0  0  0  0  0  0  0  0
  142.4567   79.7172  220.4179 H   0  0  0  0  0  0  0  0  0  0  0  0
  139.9292   80.3675  223.8625 H   0  0  0  0  0  0  0  0  0  0  0  0
  139.4308   77.9364  223.9334 H   0  0  0  0  0  0  0  0  0  0  0  0
  139.3834   67.7614  224.6810 H   0  0  0  0  0  0  0  0  0  0  0  0
  140.3788   66.6419  226.6515 H   0  0  0  0  0  0  0  0  0  0  0  0
  1  2  3  0
  2  3  1  0
  3  4  2  0
  4  5  1  0
  5  6  2  0
  6  7  1  0
  7  8  1  0
  8  9  2  0
  8 10  1  0
 10 11  1  0
 11 12  1  0
 12 13  2  0
 12 14  1  0
 14 15  2  0
 15 16  1  0
 16 17  2  0
 17 18  1  0
 18 19  2  0
 19 20  1  0
 19 21  1  0
 21 22  2  0
 22 23  1  0
 23 24  2  0
  6 25  1  0
 25 26  2  0
 26  3  1  0
 24 14  1  0
 23 17  1  0
  4 27  1  0
  5 28  1  0
  7 29  1  0
 10 30  1  0
 10 31  1  0
 11 32  1  0
 15 33  1  0
 16 34  1  0
 18 35  1  0
 21 36  1  0
 22 37  1  0
 25 38  1  0
 26 39  1  0
M  END
>  <smiles>  (14) 
N#Cc1ccc(NC(=O)CNC(=O)c2ccc3cc(Cl)ccc3n2)cc1

>  <score_type>  (14) 
oracle

>  <origin>  (14) 
autodockgpu

>  <m_score__min__energy>  (14) 
-8.3300000000000001

>  <m_primary>  (14) 
energy

>  <rmsd>  (14) 
8.623812248901286

>  <m_score__min__rmsd>  (14) 
8.623812248901286

>  <meeko>  (14) 
{"free_energy": -8.0, "intermolecular_energy": -9.49, "internal_energy": -1.06, "cluster_size": 28, "cluster_id": 2, "rank_in_cluster": 10}

>  <energy>  (14) 
-7.96

>  <cluster_rmsd>  (14) 
1.25

>  <cluster>  (14) 
1

$$$$

     RDKit          3D

 39 41  0  0  0  0  0  0  0  0999 V2000
  142.1950   81.7260  223.8290 N   0  0  0  0  0  0  0  0  0  0  0  0
  141.6110   80.7490  223.6040 C   0  0  0  0  0  0  0  0  0  0  0  0
  140.8900   79.5430  223.3110 C   0  0  0  0  0  0  0  0  0  0  0  0
  141.5850   78.3980  223.0030 C   0  0  0  0  0  0  0  0  0  0  0  0
  140.9690   77.2120  222.7130 C   0  0  0  0  0  0  0  0  0  0  0  0
  139.5720   77.1070  222.7170 C   0  0  0  0  0  0  0  0  0  0  0  0
  139.0140   75.8490  222.4070 N   0  0  0  0  0  0  0  0  0  0  0  0
  139.1380   75.1580  221.1870 C   0  0  0  0  0  0  0  0  0  0  0  0
  139.7860   75.6110  220.2170 O   0  0  0  0  0  0  0  0  0  0  0  0
  138.4910   73.8370  221.0080 C   0  0  0  0  0  0  0  0  0  0  0  0
  138.8050   72.9270  222.0900 N   0  0  0  0  0  0  0  0  0  0  0  0
  138.5060   71.5420  222.0030 C   0  0  0  0  0  0  0  0  0  0  0  0
  137.9570   71.0610  220.9760 O   0  0  0  0  0  0  0  0  0  0  0  0
  138.8610   70.6900  223.1540 C   0  0  0  0  0  0  0  0  0  0  0  0
  138.5070   69.3570  223.1910 C   0  0  0  0  0  0  0  0  0  0  0  0
  138.8380   68.5500  224.2700 C   0  0  0  0  0  0  0  0  0  0  0  0
  139.5370   69.1020  225.3230 C   0  0  0  0  0  0  0  0  0  0  0  0
  139.9100   68.3870  226.4360 C   0  0  0  0  0  0  0  0  0  0  0  0
  140.6130   69.0270  227.4480 C   0  0  0  0  0  0  0  0  0  0  0  0
  141.1120   68.1500  228.8920 Cl  0  0  0  0  0  0  0  0  0  0  0  0
  140.9560   70.3620  227.3890 C   0  0  0  0  0  0  0  0  0  0  0  0
  140.5840   71.0690  226.2840 C   0  0  0  0  0  0  0  0  0  0  0  0
  139.8830   70.4360  225.2700 C   0  0  0  0  0  0  0  0  0  0  0  0
  139.5400   71.1740  224.2060 N   0  0  0  0  0  0  0  0  0  0  0  0
  138.8900   78.2410  223.0220 C   0  0  0  0  0  0  0  0  0  0  0  0
  139.5160   79.4590  223.3200 C   0  0  0  0  0  0  0  0  0  0  0  0
  142.6842   78.4373  222.9892 H   0  0  0  0  0  0  0  0  0  0  0  0
  141.5787   76.3284  222.4733 H   0  0  0  0  0  0  0  0  0  0  0  0
  138.4380   75.3570  223.1530 H   0  0  0  0  0  0  0  0  0  0  0  0
  137.4008   73.9782  220.9680 H   0  0  0  0  0  0  0  0  0  0  0  0
  138.8703   73.3972  220.0738 H   0  0  0  0  0  0  0  0  0  0  0  0
  139.2690   73.2880  222.9770 H   0  0  0  0  0  0  0  0  0  0  0  0
  137.9502   68.9246  222.3466 H   0  0  0  0  0  0  0  0  0  0  0  0
  138.5481   67.4890  224.2853 H   0  0  0  0  0  0  0  0  0  0  0  0
  139.6547   67.3207  226.5240 H   0  0  0  0  0  0  0  0  0  0  0  0
  141.5123   70.8412  228.2080 H   0  0  0  0  0  0  0  0  0  0  0  0
  140.8389   72.1356  226.1980 H   0  0  0  0  0  0  0  0  0  0  0  0
  137.7908   78.2016  223.0359 H   0  0  0  0  0  0  0  0  0  0  0  0
  138.9109   80.3456  223.5605 H   0  0  0  0  0  0  0  0  0  0  0  0
  1  2  3  0
  2  3  1  0
  3  4  2  0
  4  5  1  0
  5  6  2  0
  6  7  1  0
  7  8  1  0
  8  9  2  0
  8 10  1  0
 10 11  1  0
 11 12  1  0
 12 13  2  0
 12 14  1  0
 14 15  2  0
 15 16  1  0
 16 17  2  0
 17 18  1  0
 18 19  2  0
 19 20  1  0
 19 21  1  0
 21 22  2  0
 22 23  1  0
 23 24  2  0
  6 25  1  0
 25 26  2  0
 26  3  1  0
 24 14  1  0
 23 17  1  0
  4 27  1  0
  5 28  1  0
  7 29  1  0
 10 30  1  0
 10 31  1  0
 11 32  1  0
 15 33  1  0
 16 34  1  0
 18 35  1  0
 21 36  1  0
 22 37  1  0
 25 38  1  0
 26 39  1  0
M  END
>  <smiles>  (15) 
N#Cc1ccc(NC(=O)CNC(=O)c2ccc3cc(Cl)ccc3n2)cc1

>  <score_type>  (15) 
oracle

>  <origin>  (15) 
autodockgpu

>  <m_score__min__energy>  (15) 
-8.3300000000000001

>  <m_primary>  (15) 
energy

>  <rmsd>  (15) 
2.5125811097895667

>  <m_score__min__rmsd>  (15) 
2.5125811097895667

>  <meeko>  (15) 
{"free_energy": -8.13, "intermolecular_energy": -9.62, "internal_energy": -1.09, "cluster_size": 21, "cluster_id": 1, "rank_in_cluster": 10}

>  <energy>  (15) 
-7.94

>  <cluster_rmsd>  (15) 
1.58

>  <cluster>  (15) 
1

$$$$

     RDKit          3D

 39 41  0  0  0  0  0  0  0  0999 V2000
  141.6500   67.7410  229.4550 N   0  0  0  0  0  0  0  0  0  0  0  0
  141.2570   68.3790  228.5690 C   0  0  0  0  0  0  0  0  0  0  0  0
  140.7700   69.1800  227.4820 C   0  0  0  0  0  0  0  0  0  0  0  0
  139.9760   68.6010  226.5200 C   0  0  0  0  0  0  0  0  0  0  0  0
  139.4750   69.2970  225.4550 C   0  0  0  0  0  0  0  0  0  0  0  0
  139.7520   70.6600  225.2920 C   0  0  0  0  0  0  0  0  0  0  0  0
  139.1970   71.3060  224.1670 N   0  0  0  0  0  0  0  0  0  0  0  0
  137.8860   71.1540  223.6780 C   0  0  0  0  0  0  0  0  0  0  0  0
  137.0480   70.3980  224.2190 O   0  0  0  0  0  0  0  0  0  0  0  0
  137.4450   71.9030  222.4780 C   0  0  0  0  0  0  0  0  0  0  0  0
  138.1450   73.1630  222.3370 N   0  0  0  0  0  0  0  0  0  0  0  0
  139.4600   73.2230  221.8040 C   0  0  0  0  0  0  0  0  0  0  0  0
  140.0590   72.1770  221.4360 O   0  0  0  0  0  0  0  0  0  0  0  0
  140.0970   74.5500  221.6970 C   0  0  0  0  0  0  0  0  0  0  0  0
  141.2290   74.7380  220.9320 C   0  0  0  0  0  0  0  0  0  0  0  0
  141.8330   75.9840  220.8280 C   0  0  0  0  0  0  0  0  0  0  0  0
  141.2800   77.0500  221.5060 C   0  0  0  0  0  0  0  0  0  0  0  0
  141.8030   78.3200  221.4660 C   0  0  0  0  0  0  0  0  0  0  0  0
  141.1780   79.3330  222.1820 C   0  0  0  0  0  0  0  0  0  0  0  0
  141.8130   80.9750  222.1590 Cl  0  0  0  0  0  0  0  0  0  0  0  0
  140.0460   79.1200  222.9410 C   0  0  0  0  0  0  0  0  0  0  0  0
  139.5290   77.8590  222.9780 C   0  0  0  0  0  0  0  0  0  0  0  0
  140.1480   76.8440  222.2660 C   0  0  0  0  0  0  0  0  0  0  0  0
  139.6020   75.6220  222.3360 N   0  0  0  0  0  0  0  0  0  0  0  0
  140.5370   71.2280  226.2450 C   0  0  0  0  0  0  0  0  0  0  0  0
  141.0540   70.5190  227.3380 C   0  0  0  0  0  0  0  0  0  0  0  0
  139.7335   67.5319  226.6112 H   0  0  0  0  0  0  0  0  0  0  0  0
  138.8458   68.7792  224.7161 H   0  0  0  0  0  0  0  0  0  0  0  0
  139.8140   71.9780  223.6190 H   0  0  0  0  0  0  0  0  0  0  0  0
  137.6364   71.2887  221.5858 H   0  0  0  0  0  0  0  0  0  0  0  0
  136.3725   72.1208  222.5887 H   0  0  0  0  0  0  0  0  0  0  0  0
  137.6800   74.0720  222.6340 H   0  0  0  0  0  0  0  0  0  0  0  0
  141.6626   73.8828  220.3928 H   0  0  0  0  0  0  0  0  0  0  0  0
  142.7368   76.1184  220.2155 H   0  0  0  0  0  0  0  0  0  0  0  0
  142.7057   78.5319  220.8742 H   0  0  0  0  0  0  0  0  0  0  0  0
  139.5749   79.9424  223.4993 H   0  0  0  0  0  0  0  0  0  0  0  0
  138.6258   77.6485  223.5696 H   0  0  0  0  0  0  0  0  0  0  0  0
  140.7786   72.2973  226.1540 H   0  0  0  0  0  0  0  0  0  0  0  0
  141.6852   71.0315  228.0789 H   0  0  0  0  0  0  0  0  0  0  0  0
  1  2  3  0
  2  3  1  0
  3  4  2  0
  4  5  1  0
  5  6  2  0
  6  7  1  0
  7  8  1  0
  8  9  2  0
  8 10  1  0
 10 11  1  0
 11 12  1  0
 12 13  2  0
 12 14  1  0
 14 15  2  0
 15 16  1  0
 16 17  2  0
 17 18  1  0
 18 19  2  0
 19 20  1  0
 19 21  1  0
 21 22  2  0
 22 23  1  0
 23 24  2  0
  6 25  1  0
 25 26  2  0
 26  3  1  0
 24 14  1  0
 23 17  1  0
  4 27  1  0
  5 28  1  0
  7 29  1  0
 10 30  1  0
 10 31  1  0
 11 32  1  0
 15 33  1  0
 16 34  1  0
 18 35  1  0
 21 36  1  0
 22 37  1  0
 25 38  1  0
 26 39  1  0
M  END
>  <smiles>  (16) 
N#Cc1ccc(NC(=O)CNC(=O)c2ccc3cc(Cl)ccc3n2)cc1

>  <score_type>  (16) 
oracle

>  <origin>  (16) 
autodockgpu

>  <m_score__min__energy>  (16) 
-8.3300000000000001

>  <m_primary>  (16) 
energy

>  <rmsd>  (16) 
8.19725265476669

>  <m_score__min__rmsd>  (16) 
8.19725265476669

>  <meeko>  (16) 
{"free_energy": -7.63, "intermolecular_energy": -9.12, "internal_energy": -1.75, "cluster_size": 28, "cluster_id": 2, "rank_in_cluster": 11}

>  <energy>  (16) 
-7.93

>  <cluster_rmsd>  (16) 
1.57

>  <cluster>  (16) 
1

$$$$

     RDKit          3D

 39 41  0  0  0  0  0  0  0  0999 V2000
  142.5110   81.9150  224.2360 N   0  0  0  0  0  0  0  0  0  0  0  0
  142.2490   80.9380  223.6660 C   0  0  0  0  0  0  0  0  0  0  0  0
  141.9220   79.7250  222.9730 C   0  0  0  0  0  0  0  0  0  0  0  0
  141.4120   78.6610  223.6790 C   0  0  0  0  0  0  0  0  0  0  0  0
  141.0760   77.4730  223.0910 C   0  0  0  0  0  0  0  0  0  0  0  0
  141.2390   77.2810  221.7130 C   0  0  0  0  0  0  0  0  0  0  0  0
  140.8700   76.0270  221.1830 N   0  0  0  0  0  0  0  0  0  0  0  0
  141.7320   75.0830  220.5950 C   0  0  0  0  0  0  0  0  0  0  0  0
  142.9640   75.2710  220.4830 O   0  0  0  0  0  0  0  0  0  0  0  0
  141.1950   73.8010  220.0800 C   0  0  0  0  0  0  0  0  0  0  0  0
  141.0810   72.8020  221.1210 N   0  0  0  0  0  0  0  0  0  0  0  0
  140.2130   72.9850  222.2300 C   0  0  0  0  0  0  0  0  0  0  0  0
  139.5130   74.0270  222.3400 O   0  0  0  0  0  0  0  0  0  0  0  0
  140.1600   71.9150  223.2440 C   0  0  0  0  0  0  0  0  0  0  0  0
  139.6380   70.6740  222.9460 C   0  0  0  0  0  0  0  0  0  0  0  0
  139.5860   69.6630  223.8950 C   0  0  0  0  0  0  0  0  0  0  0  0
  140.0690   69.9140  225.1620 C   0  0  0  0  0  0  0  0  0  0  0  0
  140.0610   68.9810  226.1710 C   0  0  0  0  0  0  0  0  0  0  0  0
  140.5700   69.3250  227.4160 C   0  0  0  0  0  0  0  0  0  0  0  0
  140.5810   68.1590  228.7370 Cl  0  0  0  0  0  0  0  0  0  0  0  0
  141.0870   70.5730  227.6910 C   0  0  0  0  0  0  0  0  0  0  0  0
  141.0940   71.4980  226.6890 C   0  0  0  0  0  0  0  0  0  0  0  0
  140.5880   71.1610  225.4440 C   0  0  0  0  0  0  0  0  0  0  0  0
  140.6160   72.1040  224.4930 N   0  0  0  0  0  0  0  0  0  0  0  0
  141.7440   78.3350  221.0200 C   0  0  0  0  0  0  0  0  0  0  0  0
  142.0890   79.5550  221.6180 C   0  0  0  0  0  0  0  0  0  0  0  0
  141.2680   78.7702  224.7641 H   0  0  0  0  0  0  0  0  0  0  0  0
  140.6723   76.6571  223.7085 H   0  0  0  0  0  0  0  0  0  0  0  0
  139.8440   75.7490  221.2200 H   0  0  0  0  0  0  0  0  0  0  0  0
  140.1986   73.9808  219.6501 H   0  0  0  0  0  0  0  0  0  0  0  0
  141.8943   73.4211  219.3206 H   0  0  0  0  0  0  0  0  0  0  0  0
  141.6520   71.9060  221.0710 H   0  0  0  0  0  0  0  0  0  0  0  0
  139.2542   70.4812  221.9333 H   0  0  0  0  0  0  0  0  0  0  0  0
  139.1667   68.6783  223.6410 H   0  0  0  0  0  0  0  0  0  0  0  0
  139.6561   67.9736  225.9943 H   0  0  0  0  0  0  0  0  0  0  0  0
  141.4820   70.8154  228.6886 H   0  0  0  0  0  0  0  0  0  0  0  0
  141.4987   72.5051  226.8680 H   0  0  0  0  0  0  0  0  0  0  0  0
  141.8894   78.2254  219.9352 H   0  0  0  0  0  0  0  0  0  0  0  0
  142.4924   80.3746  221.0052 H   0  0  0  0  0  0  0  0  0  0  0  0
  1  2  3  0
  2  3  1  0
  3  4  2  0
  4  5  1  0
  5  6  2  0
  6  7  1  0
  7  8  1  0
  8  9  2  0
  8 10  1  0
 10 11  1  0
 11 12  1  0
 12 13  2  0
 12 14  1  0
 14 15  2  0
 15 16  1  0
 16 17  2  0
 17 18  1  0
 18 19  2  0
 19 20  1  0
 19 21  1  0
 21 22  2  0
 22 23  1  0
 23 24  2  0
  6 25  1  0
 25 26  2  0
 26  3  1  0
 24 14  1  0
 23 17  1  0
  4 27  1  0
  5 28  1  0
  7 29  1  0
 10 30  1  0
 10 31  1  0
 11 32  1  0
 15 33  1  0
 16 34  1  0
 18 35  1  0
 21 36  1  0
 22 37  1  0
 25 38  1  0
 26 39  1  0
M  END
>  <smiles>  (17) 
N#Cc1ccc(NC(=O)CNC(=O)c2ccc3cc(Cl)ccc3n2)cc1

>  <score_type>  (17) 
oracle

>  <origin>  (17) 
autodockgpu

>  <m_score__min__energy>  (17) 
-8.3300000000000001

>  <m_primary>  (17) 
energy

>  <rmsd>  (17) 
3.2168788290307173

>  <m_score__min__rmsd>  (17) 
3.2168788290307173

>  <meeko>  (17) 
{"free_energy": -8.33, "intermolecular_energy": -9.83, "internal_energy": -1.51, "cluster_size": 21, "cluster_id": 1, "rank_in_cluster": 1}

>  <energy>  (17) 
-7.91

>  <cluster_rmsd>  (17) 
1.26

>  <cluster>  (17) 
1

$$$$

     RDKit          3D

 39 41  0  0  0  0  0  0  0  0999 V2000
  141.3620   67.8410  229.2570 N   0  0  0  0  0  0  0  0  0  0  0  0
  141.0940   68.4760  228.3230 C   0  0  0  0  0  0  0  0  0  0  0  0
  140.7710   69.2530  227.1610 C   0  0  0  0  0  0  0  0  0  0  0  0
  140.1440   68.6480  226.0970 C   0  0  0  0  0  0  0  0  0  0  0  0
  139.8050   69.3220  224.9560 C   0  0  0  0  0  0  0  0  0  0  0  0
  140.0870   70.6860  224.8150 C   0  0  0  0  0  0  0  0  0  0  0  0
  139.7060   71.3080  223.6080 N   0  0  0  0  0  0  0  0  0  0  0  0
  138.3900   71.4930  223.1430 C   0  0  0  0  0  0  0  0  0  0  0  0
  137.3870   71.1110  223.7850 O   0  0  0  0  0  0  0  0  0  0  0  0
  138.1460   72.1680  221.8460 C   0  0  0  0  0  0  0  0  0  0  0  0
  138.2630   73.6070  221.9510 N   0  0  0  0  0  0  0  0  0  0  0  0
  139.5310   74.2440  222.0130 C   0  0  0  0  0  0  0  0  0  0  0  0
  140.5960   73.5720  221.9760 O   0  0  0  0  0  0  0  0  0  0  0  0
  139.5550   75.7150  222.1190 C   0  0  0  0  0  0  0  0  0  0  0  0
  138.4750   76.4130  222.6170 C   0  0  0  0  0  0  0  0  0  0  0  0
  138.4920   77.7970  222.7200 C   0  0  0  0  0  0  0  0  0  0  0  0
  139.6190   78.4800  222.3140 C   0  0  0  0  0  0  0  0  0  0  0  0
  139.7330   79.8480  222.3760 C   0  0  0  0  0  0  0  0  0  0  0  0
  140.9080   80.4500  221.9440 C   0  0  0  0  0  0  0  0  0  0  0  0
  141.0980   82.2000  222.0060 Cl  0  0  0  0  0  0  0  0  0  0  0  0
  141.9760   79.7310  221.4500 C   0  0  0  0  0  0  0  0  0  0  0  0
  141.8600   78.3730  221.3900 C   0  0  0  0  0  0  0  0  0  0  0  0
  140.6910   77.7670  221.8190 C   0  0  0  0  0  0  0  0  0  0  0  0
  140.6260   76.4310  221.7390 N   0  0  0  0  0  0  0  0  0  0  0  0
  140.7070   71.2790  225.8690 C   0  0  0  0  0  0  0  0  0  0  0  0
  141.0560   70.5940  227.0410 C   0  0  0  0  0  0  0  0  0  0  0  0
  139.9049   67.5765  226.1665 H   0  0  0  0  0  0  0  0  0  0  0  0
  139.3036   68.7846  224.1375 H   0  0  0  0  0  0  0  0  0  0  0  0
  140.4720   71.6780  222.9700 H   0  0  0  0  0  0  0  0  0  0  0  0
  138.8815   71.8048  221.1131 H   0  0  0  0  0  0  0  0  0  0  0  0
  137.1188   71.9336  221.5299 H   0  0  0  0  0  0  0  0  0  0  0  0
  137.3910   74.2160  221.9850 H   0  0  0  0  0  0  0  0  0  0  0  0
  137.5802   75.8607  222.9398 H   0  0  0  0  0  0  0  0  0  0  0  0
  137.6219   78.3394  223.1184 H   0  0  0  0  0  0  0  0  0  0  0  0
  138.9041   80.4588  222.7630 H   0  0  0  0  0  0  0  0  0  0  0  0
  142.8934   80.2369  221.1146 H   0  0  0  0  0  0  0  0  0  0  0  0
  142.6898   77.7632  221.0033 H   0  0  0  0  0  0  0  0  0  0  0  0
  140.9470   72.3502  225.7988 H   0  0  0  0  0  0  0  0  0  0  0  0
  141.5565   71.1270  227.8629 H   0  0  0  0  0  0  0  0  0  0  0  0
  1  2  3  0
  2  3  1  0
  3  4  2  0
  4  5  1  0
  5  6  2  0
  6  7  1  0
  7  8  1  0
  8  9  2  0
  8 10  1  0
 10 11  1  0
 11 12  1  0
 12 13  2  0
 12 14  1  0
 14 15  2  0
 15 16  1  0
 16 17  2  0
 17 18  1  0
 18 19  2  0
 19 20  1  0
 19 21  1  0
 21 22  2  0
 22 23  1  0
 23 24  2  0
  6 25  1  0
 25 26  2  0
 26  3  1  0
 24 14  1  0
 23 17  1  0
  4 27  1  0
  5 28  1  0
  7 29  1  0
 10 30  1  0
 10 31  1  0
 11 32  1  0
 15 33  1  0
 16 34  1  0
 18 35  1  0
 21 36  1  0
 22 37  1  0
 25 38  1  0
 26 39  1  0
M  END
>  <smiles>  (18) 
N#Cc1ccc(NC(=O)CNC(=O)c2ccc3cc(Cl)ccc3n2)cc1

>  <score_type>  (18) 
oracle

>  <origin>  (18) 
autodockgpu

>  <m_score__min__energy>  (18) 
-8.3300000000000001

>  <m_primary>  (18) 
energy

>  <rmsd>  (18) 
8.583463036359188

>  <m_score__min__rmsd>  (18) 
8.583463036359188

>  <meeko>  (18) 
{"free_energy": -7.5, "intermolecular_energy": -8.99, "internal_energy": -1.51, "cluster_size": 28, "cluster_id": 2, "rank_in_cluster": 18}

>  <energy>  (18) 
-7.91

>  <cluster_rmsd>  (18) 
1.25

>  <cluster>  (18) 
1

$$$$

     RDKit          3D

 39 41  0  0  0  0  0  0  0  0999 V2000
  142.2960   81.9810  224.2310 N   0  0  0  0  0  0  0  0  0  0  0  0
  141.8010   81.0020  223.8520 C   0  0  0  0  0  0  0  0  0  0  0  0
  141.1910   79.7850  223.3970 C   0  0  0  0  0  0  0  0  0  0  0  0
  141.9480   78.8680  222.7070 C   0  0  0  0  0  0  0  0  0  0  0  0
  141.4380   77.6870  222.2410 C   0  0  0  0  0  0  0  0  0  0  0  0
  140.0950   77.3500  222.4500 C   0  0  0  0  0  0  0  0  0  0  0  0
  139.6470   76.1150  221.9380 N   0  0  0  0  0  0  0  0  0  0  0  0
  138.3390   75.8100  221.5180 C   0  0  0  0  0  0  0  0  0  0  0  0
  137.4050   76.6430  221.5570 O   0  0  0  0  0  0  0  0  0  0  0  0
  138.0170   74.4590  220.9990 C   0  0  0  0  0  0  0  0  0  0  0  0
  138.2680   73.4260  221.9820 N   0  0  0  0  0  0  0  0  0  0  0  0
  139.5850   72.9710  222.2570 C   0  0  0  0  0  0  0  0  0  0  0  0
  140.5780   73.4550  221.6510 O   0  0  0  0  0  0  0  0  0  0  0  0
  139.7480   71.9150  223.2740 C   0  0  0  0  0  0  0  0  0  0  0  0
  139.3820   70.6110  223.0150 C   0  0  0  0  0  0  0  0  0  0  0  0
  139.5320   69.6140  223.9680 C   0  0  0  0  0  0  0  0  0  0  0  0
  140.0610   69.9430  225.1980 C   0  0  0  0  0  0  0  0  0  0  0  0
  140.2490   69.0290  226.2060 C   0  0  0  0  0  0  0  0  0  0  0  0
  140.7900   69.4530  227.4130 C   0  0  0  0  0  0  0  0  0  0  0  0
  141.0490   68.3150  228.7320 Cl  0  0  0  0  0  0  0  0  0  0  0  0
  141.1480   70.7630  227.6500 C   0  0  0  0  0  0  0  0  0  0  0  0
  140.9610   71.6680  226.6480 C   0  0  0  0  0  0  0  0  0  0  0  0
  140.4230   71.2520  225.4410 C   0  0  0  0  0  0  0  0  0  0  0  0
  140.2570   72.1790  224.4880 N   0  0  0  0  0  0  0  0  0  0  0  0
  139.3520   78.2600  223.1320 C   0  0  0  0  0  0  0  0  0  0  0  0
  139.8680   79.4720  223.6120 C   0  0  0  0  0  0  0  0  0  0  0  0
  143.0086   79.0933  222.5217 H   0  0  0  0  0  0  0  0  0  0  0  0
  142.0924   76.9922  221.6943 H   0  0  0  0  0  0  0  0  0  0  0  0
  140.3500   75.3220  221.8540 H   0  0  0  0  0  0  0  0  0  0  0  0
  136.9539   74.4307  220.7177 H   0  0  0  0  0  0  0  0  0  0  0  0
  138.6638   74.2657  220.1305 H   0  0  0  0  0  0  0  0  0  0  0  0
  137.4620   72.9880  222.5190 H   0  0  0  0  0  0  0  0  0  0  0  0
  138.9618   70.3556  222.0310 H   0  0  0  0  0  0  0  0  0  0  0  0
  139.2340   68.5787  223.7461 H   0  0  0  0  0  0  0  0  0  0  0  0
  139.9744   67.9740  226.0591 H   0  0  0  0  0  0  0  0  0  0  0  0
  141.5716   71.0686  228.6181 H   0  0  0  0  0  0  0  0  0  0  0  0
  141.2357   72.7227  226.7969 H   0  0  0  0  0  0  0  0  0  0  0  0
  138.2914   78.0345  223.3171 H   0  0  0  0  0  0  0  0  0  0  0  0
  139.2176   80.1706  224.1587 H   0  0  0  0  0  0  0  0  0  0  0  0
  1  2  3  0
  2  3  1  0
  3  4  2  0
  4  5  1  0
  5  6  2  0
  6  7  1  0
  7  8  1  0
  8  9  2  0
  8 10  1  0
 10 11  1  0
 11 12  1  0
 12 13  2  0
 12 14  1  0
 14 15  2  0
 15 16  1  0
 16 17  2  0
 17 18  1  0
 18 19  2  0
 19 20  1  0
 19 21  1  0
 21 22  2  0
 22 23  1  0
 23 24  2  0
  6 25  1  0
 25 26  2  0
 26  3  1  0
 24 14  1  0
 23 17  1  0
  4 27  1  0
  5 28  1  0
  7 29  1  0
 10 30  1  0
 10 31  1  0
 11 32  1  0
 15 33  1  0
 16 34  1  0
 18 35  1  0
 21 36  1  0
 22 37  1  0
 25 38  1  0
 26 39  1  0
M  END
>  <smiles>  (19) 
N#Cc1ccc(NC(=O)CNC(=O)c2ccc3cc(Cl)ccc3n2)cc1

>  <score_type>  (19) 
oracle

>  <origin>  (19) 
autodockgpu

>  <m_score__min__energy>  (19) 
-8.3300000000000001

>  <m_primary>  (19) 
energy

>  <rmsd>  (19) 
2.6948580638153548

>  <m_score__min__rmsd>  (19) 
2.6948580638153548

>  <meeko>  (19) 
{"free_energy": -7.73, "intermolecular_energy": -9.23, "internal_energy": -1.52, "cluster_size": 21, "cluster_id": 1, "rank_in_cluster": 21}

>  <energy>  (19) 
-7.88

>  <cluster_rmsd>  (19) 
1.29

>  <cluster>  (19) 
1

$$$$

     RDKit          3D

 39 41  0  0  0  0  0  0  0  0999 V2000
  142.3510   81.7450  223.9630 N   0  0  0  0  0  0  0  0  0  0  0  0
  141.7600   80.7830  223.6930 C   0  0  0  0  0  0  0  0  0  0  0  0
  141.0280   79.5910  223.3730 C   0  0  0  0  0  0  0  0  0  0  0  0
  141.7130   78.4490  223.0310 C   0  0  0  0  0  0  0  0  0  0  0  0
  141.0870   77.2750  222.7140 C   0  0  0  0  0  0  0  0  0  0  0  0
  139.6900   77.1800  222.7240 C   0  0  0  0  0  0  0  0  0  0  0  0
  139.1210   75.9350  222.3840 N   0  0  0  0  0  0  0  0  0  0  0  0
  138.9510   75.4210  221.0850 C   0  0  0  0  0  0  0  0  0  0  0  0
  139.3050   76.0450  220.0600 O   0  0  0  0  0  0  0  0  0  0  0  0
  138.3320   74.0890  220.8840 C   0  0  0  0  0  0  0  0  0  0  0  0
  138.6420   73.1780  221.9660 N   0  0  0  0  0  0  0  0  0  0  0  0
  138.6450   71.7720  221.7710 C   0  0  0  0  0  0  0  0  0  0  0  0
  138.3780   71.2730  220.6460 O   0  0  0  0  0  0  0  0  0  0  0  0
  138.9720   70.9190  222.9300 C   0  0  0  0  0  0  0  0  0  0  0  0
  138.6020   69.5910  222.9660 C   0  0  0  0  0  0  0  0  0  0  0  0
  138.9070   68.7840  224.0540 C   0  0  0  0  0  0  0  0  0  0  0  0
  139.5940   69.3310  225.1160 C   0  0  0  0  0  0  0  0  0  0  0  0
  139.9420   68.6160  226.2370 C   0  0  0  0  0  0  0  0  0  0  0  0
  140.6350   69.2520  227.2580 C   0  0  0  0  0  0  0  0  0  0  0  0
  141.1010   68.3740  228.7120 Cl  0  0  0  0  0  0  0  0  0  0  0  0
  140.9940   70.5830  227.2000 C   0  0  0  0  0  0  0  0  0  0  0  0
  140.6480   71.2900  226.0870 C   0  0  0  0  0  0  0  0  0  0  0  0
  139.9570   70.6610  225.0640 C   0  0  0  0  0  0  0  0  0  0  0  0
  139.6390   71.3990  223.9920 N   0  0  0  0  0  0  0  0  0  0  0  0
  139.0170   78.3110  223.0620 C   0  0  0  0  0  0  0  0  0  0  0  0
  139.6540   79.5160  223.3880 C   0  0  0  0  0  0  0  0  0  0  0  0
  142.8124   78.4809  223.0115 H   0  0  0  0  0  0  0  0  0  0  0  0
  141.6890   76.3937  222.4477 H   0  0  0  0  0  0  0  0  0  0  0  0
  138.7790   75.3070  223.1720 H   0  0  0  0  0  0  0  0  0  0  0  0
  137.2404   74.2102  220.8235 H   0  0  0  0  0  0  0  0  0  0  0  0
  138.7371   73.6628  219.9544 H   0  0  0  0  0  0  0  0  0  0  0  0
  138.8740   73.5530  222.9340 H   0  0  0  0  0  0  0  0  0  0  0  0
  138.0535   69.1618  222.1146 H   0  0  0  0  0  0  0  0  0  0  0  0
  138.6054   67.7262  224.0680 H   0  0  0  0  0  0  0  0  0  0  0  0
  139.6746   67.5526  226.3241 H   0  0  0  0  0  0  0  0  0  0  0  0
  141.5424   71.0589  228.0263 H   0  0  0  0  0  0  0  0  0  0  0  0
  140.9158   72.3535  226.0016 H   0  0  0  0  0  0  0  0  0  0  0  0
  137.9176   78.2792  223.0807 H   0  0  0  0  0  0  0  0  0  0  0  0
  139.0568   80.4002  223.6554 H   0  0  0  0  0  0  0  0  0  0  0  0
  1  2  3  0
  2  3  1  0
  3  4  2  0
  4  5  1  0
  5  6  2  0
  6  7  1  0
  7  8  1  0
  8  9  2  0
  8 10  1  0
 10 11  1  0
 11 12  1  0
 12 13  2  0
 12 14  1  0
 14 15  2  0
 15 16  1  0
 16 17  2  0
 17 18  1  0
 18 19  2  0
 19 20  1  0
 19 21  1  0
 21 22  2  0
 22 23  1  0
 23 24  2  0
  6 25  1  0
 25 26  2  0
 26  3  1  0
 24 14  1  0
 23 17  1  0
  4 27  1  0
  5 28  1  0
  7 29  1  0
 10 30  1  0
 10 31  1  0
 11 32  1  0
 15 33  1  0
 16 34  1  0
 18 35  1  0
 21 36  1  0
 22 37  1  0
 25 38  1  0
 26 39  1  0
M  END
>  <smiles>  (20) 
N#Cc1ccc(NC(=O)CNC(=O)c2ccc3cc(Cl)ccc3n2)cc1

>  <score_type>  (20) 
oracle

>  <origin>  (20) 
autodockgpu

>  <m_score__min__energy>  (20) 
-8.3300000000000001

>  <m_primary>  (20) 
energy

>  <rmsd>  (20) 
2.5635833383252904

>  <m_score__min__rmsd>  (20) 
2.5635833383252904

>  <meeko>  (20) 
{"free_energy": -8.26, "intermolecular_energy": -9.75, "internal_energy": -1.04, "cluster_size": 21, "cluster_id": 1, "rank_in_cluster": 5}

>  <energy>  (20) 
-7.79

>  <cluster_rmsd>  (20) 
0.6

>  <cluster>  (20) 
1

$$$$

     RDKit          3D

 39 41  0  0  0  0  0  0  0  0999 V2000
  141.4640   67.5510  229.5590 N   0  0  0  0  0  0  0  0  0  0  0  0
  141.1240   68.1910  228.6520 C   0  0  0  0  0  0  0  0  0  0  0  0
  140.6990   68.9700  227.5250 C   0  0  0  0  0  0  0  0  0  0  0  0
  139.9500   68.3750  226.5370 C   0  0  0  0  0  0  0  0  0  0  0  0
  139.5080   69.0510  225.4330 C   0  0  0  0  0  0  0  0  0  0  0  0
  139.8030   70.4080  225.2550 C   0  0  0  0  0  0  0  0  0  0  0  0
  139.3110   71.0330  224.0900 N   0  0  0  0  0  0  0  0  0  0  0  0
  137.9570   71.2270  223.7540 C   0  0  0  0  0  0  0  0  0  0  0  0
  137.0180   70.8510  224.4910 O   0  0  0  0  0  0  0  0  0  0  0  0
  137.5930   71.9040  222.4870 C   0  0  0  0  0  0  0  0  0  0  0  0
  138.2640   73.1780  222.3390 N   0  0  0  0  0  0  0  0  0  0  0  0
  139.5650   73.2680  221.7780 C   0  0  0  0  0  0  0  0  0  0  0  0
  140.1760   72.2370  221.3900 O   0  0  0  0  0  0  0  0  0  0  0  0
  140.1730   74.6080  221.6650 C   0  0  0  0  0  0  0  0  0  0  0  0
  141.2680   74.8290  220.8560 C   0  0  0  0  0  0  0  0  0  0  0  0
  141.8440   76.0870  220.7460 C   0  0  0  0  0  0  0  0  0  0  0  0
  141.3020   77.1320  221.4640 C   0  0  0  0  0  0  0  0  0  0  0  0
  141.8000   78.4120  221.4240 C   0  0  0  0  0  0  0  0  0  0  0  0
  141.1880   79.4020  222.1810 C   0  0  0  0  0  0  0  0  0  0  0  0
  141.7920   81.0560  222.1580 Cl  0  0  0  0  0  0  0  0  0  0  0  0
  140.0930   79.1560  222.9840 C   0  0  0  0  0  0  0  0  0  0  0  0
  139.6010   77.8850  223.0220 C   0  0  0  0  0  0  0  0  0  0  0  0
  140.2070   76.8930  222.2680 C   0  0  0  0  0  0  0  0  0  0  0  0
  139.6870   75.6610  222.3410 N   0  0  0  0  0  0  0  0  0  0  0  0
  140.5430   70.9910  226.2330 C   0  0  0  0  0  0  0  0  0  0  0  0
  140.9980   70.3040  227.3670 C   0  0  0  0  0  0  0  0  0  0  0  0
  139.6954   67.3097  226.6389 H   0  0  0  0  0  0  0  0  0  0  0  0
  138.9127   68.5212  224.6747 H   0  0  0  0  0  0  0  0  0  0  0  0
  140.0140   71.3990  223.3810 H   0  0  0  0  0  0  0  0  0  0  0  0
  137.8739   71.2550  221.6445 H   0  0  0  0  0  0  0  0  0  0  0  0
  136.5092   72.0913  222.5019 H   0  0  0  0  0  0  0  0  0  0  0  0
  137.7870   74.0760  222.6520 H   0  0  0  0  0  0  0  0  0  0  0  0
  141.6939   73.9903  220.2858 H   0  0  0  0  0  0  0  0  0  0  0  0
  142.7177   76.2476  220.0973 H   0  0  0  0  0  0  0  0  0  0  0  0
  142.6737   78.6497  220.7993 H   0  0  0  0  0  0  0  0  0  0  0  0
  139.6313   79.9606  223.5752 H   0  0  0  0  0  0  0  0  0  0  0  0
  138.7278   77.6484  223.6478 H   0  0  0  0  0  0  0  0  0  0  0  0
  140.7983   72.0560  226.1302 H   0  0  0  0  0  0  0  0  0  0  0  0
  141.5925   70.8298  228.1286 H   0  0  0  0  0  0  0  0  0  0  0  0
  1  2  3  0
  2  3  1  0
  3  4  2  0
  4  5  1  0
  5  6  2  0
  6  7  1  0
  7  8  1  0
  8  9  2  0
  8 10  1  0
 10 11  1  0
 11 12  1  0
 12 13  2  0
 12 14  1  0
 14 15  2  0
 15 16  1  0
 16 17  2  0
 17 18  1  0
 18 19  2  0
 19 20  1  0
 19 21  1  0
 21 22  2  0
 22 23  1  0
 23 24  2  0
  6 25  1  0
 25 26  2  0
 26  3  1  0
 24 14  1  0
 23 17  1  0
  4 27  1  0
  5 28  1  0
  7 29  1  0
 10 30  1  0
 10 31  1  0
 11 32  1  0
 15 33  1  0
 16 34  1  0
 18 35  1  0
 21 36  1  0
 22 37  1  0
 25 38  1  0
 26 39  1  0
M  END
>  <smiles>  (21) 
N#Cc1ccc(NC(=O)CNC(=O)c2ccc3cc(Cl)ccc3n2)cc1

>  <score_type>  (21) 
oracle

>  <origin>  (21) 
autodockgpu

>  <m_score__min__energy>  (21) 
-8.3300000000000001

>  <m_primary>  (21) 
energy

>  <rmsd>  (21) 
8.275630423945339

>  <m_score__min__rmsd>  (21) 
8.275630423945339

>  <meeko>  (21) 
{"free_energy": -7.53, "intermolecular_energy": -9.02, "internal_energy": -1.83, "cluster_size": 28, "cluster_id": 2, "rank_in_cluster": 16}

>  <energy>  (21) 
-7.73

>  <cluster_rmsd>  (21) 
1.61

>  <cluster>  (21) 
1

$$$$

     RDKit          3D

 39 41  0  0  0  0  0  0  0  0999 V2000
  141.7940   67.4850  229.8170 N   0  0  0  0  0  0  0  0  0  0  0  0
  141.4150   68.0740  228.8910 C   0  0  0  0  0  0  0  0  0  0  0  0
  140.9340   68.8010  227.7520 C   0  0  0  0  0  0  0  0  0  0  0  0
  140.3210   68.1200  226.7260 C   0  0  0  0  0  0  0  0  0  0  0  0
  139.8370   68.7420  225.6080 C   0  0  0  0  0  0  0  0  0  0  0  0
  139.9440   70.1300  225.4530 C   0  0  0  0  0  0  0  0  0  0  0  0
  139.4200   70.6950  224.2720 N   0  0  0  0  0  0  0  0  0  0  0  0
  138.0610   70.7790  223.9180 C   0  0  0  0  0  0  0  0  0  0  0  0
  137.1440   70.3440  224.6500 O   0  0  0  0  0  0  0  0  0  0  0  0
  137.6610   71.4040  222.6350 C   0  0  0  0  0  0  0  0  0  0  0  0
  138.3080   72.6830  222.4290 N   0  0  0  0  0  0  0  0  0  0  0  0
  139.6040   72.7730  221.8540 C   0  0  0  0  0  0  0  0  0  0  0  0
  140.2310   71.7380  221.5050 O   0  0  0  0  0  0  0  0  0  0  0  0
  140.1860   74.1180  221.6820 C   0  0  0  0  0  0  0  0  0  0  0  0
  141.3360   74.3080  220.9460 C   0  0  0  0  0  0  0  0  0  0  0  0
  141.8890   75.5710  220.7800 C   0  0  0  0  0  0  0  0  0  0  0  0
  141.2660   76.6520  221.3670 C   0  0  0  0  0  0  0  0  0  0  0  0
  141.7340   77.9390  221.2620 C   0  0  0  0  0  0  0  0  0  0  0  0
  141.0390   78.9660  221.8870 C   0  0  0  0  0  0  0  0  0  0  0  0
  141.6030   80.6310  221.7780 Cl  0  0  0  0  0  0  0  0  0  0  0  0
  139.8900   78.7510  222.6190 C   0  0  0  0  0  0  0  0  0  0  0  0
  139.4270   77.4730  222.7220 C   0  0  0  0  0  0  0  0  0  0  0  0
  140.1160   76.4430  222.0990 C   0  0  0  0  0  0  0  0  0  0  0  0
  139.6220   75.2050  222.2310 N   0  0  0  0  0  0  0  0  0  0  0  0
  140.5510   70.7980  226.4690 C   0  0  0  0  0  0  0  0  0  0  0  0
  141.0480   70.1660  227.6170 C   0  0  0  0  0  0  0  0  0  0  0  0
  140.2155   67.0282  226.8081 H   0  0  0  0  0  0  0  0  0  0  0  0
  139.3570   68.1437  224.8195 H   0  0  0  0  0  0  0  0  0  0  0  0
  140.1030   71.1010  223.5640 H   0  0  0  0  0  0  0  0  0  0  0  0
  137.9365   70.7299  221.8106 H   0  0  0  0  0  0  0  0  0  0  0  0
  136.5746   71.5739  222.6643 H   0  0  0  0  0  0  0  0  0  0  0  0
  137.8170   73.5840  222.7080 H   0  0  0  0  0  0  0  0  0  0  0  0
  141.8262   73.4404  220.4801 H   0  0  0  0  0  0  0  0  0  0  0  0
  142.8078   75.7066  220.1906 H   0  0  0  0  0  0  0  0  0  0  0  0
  142.6485   78.1537  220.6896 H   0  0  0  0  0  0  0  0  0  0  0  0
  139.3632   79.5855  223.1050 H   0  0  0  0  0  0  0  0  0  0  0  0
  138.5128   77.2600  223.2955 H   0  0  0  0  0  0  0  0  0  0  0  0
  140.6576   71.8897  226.3862 H   0  0  0  0  0  0  0  0  0  0  0  0
  141.5283   70.7598  228.4087 H   0  0  0  0  0  0  0  0  0  0  0  0
  1  2  3  0
  2  3  1  0
  3  4  2  0
  4  5  1  0
  5  6  2  0
  6  7  1  0
  7  8  1  0
  8  9  2  0
  8 10  1  0
 10 11  1  0
 11 12  1  0
 12 13  2  0
 12 14  1  0
 14 15  2  0
 15 16  1  0
 16 17  2  0
 17 18  1  0
 18 19  2  0
 19 20  1  0
 19 21  1  0
 21 22  2  0
 22 23  1  0
 23 24  2  0
  6 25  1  0
 25 26  2  0
 26  3  1  0
 24 14  1  0
 23 17  1  0
  4 27  1  0
  5 28  1  0
  7 29  1  0
 10 30  1  0
 10 31  1  0
 11 32  1  0
 15 33  1  0
 16 34  1  0
 18 35  1  0
 21 36  1  0
 22 37  1  0
 25 38  1  0
 26 39  1  0
M  END
>  <smiles>  (22) 
N#Cc1ccc(NC(=O)CNC(=O)c2ccc3cc(Cl)ccc3n2)cc1

>  <score_type>  (22) 
oracle

>  <origin>  (22) 
autodockgpu

>  <m_score__min__energy>  (22) 
-8.3300000000000001

>  <m_primary>  (22) 
energy

>  <rmsd>  (22) 
8.254790430701913

>  <m_score__min__rmsd>  (22) 
8.254790430701913

>  <meeko>  (22) 
{"free_energy": -7.59, "intermolecular_energy": -9.08, "internal_energy": -1.85, "cluster_size": 28, "cluster_id": 2, "rank_in_cluster": 13}

>  <energy>  (22) 
-8.23

>  <cluster_rmsd>  (22) 
0.0

>  <cluster>  (22) 
2

$$$$

     RDKit          3D

 39 41  0  0  0  0  0  0  0  0999 V2000
  141.7380   67.7700  229.5300 N   0  0  0  0  0  0  0  0  0  0  0  0
  141.2830   68.2250  228.5640 C   0  0  0  0  0  0  0  0  0  0  0  0
  140.7090   68.7770  227.3710 C   0  0  0  0  0  0  0  0  0  0  0  0
  140.8960   70.1090  227.0850 C   0  0  0  0  0  0  0  0  0  0  0  0
  140.3810   70.7070  225.9690 C   0  0  0  0  0  0  0  0  0  0  0  0
  139.6240   69.9760  225.0440 C   0  0  0  0  0  0  0  0  0  0  0  0
  139.1280   70.6660  223.9190 N   0  0  0  0  0  0  0  0  0  0  0  0
  137.8000   71.0850  223.7150 C   0  0  0  0  0  0  0  0  0  0  0  0
  136.8900   70.8780  224.5490 O   0  0  0  0  0  0  0  0  0  0  0  0
  137.4270   71.8040  222.4740 C   0  0  0  0  0  0  0  0  0  0  0  0
  138.1290   73.0650  222.3450 N   0  0  0  0  0  0  0  0  0  0  0  0
  139.4210   73.1350  221.7600 C   0  0  0  0  0  0  0  0  0  0  0  0
  139.9970   72.0980  221.3340 O   0  0  0  0  0  0  0  0  0  0  0  0
  140.0610   74.4610  221.6690 C   0  0  0  0  0  0  0  0  0  0  0  0
  141.2130   74.6490  220.9340 C   0  0  0  0  0  0  0  0  0  0  0  0
  141.8200   75.8930  220.8450 C   0  0  0  0  0  0  0  0  0  0  0  0
  141.2510   76.9600  221.5090 C   0  0  0  0  0  0  0  0  0  0  0  0
  141.7760   78.2300  221.4830 C   0  0  0  0  0  0  0  0  0  0  0  0
  141.1340   79.2430  222.1830 C   0  0  0  0  0  0  0  0  0  0  0  0
  141.7710   80.8850  222.1770 Cl  0  0  0  0  0  0  0  0  0  0  0  0
  139.9830   79.0310  222.9130 C   0  0  0  0  0  0  0  0  0  0  0  0
  139.4640   77.7700  222.9370 C   0  0  0  0  0  0  0  0  0  0  0  0
  140.1000   76.7550  222.2400 C   0  0  0  0  0  0  0  0  0  0  0  0
  139.5510   75.5340  222.2960 N   0  0  0  0  0  0  0  0  0  0  0  0
  139.4420   68.6600  225.3310 C   0  0  0  0  0  0  0  0  0  0  0  0
  139.9680   68.0420  226.4730 C   0  0  0  0  0  0  0  0  0  0  0  0
  141.4856   70.7197  227.7846 H   0  0  0  0  0  0  0  0  0  0  0  0
  140.5635   71.7776  225.7946 H   0  0  0  0  0  0  0  0  0  0  0  0
  139.8070   70.9030  223.1350 H   0  0  0  0  0  0  0  0  0  0  0  0
  137.6731   71.1705  221.6090 H   0  0  0  0  0  0  0  0  0  0  0  0
  136.3489   72.0183  222.5166 H   0  0  0  0  0  0  0  0  0  0  0  0
  137.6820   73.9660  222.6900 H   0  0  0  0  0  0  0  0  0  0  0  0
  141.6602   73.7934  220.4068 H   0  0  0  0  0  0  0  0  0  0  0  0
  142.7390   76.0264  220.2553 H   0  0  0  0  0  0  0  0  0  0  0  0
  142.6937   78.4414  220.9145 H   0  0  0  0  0  0  0  0  0  0  0  0
  139.4985   79.8538  223.4591 H   0  0  0  0  0  0  0  0  0  0  0  0
  138.5464   77.5599  223.5060 H   0  0  0  0  0  0  0  0  0  0  0  0
  138.8521   68.0495  224.6315 H   0  0  0  0  0  0  0  0  0  0  0  0
  139.7893   66.9715  226.6519 H   0  0  0  0  0  0  0  0  0  0  0  0
  1  2  3  0
  2  3  1  0
  3  4  2  0
  4  5  1  0
  5  6  2  0
  6  7  1  0
  7  8  1  0
  8  9  2  0
  8 10  1  0
 10 11  1  0
 11 12  1  0
 12 13  2  0
 12 14  1  0
 14 15  2  0
 15 16  1  0
 16 17  2  0
 17 18  1  0
 18 19  2  0
 19 20  1  0
 19 21  1  0
 21 22  2  0
 22 23  1  0
 23 24  2  0
  6 25  1  0
 25 26  2  0
 26  3  1  0
 24 14  1  0
 23 17  1  0
  4 27  1  0
  5 28  1  0
  7 29  1  0
 10 30  1  0
 10 31  1  0
 11 32  1  0
 15 33  1  0
 16 34  1  0
 18 35  1  0
 21 36  1  0
 22 37  1  0
 25 38  1  0
 26 39  1  0
M  END
>  <smiles>  (23) 
N#Cc1ccc(NC(=O)CNC(=O)c2ccc3cc(Cl)ccc3n2)cc1

>  <score_type>  (23) 
oracle

>  <origin>  (23) 
autodockgpu

>  <m_score__min__energy>  (23) 
-8.3300000000000001

>  <m_primary>  (23) 
energy

>  <rmsd>  (23) 
8.04830759717209

>  <m_score__min__rmsd>  (23) 
8.04830759717209

>  <meeko>  (23) 
{"free_energy": -7.44, "intermolecular_energy": -8.93, "internal_energy": -1.85, "cluster_size": 28, "cluster_id": 2, "rank_in_cluster": 24}

>  <energy>  (23) 
-8.19

>  <cluster_rmsd>  (23) 
0.33

>  <cluster>  (23) 
2

$$$$

     RDKit          3D

 39 41  0  0  0  0  0  0  0  0999 V2000
  141.8290   67.7680  229.5380 N   0  0  0  0  0  0  0  0  0  0  0  0
  141.3490   68.2140  228.5810 C   0  0  0  0  0  0  0  0  0  0  0  0
  140.7560   68.7530  227.3900 C   0  0  0  0  0  0  0  0  0  0  0  0
  140.9450   70.0810  227.0830 C   0  0  0  0  0  0  0  0  0  0  0  0
  140.4120   70.6660  225.9680 C   0  0  0  0  0  0  0  0  0  0  0  0
  139.6350   69.9270  225.0680 C   0  0  0  0  0  0  0  0  0  0  0  0
  139.1220   70.6050  223.9420 N   0  0  0  0  0  0  0  0  0  0  0  0
  137.7820   70.9800  223.7330 C   0  0  0  0  0  0  0  0  0  0  0  0
  136.8760   70.7410  224.5620 O   0  0  0  0  0  0  0  0  0  0  0  0
  137.3920   71.6920  222.4920 C   0  0  0  0  0  0  0  0  0  0  0  0
  138.1100   72.9390  222.3330 N   0  0  0  0  0  0  0  0  0  0  0  0
  139.3870   72.9830  221.7140 C   0  0  0  0  0  0  0  0  0  0  0  0
  139.9360   71.9330  221.2830 O   0  0  0  0  0  0  0  0  0  0  0  0
  140.0460   74.2980  221.5940 C   0  0  0  0  0  0  0  0  0  0  0  0
  141.2100   74.4490  220.8690 C   0  0  0  0  0  0  0  0  0  0  0  0
  141.8350   75.6830  220.7530 C   0  0  0  0  0  0  0  0  0  0  0  0
  141.2710   76.7750  221.3770 C   0  0  0  0  0  0  0  0  0  0  0  0
  141.8130   78.0370  221.3220 C   0  0  0  0  0  0  0  0  0  0  0  0
  141.1750   79.0780  221.9830 C   0  0  0  0  0  0  0  0  0  0  0  0
  141.8330   80.7110  221.9380 Cl  0  0  0  0  0  0  0  0  0  0  0  0
  140.0110   78.9020  222.7020 C   0  0  0  0  0  0  0  0  0  0  0  0
  139.4750   77.6500  222.7560 C   0  0  0  0  0  0  0  0  0  0  0  0
  140.1070   76.6070  222.0980 C   0  0  0  0  0  0  0  0  0  0  0  0
  139.5420   75.3950  222.1810 N   0  0  0  0  0  0  0  0  0  0  0  0
  139.4520   68.6160  225.3760 C   0  0  0  0  0  0  0  0  0  0  0  0
  139.9950   68.0100  226.5170 C   0  0  0  0  0  0  0  0  0  0  0  0
  141.5504   70.6980  227.7633 H   0  0  0  0  0  0  0  0  0  0  0  0
  140.5965   71.7332  225.7753 H   0  0  0  0  0  0  0  0  0  0  0  0
  139.7970   70.8660  223.1630 H   0  0  0  0  0  0  0  0  0  0  0  0
  137.6082   71.0453  221.6288 H   0  0  0  0  0  0  0  0  0  0  0  0
  136.3187   71.9241  222.5568 H   0  0  0  0  0  0  0  0  0  0  0  0
  137.6870   73.8510  222.6810 H   0  0  0  0  0  0  0  0  0  0  0  0
  141.6523   73.5728  220.3723 H   0  0  0  0  0  0  0  0  0  0  0  0
  142.7640   75.7876  220.1733 H   0  0  0  0  0  0  0  0  0  0  0  0
  142.7413   78.2200  220.7609 H   0  0  0  0  0  0  0  0  0  0  0  0
  139.5297   79.7469  223.2164 H   0  0  0  0  0  0  0  0  0  0  0  0
  138.5470   77.4687  223.3181 H   0  0  0  0  0  0  0  0  0  0  0  0
  138.8470   67.9993  224.6952 H   0  0  0  0  0  0  0  0  0  0  0  0
  139.8133   66.9432  226.7142 H   0  0  0  0  0  0  0  0  0  0  0  0
  1  2  3  0
  2  3  1  0
  3  4  2  0
  4  5  1  0
  5  6  2  0
  6  7  1  0
  7  8  1  0
  8  9  2  0
  8 10  1  0
 10 11  1  0
 11 12  1  0
 12 13  2  0
 12 14  1  0
 14 15  2  0
 15 16  1  0
 16 17  2  0
 17 18  1  0
 18 19  2  0
 19 20  1  0
 19 21  1  0
 21 22  2  0
 22 23  1  0
 23 24  2  0
  6 25  1  0
 25 26  2  0
 26  3  1  0
 24 14  1  0
 23 17  1  0
  4 27  1  0
  5 28  1  0
  7 29  1  0
 10 30  1  0
 10 31  1  0
 11 32  1  0
 15 33  1  0
 16 34  1  0
 18 35  1  0
 21 36  1  0
 22 37  1  0
 25 38  1  0
 26 39  1  0
M  END
>  <smiles>  (24) 
N#Cc1ccc(NC(=O)CNC(=O)c2ccc3cc(Cl)ccc3n2)cc1

>  <score_type>  (24) 
oracle

>  <origin>  (24) 
autodockgpu

>  <m_score__min__energy>  (24) 
-8.3300000000000001

>  <m_primary>  (24) 
energy

>  <rmsd>  (24) 
8.024014441063484

>  <m_score__min__rmsd>  (24) 
8.024014441063484

>  <meeko>  (24) 
{"free_energy": -7.46, "intermolecular_energy": -8.95, "internal_energy": -1.86, "cluster_size": 28, "cluster_id": 2, "rank_in_cluster": 23}

>  <energy>  (24) 
-8.17

>  <cluster_rmsd>  (24) 
0.31

>  <cluster>  (24) 
2

$$$$

     RDKit          3D

 39 41  0  0  0  0  0  0  0  0999 V2000
  142.3540   81.6440  223.9310 N   0  0  0  0  0  0  0  0  0  0  0  0
  141.7510   80.6870  223.6720 C   0  0  0  0  0  0  0  0  0  0  0  0
  141.0170   79.4950  223.3560 C   0  0  0  0  0  0  0  0  0  0  0  0
  141.7010   78.3470  223.0320 C   0  0  0  0  0  0  0  0  0  0  0  0
  141.0730   77.1730  222.7190 C   0  0  0  0  0  0  0  0  0  0  0  0
  139.6750   77.0840  222.7140 C   0  0  0  0  0  0  0  0  0  0  0  0
  139.1040   75.8380  222.3800 N   0  0  0  0  0  0  0  0  0  0  0  0
  138.6240   75.4520  221.1150 C   0  0  0  0  0  0  0  0  0  0  0  0
  138.6610   76.2090  220.1190 O   0  0  0  0  0  0  0  0  0  0  0  0
  138.0470   74.1010  220.9160 C   0  0  0  0  0  0  0  0  0  0  0  0
  138.4010   73.1960  221.9890 N   0  0  0  0  0  0  0  0  0  0  0  0
  138.4800   71.7940  221.7780 C   0  0  0  0  0  0  0  0  0  0  0  0
  138.2430   71.2940  220.6460 O   0  0  0  0  0  0  0  0  0  0  0  0
  138.8480   70.9470  222.9290 C   0  0  0  0  0  0  0  0  0  0  0  0
  138.5520   69.6000  222.9480 C   0  0  0  0  0  0  0  0  0  0  0  0
  138.8960   68.7980  224.0270 C   0  0  0  0  0  0  0  0  0  0  0  0
  139.5480   69.3700  225.0990 C   0  0  0  0  0  0  0  0  0  0  0  0
  139.9300   68.6620  226.2130 C   0  0  0  0  0  0  0  0  0  0  0  0
  140.5830   69.3220  227.2450 C   0  0  0  0  0  0  0  0  0  0  0  0
  141.0910   68.4540  228.6910 Cl  0  0  0  0  0  0  0  0  0  0  0  0
  140.8680   70.6710  227.2040 C   0  0  0  0  0  0  0  0  0  0  0  0
  140.4890   71.3720  226.0980 C   0  0  0  0  0  0  0  0  0  0  0  0
  139.8370   70.7180  225.0640 C   0  0  0  0  0  0  0  0  0  0  0  0
  139.4840   71.4500  223.9990 N   0  0  0  0  0  0  0  0  0  0  0  0
  139.0040   78.2210  223.0350 C   0  0  0  0  0  0  0  0  0  0  0  0
  139.6420   79.4270  223.3570 C   0  0  0  0  0  0  0  0  0  0  0  0
  142.8006   78.3740  223.0242 H   0  0  0  0  0  0  0  0  0  0  0  0
  141.6739   76.2866  222.4677 H   0  0  0  0  0  0  0  0  0  0  0  0
  139.0160   75.1050  223.1460 H   0  0  0  0  0  0  0  0  0  0  0  0
  136.9512   74.1861  220.8704 H   0  0  0  0  0  0  0  0  0  0  0  0
  138.4541   73.6926  219.9792 H   0  0  0  0  0  0  0  0  0  0  0  0
  138.6100   73.5720  222.9620 H   0  0  0  0  0  0  0  0  0  0  0  0
  138.0317   69.1515  222.0888 H   0  0  0  0  0  0  0  0  0  0  0  0
  138.6529   67.7252  224.0271 H   0  0  0  0  0  0  0  0  0  0  0  0
  139.7207   67.5846  226.2862 H   0  0  0  0  0  0  0  0  0  0  0  0
  141.3856   71.1663  228.0387 H   0  0  0  0  0  0  0  0  0  0  0  0
  140.6991   72.4494  226.0265 H   0  0  0  0  0  0  0  0  0  0  0  0
  137.9044   78.1938  223.0426 H   0  0  0  0  0  0  0  0  0  0  0  0
  139.0458   80.3162  223.6097 H   0  0  0  0  0  0  0  0  0  0  0  0
  1  2  3  0
  2  3  1  0
  3  4  2  0
  4  5  1  0
  5  6  2  0
  6  7  1  0
  7  8  1  0
  8  9  2  0
  8 10  1  0
 10 11  1  0
 11 12  1  0
 12 13  2  0
 12 14  1  0
 14 15  2  0
 15 16  1  0
 16 17  2  0
 17 18  1  0
 18 19  2  0
 19 20  1  0
 19 21  1  0
 21 22  2  0
 22 23  1  0
 23 24  2  0
  6 25  1  0
 25 26  2  0
 26  3  1  0
 24 14  1  0
 23 17  1  0
  4 27  1  0
  5 28  1  0
  7 29  1  0
 10 30  1  0
 10 31  1  0
 11 32  1  0
 15 33  1  0
 16 34  1  0
 18 35  1  0
 21 36  1  0
 22 37  1  0
 25 38  1  0
 26 39  1  0
M  END
>  <smiles>  (25) 
N#Cc1ccc(NC(=O)CNC(=O)c2ccc3cc(Cl)ccc3n2)cc1

>  <score_type>  (25) 
oracle

>  <origin>  (25) 
autodockgpu

>  <m_score__min__energy>  (25) 
-8.3300000000000001

>  <m_primary>  (25) 
energy

>  <rmsd>  (25) 
2.568842979738928

>  <m_score__min__rmsd>  (25) 
2.568842979738928

>  <meeko>  (25) 
{"free_energy": -8.22, "intermolecular_energy": -9.71, "internal_energy": -1.05, "cluster_size": 21, "cluster_id": 1, "rank_in_cluster": 6}

>  <energy>  (25) 
-8.16

>  <cluster_rmsd>  (25) 
0.26

>  <cluster>  (25) 
2

$$$$

     RDKit          3D

 39 41  0  0  0  0  0  0  0  0999 V2000
  142.3030   81.7830  223.9140 N   0  0  0  0  0  0  0  0  0  0  0  0
  141.7220   80.8080  223.6690 C   0  0  0  0  0  0  0  0  0  0  0  0
  140.9980   79.6100  223.3550 C   0  0  0  0  0  0  0  0  0  0  0  0
  141.6910   78.4720  223.0160 C   0  0  0  0  0  0  0  0  0  0  0  0
  141.0720   77.2920  222.7050 C   0  0  0  0  0  0  0  0  0  0  0  0
  139.6760   77.1870  222.7170 C   0  0  0  0  0  0  0  0  0  0  0  0
  139.1150   75.9360  222.3830 N   0  0  0  0  0  0  0  0  0  0  0  0
  138.8340   75.4670  221.0860 C   0  0  0  0  0  0  0  0  0  0  0  0
  139.0650   76.1430  220.0580 O   0  0  0  0  0  0  0  0  0  0  0  0
  138.2410   74.1230  220.8910 C   0  0  0  0  0  0  0  0  0  0  0  0
  138.5780   73.2190  221.9710 N   0  0  0  0  0  0  0  0  0  0  0  0
  138.3520   71.8210  221.8630 C   0  0  0  0  0  0  0  0  0  0  0  0
  137.8500   71.3240  220.8200 O   0  0  0  0  0  0  0  0  0  0  0  0
  138.7270   70.9750  223.0130 C   0  0  0  0  0  0  0  0  0  0  0  0
  138.3450   69.6520  223.0800 C   0  0  0  0  0  0  0  0  0  0  0  0
  138.6940   68.8510  224.1580 C   0  0  0  0  0  0  0  0  0  0  0  0
  139.4400   69.4000  225.1800 C   0  0  0  0  0  0  0  0  0  0  0  0
  139.8340   68.6910  226.2890 C   0  0  0  0  0  0  0  0  0  0  0  0
  140.5850   69.3270  227.2690 C   0  0  0  0  0  0  0  0  0  0  0  0
  141.1130   68.4570  228.7060 Cl  0  0  0  0  0  0  0  0  0  0  0  0
  140.9540   70.6530  227.1800 C   0  0  0  0  0  0  0  0  0  0  0  0
  140.5620   71.3540  226.0790 C   0  0  0  0  0  0  0  0  0  0  0  0
  139.8130   70.7250  225.0970 C   0  0  0  0  0  0  0  0  0  0  0  0
  139.4510   71.4570  224.0350 N   0  0  0  0  0  0  0  0  0  0  0  0
  138.9960   78.3140  223.0520 C   0  0  0  0  0  0  0  0  0  0  0  0
  139.6240   79.5250  223.3730 C   0  0  0  0  0  0  0  0  0  0  0  0
  142.7901   78.5118  222.9939 H   0  0  0  0  0  0  0  0  0  0  0  0
  141.6797   76.4137  222.4419 H   0  0  0  0  0  0  0  0  0  0  0  0
  138.8730   75.2670  223.1730 H   0  0  0  0  0  0  0  0  0  0  0  0
  137.1467   74.2219  220.8392 H   0  0  0  0  0  0  0  0  0  0  0  0
  138.6476   73.7045  219.9585 H   0  0  0  0  0  0  0  0  0  0  0  0
  139.0040   73.5930  222.8710 H   0  0  0  0  0  0  0  0  0  0  0  0
  137.7503   69.2218  222.2607 H   0  0  0  0  0  0  0  0  0  0  0  0
  138.3813   67.7971  224.1968 H   0  0  0  0  0  0  0  0  0  0  0  0
  139.5578   67.6320  226.3994 H   0  0  0  0  0  0  0  0  0  0  0  0
  141.5470   71.1305  227.9740 H   0  0  0  0  0  0  0  0  0  0  0  0
  140.8385   72.4131  225.9703 H   0  0  0  0  0  0  0  0  0  0  0  0
  137.8969   78.2742  223.0724 H   0  0  0  0  0  0  0  0  0  0  0  0
  139.0206   80.4055  223.6387 H   0  0  0  0  0  0  0  0  0  0  0  0
  1  2  3  0
  2  3  1  0
  3  4  2  0
  4  5  1  0
  5  6  2  0
  6  7  1  0
  7  8  1  0
  8  9  2  0
  8 10  1  0
 10 11  1  0
 11 12  1  0
 12 13  2  0
 12 14  1  0
 14 15  2  0
 15 16  1  0
 16 17  2  0
 17 18  1  0
 18 19  2  0
 19 20  1  0
 19 21  1  0
 21 22  2  0
 22 23  1  0
 23 24  2  0
  6 25  1  0
 25 26  2  0
 26  3  1  0
 24 14  1  0
 23 17  1  0
  4 27  1  0
  5 28  1  0
  7 29  1  0
 10 30  1  0
 10 31  1  0
 11 32  1  0
 15 33  1  0
 16 34  1  0
 18 35  1  0
 21 36  1  0
 22 37  1  0
 25 38  1  0
 26 39  1  0
M  END
>  <smiles>  (26) 
N#Cc1ccc(NC(=O)CNC(=O)c2ccc3cc(Cl)ccc3n2)cc1

>  <score_type>  (26) 
oracle

>  <origin>  (26) 
autodockgpu

>  <m_score__min__energy>  (26) 
-8.3300000000000001

>  <m_primary>  (26) 
energy

>  <rmsd>  (26) 
2.5835893836734454

>  <m_score__min__rmsd>  (26) 
2.5835893836734454

>  <meeko>  (26) 
{"free_energy": -8.2, "intermolecular_energy": -9.69, "internal_energy": -1.09, "cluster_size": 21, "cluster_id": 1, "rank_in_cluster": 7}

>  <energy>  (26) 
-8.1

>  <cluster_rmsd>  (26) 
0.43

>  <cluster>  (26) 
2

$$$$

     RDKit          3D

 39 41  0  0  0  0  0  0  0  0999 V2000
  142.5780   81.9210  224.0630 N   0  0  0  0  0  0  0  0  0  0  0  0
  142.2110   80.9640  223.5200 C   0  0  0  0  0  0  0  0  0  0  0  0
  141.7660   79.7730  222.8540 C   0  0  0  0  0  0  0  0  0  0  0  0
  141.4140   78.6730  223.6000 C   0  0  0  0  0  0  0  0  0  0  0  0
  140.9820   77.5030  223.0390 C   0  0  0  0  0  0  0  0  0  0  0  0
  140.8750   77.3690  221.6490 C   0  0  0  0  0  0  0  0  0  0  0  0
  140.4220   76.1300  221.1490 N   0  0  0  0  0  0  0  0  0  0  0  0
  139.0890   75.6810  221.1130 C   0  0  0  0  0  0  0  0  0  0  0  0
  138.1330   76.3680  221.5390 O   0  0  0  0  0  0  0  0  0  0  0  0
  138.7650   74.3470  220.5540 C   0  0  0  0  0  0  0  0  0  0  0  0
  138.8460   73.3040  221.5560 N   0  0  0  0  0  0  0  0  0  0  0  0
  140.0540   73.0400  222.2530 C   0  0  0  0  0  0  0  0  0  0  0  0
  141.0970   73.7080  222.0190 O   0  0  0  0  0  0  0  0  0  0  0  0
  140.0450   71.9590  223.2570 C   0  0  0  0  0  0  0  0  0  0  0  0
  139.5380   70.7120  222.9580 C   0  0  0  0  0  0  0  0  0  0  0  0
  139.5270   69.6910  223.8990 C   0  0  0  0  0  0  0  0  0  0  0  0
  140.0360   69.9390  225.1560 C   0  0  0  0  0  0  0  0  0  0  0  0
  140.0690   68.9960  226.1550 C   0  0  0  0  0  0  0  0  0  0  0  0
  140.6010   69.3360  227.3910 C   0  0  0  0  0  0  0  0  0  0  0  0
  140.6640   68.1590  228.7000 Cl  0  0  0  0  0  0  0  0  0  0  0  0
  141.1020   70.5920  227.6670 C   0  0  0  0  0  0  0  0  0  0  0  0
  141.0680   71.5260  226.6740 C   0  0  0  0  0  0  0  0  0  0  0  0
  140.5390   71.1920  225.4380 C   0  0  0  0  0  0  0  0  0  0  0  0
  140.5270   72.1450  224.4960 N   0  0  0  0  0  0  0  0  0  0  0  0
  141.2240   78.4580  220.9160 C   0  0  0  0  0  0  0  0  0  0  0  0
  141.6680   79.6590  221.4860 C   0  0  0  0  0  0  0  0  0  0  0  0
  141.4829   78.7368  224.6960 H   0  0  0  0  0  0  0  0  0  0  0  0
  140.7150   76.6560  223.6881 H   0  0  0  0  0  0  0  0  0  0  0  0
  141.1430   75.4530  220.7560 H   0  0  0  0  0  0  0  0  0  0  0  0
  137.7429   74.3708  220.1481 H   0  0  0  0  0  0  0  0  0  0  0  0
  139.5004   74.1205  219.7679 H   0  0  0  0  0  0  0  0  0  0  0  0
  137.9910   72.7140  221.7870 H   0  0  0  0  0  0  0  0  0  0  0  0
  139.1337   70.5221  221.9528 H   0  0  0  0  0  0  0  0  0  0  0  0
  139.1191   68.7013  223.6459 H   0  0  0  0  0  0  0  0  0  0  0  0
  139.6782   67.9832  225.9771 H   0  0  0  0  0  0  0  0  0  0  0  0
  141.5160   70.8322  228.6574 H   0  0  0  0  0  0  0  0  0  0  0  0
  141.4583   72.5387  226.8534 H   0  0  0  0  0  0  0  0  0  0  0  0
  141.1547   78.3941  219.8200 H   0  0  0  0  0  0  0  0  0  0  0  0
  141.9375   80.5086  220.8413 H   0  0  0  0  0  0  0  0  0  0  0  0
  1  2  3  0
  2  3  1  0
  3  4  2  0
  4  5  1  0
  5  6  2  0
  6  7  1  0
  7  8  1  0
  8  9  2  0
  8 10  1  0
 10 11  1  0
 11 12  1  0
 12 13  2  0
 12 14  1  0
 14 15  2  0
 15 16  1  0
 16 17  2  0
 17 18  1  0
 18 19  2  0
 19 20  1  0
 19 21  1  0
 21 22  2  0
 22 23  1  0
 23 24  2  0
  6 25  1  0
 25 26  2  0
 26  3  1  0
 24 14  1  0
 23 17  1  0
  4 27  1  0
  5 28  1  0
  7 29  1  0
 10 30  1  0
 10 31  1  0
 11 32  1  0
 15 33  1  0
 16 34  1  0
 18 35  1  0
 21 36  1  0
 22 37  1  0
 25 38  1  0
 26 39  1  0
M  END
>  <smiles>  (27) 
N#Cc1ccc(NC(=O)CNC(=O)c2ccc3cc(Cl)ccc3n2)cc1

>  <score_type>  (27) 
oracle

>  <origin>  (27) 
autodockgpu

>  <m_score__min__energy>  (27) 
-8.3300000000000001

>  <m_primary>  (27) 
energy

>  <rmsd>  (27) 
2.920741643838415

>  <m_score__min__rmsd>  (27) 
2.920741643838415

>  <meeko>  (27) 
{"free_energy": -7.98, "intermolecular_energy": -9.47, "internal_energy": -1.49, "cluster_size": 21, "cluster_id": 1, "rank_in_cluster": 13}

>  <energy>  (27) 
-8.06

>  <cluster_rmsd>  (27) 
0.32

>  <cluster>  (27) 
2

$$$$

     RDKit          3D

 39 41  0  0  0  0  0  0  0  0999 V2000
  141.6170   67.8940  229.4580 N   0  0  0  0  0  0  0  0  0  0  0  0
  141.1580   68.3540  228.4960 C   0  0  0  0  0  0  0  0  0  0  0  0
  140.5860   68.9330  227.3150 C   0  0  0  0  0  0  0  0  0  0  0  0
  140.9320   70.2150  226.9560 C   0  0  0  0  0  0  0  0  0  0  0  0
  140.4290   70.8350  225.8450 C   0  0  0  0  0  0  0  0  0  0  0  0
  139.5200   70.1800  225.0050 C   0  0  0  0  0  0  0  0  0  0  0  0
  139.0470   70.8880  223.8800 N   0  0  0  0  0  0  0  0  0  0  0  0
  137.7020   71.1600  223.5690 C   0  0  0  0  0  0  0  0  0  0  0  0
  136.7520   70.7850  224.2930 O   0  0  0  0  0  0  0  0  0  0  0  0
  137.3580   71.9200  222.3440 C   0  0  0  0  0  0  0  0  0  0  0  0
  138.0780   73.1740  222.2630 N   0  0  0  0  0  0  0  0  0  0  0  0
  139.3830   73.2430  221.7070 C   0  0  0  0  0  0  0  0  0  0  0  0
  139.9550   72.2110  221.2650 O   0  0  0  0  0  0  0  0  0  0  0  0
  140.0420   74.5620  221.6650 C   0  0  0  0  0  0  0  0  0  0  0  0
  141.1910   74.7630  220.9290 C   0  0  0  0  0  0  0  0  0  0  0  0
  141.8150   76.0020  220.8860 C   0  0  0  0  0  0  0  0  0  0  0  0
  141.2660   77.0490  221.5960 C   0  0  0  0  0  0  0  0  0  0  0  0
  141.8090   78.3110  221.6170 C   0  0  0  0  0  0  0  0  0  0  0  0
  141.1860   79.3040  222.3610 C   0  0  0  0  0  0  0  0  0  0  0  0
  141.8460   80.9360  222.4150 Cl  0  0  0  0  0  0  0  0  0  0  0  0
  140.0360   79.0800  223.0890 C   0  0  0  0  0  0  0  0  0  0  0  0
  139.5000   77.8260  223.0660 C   0  0  0  0  0  0  0  0  0  0  0  0
  140.1160   76.8310  222.3250 C   0  0  0  0  0  0  0  0  0  0  0  0
  139.5510   75.6160  222.3360 N   0  0  0  0  0  0  0  0  0  0  0  0
  139.1810   68.9140  225.3640 C   0  0  0  0  0  0  0  0  0  0  0  0
  139.6930   68.2740  226.5010 C   0  0  0  0  0  0  0  0  0  0  0  0
  141.6435   70.7652  227.5892 H   0  0  0  0  0  0  0  0  0  0  0  0
  140.7430   71.8623  225.6083 H   0  0  0  0  0  0  0  0  0  0  0  0
  139.7610   71.2610  223.1860 H   0  0  0  0  0  0  0  0  0  0  0  0
  137.6094   71.3088  221.4646 H   0  0  0  0  0  0  0  0  0  0  0  0
  136.2823   72.1475  222.3763 H   0  0  0  0  0  0  0  0  0  0  0  0
  137.6360   74.0720  222.6230 H   0  0  0  0  0  0  0  0  0  0  0  0
  141.6220   73.9234  220.3640 H   0  0  0  0  0  0  0  0  0  0  0  0
  142.7319   76.1463  220.2956 H   0  0  0  0  0  0  0  0  0  0  0  0
  142.7261   78.5319  221.0513 H   0  0  0  0  0  0  0  0  0  0  0  0
  139.5660   79.8873  223.6698 H   0  0  0  0  0  0  0  0  0  0  0  0
  138.5834   77.6060  223.6329 H   0  0  0  0  0  0  0  0  0  0  0  0
  138.4693   68.3641  224.7307 H   0  0  0  0  0  0  0  0  0  0  0  0
  139.3817   67.2469  226.7423 H   0  0  0  0  0  0  0  0  0  0  0  0
  1  2  3  0
  2  3  1  0
  3  4  2  0
  4  5  1  0
  5  6  2  0
  6  7  1  0
  7  8  1  0
  8  9  2  0
  8 10  1  0
 10 11  1  0
 11 12  1  0
 12 13  2  0
 12 14  1  0
 14 15  2  0
 15 16  1  0
 16 17  2  0
 17 18  1  0
 18 19  2  0
 19 20  1  0
 19 21  1  0
 21 22  2  0
 22 23  1  0
 23 24  2  0
  6 25  1  0
 25 26  2  0
 26  3  1  0
 24 14  1  0
 23 17  1  0
  4 27  1  0
  5 28  1  0
  7 29  1  0
 10 30  1  0
 10 31  1  0
 11 32  1  0
 15 33  1  0
 16 34  1  0
 18 35  1  0
 21 36  1  0
 22 37  1  0
 25 38  1  0
 26 39  1  0
M  END
>  <smiles>  (28) 
N#Cc1ccc(NC(=O)CNC(=O)c2ccc3cc(Cl)ccc3n2)cc1

>  <score_type>  (28) 
oracle

>  <origin>  (28) 
autodockgpu

>  <m_score__min__energy>  (28) 
-8.3300000000000001

>  <m_primary>  (28) 
energy

>  <rmsd>  (28) 
8.00373985363688

>  <m_score__min__rmsd>  (28) 
8.00373985363688

>  <meeko>  (28) 
{"free_energy": -7.37, "intermolecular_energy": -8.86, "internal_energy": -1.85, "cluster_size": 28, "cluster_id": 2, "rank_in_cluster": 27}

>  <energy>  (28) 
-8.06

>  <cluster_rmsd>  (28) 
0.43

>  <cluster>  (28) 
2

$$$$

     RDKit          3D

 39 41  0  0  0  0  0  0  0  0999 V2000
  142.1980   82.0110  223.8090 N   0  0  0  0  0  0  0  0  0  0  0  0
  141.7370   80.9970  223.4840 C   0  0  0  0  0  0  0  0  0  0  0  0
  141.1550   79.7460  223.0890 C   0  0  0  0  0  0  0  0  0  0  0  0
  141.8910   78.8680  222.3280 C   0  0  0  0  0  0  0  0  0  0  0  0
  141.4060   77.6590  221.9140 C   0  0  0  0  0  0  0  0  0  0  0  0
  140.1110   77.2480  222.2530 C   0  0  0  0  0  0  0  0  0  0  0  0
  139.6860   75.9870  221.7870 N   0  0  0  0  0  0  0  0  0  0  0  0
  138.3600   75.5170  221.7410 C   0  0  0  0  0  0  0  0  0  0  0  0
  137.3860   76.2040  222.1250 O   0  0  0  0  0  0  0  0  0  0  0  0
  138.0660   74.1600  221.2210 C   0  0  0  0  0  0  0  0  0  0  0  0
  138.3220   73.1330  222.2100 N   0  0  0  0  0  0  0  0  0  0  0  0
  139.6460   72.7820  222.5840 C   0  0  0  0  0  0  0  0  0  0  0  0
  140.6410   73.3560  222.0660 O   0  0  0  0  0  0  0  0  0  0  0  0
  139.8130   71.7240  223.5990 C   0  0  0  0  0  0  0  0  0  0  0  0
  139.4580   70.4180  223.3350 C   0  0  0  0  0  0  0  0  0  0  0  0
  139.6130   69.4190  224.2850 C   0  0  0  0  0  0  0  0  0  0  0  0
  140.1360   69.7480  225.5180 C   0  0  0  0  0  0  0  0  0  0  0  0
  140.3270   68.8320  226.5240 C   0  0  0  0  0  0  0  0  0  0  0  0
  140.8610   69.2570  227.7340 C   0  0  0  0  0  0  0  0  0  0  0  0
  141.1240   68.1170  229.0510 Cl  0  0  0  0  0  0  0  0  0  0  0  0
  141.2080   70.5690  227.9760 C   0  0  0  0  0  0  0  0  0  0  0  0
  141.0180   71.4760  226.9760 C   0  0  0  0  0  0  0  0  0  0  0  0
  140.4860   71.0590  225.7660 C   0  0  0  0  0  0  0  0  0  0  0  0
  140.3170   71.9880  224.8160 N   0  0  0  0  0  0  0  0  0  0  0  0
  139.3880   78.1180  223.0050 C   0  0  0  0  0  0  0  0  0  0  0  0
  139.8800   79.3590  223.4330 C   0  0  0  0  0  0  0  0  0  0  0  0
  142.9142   79.1510  222.0401 H   0  0  0  0  0  0  0  0  0  0  0  0
  142.0422   76.9993  221.3057 H   0  0  0  0  0  0  0  0  0  0  0  0
  140.4230   75.3080  221.4310 H   0  0  0  0  0  0  0  0  0  0  0  0
  137.0070   74.1140  220.9271 H   0  0  0  0  0  0  0  0  0  0  0  0
  138.7259   73.9753  220.3605 H   0  0  0  0  0  0  0  0  0  0  0  0
  137.5140   72.6210  222.6740 H   0  0  0  0  0  0  0  0  0  0  0  0
  139.0426   70.1626  222.3490 H   0  0  0  0  0  0  0  0  0  0  0  0
  139.3237   68.3821  224.0587 H   0  0  0  0  0  0  0  0  0  0  0  0
  140.0605   67.7755  226.3733 H   0  0  0  0  0  0  0  0  0  0  0  0
  141.6256   70.8749  228.9466 H   0  0  0  0  0  0  0  0  0  0  0  0
  141.2853   72.5321  227.1285 H   0  0  0  0  0  0  0  0  0  0  0  0
  138.3648   77.8345  223.2927 H   0  0  0  0  0  0  0  0  0  0  0  0
  139.2483   80.0219  224.0425 H   0  0  0  0  0  0  0  0  0  0  0  0
  1  2  3  0
  2  3  1  0
  3  4  2  0
  4  5  1  0
  5  6  2  0
  6  7  1  0
  7  8  1  0
  8  9  2  0
  8 10  1  0
 10 11  1  0
 11 12  1  0
 12 13  2  0
 12 14  1  0
 14 15  2  0
 15 16  1  0
 16 17  2  0
 17 18  1  0
 18 19  2  0
 19 20  1  0
 19 21  1  0
 21 22  2  0
 22 23  1  0
 23 24  2  0
  6 25  1  0
 25 26  2  0
 26  3  1  0
 24 14  1  0
 23 17  1  0
  4 27  1  0
  5 28  1  0
  7 29  1  0
 10 30  1  0
 10 31  1  0
 11 32  1  0
 15 33  1  0
 16 34  1  0
 18 35  1  0
 21 36  1  0
 22 37  1  0
 25 38  1  0
 26 39  1  0
M  END
>  <smiles>  (29) 
N#Cc1ccc(NC(=O)CNC(=O)c2ccc3cc(Cl)ccc3n2)cc1

>  <score_type>  (29) 
oracle

>  <origin>  (29) 
autodockgpu

>  <m_score__min__energy>  (29) 
-8.3300000000000001

>  <m_primary>  (29) 
energy

>  <rmsd>  (29) 
2.5251304909053767

>  <m_score__min__rmsd>  (29) 
2.5251304909053767

>  <meeko>  (29) 
{"free_energy": -7.94, "intermolecular_energy": -9.43, "internal_energy": -1.47, "cluster_size": 21, "cluster_id": 1, "rank_in_cluster": 15}

>  <energy>  (29) 
-8.05

>  <cluster_rmsd>  (29) 
0.55

>  <cluster>  (29) 
2

$$$$

     RDKit          3D

 39 41  0  0  0  0  0  0  0  0999 V2000
  142.6050   81.9900  224.3670 N   0  0  0  0  0  0  0  0  0  0  0  0
  142.1880   81.0380  223.8490 C   0  0  0  0  0  0  0  0  0  0  0  0
  141.6700   79.8700  223.1970 C   0  0  0  0  0  0  0  0  0  0  0  0
  141.8280   78.6390  223.7900 C   0  0  0  0  0  0  0  0  0  0  0  0
  141.3630   77.4810  223.2310 C   0  0  0  0  0  0  0  0  0  0  0  0
  140.6880   77.4950  222.0040 C   0  0  0  0  0  0  0  0  0  0  0  0
  140.2390   76.2590  221.4950 N   0  0  0  0  0  0  0  0  0  0  0  0
  138.9040   75.8190  221.4260 C   0  0  0  0  0  0  0  0  0  0  0  0
  137.9430   76.5130  221.8250 O   0  0  0  0  0  0  0  0  0  0  0  0
  138.5860   74.4860  220.8610 C   0  0  0  0  0  0  0  0  0  0  0  0
  138.7130   73.4340  221.8480 N   0  0  0  0  0  0  0  0  0  0  0  0
  139.9830   73.0270  222.3360 C   0  0  0  0  0  0  0  0  0  0  0  0
  141.0410   73.5720  221.9230 O   0  0  0  0  0  0  0  0  0  0  0  0
  140.0180   71.9470  223.3410 C   0  0  0  0  0  0  0  0  0  0  0  0
  139.5570   70.6820  223.0450 C   0  0  0  0  0  0  0  0  0  0  0  0
  139.5870   69.6620  223.9860 C   0  0  0  0  0  0  0  0  0  0  0  0
  140.0930   69.9300  225.2410 C   0  0  0  0  0  0  0  0  0  0  0  0
  140.1650   68.9890  226.2400 C   0  0  0  0  0  0  0  0  0  0  0  0
  140.6900   69.3500  227.4740 C   0  0  0  0  0  0  0  0  0  0  0  0
  140.8030   68.1760  228.7830 Cl  0  0  0  0  0  0  0  0  0  0  0  0
  141.1460   70.6230  227.7470 C   0  0  0  0  0  0  0  0  0  0  0  0
  141.0730   71.5540  226.7540 C   0  0  0  0  0  0  0  0  0  0  0  0
  140.5500   71.2010  225.5200 C   0  0  0  0  0  0  0  0  0  0  0  0
  140.4990   72.1520  224.5780 N   0  0  0  0  0  0  0  0  0  0  0  0
  140.5340   78.7130  221.4220 C   0  0  0  0  0  0  0  0  0  0  0  0
  141.0090   79.9030  221.9900 C   0  0  0  0  0  0  0  0  0  0  0  0
  142.3512   78.5837  224.7560 H   0  0  0  0  0  0  0  0  0  0  0  0
  141.5213   76.5253  223.7522 H   0  0  0  0  0  0  0  0  0  0  0  0
  140.9650   75.5760  221.1230 H   0  0  0  0  0  0  0  0  0  0  0  0
  137.5524   74.4971  220.4848 H   0  0  0  0  0  0  0  0  0  0  0  0
  139.3019   74.2806  220.0515 H   0  0  0  0  0  0  0  0  0  0  0  0
  137.8480   72.9440  222.2260 H   0  0  0  0  0  0  0  0  0  0  0  0
  139.1567   70.4764  222.0413 H   0  0  0  0  0  0  0  0  0  0  0  0
  139.2140   68.6580  223.7354 H   0  0  0  0  0  0  0  0  0  0  0  0
  139.8111   67.9624  226.0644 H   0  0  0  0  0  0  0  0  0  0  0  0
  141.5558   70.8788  228.7352 H   0  0  0  0  0  0  0  0  0  0  0  0
  141.4274   72.5802  226.9312 H   0  0  0  0  0  0  0  0  0  0  0  0
  140.0101   78.7679  220.4563 H   0  0  0  0  0  0  0  0  0  0  0  0
  140.8539   80.8612  221.4724 H   0  0  0  0  0  0  0  0  0  0  0  0
  1  2  3  0
  2  3  1  0
  3  4  2  0
  4  5  1  0
  5  6  2  0
  6  7  1  0
  7  8  1  0
  8  9  2  0
  8 10  1  0
 10 11  1  0
 11 12  1  0
 12 13  2  0
 12 14  1  0
 14 15  2  0
 15 16  1  0
 16 17  2  0
 17 18  1  0
 18 19  2  0
 19 20  1  0
 19 21  1  0
 21 22  2  0
 22 23  1  0
 23 24  2  0
  6 25  1  0
 25 26  2  0
 26  3  1  0
 24 14  1  0
 23 17  1  0
  4 27  1  0
  5 28  1  0
  7 29  1  0
 10 30  1  0
 10 31  1  0
 11 32  1  0
 15 33  1  0
 16 34  1  0
 18 35  1  0
 21 36  1  0
 22 37  1  0
 25 38  1  0
 26 39  1  0
M  END
>  <smiles>  (30) 
N#Cc1ccc(NC(=O)CNC(=O)c2ccc3cc(Cl)ccc3n2)cc1

>  <score_type>  (30) 
oracle

>  <origin>  (30) 
autodockgpu

>  <m_score__min__energy>  (30) 
-8.3300000000000001

>  <m_primary>  (30) 
energy

>  <rmsd>  (30) 
3.0186599182479235

>  <m_score__min__rmsd>  (30) 
3.0186599182479235

>  <meeko>  (30) 
{"free_energy": -8.02, "intermolecular_energy": -9.51, "internal_energy": -1.53, "cluster_size": 21, "cluster_id": 1, "rank_in_cluster": 11}

>  <energy>  (30) 
-8.03

>  <cluster_rmsd>  (30) 
0.31

>  <cluster>  (30) 
2

$$$$

     RDKit          3D

 39 41  0  0  0  0  0  0  0  0999 V2000
  141.7490   67.7570  229.4980 N   0  0  0  0  0  0  0  0  0  0  0  0
  141.2730   68.2020  228.5370 C   0  0  0  0  0  0  0  0  0  0  0  0
  140.6980   68.7570  227.3460 C   0  0  0  0  0  0  0  0  0  0  0  0
  140.8780   70.0920  227.0680 C   0  0  0  0  0  0  0  0  0  0  0  0
  140.3610   70.6930  225.9530 C   0  0  0  0  0  0  0  0  0  0  0  0
  139.6100   69.9620  225.0240 C   0  0  0  0  0  0  0  0  0  0  0  0
  139.1110   70.6560  223.9020 N   0  0  0  0  0  0  0  0  0  0  0  0
  137.7840   71.0810  223.7040 C   0  0  0  0  0  0  0  0  0  0  0  0
  136.8780   70.8780  224.5430 O   0  0  0  0  0  0  0  0  0  0  0  0
  137.4080   71.8030  222.4660 C   0  0  0  0  0  0  0  0  0  0  0  0
  138.1180   73.0580  222.3320 N   0  0  0  0  0  0  0  0  0  0  0  0
  139.4080   73.1190  221.7420 C   0  0  0  0  0  0  0  0  0  0  0  0
  139.9760   72.0790  221.3150 O   0  0  0  0  0  0  0  0  0  0  0  0
  140.0570   74.4410  221.6470 C   0  0  0  0  0  0  0  0  0  0  0  0
  141.2100   74.6190  220.9110 C   0  0  0  0  0  0  0  0  0  0  0  0
  141.8250   75.8600  220.8180 C   0  0  0  0  0  0  0  0  0  0  0  0
  141.2630   76.9320  221.4790 C   0  0  0  0  0  0  0  0  0  0  0  0
  141.7960   78.1980  221.4490 C   0  0  0  0  0  0  0  0  0  0  0  0
  141.1600   79.2180  222.1460 C   0  0  0  0  0  0  0  0  0  0  0  0
  141.8080   80.8560  222.1340 Cl  0  0  0  0  0  0  0  0  0  0  0  0
  140.0080   79.0150  222.8760 C   0  0  0  0  0  0  0  0  0  0  0  0
  139.4810   77.7580  222.9040 C   0  0  0  0  0  0  0  0  0  0  0  0
  140.1100   76.7360  222.2100 C   0  0  0  0  0  0  0  0  0  0  0  0
  139.5540   75.5190  222.2700 N   0  0  0  0  0  0  0  0  0  0  0  0
  139.4340   68.6440  225.3040 C   0  0  0  0  0  0  0  0  0  0  0  0
  139.9620   68.0230  226.4440 C   0  0  0  0  0  0  0  0  0  0  0  0
  141.4625   70.7024  227.7721 H   0  0  0  0  0  0  0  0  0  0  0  0
  140.5376   71.7655  225.7838 H   0  0  0  0  0  0  0  0  0  0  0  0
  139.7880   70.8890  223.1150 H   0  0  0  0  0  0  0  0  0  0  0  0
  137.6432   71.1678  221.5993 H   0  0  0  0  0  0  0  0  0  0  0  0
  136.3319   72.0256  222.5165 H   0  0  0  0  0  0  0  0  0  0  0  0
  137.6790   73.9630  222.6780 H   0  0  0  0  0  0  0  0  0  0  0  0
  141.6517   73.7589  220.3864 H   0  0  0  0  0  0  0  0  0  0  0  0
  142.7444   75.9861  220.2274 H   0  0  0  0  0  0  0  0  0  0  0  0
  142.7152   78.4016  220.8801 H   0  0  0  0  0  0  0  0  0  0  0  0
  139.5286   79.8425  223.4195 H   0  0  0  0  0  0  0  0  0  0  0  0
  138.5621   77.5559  223.4739 H   0  0  0  0  0  0  0  0  0  0  0  0
  138.8479   68.0341  224.6008 H   0  0  0  0  0  0  0  0  0  0  0  0
  139.7885   66.9507  226.6176 H   0  0  0  0  0  0  0  0  0  0  0  0
  1  2  3  0
  2  3  1  0
  3  4  2  0
  4  5  1  0
  5  6  2  0
  6  7  1  0
  7  8  1  0
  8  9  2  0
  8 10  1  0
 10 11  1  0
 11 12  1  0
 12 13  2  0
 12 14  1  0
 14 15  2  0
 15 16  1  0
 16 17  2  0
 17 18  1  0
 18 19  2  0
 19 20  1  0
 19 21  1  0
 21 22  2  0
 22 23  1  0
 23 24  2  0
  6 25  1  0
 25 26  2  0
 26  3  1  0
 24 14  1  0
 23 17  1  0
  4 27  1  0
  5 28  1  0
  7 29  1  0
 10 30  1  0
 10 31  1  0
 11 32  1  0
 15 33  1  0
 16 34  1  0
 18 35  1  0
 21 36  1  0
 22 37  1  0
 25 38  1  0
 26 39  1  0
M  END
>  <smiles>  (31) 
N#Cc1ccc(NC(=O)CNC(=O)c2ccc3cc(Cl)ccc3n2)cc1

>  <score_type>  (31) 
oracle

>  <origin>  (31) 
autodockgpu

>  <m_score__min__energy>  (31) 
-8.3300000000000001

>  <m_primary>  (31) 
energy

>  <rmsd>  (31) 
8.043451855421742

>  <m_score__min__rmsd>  (31) 
8.043451855421742

>  <meeko>  (31) 
{"free_energy": -7.44, "intermolecular_energy": -8.93, "internal_energy": -1.85, "cluster_size": 28, "cluster_id": 2, "rank_in_cluster": 25}

>  <energy>  (31) 
-8.0

>  <cluster_rmsd>  (31) 
0.49

>  <cluster>  (31) 
2

$$$$

     RDKit          3D

 39 41  0  0  0  0  0  0  0  0999 V2000
  141.6960   67.7660  229.4860 N   0  0  0  0  0  0  0  0  0  0  0  0
  141.3030   68.3960  228.5940 C   0  0  0  0  0  0  0  0  0  0  0  0
  140.8280   69.1850  227.4930 C   0  0  0  0  0  0  0  0  0  0  0  0
  140.1550   68.5710  226.4630 C   0  0  0  0  0  0  0  0  0  0  0  0
  139.6720   69.2540  225.3810 C   0  0  0  0  0  0  0  0  0  0  0  0
  139.8440   70.6400  225.2700 C   0  0  0  0  0  0  0  0  0  0  0  0
  139.3170   71.2700  224.1240 N   0  0  0  0  0  0  0  0  0  0  0  0
  137.9740   71.2510  223.7030 C   0  0  0  0  0  0  0  0  0  0  0  0
  137.0770   70.6490  224.3330 O   0  0  0  0  0  0  0  0  0  0  0  0
  137.5690   71.9650  222.4680 C   0  0  0  0  0  0  0  0  0  0  0  0
  138.2270   73.2490  222.3420 N   0  0  0  0  0  0  0  0  0  0  0  0
  139.5300   73.3620  221.7910 C   0  0  0  0  0  0  0  0  0  0  0  0
  140.1560   72.3430  221.3930 O   0  0  0  0  0  0  0  0  0  0  0  0
  140.1230   74.7100  221.7010 C   0  0  0  0  0  0  0  0  0  0  0  0
  141.2410   74.9480  220.9290 C   0  0  0  0  0  0  0  0  0  0  0  0
  141.8030   76.2140  220.8410 C   0  0  0  0  0  0  0  0  0  0  0  0
  141.2240   77.2500  221.5430 C   0  0  0  0  0  0  0  0  0  0  0  0
  141.7050   78.5370  221.5220 C   0  0  0  0  0  0  0  0  0  0  0  0
  141.0560   79.5160  222.2620 C   0  0  0  0  0  0  0  0  0  0  0  0
  141.6370   81.1780  222.2620 Cl  0  0  0  0  0  0  0  0  0  0  0  0
  139.9390   79.2530  223.0280 C   0  0  0  0  0  0  0  0  0  0  0  0
  139.4630   77.9750  223.0480 C   0  0  0  0  0  0  0  0  0  0  0  0
  140.1060   76.9940  222.3110 C   0  0  0  0  0  0  0  0  0  0  0  0
  139.6010   75.7540  222.3640 N   0  0  0  0  0  0  0  0  0  0  0  0
  140.5100   71.2420  226.2900 C   0  0  0  0  0  0  0  0  0  0  0  0
  141.0060   70.5470  227.4010 C   0  0  0  0  0  0  0  0  0  0  0  0
  139.9983   67.4833  226.5114 H   0  0  0  0  0  0  0  0  0  0  0  0
  139.1413   68.7078  224.5872 H   0  0  0  0  0  0  0  0  0  0  0  0
  139.9830   71.8180  223.5010 H   0  0  0  0  0  0  0  0  0  0  0  0
  137.8305   71.3452  221.5977 H   0  0  0  0  0  0  0  0  0  0  0  0
  136.4847   72.1429  222.5190 H   0  0  0  0  0  0  0  0  0  0  0  0
  137.7380   74.1370  222.6650 H   0  0  0  0  0  0  0  0  0  0  0  0
  141.6969   74.1167  220.3712 H   0  0  0  0  0  0  0  0  0  0  0  0
  142.6953   76.3880  220.2217 H   0  0  0  0  0  0  0  0  0  0  0  0
  142.5943   78.7887  220.9255 H   0  0  0  0  0  0  0  0  0  0  0  0
  139.4472   80.0499  223.6051 H   0  0  0  0  0  0  0  0  0  0  0  0
  138.5740   77.7248  223.6456 H   0  0  0  0  0  0  0  0  0  0  0  0
  140.6677   72.3295  226.2411 H   0  0  0  0  0  0  0  0  0  0  0  0
  141.5365   71.0886  228.1980 H   0  0  0  0  0  0  0  0  0  0  0  0
  1  2  3  0
  2  3  1  0
  3  4  2  0
  4  5  1  0
  5  6  2  0
  6  7  1  0
  7  8  1  0
  8  9  2  0
  8 10  1  0
 10 11  1  0
 11 12  1  0
 12 13  2  0
 12 14  1  0
 14 15  2  0
 15 16  1  0
 16 17  2  0
 17 18  1  0
 18 19  2  0
 19 20  1  0
 19 21  1  0
 21 22  2  0
 22 23  1  0
 23 24  2  0
  6 25  1  0
 25 26  2  0
 26  3  1  0
 24 14  1  0
 23 17  1  0
  4 27  1  0
  5 28  1  0
  7 29  1  0
 10 30  1  0
 10 31  1  0
 11 32  1  0
 15 33  1  0
 16 34  1  0
 18 35  1  0
 21 36  1  0
 22 37  1  0
 25 38  1  0
 26 39  1  0
M  END
>  <smiles>  (32) 
N#Cc1ccc(NC(=O)CNC(=O)c2ccc3cc(Cl)ccc3n2)cc1

>  <score_type>  (32) 
oracle

>  <origin>  (32) 
autodockgpu

>  <m_score__min__energy>  (32) 
-8.3300000000000001

>  <m_primary>  (32) 
energy

>  <rmsd>  (32) 
8.251295088326899

>  <m_score__min__rmsd>  (32) 
8.251295088326899

>  <meeko>  (32) 
{"free_energy": -7.63, "intermolecular_energy": -9.12, "internal_energy": -1.82, "cluster_size": 28, "cluster_id": 2, "rank_in_cluster": 12}

>  <energy>  (32) 
-7.63

>  <cluster_rmsd>  (32) 
1.33

>  <cluster>  (32) 
2

$$$$

     RDKit          3D

 39 41  0  0  0  0  0  0  0  0999 V2000
  141.7540   67.7710  229.4820 N   0  0  0  0  0  0  0  0  0  0  0  0
  141.2860   68.2200  228.5190 C   0  0  0  0  0  0  0  0  0  0  0  0
  140.7140   68.7860  227.3320 C   0  0  0  0  0  0  0  0  0  0  0  0
  140.9190   70.1170  227.0510 C   0  0  0  0  0  0  0  0  0  0  0  0
  140.4070   70.7280  225.9400 C   0  0  0  0  0  0  0  0  0  0  0  0
  139.6340   70.0120  225.0170 C   0  0  0  0  0  0  0  0  0  0  0  0
  139.1420   70.7150  223.8970 N   0  0  0  0  0  0  0  0  0  0  0  0
  137.8060   71.0980  223.6730 C   0  0  0  0  0  0  0  0  0  0  0  0
  136.8850   70.8440  224.4810 O   0  0  0  0  0  0  0  0  0  0  0  0
  137.4390   71.8370  222.4420 C   0  0  0  0  0  0  0  0  0  0  0  0
  138.1450   73.0970  222.3330 N   0  0  0  0  0  0  0  0  0  0  0  0
  139.4390   73.1710  221.7520 C   0  0  0  0  0  0  0  0  0  0  0  0
  140.0120   72.1390  221.3120 O   0  0  0  0  0  0  0  0  0  0  0  0
  140.0840   74.4960  221.6820 C   0  0  0  0  0  0  0  0  0  0  0  0
  141.2260   74.6960  220.9340 C   0  0  0  0  0  0  0  0  0  0  0  0
  141.8370   75.9390  220.8650 C   0  0  0  0  0  0  0  0  0  0  0  0
  141.2830   76.9930  221.5610 C   0  0  0  0  0  0  0  0  0  0  0  0
  141.8140   78.2610  221.5570 C   0  0  0  0  0  0  0  0  0  0  0  0
  141.1860   79.2600  222.2890 C   0  0  0  0  0  0  0  0  0  0  0  0
  141.8310   80.8990  222.3100 Cl  0  0  0  0  0  0  0  0  0  0  0  0
  140.0450   79.0370  223.0300 C   0  0  0  0  0  0  0  0  0  0  0  0
  139.5200   77.7780  223.0320 C   0  0  0  0  0  0  0  0  0  0  0  0
  140.1410   76.7760  222.3040 C   0  0  0  0  0  0  0  0  0  0  0  0
  139.5880   75.5560  222.3400 N   0  0  0  0  0  0  0  0  0  0  0  0
  139.4330   68.6980  225.2990 C   0  0  0  0  0  0  0  0  0  0  0  0
  139.9560   68.0670  226.4350 C   0  0  0  0  0  0  0  0  0  0  0  0
  141.5209   70.7157  227.7504 H   0  0  0  0  0  0  0  0  0  0  0  0
  140.6049   71.7964  225.7687 H   0  0  0  0  0  0  0  0  0  0  0  0
  139.8310   70.9910  223.1360 H   0  0  0  0  0  0  0  0  0  0  0  0
  137.6851   71.2156  221.5684 H   0  0  0  0  0  0  0  0  0  0  0  0
  136.3616   72.0546  222.4856 H   0  0  0  0  0  0  0  0  0  0  0  0
  137.7010   73.9940  222.6900 H   0  0  0  0  0  0  0  0  0  0  0  0
  141.6613   73.8511  220.3803 H   0  0  0  0  0  0  0  0  0  0  0  0
  142.7480   76.0819  220.2654 H   0  0  0  0  0  0  0  0  0  0  0  0
  142.7249   78.4815  220.9812 H   0  0  0  0  0  0  0  0  0  0  0  0
  139.5726   79.8492  223.6019 H   0  0  0  0  0  0  0  0  0  0  0  0
  138.6089   77.5595  223.6083 H   0  0  0  0  0  0  0  0  0  0  0  0
  138.8295   68.1000  224.6003 H   0  0  0  0  0  0  0  0  0  0  0  0
  139.7614   66.9986  226.6103 H   0  0  0  0  0  0  0  0  0  0  0  0
  1  2  3  0
  2  3  1  0
  3  4  2  0
  4  5  1  0
  5  6  2  0
  6  7  1  0
  7  8  1  0
  8  9  2  0
  8 10  1  0
 10 11  1  0
 11 12  1  0
 12 13  2  0
 12 14  1  0
 14 15  2  0
 15 16  1  0
 16 17  2  0
 17 18  1  0
 18 19  2  0
 19 20  1  0
 19 21  1  0
 21 22  2  0
 22 23  1  0
 23 24  2  0
  6 25  1  0
 25 26  2  0
 26  3  1  0
 24 14  1  0
 23 17  1  0
  4 27  1  0
  5 28  1  0
  7 29  1  0
 10 30  1  0
 10 31  1  0
 11 32  1  0
 15 33  1  0
 16 34  1  0
 18 35  1  0
 21 36  1  0
 22 37  1  0
 25 38  1  0
 26 39  1  0
M  END
>  <smiles>  (33) 
N#Cc1ccc(NC(=O)CNC(=O)c2ccc3cc(Cl)ccc3n2)cc1

>  <score_type>  (33) 
oracle

>  <origin>  (33) 
autodockgpu

>  <m_score__min__energy>  (33) 
-8.3300000000000001

>  <m_primary>  (33) 
energy

>  <rmsd>  (33) 
8.033188439472525

>  <m_score__min__rmsd>  (33) 
8.033188439472525

>  <meeko>  (33) 
{"free_energy": -7.46, "intermolecular_energy": -8.95, "internal_energy": -1.85, "cluster_size": 28, "cluster_id": 2, "rank_in_cluster": 22}

>  <energy>  (33) 
-7.63

>  <cluster_rmsd>  (33) 
1.28

>  <cluster>  (33) 
2

$$$$

     RDKit          3D

 39 41  0  0  0  0  0  0  0  0999 V2000
  141.7800   67.7470  229.5520 N   0  0  0  0  0  0  0  0  0  0  0  0
  141.3720   68.3590  228.6550 C   0  0  0  0  0  0  0  0  0  0  0  0
  140.8730   69.1290  227.5510 C   0  0  0  0  0  0  0  0  0  0  0  0
  140.2260   68.4890  226.5200 C   0  0  0  0  0  0  0  0  0  0  0  0
  139.7230   69.1530  225.4350 C   0  0  0  0  0  0  0  0  0  0  0  0
  139.8450   70.5430  225.3220 C   0  0  0  0  0  0  0  0  0  0  0  0
  139.3010   71.1530  224.1720 N   0  0  0  0  0  0  0  0  0  0  0  0
  137.9610   71.0850  223.7470 C   0  0  0  0  0  0  0  0  0  0  0  0
  137.0840   70.4530  224.3760 O   0  0  0  0  0  0  0  0  0  0  0  0
  137.5350   71.7820  222.5090 C   0  0  0  0  0  0  0  0  0  0  0  0
  138.2120   73.0500  222.3400 N   0  0  0  0  0  0  0  0  0  0  0  0
  139.5170   73.1240  221.7840 C   0  0  0  0  0  0  0  0  0  0  0  0
  140.1270   72.0830  221.4210 O   0  0  0  0  0  0  0  0  0  0  0  0
  140.1310   74.4590  221.6480 C   0  0  0  0  0  0  0  0  0  0  0  0
  141.2670   74.6490  220.8900 C   0  0  0  0  0  0  0  0  0  0  0  0
  141.8480   75.9020  220.7580 C   0  0  0  0  0  0  0  0  0  0  0  0
  141.2700   76.9750  221.4030 C   0  0  0  0  0  0  0  0  0  0  0  0
  141.7700   78.2530  221.3360 C   0  0  0  0  0  0  0  0  0  0  0  0
  141.1190   79.2720  222.0190 C   0  0  0  0  0  0  0  0  0  0  0  0
  141.7240   80.9250  221.9590 Cl  0  0  0  0  0  0  0  0  0  0  0  0
  139.9840   79.0580  222.7720 C   0  0  0  0  0  0  0  0  0  0  0  0
  139.4900   77.7890  222.8370 C   0  0  0  0  0  0  0  0  0  0  0  0
  140.1340   76.7680  222.1580 C   0  0  0  0  0  0  0  0  0  0  0  0
  139.6100   75.5380  222.2540 N   0  0  0  0  0  0  0  0  0  0  0  0
  140.4850   71.1710  226.3430 C   0  0  0  0  0  0  0  0  0  0  0  0
  141.0020   70.4960  227.4580 C   0  0  0  0  0  0  0  0  0  0  0  0
  140.1079   67.3965  226.5700 H   0  0  0  0  0  0  0  0  0  0  0  0
  139.2155   68.5868  224.6401 H   0  0  0  0  0  0  0  0  0  0  0  0
  139.9500   71.7230  223.5510 H   0  0  0  0  0  0  0  0  0  0  0  0
  137.7615   71.1406  221.6445 H   0  0  0  0  0  0  0  0  0  0  0  0
  136.4558   71.9807  222.5853 H   0  0  0  0  0  0  0  0  0  0  0  0
  137.7370   73.9560  222.6320 H   0  0  0  0  0  0  0  0  0  0  0  0
  141.7227   73.7882  220.3787 H   0  0  0  0  0  0  0  0  0  0  0  0
  142.7542   76.0371  220.1492 H   0  0  0  0  0  0  0  0  0  0  0  0
  142.6751   78.4665  220.7484 H   0  0  0  0  0  0  0  0  0  0  0  0
  139.4922   79.8857  223.3040 H   0  0  0  0  0  0  0  0  0  0  0  0
  138.5851   77.5772  223.4254 H   0  0  0  0  0  0  0  0  0  0  0  0
  140.6034   72.2634  226.2923 H   0  0  0  0  0  0  0  0  0  0  0  0
  141.5093   71.0576  228.2562 H   0  0  0  0  0  0  0  0  0  0  0  0
  1  2  3  0
  2  3  1  0
  3  4  2  0
  4  5  1  0
  5  6  2  0
  6  7  1  0
  7  8  1  0
  8  9  2  0
  8 10  1  0
 10 11  1  0
 11 12  1  0
 12 13  2  0
 12 14  1  0
 14 15  2  0
 15 16  1  0
 16 17  2  0
 17 18  1  0
 18 19  2  0
 19 20  1  0
 19 21  1  0
 21 22  2  0
 22 23  1  0
 23 24  2  0
  6 25  1  0
 25 26  2  0
 26  3  1  0
 24 14  1  0
 23 17  1  0
  4 27  1  0
  5 28  1  0
  7 29  1  0
 10 30  1  0
 10 31  1  0
 11 32  1  0
 15 33  1  0
 16 34  1  0
 18 35  1  0
 21 36  1  0
 22 37  1  0
 25 38  1  0
 26 39  1  0
M  END
>  <smiles>  (34) 
N#Cc1ccc(NC(=O)CNC(=O)c2ccc3cc(Cl)ccc3n2)cc1

>  <score_type>  (34) 
oracle

>  <origin>  (34) 
autodockgpu

>  <m_score__min__energy>  (34) 
-8.3300000000000001

>  <m_primary>  (34) 
energy

>  <rmsd>  (34) 
8.220629265675056

>  <m_score__min__rmsd>  (34) 
8.220629265675056

>  <meeko>  (34) 
{"free_energy": -7.59, "intermolecular_energy": -9.08, "internal_energy": -1.82, "cluster_size": 28, "cluster_id": 2, "rank_in_cluster": 14}

>  <energy>  (34) 
-7.59

>  <cluster_rmsd>  (34) 
1.4

>  <cluster>  (34) 
2

$$$$

     RDKit          3D

 39 41  0  0  0  0  0  0  0  0999 V2000
  142.2370   81.6140  223.9220 N   0  0  0  0  0  0  0  0  0  0  0  0
  141.6580   80.6430  223.6610 C   0  0  0  0  0  0  0  0  0  0  0  0
  140.9350   79.4440  223.3500 C   0  0  0  0  0  0  0  0  0  0  0  0
  141.6290   78.3060  223.0090 C   0  0  0  0  0  0  0  0  0  0  0  0
  141.0110   77.1260  222.6990 C   0  0  0  0  0  0  0  0  0  0  0  0
  139.6150   77.0180  222.7170 C   0  0  0  0  0  0  0  0  0  0  0  0
  139.0550   75.7660  222.3850 N   0  0  0  0  0  0  0  0  0  0  0  0
  138.4000   75.4370  221.1840 C   0  0  0  0  0  0  0  0  0  0  0  0
  138.2450   76.2570  220.2520 O   0  0  0  0  0  0  0  0  0  0  0  0
  137.8610   74.0710  220.9790 C   0  0  0  0  0  0  0  0  0  0  0  0
  138.2410   73.1710  222.0470 N   0  0  0  0  0  0  0  0  0  0  0  0
  138.2600   71.7640  221.8570 C   0  0  0  0  0  0  0  0  0  0  0  0
  137.9460   71.2550  220.7480 O   0  0  0  0  0  0  0  0  0  0  0  0
  138.6610   70.9220  223.0010 C   0  0  0  0  0  0  0  0  0  0  0  0
  138.3770   69.5730  223.0280 C   0  0  0  0  0  0  0  0  0  0  0  0
  138.7510   68.7760  224.1010 C   0  0  0  0  0  0  0  0  0  0  0  0
  139.4210   69.3560  225.1580 C   0  0  0  0  0  0  0  0  0  0  0  0
  139.8330   68.6530  226.2650 C   0  0  0  0  0  0  0  0  0  0  0  0
  140.5030   69.3210  227.2810 C   0  0  0  0  0  0  0  0  0  0  0  0
  141.0490   68.4600  228.7170 Cl  0  0  0  0  0  0  0  0  0  0  0  0
  140.7750   70.6730  227.2320 C   0  0  0  0  0  0  0  0  0  0  0  0
  140.3660   71.3670  226.1320 C   0  0  0  0  0  0  0  0  0  0  0  0
  139.6980   70.7060  225.1140 C   0  0  0  0  0  0  0  0  0  0  0  0
  139.3150   71.4330  224.0560 N   0  0  0  0  0  0  0  0  0  0  0  0
  138.9340   78.1440  223.0540 C   0  0  0  0  0  0  0  0  0  0  0  0
  139.5610   79.3560  223.3720 C   0  0  0  0  0  0  0  0  0  0  0  0
  142.7280   78.3470  222.9847 H   0  0  0  0  0  0  0  0  0  0  0  0
  141.6192   76.2493  222.4317 H   0  0  0  0  0  0  0  0  0  0  0  0
  139.1230   74.9810  223.0990 H   0  0  0  0  0  0  0  0  0  0  0  0
  136.7632   74.1256  220.9346 H   0  0  0  0  0  0  0  0  0  0  0  0
  138.2788   73.6788  220.0401 H   0  0  0  0  0  0  0  0  0  0  0  0
  138.5140   73.5540  223.0010 H   0  0  0  0  0  0  0  0  0  0  0  0
  137.8424   69.1186  222.1808 H   0  0  0  0  0  0  0  0  0  0  0  0
  138.5173   67.7011  224.1083 H   0  0  0  0  0  0  0  0  0  0  0  0
  139.6342   67.5741  226.3449 H   0  0  0  0  0  0  0  0  0  0  0  0
  141.3052   71.1751  228.0547 H   0  0  0  0  0  0  0  0  0  0  0  0
  140.5653   72.4459  226.0532 H   0  0  0  0  0  0  0  0  0  0  0  0
  137.8351   78.1022  223.0785 H   0  0  0  0  0  0  0  0  0  0  0  0
  138.9567   80.2356  223.6387 H   0  0  0  0  0  0  0  0  0  0  0  0
  1  2  3  0
  2  3  1  0
  3  4  2  0
  4  5  1  0
  5  6  2  0
  6  7  1  0
  7  8  1  0
  8  9  2  0
  8 10  1  0
 10 11  1  0
 11 12  1  0
 12 13  2  0
 12 14  1  0
 14 15  2  0
 15 16  1  0
 16 17  2  0
 17 18  1  0
 18 19  2  0
 19 20  1  0
 19 21  1  0
 21 22  2  0
 22 23  1  0
 23 24  2  0
  6 25  1  0
 25 26  2  0
 26  3  1  0
 24 14  1  0
 23 17  1  0
  4 27  1  0
  5 28  1  0
  7 29  1  0
 10 30  1  0
 10 31  1  0
 11 32  1  0
 15 33  1  0
 16 34  1  0
 18 35  1  0
 21 36  1  0
 22 37  1  0
 25 38  1  0
 26 39  1  0
M  END
>  <smiles>  (35) 
N#Cc1ccc(NC(=O)CNC(=O)c2ccc3cc(Cl)ccc3n2)cc1

>  <score_type>  (35) 
oracle

>  <origin>  (35) 
autodockgpu

>  <m_score__min__energy>  (35) 
-8.3300000000000001

>  <m_primary>  (35) 
energy

>  <rmsd>  (35) 
2.5664207994833084

>  <m_score__min__rmsd>  (35) 
2.5664207994833084

>  <meeko>  (35) 
{"free_energy": -8.14, "intermolecular_energy": -9.63, "internal_energy": -1.06, "cluster_size": 21, "cluster_id": 1, "rank_in_cluster": 8}

>  <energy>  (35) 
-7.59

>  <cluster_rmsd>  (35) 
1.33

>  <cluster>  (35) 
2

$$$$

     RDKit          3D

 39 41  0  0  0  0  0  0  0  0999 V2000
  142.5440   81.9530  224.2070 N   0  0  0  0  0  0  0  0  0  0  0  0
  142.2860   80.9690  223.6470 C   0  0  0  0  0  0  0  0  0  0  0  0
  141.9530   79.7560  222.9570 C   0  0  0  0  0  0  0  0  0  0  0  0
  141.4490   78.6910  223.6660 C   0  0  0  0  0  0  0  0  0  0  0  0
  141.1090   77.5040  223.0790 C   0  0  0  0  0  0  0  0  0  0  0  0
  141.2610   77.3130  221.7000 C   0  0  0  0  0  0  0  0  0  0  0  0
  140.8880   76.0600  221.1710 N   0  0  0  0  0  0  0  0  0  0  0  0
  141.7350   75.1390  220.5280 C   0  0  0  0  0  0  0  0  0  0  0  0
  142.9570   75.3510  220.3560 O   0  0  0  0  0  0  0  0  0  0  0  0
  141.1950   73.8550  220.0220 C   0  0  0  0  0  0  0  0  0  0  0  0
  141.0820   72.8630  221.0710 N   0  0  0  0  0  0  0  0  0  0  0  0
  140.2130   73.0520  222.1770 C   0  0  0  0  0  0  0  0  0  0  0  0
  139.5110   74.0940  222.2800 O   0  0  0  0  0  0  0  0  0  0  0  0
  140.1610   71.9890  223.1990 C   0  0  0  0  0  0  0  0  0  0  0  0
  139.6450   70.7440  222.9080 C   0  0  0  0  0  0  0  0  0  0  0  0
  139.5940   69.7400  223.8650 C   0  0  0  0  0  0  0  0  0  0  0  0
  140.0730   70.0030  225.1310 C   0  0  0  0  0  0  0  0  0  0  0  0
  140.0660   69.0770  226.1470 C   0  0  0  0  0  0  0  0  0  0  0  0
  140.5700   69.4310  227.3910 C   0  0  0  0  0  0  0  0  0  0  0  0
  140.5810   68.2760  228.7200 Cl  0  0  0  0  0  0  0  0  0  0  0  0
  141.0810   70.6840  227.6590 C   0  0  0  0  0  0  0  0  0  0  0  0
  141.0870   71.6010  226.6500 C   0  0  0  0  0  0  0  0  0  0  0  0
  140.5860   71.2530  225.4050 C   0  0  0  0  0  0  0  0  0  0  0  0
  140.6130   72.1900  224.4480 N   0  0  0  0  0  0  0  0  0  0  0  0
  141.7590   78.3680  221.0030 C   0  0  0  0  0  0  0  0  0  0  0  0
  142.1090   79.5880  221.5990 C   0  0  0  0  0  0  0  0  0  0  0  0
  141.3136   78.7988  224.7523 H   0  0  0  0  0  0  0  0  0  0  0  0
  140.7103   76.6873  223.6987 H   0  0  0  0  0  0  0  0  0  0  0  0
  139.8700   75.7620  221.2560 H   0  0  0  0  0  0  0  0  0  0  0  0
  140.1979   74.0335  219.5931 H   0  0  0  0  0  0  0  0  0  0  0  0
  141.8914   73.4691  219.2630 H   0  0  0  0  0  0  0  0  0  0  0  0
  141.6550   71.9680  221.0270 H   0  0  0  0  0  0  0  0  0  0  0  0
  139.2655   70.5420  221.8955 H   0  0  0  0  0  0  0  0  0  0  0  0
  139.1787   68.7518  223.6179 H   0  0  0  0  0  0  0  0  0  0  0  0
  139.6655   68.0669  225.9761 H   0  0  0  0  0  0  0  0  0  0  0  0
  141.4716   70.9356  228.6561 H   0  0  0  0  0  0  0  0  0  0  0  0
  141.4870   72.6110  226.8227 H   0  0  0  0  0  0  0  0  0  0  0  0
  141.8943   78.2594  219.9168 H   0  0  0  0  0  0  0  0  0  0  0  0
  142.5070   80.4084  220.9838 H   0  0  0  0  0  0  0  0  0  0  0  0
  1  2  3  0
  2  3  1  0
  3  4  2  0
  4  5  1  0
  5  6  2  0
  6  7  1  0
  7  8  1  0
  8  9  2  0
  8 10  1  0
 10 11  1  0
 11 12  1  0
 12 13  2  0
 12 14  1  0
 14 15  2  0
 15 16  1  0
 16 17  2  0
 17 18  1  0
 18 19  2  0
 19 20  1  0
 19 21  1  0
 21 22  2  0
 22 23  1  0
 23 24  2  0
  6 25  1  0
 25 26  2  0
 26  3  1  0
 24 14  1  0
 23 17  1  0
  4 27  1  0
  5 28  1  0
  7 29  1  0
 10 30  1  0
 10 31  1  0
 11 32  1  0
 15 33  1  0
 16 34  1  0
 18 35  1  0
 21 36  1  0
 22 37  1  0
 25 38  1  0
 26 39  1  0
M  END
>  <smiles>  (36) 
N#Cc1ccc(NC(=O)CNC(=O)c2ccc3cc(Cl)ccc3n2)cc1

>  <score_type>  (36) 
oracle

>  <origin>  (36) 
autodockgpu

>  <m_score__min__energy>  (36) 
-8.3300000000000001

>  <m_primary>  (36) 
energy

>  <rmsd>  (36) 
3.2371803156798875

>  <m_score__min__rmsd>  (36) 
3.2371803156798875

>  <meeko>  (36) 
{"free_energy": -8.3, "intermolecular_energy": -9.79, "internal_energy": -1.5, "cluster_size": 21, "cluster_id": 1, "rank_in_cluster": 4}

>  <energy>  (36) 
-7.59

>  <cluster_rmsd>  (36) 
1.31

>  <cluster>  (36) 
2

$$$$

     RDKit          3D

 39 41  0  0  0  0  0  0  0  0999 V2000
  141.7580   67.4270  229.8570 N   0  0  0  0  0  0  0  0  0  0  0  0
  141.3090   67.8840  228.8890 C   0  0  0  0  0  0  0  0  0  0  0  0
  140.7460   68.4380  227.6920 C   0  0  0  0  0  0  0  0  0  0  0  0
  140.8180   69.7950  227.4760 C   0  0  0  0  0  0  0  0  0  0  0  0
  140.3050   70.3960  226.3600 C   0  0  0  0  0  0  0  0  0  0  0  0
  139.6700   69.6440  225.3650 C   0  0  0  0  0  0  0  0  0  0  0  0
  139.1670   70.3390  224.2450 N   0  0  0  0  0  0  0  0  0  0  0  0
  139.7050   71.5110  223.6800 C   0  0  0  0  0  0  0  0  0  0  0  0
  140.7270   72.0720  224.1330 O   0  0  0  0  0  0  0  0  0  0  0  0
  139.0620   72.1310  222.4970 C   0  0  0  0  0  0  0  0  0  0  0  0
  139.4600   73.5130  222.3240 N   0  0  0  0  0  0  0  0  0  0  0  0
  140.5990   73.8630  221.5510 C   0  0  0  0  0  0  0  0  0  0  0  0
  141.2990   72.9780  220.9900 O   0  0  0  0  0  0  0  0  0  0  0  0
  140.9310   75.2950  221.4290 C   0  0  0  0  0  0  0  0  0  0  0  0
  141.7940   75.7470  220.4530 C   0  0  0  0  0  0  0  0  0  0  0  0
  142.1100   77.0940  220.3340 C   0  0  0  0  0  0  0  0  0  0  0  0
  141.5430   77.9910  221.2140 C   0  0  0  0  0  0  0  0  0  0  0  0
  141.7920   79.3420  221.1780 C   0  0  0  0  0  0  0  0  0  0  0  0
  141.1750   80.1700  222.1050 C   0  0  0  0  0  0  0  0  0  0  0  0
  141.4650   81.9070  222.0950 Cl  0  0  0  0  0  0  0  0  0  0  0  0
  140.3150   79.6940  223.0730 C   0  0  0  0  0  0  0  0  0  0  0  0
  140.0690   78.3540  223.1070 C   0  0  0  0  0  0  0  0  0  0  0  0
  140.6810   77.5220  222.1840 C   0  0  0  0  0  0  0  0  0  0  0  0
  140.4080   76.2120  222.2590 N   0  0  0  0  0  0  0  0  0  0  0  0
  139.6010   68.3050  225.5820 C   0  0  0  0  0  0  0  0  0  0  0  0
  140.1250   67.6820  226.7240 C   0  0  0  0  0  0  0  0  0  0  0  0
  141.3093   70.4233  228.2335 H   0  0  0  0  0  0  0  0  0  0  0  0
  140.3927   71.4862  226.2426 H   0  0  0  0  0  0  0  0  0  0  0  0
  138.2960   69.9590  223.7680 H   0  0  0  0  0  0  0  0  0  0  0  0
  139.3488   71.5639  221.5991 H   0  0  0  0  0  0  0  0  0  0  0  0
  137.9732   72.1082  222.6516 H   0  0  0  0  0  0  0  0  0  0  0  0
  138.9000   74.2940  222.7790 H   0  0  0  0  0  0  0  0  0  0  0  0
  142.2416   75.0253  219.7539 H   0  0  0  0  0  0  0  0  0  0  0  0
  142.8010   77.4394  219.5509 H   0  0  0  0  0  0  0  0  0  0  0  0
  142.4727   79.7623  220.4229 H   0  0  0  0  0  0  0  0  0  0  0  0
  139.8421   80.3754  223.7955 H   0  0  0  0  0  0  0  0  0  0  0  0
  139.3884   77.9355  223.8630 H   0  0  0  0  0  0  0  0  0  0  0  0
  139.1094   67.6776  224.8239 H   0  0  0  0  0  0  0  0  0  0  0  0
  140.0399   66.5921  226.8457 H   0  0  0  0  0  0  0  0  0  0  0  0
  1  2  3  0
  2  3  1  0
  3  4  2  0
  4  5  1  0
  5  6  2  0
  6  7  1  0
  7  8  1  0
  8  9  2  0
  8 10  1  0
 10 11  1  0
 11 12  1  0
 12 13  2  0
 12 14  1  0
 14 15  2  0
 15 16  1  0
 16 17  2  0
 17 18  1  0
 18 19  2  0
 19 20  1  0
 19 21  1  0
 21 22  2  0
 22 23  1  0
 23 24  2  0
  6 25  1  0
 25 26  2  0
 26  3  1  0
 24 14  1  0
 23 17  1  0
  4 27  1  0
  5 28  1  0
  7 29  1  0
 10 30  1  0
 10 31  1  0
 11 32  1  0
 15 33  1  0
 16 34  1  0
 18 35  1  0
 21 36  1  0
 22 37  1  0
 25 38  1  0
 26 39  1  0
M  END
>  <smiles>  (37) 
N#Cc1ccc(NC(=O)CNC(=O)c2ccc3cc(Cl)ccc3n2)cc1

>  <score_type>  (37) 
oracle

>  <origin>  (37) 
autodockgpu

>  <m_score__min__energy>  (37) 
-8.3300000000000001

>  <m_primary>  (37) 
energy

>  <rmsd>  (37) 
8.62910486138378

>  <m_score__min__rmsd>  (37) 
8.62910486138378

>  <meeko>  (37) 
{"free_energy": -8.05, "intermolecular_energy": -9.54, "internal_energy": -1.03, "cluster_size": 28, "cluster_id": 2, "rank_in_cluster": 8}

>  <energy>  (37) 
-7.53

>  <cluster_rmsd>  (37) 
1.3

>  <cluster>  (37) 
2

$$$$

     RDKit          3D

 39 41  0  0  0  0  0  0  0  0999 V2000
  142.5050   81.9240  224.1910 N   0  0  0  0  0  0  0  0  0  0  0  0
  142.2420   80.9410  223.6340 C   0  0  0  0  0  0  0  0  0  0  0  0
  141.9050   79.7310  222.9400 C   0  0  0  0  0  0  0  0  0  0  0  0
  141.4860   78.6350  223.6570 C   0  0  0  0  0  0  0  0  0  0  0  0
  141.1480   77.4480  223.0670 C   0  0  0  0  0  0  0  0  0  0  0  0
  141.2130   77.2910  221.6770 C   0  0  0  0  0  0  0  0  0  0  0  0
  140.8490   76.0360  221.1470 N   0  0  0  0  0  0  0  0  0  0  0  0
  141.7180   75.0830  220.5840 C   0  0  0  0  0  0  0  0  0  0  0  0
  142.9530   75.2630  220.4970 O   0  0  0  0  0  0  0  0  0  0  0  0
  141.1840   73.8010  220.0640 C   0  0  0  0  0  0  0  0  0  0  0  0
  141.0700   72.7990  221.1040 N   0  0  0  0  0  0  0  0  0  0  0  0
  140.2370   73.0010  222.2370 C   0  0  0  0  0  0  0  0  0  0  0  0
  139.5710   74.0620  222.3710 O   0  0  0  0  0  0  0  0  0  0  0  0
  140.1810   71.9270  223.2470 C   0  0  0  0  0  0  0  0  0  0  0  0
  139.6650   70.6850  222.9400 C   0  0  0  0  0  0  0  0  0  0  0  0
  139.6100   69.6710  223.8860 C   0  0  0  0  0  0  0  0  0  0  0  0
  140.0850   69.9190  225.1560 C   0  0  0  0  0  0  0  0  0  0  0  0
  140.0740   68.9820  226.1620 C   0  0  0  0  0  0  0  0  0  0  0  0
  140.5740   69.3230  227.4110 C   0  0  0  0  0  0  0  0  0  0  0  0
  140.5800   68.1520  228.7280 Cl  0  0  0  0  0  0  0  0  0  0  0  0
  141.0850   70.5720  227.6940 C   0  0  0  0  0  0  0  0  0  0  0  0
  141.0960   71.5000  226.6950 C   0  0  0  0  0  0  0  0  0  0  0  0
  140.5980   71.1660  225.4460 C   0  0  0  0  0  0  0  0  0  0  0  0
  140.6290   72.1130  224.4990 N   0  0  0  0  0  0  0  0  0  0  0  0
  141.6280   78.3760  220.9730 C   0  0  0  0  0  0  0  0  0  0  0  0
  141.9760   79.5950  221.5720 C   0  0  0  0  0  0  0  0  0  0  0  0
  141.4198   78.7162  224.7520 H   0  0  0  0  0  0  0  0  0  0  0  0
  140.8206   76.6050  223.6932 H   0  0  0  0  0  0  0  0  0  0  0  0
  139.8210   75.7630  221.1630 H   0  0  0  0  0  0  0  0  0  0  0  0
  140.1881   73.9800  219.6326 H   0  0  0  0  0  0  0  0  0  0  0  0
  141.8847   73.4242  219.3044 H   0  0  0  0  0  0  0  0  0  0  0  0
  141.6130   71.8880  221.0340 H   0  0  0  0  0  0  0  0  0  0  0  0
  139.2892   70.4943  221.9239 H   0  0  0  0  0  0  0  0  0  0  0  0
  139.1944   68.6861  223.6267 H   0  0  0  0  0  0  0  0  0  0  0  0
  139.6736   67.9739  225.9792 H   0  0  0  0  0  0  0  0  0  0  0  0
  141.4720   70.8125  228.6952 H   0  0  0  0  0  0  0  0  0  0  0  0
  141.4976   72.5073  226.8796 H   0  0  0  0  0  0  0  0  0  0  0  0
  141.6944   78.2942  219.8781 H   0  0  0  0  0  0  0  0  0  0  0  0
  142.3050   80.4407  220.9503 H   0  0  0  0  0  0  0  0  0  0  0  0
  1  2  3  0
  2  3  1  0
  3  4  2  0
  4  5  1  0
  5  6  2  0
  6  7  1  0
  7  8  1  0
  8  9  2  0
  8 10  1  0
 10 11  1  0
 11 12  1  0
 12 13  2  0
 12 14  1  0
 14 15  2  0
 15 16  1  0
 16 17  2  0
 17 18  1  0
 18 19  2  0
 19 20  1  0
 19 21  1  0
 21 22  2  0
 22 23  1  0
 23 24  2  0
  6 25  1  0
 25 26  2  0
 26  3  1  0
 24 14  1  0
 23 17  1  0
  4 27  1  0
  5 28  1  0
  7 29  1  0
 10 30  1  0
 10 31  1  0
 11 32  1  0
 15 33  1  0
 16 34  1  0
 18 35  1  0
 21 36  1  0
 22 37  1  0
 25 38  1  0
 26 39  1  0
M  END
>  <smiles>  (38) 
N#Cc1ccc(NC(=O)CNC(=O)c2ccc3cc(Cl)ccc3n2)cc1

>  <score_type>  (38) 
oracle

>  <origin>  (38) 
autodockgpu

>  <m_score__min__energy>  (38) 
-8.3300000000000001

>  <m_primary>  (38) 
energy

>  <rmsd>  (38) 
3.2151901467519424

>  <m_score__min__rmsd>  (38) 
3.2151901467519424

>  <meeko>  (38) 
{"free_energy": -8.31, "intermolecular_energy": -9.8, "internal_energy": -1.49, "cluster_size": 21, "cluster_id": 1, "rank_in_cluster": 3}

>  <energy>  (38) 
-7.51

>  <cluster_rmsd>  (38) 
1.31

>  <cluster>  (38) 
2

$$$$

     RDKit          3D

 39 41  0  0  0  0  0  0  0  0999 V2000
  141.4750   67.7900  229.4020 N   0  0  0  0  0  0  0  0  0  0  0  0
  141.0590   68.2400  228.4160 C   0  0  0  0  0  0  0  0  0  0  0  0
  140.5440   68.7830  227.1920 C   0  0  0  0  0  0  0  0  0  0  0  0
  140.7980   70.0970  226.8770 C   0  0  0  0  0  0  0  0  0  0  0  0
  140.3420   70.6860  225.7300 C   0  0  0  0  0  0  0  0  0  0  0  0
  139.5800   69.9630  224.8040 C   0  0  0  0  0  0  0  0  0  0  0  0
  139.1470   70.6430  223.6460 N   0  0  0  0  0  0  0  0  0  0  0  0
  137.8890   71.2420  223.4510 C   0  0  0  0  0  0  0  0  0  0  0  0
  136.9920   71.2300  224.3240 O   0  0  0  0  0  0  0  0  0  0  0  0
  137.5770   71.9240  222.1730 C   0  0  0  0  0  0  0  0  0  0  0  0
  138.2330   73.2110  222.0710 N   0  0  0  0  0  0  0  0  0  0  0  0
  139.5960   73.3190  221.6900 C   0  0  0  0  0  0  0  0  0  0  0  0
  140.2790   72.2930  221.4290 O   0  0  0  0  0  0  0  0  0  0  0  0
  140.1820   74.6710  221.6120 C   0  0  0  0  0  0  0  0  0  0  0  0
  141.2740   74.9310  220.8100 C   0  0  0  0  0  0  0  0  0  0  0  0
  141.8290   76.2000  220.7330 C   0  0  0  0  0  0  0  0  0  0  0  0
  141.2700   77.2180  221.4770 C   0  0  0  0  0  0  0  0  0  0  0  0
  141.7470   78.5060  221.4690 C   0  0  0  0  0  0  0  0  0  0  0  0
  141.1180   79.4660  222.2510 C   0  0  0  0  0  0  0  0  0  0  0  0
  141.6950   81.1300  222.2700 Cl  0  0  0  0  0  0  0  0  0  0  0  0
  140.0270   79.1830  223.0460 C   0  0  0  0  0  0  0  0  0  0  0  0
  139.5560   77.9030  223.0520 C   0  0  0  0  0  0  0  0  0  0  0  0
  140.1780   76.9410  222.2730 C   0  0  0  0  0  0  0  0  0  0  0  0
  139.6790   75.6980  222.3150 N   0  0  0  0  0  0  0  0  0  0  0  0
  139.3310   68.6650  225.1200 C   0  0  0  0  0  0  0  0  0  0  0  0
  139.7960   68.0570  226.2940 C   0  0  0  0  0  0  0  0  0  0  0  0
  141.3936   70.7005  227.5777 H   0  0  0  0  0  0  0  0  0  0  0  0
  140.5770   71.7422  225.5322 H   0  0  0  0  0  0  0  0  0  0  0  0
  139.8230   70.7220  222.8280 H   0  0  0  0  0  0  0  0  0  0  0  0
  137.9113   71.2879  221.3401 H   0  0  0  0  0  0  0  0  0  0  0  0
  136.4906   72.0922  222.1339 H   0  0  0  0  0  0  0  0  0  0  0  0
  137.6960   74.1050  222.2810 H   0  0  0  0  0  0  0  0  0  0  0  0
  141.7141   74.1144  220.2188 H   0  0  0  0  0  0  0  0  0  0  0  0
  142.7003   76.3912  220.0894 H   0  0  0  0  0  0  0  0  0  0  0  0
  142.6165   78.7739  220.8508 H   0  0  0  0  0  0  0  0  0  0  0  0
  139.5516   79.9652  223.6561 H   0  0  0  0  0  0  0  0  0  0  0  0
  138.6873   77.6361  223.6718 H   0  0  0  0  0  0  0  0  0  0  0  0
  138.7349   68.0616  224.4196 H   0  0  0  0  0  0  0  0  0  0  0  0
  139.5634   67.0012  226.4971 H   0  0  0  0  0  0  0  0  0  0  0  0
  1  2  3  0
  2  3  1  0
  3  4  2  0
  4  5  1  0
  5  6  2  0
  6  7  1  0
  7  8  1  0
  8  9  2  0
  8 10  1  0
 10 11  1  0
 11 12  1  0
 12 13  2  0
 12 14  1  0
 14 15  2  0
 15 16  1  0
 16 17  2  0
 17 18  1  0
 18 19  2  0
 19 20  1  0
 19 21  1  0
 21 22  2  0
 22 23  1  0
 23 24  2  0
  6 25  1  0
 25 26  2  0
 26  3  1  0
 24 14  1  0
 23 17  1  0
  4 27  1  0
  5 28  1  0
  7 29  1  0
 10 30  1  0
 10 31  1  0
 11 32  1  0
 15 33  1  0
 16 34  1  0
 18 35  1  0
 21 36  1  0
 22 37  1  0
 25 38  1  0
 26 39  1  0
M  END
>  <smiles>  (39) 
N#Cc1ccc(NC(=O)CNC(=O)c2ccc3cc(Cl)ccc3n2)cc1

>  <score_type>  (39) 
oracle

>  <origin>  (39) 
autodockgpu

>  <m_score__min__energy>  (39) 
-8.3300000000000001

>  <m_primary>  (39) 
energy

>  <rmsd>  (39) 
8.077164844999396

>  <m_score__min__rmsd>  (39) 
8.077164844999396

>  <meeko>  (39) 
{"free_energy": -7.22, "intermolecular_energy": -8.72, "internal_energy": -1.8, "cluster_size": 28, "cluster_id": 2, "rank_in_cluster": 28}

>  <energy>  (39) 
-7.5

>  <cluster_rmsd>  (39) 
1.41

>  <cluster>  (39) 
2

$$$$

     RDKit          3D

 39 41  0  0  0  0  0  0  0  0999 V2000
  141.8430   82.1300  222.7760 N   0  0  0  0  0  0  0  0  0  0  0  0
  141.6510   81.0110  222.5340 C   0  0  0  0  0  0  0  0  0  0  0  0
  141.4140   79.6320  222.2210 C   0  0  0  0  0  0  0  0  0  0  0  0
  141.3510   79.2390  220.9050 C   0  0  0  0  0  0  0  0  0  0  0  0
  141.1280   77.9430  220.5270 C   0  0  0  0  0  0  0  0  0  0  0  0
  140.9500   76.9360  221.4840 C   0  0  0  0  0  0  0  0  0  0  0  0
  140.7240   75.6250  221.0130 N   0  0  0  0  0  0  0  0  0  0  0  0
  141.7060   74.7030  220.6060 C   0  0  0  0  0  0  0  0  0  0  0  0
  142.9290   74.9670  220.6240 O   0  0  0  0  0  0  0  0  0  0  0  0
  141.3130   73.3550  220.1320 C   0  0  0  0  0  0  0  0  0  0  0  0
  141.1810   72.4130  221.2230 N   0  0  0  0  0  0  0  0  0  0  0  0
  140.3030   72.6600  222.3110 C   0  0  0  0  0  0  0  0  0  0  0  0
  139.6100   73.7110  222.3590 O   0  0  0  0  0  0  0  0  0  0  0  0
  140.2320   71.6450  223.3800 C   0  0  0  0  0  0  0  0  0  0  0  0
  139.6830   70.4010  223.1470 C   0  0  0  0  0  0  0  0  0  0  0  0
  139.6140   69.4420  224.1480 C   0  0  0  0  0  0  0  0  0  0  0  0
  140.1070   69.7490  225.3990 C   0  0  0  0  0  0  0  0  0  0  0  0
  140.0830   68.8700  226.4550 C   0  0  0  0  0  0  0  0  0  0  0  0
  140.6030   69.2670  227.6790 C   0  0  0  0  0  0  0  0  0  0  0  0
  140.5940   68.1720  229.0590 Cl  0  0  0  0  0  0  0  0  0  0  0  0
  141.1460   70.5180  227.8880 C   0  0  0  0  0  0  0  0  0  0  0  0
  141.1680   71.3880  226.8400 C   0  0  0  0  0  0  0  0  0  0  0  0
  140.6520   70.9980  225.6150 C   0  0  0  0  0  0  0  0  0  0  0  0
  140.6960   71.8900  224.6160 N   0  0  0  0  0  0  0  0  0  0  0  0
  141.0120   77.3290  222.7830 C   0  0  0  0  0  0  0  0  0  0  0  0
  141.2410   78.6550  223.1750 C   0  0  0  0  0  0  0  0  0  0  0  0
  141.4857   79.9996  220.1218 H   0  0  0  0  0  0  0  0  0  0  0  0
  141.0880   77.6887  219.4575 H   0  0  0  0  0  0  0  0  0  0  0  0
  139.7200   75.2800  220.9510 H   0  0  0  0  0  0  0  0  0  0  0  0
  140.3482   73.4299  219.6090 H   0  0  0  0  0  0  0  0  0  0  0  0
  142.1028   72.9878  219.4602 H   0  0  0  0  0  0  0  0  0  0  0  0
  141.7460   71.5120  221.2270 H   0  0  0  0  0  0  0  0  0  0  0  0
  139.2916   70.1641  222.1466 H   0  0  0  0  0  0  0  0  0  0  0  0
  139.1737   68.4542  223.9471 H   0  0  0  0  0  0  0  0  0  0  0  0
  139.6566   67.8635  226.3316 H   0  0  0  0  0  0  0  0  0  0  0  0
  141.5488   70.8041  228.8708 H   0  0  0  0  0  0  0  0  0  0  0  0
  141.5932   72.3947  226.9658 H   0  0  0  0  0  0  0  0  0  0  0  0
  140.8757   76.5686  223.5661 H   0  0  0  0  0  0  0  0  0  0  0  0
  141.2824   78.9144  224.2432 H   0  0  0  0  0  0  0  0  0  0  0  0
  1  2  3  0
  2  3  1  0
  3  4  2  0
  4  5  1  0
  5  6  2  0
  6  7  1  0
  7  8  1  0
  8  9  2  0
  8 10  1  0
 10 11  1  0
 11 12  1  0
 12 13  2  0
 12 14  1  0
 14 15  2  0
 15 16  1  0
 16 17  2  0
 17 18  1  0
 18 19  2  0
 19 20  1  0
 19 21  1  0
 21 22  2  0
 22 23  1  0
 23 24  2  0
  6 25  1  0
 25 26  2  0
 26  3  1  0
 24 14  1  0
 23 17  1  0
  4 27  1  0
  5 28  1  0
  7 29  1  0
 10 30  1  0
 10 31  1  0
 11 32  1  0
 15 33  1  0
 16 34  1  0
 18 35  1  0
 21 36  1  0
 22 37  1  0
 25 38  1  0
 26 39  1  0
M  END
>  <smiles>  (40) 
N#Cc1ccc(NC(=O)CNC(=O)c2ccc3cc(Cl)ccc3n2)cc1

>  <score_type>  (40) 
oracle

>  <origin>  (40) 
autodockgpu

>  <m_score__min__energy>  (40) 
-8.3300000000000001

>  <m_primary>  (40) 
energy

>  <rmsd>  (40) 
2.49605024571685

>  <m_score__min__rmsd>  (40) 
2.49605024571685

>  <meeko>  (40) 
{"free_energy": -7.79, "intermolecular_energy": -9.28, "internal_energy": -1.44, "cluster_size": 21, "cluster_id": 1, "rank_in_cluster": 20}

>  <energy>  (40) 
-7.49

>  <cluster_rmsd>  (40) 
1.3

>  <cluster>  (40) 
2

$$$$

     RDKit          3D

 39 41  0  0  0  0  0  0  0  0999 V2000
  141.4580   67.5520  229.4880 N   0  0  0  0  0  0  0  0  0  0  0  0
  141.1150   68.2020  228.5890 C   0  0  0  0  0  0  0  0  0  0  0  0
  140.6780   68.9990  227.4790 C   0  0  0  0  0  0  0  0  0  0  0  0
  139.9520   68.4110  226.4700 C   0  0  0  0  0  0  0  0  0  0  0  0
  139.5010   69.1040  225.3810 C   0  0  0  0  0  0  0  0  0  0  0  0
  139.7620   70.4730  225.2400 C   0  0  0  0  0  0  0  0  0  0  0  0
  139.2620   71.1150  224.0880 N   0  0  0  0  0  0  0  0  0  0  0  0
  137.9090   71.2360  223.7190 C   0  0  0  0  0  0  0  0  0  0  0  0
  136.9770   70.7670  224.4100 O   0  0  0  0  0  0  0  0  0  0  0  0
  137.5360   71.9430  222.4710 C   0  0  0  0  0  0  0  0  0  0  0  0
  138.2120   73.2180  222.3460 N   0  0  0  0  0  0  0  0  0  0  0  0
  139.5140   73.3130  221.7870 C   0  0  0  0  0  0  0  0  0  0  0  0
  140.1220   72.2860  221.3810 O   0  0  0  0  0  0  0  0  0  0  0  0
  140.1260   74.6520  221.6980 C   0  0  0  0  0  0  0  0  0  0  0  0
  141.2410   74.8770  220.9180 C   0  0  0  0  0  0  0  0  0  0  0  0
  141.8210   76.1350  220.8310 C   0  0  0  0  0  0  0  0  0  0  0  0
  141.2630   77.1760  221.5420 C   0  0  0  0  0  0  0  0  0  0  0  0
  141.7640   78.4560  221.5220 C   0  0  0  0  0  0  0  0  0  0  0  0
  141.1350   79.4410  222.2720 C   0  0  0  0  0  0  0  0  0  0  0  0
  141.7410   81.0950  222.2740 Cl  0  0  0  0  0  0  0  0  0  0  0  0
  140.0200   79.1920  223.0450 C   0  0  0  0  0  0  0  0  0  0  0  0
  139.5250   77.9220  223.0630 C   0  0  0  0  0  0  0  0  0  0  0  0
  140.1480   76.9340  222.3170 C   0  0  0  0  0  0  0  0  0  0  0  0
  139.6250   75.7020  222.3690 N   0  0  0  0  0  0  0  0  0  0  0  0
  140.4790   71.0490  226.2400 C   0  0  0  0  0  0  0  0  0  0  0  0
  140.9440   70.3440  227.3580 C   0  0  0  0  0  0  0  0  0  0  0  0
  139.7243   67.3372  226.5420 H   0  0  0  0  0  0  0  0  0  0  0  0
  138.9251   68.5790  224.6046 H   0  0  0  0  0  0  0  0  0  0  0  0
  139.9600   71.5570  223.4170 H   0  0  0  0  0  0  0  0  0  0  0  0
  137.8062   71.3122  221.6113 H   0  0  0  0  0  0  0  0  0  0  0  0
  136.4531   72.1343  222.4999 H   0  0  0  0  0  0  0  0  0  0  0  0
  137.7380   74.1110  222.6750 H   0  0  0  0  0  0  0  0  0  0  0  0
  141.6800   74.0416  220.3528 H   0  0  0  0  0  0  0  0  0  0  0  0
  142.7108   76.2986  220.2053 H   0  0  0  0  0  0  0  0  0  0  0  0
  142.6521   78.6970  220.9194 H   0  0  0  0  0  0  0  0  0  0  0  0
  139.5448   79.9938  223.6291 H   0  0  0  0  0  0  0  0  0  0  0  0
  138.6366   77.6828  223.6659 H   0  0  0  0  0  0  0  0  0  0  0  0
  140.7059   72.1230  226.1683 H   0  0  0  0  0  0  0  0  0  0  0  0
  141.5203   70.8642  228.1372 H   0  0  0  0  0  0  0  0  0  0  0  0
  1  2  3  0
  2  3  1  0
  3  4  2  0
  4  5  1  0
  5  6  2  0
  6  7  1  0
  7  8  1  0
  8  9  2  0
  8 10  1  0
 10 11  1  0
 11 12  1  0
 12 13  2  0
 12 14  1  0
 14 15  2  0
 15 16  1  0
 16 17  2  0
 17 18  1  0
 18 19  2  0
 19 20  1  0
 19 21  1  0
 21 22  2  0
 22 23  1  0
 23 24  2  0
  6 25  1  0
 25 26  2  0
 26  3  1  0
 24 14  1  0
 23 17  1  0
  4 27  1  0
  5 28  1  0
  7 29  1  0
 10 30  1  0
 10 31  1  0
 11 32  1  0
 15 33  1  0
 16 34  1  0
 18 35  1  0
 21 36  1  0
 22 37  1  0
 25 38  1  0
 26 39  1  0
M  END
>  <smiles>  (41) 
N#Cc1ccc(NC(=O)CNC(=O)c2ccc3cc(Cl)ccc3n2)cc1

>  <score_type>  (41) 
oracle

>  <origin>  (41) 
autodockgpu

>  <m_score__min__energy>  (41) 
-8.3300000000000001

>  <m_primary>  (41) 
energy

>  <rmsd>  (41) 
8.257724444566298

>  <m_score__min__rmsd>  (41) 
8.257724444566298

>  <meeko>  (41) 
{"free_energy": -7.59, "intermolecular_energy": -9.08, "internal_energy": -1.83, "cluster_size": 28, "cluster_id": 2, "rank_in_cluster": 15}

>  <energy>  (41) 
-7.47

>  <cluster_rmsd>  (41) 
1.41

>  <cluster>  (41) 
2

$$$$

     RDKit          3D

 39 41  0  0  0  0  0  0  0  0999 V2000
  141.7320   67.7830  229.4650 N   0  0  0  0  0  0  0  0  0  0  0  0
  141.2760   68.2430  228.5020 C   0  0  0  0  0  0  0  0  0  0  0  0
  140.7010   68.8150  227.3190 C   0  0  0  0  0  0  0  0  0  0  0  0
  140.8810   70.1530  227.0590 C   0  0  0  0  0  0  0  0  0  0  0  0
  140.3640   70.7700  225.9530 C   0  0  0  0  0  0  0  0  0  0  0  0
  139.6120   70.0520  225.0140 C   0  0  0  0  0  0  0  0  0  0  0  0
  139.1140   70.7610  223.9020 N   0  0  0  0  0  0  0  0  0  0  0  0
  137.7710   71.1140  223.6690 C   0  0  0  0  0  0  0  0  0  0  0  0
  136.8490   70.8220  224.4630 O   0  0  0  0  0  0  0  0  0  0  0  0
  137.3970   71.8640  222.4470 C   0  0  0  0  0  0  0  0  0  0  0  0
  138.1130   73.1180  222.3390 N   0  0  0  0  0  0  0  0  0  0  0  0
  139.4000   73.1870  221.7420 C   0  0  0  0  0  0  0  0  0  0  0  0
  139.9590   72.1530  221.2870 O   0  0  0  0  0  0  0  0  0  0  0  0
  140.0560   74.5070  221.6750 C   0  0  0  0  0  0  0  0  0  0  0  0
  141.2140   74.6920  220.9500 C   0  0  0  0  0  0  0  0  0  0  0  0
  141.8360   75.9310  220.8830 C   0  0  0  0  0  0  0  0  0  0  0  0
  141.2740   76.9940  221.5580 C   0  0  0  0  0  0  0  0  0  0  0  0
  141.8130   78.2590  221.5550 C   0  0  0  0  0  0  0  0  0  0  0  0
  141.1770   79.2690  222.2640 C   0  0  0  0  0  0  0  0  0  0  0  0
  141.8320   80.9030  222.2860 Cl  0  0  0  0  0  0  0  0  0  0  0  0
  140.0190   79.0590  222.9830 C   0  0  0  0  0  0  0  0  0  0  0  0
  139.4860   77.8040  222.9850 C   0  0  0  0  0  0  0  0  0  0  0  0
  140.1150   76.7920  222.2780 C   0  0  0  0  0  0  0  0  0  0  0  0
  139.5530   75.5760  222.3130 N   0  0  0  0  0  0  0  0  0  0  0  0
  139.4370   68.7300  225.2750 C   0  0  0  0  0  0  0  0  0  0  0  0
  139.9650   68.0930  226.4070 C   0  0  0  0  0  0  0  0  0  0  0  0
  141.4661   70.7534  227.7712 H   0  0  0  0  0  0  0  0  0  0  0  0
  140.5411   71.8446  225.7988 H   0  0  0  0  0  0  0  0  0  0  0  0
  139.8030   71.0680  223.1520 H   0  0  0  0  0  0  0  0  0  0  0  0
  137.6281   71.2463  221.5667 H   0  0  0  0  0  0  0  0  0  0  0  0
  136.3221   72.0906  222.5034 H   0  0  0  0  0  0  0  0  0  0  0  0
  137.6810   74.0170  222.7100 H   0  0  0  0  0  0  0  0  0  0  0  0
  141.6546   73.8391  220.4129 H   0  0  0  0  0  0  0  0  0  0  0  0
  142.7606   76.0626  220.3019 H   0  0  0  0  0  0  0  0  0  0  0  0
  142.7376   78.4683  220.9971 H   0  0  0  0  0  0  0  0  0  0  0  0
  139.5399   79.8791  223.5380 H   0  0  0  0  0  0  0  0  0  0  0  0
  138.5621   77.5962  223.5446 H   0  0  0  0  0  0  0  0  0  0  0  0
  138.8520   68.1297  224.5627 H   0  0  0  0  0  0  0  0  0  0  0  0
  139.7914   67.0185  226.5659 H   0  0  0  0  0  0  0  0  0  0  0  0
  1  2  3  0
  2  3  1  0
  3  4  2  0
  4  5  1  0
  5  6  2  0
  6  7  1  0
  7  8  1  0
  8  9  2  0
  8 10  1  0
 10 11  1  0
 11 12  1  0
 12 13  2  0
 12 14  1  0
 14 15  2  0
 15 16  1  0
 16 17  2  0
 17 18  1  0
 18 19  2  0
 19 20  1  0
 19 21  1  0
 21 22  2  0
 22 23  1  0
 23 24  2  0
  6 25  1  0
 25 26  2  0
 26  3  1  0
 24 14  1  0
 23 17  1  0
  4 27  1  0
  5 28  1  0
  7 29  1  0
 10 30  1  0
 10 31  1  0
 11 32  1  0
 15 33  1  0
 16 34  1  0
 18 35  1  0
 21 36  1  0
 22 37  1  0
 25 38  1  0
 26 39  1  0
M  END
>  <smiles>  (42) 
N#Cc1ccc(NC(=O)CNC(=O)c2ccc3cc(Cl)ccc3n2)cc1

>  <score_type>  (42) 
oracle

>  <origin>  (42) 
autodockgpu

>  <m_score__min__energy>  (42) 
-8.3300000000000001

>  <m_primary>  (42) 
energy

>  <rmsd>  (42) 
8.03448925156556

>  <m_score__min__rmsd>  (42) 
8.03448925156556

>  <meeko>  (42) 
{"free_energy": -7.47, "intermolecular_energy": -8.96, "internal_energy": -1.85, "cluster_size": 28, "cluster_id": 2, "rank_in_cluster": 20}

>  <energy>  (42) 
-7.46

>  <cluster_rmsd>  (42) 
1.18

>  <cluster>  (42) 
2

$$$$

     RDKit          3D

 39 41  0  0  0  0  0  0  0  0999 V2000
  142.5580   81.9810  224.1810 N   0  0  0  0  0  0  0  0  0  0  0  0
  142.2010   81.0190  223.6390 C   0  0  0  0  0  0  0  0  0  0  0  0
  141.7620   79.8360  222.9560 C   0  0  0  0  0  0  0  0  0  0  0  0
  141.5800   78.6730  223.6680 C   0  0  0  0  0  0  0  0  0  0  0  0
  141.1630   77.5070  223.0880 C   0  0  0  0  0  0  0  0  0  0  0  0
  140.8970   77.4400  221.7150 C   0  0  0  0  0  0  0  0  0  0  0  0
  140.4720   76.2000  221.1940 N   0  0  0  0  0  0  0  0  0  0  0  0
  139.1410   75.8020  220.9650 C   0  0  0  0  0  0  0  0  0  0  0  0
  138.1630   76.5430  221.2100 O   0  0  0  0  0  0  0  0  0  0  0  0
  138.8490   74.4590  220.4100 C   0  0  0  0  0  0  0  0  0  0  0  0
  138.8920   73.4300  221.4280 N   0  0  0  0  0  0  0  0  0  0  0  0
  140.0920   73.1290  222.1250 C   0  0  0  0  0  0  0  0  0  0  0  0
  141.1590   73.7510  221.8770 O   0  0  0  0  0  0  0  0  0  0  0  0
  140.0440   72.0650  223.1460 C   0  0  0  0  0  0  0  0  0  0  0  0
  139.4810   70.8360  222.8700 C   0  0  0  0  0  0  0  0  0  0  0  0
  139.4330   69.8320  223.8260 C   0  0  0  0  0  0  0  0  0  0  0  0
  139.9630   70.0760  225.0760 C   0  0  0  0  0  0  0  0  0  0  0  0
  139.9620   69.1480  226.0890 C   0  0  0  0  0  0  0  0  0  0  0  0
  140.5200   69.4830  227.3160 C   0  0  0  0  0  0  0  0  0  0  0  0
  140.5420   68.3240  228.6420 Cl  0  0  0  0  0  0  0  0  0  0  0  0
  141.0770   70.7190  227.5680 C   0  0  0  0  0  0  0  0  0  0  0  0
  141.0760   71.6390  226.5610 C   0  0  0  0  0  0  0  0  0  0  0  0
  140.5220   71.3100  225.3340 C   0  0  0  0  0  0  0  0  0  0  0  0
  140.5440   72.2480  224.3780 N   0  0  0  0  0  0  0  0  0  0  0  0
  141.0790   78.5910  221.0160 C   0  0  0  0  0  0  0  0  0  0  0  0
  141.5050   79.7900  221.6040 C   0  0  0  0  0  0  0  0  0  0  0  0
  141.7784   78.6814  224.7499 H   0  0  0  0  0  0  0  0  0  0  0  0
  141.0346   76.6084  223.7093 H   0  0  0  0  0  0  0  0  0  0  0  0
  141.2140   75.4800  220.9440 H   0  0  0  0  0  0  0  0  0  0  0  0
  137.8454   74.4714  219.9598 H   0  0  0  0  0  0  0  0  0  0  0  0
  139.6191   74.2268  219.6596 H   0  0  0  0  0  0  0  0  0  0  0  0
  138.0160   72.8780  221.6710 H   0  0  0  0  0  0  0  0  0  0  0  0
  139.0613   70.6483  221.8707 H   0  0  0  0  0  0  0  0  0  0  0  0
  138.9799   68.8575  223.5913 H   0  0  0  0  0  0  0  0  0  0  0  0
  139.5244   68.1514  225.9302 H   0  0  0  0  0  0  0  0  0  0  0  0
  141.5091   70.9559  228.5514 H   0  0  0  0  0  0  0  0  0  0  0  0
  141.5122   72.6359  226.7218 H   0  0  0  0  0  0  0  0  0  0  0  0
  140.8820   78.5813  219.9338 H   0  0  0  0  0  0  0  0  0  0  0  0
  141.6337   80.6916  220.9871 H   0  0  0  0  0  0  0  0  0  0  0  0
  1  2  3  0
  2  3  1  0
  3  4  2  0
  4  5  1  0
  5  6  2  0
  6  7  1  0
  7  8  1  0
  8  9  2  0
  8 10  1  0
 10 11  1  0
 11 12  1  0
 12 13  2  0
 12 14  1  0
 14 15  2  0
 15 16  1  0
 16 17  2  0
 17 18  1  0
 18 19  2  0
 19 20  1  0
 19 21  1  0
 21 22  2  0
 22 23  1  0
 23 24  2  0
  6 25  1  0
 25 26  2  0
 26  3  1  0
 24 14  1  0
 23 17  1  0
  4 27  1  0
  5 28  1  0
  7 29  1  0
 10 30  1  0
 10 31  1  0
 11 32  1  0
 15 33  1  0
 16 34  1  0
 18 35  1  0
 21 36  1  0
 22 37  1  0
 25 38  1  0
 26 39  1  0
M  END
>  <smiles>  (43) 
N#Cc1ccc(NC(=O)CNC(=O)c2ccc3cc(Cl)ccc3n2)cc1

>  <score_type>  (43) 
oracle

>  <origin>  (43) 
autodockgpu

>  <m_score__min__energy>  (43) 
-8.3300000000000001

>  <m_primary>  (43) 
energy

>  <rmsd>  (43) 
2.996540075786959

>  <m_score__min__rmsd>  (43) 
2.996540075786959

>  <meeko>  (43) 
{"free_energy": -7.88, "intermolecular_energy": -9.37, "internal_energy": -1.49, "cluster_size": 21, "cluster_id": 1, "rank_in_cluster": 19}

>  <energy>  (43) 
-7.46

>  <cluster_rmsd>  (43) 
1.4

>  <cluster>  (43) 
2

$$$$

     RDKit          3D

 39 41  0  0  0  0  0  0  0  0999 V2000
  141.8870   67.6510  229.8250 N   0  0  0  0  0  0  0  0  0  0  0  0
  141.3920   68.1220  228.8870 C   0  0  0  0  0  0  0  0  0  0  0  0
  140.7680   68.7060  227.7350 C   0  0  0  0  0  0  0  0  0  0  0  0
  140.7150   70.0760  227.6170 C   0  0  0  0  0  0  0  0  0  0  0  0
  140.1370   70.7060  226.5490 C   0  0  0  0  0  0  0  0  0  0  0  0
  139.5620   69.9720  225.5050 C   0  0  0  0  0  0  0  0  0  0  0  0
  138.9860   70.6960  224.4400 N   0  0  0  0  0  0  0  0  0  0  0  0
  139.6780   71.4470  223.4710 C   0  0  0  0  0  0  0  0  0  0  0  0
  140.9250   71.5480  223.4570 O   0  0  0  0  0  0  0  0  0  0  0  0
  138.9310   72.1600  222.4070 C   0  0  0  0  0  0  0  0  0  0  0  0
  139.3570   73.5370  222.2740 N   0  0  0  0  0  0  0  0  0  0  0  0
  140.4930   73.8880  221.4960 C   0  0  0  0  0  0  0  0  0  0  0  0
  141.1650   73.0070  220.8960 O   0  0  0  0  0  0  0  0  0  0  0  0
  140.8540   75.3160  221.4160 C   0  0  0  0  0  0  0  0  0  0  0  0
  141.7780   75.7680  220.4970 C   0  0  0  0  0  0  0  0  0  0  0  0
  142.1230   77.1100  220.4170 C   0  0  0  0  0  0  0  0  0  0  0  0
  141.5220   78.0040  221.2780 C   0  0  0  0  0  0  0  0  0  0  0  0
  141.7950   79.3500  221.2780 C   0  0  0  0  0  0  0  0  0  0  0  0
  141.1410   80.1750  222.1830 C   0  0  0  0  0  0  0  0  0  0  0  0
  141.4600   81.9070  222.2170 Cl  0  0  0  0  0  0  0  0  0  0  0  0
  140.2200   79.7000  223.0940 C   0  0  0  0  0  0  0  0  0  0  0  0
  139.9500   78.3630  223.0920 C   0  0  0  0  0  0  0  0  0  0  0  0
  140.6000   77.5350  222.1910 C   0  0  0  0  0  0  0  0  0  0  0  0
  140.3010   76.2300  222.2300 N   0  0  0  0  0  0  0  0  0  0  0  0
  139.6170   68.6190  225.6260 C   0  0  0  0  0  0  0  0  0  0  0  0
  140.2070   67.9680  226.7170 C   0  0  0  0  0  0  0  0  0  0  0  0
  141.1562   70.6908  228.4154 H   0  0  0  0  0  0  0  0  0  0  0  0
  140.1239   71.8052  226.5101 H   0  0  0  0  0  0  0  0  0  0  0  0
  137.9270   70.6890  224.3430 H   0  0  0  0  0  0  0  0  0  0  0  0
  139.0962   71.6433  221.4501 H   0  0  0  0  0  0  0  0  0  0  0  0
  137.8658   72.1592  222.6813 H   0  0  0  0  0  0  0  0  0  0  0  0
  138.8210   74.3150  222.7620 H   0  0  0  0  0  0  0  0  0  0  0  0
  142.2518   75.0491  219.8125 H   0  0  0  0  0  0  0  0  0  0  0  0
  142.8630   77.4545  219.6796 H   0  0  0  0  0  0  0  0  0  0  0  0
  142.5237   79.7697  220.5689 H   0  0  0  0  0  0  0  0  0  0  0  0
  139.7190   80.3786  223.8001 H   0  0  0  0  0  0  0  0  0  0  0  0
  139.2207   77.9447  223.8013 H   0  0  0  0  0  0  0  0  0  0  0  0
  139.1761   68.0047  224.8271 H   0  0  0  0  0  0  0  0  0  0  0  0
  140.2221   66.8690  226.7603 H   0  0  0  0  0  0  0  0  0  0  0  0
  1  2  3  0
  2  3  1  0
  3  4  2  0
  4  5  1  0
  5  6  2  0
  6  7  1  0
  7  8  1  0
  8  9  2  0
  8 10  1  0
 10 11  1  0
 11 12  1  0
 12 13  2  0
 12 14  1  0
 14 15  2  0
 15 16  1  0
 16 17  2  0
 17 18  1  0
 18 19  2  0
 19 20  1  0
 19 21  1  0
 21 22  2  0
 22 23  1  0
 23 24  2  0
  6 25  1  0
 25 26  2  0
 26  3  1  0
 24 14  1  0
 23 17  1  0
  4 27  1  0
  5 28  1  0
  7 29  1  0
 10 30  1  0
 10 31  1  0
 11 32  1  0
 15 33  1  0
 16 34  1  0
 18 35  1  0
 21 36  1  0
 22 37  1  0
 25 38  1  0
 26 39  1  0
M  END
>  <smiles>  (44) 
N#Cc1ccc(NC(=O)CNC(=O)c2ccc3cc(Cl)ccc3n2)cc1

>  <score_type>  (44) 
oracle

>  <origin>  (44) 
autodockgpu

>  <m_score__min__energy>  (44) 
-8.3300000000000001

>  <m_primary>  (44) 
energy

>  <rmsd>  (44) 
8.601447763192212

>  <m_score__min__rmsd>  (44) 
8.601447763192212

>  <meeko>  (44) 
{"free_energy": -8.06, "intermolecular_energy": -9.55, "internal_energy": -1.08, "cluster_size": 28, "cluster_id": 2, "rank_in_cluster": 6}

>  <energy>  (44) 
-7.46

>  <cluster_rmsd>  (44) 
1.45

>  <cluster>  (44) 
2

$$$$

     RDKit          3D

 39 41  0  0  0  0  0  0  0  0999 V2000
  142.5940   81.8930  224.2290 N   0  0  0  0  0  0  0  0  0  0  0  0
  142.2590   80.9390  223.6590 C   0  0  0  0  0  0  0  0  0  0  0  0
  141.8460   79.7520  222.9670 C   0  0  0  0  0  0  0  0  0  0  0  0
  141.4770   78.6420  223.6900 C   0  0  0  0  0  0  0  0  0  0  0  0
  141.0720   77.4760  223.1020 C   0  0  0  0  0  0  0  0  0  0  0  0
  141.0120   77.3550  221.7080 C   0  0  0  0  0  0  0  0  0  0  0  0
  140.5850   76.1180  221.1810 N   0  0  0  0  0  0  0  0  0  0  0  0
  139.2520   75.7090  220.9880 C   0  0  0  0  0  0  0  0  0  0  0  0
  138.2740   76.4340  221.2760 O   0  0  0  0  0  0  0  0  0  0  0  0
  138.9580   74.3710  220.4200 C   0  0  0  0  0  0  0  0  0  0  0  0
  138.9790   73.3350  221.4310 N   0  0  0  0  0  0  0  0  0  0  0  0
  140.1520   73.0600  222.1830 C   0  0  0  0  0  0  0  0  0  0  0  0
  141.2130   73.7120  221.9910 O   0  0  0  0  0  0  0  0  0  0  0  0
  140.0840   71.9870  223.1930 C   0  0  0  0  0  0  0  0  0  0  0  0
  139.5030   70.7700  222.9030 C   0  0  0  0  0  0  0  0  0  0  0  0
  139.4360   69.7560  223.8490 C   0  0  0  0  0  0  0  0  0  0  0  0
  139.9650   69.9800  225.1020 C   0  0  0  0  0  0  0  0  0  0  0  0
  139.9470   69.0420  226.1060 C   0  0  0  0  0  0  0  0  0  0  0  0
  140.5040   69.3560  227.3380 C   0  0  0  0  0  0  0  0  0  0  0  0
  140.5040   68.1840  228.6530 Cl  0  0  0  0  0  0  0  0  0  0  0  0
  141.0790   70.5810  227.6050 C   0  0  0  0  0  0  0  0  0  0  0  0
  141.0960   71.5110  226.6080 C   0  0  0  0  0  0  0  0  0  0  0  0
  140.5420   71.2030  225.3760 C   0  0  0  0  0  0  0  0  0  0  0  0
  140.5820   72.1500  224.4290 N   0  0  0  0  0  0  0  0  0  0  0  0
  141.3780   78.4540  220.9980 C   0  0  0  0  0  0  0  0  0  0  0  0
  141.7930   79.6520  221.5950 C   0  0  0  0  0  0  0  0  0  0  0  0
  141.5091   78.6944  224.7883 H   0  0  0  0  0  0  0  0  0  0  0  0
  140.7892   76.6205  223.7330 H   0  0  0  0  0  0  0  0  0  0  0  0
  141.3260   75.4110  220.8960 H   0  0  0  0  0  0  0  0  0  0  0  0
  137.9610   74.3937  219.9558 H   0  0  0  0  0  0  0  0  0  0  0  0
  139.7372   74.1381  219.6793 H   0  0  0  0  0  0  0  0  0  0  0  0
  138.1080   72.7590  221.6280 H   0  0  0  0  0  0  0  0  0  0  0  0
  139.0837   70.5992  221.9005 H   0  0  0  0  0  0  0  0  0  0  0  0
  138.9690   68.7909  223.6029 H   0  0  0  0  0  0  0  0  0  0  0  0
  139.4962   68.0532  225.9353 H   0  0  0  0  0  0  0  0  0  0  0  0
  141.5108   70.8010  228.5925 H   0  0  0  0  0  0  0  0  0  0  0  0
  141.5467   72.4995  226.7807 H   0  0  0  0  0  0  0  0  0  0  0  0
  141.3471   78.4008  219.8997 H   0  0  0  0  0  0  0  0  0  0  0  0
  142.0759   80.5108  220.9685 H   0  0  0  0  0  0  0  0  0  0  0  0
  1  2  3  0
  2  3  1  0
  3  4  2  0
  4  5  1  0
  5  6  2  0
  6  7  1  0
  7  8  1  0
  8  9  2  0
  8 10  1  0
 10 11  1  0
 11 12  1  0
 12 13  2  0
 12 14  1  0
 14 15  2  0
 15 16  1  0
 16 17  2  0
 17 18  1  0
 18 19  2  0
 19 20  1  0
 19 21  1  0
 21 22  2  0
 22 23  1  0
 23 24  2  0
  6 25  1  0
 25 26  2  0
 26  3  1  0
 24 14  1  0
 23 17  1  0
  4 27  1  0
  5 28  1  0
  7 29  1  0
 10 30  1  0
 10 31  1  0
 11 32  1  0
 15 33  1  0
 16 34  1  0
 18 35  1  0
 21 36  1  0
 22 37  1  0
 25 38  1  0
 26 39  1  0
M  END
>  <smiles>  (45) 
N#Cc1ccc(NC(=O)CNC(=O)c2ccc3cc(Cl)ccc3n2)cc1

>  <score_type>  (45) 
oracle

>  <origin>  (45) 
autodockgpu

>  <m_score__min__energy>  (45) 
-8.3300000000000001

>  <m_primary>  (45) 
energy

>  <rmsd>  (45) 
2.9745372155017846

>  <m_score__min__rmsd>  (45) 
2.9745372155017846

>  <meeko>  (45) 
{"free_energy": -7.96, "intermolecular_energy": -9.45, "internal_energy": -1.48, "cluster_size": 21, "cluster_id": 1, "rank_in_cluster": 14}

>  <energy>  (45) 
-7.44

>  <cluster_rmsd>  (45) 
1.41

>  <cluster>  (45) 
2

$$$$

     RDKit          3D

 39 41  0  0  0  0  0  0  0  0999 V2000
  141.8400   67.4840  229.8340 N   0  0  0  0  0  0  0  0  0  0  0  0
  141.4090   68.1350  228.9760 C   0  0  0  0  0  0  0  0  0  0  0  0
  140.8760   68.9510  227.9230 C   0  0  0  0  0  0  0  0  0  0  0  0
  140.1820   68.3590  226.8940 C   0  0  0  0  0  0  0  0  0  0  0  0
  139.6450   69.0690  225.8560 C   0  0  0  0  0  0  0  0  0  0  0  0
  139.7780   70.4620  225.7920 C   0  0  0  0  0  0  0  0  0  0  0  0
  139.1950   71.1200  224.6890 N   0  0  0  0  0  0  0  0  0  0  0  0
  139.8630   71.5570  223.5300 C   0  0  0  0  0  0  0  0  0  0  0  0
  141.0910   71.3940  223.3560 O   0  0  0  0  0  0  0  0  0  0  0  0
  139.1120   72.2390  222.4490 C   0  0  0  0  0  0  0  0  0  0  0  0
  139.5080   73.6240  222.3030 N   0  0  0  0  0  0  0  0  0  0  0  0
  140.6230   73.9940  221.5050 C   0  0  0  0  0  0  0  0  0  0  0  0
  141.3030   73.1250  220.8970 O   0  0  0  0  0  0  0  0  0  0  0  0
  140.9550   75.4290  221.4130 C   0  0  0  0  0  0  0  0  0  0  0  0
  141.8500   75.8960  220.4740 C   0  0  0  0  0  0  0  0  0  0  0  0
  142.1660   77.2440  220.3820 C   0  0  0  0  0  0  0  0  0  0  0  0
  141.5650   78.1290  221.2530 C   0  0  0  0  0  0  0  0  0  0  0  0
  141.8120   79.4810  221.2430 C   0  0  0  0  0  0  0  0  0  0  0  0
  141.1600   80.2950  222.1590 C   0  0  0  0  0  0  0  0  0  0  0  0
  141.4450   82.0330  222.1810 Cl  0  0  0  0  0  0  0  0  0  0  0  0
  140.2680   79.8050  223.0900 C   0  0  0  0  0  0  0  0  0  0  0  0
  140.0240   78.4640  223.0980 C   0  0  0  0  0  0  0  0  0  0  0  0
  140.6720   77.6450  222.1860 C   0  0  0  0  0  0  0  0  0  0  0  0
  140.4000   76.3340  222.2350 N   0  0  0  0  0  0  0  0  0  0  0  0
  140.4640   71.0420  226.8110 C   0  0  0  0  0  0  0  0  0  0  0  0
  141.0170   70.3200  227.8770 C   0  0  0  0  0  0  0  0  0  0  0  0
  140.0532   67.2666  226.9064 H   0  0  0  0  0  0  0  0  0  0  0  0
  139.1011   68.5389  225.0603 H   0  0  0  0  0  0  0  0  0  0  0  0
  138.1500   71.3170  224.7170 H   0  0  0  0  0  0  0  0  0  0  0  0
  139.2997   71.7142  221.5007 H   0  0  0  0  0  0  0  0  0  0  0  0
  138.0440   72.2171  222.7116 H   0  0  0  0  0  0  0  0  0  0  0  0
  138.9650   74.3930  222.7970 H   0  0  0  0  0  0  0  0  0  0  0  0
  142.3242   75.1841  219.7823 H   0  0  0  0  0  0  0  0  0  0  0  0
  142.8830   77.6006  219.6279 H   0  0  0  0  0  0  0  0  0  0  0  0
  142.5177   79.9127  220.5180 H   0  0  0  0  0  0  0  0  0  0  0  0
  139.7687   80.4761  223.8044 H   0  0  0  0  0  0  0  0  0  0  0  0
  139.3175   78.0343  223.8234 H   0  0  0  0  0  0  0  0  0  0  0  0
  140.5919   72.1345  226.7987 H   0  0  0  0  0  0  0  0  0  0  0  0
  141.5623   70.8454  228.6749 H   0  0  0  0  0  0  0  0  0  0  0  0
  1  2  3  0
  2  3  1  0
  3  4  2  0
  4  5  1  0
  5  6  2  0
  6  7  1  0
  7  8  1  0
  8  9  2  0
  8 10  1  0
 10 11  1  0
 11 12  1  0
 12 13  2  0
 12 14  1  0
 14 15  2  0
 15 16  1  0
 16 17  2  0
 17 18  1  0
 18 19  2  0
 19 20  1  0
 19 21  1  0
 21 22  2  0
 22 23  1  0
 23 24  2  0
  6 25  1  0
 25 26  2  0
 26  3  1  0
 24 14  1  0
 23 17  1  0
  4 27  1  0
  5 28  1  0
  7 29  1  0
 10 30  1  0
 10 31  1  0
 11 32  1  0
 15 33  1  0
 16 34  1  0
 18 35  1  0
 21 36  1  0
 22 37  1  0
 25 38  1  0
 26 39  1  0
M  END
>  <smiles>  (46) 
N#Cc1ccc(NC(=O)CNC(=O)c2ccc3cc(Cl)ccc3n2)cc1

>  <score_type>  (46) 
oracle

>  <origin>  (46) 
autodockgpu

>  <m_score__min__energy>  (46) 
-8.3300000000000001

>  <m_primary>  (46) 
energy

>  <rmsd>  (46) 
8.784860547606035

>  <m_score__min__rmsd>  (46) 
8.784860547606035

>  <meeko>  (46) 
{"free_energy": -8.23, "intermolecular_energy": -9.72, "internal_energy": -1.07, "cluster_size": 28, "cluster_id": 2, "rank_in_cluster": 1}

>  <energy>  (46) 
-7.44

>  <cluster_rmsd>  (46) 
1.42

>  <cluster>  (46) 
2

$$$$

     RDKit          3D

 39 41  0  0  0  0  0  0  0  0999 V2000
  141.8260   67.6720  229.5740 N   0  0  0  0  0  0  0  0  0  0  0  0
  141.3910   68.3620  228.7490 C   0  0  0  0  0  0  0  0  0  0  0  0
  140.8420   69.2070  227.7270 C   0  0  0  0  0  0  0  0  0  0  0  0
  140.2150   68.6360  226.6440 C   0  0  0  0  0  0  0  0  0  0  0  0
  139.6680   69.3740  225.6310 C   0  0  0  0  0  0  0  0  0  0  0  0
  139.7220   70.7740  225.6490 C   0  0  0  0  0  0  0  0  0  0  0  0
  139.1350   71.4610  224.5660 N   0  0  0  0  0  0  0  0  0  0  0  0
  139.6860   71.6200  223.2810 C   0  0  0  0  0  0  0  0  0  0  0  0
  140.7980   71.1450  222.9590 O   0  0  0  0  0  0  0  0  0  0  0  0
  138.9470   72.3740  222.2400 C   0  0  0  0  0  0  0  0  0  0  0  0
  139.3770   73.7540  222.1610 N   0  0  0  0  0  0  0  0  0  0  0  0
  140.4420   74.1490  221.3080 C   0  0  0  0  0  0  0  0  0  0  0  0
  141.0460   73.3060  220.5930 O   0  0  0  0  0  0  0  0  0  0  0  0
  140.8130   75.5770  221.2900 C   0  0  0  0  0  0  0  0  0  0  0  0
  141.7530   76.0590  220.4030 C   0  0  0  0  0  0  0  0  0  0  0  0
  142.1070   77.4010  220.3820 C   0  0  0  0  0  0  0  0  0  0  0  0
  141.4990   78.2630  221.2700 C   0  0  0  0  0  0  0  0  0  0  0  0
  141.7810   79.6070  221.3280 C   0  0  0  0  0  0  0  0  0  0  0  0
  141.1180   80.3990  222.2560 C   0  0  0  0  0  0  0  0  0  0  0  0
  141.4470   82.1260  222.3630 Cl  0  0  0  0  0  0  0  0  0  0  0  0
  140.1820   79.8940  223.1330 C   0  0  0  0  0  0  0  0  0  0  0  0
  139.9040   78.5600  223.0740 C   0  0  0  0  0  0  0  0  0  0  0  0
  140.5610   77.7640  222.1500 C   0  0  0  0  0  0  0  0  0  0  0  0
  140.2540   76.4600  222.1320 N   0  0  0  0  0  0  0  0  0  0  0  0
  140.3430   71.3320  226.7210 C   0  0  0  0  0  0  0  0  0  0  0  0
  140.9050   70.5810  227.7620 C   0  0  0  0  0  0  0  0  0  0  0  0
  140.1509   67.5392  226.5905 H   0  0  0  0  0  0  0  0  0  0  0  0
  139.1786   68.8612  224.7899 H   0  0  0  0  0  0  0  0  0  0  0  0
  138.1830   71.9120  224.7150 H   0  0  0  0  0  0  0  0  0  0  0  0
  139.1167   71.8929  221.2654 H   0  0  0  0  0  0  0  0  0  0  0  0
  137.8801   72.3657  222.5078 H   0  0  0  0  0  0  0  0  0  0  0  0
  138.8970   74.5010  222.7460 H   0  0  0  0  0  0  0  0  0  0  0  0
  142.2324   75.3649  219.6971 H   0  0  0  0  0  0  0  0  0  0  0  0
  142.8593   77.7703  219.6695 H   0  0  0  0  0  0  0  0  0  0  0  0
  142.5231   80.0499  220.6474 H   0  0  0  0  0  0  0  0  0  0  0  0
  139.6747   80.5471  223.8584 H   0  0  0  0  0  0  0  0  0  0  0  0
  139.1624   78.1188  223.7562 H   0  0  0  0  0  0  0  0  0  0  0  0
  140.4079   72.4288  226.7744 H   0  0  0  0  0  0  0  0  0  0  0  0
  141.3955   71.0889  228.6054 H   0  0  0  0  0  0  0  0  0  0  0  0
  1  2  3  0
  2  3  1  0
  3  4  2  0
  4  5  1  0
  5  6  2  0
  6  7  1  0
  7  8  1  0
  8  9  2  0
  8 10  1  0
 10 11  1  0
 11 12  1  0
 12 13  2  0
 12 14  1  0
 14 15  2  0
 15 16  1  0
 16 17  2  0
 17 18  1  0
 18 19  2  0
 19 20  1  0
 19 21  1  0
 21 22  2  0
 22 23  1  0
 23 24  2  0
  6 25  1  0
 25 26  2  0
 26  3  1  0
 24 14  1  0
 23 17  1  0
  4 27  1  0
  5 28  1  0
  7 29  1  0
 10 30  1  0
 10 31  1  0
 11 32  1  0
 15 33  1  0
 16 34  1  0
 18 35  1  0
 21 36  1  0
 22 37  1  0
 25 38  1  0
 26 39  1  0
M  END
>  <smiles>  (47) 
N#Cc1ccc(NC(=O)CNC(=O)c2ccc3cc(Cl)ccc3n2)cc1

>  <score_type>  (47) 
oracle

>  <origin>  (47) 
autodockgpu

>  <m_score__min__energy>  (47) 
-8.3300000000000001

>  <m_primary>  (47) 
energy

>  <rmsd>  (47) 
8.717860491510018

>  <m_score__min__rmsd>  (47) 
8.717860491510018

>  <meeko>  (47) 
{"free_energy": -8.17, "intermolecular_energy": -9.66, "internal_energy": -1.1, "cluster_size": 28, "cluster_id": 2, "rank_in_cluster": 3}

>  <energy>  (47) 
-7.4

>  <cluster_rmsd>  (47) 
1.39

>  <cluster>  (47) 
2

$$$$

     RDKit          3D

 39 41  0  0  0  0  0  0  0  0999 V2000
  141.8240   67.5070  229.8340 N   0  0  0  0  0  0  0  0  0  0  0  0
  141.3460   67.9680  228.8830 C   0  0  0  0  0  0  0  0  0  0  0  0
  140.7440   68.5420  227.7140 C   0  0  0  0  0  0  0  0  0  0  0  0
  140.7590   69.9070  227.5470 C   0  0  0  0  0  0  0  0  0  0  0  0
  140.2060   70.5280  226.4610 C   0  0  0  0  0  0  0  0  0  0  0  0
  139.5870   69.7870  225.4460 C   0  0  0  0  0  0  0  0  0  0  0  0
  139.0410   70.5020  224.3600 N   0  0  0  0  0  0  0  0  0  0  0  0
  139.6960   71.4830  223.5920 C   0  0  0  0  0  0  0  0  0  0  0  0
  140.8790   71.8300  223.8060 O   0  0  0  0  0  0  0  0  0  0  0  0
  138.9880   72.1520  222.4750 C   0  0  0  0  0  0  0  0  0  0  0  0
  139.4020   73.5300  222.3170 N   0  0  0  0  0  0  0  0  0  0  0  0
  140.5300   73.8780  221.5280 C   0  0  0  0  0  0  0  0  0  0  0  0
  141.2070   72.9930  220.9390 O   0  0  0  0  0  0  0  0  0  0  0  0
  140.8800   75.3080  221.4230 C   0  0  0  0  0  0  0  0  0  0  0  0
  141.7740   75.7560  220.4740 C   0  0  0  0  0  0  0  0  0  0  0  0
  142.1060   77.1000  220.3700 C   0  0  0  0  0  0  0  0  0  0  0  0
  141.5240   77.9980  221.2400 C   0  0  0  0  0  0  0  0  0  0  0  0
  141.7880   79.3460  221.2180 C   0  0  0  0  0  0  0  0  0  0  0  0
  141.1540   80.1760  222.1330 C   0  0  0  0  0  0  0  0  0  0  0  0
  141.4620   81.9100  222.1400 Cl  0  0  0  0  0  0  0  0  0  0  0  0
  140.2630   79.7040  223.0750 C   0  0  0  0  0  0  0  0  0  0  0  0
  140.0030   78.3660  223.0940 C   0  0  0  0  0  0  0  0  0  0  0  0
  140.6320   77.5330  222.1830 C   0  0  0  0  0  0  0  0  0  0  0  0
  140.3440   76.2260  222.2440 N   0  0  0  0  0  0  0  0  0  0  0  0
  139.5750   68.4390  225.6150 C   0  0  0  0  0  0  0  0  0  0  0  0
  140.1400   67.7970  226.7260 C   0  0  0  0  0  0  0  0  0  0  0  0
  141.2366   70.5264  228.3205 H   0  0  0  0  0  0  0  0  0  0  0  0
  140.2479   71.6245  226.3835 H   0  0  0  0  0  0  0  0  0  0  0  0
  138.0370   70.2960  224.0780 H   0  0  0  0  0  0  0  0  0  0  0  0
  139.2016   71.6082  221.5430 H   0  0  0  0  0  0  0  0  0  0  0  0
  137.9119   72.1450  222.7028 H   0  0  0  0  0  0  0  0  0  0  0  0
  138.8610   74.3110  222.7950 H   0  0  0  0  0  0  0  0  0  0  0  0
  142.2342   75.0330  219.7844 H   0  0  0  0  0  0  0  0  0  0  0  0
  142.8206   77.4426  219.6072 H   0  0  0  0  0  0  0  0  0  0  0  0
  142.4934   79.7630  220.4841 H   0  0  0  0  0  0  0  0  0  0  0  0
  139.7776   80.3862  223.7884 H   0  0  0  0  0  0  0  0  0  0  0  0
  139.2977   77.9500  223.8285 H   0  0  0  0  0  0  0  0  0  0  0  0
  139.0978   67.8199  224.8410 H   0  0  0  0  0  0  0  0  0  0  0  0
  140.1009   66.7008  226.8082 H   0  0  0  0  0  0  0  0  0  0  0  0
  1  2  3  0
  2  3  1  0
  3  4  2  0
  4  5  1  0
  5  6  2  0
  6  7  1  0
  7  8  1  0
  8  9  2  0
  8 10  1  0
 10 11  1  0
 11 12  1  0
 12 13  2  0
 12 14  1  0
 14 15  2  0
 15 16  1  0
 16 17  2  0
 17 18  1  0
 18 19  2  0
 19 20  1  0
 19 21  1  0
 21 22  2  0
 22 23  1  0
 23 24  2  0
  6 25  1  0
 25 26  2  0
 26  3  1  0
 24 14  1  0
 23 17  1  0
  4 27  1  0
  5 28  1  0
  7 29  1  0
 10 30  1  0
 10 31  1  0
 11 32  1  0
 15 33  1  0
 16 34  1  0
 18 35  1  0
 21 36  1  0
 22 37  1  0
 25 38  1  0
 26 39  1  0
M  END
>  <smiles>  (48) 
N#Cc1ccc(NC(=O)CNC(=O)c2ccc3cc(Cl)ccc3n2)cc1

>  <score_type>  (48) 
oracle

>  <origin>  (48) 
autodockgpu

>  <m_score__min__energy>  (48) 
-8.3300000000000001

>  <m_primary>  (48) 
energy

>  <rmsd>  (48) 
8.621733979341492

>  <m_score__min__rmsd>  (48) 
8.621733979341492

>  <meeko>  (48) 
{"free_energy": -8.06, "intermolecular_energy": -9.55, "internal_energy": -1.08, "cluster_size": 28, "cluster_id": 2, "rank_in_cluster": 7}

>  <energy>  (48) 
-7.37

>  <cluster_rmsd>  (48) 
1.41

>  <cluster>  (48) 
2

$$$$

     RDKit          3D

 39 41  0  0  0  0  0  0  0  0999 V2000
  141.5700   67.5120  229.6290 N   0  0  0  0  0  0  0  0  0  0  0  0
  141.2190   68.1360  228.7150 C   0  0  0  0  0  0  0  0  0  0  0  0
  140.7880   68.8950  227.5770 C   0  0  0  0  0  0  0  0  0  0  0  0
  140.0950   68.2660  226.5690 C   0  0  0  0  0  0  0  0  0  0  0  0
  139.6510   68.9220  225.4540 C   0  0  0  0  0  0  0  0  0  0  0  0
  139.8860   70.2920  225.2830 C   0  0  0  0  0  0  0  0  0  0  0  0
  139.3960   70.8940  224.1050 N   0  0  0  0  0  0  0  0  0  0  0  0
  138.0460   71.1340  223.7890 C   0  0  0  0  0  0  0  0  0  0  0  0
  137.1070   70.8250  224.5570 O   0  0  0  0  0  0  0  0  0  0  0  0
  137.6830   71.7780  222.5050 C   0  0  0  0  0  0  0  0  0  0  0  0
  138.3420   73.0560  222.3340 N   0  0  0  0  0  0  0  0  0  0  0  0
  139.6430   73.1480  221.7730 C   0  0  0  0  0  0  0  0  0  0  0  0
  140.2650   72.1160  221.4060 O   0  0  0  0  0  0  0  0  0  0  0  0
  140.2380   74.4920  221.6360 C   0  0  0  0  0  0  0  0  0  0  0  0
  141.3480   74.7040  220.8460 C   0  0  0  0  0  0  0  0  0  0  0  0
  141.9120   75.9650  220.7130 C   0  0  0  0  0  0  0  0  0  0  0  0
  141.3410   77.0230  221.3880 C   0  0  0  0  0  0  0  0  0  0  0  0
  141.8250   78.3080  221.3220 C   0  0  0  0  0  0  0  0  0  0  0  0
  141.1840   79.3110  222.0370 C   0  0  0  0  0  0  0  0  0  0  0  0
  141.7690   80.9710  221.9800 Cl  0  0  0  0  0  0  0  0  0  0  0  0
  140.0740   79.0740  222.8210 C   0  0  0  0  0  0  0  0  0  0  0  0
  139.5960   77.7990  222.8850 C   0  0  0  0  0  0  0  0  0  0  0  0
  140.2310   76.7940  222.1740 C   0  0  0  0  0  0  0  0  0  0  0  0
  139.7240   75.5570  222.2700 N   0  0  0  0  0  0  0  0  0  0  0  0
  140.5710   70.9080  226.2820 C   0  0  0  0  0  0  0  0  0  0  0  0
  141.0280   70.2420  227.4270 C   0  0  0  0  0  0  0  0  0  0  0  0
  139.8891   67.1896  226.6637 H   0  0  0  0  0  0  0  0  0  0  0  0
  139.1015   68.3655  224.6805 H   0  0  0  0  0  0  0  0  0  0  0  0
  140.0990   71.2030  223.3700 H   0  0  0  0  0  0  0  0  0  0  0  0
  137.9766   71.1136  221.6789 H   0  0  0  0  0  0  0  0  0  0  0  0
  136.5971   71.9533  222.5077 H   0  0  0  0  0  0  0  0  0  0  0  0
  137.8560   73.9550  222.6290 H   0  0  0  0  0  0  0  0  0  0  0  0
  141.7964   73.8549  220.3093 H   0  0  0  0  0  0  0  0  0  0  0  0
  142.7988   76.1177  220.0803 H   0  0  0  0  0  0  0  0  0  0  0  0
  142.7095   78.5389  220.7101 H   0  0  0  0  0  0  0  0  0  0  0  0
  139.5892   79.8894  223.3778 H   0  0  0  0  0  0  0  0  0  0  0  0
  138.7115   77.5697  223.4974 H   0  0  0  0  0  0  0  0  0  0  0  0
  140.7772   71.9843  226.1869 H   0  0  0  0  0  0  0  0  0  0  0  0
  141.5771   70.7942  228.2039 H   0  0  0  0  0  0  0  0  0  0  0  0
  1  2  3  0
  2  3  1  0
  3  4  2  0
  4  5  1  0
  5  6  2  0
  6  7  1  0
  7  8  1  0
  8  9  2  0
  8 10  1  0
 10 11  1  0
 11 12  1  0
 12 13  2  0
 12 14  1  0
 14 15  2  0
 15 16  1  0
 16 17  2  0
 17 18  1  0
 18 19  2  0
 19 20  1  0
 19 21  1  0
 21 22  2  0
 22 23  1  0
 23 24  2  0
  6 25  1  0
 25 26  2  0
 26  3  1  0
 24 14  1  0
 23 17  1  0
  4 27  1  0
  5 28  1  0
  7 29  1  0
 10 30  1  0
 10 31  1  0
 11 32  1  0
 15 33  1  0
 16 34  1  0
 18 35  1  0
 21 36  1  0
 22 37  1  0
 25 38  1  0
 26 39  1  0
M  END
>  <smiles>  (49) 
N#Cc1ccc(NC(=O)CNC(=O)c2ccc3cc(Cl)ccc3n2)cc1

>  <score_type>  (49) 
oracle

>  <origin>  (49) 
autodockgpu

>  <m_score__min__energy>  (49) 
-8.3300000000000001

>  <m_primary>  (49) 
energy

>  <rmsd>  (49) 
8.291345960834633

>  <m_score__min__rmsd>  (49) 
8.291345960834633

>  <meeko>  (49) 
{"free_energy": -7.49, "intermolecular_energy": -8.99, "internal_energy": -1.83, "cluster_size": 28, "cluster_id": 2, "rank_in_cluster": 19}

>  <energy>  (49) 
-7.22

>  <cluster_rmsd>  (49) 
1.36

>  <cluster>  (49) 
2

$$$$

     RDKit          3D

 39 41  0  0  0  0  0  0  0  0999 V2000
  141.6580   67.5280  229.6580 N   0  0  0  0  0  0  0  0  0  0  0  0
  141.3030   68.1410  228.7380 C   0  0  0  0  0  0  0  0  0  0  0  0
  140.8500   68.8950  227.6050 C   0  0  0  0  0  0  0  0  0  0  0  0
  140.2230   68.2460  226.5670 C   0  0  0  0  0  0  0  0  0  0  0  0
  139.7650   68.8960  225.4550 C   0  0  0  0  0  0  0  0  0  0  0  0
  139.9140   70.2810  225.3180 C   0  0  0  0  0  0  0  0  0  0  0  0
  139.4150   70.8760  224.1400 N   0  0  0  0  0  0  0  0  0  0  0  0
  138.0600   71.0810  223.8180 C   0  0  0  0  0  0  0  0  0  0  0  0
  137.1260   70.7430  224.5790 O   0  0  0  0  0  0  0  0  0  0  0  0
  137.6870   71.7220  222.5350 C   0  0  0  0  0  0  0  0  0  0  0  0
  138.3470   72.9990  222.3540 N   0  0  0  0  0  0  0  0  0  0  0  0
  139.6460   73.0860  221.7860 C   0  0  0  0  0  0  0  0  0  0  0  0
  140.2640   72.0510  221.4210 O   0  0  0  0  0  0  0  0  0  0  0  0
  140.2410   74.4280  221.6390 C   0  0  0  0  0  0  0  0  0  0  0  0
  141.3530   74.6320  220.8480 C   0  0  0  0  0  0  0  0  0  0  0  0
  141.9170   75.8920  220.7060 C   0  0  0  0  0  0  0  0  0  0  0  0
  141.3470   76.9560  221.3730 C   0  0  0  0  0  0  0  0  0  0  0  0
  141.8320   78.2400  221.2970 C   0  0  0  0  0  0  0  0  0  0  0  0
  141.1920   79.2490  222.0040 C   0  0  0  0  0  0  0  0  0  0  0  0
  141.7780   80.9080  221.9350 Cl  0  0  0  0  0  0  0  0  0  0  0  0
  140.0820   79.0190  222.7900 C   0  0  0  0  0  0  0  0  0  0  0  0
  139.6020   77.7450  222.8630 C   0  0  0  0  0  0  0  0  0  0  0  0
  140.2360   76.7340  222.1590 C   0  0  0  0  0  0  0  0  0  0  0  0
  139.7280   75.4980  222.2650 N   0  0  0  0  0  0  0  0  0  0  0  0
  140.5350   70.9190  226.3450 C   0  0  0  0  0  0  0  0  0  0  0  0
  141.0060   70.2580  227.4880 C   0  0  0  0  0  0  0  0  0  0  0  0
  140.0841   67.1569  226.6345 H   0  0  0  0  0  0  0  0  0  0  0  0
  139.2722   68.3222  224.6563 H   0  0  0  0  0  0  0  0  0  0  0  0
  140.1140   71.2080  223.4100 H   0  0  0  0  0  0  0  0  0  0  0  0
  137.9722   71.0546  221.7085 H   0  0  0  0  0  0  0  0  0  0  0  0
  136.6015   71.8994  222.5469 H   0  0  0  0  0  0  0  0  0  0  0  0
  137.8640   73.9000  222.6470 H   0  0  0  0  0  0  0  0  0  0  0  0
  141.8017   73.7783  220.3190 H   0  0  0  0  0  0  0  0  0  0  0  0
  142.8038   76.0396  220.0721 H   0  0  0  0  0  0  0  0  0  0  0  0
  142.7167   78.4653  220.6833 H   0  0  0  0  0  0  0  0  0  0  0  0
  139.5986   79.8389  223.3414 H   0  0  0  0  0  0  0  0  0  0  0  0
  138.7171   77.5212  223.4769 H   0  0  0  0  0  0  0  0  0  0  0  0
  140.6749   72.0079  226.2759 H   0  0  0  0  0  0  0  0  0  0  0  0
  141.4992   70.8271  228.2898 H   0  0  0  0  0  0  0  0  0  0  0  0
  1  2  3  0
  2  3  1  0
  3  4  2  0
  4  5  1  0
  5  6  2  0
  6  7  1  0
  7  8  1  0
  8  9  2  0
  8 10  1  0
 10 11  1  0
 11 12  1  0
 12 13  2  0
 12 14  1  0
 14 15  2  0
 15 16  1  0
 16 17  2  0
 17 18  1  0
 18 19  2  0
 19 20  1  0
 19 21  1  0
 21 22  2  0
 22 23  1  0
 23 24  2  0
  6 25  1  0
 25 26  2  0
 26  3  1  0
 24 14  1  0
 23 17  1  0
  4 27  1  0
  5 28  1  0
  7 29  1  0
 10 30  1  0
 10 31  1  0
 11 32  1  0
 15 33  1  0
 16 34  1  0
 18 35  1  0
 21 36  1  0
 22 37  1  0
 25 38  1  0
 26 39  1  0
M  END
>  <smiles>  (50) 
N#Cc1ccc(NC(=O)CNC(=O)c2ccc3cc(Cl)ccc3n2)cc1

>  <score_type>  (50) 
oracle

>  <origin>  (50) 
autodockgpu

>  <m_score__min__energy>  (50) 
-8.3300000000000001

>  <m_primary>  (50) 
energy

>  <rmsd>  (50) 
8.277360247565367

>  <m_score__min__rmsd>  (50) 
8.277360247565367

>  <meeko>  (50) 
{"free_energy": -7.51, "intermolecular_energy": -9.0, "internal_energy": -1.83, "cluster_size": 28, "cluster_id": 2, "rank_in_cluster": 17}

>  <energy>  (50) 
-8.03

>  <cluster_rmsd>  (50) 
0.0

>  <cluster>  (50) 
3

$$$$
