
     RDKit          3D

 45 47  0  0  0  0  0  0  0  0999 V2000
  139.7910   73.3670  222.4220 O   0  0  0  0  0  0  0  0  0  0  0  0
  140.4060   72.2610  222.5640 C   0  0  0  0  0  0  0  0  0  0  0  0
  141.2930   71.8120  221.5330 N   0  0  0  0  0  0  0  0  0  0  0  0
  141.4790   72.6090  220.3520 C   0  0  0  0  0  0  0  0  0  0  0  0
  142.8200   72.4480  219.7540 C   0  0  0  0  0  0  0  0  0  0  0  0
  143.3910   71.3390  219.9120 O   0  0  0  0  0  0  0  0  0  0  0  0
  143.3870   73.5390  219.0450 N   0  0  0  0  0  0  0  0  0  0  0  0
  142.9140   73.8880  217.6940 C   0  0  0  0  0  0  0  0  0  0  0  0
  142.5240   75.3480  217.6320 C   0  0  0  0  0  0  0  0  0  0  0  0
  143.4130   76.2400  218.4170 C   0  0  0  0  0  0  0  0  0  0  0  0
  143.7970   75.7280  219.7840 C   0  0  0  0  0  0  0  0  0  0  0  0
  144.4450   74.3780  219.5680 C   0  0  1  0  0  0  0  0  0  0  0  0
  145.1270   73.8590  220.7840 C   0  0  0  0  0  0  0  0  0  0  0  0
  145.7480   72.6520  220.6230 O   0  0  0  0  0  0  0  0  0  0  0  0
  140.2210   71.4450  223.7620 C   0  0  0  0  0  0  0  0  0  0  0  0
  139.4860   70.2790  223.6610 C   0  0  0  0  0  0  0  0  0  0  0  0
  139.2790   69.4730  224.7490 C   0  0  0  0  0  0  0  0  0  0  0  0
  139.8010   69.8050  225.9840 C   0  0  0  0  0  0  0  0  0  0  0  0
  139.5910   68.9920  227.0740 C   0  0  0  0  0  0  0  0  0  0  0  0
  140.1320   69.3650  228.2870 C   0  0  0  0  0  0  0  0  0  0  0  0
  139.9140   68.5540  229.3410 F   0  0  0  0  0  0  0  0  0  0  0  0
  140.8500   70.5230  228.3410 C   0  0  0  0  0  0  0  0  0  0  0  0
  141.0720   71.3520  227.2610 C   0  0  0  0  0  0  0  0  0  0  0  0
  140.5320   70.9810  226.0470 C   0  0  0  0  0  0  0  0  0  0  0  0
  140.7220   71.7610  224.9510 N   0  0  0  0  0  0  0  0  0  0  0  0
  141.7730   70.8980  221.6980 H   0  0  0  0  0  0  0  0  0  0  0  0
  140.7251   72.3139  219.6073 H   0  0  0  0  0  0  0  0  0  0  0  0
  141.3737   73.6637  220.6461 H   0  0  0  0  0  0  0  0  0  0  0  0
  143.7179   73.6966  216.9680 H   0  0  0  0  0  0  0  0  0  0  0  0
  142.0337   73.2733  217.4546 H   0  0  0  0  0  0  0  0  0  0  0  0
  142.5511   75.6697  216.5804 H   0  0  0  0  0  0  0  0  0  0  0  0
  141.5192   75.4298  218.0720 H   0  0  0  0  0  0  0  0  0  0  0  0
  144.3367   76.3928  217.8396 H   0  0  0  0  0  0  0  0  0  0  0  0
  142.8419   77.1644  218.5880 H   0  0  0  0  0  0  0  0  0  0  0  0
  144.5067   76.4183  220.2633 H   0  0  0  0  0  0  0  0  0  0  0  0
  142.9185   75.6481  220.4412 H   0  0  0  0  0  0  0  0  0  0  0  0
  145.2804   74.4209  218.8537 H   0  0  0  0  0  0  0  0  0  0  0  0
  145.8844   74.5950  221.0917 H   0  0  0  0  0  0  0  0  0  0  0  0
  144.3405   73.7040  221.5372 H   0  0  0  0  0  0  0  0  0  0  0  0
  145.2460   71.8750  220.9130 H   0  0  0  0  0  0  0  0  0  0  0  0
  139.0591   69.9928  222.6884 H   0  0  0  0  0  0  0  0  0  0  0  0
  138.6902   68.5505  224.6379 H   0  0  0  0  0  0  0  0  0  0  0  0
  139.0051   68.0657  226.9804 H   0  0  0  0  0  0  0  0  0  0  0  0
  141.2807   70.8155  229.3100 H   0  0  0  0  0  0  0  0  0  0  0  0
  141.6591   72.2765  227.3642 H   0  0  0  0  0  0  0  0  0  0  0  0
  1  2  2  0
  2  3  1  0
  3  4  1  0
  4  5  1  0
  5  6  2  0
  5  7  1  0
  7  8  1  0
  8  9  1  0
  9 10  1  0
 10 11  1  0
 11 12  1  0
 12 13  1  0
 13 14  1  0
  2 15  1  0
 15 16  2  0
 16 17  1  0
 17 18  2  0
 18 19  1  0
 19 20  2  0
 20 21  1  0
 20 22  1  0
 22 23  2  0
 23 24  1  0
 24 25  2  0
 12  7  1  0
 25 15  1  0
 24 18  1  0
  3 26  1  0
  4 27  1  0
  4 28  1  0
  8 29  1  0
  8 30  1  0
  9 31  1  0
  9 32  1  0
 10 33  1  0
 10 34  1  0
 11 35  1  0
 11 36  1  0
 12 37  1  6
 13 38  1  0
 13 39  1  0
 14 40  1  0
 16 41  1  0
 17 42  1  0
 19 43  1  0
 22 44  1  0
 23 45  1  0
M  END
>  <smiles>  (1) 
O=C(NCC(=O)N1CCCC[C@H]1CO)c1ccc2cc(F)ccc2n1

>  <score_type>  (1) 
oracle

>  <origin>  (1) 
autodockgpu

>  <m_score__min__energy>  (1) 
-7.9100000000000001

>  <m_primary>  (1) 
energy

>  <rmsd>  (1) 
3.2027604896025808

>  <m_score__min__rmsd>  (1) 
3.2027604896025808

>  <meeko>  (1) 
{"free_energy": -6.56, "intermolecular_energy": -8.35, "internal_energy": -1.91, "cluster_size": 2, "cluster_id": 3, "rank_in_cluster": 1}

>  <energy>  (1) 
-7.91

>  <cluster_rmsd>  (1) 
0.0

>  <cluster>  (1) 
1

$$$$

     RDKit          3D

 45 47  0  0  0  0  0  0  0  0999 V2000
  141.1840   71.2270  221.2610 O   0  0  0  0  0  0  0  0  0  0  0  0
  140.6060   72.1760  221.8840 C   0  0  0  0  0  0  0  0  0  0  0  0
  139.6670   71.8680  222.9210 N   0  0  0  0  0  0  0  0  0  0  0  0
  139.3860   70.4970  223.2460 C   0  0  0  0  0  0  0  0  0  0  0  0
  138.9950   70.3100  224.6590 C   0  0  0  0  0  0  0  0  0  0  0  0
  137.7660   70.2220  224.9100 O   0  0  0  0  0  0  0  0  0  0  0  0
  140.0140   70.2430  225.6450 N   0  0  0  0  0  0  0  0  0  0  0  0
  141.0410   71.2950  225.7430 C   0  0  0  0  0  0  0  0  0  0  0  0
  141.1030   71.8430  227.1510 C   0  0  0  0  0  0  0  0  0  0  0  0
  140.9200   70.8140  228.2040 C   0  0  0  0  0  0  0  0  0  0  0  0
  139.8180   69.8140  227.9450 C   0  0  0  0  0  0  0  0  0  0  0  0
  140.1310   69.1700  226.6120 C   0  0  1  0  0  0  0  0  0  0  0  0
  139.2950   67.9710  226.3350 C   0  0  0  0  0  0  0  0  0  0  0  0
  139.5590   67.3490  225.1470 O   0  0  0  0  0  0  0  0  0  0  0  0
  140.8870   73.5720  221.5570 C   0  0  0  0  0  0  0  0  0  0  0  0
  141.8540   73.8480  220.6090 C   0  0  0  0  0  0  0  0  0  0  0  0
  142.1610   75.1370  220.2620 C   0  0  0  0  0  0  0  0  0  0  0  0
  141.5100   76.2030  220.8530 C   0  0  0  0  0  0  0  0  0  0  0  0
  141.8220   77.4960  220.5000 C   0  0  0  0  0  0  0  0  0  0  0  0
  141.1450   78.5280  221.1180 C   0  0  0  0  0  0  0  0  0  0  0  0
  141.4670   79.7860  220.7580 F   0  0  0  0  0  0  0  0  0  0  0  0
  140.2000   78.2100  222.0480 C   0  0  0  0  0  0  0  0  0  0  0  0
  139.8730   76.9200  222.4150 C   0  0  0  0  0  0  0  0  0  0  0  0
  140.5480   75.8880  221.7990 C   0  0  0  0  0  0  0  0  0  0  0  0
  140.2640   74.6000  222.1240 N   0  0  0  0  0  0  0  0  0  0  0  0
  139.2210   72.6830  223.4010 H   0  0  0  0  0  0  0  0  0  0  0  0
  138.5642   70.1455  222.6048 H   0  0  0  0  0  0  0  0  0  0  0  0
  140.3090   69.9222  223.0798 H   0  0  0  0  0  0  0  0  0  0  0  0
  142.0203   70.8713  225.4757 H   0  0  0  0  0  0  0  0  0  0  0  0
  140.7812   72.1120  225.0537 H   0  0  0  0  0  0  0  0  0  0  0  0
  142.0854   72.3161  227.2958 H   0  0  0  0  0  0  0  0  0  0  0  0
  140.2721   72.5566  227.2533 H   0  0  0  0  0  0  0  0  0  0  0  0
  141.8648   70.2598  228.3054 H   0  0  0  0  0  0  0  0  0  0  0  0
  140.6286   71.3588  229.1141 H   0  0  0  0  0  0  0  0  0  0  0  0
  139.7994   69.0538  228.7399 H   0  0  0  0  0  0  0  0  0  0  0  0
  138.8320   70.3015  227.9309 H   0  0  0  0  0  0  0  0  0  0  0  0
  141.1433   68.7409  226.5792 H   0  0  0  0  0  0  0  0  0  0  0  0
  139.4592   67.2451  227.1450 H   0  0  0  0  0  0  0  0  0  0  0  0
  138.2557   68.3262  226.2737 H   0  0  0  0  0  0  0  0  0  0  0  0
  140.3060   67.7020  224.6400 H   0  0  0  0  0  0  0  0  0  0  0  0
  142.3871   73.0170  220.1240 H   0  0  0  0  0  0  0  0  0  0  0  0
  142.9351   75.3259  219.5037 H   0  0  0  0  0  0  0  0  0  0  0  0
  142.5930   77.7023  219.7430 H   0  0  0  0  0  0  0  0  0  0  0  0
  139.6629   79.0355  222.5380 H   0  0  0  0  0  0  0  0  0  0  0  0
  139.1005   76.7225  223.1728 H   0  0  0  0  0  0  0  0  0  0  0  0
  1  2  2  0
  2  3  1  0
  3  4  1  0
  4  5  1  0
  5  6  2  0
  5  7  1  0
  7  8  1  0
  8  9  1  0
  9 10  1  0
 10 11  1  0
 11 12  1  0
 12 13  1  0
 13 14  1  0
  2 15  1  0
 15 16  2  0
 16 17  1  0
 17 18  2  0
 18 19  1  0
 19 20  2  0
 20 21  1  0
 20 22  1  0
 22 23  2  0
 23 24  1  0
 24 25  2  0
 12  7  1  0
 25 15  1  0
 24 18  1  0
  3 26  1  0
  4 27  1  0
  4 28  1  0
  8 29  1  0
  8 30  1  0
  9 31  1  0
  9 32  1  0
 10 33  1  0
 10 34  1  0
 11 35  1  0
 11 36  1  0
 12 37  1  1
 13 38  1  0
 13 39  1  0
 14 40  1  0
 16 41  1  0
 17 42  1  0
 19 43  1  0
 22 44  1  0
 23 45  1  0
M  END
>  <smiles>  (2) 
O=C(NCC(=O)N1CCCC[C@H]1CO)c1ccc2cc(F)ccc2n1

>  <score_type>  (2) 
oracle

>  <origin>  (2) 
autodockgpu

>  <m_score__min__energy>  (2) 
-7.9100000000000001

>  <m_primary>  (2) 
energy

>  <rmsd>  (2) 
8.688213106623419

>  <m_score__min__rmsd>  (2) 
8.688213106623419

>  <meeko>  (2) 
{"free_energy": -7.55, "intermolecular_energy": -9.34, "internal_energy": -1.38, "cluster_size": 33, "cluster_id": 1, "rank_in_cluster": 4}

>  <energy>  (2) 
-7.88

>  <cluster_rmsd>  (2) 
0.25

>  <cluster>  (2) 
1

$$$$

     RDKit          3D

 45 47  0  0  0  0  0  0  0  0999 V2000
  141.1070   72.2230  221.4350 O   0  0  0  0  0  0  0  0  0  0  0  0
  140.2610   72.4280  222.3660 C   0  0  0  0  0  0  0  0  0  0  0  0
  139.3570   73.5350  222.2640 N   0  0  0  0  0  0  0  0  0  0  0  0
  139.4140   74.4010  221.1190 C   0  0  0  0  0  0  0  0  0  0  0  0
  140.5610   75.3320  221.1590 C   0  0  0  0  0  0  0  0  0  0  0  0
  141.0690   75.5720  222.2840 O   0  0  0  0  0  0  0  0  0  0  0  0
  141.0200   75.9010  219.9430 N   0  0  0  0  0  0  0  0  0  0  0  0
  140.2810   77.0000  219.2970 C   0  0  0  0  0  0  0  0  0  0  0  0
  141.2020   78.1690  219.0290 C   0  0  0  0  0  0  0  0  0  0  0  0
  142.5670   77.7730  218.6010 C   0  0  0  0  0  0  0  0  0  0  0  0
  143.1780   76.6280  219.3740 C   0  0  0  0  0  0  0  0  0  0  0  0
  142.2160   75.4670  219.2500 C   0  0  1  0  0  0  0  0  0  0  0  0
  142.7940   74.1810  219.7240 C   0  0  0  0  0  0  0  0  0  0  0  0
  143.3500   74.2260  220.9720 O   0  0  0  0  0  0  0  0  0  0  0  0
  140.1990   71.5520  223.5330 C   0  0  0  0  0  0  0  0  0  0  0  0
  139.6070   70.3100  223.3980 C   0  0  0  0  0  0  0  0  0  0  0  0
  139.5190   69.4450  224.4570 C   0  0  0  0  0  0  0  0  0  0  0  0
  140.0210   69.7920  225.6960 C   0  0  0  0  0  0  0  0  0  0  0  0
  139.9310   68.9200  226.7570 C   0  0  0  0  0  0  0  0  0  0  0  0
  140.4470   69.3110  227.9760 C   0  0  0  0  0  0  0  0  0  0  0  0
  140.3470   68.4420  229.0000 F   0  0  0  0  0  0  0  0  0  0  0  0
  141.0200   70.5450  228.0640 C   0  0  0  0  0  0  0  0  0  0  0  0
  141.1210   71.4330  227.0130 C   0  0  0  0  0  0  0  0  0  0  0  0
  140.6060   71.0450  225.7940 C   0  0  0  0  0  0  0  0  0  0  0  0
  140.6800   71.8820  224.7270 N   0  0  0  0  0  0  0  0  0  0  0  0
  138.6840   73.6590  223.0540 H   0  0  0  0  0  0  0  0  0  0  0  0
  139.4963   73.7813  220.2139 H   0  0  0  0  0  0  0  0  0  0  0  0
  138.4963   75.0075  221.1177 H   0  0  0  0  0  0  0  0  0  0  0  0
  139.8611   76.6438  218.3448 H   0  0  0  0  0  0  0  0  0  0  0  0
  139.4730   77.3288  219.9671 H   0  0  0  0  0  0  0  0  0  0  0  0
  140.7558   78.7868  218.2358 H   0  0  0  0  0  0  0  0  0  0  0  0
  141.3104   78.7144  219.9781 H   0  0  0  0  0  0  0  0  0  0  0  0
  142.5199   77.4812  217.5415 H   0  0  0  0  0  0  0  0  0  0  0  0
  143.2103   78.6452  218.7891 H   0  0  0  0  0  0  0  0  0  0  0  0
  144.1554   76.3594  218.9468 H   0  0  0  0  0  0  0  0  0  0  0  0
  143.3408   76.9001  220.4273 H   0  0  0  0  0  0  0  0  0  0  0  0
  141.9791   75.2259  218.2032 H   0  0  0  0  0  0  0  0  0  0  0  0
  141.9916   73.4287  219.7342 H   0  0  0  0  0  0  0  0  0  0  0  0
  143.6116   73.9355  219.0303 H   0  0  0  0  0  0  0  0  0  0  0  0
  142.9870   74.8930  221.5740 H   0  0  0  0  0  0  0  0  0  0  0  0
  139.1987   70.0104  222.4215 H   0  0  0  0  0  0  0  0  0  0  0  0
  139.0431   68.4630  224.3188 H   0  0  0  0  0  0  0  0  0  0  0  0
  139.4586   67.9340  226.6363 H   0  0  0  0  0  0  0  0  0  0  0  0
  141.4289   70.8530  229.0376 H   0  0  0  0  0  0  0  0  0  0  0  0
  141.5960   72.4166  227.1429 H   0  0  0  0  0  0  0  0  0  0  0  0
  1  2  2  0
  2  3  1  0
  3  4  1  0
  4  5  1  0
  5  6  2  0
  5  7  1  0
  7  8  1  0
  8  9  1  0
  9 10  1  0
 10 11  1  0
 11 12  1  0
 12 13  1  0
 13 14  1  0
  2 15  1  0
 15 16  2  0
 16 17  1  0
 17 18  2  0
 18 19  1  0
 19 20  2  0
 20 21  1  0
 20 22  1  0
 22 23  2  0
 23 24  1  0
 24 25  2  0
 12  7  1  0
 25 15  1  0
 24 18  1  0
  3 26  1  0
  4 27  1  0
  4 28  1  0
  8 29  1  0
  8 30  1  0
  9 31  1  0
  9 32  1  0
 10 33  1  0
 10 34  1  0
 11 35  1  0
 11 36  1  0
 12 37  1  6
 13 38  1  0
 13 39  1  0
 14 40  1  0
 16 41  1  0
 17 42  1  0
 19 43  1  0
 22 44  1  0
 23 45  1  0
M  END
>  <smiles>  (3) 
O=C(NCC(=O)N1CCCC[C@H]1CO)c1ccc2cc(F)ccc2n1

>  <score_type>  (3) 
oracle

>  <origin>  (3) 
autodockgpu

>  <m_score__min__energy>  (3) 
-7.9100000000000001

>  <m_primary>  (3) 
energy

>  <rmsd>  (3) 
2.0372115188893027

>  <m_score__min__rmsd>  (3) 
2.0372115188893027

>  <meeko>  (3) 
{"free_energy": -6.73, "intermolecular_energy": -8.52, "internal_energy": -1.9, "cluster_size": 15, "cluster_id": 2, "rank_in_cluster": 9}

>  <energy>  (3) 
-7.87

>  <cluster_rmsd>  (3) 
0.16

>  <cluster>  (3) 
1

$$$$

     RDKit          3D

 45 47  0  0  0  0  0  0  0  0999 V2000
  141.3890   71.3940  221.2460 O   0  0  0  0  0  0  0  0  0  0  0  0
  140.7900   72.3200  221.8840 C   0  0  0  0  0  0  0  0  0  0  0  0
  139.8830   71.9760  222.9390 N   0  0  0  0  0  0  0  0  0  0  0  0
  139.6580   70.5940  223.2640 C   0  0  0  0  0  0  0  0  0  0  0  0
  139.2730   70.3920  224.6770 C   0  0  0  0  0  0  0  0  0  0  0  0
  138.0480   70.2580  224.9260 O   0  0  0  0  0  0  0  0  0  0  0  0
  140.2920   70.3630  225.6640 N   0  0  0  0  0  0  0  0  0  0  0  0
  141.0300   71.5870  226.0240 C   0  0  0  0  0  0  0  0  0  0  0  0
  140.9770   71.8150  227.5180 C   0  0  0  0  0  0  0  0  0  0  0  0
  141.0690   70.5690  228.3190 C   0  0  0  0  0  0  0  0  0  0  0  0
  140.2440   69.4110  227.8090 C   0  0  0  0  0  0  0  0  0  0  0  0
  140.6850   69.1680  226.3830 C   0  0  1  0  0  0  0  0  0  0  0  0
  140.1670   67.8910  225.8230 C   0  0  0  0  0  0  0  0  0  0  0  0
  138.8440   67.6510  226.0690 O   0  0  0  0  0  0  0  0  0  0  0  0
  141.0140   73.7260  221.5570 C   0  0  0  0  0  0  0  0  0  0  0  0
  141.9580   74.0400  220.5980 C   0  0  0  0  0  0  0  0  0  0  0  0
  142.2120   75.3410  220.2500 C   0  0  0  0  0  0  0  0  0  0  0  0
  141.5280   76.3800  220.8510 C   0  0  0  0  0  0  0  0  0  0  0  0
  141.7860   77.6850  220.4970 C   0  0  0  0  0  0  0  0  0  0  0  0
  141.0780   78.6890  221.1240 C   0  0  0  0  0  0  0  0  0  0  0  0
  141.3470   79.9590  220.7630 F   0  0  0  0  0  0  0  0  0  0  0  0
  140.1560   78.3330  222.0650 C   0  0  0  0  0  0  0  0  0  0  0  0
  139.8830   77.0320  222.4330 C   0  0  0  0  0  0  0  0  0  0  0  0
  140.5900   76.0270  221.8080 C   0  0  0  0  0  0  0  0  0  0  0  0
  140.3580   74.7280  222.1330 N   0  0  0  0  0  0  0  0  0  0  0  0
  139.4180   72.7720  223.4300 H   0  0  0  0  0  0  0  0  0  0  0  0
  138.8522   70.2088  222.6219 H   0  0  0  0  0  0  0  0  0  0  0  0
  140.6039   70.0572  223.0990 H   0  0  0  0  0  0  0  0  0  0  0  0
  142.0792   71.4830  225.7103 H   0  0  0  0  0  0  0  0  0  0  0  0
  140.5665   72.4453  225.5156 H   0  0  0  0  0  0  0  0  0  0  0  0
  141.8150   72.4700  227.7986 H   0  0  0  0  0  0  0  0  0  0  0  0
  139.9978   72.2652  227.7383 H   0  0  0  0  0  0  0  0  0  0  0  0
  142.1227   70.2536  228.3369 H   0  0  0  0  0  0  0  0  0  0  0  0
  140.6656   70.8156  229.3122 H   0  0  0  0  0  0  0  0  0  0  0  0
  140.4259   68.5155  228.4213 H   0  0  0  0  0  0  0  0  0  0  0  0
  139.1682   69.6343  227.8612 H   0  0  0  0  0  0  0  0  0  0  0  0
  141.7713   69.0166  226.2992 H   0  0  0  0  0  0  0  0  0  0  0  0
  140.3141   67.9109  224.7331 H   0  0  0  0  0  0  0  0  0  0  0  0
  140.7254   67.0854  226.3222 H   0  0  0  0  0  0  0  0  0  0  0  0
  138.2230   68.3190  225.7390 H   0  0  0  0  0  0  0  0  0  0  0  0
  142.5160   73.2306  220.1047 H   0  0  0  0  0  0  0  0  0  0  0  0
  142.9694   75.5605  219.4831 H   0  0  0  0  0  0  0  0  0  0  0  0
  142.5396   77.9217  219.7315 H   0  0  0  0  0  0  0  0  0  0  0  0
  139.5935   79.1365  222.5629 H   0  0  0  0  0  0  0  0  0  0  0  0
  139.1270   76.8042  223.1989 H   0  0  0  0  0  0  0  0  0  0  0  0
  1  2  2  0
  2  3  1  0
  3  4  1  0
  4  5  1  0
  5  6  2  0
  5  7  1  0
  7  8  1  0
  8  9  1  0
  9 10  1  0
 10 11  1  0
 11 12  1  0
 12 13  1  0
 13 14  1  0
  2 15  1  0
 15 16  2  0
 16 17  1  0
 17 18  2  0
 18 19  1  0
 19 20  2  0
 20 21  1  0
 20 22  1  0
 22 23  2  0
 23 24  1  0
 24 25  2  0
 12  7  1  0
 25 15  1  0
 24 18  1  0
  3 26  1  0
  4 27  1  0
  4 28  1  0
  8 29  1  0
  8 30  1  0
  9 31  1  0
  9 32  1  0
 10 33  1  0
 10 34  1  0
 11 35  1  0
 11 36  1  0
 12 37  1  1
 13 38  1  0
 13 39  1  0
 14 40  1  0
 16 41  1  0
 17 42  1  0
 19 43  1  0
 22 44  1  0
 23 45  1  0
M  END
>  <smiles>  (4) 
O=C(NCC(=O)N1CCCC[C@H]1CO)c1ccc2cc(F)ccc2n1

>  <score_type>  (4) 
oracle

>  <origin>  (4) 
autodockgpu

>  <m_score__min__energy>  (4) 
-7.9100000000000001

>  <m_primary>  (4) 
energy

>  <rmsd>  (4) 
8.706486859293777

>  <m_score__min__rmsd>  (4) 
8.706486859293777

>  <meeko>  (4) 
{"free_energy": -7.32, "intermolecular_energy": -9.11, "internal_energy": -1.98, "cluster_size": 33, "cluster_id": 1, "rank_in_cluster": 24}

>  <energy>  (4) 
-7.55

>  <cluster_rmsd>  (4) 
0.72

>  <cluster>  (4) 
1

$$$$

     RDKit          3D

 45 47  0  0  0  0  0  0  0  0999 V2000
  138.5380   72.1820  222.4870 O   0  0  0  0  0  0  0  0  0  0  0  0
  139.2190   71.1050  222.4890 C   0  0  0  0  0  0  0  0  0  0  0  0
  139.7400   70.6000  221.2530 N   0  0  0  0  0  0  0  0  0  0  0  0
  139.4890   71.3090  220.0290 C   0  0  0  0  0  0  0  0  0  0  0  0
  140.7100   71.9050  219.4490 C   0  0  0  0  0  0  0  0  0  0  0  0
  140.7710   71.9900  218.1960 O   0  0  0  0  0  0  0  0  0  0  0  0
  141.7370   72.3440  220.3250 N   0  0  0  0  0  0  0  0  0  0  0  0
  142.9490   71.5330  220.5330 C   0  0  0  0  0  0  0  0  0  0  0  0
  144.1890   72.3620  220.2800 C   0  0  0  0  0  0  0  0  0  0  0  0
  144.0810   73.7630  220.7580 C   0  0  0  0  0  0  0  0  0  0  0  0
  142.7690   74.4480  220.4570 C   0  0  0  0  0  0  0  0  0  0  0  0
  141.6870   73.5860  221.0690 C   0  0  1  0  0  0  0  0  0  0  0  0
  140.3580   74.2550  221.1010 C   0  0  0  0  0  0  0  0  0  0  0  0
  139.9240   74.6120  222.3470 O   0  0  0  0  0  0  0  0  0  0  0  0
  139.4780   70.3790  223.7300 C   0  0  0  0  0  0  0  0  0  0  0  0
  139.0790   69.0590  223.8190 C   0  0  0  0  0  0  0  0  0  0  0  0
  139.2940   68.3270  224.9570 C   0  0  0  0  0  0  0  0  0  0  0  0
  139.9180   68.8910  226.0530 C   0  0  0  0  0  0  0  0  0  0  0  0
  140.1320   68.1520  227.1940 C   0  0  0  0  0  0  0  0  0  0  0  0
  140.7580   68.7590  228.2630 C   0  0  0  0  0  0  0  0  0  0  0  0
  140.9580   68.0170  229.3700 F   0  0  0  0  0  0  0  0  0  0  0  0
  141.1330   70.0640  228.1320 C   0  0  0  0  0  0  0  0  0  0  0  0
  140.9280   70.8220  226.9970 C   0  0  0  0  0  0  0  0  0  0  0  0
  140.3020   70.2170  225.9270 C   0  0  0  0  0  0  0  0  0  0  0  0
  140.0760   70.9180  224.7860 N   0  0  0  0  0  0  0  0  0  0  0  0
  140.2910   69.7140  221.3090 H   0  0  0  0  0  0  0  0  0  0  0  0
  139.0599   70.6073  219.2986 H   0  0  0  0  0  0  0  0  0  0  0  0
  138.7976   72.1326  220.2605 H   0  0  0  0  0  0  0  0  0  0  0  0
  142.9648   71.1644  221.5693 H   0  0  0  0  0  0  0  0  0  0  0  0
  142.9365   70.6866  219.8305 H   0  0  0  0  0  0  0  0  0  0  0  0
  145.0362   71.8845  220.7941 H   0  0  0  0  0  0  0  0  0  0  0  0
  144.3283   72.4054  219.1897 H   0  0  0  0  0  0  0  0  0  0  0  0
  144.2213   73.7617  221.8490 H   0  0  0  0  0  0  0  0  0  0  0  0
  144.8518   74.3299  220.2154 H   0  0  0  0  0  0  0  0  0  0  0  0
  142.7531   75.4529  220.9040 H   0  0  0  0  0  0  0  0  0  0  0  0
  142.6199   74.5657  219.3735 H   0  0  0  0  0  0  0  0  0  0  0  0
  141.8578   73.3928  222.1383 H   0  0  0  0  0  0  0  0  0  0  0  0
  140.4186   75.1652  220.4863 H   0  0  0  0  0  0  0  0  0  0  0  0
  139.6332   73.5204  220.7202 H   0  0  0  0  0  0  0  0  0  0  0  0
  139.2270   74.0570  222.7280 H   0  0  0  0  0  0  0  0  0  0  0  0
  138.5794   68.5871  222.9601 H   0  0  0  0  0  0  0  0  0  0  0  0
  138.9659   67.2779  224.9985 H   0  0  0  0  0  0  0  0  0  0  0  0
  139.8113   67.1014  227.2523 H   0  0  0  0  0  0  0  0  0  0  0  0
  141.6315   70.5437  228.9872 H   0  0  0  0  0  0  0  0  0  0  0  0
  141.2525   71.8719  226.9474 H   0  0  0  0  0  0  0  0  0  0  0  0
  1  2  2  0
  2  3  1  0
  3  4  1  0
  4  5  1  0
  5  6  2  0
  5  7  1  0
  7  8  1  0
  8  9  1  0
  9 10  1  0
 10 11  1  0
 11 12  1  0
 12 13  1  0
 13 14  1  0
  2 15  1  0
 15 16  2  0
 16 17  1  0
 17 18  2  0
 18 19  1  0
 19 20  2  0
 20 21  1  0
 20 22  1  0
 22 23  2  0
 23 24  1  0
 24 25  2  0
 12  7  1  0
 25 15  1  0
 24 18  1  0
  3 26  1  0
  4 27  1  0
  4 28  1  0
  8 29  1  0
  8 30  1  0
  9 31  1  0
  9 32  1  0
 10 33  1  0
 10 34  1  0
 11 35  1  0
 11 36  1  0
 12 37  1  1
 13 38  1  0
 13 39  1  0
 14 40  1  0
 16 41  1  0
 17 42  1  0
 19 43  1  0
 22 44  1  0
 23 45  1  0
M  END
>  <smiles>  (5) 
O=C(NCC(=O)N1CCCC[C@H]1CO)c1ccc2cc(F)ccc2n1

>  <score_type>  (5) 
oracle

>  <origin>  (5) 
autodockgpu

>  <m_score__min__energy>  (5) 
-7.9100000000000001

>  <m_primary>  (5) 
energy

>  <rmsd>  (5) 
3.3141053203561426

>  <m_score__min__rmsd>  (5) 
3.3141053203561426

>  <meeko>  (5) 
{"free_energy": -6.23, "intermolecular_energy": -8.02, "internal_energy": -1.94, "cluster_size": 2, "cluster_id": 3, "rank_in_cluster": 2}

>  <energy>  (5) 
-7.52

>  <cluster_rmsd>  (5) 
0.59

>  <cluster>  (5) 
1

$$$$

     RDKit          3D

 45 47  0  0  0  0  0  0  0  0999 V2000
  140.1130   70.4080  222.0890 O   0  0  0  0  0  0  0  0  0  0  0  0
  139.7560   71.5600  222.4990 C   0  0  0  0  0  0  0  0  0  0  0  0
  138.7970   71.6640  223.5590 N   0  0  0  0  0  0  0  0  0  0  0  0
  138.2490   70.4720  224.1460 C   0  0  0  0  0  0  0  0  0  0  0  0
  139.2850   69.4840  224.5140 C   0  0  0  0  0  0  0  0  0  0  0  0
  139.2670   68.3800  223.9130 O   0  0  0  0  0  0  0  0  0  0  0  0
  140.2310   69.8280  225.5140 N   0  0  0  0  0  0  0  0  0  0  0  0
  140.8920   71.1450  225.5060 C   0  0  0  0  0  0  0  0  0  0  0  0
  140.7240   71.8270  226.8450 C   0  0  0  0  0  0  0  0  0  0  0  0
  140.8090   70.9040  228.0040 C   0  0  0  0  0  0  0  0  0  0  0  0
  140.0690   69.5980  227.8440 C   0  0  0  0  0  0  0  0  0  0  0  0
  140.6190   68.9450  226.5950 C   0  0  1  0  0  0  0  0  0  0  0  0
  140.1930   67.5280  226.4430 C   0  0  0  0  0  0  0  0  0  0  0  0
  138.8400   67.3310  226.4480 O   0  0  0  0  0  0  0  0  0  0  0  0
  140.3090   72.7750  221.9060 C   0  0  0  0  0  0  0  0  0  0  0  0
  141.1820   72.6540  220.8430 C   0  0  0  0  0  0  0  0  0  0  0  0
  141.7330   73.7570  220.2450 C   0  0  0  0  0  0  0  0  0  0  0  0
  141.4290   75.0280  220.6930 C   0  0  0  0  0  0  0  0  0  0  0  0
  141.9850   76.1340  220.0890 C   0  0  0  0  0  0  0  0  0  0  0  0
  141.6510   77.3830  220.5710 C   0  0  0  0  0  0  0  0  0  0  0  0
  142.2070   78.4510  219.9660 F   0  0  0  0  0  0  0  0  0  0  0  0
  140.7860   77.4560  221.6230 C   0  0  0  0  0  0  0  0  0  0  0  0
  140.2190   76.3600  222.2410 C   0  0  0  0  0  0  0  0  0  0  0  0
  140.5510   75.1110  221.7620 C   0  0  0  0  0  0  0  0  0  0  0  0
  140.0200   73.9990  222.3340 N   0  0  0  0  0  0  0  0  0  0  0  0
  138.5380   72.6310  223.8580 H   0  0  0  0  0  0  0  0  0  0  0  0
  137.6922   70.7511  225.0527 H   0  0  0  0  0  0  0  0  0  0  0  0
  137.5975   70.0029  223.3940 H   0  0  0  0  0  0  0  0  0  0  0  0
  141.9641   71.0112  225.2993 H   0  0  0  0  0  0  0  0  0  0  0  0
  140.4321   71.7704  224.7267 H   0  0  0  0  0  0  0  0  0  0  0  0
  141.5129   72.5866  226.9484 H   0  0  0  0  0  0  0  0  0  0  0  0
  139.7142   72.2631  226.8571 H   0  0  0  0  0  0  0  0  0  0  0  0
  141.8705   70.6740  228.1782 H   0  0  0  0  0  0  0  0  0  0  0  0
  140.3275   71.4256  228.8443 H   0  0  0  0  0  0  0  0  0  0  0  0
  140.2422   68.9531  228.7181 H   0  0  0  0  0  0  0  0  0  0  0  0
  138.9843   69.7618  227.7634 H   0  0  0  0  0  0  0  0  0  0  0  0
  141.7136   68.8395  226.6222 H   0  0  0  0  0  0  0  0  0  0  0  0
  140.5897   67.1522  225.4883 H   0  0  0  0  0  0  0  0  0  0  0  0
  140.5866   66.9913  227.3188 H   0  0  0  0  0  0  0  0  0  0  0  0
  138.3460   67.7650  225.7360 H   0  0  0  0  0  0  0  0  0  0  0  0
  141.4403   71.6524  220.4688 H   0  0  0  0  0  0  0  0  0  0  0  0
  142.4247   73.6290  219.3993 H   0  0  0  0  0  0  0  0  0  0  0  0
  142.6788   76.0242  219.2425 H   0  0  0  0  0  0  0  0  0  0  0  0
  140.5231   78.4539  222.0038 H   0  0  0  0  0  0  0  0  0  0  0  0
  139.5259   76.4792  223.0868 H   0  0  0  0  0  0  0  0  0  0  0  0
  1  2  2  0
  2  3  1  0
  3  4  1  0
  4  5  1  0
  5  6  2  0
  5  7  1  0
  7  8  1  0
  8  9  1  0
  9 10  1  0
 10 11  1  0
 11 12  1  0
 12 13  1  0
 13 14  1  0
  2 15  1  0
 15 16  2  0
 16 17  1  0
 17 18  2  0
 18 19  1  0
 19 20  2  0
 20 21  1  0
 20 22  1  0
 22 23  2  0
 23 24  1  0
 24 25  2  0
 12  7  1  0
 25 15  1  0
 24 18  1  0
  3 26  1  0
  4 27  1  0
  4 28  1  0
  8 29  1  0
  8 30  1  0
  9 31  1  0
  9 32  1  0
 10 33  1  0
 10 34  1  0
 11 35  1  0
 11 36  1  0
 12 37  1  1
 13 38  1  0
 13 39  1  0
 14 40  1  0
 16 41  1  0
 17 42  1  0
 19 43  1  0
 22 44  1  0
 23 45  1  0
M  END
>  <smiles>  (6) 
O=C(NCC(=O)N1CCCC[C@H]1CO)c1ccc2cc(F)ccc2n1

>  <score_type>  (6) 
oracle

>  <origin>  (6) 
autodockgpu

>  <m_score__min__energy>  (6) 
-7.9100000000000001

>  <m_primary>  (6) 
energy

>  <rmsd>  (6) 
8.415113891920775

>  <m_score__min__rmsd>  (6) 
8.415113891920775

>  <meeko>  (6) 
{"free_energy": -7.17, "intermolecular_energy": -8.96, "internal_energy": -1.86, "cluster_size": 33, "cluster_id": 1, "rank_in_cluster": 28}

>  <energy>  (6) 
-7.52

>  <cluster_rmsd>  (6) 
0.84

>  <cluster>  (6) 
1

$$$$

     RDKit          3D

 45 47  0  0  0  0  0  0  0  0999 V2000
  141.7160   72.0930  221.2060 O   0  0  0  0  0  0  0  0  0  0  0  0
  141.0220   72.9670  221.8200 C   0  0  0  0  0  0  0  0  0  0  0  0
  140.0870   72.5470  222.8220 N   0  0  0  0  0  0  0  0  0  0  0  0
  139.9430   71.1490  223.1220 C   0  0  0  0  0  0  0  0  0  0  0  0
  139.3650   70.9050  224.4600 C   0  0  0  0  0  0  0  0  0  0  0  0
  138.1220   71.0480  224.5860 O   0  0  0  0  0  0  0  0  0  0  0  0
  140.2320   70.5310  225.5200 N   0  0  0  0  0  0  0  0  0  0  0  0
  141.1550   71.5090  226.1210 C   0  0  0  0  0  0  0  0  0  0  0  0
  140.9730   71.5540  227.6220 C   0  0  0  0  0  0  0  0  0  0  0  0
  140.7140   70.2270  228.2350 C   0  0  0  0  0  0  0  0  0  0  0  0
  139.7370   69.3510  227.4880 C   0  0  0  0  0  0  0  0  0  0  0  0
  140.2850   69.1980  226.0860 C   0  0  1  0  0  0  0  0  0  0  0  0
  139.5870   68.1460  225.3000 C   0  0  0  0  0  0  0  0  0  0  0  0
  138.2230   68.1740  225.3850 O   0  0  0  0  0  0  0  0  0  0  0  0
  141.1640   74.3890  221.5190 C   0  0  0  0  0  0  0  0  0  0  0  0
  141.9500   74.7630  220.4460 C   0  0  0  0  0  0  0  0  0  0  0  0
  142.1210   76.0810  220.1150 C   0  0  0  0  0  0  0  0  0  0  0  0
  141.5090   77.0790  220.8480 C   0  0  0  0  0  0  0  0  0  0  0  0
  141.6830   78.4020  220.5110 C   0  0  0  0  0  0  0  0  0  0  0  0
  141.0510   79.3630  221.2730 C   0  0  0  0  0  0  0  0  0  0  0  0
  141.2360   80.6520  220.9260 F   0  0  0  0  0  0  0  0  0  0  0  0
  140.2850   78.9500  222.3230 C   0  0  0  0  0  0  0  0  0  0  0  0
  140.0980   77.6290  222.6770 C   0  0  0  0  0  0  0  0  0  0  0  0
  140.7290   76.6670  221.9170 C   0  0  0  0  0  0  0  0  0  0  0  0
  140.5770   75.3520  222.2220 N   0  0  0  0  0  0  0  0  0  0  0  0
  139.5430   73.3020  223.2950 H   0  0  0  0  0  0  0  0  0  0  0  0
  139.2850   70.6939  222.3670 H   0  0  0  0  0  0  0  0  0  0  0  0
  140.9486   70.7034  223.1103 H   0  0  0  0  0  0  0  0  0  0  0  0
  142.1907   71.2190  225.8902 H   0  0  0  0  0  0  0  0  0  0  0  0
  140.9392   72.5045  225.7058 H   0  0  0  0  0  0  0  0  0  0  0  0
  141.8875   71.9701  228.0697 H   0  0  0  0  0  0  0  0  0  0  0  0
  140.0870   72.1756  227.8184 H   0  0  0  0  0  0  0  0  0  0  0  0
  141.6717   69.6897  228.2996 H   0  0  0  0  0  0  0  0  0  0  0  0
  140.2550   70.4285  229.2141 H   0  0  0  0  0  0  0  0  0  0  0  0
  139.6584   68.3678  227.9750 H   0  0  0  0  0  0  0  0  0  0  0  0
  138.7311   69.7959  227.4764 H   0  0  0  0  0  0  0  0  0  0  0  0
  141.3195   68.8243  226.0770 H   0  0  0  0  0  0  0  0  0  0  0  0
  139.8661   68.2675  224.2430 H   0  0  0  0  0  0  0  0  0  0  0  0
  139.9029   67.1822  225.7257 H   0  0  0  0  0  0  0  0  0  0  0  0
  137.7940   68.9730  225.0430 H   0  0  0  0  0  0  0  0  0  0  0  0
  142.4481   73.9872  219.8459 H   0  0  0  0  0  0  0  0  0  0  0  0
  142.7532   76.3479  219.2553 H   0  0  0  0  0  0  0  0  0  0  0  0
  142.3113   78.6866  219.6541 H   0  0  0  0  0  0  0  0  0  0  0  0
  139.7833   79.7200  222.9274 H   0  0  0  0  0  0  0  0  0  0  0  0
  139.4677   77.3534  223.5353 H   0  0  0  0  0  0  0  0  0  0  0  0
  1  2  2  0
  2  3  1  0
  3  4  1  0
  4  5  1  0
  5  6  2  0
  5  7  1  0
  7  8  1  0
  8  9  1  0
  9 10  1  0
 10 11  1  0
 11 12  1  0
 12 13  1  0
 13 14  1  0
  2 15  1  0
 15 16  2  0
 16 17  1  0
 17 18  2  0
 18 19  1  0
 19 20  2  0
 20 21  1  0
 20 22  1  0
 22 23  2  0
 23 24  1  0
 24 25  2  0
 12  7  1  0
 25 15  1  0
 24 18  1  0
  3 26  1  0
  4 27  1  0
  4 28  1  0
  8 29  1  0
  8 30  1  0
  9 31  1  0
  9 32  1  0
 10 33  1  0
 10 34  1  0
 11 35  1  0
 11 36  1  0
 12 37  1  1
 13 38  1  0
 13 39  1  0
 14 40  1  0
 16 41  1  0
 17 42  1  0
 19 43  1  0
 22 44  1  0
 23 45  1  0
M  END
>  <smiles>  (7) 
O=C(NCC(=O)N1CCCC[C@H]1CO)c1ccc2cc(F)ccc2n1

>  <score_type>  (7) 
oracle

>  <origin>  (7) 
autodockgpu

>  <m_score__min__energy>  (7) 
-7.9100000000000001

>  <m_primary>  (7) 
energy

>  <rmsd>  (7) 
8.869710801915117

>  <m_score__min__rmsd>  (7) 
8.869710801915117

>  <meeko>  (7) 
{"free_energy": -6.91, "intermolecular_energy": -8.7, "internal_energy": -1.96, "cluster_size": 33, "cluster_id": 1, "rank_in_cluster": 31}

>  <energy>  (7) 
-7.52

>  <cluster_rmsd>  (7) 
0.84

>  <cluster>  (7) 
1

$$$$

     RDKit          3D

 45 47  0  0  0  0  0  0  0  0999 V2000
  138.4670   72.0880  221.2260 O   0  0  0  0  0  0  0  0  0  0  0  0
  139.1020   72.8110  222.0620 C   0  0  0  0  0  0  0  0  0  0  0  0
  139.8710   72.1820  223.0940 N   0  0  0  0  0  0  0  0  0  0  0  0
  139.9170   70.7480  223.1780 C   0  0  0  0  0  0  0  0  0  0  0  0
  139.4700   70.2340  224.4900 C   0  0  0  0  0  0  0  0  0  0  0  0
  138.2910   69.8050  224.5690 O   0  0  0  0  0  0  0  0  0  0  0  0
  140.3830   70.2540  225.5760 N   0  0  0  0  0  0  0  0  0  0  0  0
  141.0930   71.4920  225.9440 C   0  0  0  0  0  0  0  0  0  0  0  0
  140.8900   71.8000  227.4100 C   0  0  0  0  0  0  0  0  0  0  0  0
  140.8880   70.5990  228.2820 C   0  0  0  0  0  0  0  0  0  0  0  0
  140.1070   69.4200  227.7530 C   0  0  0  0  0  0  0  0  0  0  0  0
  140.6890   69.0970  226.3940 C   0  0  1  0  0  0  0  0  0  0  0  0
  140.2170   67.7940  225.8540 C   0  0  0  0  0  0  0  0  0  0  0  0
  138.8840   67.5470  226.0300 O   0  0  0  0  0  0  0  0  0  0  0  0
  139.0590   74.2690  221.9830 C   0  0  0  0  0  0  0  0  0  0  0  0
  137.9080   74.8720  221.5110 C   0  0  0  0  0  0  0  0  0  0  0  0
  137.8080   76.2340  221.4140 C   0  0  0  0  0  0  0  0  0  0  0  0
  138.8610   77.0480  221.7860 C   0  0  0  0  0  0  0  0  0  0  0  0
  138.7550   78.4170  221.6870 C   0  0  0  0  0  0  0  0  0  0  0  0
  139.8330   79.1890  222.0710 C   0  0  0  0  0  0  0  0  0  0  0  0
  139.7090   80.5270  221.9660 F   0  0  0  0  0  0  0  0  0  0  0  0
  140.9480   78.5520  222.5300 C   0  0  0  0  0  0  0  0  0  0  0  0
  141.0730   77.1820  222.6370 C   0  0  0  0  0  0  0  0  0  0  0  0
  139.9980   76.4090  222.2530 C   0  0  0  0  0  0  0  0  0  0  0  0
  140.0680   75.0550  222.3400 N   0  0  0  0  0  0  0  0  0  0  0  0
  140.3720   72.8180  223.7540 H   0  0  0  0  0  0  0  0  0  0  0  0
  139.2656   70.3296  222.3966 H   0  0  0  0  0  0  0  0  0  0  0  0
  140.9653   70.4429  223.0437 H   0  0  0  0  0  0  0  0  0  0  0  0
  142.1676   71.3662  225.7455 H   0  0  0  0  0  0  0  0  0  0  0  0
  140.6930   72.3240  225.3459 H   0  0  0  0  0  0  0  0  0  0  0  0
  141.7011   72.4660  227.7396 H   0  0  0  0  0  0  0  0  0  0  0  0
  139.8975   72.2648  227.5042 H   0  0  0  0  0  0  0  0  0  0  0  0
  141.9311   70.2799  228.4236 H   0  0  0  0  0  0  0  0  0  0  0  0
  140.3894   70.9008  229.2149 H   0  0  0  0  0  0  0  0  0  0  0  0
  140.2154   68.5582  228.4279 H   0  0  0  0  0  0  0  0  0  0  0  0
  139.0340   69.6518  227.6824 H   0  0  0  0  0  0  0  0  0  0  0  0
  141.7765   68.9356  226.4289 H   0  0  0  0  0  0  0  0  0  0  0  0
  140.4285   67.7746  224.7747 H   0  0  0  0  0  0  0  0  0  0  0  0
  140.7521   67.0148  226.4166 H   0  0  0  0  0  0  0  0  0  0  0  0
  138.2780   68.1760  225.6120 H   0  0  0  0  0  0  0  0  0  0  0  0
  137.0563   74.2455  221.2076 H   0  0  0  0  0  0  0  0  0  0  0  0
  136.8790   76.6855  221.0357 H   0  0  0  0  0  0  0  0  0  0  0  0
  137.8331   78.8846  221.3108 H   0  0  0  0  0  0  0  0  0  0  0  0
  141.8044   79.1713  222.8351 H   0  0  0  0  0  0  0  0  0  0  0  0
  141.9981   76.7227  223.0155 H   0  0  0  0  0  0  0  0  0  0  0  0
  1  2  2  0
  2  3  1  0
  3  4  1  0
  4  5  1  0
  5  6  2  0
  5  7  1  0
  7  8  1  0
  8  9  1  0
  9 10  1  0
 10 11  1  0
 11 12  1  0
 12 13  1  0
 13 14  1  0
  2 15  1  0
 15 16  2  0
 16 17  1  0
 17 18  2  0
 18 19  1  0
 19 20  2  0
 20 21  1  0
 20 22  1  0
 22 23  2  0
 23 24  1  0
 24 25  2  0
 12  7  1  0
 25 15  1  0
 24 18  1  0
  3 26  1  0
  4 27  1  0
  4 28  1  0
  8 29  1  0
  8 30  1  0
  9 31  1  0
  9 32  1  0
 10 33  1  0
 10 34  1  0
 11 35  1  0
 11 36  1  0
 12 37  1  1
 13 38  1  0
 13 39  1  0
 14 40  1  0
 16 41  1  0
 17 42  1  0
 19 43  1  0
 22 44  1  0
 23 45  1  0
M  END
>  <smiles>  (8) 
O=C(NCC(=O)N1CCCC[C@H]1CO)c1ccc2cc(F)ccc2n1

>  <score_type>  (8) 
oracle

>  <origin>  (8) 
autodockgpu

>  <m_score__min__energy>  (8) 
-7.9100000000000001

>  <m_primary>  (8) 
energy

>  <rmsd>  (8) 
8.654342990542606

>  <m_score__min__rmsd>  (8) 
8.654342990542606

>  <meeko>  (8) 
{"free_energy": -6.57, "intermolecular_energy": -8.36, "internal_energy": -1.84, "cluster_size": 33, "cluster_id": 1, "rank_in_cluster": 32}

>  <energy>  (8) 
-7.5

>  <cluster_rmsd>  (8) 
0.83

>  <cluster>  (8) 
1

$$$$

     RDKit          3D

 45 47  0  0  0  0  0  0  0  0999 V2000
  139.3030   73.3970  222.6120 O   0  0  0  0  0  0  0  0  0  0  0  0
  140.1590   72.4580  222.6950 C   0  0  0  0  0  0  0  0  0  0  0  0
  141.1510   72.3180  221.6710 N   0  0  0  0  0  0  0  0  0  0  0  0
  141.1690   73.2340  220.5640 C   0  0  0  0  0  0  0  0  0  0  0  0
  141.6280   74.5860  220.9440 C   0  0  0  0  0  0  0  0  0  0  0  0
  141.1110   75.1040  221.9650 O   0  0  0  0  0  0  0  0  0  0  0  0
  142.6150   75.2210  220.1450 N   0  0  0  0  0  0  0  0  0  0  0  0
  143.8650   74.5240  219.7930 C   0  0  0  0  0  0  0  0  0  0  0  0
  144.0750   74.5410  218.2960 C   0  0  0  0  0  0  0  0  0  0  0  0
  143.6660   75.8120  217.6470 C   0  0  0  0  0  0  0  0  0  0  0  0
  142.3540   76.3870  218.1240 C   0  0  0  0  0  0  0  0  0  0  0  0
  142.4860   76.5660  219.6210 C   0  0  1  0  0  0  0  0  0  0  0  0
  141.3840   77.3740  220.2090 C   0  0  0  0  0  0  0  0  0  0  0  0
  141.5440   77.6880  221.5300 O   0  0  0  0  0  0  0  0  0  0  0  0
  140.1460   71.5240  223.8180 C   0  0  0  0  0  0  0  0  0  0  0  0
  139.6150   70.2630  223.6230 C   0  0  0  0  0  0  0  0  0  0  0  0
  139.5750   69.3440  224.6380 C   0  0  0  0  0  0  0  0  0  0  0  0
  140.0660   69.6530  225.8910 C   0  0  0  0  0  0  0  0  0  0  0  0
  140.0250   68.7260  226.9080 C   0  0  0  0  0  0  0  0  0  0  0  0
  140.5280   69.0810  228.1430 C   0  0  0  0  0  0  0  0  0  0  0  0
  140.4760   68.1580  229.1240 F   0  0  0  0  0  0  0  0  0  0  0  0
  141.0420   70.3360  228.2910 C   0  0  0  0  0  0  0  0  0  0  0  0
  141.0930   71.2790  227.2850 C   0  0  0  0  0  0  0  0  0  0  0  0
  140.5910   70.9270  226.0500 C   0  0  0  0  0  0  0  0  0  0  0  0
  140.6180   71.8180  225.0250 N   0  0  0  0  0  0  0  0  0  0  0  0
  141.8300   71.5320  221.7860 H   0  0  0  0  0  0  0  0  0  0  0  0
  141.8449   72.8380  219.7917 H   0  0  0  0  0  0  0  0  0  0  0  0
  140.1367   73.3272  220.1958 H   0  0  0  0  0  0  0  0  0  0  0  0
  144.7111   75.0276  220.2833 H   0  0  0  0  0  0  0  0  0  0  0  0
  143.7985   73.4796  220.1319 H   0  0  0  0  0  0  0  0  0  0  0  0
  145.1438   74.3769  218.0940 H   0  0  0  0  0  0  0  0  0  0  0  0
  143.4398   73.7478  217.8748 H   0  0  0  0  0  0  0  0  0  0  0  0
  144.4523   76.5579  217.8349 H   0  0  0  0  0  0  0  0  0  0  0  0
  143.5261   75.5781  216.5813 H   0  0  0  0  0  0  0  0  0  0  0  0
  142.1650   77.3565  217.6400 H   0  0  0  0  0  0  0  0  0  0  0  0
  141.5130   75.7235  217.8740 H   0  0  0  0  0  0  0  0  0  0  0  0
  143.3660   77.1652  219.8976 H   0  0  0  0  0  0  0  0  0  0  0  0
  141.3077   78.3130  219.6411 H   0  0  0  0  0  0  0  0  0  0  0  0
  140.4780   76.7534  220.1462 H   0  0  0  0  0  0  0  0  0  0  0  0
  142.0250   77.0390  222.0650 H   0  0  0  0  0  0  0  0  0  0  0  0
  139.2170   69.9922  222.6340 H   0  0  0  0  0  0  0  0  0  0  0  0
  139.1466   68.3479  224.4527 H   0  0  0  0  0  0  0  0  0  0  0  0
  139.6009   67.7250  226.7400 H   0  0  0  0  0  0  0  0  0  0  0  0
  141.4421   70.6144  229.2771 H   0  0  0  0  0  0  0  0  0  0  0  0
  141.5195   72.2773  227.4622 H   0  0  0  0  0  0  0  0  0  0  0  0
  1  2  2  0
  2  3  1  0
  3  4  1  0
  4  5  1  0
  5  6  2  0
  5  7  1  0
  7  8  1  0
  8  9  1  0
  9 10  1  0
 10 11  1  0
 11 12  1  0
 12 13  1  0
 13 14  1  0
  2 15  1  0
 15 16  2  0
 16 17  1  0
 17 18  2  0
 18 19  1  0
 19 20  2  0
 20 21  1  0
 20 22  1  0
 22 23  2  0
 23 24  1  0
 24 25  2  0
 12  7  1  0
 25 15  1  0
 24 18  1  0
  3 26  1  0
  4 27  1  0
  4 28  1  0
  8 29  1  0
  8 30  1  0
  9 31  1  0
  9 32  1  0
 10 33  1  0
 10 34  1  0
 11 35  1  0
 11 36  1  0
 12 37  1  6
 13 38  1  0
 13 39  1  0
 14 40  1  0
 16 41  1  0
 17 42  1  0
 19 43  1  0
 22 44  1  0
 23 45  1  0
M  END
>  <smiles>  (9) 
O=C(NCC(=O)N1CCCC[C@H]1CO)c1ccc2cc(F)ccc2n1

>  <score_type>  (9) 
oracle

>  <origin>  (9) 
autodockgpu

>  <m_score__min__energy>  (9) 
-7.9100000000000001

>  <m_primary>  (9) 
energy

>  <rmsd>  (9) 
2.6479472636553796

>  <m_score__min__rmsd>  (9) 
2.6479472636553796

>  <meeko>  (9) 
{"free_energy": -6.78, "intermolecular_energy": -8.57, "internal_energy": -1.48, "cluster_size": 15, "cluster_id": 2, "rank_in_cluster": 8}

>  <energy>  (9) 
-7.5

>  <cluster_rmsd>  (9) 
0.83

>  <cluster>  (9) 
1

$$$$

     RDKit          3D

 45 47  0  0  0  0  0  0  0  0999 V2000
  141.7090   71.7470  221.2210 O   0  0  0  0  0  0  0  0  0  0  0  0
  141.0310   72.6490  221.8110 C   0  0  0  0  0  0  0  0  0  0  0  0
  140.0960   72.2740  222.8300 N   0  0  0  0  0  0  0  0  0  0  0  0
  139.9310   70.8880  223.1740 C   0  0  0  0  0  0  0  0  0  0  0  0
  139.3810   70.6950  224.5320 C   0  0  0  0  0  0  0  0  0  0  0  0
  138.1290   70.6900  224.6510 O   0  0  0  0  0  0  0  0  0  0  0  0
  140.2820   70.5280  225.6150 N   0  0  0  0  0  0  0  0  0  0  0  0
  141.0820   71.6610  226.1120 C   0  0  0  0  0  0  0  0  0  0  0  0
  140.8910   71.8290  227.6030 C   0  0  0  0  0  0  0  0  0  0  0  0
  140.7870   70.5460  228.3430 C   0  0  0  0  0  0  0  0  0  0  0  0
  139.9210   69.4940  227.6910 C   0  0  0  0  0  0  0  0  0  0  0  0
  140.4890   69.2720  226.3070 C   0  0  1  0  0  0  0  0  0  0  0  0
  139.9220   68.0740  225.6310 C   0  0  0  0  0  0  0  0  0  0  0  0
  138.5660   67.9430  225.7360 O   0  0  0  0  0  0  0  0  0  0  0  0
  141.1920   74.0600  221.4660 C   0  0  0  0  0  0  0  0  0  0  0  0
  142.0820   74.3970  220.4640 C   0  0  0  0  0  0  0  0  0  0  0  0
  142.2770   75.7030  220.0970 C   0  0  0  0  0  0  0  0  0  0  0  0
  141.5850   76.7230  220.7200 C   0  0  0  0  0  0  0  0  0  0  0  0
  141.7830   78.0330  220.3470 C   0  0  0  0  0  0  0  0  0  0  0  0
  141.0690   79.0180  220.9990 C   0  0  0  0  0  0  0  0  0  0  0  0
  141.2790   80.2930  220.6180 F   0  0  0  0  0  0  0  0  0  0  0  0
  140.2030   78.6390  221.9820 C   0  0  0  0  0  0  0  0  0  0  0  0
  139.9900   77.3320  222.3700 C   0  0  0  0  0  0  0  0  0  0  0  0
  140.7020   76.3460  221.7200 C   0  0  0  0  0  0  0  0  0  0  0  0
  140.5290   75.0440  222.0640 N   0  0  0  0  0  0  0  0  0  0  0  0
  139.5640   73.0520  223.2830 H   0  0  0  0  0  0  0  0  0  0  0  0
  139.2457   70.4253  222.4485 H   0  0  0  0  0  0  0  0  0  0  0  0
  140.9267   70.4210  223.1512 H   0  0  0  0  0  0  0  0  0  0  0  0
  142.1453   71.4734  225.9019 H   0  0  0  0  0  0  0  0  0  0  0  0
  140.7522   72.5797  225.6048 H   0  0  0  0  0  0  0  0  0  0  0  0
  141.7491   72.3903  228.0013 H   0  0  0  0  0  0  0  0  0  0  0  0
  139.9377   72.3589  227.7458 H   0  0  0  0  0  0  0  0  0  0  0  0
  141.8007   70.1327  228.4511 H   0  0  0  0  0  0  0  0  0  0  0  0
  140.3047   70.7859  229.3021 H   0  0  0  0  0  0  0  0  0  0  0  0
  139.9554   68.5599  228.2708 H   0  0  0  0  0  0  0  0  0  0  0  0
  138.8700   69.8152  227.6442 H   0  0  0  0  0  0  0  0  0  0  0  0
  141.5604   69.0237  226.3271 H   0  0  0  0  0  0  0  0  0  0  0  0
  140.1783   68.1309  224.5628 H   0  0  0  0  0  0  0  0  0  0  0  0
  140.3569   67.1992  226.1366 H   0  0  0  0  0  0  0  0  0  0  0  0
  138.0440   68.7250  225.5010 H   0  0  0  0  0  0  0  0  0  0  0  0
  142.6443   73.6025  219.9516 H   0  0  0  0  0  0  0  0  0  0  0  0
  142.9931   75.9416  219.2968 H   0  0  0  0  0  0  0  0  0  0  0  0
  142.4940   78.2891  219.5476 H   0  0  0  0  0  0  0  0  0  0  0  0
  139.6369   79.4273  222.4998 H   0  0  0  0  0  0  0  0  0  0  0  0
  139.2768   77.0851  223.1702 H   0  0  0  0  0  0  0  0  0  0  0  0
  1  2  2  0
  2  3  1  0
  3  4  1  0
  4  5  1  0
  5  6  2  0
  5  7  1  0
  7  8  1  0
  8  9  1  0
  9 10  1  0
 10 11  1  0
 11 12  1  0
 12 13  1  0
 13 14  1  0
  2 15  1  0
 15 16  2  0
 16 17  1  0
 17 18  2  0
 18 19  1  0
 19 20  2  0
 20 21  1  0
 20 22  1  0
 22 23  2  0
 23 24  1  0
 24 25  2  0
 12  7  1  0
 25 15  1  0
 24 18  1  0
  3 26  1  0
  4 27  1  0
  4 28  1  0
  8 29  1  0
  8 30  1  0
  9 31  1  0
  9 32  1  0
 10 33  1  0
 10 34  1  0
 11 35  1  0
 11 36  1  0
 12 37  1  1
 13 38  1  0
 13 39  1  0
 14 40  1  0
 16 41  1  0
 17 42  1  0
 19 43  1  0
 22 44  1  0
 23 45  1  0
M  END
>  <smiles>  (10) 
O=C(NCC(=O)N1CCCC[C@H]1CO)c1ccc2cc(F)ccc2n1

>  <score_type>  (10) 
oracle

>  <origin>  (10) 
autodockgpu

>  <m_score__min__energy>  (10) 
-7.9100000000000001

>  <m_primary>  (10) 
energy

>  <rmsd>  (10) 
8.821890729796339

>  <m_score__min__rmsd>  (10) 
8.821890729796339

>  <meeko>  (10) 
{"free_energy": -7.13, "intermolecular_energy": -8.92, "internal_energy": -1.97, "cluster_size": 33, "cluster_id": 1, "rank_in_cluster": 30}

>  <energy>  (10) 
-7.49

>  <cluster_rmsd>  (10) 
0.83

>  <cluster>  (10) 
1

$$$$

     RDKit          3D

 45 47  0  0  0  0  0  0  0  0999 V2000
  141.4420   72.1400  221.5550 O   0  0  0  0  0  0  0  0  0  0  0  0
  140.5910   72.4380  222.4550 C   0  0  0  0  0  0  0  0  0  0  0  0
  139.8170   73.6360  222.3220 N   0  0  0  0  0  0  0  0  0  0  0  0
  140.0080   74.4870  221.1800 C   0  0  0  0  0  0  0  0  0  0  0  0
  141.0330   75.5280  221.4040 C   0  0  0  0  0  0  0  0  0  0  0  0
  140.8340   76.3380  222.3440 O   0  0  0  0  0  0  0  0  0  0  0  0
  142.1700   75.5600  220.5560 N   0  0  0  0  0  0  0  0  0  0  0  0
  143.0830   74.4060  220.4740 C   0  0  0  0  0  0  0  0  0  0  0  0
  143.2660   73.9780  219.0350 C   0  0  0  0  0  0  0  0  0  0  0  0
  143.3300   75.1090  218.0760 C   0  0  0  0  0  0  0  0  0  0  0  0
  142.3170   76.2060  218.3040 C   0  0  0  0  0  0  0  0  0  0  0  0
  142.5240   76.6910  219.7220 C   0  0  1  0  0  0  0  0  0  0  0  0
  141.7930   77.9520  220.0180 C   0  0  0  0  0  0  0  0  0  0  0  0
  142.0040   78.4580  221.2700 O   0  0  0  0  0  0  0  0  0  0  0  0
  140.3930   71.5770  223.6180 C   0  0  0  0  0  0  0  0  0  0  0  0
  139.7420   70.3710  223.4460 C   0  0  0  0  0  0  0  0  0  0  0  0
  139.5270   69.5220  224.4990 C   0  0  0  0  0  0  0  0  0  0  0  0
  139.9560   69.8500  225.7700 C   0  0  0  0  0  0  0  0  0  0  0  0
  139.7380   68.9940  226.8260 C   0  0  0  0  0  0  0  0  0  0  0  0
  140.1850   69.3660  228.0770 C   0  0  0  0  0  0  0  0  0  0  0  0
  139.9600   68.5130  229.0960 F   0  0  0  0  0  0  0  0  0  0  0  0
  140.8210   70.5660  228.2020 C   0  0  0  0  0  0  0  0  0  0  0  0
  141.0500   71.4370  227.1570 C   0  0  0  0  0  0  0  0  0  0  0  0
  140.6040   71.0680  225.9060 C   0  0  0  0  0  0  0  0  0  0  0  0
  140.8040   71.8900  224.8430 N   0  0  0  0  0  0  0  0  0  0  0  0
  139.1340   73.8350  223.0870 H   0  0  0  0  0  0  0  0  0  0  0  0
  140.3192   73.8657  220.3273 H   0  0  0  0  0  0  0  0  0  0  0  0
  139.0539   74.9991  220.9864 H   0  0  0  0  0  0  0  0  0  0  0  0
  144.0596   74.6861  220.8956 H   0  0  0  0  0  0  0  0  0  0  0  0
  142.6512   73.5691  221.0424 H   0  0  0  0  0  0  0  0  0  0  0  0
  144.2029   73.4064  218.9599 H   0  0  0  0  0  0  0  0  0  0  0  0
  142.3839   73.3790  218.7648 H   0  0  0  0  0  0  0  0  0  0  0  0
  144.3338   75.5541  218.1418 H   0  0  0  0  0  0  0  0  0  0  0  0
  143.1008   74.6836  217.0878 H   0  0  0  0  0  0  0  0  0  0  0  0
  142.4809   77.0290  217.5928 H   0  0  0  0  0  0  0  0  0  0  0  0
  141.2910   75.8387  218.1541 H   0  0  0  0  0  0  0  0  0  0  0  0
  143.5639   76.9927  219.9160 H   0  0  0  0  0  0  0  0  0  0  0  0
  142.1079   78.7098  219.2854 H   0  0  0  0  0  0  0  0  0  0  0  0
  140.7217   77.7092  219.9593 H   0  0  0  0  0  0  0  0  0  0  0  0
  142.3450   77.8340  221.9280 H   0  0  0  0  0  0  0  0  0  0  0  0
  139.3893   70.0868  222.4436 H   0  0  0  0  0  0  0  0  0  0  0  0
  139.0065   68.5677  224.3303 H   0  0  0  0  0  0  0  0  0  0  0  0
  139.2194   68.0356  226.6757 H   0  0  0  0  0  0  0  0  0  0  0  0
  141.1746   70.8585  229.2017 H   0  0  0  0  0  0  0  0  0  0  0  0
  141.5705   72.3928  227.3165 H   0  0  0  0  0  0  0  0  0  0  0  0
  1  2  2  0
  2  3  1  0
  3  4  1  0
  4  5  1  0
  5  6  2  0
  5  7  1  0
  7  8  1  0
  8  9  1  0
  9 10  1  0
 10 11  1  0
 11 12  1  0
 12 13  1  0
 13 14  1  0
  2 15  1  0
 15 16  2  0
 16 17  1  0
 17 18  2  0
 18 19  1  0
 19 20  2  0
 20 21  1  0
 20 22  1  0
 22 23  2  0
 23 24  1  0
 24 25  2  0
 12  7  1  0
 25 15  1  0
 24 18  1  0
  3 26  1  0
  4 27  1  0
  4 28  1  0
  8 29  1  0
  8 30  1  0
  9 31  1  0
  9 32  1  0
 10 33  1  0
 10 34  1  0
 11 35  1  0
 11 36  1  0
 12 37  1  6
 13 38  1  0
 13 39  1  0
 14 40  1  0
 16 41  1  0
 17 42  1  0
 19 43  1  0
 22 44  1  0
 23 45  1  0
M  END
>  <smiles>  (11) 
O=C(NCC(=O)N1CCCC[C@H]1CO)c1ccc2cc(F)ccc2n1

>  <score_type>  (11) 
oracle

>  <origin>  (11) 
autodockgpu

>  <m_score__min__energy>  (11) 
-7.9100000000000001

>  <m_primary>  (11) 
energy

>  <rmsd>  (11) 
2.3551848388731926

>  <m_score__min__rmsd>  (11) 
2.3551848388731926

>  <meeko>  (11) 
{"free_energy": -6.92, "intermolecular_energy": -8.71, "internal_energy": -1.79, "cluster_size": 15, "cluster_id": 2, "rank_in_cluster": 1}

>  <energy>  (11) 
-7.46

>  <cluster_rmsd>  (11) 
0.81

>  <cluster>  (11) 
1

$$$$

     RDKit          3D

 45 47  0  0  0  0  0  0  0  0999 V2000
  141.2510   71.2470  221.2810 O   0  0  0  0  0  0  0  0  0  0  0  0
  140.6610   72.1730  221.9270 C   0  0  0  0  0  0  0  0  0  0  0  0
  139.7460   71.8280  222.9740 N   0  0  0  0  0  0  0  0  0  0  0  0
  139.5040   70.4460  223.2850 C   0  0  0  0  0  0  0  0  0  0  0  0
  139.1560   70.2280  224.7040 C   0  0  0  0  0  0  0  0  0  0  0  0
  137.9440   70.0340  224.9770 O   0  0  0  0  0  0  0  0  0  0  0  0
  140.1930   70.2520  225.6720 N   0  0  0  0  0  0  0  0  0  0  0  0
  140.9030   71.5040  225.9880 C   0  0  0  0  0  0  0  0  0  0  0  0
  140.8710   71.7680  227.4770 C   0  0  0  0  0  0  0  0  0  0  0  0
  141.0140   70.5460  228.3060 C   0  0  0  0  0  0  0  0  0  0  0  0
  140.2120   69.3540  227.8410 C   0  0  0  0  0  0  0  0  0  0  0  0
  140.6330   69.0870  226.4120 C   0  0  1  0  0  0  0  0  0  0  0  0
  140.1400   67.7820  225.8950 C   0  0  0  0  0  0  0  0  0  0  0  0
  138.8100   67.5480  226.1010 O   0  0  0  0  0  0  0  0  0  0  0  0
  140.9020   73.5800  221.6150 C   0  0  0  0  0  0  0  0  0  0  0  0
  141.8880   73.8950  220.7010 C   0  0  0  0  0  0  0  0  0  0  0  0
  142.1600   75.1960  220.3680 C   0  0  0  0  0  0  0  0  0  0  0  0
  141.4530   76.2340  220.9430 C   0  0  0  0  0  0  0  0  0  0  0  0
  141.7300   77.5400  220.6060 C   0  0  0  0  0  0  0  0  0  0  0  0
  140.9970   78.5440  221.2050 C   0  0  0  0  0  0  0  0  0  0  0  0
  141.2840   79.8140  220.8610 F   0  0  0  0  0  0  0  0  0  0  0  0
  140.0340   78.1870  222.1030 C   0  0  0  0  0  0  0  0  0  0  0  0
  139.7410   76.8850  222.4540 C   0  0  0  0  0  0  0  0  0  0  0  0
  140.4730   75.8800  221.8560 C   0  0  0  0  0  0  0  0  0  0  0  0
  140.2240   74.5810  222.1660 N   0  0  0  0  0  0  0  0  0  0  0  0
  139.2880   72.6240  223.4730 H   0  0  0  0  0  0  0  0  0  0  0  0
  138.6729   70.0861  222.6606 H   0  0  0  0  0  0  0  0  0  0  0  0
  140.4349   69.8950  223.0852 H   0  0  0  0  0  0  0  0  0  0  0  0
  141.9488   71.4208  225.6572 H   0  0  0  0  0  0  0  0  0  0  0  0
  140.4066   72.3364  225.4677 H   0  0  0  0  0  0  0  0  0  0  0  0
  141.6946   72.4536  227.7252 H   0  0  0  0  0  0  0  0  0  0  0  0
  139.8834   72.1955  227.7050 H   0  0  0  0  0  0  0  0  0  0  0  0
  142.0763   70.2604  228.3101 H   0  0  0  0  0  0  0  0  0  0  0  0
  140.6240   70.8059  229.3012 H   0  0  0  0  0  0  0  0  0  0  0  0
  140.4300   68.4794  228.4716 H   0  0  0  0  0  0  0  0  0  0  0  0
  139.1316   69.5493  227.9086 H   0  0  0  0  0  0  0  0  0  0  0  0
  141.7213   68.9637  226.3097 H   0  0  0  0  0  0  0  0  0  0  0  0
  140.3290   67.7500  224.8118 H   0  0  0  0  0  0  0  0  0  0  0  0
  140.6807   67.0041  226.4541 H   0  0  0  0  0  0  0  0  0  0  0  0
  138.2220   68.3100  225.9870 H   0  0  0  0  0  0  0  0  0  0  0  0
  142.4663   73.0858  220.2311 H   0  0  0  0  0  0  0  0  0  0  0  0
  142.9499   75.4162  219.6348 H   0  0  0  0  0  0  0  0  0  0  0  0
  142.5177   77.7776  219.8759 H   0  0  0  0  0  0  0  0  0  0  0  0
  139.4525   78.9904  222.5789 H   0  0  0  0  0  0  0  0  0  0  0  0
  138.9514   76.6564  223.1850 H   0  0  0  0  0  0  0  0  0  0  0  0
  1  2  2  0
  2  3  1  0
  3  4  1  0
  4  5  1  0
  5  6  2  0
  5  7  1  0
  7  8  1  0
  8  9  1  0
  9 10  1  0
 10 11  1  0
 11 12  1  0
 12 13  1  0
 13 14  1  0
  2 15  1  0
 15 16  2  0
 16 17  1  0
 17 18  2  0
 18 19  1  0
 19 20  2  0
 20 21  1  0
 20 22  1  0
 22 23  2  0
 23 24  1  0
 24 25  2  0
 12  7  1  0
 25 15  1  0
 24 18  1  0
  3 26  1  0
  4 27  1  0
  4 28  1  0
  8 29  1  0
  8 30  1  0
  9 31  1  0
  9 32  1  0
 10 33  1  0
 10 34  1  0
 11 35  1  0
 11 36  1  0
 12 37  1  1
 13 38  1  0
 13 39  1  0
 14 40  1  0
 16 41  1  0
 17 42  1  0
 19 43  1  0
 22 44  1  0
 23 45  1  0
M  END
>  <smiles>  (12) 
O=C(NCC(=O)N1CCCC[C@H]1CO)c1ccc2cc(F)ccc2n1

>  <score_type>  (12) 
oracle

>  <origin>  (12) 
autodockgpu

>  <m_score__min__energy>  (12) 
-7.9100000000000001

>  <m_primary>  (12) 
energy

>  <rmsd>  (12) 
8.663626838717803

>  <m_score__min__rmsd>  (12) 
8.663626838717803

>  <meeko>  (12) 
{"free_energy": -7.35, "intermolecular_energy": -9.14, "internal_energy": -1.99, "cluster_size": 33, "cluster_id": 1, "rank_in_cluster": 20}

>  <energy>  (12) 
-7.42

>  <cluster_rmsd>  (12) 
0.79

>  <cluster>  (12) 
1

$$$$

     RDKit          3D

 45 47  0  0  0  0  0  0  0  0999 V2000
  141.3690   71.8400  221.5740 O   0  0  0  0  0  0  0  0  0  0  0  0
  140.5690   72.2740  222.4650 C   0  0  0  0  0  0  0  0  0  0  0  0
  139.9150   73.5340  222.2710 N   0  0  0  0  0  0  0  0  0  0  0  0
  140.1680   74.2930  221.0770 C   0  0  0  0  0  0  0  0  0  0  0  0
  141.0500   75.4550  221.3120 C   0  0  0  0  0  0  0  0  0  0  0  0
  140.7330   76.2410  222.2410 O   0  0  0  0  0  0  0  0  0  0  0  0
  142.1920   75.6230  220.4860 N   0  0  0  0  0  0  0  0  0  0  0  0
  143.1690   74.5320  220.3190 C   0  0  0  0  0  0  0  0  0  0  0  0
  143.3890   74.2420  218.8510 C   0  0  0  0  0  0  0  0  0  0  0  0
  143.4000   75.4540  217.9940 C   0  0  0  0  0  0  0  0  0  0  0  0
  142.3250   76.4690  218.3010 C   0  0  0  0  0  0  0  0  0  0  0  0
  142.4910   76.8400  219.7590 C   0  0  1  0  0  0  0  0  0  0  0  0
  141.6880   78.0280  220.1520 C   0  0  0  0  0  0  0  0  0  0  0  0
  141.9020   78.4700  221.4270 O   0  0  0  0  0  0  0  0  0  0  0  0
  140.3080   71.5070  223.6810 C   0  0  0  0  0  0  0  0  0  0  0  0
  139.6100   70.3190  223.5770 C   0  0  0  0  0  0  0  0  0  0  0  0
  139.3360   69.5560  224.6810 C   0  0  0  0  0  0  0  0  0  0  0  0
  139.7500   69.9560  225.9370 C   0  0  0  0  0  0  0  0  0  0  0  0
  139.4720   69.1870  227.0440 C   0  0  0  0  0  0  0  0  0  0  0  0
  139.9070   69.6270  228.2770 C   0  0  0  0  0  0  0  0  0  0  0  0
  139.6230   68.8590  229.3470 F   0  0  0  0  0  0  0  0  0  0  0  0
  140.5910   70.8060  228.3330 C   0  0  0  0  0  0  0  0  0  0  0  0
  140.8800   71.5910  227.2360 C   0  0  0  0  0  0  0  0  0  0  0  0
  140.4460   71.1530  226.0020 C   0  0  0  0  0  0  0  0  0  0  0  0
  140.7050   71.8880  224.8900 N   0  0  0  0  0  0  0  0  0  0  0  0
  139.2700   73.8440  223.0310 H   0  0  0  0  0  0  0  0  0  0  0  0
  140.6449   73.6341  220.3364 H   0  0  0  0  0  0  0  0  0  0  0  0
  139.2018   74.6782  220.7191 H   0  0  0  0  0  0  0  0  0  0  0  0
  144.1243   74.8275  220.7773 H   0  0  0  0  0  0  0  0  0  0  0  0
  142.7799   73.6264  220.8074 H   0  0  0  0  0  0  0  0  0  0  0  0
  144.3565   73.7305  218.7401 H   0  0  0  0  0  0  0  0  0  0  0  0
  142.5434   73.6225  218.5175 H   0  0  0  0  0  0  0  0  0  0  0  0
  144.3765   75.9461  218.1133 H   0  0  0  0  0  0  0  0  0  0  0  0
  143.2058   75.1046  216.9692 H   0  0  0  0  0  0  0  0  0  0  0  0
  142.4490   77.3584  217.6657 H   0  0  0  0  0  0  0  0  0  0  0  0
  141.3228   76.0599  218.1053 H   0  0  0  0  0  0  0  0  0  0  0  0
  143.5103   77.1806  219.9937 H   0  0  0  0  0  0  0  0  0  0  0  0
  141.9305   78.8484  219.4606 H   0  0  0  0  0  0  0  0  0  0  0  0
  140.6338   77.7173  220.1057 H   0  0  0  0  0  0  0  0  0  0  0  0
  142.2050   77.8030  222.0620 H   0  0  0  0  0  0  0  0  0  0  0  0
  139.2677   69.9794  222.5883 H   0  0  0  0  0  0  0  0  0  0  0  0
  138.7799   68.6139  224.5663 H   0  0  0  0  0  0  0  0  0  0  0  0
  138.9156   68.2430  226.9478 H   0  0  0  0  0  0  0  0  0  0  0  0
  140.9349   71.1538  229.3183 H   0  0  0  0  0  0  0  0  0  0  0  0
  141.4372   72.5335  227.3416 H   0  0  0  0  0  0  0  0  0  0  0  0
  1  2  2  0
  2  3  1  0
  3  4  1  0
  4  5  1  0
  5  6  2  0
  5  7  1  0
  7  8  1  0
  8  9  1  0
  9 10  1  0
 10 11  1  0
 11 12  1  0
 12 13  1  0
 13 14  1  0
  2 15  1  0
 15 16  2  0
 16 17  1  0
 17 18  2  0
 18 19  1  0
 19 20  2  0
 20 21  1  0
 20 22  1  0
 22 23  2  0
 23 24  1  0
 24 25  2  0
 12  7  1  0
 25 15  1  0
 24 18  1  0
  3 26  1  0
  4 27  1  0
  4 28  1  0
  8 29  1  0
  8 30  1  0
  9 31  1  0
  9 32  1  0
 10 33  1  0
 10 34  1  0
 11 35  1  0
 11 36  1  0
 12 37  1  6
 13 38  1  0
 13 39  1  0
 14 40  1  0
 16 41  1  0
 17 42  1  0
 19 43  1  0
 22 44  1  0
 23 45  1  0
M  END
>  <smiles>  (13) 
O=C(NCC(=O)N1CCCC[C@H]1CO)c1ccc2cc(F)ccc2n1

>  <score_type>  (13) 
oracle

>  <origin>  (13) 
autodockgpu

>  <m_score__min__energy>  (13) 
-7.9100000000000001

>  <m_primary>  (13) 
energy

>  <rmsd>  (13) 
2.365299808761186

>  <m_score__min__rmsd>  (13) 
2.365299808761186

>  <meeko>  (13) 
{"free_energy": -6.9, "intermolecular_energy": -8.69, "internal_energy": -1.77, "cluster_size": 15, "cluster_id": 2, "rank_in_cluster": 5}

>  <energy>  (13) 
-7.39

>  <cluster_rmsd>  (13) 
0.8

>  <cluster>  (13) 
1

$$$$

     RDKit          3D

 45 47  0  0  0  0  0  0  0  0999 V2000
  140.2040   70.4940  221.9950 O   0  0  0  0  0  0  0  0  0  0  0  0
  139.8320   71.6250  222.4470 C   0  0  0  0  0  0  0  0  0  0  0  0
  138.8660   71.6780  223.5030 N   0  0  0  0  0  0  0  0  0  0  0  0
  138.3270   70.4590  224.0400 C   0  0  0  0  0  0  0  0  0  0  0  0
  139.3730   69.4920  224.4340 C   0  0  0  0  0  0  0  0  0  0  0  0
  139.4030   68.3940  223.8230 O   0  0  0  0  0  0  0  0  0  0  0  0
  140.2750   69.8490  225.4700 N   0  0  0  0  0  0  0  0  0  0  0  0
  140.9450   71.1610  225.4690 C   0  0  0  0  0  0  0  0  0  0  0  0
  140.7210   71.8700  226.7860 C   0  0  0  0  0  0  0  0  0  0  0  0
  140.7460   70.9680  227.9640 C   0  0  0  0  0  0  0  0  0  0  0  0
  140.0040   69.6640  227.7940 C   0  0  0  0  0  0  0  0  0  0  0  0
  140.6070   68.9840  226.5840 C   0  0  1  0  0  0  0  0  0  0  0  0
  140.1780   67.5670  226.4390 C   0  0  0  0  0  0  0  0  0  0  0  0
  138.8250   67.3800  226.3740 O   0  0  0  0  0  0  0  0  0  0  0  0
  140.3760   72.8680  221.9050 C   0  0  0  0  0  0  0  0  0  0  0  0
  141.3620   72.7940  220.9400 C   0  0  0  0  0  0  0  0  0  0  0  0
  141.9100   73.9250  220.3950 C   0  0  0  0  0  0  0  0  0  0  0  0
  141.4910   75.1780  220.7980 C   0  0  0  0  0  0  0  0  0  0  0  0
  142.0450   76.3120  220.2470 C   0  0  0  0  0  0  0  0  0  0  0  0
  141.5930   77.5410  220.6820 C   0  0  0  0  0  0  0  0  0  0  0  0
  142.1490   78.6380  220.1300 F   0  0  0  0  0  0  0  0  0  0  0  0
  140.6200   77.5680  221.6370 C   0  0  0  0  0  0  0  0  0  0  0  0
  140.0530   76.4440  222.2010 C   0  0  0  0  0  0  0  0  0  0  0  0
  140.5020   75.2140  221.7680 C   0  0  0  0  0  0  0  0  0  0  0  0
  139.9760   74.0750  222.2900 N   0  0  0  0  0  0  0  0  0  0  0  0
  138.5950   72.6300  223.8380 H   0  0  0  0  0  0  0  0  0  0  0  0
  137.7227   70.7029  224.9262 H   0  0  0  0  0  0  0  0  0  0  0  0
  137.7235   69.9886  223.2497 H   0  0  0  0  0  0  0  0  0  0  0  0
  142.0245   71.0163  225.3146 H   0  0  0  0  0  0  0  0  0  0  0  0
  140.5254   71.7746  224.6582 H   0  0  0  0  0  0  0  0  0  0  0  0
  141.5101   72.6261  226.9114 H   0  0  0  0  0  0  0  0  0  0  0  0
  139.7154   72.3137  226.7438 H   0  0  0  0  0  0  0  0  0  0  0  0
  141.7967   70.7341  228.1907 H   0  0  0  0  0  0  0  0  0  0  0  0
  140.2306   71.5082  228.7718 H   0  0  0  0  0  0  0  0  0  0  0  0
  140.1314   69.0345  228.6871 H   0  0  0  0  0  0  0  0  0  0  0  0
  138.9254   69.8334  227.6601 H   0  0  0  0  0  0  0  0  0  0  0  0
  141.6984   68.8722  226.6635 H   0  0  0  0  0  0  0  0  0  0  0  0
  140.6231   67.1678  225.5157 H   0  0  0  0  0  0  0  0  0  0  0  0
  140.5187   67.0466  227.3462 H   0  0  0  0  0  0  0  0  0  0  0  0
  138.3820   67.7540  225.5970 H   0  0  0  0  0  0  0  0  0  0  0  0
  141.7138   71.8078  220.6028 H   0  0  0  0  0  0  0  0  0  0  0  0
  142.6928   73.8343  219.6275 H   0  0  0  0  0  0  0  0  0  0  0  0
  142.8289   76.2398  219.4787 H   0  0  0  0  0  0  0  0  0  0  0  0
  140.2638   78.5506  221.9801 H   0  0  0  0  0  0  0  0  0  0  0  0
  139.2701   76.5259  222.9693 H   0  0  0  0  0  0  0  0  0  0  0  0
  1  2  2  0
  2  3  1  0
  3  4  1  0
  4  5  1  0
  5  6  2  0
  5  7  1  0
  7  8  1  0
  8  9  1  0
  9 10  1  0
 10 11  1  0
 11 12  1  0
 12 13  1  0
 13 14  1  0
  2 15  1  0
 15 16  2  0
 16 17  1  0
 17 18  2  0
 18 19  1  0
 19 20  2  0
 20 21  1  0
 20 22  1  0
 22 23  2  0
 23 24  1  0
 24 25  2  0
 12  7  1  0
 25 15  1  0
 24 18  1  0
  3 26  1  0
  4 27  1  0
  4 28  1  0
  8 29  1  0
  8 30  1  0
  9 31  1  0
  9 32  1  0
 10 33  1  0
 10 34  1  0
 11 35  1  0
 11 36  1  0
 12 37  1  1
 13 38  1  0
 13 39  1  0
 14 40  1  0
 16 41  1  0
 17 42  1  0
 19 43  1  0
 22 44  1  0
 23 45  1  0
M  END
>  <smiles>  (14) 
O=C(NCC(=O)N1CCCC[C@H]1CO)c1ccc2cc(F)ccc2n1

>  <score_type>  (14) 
oracle

>  <origin>  (14) 
autodockgpu

>  <m_score__min__energy>  (14) 
-7.9100000000000001

>  <m_primary>  (14) 
energy

>  <rmsd>  (14) 
8.428867063900862

>  <m_score__min__rmsd>  (14) 
8.428867063900862

>  <meeko>  (14) 
{"free_energy": -7.16, "intermolecular_energy": -8.95, "internal_energy": -1.91, "cluster_size": 33, "cluster_id": 1, "rank_in_cluster": 29}

>  <energy>  (14) 
-7.36

>  <cluster_rmsd>  (14) 
0.68

>  <cluster>  (14) 
1

$$$$

     RDKit          3D

 45 47  0  0  0  0  0  0  0  0999 V2000
  141.2670   71.2830  221.2080 O   0  0  0  0  0  0  0  0  0  0  0  0
  140.6700   72.1860  221.8790 C   0  0  0  0  0  0  0  0  0  0  0  0
  139.7590   71.8060  222.9170 N   0  0  0  0  0  0  0  0  0  0  0  0
  139.5270   70.4140  223.1890 C   0  0  0  0  0  0  0  0  0  0  0  0
  139.1940   70.1530  224.6050 C   0  0  0  0  0  0  0  0  0  0  0  0
  138.0000   69.8660  224.8730 O   0  0  0  0  0  0  0  0  0  0  0  0
  140.2270   70.2390  225.5750 N   0  0  0  0  0  0  0  0  0  0  0  0
  140.9340   71.5100  225.8130 C   0  0  0  0  0  0  0  0  0  0  0  0
  140.8950   71.8690  227.2810 C   0  0  0  0  0  0  0  0  0  0  0  0
  141.0330   70.7020  228.1880 C   0  0  0  0  0  0  0  0  0  0  0  0
  140.2340   69.4820  227.7960 C   0  0  0  0  0  0  0  0  0  0  0  0
  140.6630   69.1240  226.3910 C   0  0  1  0  0  0  0  0  0  0  0  0
  140.1740   67.7890  225.9560 C   0  0  0  0  0  0  0  0  0  0  0  0
  138.8280   67.5960  226.0960 O   0  0  0  0  0  0  0  0  0  0  0  0
  140.9010   73.6030  221.6070 C   0  0  0  0  0  0  0  0  0  0  0  0
  141.9030   73.9520  220.7210 C   0  0  0  0  0  0  0  0  0  0  0  0
  142.1660   75.2630  220.4260 C   0  0  0  0  0  0  0  0  0  0  0  0
  141.4350   76.2790  221.0100 C   0  0  0  0  0  0  0  0  0  0  0  0
  141.7030   77.5960  220.7100 C   0  0  0  0  0  0  0  0  0  0  0  0
  140.9450   78.5760  221.3180 C   0  0  0  0  0  0  0  0  0  0  0  0
  141.2240   79.8580  221.0110 F   0  0  0  0  0  0  0  0  0  0  0  0
  139.9670   78.1860  222.1860 C   0  0  0  0  0  0  0  0  0  0  0  0
  139.6830   76.8730  222.4990 C   0  0  0  0  0  0  0  0  0  0  0  0
  140.4390   75.8920  221.8930 C   0  0  0  0  0  0  0  0  0  0  0  0
  140.2000   74.5830  222.1660 N   0  0  0  0  0  0  0  0  0  0  0  0
  139.2950   72.5840  223.4370 H   0  0  0  0  0  0  0  0  0  0  0  0
  138.6916   70.0683  222.5624 H   0  0  0  0  0  0  0  0  0  0  0  0
  140.4583   69.8737  222.9636 H   0  0  0  0  0  0  0  0  0  0  0  0
  141.9814   71.4074  225.4929 H   0  0  0  0  0  0  0  0  0  0  0  0
  140.4388   72.3064  225.2381 H   0  0  0  0  0  0  0  0  0  0  0  0
  141.7180   72.5687  227.4887 H   0  0  0  0  0  0  0  0  0  0  0  0
  139.9067   72.3108  227.4762 H   0  0  0  0  0  0  0  0  0  0  0  0
  142.0952   70.4177  228.2168 H   0  0  0  0  0  0  0  0  0  0  0  0
  140.6367   71.0251  229.1619 H   0  0  0  0  0  0  0  0  0  0  0  0
  140.4484   68.6500  228.4829 H   0  0  0  0  0  0  0  0  0  0  0  0
  139.1532   69.6807  227.8445 H   0  0  0  0  0  0  0  0  0  0  0  0
  141.7519   68.9947  226.3035 H   0  0  0  0  0  0  0  0  0  0  0  0
  140.4290   67.6611  224.8936 H   0  0  0  0  0  0  0  0  0  0  0  0
  140.6614   67.0528  226.6121 H   0  0  0  0  0  0  0  0  0  0  0  0
  138.2580   68.2620  225.6820 H   0  0  0  0  0  0  0  0  0  0  0  0
  142.5006   73.1613  220.2438 H   0  0  0  0  0  0  0  0  0  0  0  0
  142.9688   75.5099  219.7157 H   0  0  0  0  0  0  0  0  0  0  0  0
  142.5025   77.8607  220.0024 H   0  0  0  0  0  0  0  0  0  0  0  0
  139.3653   78.9706  222.6680 H   0  0  0  0  0  0  0  0  0  0  0  0
  138.8813   76.6174  223.2074 H   0  0  0  0  0  0  0  0  0  0  0  0
  1  2  2  0
  2  3  1  0
  3  4  1  0
  4  5  1  0
  5  6  2  0
  5  7  1  0
  7  8  1  0
  8  9  1  0
  9 10  1  0
 10 11  1  0
 11 12  1  0
 12 13  1  0
 13 14  1  0
  2 15  1  0
 15 16  2  0
 16 17  1  0
 17 18  2  0
 18 19  1  0
 19 20  2  0
 20 21  1  0
 20 22  1  0
 22 23  2  0
 23 24  1  0
 24 25  2  0
 12  7  1  0
 25 15  1  0
 24 18  1  0
  3 26  1  0
  4 27  1  0
  4 28  1  0
  8 29  1  0
  8 30  1  0
  9 31  1  0
  9 32  1  0
 10 33  1  0
 10 34  1  0
 11 35  1  0
 11 36  1  0
 12 37  1  1
 13 38  1  0
 13 39  1  0
 14 40  1  0
 16 41  1  0
 17 42  1  0
 19 43  1  0
 22 44  1  0
 23 45  1  0
M  END
>  <smiles>  (15) 
O=C(NCC(=O)N1CCCC[C@H]1CO)c1ccc2cc(F)ccc2n1

>  <score_type>  (15) 
oracle

>  <origin>  (15) 
autodockgpu

>  <m_score__min__energy>  (15) 
-7.9100000000000001

>  <m_primary>  (15) 
energy

>  <rmsd>  (15) 
8.626989127051491

>  <m_score__min__rmsd>  (15) 
8.626989127051491

>  <meeko>  (15) 
{"free_energy": -7.35, "intermolecular_energy": -9.14, "internal_energy": -1.98, "cluster_size": 33, "cluster_id": 1, "rank_in_cluster": 18}

>  <energy>  (15) 
-7.36

>  <cluster_rmsd>  (15) 
0.67

>  <cluster>  (15) 
1

$$$$

     RDKit          3D

 45 47  0  0  0  0  0  0  0  0999 V2000
  141.4300   71.6640  221.1360 O   0  0  0  0  0  0  0  0  0  0  0  0
  140.7570   72.5730  221.7220 C   0  0  0  0  0  0  0  0  0  0  0  0
  139.7590   72.2020  222.6810 N   0  0  0  0  0  0  0  0  0  0  0  0
  139.5290   70.8130  222.9710 C   0  0  0  0  0  0  0  0  0  0  0  0
  139.0950   70.5820  224.3650 C   0  0  0  0  0  0  0  0  0  0  0  0
  137.8580   70.5520  224.5860 O   0  0  0  0  0  0  0  0  0  0  0  0
  140.0850   70.4110  225.3680 N   0  0  0  0  0  0  0  0  0  0  0  0
  140.9840   71.5180  225.7370 C   0  0  0  0  0  0  0  0  0  0  0  0
  140.9420   71.7550  227.2300 C   0  0  0  0  0  0  0  0  0  0  0  0
  140.8440   70.5120  228.0340 C   0  0  0  0  0  0  0  0  0  0  0  0
  139.8700   69.4820  227.5130 C   0  0  0  0  0  0  0  0  0  0  0  0
  140.2930   69.1740  226.0930 C   0  0  1  0  0  0  0  0  0  0  0  0
  139.6050   67.9820  225.5280 C   0  0  0  0  0  0  0  0  0  0  0  0
  139.1960   67.0620  226.4520 O   0  0  0  0  0  0  0  0  0  0  0  0
  140.9850   73.9860  221.4300 C   0  0  0  0  0  0  0  0  0  0  0  0
  141.9360   74.3210  220.4850 C   0  0  0  0  0  0  0  0  0  0  0  0
  142.1950   75.6290  220.1700 C   0  0  0  0  0  0  0  0  0  0  0  0
  141.5100   76.6540  220.7920 C   0  0  0  0  0  0  0  0  0  0  0  0
  141.7730   77.9670  220.4710 C   0  0  0  0  0  0  0  0  0  0  0  0
  141.0620   78.9570  221.1190 C   0  0  0  0  0  0  0  0  0  0  0  0
  141.3370   80.2350  220.7900 F   0  0  0  0  0  0  0  0  0  0  0  0
  140.1350   78.5810  222.0450 C   0  0  0  0  0  0  0  0  0  0  0  0
  139.8560   77.2720  222.3800 C   0  0  0  0  0  0  0  0  0  0  0  0
  140.5650   76.2800  221.7340 C   0  0  0  0  0  0  0  0  0  0  0  0
  140.3290   74.9750  222.0260 N   0  0  0  0  0  0  0  0  0  0  0  0
  139.2340   72.9840  223.1320 H   0  0  0  0  0  0  0  0  0  0  0  0
  138.7483   70.4373  222.2932 H   0  0  0  0  0  0  0  0  0  0  0  0
  140.4826   70.2833  222.8294 H   0  0  0  0  0  0  0  0  0  0  0  0
  142.0121   71.2649  225.4388 H   0  0  0  0  0  0  0  0  0  0  0  0
  140.6553   72.4321  225.2209 H   0  0  0  0  0  0  0  0  0  0  0  0
  141.8605   72.2850  227.5224 H   0  0  0  0  0  0  0  0  0  0  0  0
  140.0332   72.3399  227.4348 H   0  0  0  0  0  0  0  0  0  0  0  0
  141.8416   70.0498  228.0682 H   0  0  0  0  0  0  0  0  0  0  0  0
  140.4657   70.8169  229.0209 H   0  0  0  0  0  0  0  0  0  0  0  0
  139.9134   68.5716  228.1289 H   0  0  0  0  0  0  0  0  0  0  0  0
  138.8363   69.8565  227.5489 H   0  0  0  0  0  0  0  0  0  0  0  0
  141.3476   68.8690  226.0238 H   0  0  0  0  0  0  0  0  0  0  0  0
  138.7191   68.3286  224.9756 H   0  0  0  0  0  0  0  0  0  0  0  0
  140.3433   67.4726  224.8913 H   0  0  0  0  0  0  0  0  0  0  0  0
  139.8980   66.6380  226.9680 H   0  0  0  0  0  0  0  0  0  0  0  0
  142.4957   73.5224  219.9761 H   0  0  0  0  0  0  0  0  0  0  0  0
  142.9573   75.8653  219.4130 H   0  0  0  0  0  0  0  0  0  0  0  0
  142.5317   78.2209  219.7161 H   0  0  0  0  0  0  0  0  0  0  0  0
  139.5720   79.3738  222.5593 H   0  0  0  0  0  0  0  0  0  0  0  0
  139.0949   77.0277  223.1357 H   0  0  0  0  0  0  0  0  0  0  0  0
  1  2  2  0
  2  3  1  0
  3  4  1  0
  4  5  1  0
  5  6  2  0
  5  7  1  0
  7  8  1  0
  8  9  1  0
  9 10  1  0
 10 11  1  0
 11 12  1  0
 12 13  1  0
 13 14  1  0
  2 15  1  0
 15 16  2  0
 16 17  1  0
 17 18  2  0
 18 19  1  0
 19 20  2  0
 20 21  1  0
 20 22  1  0
 22 23  2  0
 23 24  1  0
 24 25  2  0
 12  7  1  0
 25 15  1  0
 24 18  1  0
  3 26  1  0
  4 27  1  0
  4 28  1  0
  8 29  1  0
  8 30  1  0
  9 31  1  0
  9 32  1  0
 10 33  1  0
 10 34  1  0
 11 35  1  0
 11 36  1  0
 12 37  1  1
 13 38  1  0
 13 39  1  0
 14 40  1  0
 16 41  1  0
 17 42  1  0
 19 43  1  0
 22 44  1  0
 23 45  1  0
M  END
>  <smiles>  (16) 
O=C(NCC(=O)N1CCCC[C@H]1CO)c1ccc2cc(F)ccc2n1

>  <score_type>  (16) 
oracle

>  <origin>  (16) 
autodockgpu

>  <m_score__min__energy>  (16) 
-7.9100000000000001

>  <m_primary>  (16) 
energy

>  <rmsd>  (16) 
8.666198226765406

>  <m_score__min__rmsd>  (16) 
8.666198226765406

>  <meeko>  (16) 
{"free_energy": -7.91, "intermolecular_energy": -9.69, "internal_energy": -1.28, "cluster_size": 33, "cluster_id": 1, "rank_in_cluster": 1}

>  <energy>  (16) 
-7.36

>  <cluster_rmsd>  (16) 
0.66

>  <cluster>  (16) 
1

$$$$

     RDKit          3D

 45 47  0  0  0  0  0  0  0  0999 V2000
  139.5770   72.9120  222.7370 O   0  0  0  0  0  0  0  0  0  0  0  0
  139.9970   71.7140  222.8450 C   0  0  0  0  0  0  0  0  0  0  0  0
  140.2620   70.9520  221.6600 N   0  0  0  0  0  0  0  0  0  0  0  0
  140.0510   71.5450  220.3680 C   0  0  0  0  0  0  0  0  0  0  0  0
  140.5200   72.9440  220.2940 C   0  0  0  0  0  0  0  0  0  0  0  0
  139.6680   73.8220  220.0050 O   0  0  0  0  0  0  0  0  0  0  0  0
  141.8880   73.2190  220.5480 N   0  0  0  0  0  0  0  0  0  0  0  0
  142.8930   72.1410  220.5230 C   0  0  0  0  0  0  0  0  0  0  0  0
  144.0280   72.4990  219.5900 C   0  0  0  0  0  0  0  0  0  0  0  0
  144.4050   73.9340  219.6270 C   0  0  0  0  0  0  0  0  0  0  0  0
  143.2490   74.9050  219.6450 C   0  0  0  0  0  0  0  0  0  0  0  0
  142.4040   74.5400  220.8460 C   0  0  1  0  0  0  0  0  0  0  0  0
  141.3760   75.5660  221.1670 C   0  0  0  0  0  0  0  0  0  0  0  0
  140.5130   75.2210  222.1690 O   0  0  0  0  0  0  0  0  0  0  0  0
  140.2130   71.1060  224.1560 C   0  0  0  0  0  0  0  0  0  0  0  0
  140.6780   71.9010  225.1850 C   0  0  0  0  0  0  0  0  0  0  0  0
  140.8990   71.3880  226.4360 C   0  0  0  0  0  0  0  0  0  0  0  0
  140.6630   70.0530  226.7040 C   0  0  0  0  0  0  0  0  0  0  0  0
  140.8860   69.5420  227.9620 C   0  0  0  0  0  0  0  0  0  0  0  0
  140.6360   68.2030  228.1810 C   0  0  0  0  0  0  0  0  0  0  0  0
  140.8620   67.7230  229.4200 F   0  0  0  0  0  0  0  0  0  0  0  0
  140.1790   67.4550  227.1370 C   0  0  0  0  0  0  0  0  0  0  0  0
  139.9490   67.9480  225.8690 C   0  0  0  0  0  0  0  0  0  0  0  0
  140.1980   69.2860  225.6470 C   0  0  0  0  0  0  0  0  0  0  0  0
  139.9870   69.8230  224.4170 N   0  0  0  0  0  0  0  0  0  0  0  0
  140.6040   69.9750  221.8030 H   0  0  0  0  0  0  0  0  0  0  0  0
  140.5941   70.9526  219.6170 H   0  0  0  0  0  0  0  0  0  0  0  0
  138.9672   71.5498  220.1800 H   0  0  0  0  0  0  0  0  0  0  0  0
  143.2910   71.9931  221.5377 H   0  0  0  0  0  0  0  0  0  0  0  0
  142.4156   71.2167  220.1654 H   0  0  0  0  0  0  0  0  0  0  0  0
  144.9084   71.9020  219.8701 H   0  0  0  0  0  0  0  0  0  0  0  0
  143.6816   72.2854  218.5680 H   0  0  0  0  0  0  0  0  0  0  0  0
  145.0058   74.1042  220.5326 H   0  0  0  0  0  0  0  0  0  0  0  0
  144.9512   74.1290  218.6923 H   0  0  0  0  0  0  0  0  0  0  0  0
  143.6197   75.9363  219.7398 H   0  0  0  0  0  0  0  0  0  0  0  0
  142.6654   74.8480  218.7143 H   0  0  0  0  0  0  0  0  0  0  0  0
  142.9861   74.5169  221.7791 H   0  0  0  0  0  0  0  0  0  0  0  0
  141.8954   76.4885  221.4657 H   0  0  0  0  0  0  0  0  0  0  0  0
  140.7647   75.6850  220.2603 H   0  0  0  0  0  0  0  0  0  0  0  0
  140.0510   74.3770  222.0590 H   0  0  0  0  0  0  0  0  0  0  0  0
  140.8747   72.9667  224.9966 H   0  0  0  0  0  0  0  0  0  0  0  0
  141.2685   72.0462  227.2362 H   0  0  0  0  0  0  0  0  0  0  0  0
  141.2549   70.1859  228.7739 H   0  0  0  0  0  0  0  0  0  0  0  0
  139.9805   66.3882  227.3173 H   0  0  0  0  0  0  0  0  0  0  0  0
  139.5799   67.2964  225.0633 H   0  0  0  0  0  0  0  0  0  0  0  0
  1  2  2  0
  2  3  1  0
  3  4  1  0
  4  5  1  0
  5  6  2  0
  5  7  1  0
  7  8  1  0
  8  9  1  0
  9 10  1  0
 10 11  1  0
 11 12  1  0
 12 13  1  0
 13 14  1  0
  2 15  1  0
 15 16  2  0
 16 17  1  0
 17 18  2  0
 18 19  1  0
 19 20  2  0
 20 21  1  0
 20 22  1  0
 22 23  2  0
 23 24  1  0
 24 25  2  0
 12  7  1  0
 25 15  1  0
 24 18  1  0
  3 26  1  0
  4 27  1  0
  4 28  1  0
  8 29  1  0
  8 30  1  0
  9 31  1  0
  9 32  1  0
 10 33  1  0
 10 34  1  0
 11 35  1  0
 11 36  1  0
 12 37  1  1
 13 38  1  0
 13 39  1  0
 14 40  1  0
 16 41  1  0
 17 42  1  0
 19 43  1  0
 22 44  1  0
 23 45  1  0
M  END
>  <smiles>  (17) 
O=C(NCC(=O)N1CCCC[C@H]1CO)c1ccc2cc(F)ccc2n1

>  <score_type>  (17) 
oracle

>  <origin>  (17) 
autodockgpu

>  <m_score__min__energy>  (17) 
-7.9100000000000001

>  <m_primary>  (17) 
energy

>  <rmsd>  (17) 
3.720690819649111

>  <m_score__min__rmsd>  (17) 
3.720690819649111

>  <meeko>  (17) 
{"free_energy": -6.2, "intermolecular_energy": -7.99, "internal_energy": -2.37, "cluster_size": 15, "cluster_id": 2, "rank_in_cluster": 13}

>  <energy>  (17) 
-7.35

>  <cluster_rmsd>  (17) 
0.67

>  <cluster>  (17) 
1

$$$$

     RDKit          3D

 45 47  0  0  0  0  0  0  0  0999 V2000
  141.2840   71.2680  221.2360 O   0  0  0  0  0  0  0  0  0  0  0  0
  140.7130   72.1980  221.8920 C   0  0  0  0  0  0  0  0  0  0  0  0
  139.8160   71.8600  222.9570 N   0  0  0  0  0  0  0  0  0  0  0  0
  139.5710   70.4800  223.2730 C   0  0  0  0  0  0  0  0  0  0  0  0
  139.2100   70.2700  224.6910 C   0  0  0  0  0  0  0  0  0  0  0  0
  137.9930   70.0980  224.9560 O   0  0  0  0  0  0  0  0  0  0  0  0
  140.2420   70.2760  225.6650 N   0  0  0  0  0  0  0  0  0  0  0  0
  140.9610   71.5190  225.9960 C   0  0  0  0  0  0  0  0  0  0  0  0
  140.9230   71.7700  227.4870 C   0  0  0  0  0  0  0  0  0  0  0  0
  141.0490   70.5390  228.3060 C   0  0  0  0  0  0  0  0  0  0  0  0
  140.2390   69.3580  227.8250 C   0  0  0  0  0  0  0  0  0  0  0  0
  140.6660   69.1000  226.3980 C   0  0  1  0  0  0  0  0  0  0  0  0
  140.1650   67.8050  225.8660 C   0  0  0  0  0  0  0  0  0  0  0  0
  138.8370   67.5690  226.0850 O   0  0  0  0  0  0  0  0  0  0  0  0
  140.9570   73.6030  221.5750 C   0  0  0  0  0  0  0  0  0  0  0  0
  141.9300   73.9120  220.6440 C   0  0  0  0  0  0  0  0  0  0  0  0
  142.2040   75.2110  220.3060 C   0  0  0  0  0  0  0  0  0  0  0  0
  141.5130   76.2540  220.8910 C   0  0  0  0  0  0  0  0  0  0  0  0
  141.7920   77.5580  220.5480 C   0  0  0  0  0  0  0  0  0  0  0  0
  141.0750   78.5660  221.1590 C   0  0  0  0  0  0  0  0  0  0  0  0
  141.3650   79.8350  220.8080 F   0  0  0  0  0  0  0  0  0  0  0  0
  140.1260   78.2160  222.0730 C   0  0  0  0  0  0  0  0  0  0  0  0
  139.8310   76.9170  222.4300 C   0  0  0  0  0  0  0  0  0  0  0  0
  140.5460   75.9070  221.8210 C   0  0  0  0  0  0  0  0  0  0  0  0
  140.2950   74.6100  222.1360 N   0  0  0  0  0  0  0  0  0  0  0  0
  139.3730   72.6600  223.4640 H   0  0  0  0  0  0  0  0  0  0  0  0
  138.7455   70.1169  222.6432 H   0  0  0  0  0  0  0  0  0  0  0  0
  140.5033   69.9276  223.0844 H   0  0  0  0  0  0  0  0  0  0  0  0
  142.0078   71.4297  225.6702 H   0  0  0  0  0  0  0  0  0  0  0  0
  140.4746   72.3602  225.4804 H   0  0  0  0  0  0  0  0  0  0  0  0
  141.7520   72.4450  227.7461 H   0  0  0  0  0  0  0  0  0  0  0  0
  139.9384   72.2053  227.7131 H   0  0  0  0  0  0  0  0  0  0  0  0
  142.1085   70.2435  228.3147 H   0  0  0  0  0  0  0  0  0  0  0  0
  140.6544   70.7937  229.3007 H   0  0  0  0  0  0  0  0  0  0  0  0
  140.4450   68.4759  228.4491 H   0  0  0  0  0  0  0  0  0  0  0  0
  139.1600   69.5627  227.8874 H   0  0  0  0  0  0  0  0  0  0  0  0
  141.7537   68.9673  226.3021 H   0  0  0  0  0  0  0  0  0  0  0  0
  140.3402   67.7908  224.7801 H   0  0  0  0  0  0  0  0  0  0  0  0
  140.7117   67.0174  226.4052 H   0  0  0  0  0  0  0  0  0  0  0  0
  138.2270   68.2550  225.7740 H   0  0  0  0  0  0  0  0  0  0  0  0
  142.4956   73.0992  220.1649 H   0  0  0  0  0  0  0  0  0  0  0  0
  142.9834   75.4258  219.5601 H   0  0  0  0  0  0  0  0  0  0  0  0
  142.5684   77.7906  219.8043 H   0  0  0  0  0  0  0  0  0  0  0  0
  139.5578   79.0234  222.5580 H   0  0  0  0  0  0  0  0  0  0  0  0
  139.0525   76.6942  223.1745 H   0  0  0  0  0  0  0  0  0  0  0  0
  1  2  2  0
  2  3  1  0
  3  4  1  0
  4  5  1  0
  5  6  2  0
  5  7  1  0
  7  8  1  0
  8  9  1  0
  9 10  1  0
 10 11  1  0
 11 12  1  0
 12 13  1  0
 13 14  1  0
  2 15  1  0
 15 16  2  0
 16 17  1  0
 17 18  2  0
 18 19  1  0
 19 20  2  0
 20 21  1  0
 20 22  1  0
 22 23  2  0
 23 24  1  0
 24 25  2  0
 12  7  1  0
 25 15  1  0
 24 18  1  0
  3 26  1  0
  4 27  1  0
  4 28  1  0
  8 29  1  0
  8 30  1  0
  9 31  1  0
  9 32  1  0
 10 33  1  0
 10 34  1  0
 11 35  1  0
 11 36  1  0
 12 37  1  1
 13 38  1  0
 13 39  1  0
 14 40  1  0
 16 41  1  0
 17 42  1  0
 19 43  1  0
 22 44  1  0
 23 45  1  0
M  END
>  <smiles>  (18) 
O=C(NCC(=O)N1CCCC[C@H]1CO)c1ccc2cc(F)ccc2n1

>  <score_type>  (18) 
oracle

>  <origin>  (18) 
autodockgpu

>  <m_score__min__energy>  (18) 
-7.9100000000000001

>  <m_primary>  (18) 
energy

>  <rmsd>  (18) 
8.677364640680596

>  <m_score__min__rmsd>  (18) 
8.677364640680596

>  <meeko>  (18) 
{"free_energy": -7.36, "intermolecular_energy": -9.15, "internal_energy": -1.99, "cluster_size": 33, "cluster_id": 1, "rank_in_cluster": 15}

>  <energy>  (18) 
-7.35

>  <cluster_rmsd>  (18) 
0.69

>  <cluster>  (18) 
1

$$$$

     RDKit          3D

 45 47  0  0  0  0  0  0  0  0999 V2000
  141.0350   71.2050  221.3150 O   0  0  0  0  0  0  0  0  0  0  0  0
  140.4540   72.1420  221.9540 C   0  0  0  0  0  0  0  0  0  0  0  0
  139.4810   71.8130  222.9540 N   0  0  0  0  0  0  0  0  0  0  0  0
  139.1710   70.4360  223.2230 C   0  0  0  0  0  0  0  0  0  0  0  0
  138.8990   70.1770  224.6520 C   0  0  0  0  0  0  0  0  0  0  0  0
  137.7070   69.9490  224.9800 O   0  0  0  0  0  0  0  0  0  0  0  0
  139.9830   70.2000  225.5670 N   0  0  0  0  0  0  0  0  0  0  0  0
  140.9890   71.2750  225.5190 C   0  0  0  0  0  0  0  0  0  0  0  0
  141.1340   71.9240  226.8770 C   0  0  0  0  0  0  0  0  0  0  0  0
  141.0470   70.9710  228.0110 C   0  0  0  0  0  0  0  0  0  0  0  0
  139.9540   69.9340  227.8990 C   0  0  0  0  0  0  0  0  0  0  0  0
  140.1910   69.2020  226.5970 C   0  0  1  0  0  0  0  0  0  0  0  0
  139.3670   67.9700  226.4640 C   0  0  0  0  0  0  0  0  0  0  0  0
  139.2120   67.5180  225.1840 O   0  0  0  0  0  0  0  0  0  0  0  0
  140.7640   73.5430  221.6850 C   0  0  0  0  0  0  0  0  0  0  0  0
  141.8100   73.8370  220.8310 C   0  0  0  0  0  0  0  0  0  0  0  0
  142.1480   75.1320  220.5410 C   0  0  0  0  0  0  0  0  0  0  0  0
  141.4500   76.1870  221.0960 C   0  0  0  0  0  0  0  0  0  0  0  0
  141.7930   77.4870  220.8010 C   0  0  0  0  0  0  0  0  0  0  0  0
  141.0660   78.5070  221.3800 C   0  0  0  0  0  0  0  0  0  0  0  0
  141.4200   79.7710  221.0780 F   0  0  0  0  0  0  0  0  0  0  0  0
  140.0430   78.1710  222.2170 C   0  0  0  0  0  0  0  0  0  0  0  0
  139.6830   76.8750  222.5260 C   0  0  0  0  0  0  0  0  0  0  0  0
  140.4090   75.8540  221.9480 C   0  0  0  0  0  0  0  0  0  0  0  0
  140.0950   74.5600  222.2180 N   0  0  0  0  0  0  0  0  0  0  0  0
  139.0330   72.6170  223.4490 H   0  0  0  0  0  0  0  0  0  0  0  0
  138.2813   70.1560  222.6399 H   0  0  0  0  0  0  0  0  0  0  0  0
  140.0501   69.8382  222.9404 H   0  0  0  0  0  0  0  0  0  0  0  0
  141.9575   70.8514  225.2147 H   0  0  0  0  0  0  0  0  0  0  0  0
  140.6636   72.0353  224.7937 H   0  0  0  0  0  0  0  0  0  0  0  0
  142.1128   72.4241  226.9192 H   0  0  0  0  0  0  0  0  0  0  0  0
  140.2954   72.6275  226.9860 H   0  0  0  0  0  0  0  0  0  0  0  0
  142.0095   70.4438  228.0868 H   0  0  0  0  0  0  0  0  0  0  0  0
  140.8047   71.5744  228.8982 H   0  0  0  0  0  0  0  0  0  0  0  0
  140.0070   69.2326  228.7448 H   0  0  0  0  0  0  0  0  0  0  0  0
  138.9582   70.4009  227.9182 H   0  0  0  0  0  0  0  0  0  0  0  0
  141.2088   68.7911  226.5245 H   0  0  0  0  0  0  0  0  0  0  0  0
  139.8458   67.1733  227.0523 H   0  0  0  0  0  0  0  0  0  0  0  0
  138.3607   68.2311  226.8234 H   0  0  0  0  0  0  0  0  0  0  0  0
  138.5360   67.9680  224.6550 H   0  0  0  0  0  0  0  0  0  0  0  0
  142.3820   73.0152  220.3755 H   0  0  0  0  0  0  0  0  0  0  0  0
  142.9858   75.3347  219.8576 H   0  0  0  0  0  0  0  0  0  0  0  0
  142.6276   77.7078  220.1193 H   0  0  0  0  0  0  0  0  0  0  0  0
  139.4664   78.9874  222.6764 H   0  0  0  0  0  0  0  0  0  0  0  0
  138.8469   76.6636  223.2089 H   0  0  0  0  0  0  0  0  0  0  0  0
  1  2  2  0
  2  3  1  0
  3  4  1  0
  4  5  1  0
  5  6  2  0
  5  7  1  0
  7  8  1  0
  8  9  1  0
  9 10  1  0
 10 11  1  0
 11 12  1  0
 12 13  1  0
 13 14  1  0
  2 15  1  0
 15 16  2  0
 16 17  1  0
 17 18  2  0
 18 19  1  0
 19 20  2  0
 20 21  1  0
 20 22  1  0
 22 23  2  0
 23 24  1  0
 24 25  2  0
 12  7  1  0
 25 15  1  0
 24 18  1  0
  3 26  1  0
  4 27  1  0
  4 28  1  0
  8 29  1  0
  8 30  1  0
  9 31  1  0
  9 32  1  0
 10 33  1  0
 10 34  1  0
 11 35  1  0
 11 36  1  0
 12 37  1  1
 13 38  1  0
 13 39  1  0
 14 40  1  0
 16 41  1  0
 17 42  1  0
 19 43  1  0
 22 44  1  0
 23 45  1  0
M  END
>  <smiles>  (19) 
O=C(NCC(=O)N1CCCC[C@H]1CO)c1ccc2cc(F)ccc2n1

>  <score_type>  (19) 
oracle

>  <origin>  (19) 
autodockgpu

>  <m_score__min__energy>  (19) 
-7.9100000000000001

>  <m_primary>  (19) 
energy

>  <rmsd>  (19) 
8.598844102850105

>  <m_score__min__rmsd>  (19) 
8.598844102850105

>  <meeko>  (19) 
{"free_energy": -7.5, "intermolecular_energy": -9.29, "internal_energy": -1.85, "cluster_size": 33, "cluster_id": 1, "rank_in_cluster": 9}

>  <energy>  (19) 
-7.35

>  <cluster_rmsd>  (19) 
0.67

>  <cluster>  (19) 
1

$$$$

     RDKit          3D

 45 47  0  0  0  0  0  0  0  0999 V2000
  137.5940   71.7150  221.9770 O   0  0  0  0  0  0  0  0  0  0  0  0
  138.6500   72.3620  222.2770 C   0  0  0  0  0  0  0  0  0  0  0  0
  139.7340   71.6810  222.9190 N   0  0  0  0  0  0  0  0  0  0  0  0
  139.6210   70.2800  223.2190 C   0  0  0  0  0  0  0  0  0  0  0  0
  139.1900   70.0220  224.6090 C   0  0  0  0  0  0  0  0  0  0  0  0
  137.9780   69.7450  224.7940 O   0  0  0  0  0  0  0  0  0  0  0  0
  140.1540   70.1020  225.6470 N   0  0  0  0  0  0  0  0  0  0  0  0
  141.1270   71.2080  225.6900 C   0  0  0  0  0  0  0  0  0  0  0  0
  141.0860   71.8930  227.0380 C   0  0  0  0  0  0  0  0  0  0  0  0
  140.8900   70.9640  228.1790 C   0  0  0  0  0  0  0  0  0  0  0  0
  139.8500   69.8910  227.9650 C   0  0  0  0  0  0  0  0  0  0  0  0
  140.2650   69.1360  226.7210 C   0  0  1  0  0  0  0  0  0  0  0  0
  139.4990   67.8760  226.5240 C   0  0  0  0  0  0  0  0  0  0  0  0
  139.5290   67.3790  225.2510 O   0  0  0  0  0  0  0  0  0  0  0  0
  138.7710   73.7860  221.9760 C   0  0  0  0  0  0  0  0  0  0  0  0
  137.7190   74.4210  221.3440 C   0  0  0  0  0  0  0  0  0  0  0  0
  137.7750   75.7550  221.0360 C   0  0  0  0  0  0  0  0  0  0  0  0
  138.8910   76.5060  221.3500 C   0  0  0  0  0  0  0  0  0  0  0  0
  138.9420   77.8460  221.0390 C   0  0  0  0  0  0  0  0  0  0  0  0
  140.0780   78.5560  221.3720 C   0  0  0  0  0  0  0  0  0  0  0  0
  140.1070   79.8660  221.0580 F   0  0  0  0  0  0  0  0  0  0  0  0
  141.0920   77.8890  221.9940 C   0  0  0  0  0  0  0  0  0  0  0  0
  141.0600   76.5470  222.3150 C   0  0  0  0  0  0  0  0  0  0  0  0
  139.9260   75.8360  221.9820 C   0  0  0  0  0  0  0  0  0  0  0  0
  139.8430   74.5120  222.2760 N   0  0  0  0  0  0  0  0  0  0  0  0
  140.5770   72.2560  223.1450 H   0  0  0  0  0  0  0  0  0  0  0  0
  138.8850   69.8328  222.5347 H   0  0  0  0  0  0  0  0  0  0  0  0
  140.6191   69.8345  223.0950 H   0  0  0  0  0  0  0  0  0  0  0  0
  142.1373   70.8091  225.5165 H   0  0  0  0  0  0  0  0  0  0  0  0
  140.8709   71.9397  224.9096 H   0  0  0  0  0  0  0  0  0  0  0  0
  142.0370   72.4260  227.1847 H   0  0  0  0  0  0  0  0  0  0  0  0
  140.2196   72.5707  227.0256 H   0  0  0  0  0  0  0  0  0  0  0  0
  141.8511   70.4698  228.3840 H   0  0  0  0  0  0  0  0  0  0  0  0
  140.5246   71.5800  229.0139 H   0  0  0  0  0  0  0  0  0  0  0  0
  139.8203   69.2120  228.8299 H   0  0  0  0  0  0  0  0  0  0  0  0
  138.8460   70.3257  227.8513 H   0  0  0  0  0  0  0  0  0  0  0  0
  141.2956   68.7565  226.7825 H   0  0  0  0  0  0  0  0  0  0  0  0
  139.9154   67.1135  227.1987 H   0  0  0  0  0  0  0  0  0  0  0  0
  138.4471   68.1171  226.7371 H   0  0  0  0  0  0  0  0  0  0  0  0
  138.9280   67.7990  224.6180 H   0  0  0  0  0  0  0  0  0  0  0  0
  136.8192   73.8445  221.0831 H   0  0  0  0  0  0  0  0  0  0  0  0
  136.9216   76.2333  220.5330 H   0  0  0  0  0  0  0  0  0  0  0  0
  138.0970   78.3396  220.5367 H   0  0  0  0  0  0  0  0  0  0  0  0
  141.9955   78.4585  222.2574 H   0  0  0  0  0  0  0  0  0  0  0  0
  141.9090   76.0616  222.8187 H   0  0  0  0  0  0  0  0  0  0  0  0
  1  2  2  0
  2  3  1  0
  3  4  1  0
  4  5  1  0
  5  6  2  0
  5  7  1  0
  7  8  1  0
  8  9  1  0
  9 10  1  0
 10 11  1  0
 11 12  1  0
 12 13  1  0
 13 14  1  0
  2 15  1  0
 15 16  2  0
 16 17  1  0
 17 18  2  0
 18 19  1  0
 19 20  2  0
 20 21  1  0
 20 22  1  0
 22 23  2  0
 23 24  1  0
 24 25  2  0
 12  7  1  0
 25 15  1  0
 24 18  1  0
  3 26  1  0
  4 27  1  0
  4 28  1  0
  8 29  1  0
  8 30  1  0
  9 31  1  0
  9 32  1  0
 10 33  1  0
 10 34  1  0
 11 35  1  0
 11 36  1  0
 12 37  1  1
 13 38  1  0
 13 39  1  0
 14 40  1  0
 16 41  1  0
 17 42  1  0
 19 43  1  0
 22 44  1  0
 23 45  1  0
M  END
>  <smiles>  (20) 
O=C(NCC(=O)N1CCCC[C@H]1CO)c1ccc2cc(F)ccc2n1

>  <score_type>  (20) 
oracle

>  <origin>  (20) 
autodockgpu

>  <m_score__min__energy>  (20) 
-7.9100000000000001

>  <m_primary>  (20) 
energy

>  <rmsd>  (20) 
8.635820545291446

>  <m_score__min__rmsd>  (20) 
8.635820545291446

>  <meeko>  (20) 
{"free_energy": -6.39, "intermolecular_energy": -8.18, "internal_energy": -1.84, "cluster_size": 33, "cluster_id": 1, "rank_in_cluster": 33}

>  <energy>  (20) 
-7.35

>  <cluster_rmsd>  (20) 
0.68

>  <cluster>  (20) 
1

$$$$

     RDKit          3D

 45 47  0  0  0  0  0  0  0  0999 V2000
  141.2970   71.3330  221.3480 O   0  0  0  0  0  0  0  0  0  0  0  0
  140.6660   72.2440  221.9750 C   0  0  0  0  0  0  0  0  0  0  0  0
  139.7140   71.8760  222.9810 N   0  0  0  0  0  0  0  0  0  0  0  0
  139.4800   70.4880  223.2690 C   0  0  0  0  0  0  0  0  0  0  0  0
  139.0580   70.2550  224.6660 C   0  0  0  0  0  0  0  0  0  0  0  0
  137.8290   70.0950  224.8780 O   0  0  0  0  0  0  0  0  0  0  0  0
  140.0480   70.2260  225.6820 N   0  0  0  0  0  0  0  0  0  0  0  0
  141.0840   71.2710  225.7570 C   0  0  0  0  0  0  0  0  0  0  0  0
  141.1140   71.8870  227.1370 C   0  0  0  0  0  0  0  0  0  0  0  0
  140.8910   70.9130  228.2350 C   0  0  0  0  0  0  0  0  0  0  0  0
  139.7850   69.9130  227.9940 C   0  0  0  0  0  0  0  0  0  0  0  0
  140.1270   69.2010  226.7030 C   0  0  1  0  0  0  0  0  0  0  0  0
  139.2850   67.9980  226.4620 C   0  0  0  0  0  0  0  0  0  0  0  0
  139.2190   67.5950  225.1580 O   0  0  0  0  0  0  0  0  0  0  0  0
  140.8980   73.6570  221.6860 C   0  0  0  0  0  0  0  0  0  0  0  0
  141.8960   73.9940  220.7920 C   0  0  0  0  0  0  0  0  0  0  0  0
  142.1610   75.3020  220.4800 C   0  0  0  0  0  0  0  0  0  0  0  0
  141.4340   76.3260  221.0550 C   0  0  0  0  0  0  0  0  0  0  0  0
  141.7030   77.6380  220.7390 C   0  0  0  0  0  0  0  0  0  0  0  0
  140.9490   78.6270  221.3390 C   0  0  0  0  0  0  0  0  0  0  0  0
  141.2300   79.9040  221.0160 F   0  0  0  0  0  0  0  0  0  0  0  0
  139.9750   78.2490  222.2160 C   0  0  0  0  0  0  0  0  0  0  0  0
  139.6900   76.9400  222.5460 C   0  0  0  0  0  0  0  0  0  0  0  0
  140.4420   75.9500  221.9480 C   0  0  0  0  0  0  0  0  0  0  0  0
  140.2010   74.6450  222.2370 N   0  0  0  0  0  0  0  0  0  0  0  0
  139.2230   72.6610  223.4650 H   0  0  0  0  0  0  0  0  0  0  0  0
  138.6912   70.1181  222.5975 H   0  0  0  0  0  0  0  0  0  0  0  0
  140.4297   69.9541  223.1170 H   0  0  0  0  0  0  0  0  0  0  0  0
  142.0653   70.8246  225.5382 H   0  0  0  0  0  0  0  0  0  0  0  0
  140.8525   72.0556  225.0216 H   0  0  0  0  0  0  0  0  0  0  0  0
  142.0974   72.3570  227.2853 H   0  0  0  0  0  0  0  0  0  0  0  0
  140.2884   72.6126  227.1810 H   0  0  0  0  0  0  0  0  0  0  0  0
  141.8263   70.3550  228.3899 H   0  0  0  0  0  0  0  0  0  0  0  0
  140.5819   71.5047  229.1093 H   0  0  0  0  0  0  0  0  0  0  0  0
  139.7356   69.1929  228.8241 H   0  0  0  0  0  0  0  0  0  0  0  0
  138.8056   70.4095  227.9284 H   0  0  0  0  0  0  0  0  0  0  0  0
  141.1350   68.7610  226.7192 H   0  0  0  0  0  0  0  0  0  0  0  0
  139.6961   67.1684  227.0559 H   0  0  0  0  0  0  0  0  0  0  0  0
  138.2607   68.2746  226.7522 H   0  0  0  0  0  0  0  0  0  0  0  0
  138.5900   68.0740  224.5980 H   0  0  0  0  0  0  0  0  0  0  0  0
  142.4898   73.1966  220.3212 H   0  0  0  0  0  0  0  0  0  0  0  0
  142.9615   75.5389  219.7637 H   0  0  0  0  0  0  0  0  0  0  0  0
  142.5001   77.8930  220.0251 H   0  0  0  0  0  0  0  0  0  0  0  0
  139.3771   79.0403  222.6917 H   0  0  0  0  0  0  0  0  0  0  0  0
  138.8910   76.6943  223.2610 H   0  0  0  0  0  0  0  0  0  0  0  0
  1  2  2  0
  2  3  1  0
  3  4  1  0
  4  5  1  0
  5  6  2  0
  5  7  1  0
  7  8  1  0
  8  9  1  0
  9 10  1  0
 10 11  1  0
 11 12  1  0
 12 13  1  0
 13 14  1  0
  2 15  1  0
 15 16  2  0
 16 17  1  0
 17 18  2  0
 18 19  1  0
 19 20  2  0
 20 21  1  0
 20 22  1  0
 22 23  2  0
 23 24  1  0
 24 25  2  0
 12  7  1  0
 25 15  1  0
 24 18  1  0
  3 26  1  0
  4 27  1  0
  4 28  1  0
  8 29  1  0
  8 30  1  0
  9 31  1  0
  9 32  1  0
 10 33  1  0
 10 34  1  0
 11 35  1  0
 11 36  1  0
 12 37  1  1
 13 38  1  0
 13 39  1  0
 14 40  1  0
 16 41  1  0
 17 42  1  0
 19 43  1  0
 22 44  1  0
 23 45  1  0
M  END
>  <smiles>  (21) 
O=C(NCC(=O)N1CCCC[C@H]1CO)c1ccc2cc(F)ccc2n1

>  <score_type>  (21) 
oracle

>  <origin>  (21) 
autodockgpu

>  <m_score__min__energy>  (21) 
-7.9100000000000001

>  <m_primary>  (21) 
energy

>  <rmsd>  (21) 
8.708713313072925

>  <m_score__min__rmsd>  (21) 
8.708713313072925

>  <meeko>  (21) 
{"free_energy": -7.42, "intermolecular_energy": -9.21, "internal_energy": -1.81, "cluster_size": 33, "cluster_id": 1, "rank_in_cluster": 12}

>  <energy>  (21) 
-7.34

>  <cluster_rmsd>  (21) 
0.67

>  <cluster>  (21) 
1

$$$$

     RDKit          3D

 45 47  0  0  0  0  0  0  0  0999 V2000
  141.2780   71.2640  221.2620 O   0  0  0  0  0  0  0  0  0  0  0  0
  140.6890   72.1880  221.9110 C   0  0  0  0  0  0  0  0  0  0  0  0
  139.7820   71.8400  222.9640 N   0  0  0  0  0  0  0  0  0  0  0  0
  139.5450   70.4580  223.2760 C   0  0  0  0  0  0  0  0  0  0  0  0
  139.1710   70.2430  224.6890 C   0  0  0  0  0  0  0  0  0  0  0  0
  137.9530   70.0540  224.9400 O   0  0  0  0  0  0  0  0  0  0  0  0
  140.1900   70.2630  225.6750 N   0  0  0  0  0  0  0  0  0  0  0  0
  140.8930   71.5140  226.0090 C   0  0  0  0  0  0  0  0  0  0  0  0
  140.8340   71.7710  227.4990 C   0  0  0  0  0  0  0  0  0  0  0  0
  140.9630   70.5440  228.3250 C   0  0  0  0  0  0  0  0  0  0  0  0
  140.1710   69.3540  227.8390 C   0  0  0  0  0  0  0  0  0  0  0  0
  140.6180   69.0940  226.4170 C   0  0  1  0  0  0  0  0  0  0  0  0
  140.1360   67.7920  225.8850 C   0  0  0  0  0  0  0  0  0  0  0  0
  138.8120   67.5360  226.1040 O   0  0  0  0  0  0  0  0  0  0  0  0
  140.9250   73.5960  221.5990 C   0  0  0  0  0  0  0  0  0  0  0  0
  141.8890   73.9130  220.6620 C   0  0  0  0  0  0  0  0  0  0  0  0
  142.1550   75.2150  220.3280 C   0  0  0  0  0  0  0  0  0  0  0  0
  141.4630   76.2520  220.9220 C   0  0  0  0  0  0  0  0  0  0  0  0
  141.7340   77.5590  220.5830 C   0  0  0  0  0  0  0  0  0  0  0  0
  141.0160   78.5610  221.2040 C   0  0  0  0  0  0  0  0  0  0  0  0
  141.2970   79.8320  220.8570 F   0  0  0  0  0  0  0  0  0  0  0  0
  140.0750   78.2020  222.1230 C   0  0  0  0  0  0  0  0  0  0  0  0
  139.7890   76.9000  222.4770 C   0  0  0  0  0  0  0  0  0  0  0  0
  140.5050   75.8960  221.8580 C   0  0  0  0  0  0  0  0  0  0  0  0
  140.2620   74.5960  222.1690 N   0  0  0  0  0  0  0  0  0  0  0  0
  139.3250   72.6350  223.4650 H   0  0  0  0  0  0  0  0  0  0  0  0
  138.7292   70.0889  222.6370 H   0  0  0  0  0  0  0  0  0  0  0  0
  140.4839   69.9137  223.0968 H   0  0  0  0  0  0  0  0  0  0  0  0
  141.9446   71.4333  225.6966 H   0  0  0  0  0  0  0  0  0  0  0  0
  140.4054   72.3484  225.4836 H   0  0  0  0  0  0  0  0  0  0  0  0
  141.6526   72.4559  227.7653 H   0  0  0  0  0  0  0  0  0  0  0  0
  139.8423   72.1969  227.7113 H   0  0  0  0  0  0  0  0  0  0  0  0
  142.0253   70.2593  228.3474 H   0  0  0  0  0  0  0  0  0  0  0  0
  140.5545   70.7984  229.3142 H   0  0  0  0  0  0  0  0  0  0  0  0
  140.3780   68.4764  228.4691 H   0  0  0  0  0  0  0  0  0  0  0  0
  139.0894   69.5486  227.8873 H   0  0  0  0  0  0  0  0  0  0  0  0
  141.7080   68.9716  226.3336 H   0  0  0  0  0  0  0  0  0  0  0  0
  140.3112   67.7806  224.7991 H   0  0  0  0  0  0  0  0  0  0  0  0
  140.6943   67.0126  226.4242 H   0  0  0  0  0  0  0  0  0  0  0  0
  138.1960   68.2370  225.8440 H   0  0  0  0  0  0  0  0  0  0  0  0
  142.4540   73.1048  220.1746 H   0  0  0  0  0  0  0  0  0  0  0  0
  142.9286   75.4368  219.5781 H   0  0  0  0  0  0  0  0  0  0  0  0
  142.5043   77.7987  219.8352 H   0  0  0  0  0  0  0  0  0  0  0  0
  139.5058   79.0045  222.6150 H   0  0  0  0  0  0  0  0  0  0  0  0
  139.0173   76.6701  223.2264 H   0  0  0  0  0  0  0  0  0  0  0  0
  1  2  2  0
  2  3  1  0
  3  4  1  0
  4  5  1  0
  5  6  2  0
  5  7  1  0
  7  8  1  0
  8  9  1  0
  9 10  1  0
 10 11  1  0
 11 12  1  0
 12 13  1  0
 13 14  1  0
  2 15  1  0
 15 16  2  0
 16 17  1  0
 17 18  2  0
 18 19  1  0
 19 20  2  0
 20 21  1  0
 20 22  1  0
 22 23  2  0
 23 24  1  0
 24 25  2  0
 12  7  1  0
 25 15  1  0
 24 18  1  0
  3 26  1  0
  4 27  1  0
  4 28  1  0
  8 29  1  0
  8 30  1  0
  9 31  1  0
  9 32  1  0
 10 33  1  0
 10 34  1  0
 11 35  1  0
 11 36  1  0
 12 37  1  1
 13 38  1  0
 13 39  1  0
 14 40  1  0
 16 41  1  0
 17 42  1  0
 19 43  1  0
 22 44  1  0
 23 45  1  0
M  END
>  <smiles>  (22) 
O=C(NCC(=O)N1CCCC[C@H]1CO)c1ccc2cc(F)ccc2n1

>  <score_type>  (22) 
oracle

>  <origin>  (22) 
autodockgpu

>  <m_score__min__energy>  (22) 
-7.9100000000000001

>  <m_primary>  (22) 
energy

>  <rmsd>  (22) 
8.6707884429685

>  <m_score__min__rmsd>  (22) 
8.6707884429685

>  <meeko>  (22) 
{"free_energy": -7.34, "intermolecular_energy": -9.13, "internal_energy": -1.99, "cluster_size": 33, "cluster_id": 1, "rank_in_cluster": 21}

>  <energy>  (22) 
-7.34

>  <cluster_rmsd>  (22) 
0.68

>  <cluster>  (22) 
1

$$$$

     RDKit          3D

 45 47  0  0  0  0  0  0  0  0999 V2000
  141.2680   71.2790  221.3510 O   0  0  0  0  0  0  0  0  0  0  0  0
  140.6350   72.1960  221.9680 C   0  0  0  0  0  0  0  0  0  0  0  0
  139.6630   71.8360  222.9570 N   0  0  0  0  0  0  0  0  0  0  0  0
  139.4120   70.4500  223.2410 C   0  0  0  0  0  0  0  0  0  0  0  0
  139.1130   70.2010  224.6670 C   0  0  0  0  0  0  0  0  0  0  0  0
  137.9170   69.9590  224.9710 O   0  0  0  0  0  0  0  0  0  0  0  0
  140.1760   70.2500  225.6060 N   0  0  0  0  0  0  0  0  0  0  0  0
  140.8820   71.5130  225.8820 C   0  0  0  0  0  0  0  0  0  0  0  0
  140.8890   71.8010  227.3670 C   0  0  0  0  0  0  0  0  0  0  0  0
  141.0660   70.5930  228.2110 C   0  0  0  0  0  0  0  0  0  0  0  0
  140.2630   69.3860  227.7860 C   0  0  0  0  0  0  0  0  0  0  0  0
  140.6470   69.1000  226.3510 C   0  0  1  0  0  0  0  0  0  0  0  0
  140.1530   67.7830  225.8680 C   0  0  0  0  0  0  0  0  0  0  0  0
  138.8270   67.5480  226.0970 O   0  0  0  0  0  0  0  0  0  0  0  0
  140.8840   73.6070  221.6820 C   0  0  0  0  0  0  0  0  0  0  0  0
  141.8960   73.9350  220.8010 C   0  0  0  0  0  0  0  0  0  0  0  0
  142.1770   75.2400  220.4940 C   0  0  0  0  0  0  0  0  0  0  0  0
  141.4530   76.2700  221.0610 C   0  0  0  0  0  0  0  0  0  0  0  0
  141.7390   77.5810  220.7500 C   0  0  0  0  0  0  0  0  0  0  0  0
  140.9870   78.5760  221.3420 C   0  0  0  0  0  0  0  0  0  0  0  0
  141.2840   79.8510  221.0230 F   0  0  0  0  0  0  0  0  0  0  0  0
  139.9990   78.2070  222.2060 C   0  0  0  0  0  0  0  0  0  0  0  0
  139.6970   76.9000  222.5310 C   0  0  0  0  0  0  0  0  0  0  0  0
  140.4470   75.9040  221.9410 C   0  0  0  0  0  0  0  0  0  0  0  0
  140.1900   74.6010  222.2260 N   0  0  0  0  0  0  0  0  0  0  0  0
  139.1710   72.6250  223.4340 H   0  0  0  0  0  0  0  0  0  0  0  0
  138.5533   70.1181  222.6390 H   0  0  0  0  0  0  0  0  0  0  0  0
  140.3261   69.8909  222.9924 H   0  0  0  0  0  0  0  0  0  0  0  0
  141.9189   71.4342  225.5234 H   0  0  0  0  0  0  0  0  0  0  0  0
  140.3630   72.3321  225.3627 H   0  0  0  0  0  0  0  0  0  0  0  0
  141.7131   72.4974  227.5813 H   0  0  0  0  0  0  0  0  0  0  0  0
  139.9045   72.2240  227.6158 H   0  0  0  0  0  0  0  0  0  0  0  0
  142.1307   70.3173  228.1909 H   0  0  0  0  0  0  0  0  0  0  0  0
  140.7003   70.8648  229.2122 H   0  0  0  0  0  0  0  0  0  0  0  0
  140.5064   68.5235  228.4239 H   0  0  0  0  0  0  0  0  0  0  0  0
  139.1830   69.5729  227.8797 H   0  0  0  0  0  0  0  0  0  0  0  0
  141.7330   68.9841  226.2203 H   0  0  0  0  0  0  0  0  0  0  0  0
  140.3274   67.7293  224.7832 H   0  0  0  0  0  0  0  0  0  0  0  0
  140.7047   67.0190  226.4354 H   0  0  0  0  0  0  0  0  0  0  0  0
  138.2210   68.2670  225.8620 H   0  0  0  0  0  0  0  0  0  0  0  0
  142.4879   73.1324  220.3368 H   0  0  0  0  0  0  0  0  0  0  0  0
  142.9885   75.4700  219.7879 H   0  0  0  0  0  0  0  0  0  0  0  0
  142.5474   77.8293  220.0466 H   0  0  0  0  0  0  0  0  0  0  0  0
  139.4030   79.0037  222.6751 H   0  0  0  0  0  0  0  0  0  0  0  0
  138.8868   76.6611  223.2357 H   0  0  0  0  0  0  0  0  0  0  0  0
  1  2  2  0
  2  3  1  0
  3  4  1  0
  4  5  1  0
  5  6  2  0
  5  7  1  0
  7  8  1  0
  8  9  1  0
  9 10  1  0
 10 11  1  0
 11 12  1  0
 12 13  1  0
 13 14  1  0
  2 15  1  0
 15 16  2  0
 16 17  1  0
 17 18  2  0
 18 19  1  0
 19 20  2  0
 20 21  1  0
 20 22  1  0
 22 23  2  0
 23 24  1  0
 24 25  2  0
 12  7  1  0
 25 15  1  0
 24 18  1  0
  3 26  1  0
  4 27  1  0
  4 28  1  0
  8 29  1  0
  8 30  1  0
  9 31  1  0
  9 32  1  0
 10 33  1  0
 10 34  1  0
 11 35  1  0
 11 36  1  0
 12 37  1  1
 13 38  1  0
 13 39  1  0
 14 40  1  0
 16 41  1  0
 17 42  1  0
 19 43  1  0
 22 44  1  0
 23 45  1  0
M  END
>  <smiles>  (23) 
O=C(NCC(=O)N1CCCC[C@H]1CO)c1ccc2cc(F)ccc2n1

>  <score_type>  (23) 
oracle

>  <origin>  (23) 
autodockgpu

>  <m_score__min__energy>  (23) 
-7.9100000000000001

>  <m_primary>  (23) 
energy

>  <rmsd>  (23) 
8.619355053609535

>  <m_score__min__rmsd>  (23) 
8.619355053609535

>  <meeko>  (23) 
{"free_energy": -7.34, "intermolecular_energy": -9.13, "internal_energy": -2.01, "cluster_size": 33, "cluster_id": 1, "rank_in_cluster": 22}

>  <energy>  (23) 
-7.33

>  <cluster_rmsd>  (23) 
0.67

>  <cluster>  (23) 
1

$$$$

     RDKit          3D

 45 47  0  0  0  0  0  0  0  0999 V2000
  141.4260   72.5110  221.8060 O   0  0  0  0  0  0  0  0  0  0  0  0
  140.3630   72.5130  222.5080 C   0  0  0  0  0  0  0  0  0  0  0  0
  139.2920   73.3980  222.1590 N   0  0  0  0  0  0  0  0  0  0  0  0
  139.4260   74.2720  221.0260 C   0  0  0  0  0  0  0  0  0  0  0  0
  140.5500   75.2220  221.1630 C   0  0  0  0  0  0  0  0  0  0  0  0
  141.0390   75.3740  222.3120 O   0  0  0  0  0  0  0  0  0  0  0  0
  141.0100   75.9050  220.0080 N   0  0  0  0  0  0  0  0  0  0  0  0
  140.2780   77.0700  219.4780 C   0  0  0  0  0  0  0  0  0  0  0  0
  141.2090   78.2520  219.3240 C   0  0  0  0  0  0  0  0  0  0  0  0
  142.5680   77.8880  218.8520 C   0  0  0  0  0  0  0  0  0  0  0  0
  143.1720   76.6670  219.5040 C   0  0  0  0  0  0  0  0  0  0  0  0
  142.1990   75.5320  219.2700 C   0  0  1  0  0  0  0  0  0  0  0  0
  142.7670   74.2000  219.6100 C   0  0  0  0  0  0  0  0  0  0  0  0
  143.3310   74.1160  220.8520 O   0  0  0  0  0  0  0  0  0  0  0  0
  140.2200   71.6290  223.6620 C   0  0  0  0  0  0  0  0  0  0  0  0
  139.5170   70.4490  223.5080 C   0  0  0  0  0  0  0  0  0  0  0  0
  139.3500   69.5790  224.5530 C   0  0  0  0  0  0  0  0  0  0  0  0
  139.8820   69.8590  225.7960 C   0  0  0  0  0  0  0  0  0  0  0  0
  139.7110   68.9820  226.8440 C   0  0  0  0  0  0  0  0  0  0  0  0
  140.2610   69.3050  228.0680 C   0  0  0  0  0  0  0  0  0  0  0  0
  140.0820   68.4320  229.0790 F   0  0  0  0  0  0  0  0  0  0  0  0
  140.9460   70.4790  228.1750 C   0  0  0  0  0  0  0  0  0  0  0  0
  141.1280   71.3710  227.1380 C   0  0  0  0  0  0  0  0  0  0  0  0
  140.5790   71.0510  225.9140 C   0  0  0  0  0  0  0  0  0  0  0  0
  140.7300   71.8940  224.8590 N   0  0  0  0  0  0  0  0  0  0  0  0
  138.4420   73.3620  222.7670 H   0  0  0  0  0  0  0  0  0  0  0  0
  139.5916   73.6593  220.1276 H   0  0  0  0  0  0  0  0  0  0  0  0
  138.5010   74.8629  220.9533 H   0  0  0  0  0  0  0  0  0  0  0  0
  139.8514   76.8144  218.4968 H   0  0  0  0  0  0  0  0  0  0  0  0
  139.4753   77.3372  220.1811 H   0  0  0  0  0  0  0  0  0  0  0  0
  140.7657   78.9502  218.5987 H   0  0  0  0  0  0  0  0  0  0  0  0
  141.3262   78.6990  220.3222 H   0  0  0  0  0  0  0  0  0  0  0  0
  142.5134   77.7031  217.7690 H   0  0  0  0  0  0  0  0  0  0  0  0
  143.2201   78.7315  219.1227 H   0  0  0  0  0  0  0  0  0  0  0  0
  144.1452   76.4340  219.0472 H   0  0  0  0  0  0  0  0  0  0  0  0
  143.3417   76.8315  220.5783 H   0  0  0  0  0  0  0  0  0  0  0  0
  141.9559   75.3983  218.2056 H   0  0  0  0  0  0  0  0  0  0  0  0
  141.9572   73.4579  219.5514 H   0  0  0  0  0  0  0  0  0  0  0  0
  143.5777   74.0168  218.8895 H   0  0  0  0  0  0  0  0  0  0  0  0
  142.7280   74.2430  221.6010 H   0  0  0  0  0  0  0  0  0  0  0  0
  139.0832   70.2037  222.5274 H   0  0  0  0  0  0  0  0  0  0  0  0
  138.7859   68.6471  224.4001 H   0  0  0  0  0  0  0  0  0  0  0  0
  139.1492   68.0460  226.7087 H   0  0  0  0  0  0  0  0  0  0  0  0
  141.3824   70.7318  229.1526 H   0  0  0  0  0  0  0  0  0  0  0  0
  141.6913   72.3047  227.2826 H   0  0  0  0  0  0  0  0  0  0  0  0
  1  2  2  0
  2  3  1  0
  3  4  1  0
  4  5  1  0
  5  6  2  0
  5  7  1  0
  7  8  1  0
  8  9  1  0
  9 10  1  0
 10 11  1  0
 11 12  1  0
 12 13  1  0
 13 14  1  0
  2 15  1  0
 15 16  2  0
 16 17  1  0
 17 18  2  0
 18 19  1  0
 19 20  2  0
 20 21  1  0
 20 22  1  0
 22 23  2  0
 23 24  1  0
 24 25  2  0
 12  7  1  0
 25 15  1  0
 24 18  1  0
  3 26  1  0
  4 27  1  0
  4 28  1  0
  8 29  1  0
  8 30  1  0
  9 31  1  0
  9 32  1  0
 10 33  1  0
 10 34  1  0
 11 35  1  0
 11 36  1  0
 12 37  1  6
 13 38  1  0
 13 39  1  0
 14 40  1  0
 16 41  1  0
 17 42  1  0
 19 43  1  0
 22 44  1  0
 23 45  1  0
M  END
>  <smiles>  (24) 
O=C(NCC(=O)N1CCCC[C@H]1CO)c1ccc2cc(F)ccc2n1

>  <score_type>  (24) 
oracle

>  <origin>  (24) 
autodockgpu

>  <m_score__min__energy>  (24) 
-7.9100000000000001

>  <m_primary>  (24) 
energy

>  <rmsd>  (24) 
2.0989170620388817

>  <m_score__min__rmsd>  (24) 
2.0989170620388817

>  <meeko>  (24) 
{"free_energy": -6.33, "intermolecular_energy": -8.12, "internal_energy": -2.37, "cluster_size": 15, "cluster_id": 2, "rank_in_cluster": 11}

>  <energy>  (24) 
-7.32

>  <cluster_rmsd>  (24) 
0.64

>  <cluster>  (24) 
1

$$$$

     RDKit          3D

 45 47  0  0  0  0  0  0  0  0999 V2000
  141.3180   71.2440  221.2480 O   0  0  0  0  0  0  0  0  0  0  0  0
  140.7510   72.1870  221.8900 C   0  0  0  0  0  0  0  0  0  0  0  0
  139.8430   71.8690  222.9510 N   0  0  0  0  0  0  0  0  0  0  0  0
  139.5810   70.4940  223.2790 C   0  0  0  0  0  0  0  0  0  0  0  0
  139.2170   70.3010  224.6980 C   0  0  0  0  0  0  0  0  0  0  0  0
  137.9960   70.1650  224.9670 O   0  0  0  0  0  0  0  0  0  0  0  0
  140.2500   70.2830  225.6710 N   0  0  0  0  0  0  0  0  0  0  0  0
  140.9790   71.5140  226.0220 C   0  0  0  0  0  0  0  0  0  0  0  0
  140.9450   71.7390  227.5170 C   0  0  0  0  0  0  0  0  0  0  0  0
  141.0640   70.4930  228.3140 C   0  0  0  0  0  0  0  0  0  0  0  0
  140.2450   69.3270  227.8140 C   0  0  0  0  0  0  0  0  0  0  0  0
  140.6680   69.0910  226.3810 C   0  0  1  0  0  0  0  0  0  0  0  0
  140.1570   67.8090  225.8270 C   0  0  0  0  0  0  0  0  0  0  0  0
  138.8370   67.5580  226.0830 O   0  0  0  0  0  0  0  0  0  0  0  0
  141.0120   73.5860  221.5610 C   0  0  0  0  0  0  0  0  0  0  0  0
  141.9630   73.8740  220.6000 C   0  0  0  0  0  0  0  0  0  0  0  0
  142.2520   75.1660  220.2500 C   0  0  0  0  0  0  0  0  0  0  0  0
  141.5970   76.2240  220.8500 C   0  0  0  0  0  0  0  0  0  0  0  0
  141.8900   77.5210  220.4940 C   0  0  0  0  0  0  0  0  0  0  0  0
  141.2100   78.5450  221.1220 C   0  0  0  0  0  0  0  0  0  0  0  0
  141.5130   79.8060  220.7590 F   0  0  0  0  0  0  0  0  0  0  0  0
  140.2810   78.2150  222.0640 C   0  0  0  0  0  0  0  0  0  0  0  0
  139.9730   76.9230  222.4350 C   0  0  0  0  0  0  0  0  0  0  0  0
  140.6510   75.8980  221.8090 C   0  0  0  0  0  0  0  0  0  0  0  0
  140.3850   74.6060  222.1360 N   0  0  0  0  0  0  0  0  0  0  0  0
  139.4040   72.6780  223.4460 H   0  0  0  0  0  0  0  0  0  0  0  0
  138.7514   70.1354  222.6519 H   0  0  0  0  0  0  0  0  0  0  0  0
  140.5066   69.9286  223.0957 H   0  0  0  0  0  0  0  0  0  0  0  0
  142.0246   71.4222  225.6930 H   0  0  0  0  0  0  0  0  0  0  0  0
  140.4988   72.3679  225.5218 H   0  0  0  0  0  0  0  0  0  0  0  0
  141.7789   72.4038  227.7865 H   0  0  0  0  0  0  0  0  0  0  0  0
  139.9638   72.1769  227.7524 H   0  0  0  0  0  0  0  0  0  0  0  0
  142.1214   70.1900  228.3152 H   0  0  0  0  0  0  0  0  0  0  0  0
  140.6733   70.7328  229.3139 H   0  0  0  0  0  0  0  0  0  0  0  0
  140.4457   68.4326  228.4221 H   0  0  0  0  0  0  0  0  0  0  0  0
  139.1676   69.5383  227.8820 H   0  0  0  0  0  0  0  0  0  0  0  0
  141.7545   68.9521  226.2799 H   0  0  0  0  0  0  0  0  0  0  0  0
  140.2961   67.8283  224.7360 H   0  0  0  0  0  0  0  0  0  0  0  0
  140.7258   67.0091  226.3236 H   0  0  0  0  0  0  0  0  0  0  0  0
  138.2200   68.2720  225.8650 H   0  0  0  0  0  0  0  0  0  0  0  0
  142.4981   73.0492  220.1068 H   0  0  0  0  0  0  0  0  0  0  0  0
  143.0145   75.3637  219.4822 H   0  0  0  0  0  0  0  0  0  0  0  0
  142.6484   77.7364  219.7269 H   0  0  0  0  0  0  0  0  0  0  0  0
  139.7411   79.0342  222.5613 H   0  0  0  0  0  0  0  0  0  0  0  0
  139.2132   76.7171  223.2033 H   0  0  0  0  0  0  0  0  0  0  0  0
  1  2  2  0
  2  3  1  0
  3  4  1  0
  4  5  1  0
  5  6  2  0
  5  7  1  0
  7  8  1  0
  8  9  1  0
  9 10  1  0
 10 11  1  0
 11 12  1  0
 12 13  1  0
 13 14  1  0
  2 15  1  0
 15 16  2  0
 16 17  1  0
 17 18  2  0
 18 19  1  0
 19 20  2  0
 20 21  1  0
 20 22  1  0
 22 23  2  0
 23 24  1  0
 24 25  2  0
 12  7  1  0
 25 15  1  0
 24 18  1  0
  3 26  1  0
  4 27  1  0
  4 28  1  0
  8 29  1  0
  8 30  1  0
  9 31  1  0
  9 32  1  0
 10 33  1  0
 10 34  1  0
 11 35  1  0
 11 36  1  0
 12 37  1  1
 13 38  1  0
 13 39  1  0
 14 40  1  0
 16 41  1  0
 17 42  1  0
 19 43  1  0
 22 44  1  0
 23 45  1  0
M  END
>  <smiles>  (25) 
O=C(NCC(=O)N1CCCC[C@H]1CO)c1ccc2cc(F)ccc2n1

>  <score_type>  (25) 
oracle

>  <origin>  (25) 
autodockgpu

>  <m_score__min__energy>  (25) 
-7.9100000000000001

>  <m_primary>  (25) 
energy

>  <rmsd>  (25) 
8.67974037874958

>  <m_score__min__rmsd>  (25) 
8.67974037874958

>  <meeko>  (25) 
{"free_energy": -7.33, "intermolecular_energy": -9.12, "internal_energy": -1.99, "cluster_size": 33, "cluster_id": 1, "rank_in_cluster": 23}

>  <energy>  (25) 
-7.31

>  <cluster_rmsd>  (25) 
0.63

>  <cluster>  (25) 
1

$$$$

     RDKit          3D

 45 47  0  0  0  0  0  0  0  0999 V2000
  141.1050   71.1360  221.2540 O   0  0  0  0  0  0  0  0  0  0  0  0
  140.5550   72.0490  221.9520 C   0  0  0  0  0  0  0  0  0  0  0  0
  139.6590   71.6830  223.0080 N   0  0  0  0  0  0  0  0  0  0  0  0
  139.3890   70.2960  223.2680 C   0  0  0  0  0  0  0  0  0  0  0  0
  139.0800   70.0270  224.6880 C   0  0  0  0  0  0  0  0  0  0  0  0
  137.8950   69.7160  224.9700 O   0  0  0  0  0  0  0  0  0  0  0  0
  140.1220   70.1340  225.6440 N   0  0  0  0  0  0  0  0  0  0  0  0
  141.0750   71.2570  225.6010 C   0  0  0  0  0  0  0  0  0  0  0  0
  141.1300   71.9540  226.9420 C   0  0  0  0  0  0  0  0  0  0  0  0
  141.0440   71.0330  228.1020 C   0  0  0  0  0  0  0  0  0  0  0  0
  140.0090   69.9390  227.9810 C   0  0  0  0  0  0  0  0  0  0  0  0
  140.3370   69.1800  226.7140 C   0  0  1  0  0  0  0  0  0  0  0  0
  139.5810   67.9040  226.5890 C   0  0  0  0  0  0  0  0  0  0  0  0
  139.5420   67.3820  225.3260 O   0  0  0  0  0  0  0  0  0  0  0  0
  140.8250   73.4610  221.6920 C   0  0  0  0  0  0  0  0  0  0  0  0
  141.8720   73.7920  220.8530 C   0  0  0  0  0  0  0  0  0  0  0  0
  142.1720   75.0980  220.5720 C   0  0  0  0  0  0  0  0  0  0  0  0
  141.4340   76.1270  221.1230 C   0  0  0  0  0  0  0  0  0  0  0  0
  141.7400   77.4390  220.8380 C   0  0  0  0  0  0  0  0  0  0  0  0
  140.9740   78.4330  221.4120 C   0  0  0  0  0  0  0  0  0  0  0  0
  141.2910   79.7090  221.1190 F   0  0  0  0  0  0  0  0  0  0  0  0
  139.9510   78.0610  222.2340 C   0  0  0  0  0  0  0  0  0  0  0  0
  139.6280   76.7530  222.5320 C   0  0  0  0  0  0  0  0  0  0  0  0
  140.3930   75.7580  221.9600 C   0  0  0  0  0  0  0  0  0  0  0  0
  140.1170   74.4540  222.2200 N   0  0  0  0  0  0  0  0  0  0  0  0
  139.2340   72.4690  223.5500 H   0  0  0  0  0  0  0  0  0  0  0  0
  138.5290   69.9851  222.6566 H   0  0  0  0  0  0  0  0  0  0  0  0
  140.2973   69.7296  223.0146 H   0  0  0  0  0  0  0  0  0  0  0  0
  142.0753   70.8740  225.3504 H   0  0  0  0  0  0  0  0  0  0  0  0
  140.7436   71.9770  224.8382 H   0  0  0  0  0  0  0  0  0  0  0  0
  142.0796   72.5053  227.0071 H   0  0  0  0  0  0  0  0  0  0  0  0
  140.2530   72.6160  226.9941 H   0  0  0  0  0  0  0  0  0  0  0  0
  142.0274   70.5578  228.2326 H   0  0  0  0  0  0  0  0  0  0  0  0
  140.7362   71.6502  228.9589 H   0  0  0  0  0  0  0  0  0  0  0  0
  140.0611   69.2679  228.8510 H   0  0  0  0  0  0  0  0  0  0  0  0
  138.9912   70.3547  227.9450 H   0  0  0  0  0  0  0  0  0  0  0  0
  141.3762   68.8199  226.6958 H   0  0  0  0  0  0  0  0  0  0  0  0
  140.0503   67.1619  227.2516 H   0  0  0  0  0  0  0  0  0  0  0  0
  138.5402   68.1328  226.8618 H   0  0  0  0  0  0  0  0  0  0  0  0
  138.9150   67.7970  224.7150 H   0  0  0  0  0  0  0  0  0  0  0  0
  142.4760   72.9908  220.4022 H   0  0  0  0  0  0  0  0  0  0  0  0
  143.0108   75.3304  219.8994 H   0  0  0  0  0  0  0  0  0  0  0  0
  142.5759   77.6890  220.1681 H   0  0  0  0  0  0  0  0  0  0  0  0
  139.3431   78.8566  222.6896 H   0  0  0  0  0  0  0  0  0  0  0  0
  138.7897   76.5122  223.2023 H   0  0  0  0  0  0  0  0  0  0  0  0
  1  2  2  0
  2  3  1  0
  3  4  1  0
  4  5  1  0
  5  6  2  0
  5  7  1  0
  7  8  1  0
  8  9  1  0
  9 10  1  0
 10 11  1  0
 11 12  1  0
 12 13  1  0
 13 14  1  0
  2 15  1  0
 15 16  2  0
 16 17  1  0
 17 18  2  0
 18 19  1  0
 19 20  2  0
 20 21  1  0
 20 22  1  0
 22 23  2  0
 23 24  1  0
 24 25  2  0
 12  7  1  0
 25 15  1  0
 24 18  1  0
  3 26  1  0
  4 27  1  0
  4 28  1  0
  8 29  1  0
  8 30  1  0
  9 31  1  0
  9 32  1  0
 10 33  1  0
 10 34  1  0
 11 35  1  0
 11 36  1  0
 12 37  1  1
 13 38  1  0
 13 39  1  0
 14 40  1  0
 16 41  1  0
 17 42  1  0
 19 43  1  0
 22 44  1  0
 23 45  1  0
M  END
>  <smiles>  (26) 
O=C(NCC(=O)N1CCCC[C@H]1CO)c1ccc2cc(F)ccc2n1

>  <score_type>  (26) 
oracle

>  <origin>  (26) 
autodockgpu

>  <m_score__min__energy>  (26) 
-7.9100000000000001

>  <m_primary>  (26) 
energy

>  <rmsd>  (26) 
8.622495131093967

>  <m_score__min__rmsd>  (26) 
8.622495131093967

>  <meeko>  (26) 
{"free_energy": -7.52, "intermolecular_energy": -9.31, "internal_energy": -1.82, "cluster_size": 33, "cluster_id": 1, "rank_in_cluster": 7}

>  <energy>  (26) 
-7.26

>  <cluster_rmsd>  (26) 
1.39

>  <cluster>  (26) 
1

$$$$

     RDKit          3D

 45 47  0  0  0  0  0  0  0  0999 V2000
  141.3150   71.2650  221.2640 O   0  0  0  0  0  0  0  0  0  0  0  0
  140.7210   72.1910  221.9060 C   0  0  0  0  0  0  0  0  0  0  0  0
  139.8130   71.8460  222.9590 N   0  0  0  0  0  0  0  0  0  0  0  0
  139.5810   70.4640  223.2780 C   0  0  0  0  0  0  0  0  0  0  0  0
  139.2220   70.2540  224.6960 C   0  0  0  0  0  0  0  0  0  0  0  0
  138.0060   70.0740  224.9620 O   0  0  0  0  0  0  0  0  0  0  0  0
  140.2530   70.2690  225.6700 N   0  0  0  0  0  0  0  0  0  0  0  0
  140.9670   71.5160  225.9950 C   0  0  0  0  0  0  0  0  0  0  0  0
  140.9280   71.7740  227.4850 C   0  0  0  0  0  0  0  0  0  0  0  0
  141.0590   70.5470  228.3100 C   0  0  0  0  0  0  0  0  0  0  0  0
  140.2540   69.3610  227.8350 C   0  0  0  0  0  0  0  0  0  0  0  0
  140.6830   69.0980  226.4080 C   0  0  1  0  0  0  0  0  0  0  0  0
  140.1860   67.7980  225.8820 C   0  0  0  0  0  0  0  0  0  0  0  0
  138.8570   67.5620  226.0940 O   0  0  0  0  0  0  0  0  0  0  0  0
  140.9520   73.5970  221.5860 C   0  0  0  0  0  0  0  0  0  0  0  0
  141.9330   73.9140  220.6660 C   0  0  0  0  0  0  0  0  0  0  0  0
  142.1950   75.2150  220.3260 C   0  0  0  0  0  0  0  0  0  0  0  0
  141.4820   76.2520  220.8960 C   0  0  0  0  0  0  0  0  0  0  0  0
  141.7490   77.5580  220.5510 C   0  0  0  0  0  0  0  0  0  0  0  0
  141.0100   78.5590  221.1470 C   0  0  0  0  0  0  0  0  0  0  0  0
  141.2880   79.8300  220.7940 F   0  0  0  0  0  0  0  0  0  0  0  0
  140.0530   78.2010  222.0490 C   0  0  0  0  0  0  0  0  0  0  0  0
  139.7700   76.8990  222.4080 C   0  0  0  0  0  0  0  0  0  0  0  0
  140.5070   75.8960  221.8140 C   0  0  0  0  0  0  0  0  0  0  0  0
  140.2680   74.5970  222.1320 N   0  0  0  0  0  0  0  0  0  0  0  0
  139.3510   72.6410  223.4540 H   0  0  0  0  0  0  0  0  0  0  0  0
  138.7590   70.0917  222.6489 H   0  0  0  0  0  0  0  0  0  0  0  0
  140.5184   69.9199  223.0905 H   0  0  0  0  0  0  0  0  0  0  0  0
  142.0142   71.4292  225.6696 H   0  0  0  0  0  0  0  0  0  0  0  0
  140.4774   72.3529  225.4754 H   0  0  0  0  0  0  0  0  0  0  0  0
  141.7542   72.4536  227.7409 H   0  0  0  0  0  0  0  0  0  0  0  0
  139.9417   72.2065  227.7091 H   0  0  0  0  0  0  0  0  0  0  0  0
  142.1197   70.2558  228.3199 H   0  0  0  0  0  0  0  0  0  0  0  0
  140.6635   70.8048  229.3035 H   0  0  0  0  0  0  0  0  0  0  0  0
  140.4634   68.4827  228.4633 H   0  0  0  0  0  0  0  0  0  0  0  0
  139.1741   69.5614  227.8965 H   0  0  0  0  0  0  0  0  0  0  0  0
  141.7713   68.9695  226.3123 H   0  0  0  0  0  0  0  0  0  0  0  0
  140.3682   67.7761  224.7974 H   0  0  0  0  0  0  0  0  0  0  0  0
  140.7298   67.0149  226.4307 H   0  0  0  0  0  0  0  0  0  0  0  0
  138.2490   68.2460  225.7730 H   0  0  0  0  0  0  0  0  0  0  0  0
  142.5147   73.1063  220.1977 H   0  0  0  0  0  0  0  0  0  0  0  0
  142.9824   75.4365  219.5905 H   0  0  0  0  0  0  0  0  0  0  0  0
  142.5330   77.7975  219.8175 H   0  0  0  0  0  0  0  0  0  0  0  0
  139.4674   79.0030  222.5221 H   0  0  0  0  0  0  0  0  0  0  0  0
  138.9840   76.6691  223.1424 H   0  0  0  0  0  0  0  0  0  0  0  0
  1  2  2  0
  2  3  1  0
  3  4  1  0
  4  5  1  0
  5  6  2  0
  5  7  1  0
  7  8  1  0
  8  9  1  0
  9 10  1  0
 10 11  1  0
 11 12  1  0
 12 13  1  0
 13 14  1  0
  2 15  1  0
 15 16  2  0
 16 17  1  0
 17 18  2  0
 18 19  1  0
 19 20  2  0
 20 21  1  0
 20 22  1  0
 22 23  2  0
 23 24  1  0
 24 25  2  0
 12  7  1  0
 25 15  1  0
 24 18  1  0
  3 26  1  0
  4 27  1  0
  4 28  1  0
  8 29  1  0
  8 30  1  0
  9 31  1  0
  9 32  1  0
 10 33  1  0
 10 34  1  0
 11 35  1  0
 11 36  1  0
 12 37  1  1
 13 38  1  0
 13 39  1  0
 14 40  1  0
 16 41  1  0
 17 42  1  0
 19 43  1  0
 22 44  1  0
 23 45  1  0
M  END
>  <smiles>  (27) 
O=C(NCC(=O)N1CCCC[C@H]1CO)c1ccc2cc(F)ccc2n1

>  <score_type>  (27) 
oracle

>  <origin>  (27) 
autodockgpu

>  <m_score__min__energy>  (27) 
-7.9100000000000001

>  <m_primary>  (27) 
energy

>  <rmsd>  (27) 
8.680915439688023

>  <m_score__min__rmsd>  (27) 
8.680915439688023

>  <meeko>  (27) 
{"free_energy": -7.35, "intermolecular_energy": -9.14, "internal_energy": -1.99, "cluster_size": 33, "cluster_id": 1, "rank_in_cluster": 17}

>  <energy>  (27) 
-7.18

>  <cluster_rmsd>  (27) 
0.69

>  <cluster>  (27) 
1

$$$$

     RDKit          3D

 45 47  0  0  0  0  0  0  0  0999 V2000
  141.4630   72.1050  221.5640 O   0  0  0  0  0  0  0  0  0  0  0  0
  140.6200   72.4190  222.4660 C   0  0  0  0  0  0  0  0  0  0  0  0
  139.8630   73.6290  222.3300 N   0  0  0  0  0  0  0  0  0  0  0  0
  140.0630   74.4720  221.1830 C   0  0  0  0  0  0  0  0  0  0  0  0
  141.0610   75.5360  221.4200 C   0  0  0  0  0  0  0  0  0  0  0  0
  140.8460   76.3250  222.3740 O   0  0  0  0  0  0  0  0  0  0  0  0
  142.1920   75.6110  220.5670 N   0  0  0  0  0  0  0  0  0  0  0  0
  143.1320   74.4810  220.4570 C   0  0  0  0  0  0  0  0  0  0  0  0
  143.3170   74.0870  219.0090 C   0  0  0  0  0  0  0  0  0  0  0  0
  143.3490   75.2390  218.0730 C   0  0  0  0  0  0  0  0  0  0  0  0
  142.3120   76.3060  218.3280 C   0  0  0  0  0  0  0  0  0  0  0  0
  142.5150   76.7670  219.7550 C   0  0  1  0  0  0  0  0  0  0  0  0
  141.7560   78.0040  220.0800 C   0  0  0  0  0  0  0  0  0  0  0  0
  141.9780   78.5010  221.3340 O   0  0  0  0  0  0  0  0  0  0  0  0
  140.4130   71.5670  223.6340 C   0  0  0  0  0  0  0  0  0  0  0  0
  139.7510   70.3660  223.4670 C   0  0  0  0  0  0  0  0  0  0  0  0
  139.5270   69.5240  224.5250 C   0  0  0  0  0  0  0  0  0  0  0  0
  139.9580   69.8560  225.7950 C   0  0  0  0  0  0  0  0  0  0  0  0
  139.7310   69.0080  226.8550 C   0  0  0  0  0  0  0  0  0  0  0  0
  140.1800   69.3820  228.1050 C   0  0  0  0  0  0  0  0  0  0  0  0
  139.9460   68.5370  229.1280 F   0  0  0  0  0  0  0  0  0  0  0  0
  140.8270   70.5770  228.2240 C   0  0  0  0  0  0  0  0  0  0  0  0
  141.0640   71.4410  227.1740 C   0  0  0  0  0  0  0  0  0  0  0  0
  140.6160   71.0690  225.9240 C   0  0  0  0  0  0  0  0  0  0  0  0
  140.8250   71.8830  224.8570 N   0  0  0  0  0  0  0  0  0  0  0  0
  139.1850   73.8410  223.0960 H   0  0  0  0  0  0  0  0  0  0  0  0
  140.4067   73.8485  220.3445 H   0  0  0  0  0  0  0  0  0  0  0  0
  139.1034   74.9620  220.9614 H   0  0  0  0  0  0  0  0  0  0  0  0
  144.1040   74.7759  220.8792 H   0  0  0  0  0  0  0  0  0  0  0  0
  142.7237   73.6226  221.0105 H   0  0  0  0  0  0  0  0  0  0  0  0
  144.2666   73.5394  218.9174 H   0  0  0  0  0  0  0  0  0  0  0  0
  142.4478   73.4729  218.7310 H   0  0  0  0  0  0  0  0  0  0  0  0
  144.3422   75.7066  218.1433 H   0  0  0  0  0  0  0  0  0  0  0  0
  143.1248   74.8285  217.0774 H   0  0  0  0  0  0  0  0  0  0  0  0
  142.4526   77.1469  217.6329 H   0  0  0  0  0  0  0  0  0  0  0  0
  141.2943   75.9174  218.1755 H   0  0  0  0  0  0  0  0  0  0  0  0
  143.5484   77.0894  219.9505 H   0  0  0  0  0  0  0  0  0  0  0  0
  142.0358   78.7785  219.3507 H   0  0  0  0  0  0  0  0  0  0  0  0
  140.6907   77.7329  220.0389 H   0  0  0  0  0  0  0  0  0  0  0  0
  142.2950   77.8650  221.9930 H   0  0  0  0  0  0  0  0  0  0  0  0
  139.3969   70.0800  222.4656 H   0  0  0  0  0  0  0  0  0  0  0  0
  138.9982   68.5734  224.3612 H   0  0  0  0  0  0  0  0  0  0  0  0
  139.2036   68.0538  226.7090 H   0  0  0  0  0  0  0  0  0  0  0  0
  141.1832   70.8714  229.2222 H   0  0  0  0  0  0  0  0  0  0  0  0
  141.5920   72.3935  227.3290 H   0  0  0  0  0  0  0  0  0  0  0  0
  1  2  2  0
  2  3  1  0
  3  4  1  0
  4  5  1  0
  5  6  2  0
  5  7  1  0
  7  8  1  0
  8  9  1  0
  9 10  1  0
 10 11  1  0
 11 12  1  0
 12 13  1  0
 13 14  1  0
  2 15  1  0
 15 16  2  0
 16 17  1  0
 17 18  2  0
 18 19  1  0
 19 20  2  0
 20 21  1  0
 20 22  1  0
 22 23  2  0
 23 24  1  0
 24 25  2  0
 12  7  1  0
 25 15  1  0
 24 18  1  0
  3 26  1  0
  4 27  1  0
  4 28  1  0
  8 29  1  0
  8 30  1  0
  9 31  1  0
  9 32  1  0
 10 33  1  0
 10 34  1  0
 11 35  1  0
 11 36  1  0
 12 37  1  6
 13 38  1  0
 13 39  1  0
 14 40  1  0
 16 41  1  0
 17 42  1  0
 19 43  1  0
 22 44  1  0
 23 45  1  0
M  END
>  <smiles>  (28) 
O=C(NCC(=O)N1CCCC[C@H]1CO)c1ccc2cc(F)ccc2n1

>  <score_type>  (28) 
oracle

>  <origin>  (28) 
autodockgpu

>  <m_score__min__energy>  (28) 
-7.9100000000000001

>  <m_primary>  (28) 
energy

>  <rmsd>  (28) 
2.3684939348022627

>  <m_score__min__rmsd>  (28) 
2.3684939348022627

>  <meeko>  (28) 
{"free_energy": -6.91, "intermolecular_energy": -8.7, "internal_energy": -1.81, "cluster_size": 15, "cluster_id": 2, "rank_in_cluster": 3}

>  <energy>  (28) 
-7.17

>  <cluster_rmsd>  (28) 
1.23

>  <cluster>  (28) 
1

$$$$

     RDKit          3D

 45 47  0  0  0  0  0  0  0  0999 V2000
  139.9440   70.1970  222.0850 O   0  0  0  0  0  0  0  0  0  0  0  0
  140.0210   71.3810  222.5490 C   0  0  0  0  0  0  0  0  0  0  0  0
  139.3620   71.6970  223.7820 N   0  0  0  0  0  0  0  0  0  0  0  0
  138.6230   70.6800  224.4790 C   0  0  0  0  0  0  0  0  0  0  0  0
  139.4910   69.6300  225.0500 C   0  0  0  0  0  0  0  0  0  0  0  0
  139.3710   68.4670  224.5860 O   0  0  0  0  0  0  0  0  0  0  0  0
  140.4010   69.9830  226.0800 N   0  0  0  0  0  0  0  0  0  0  0  0
  141.3970   71.0490  225.8750 C   0  0  0  0  0  0  0  0  0  0  0  0
  141.3020   72.0780  226.9800 C   0  0  0  0  0  0  0  0  0  0  0  0
  141.0250   71.4990  228.3180 C   0  0  0  0  0  0  0  0  0  0  0  0
  139.9710   70.4180  228.3460 C   0  0  0  0  0  0  0  0  0  0  0  0
  140.4320   69.3470  227.3820 C   0  0  1  0  0  0  0  0  0  0  0  0
  139.6480   68.0880  227.4930 C   0  0  0  0  0  0  0  0  0  0  0  0
  140.1190   67.0490  226.7390 O   0  0  0  0  0  0  0  0  0  0  0  0
  140.7690   72.4190  221.8460 C   0  0  0  0  0  0  0  0  0  0  0  0
  141.8500   72.0450  221.0700 C   0  0  0  0  0  0  0  0  0  0  0  0
  142.5900   72.9740  220.3870 C   0  0  0  0  0  0  0  0  0  0  0  0
  142.2760   74.3170  220.4550 C   0  0  0  0  0  0  0  0  0  0  0  0
  143.0220   75.2470  219.7660 C   0  0  0  0  0  0  0  0  0  0  0  0
  142.6690   76.5770  219.8650 C   0  0  0  0  0  0  0  0  0  0  0  0
  143.4140   77.4700  219.1840 F   0  0  0  0  0  0  0  0  0  0  0  0
  141.5970   76.9010  220.6430 C   0  0  0  0  0  0  0  0  0  0  0  0
  140.8360   75.9850  221.3400 C   0  0  0  0  0  0  0  0  0  0  0  0
  141.1870   74.6550  221.2430 C   0  0  0  0  0  0  0  0  0  0  0  0
  140.4700   73.7120  221.9090 N   0  0  0  0  0  0  0  0  0  0  0  0
  139.4550   72.6820  224.1190 H   0  0  0  0  0  0  0  0  0  0  0  0
  138.0598   71.1533  225.2968 H   0  0  0  0  0  0  0  0  0  0  0  0
  137.9561   70.1972  223.7495 H   0  0  0  0  0  0  0  0  0  0  0  0
  142.4049   70.6085  225.8755 H   0  0  0  0  0  0  0  0  0  0  0  0
  141.2004   71.5409  224.9110 H   0  0  0  0  0  0  0  0  0  0  0  0
  142.2564   72.6228  227.0291 H   0  0  0  0  0  0  0  0  0  0  0  0
  140.4539   72.7338  226.7338 H   0  0  0  0  0  0  0  0  0  0  0  0
  141.9618   71.0707  228.7039 H   0  0  0  0  0  0  0  0  0  0  0  0
  140.6326   72.3233  228.9316 H   0  0  0  0  0  0  0  0  0  0  0  0
  139.8788   70.0027  229.3604 H   0  0  0  0  0  0  0  0  0  0  0  0
  138.9855   70.8144  228.0602 H   0  0  0  0  0  0  0  0  0  0  0  0
  141.4483   68.9894  227.6042 H   0  0  0  0  0  0  0  0  0  0  0  0
  139.6520   67.7746  228.5474 H   0  0  0  0  0  0  0  0  0  0  0  0
  138.6420   68.3158  227.1108 H   0  0  0  0  0  0  0  0  0  0  0  0
  140.3080   66.2290  227.2190 H   0  0  0  0  0  0  0  0  0  0  0  0
  142.1213   70.9813  220.9995 H   0  0  0  0  0  0  0  0  0  0  0  0
  143.4446   72.6461  219.7770 H   0  0  0  0  0  0  0  0  0  0  0  0
  143.8795   74.9367  219.1509 H   0  0  0  0  0  0  0  0  0  0  0  0
  141.3206   77.9629  220.7201 H   0  0  0  0  0  0  0  0  0  0  0  0
  139.9793   76.3045  221.9516 H   0  0  0  0  0  0  0  0  0  0  0  0
  1  2  2  0
  2  3  1  0
  3  4  1  0
  4  5  1  0
  5  6  2  0
  5  7  1  0
  7  8  1  0
  8  9  1  0
  9 10  1  0
 10 11  1  0
 11 12  1  0
 12 13  1  0
 13 14  1  0
  2 15  1  0
 15 16  2  0
 16 17  1  0
 17 18  2  0
 18 19  1  0
 19 20  2  0
 20 21  1  0
 20 22  1  0
 22 23  2  0
 23 24  1  0
 24 25  2  0
 12  7  1  0
 25 15  1  0
 24 18  1  0
  3 26  1  0
  4 27  1  0
  4 28  1  0
  8 29  1  0
  8 30  1  0
  9 31  1  0
  9 32  1  0
 10 33  1  0
 10 34  1  0
 11 35  1  0
 11 36  1  0
 12 37  1  1
 13 38  1  0
 13 39  1  0
 14 40  1  0
 16 41  1  0
 17 42  1  0
 19 43  1  0
 22 44  1  0
 23 45  1  0
M  END
>  <smiles>  (29) 
O=C(NCC(=O)N1CCCC[C@H]1CO)c1ccc2cc(F)ccc2n1

>  <score_type>  (29) 
oracle

>  <origin>  (29) 
autodockgpu

>  <m_score__min__energy>  (29) 
-7.9100000000000001

>  <m_primary>  (29) 
energy

>  <rmsd>  (29) 
8.56441322977344

>  <m_score__min__rmsd>  (29) 
8.56441322977344

>  <meeko>  (29) 
{"free_energy": -7.26, "intermolecular_energy": -9.05, "internal_energy": -1.27, "cluster_size": 33, "cluster_id": 1, "rank_in_cluster": 26}

>  <energy>  (29) 
-7.16

>  <cluster_rmsd>  (29) 
1.2

>  <cluster>  (29) 
1

$$$$

     RDKit          3D

 45 47  0  0  0  0  0  0  0  0999 V2000
  141.3410   71.3360  221.3680 O   0  0  0  0  0  0  0  0  0  0  0  0
  140.6570   72.2360  221.9550 C   0  0  0  0  0  0  0  0  0  0  0  0
  139.6530   71.8520  222.9020 N   0  0  0  0  0  0  0  0  0  0  0  0
  139.4260   70.4600  223.1760 C   0  0  0  0  0  0  0  0  0  0  0  0
  139.0230   70.2080  224.5760 C   0  0  0  0  0  0  0  0  0  0  0  0
  137.8000   70.0230  224.7990 O   0  0  0  0  0  0  0  0  0  0  0  0
  140.0240   70.1910  225.5810 N   0  0  0  0  0  0  0  0  0  0  0  0
  141.0710   71.2280  225.6220 C   0  0  0  0  0  0  0  0  0  0  0  0
  141.1220   71.8720  226.9900 C   0  0  0  0  0  0  0  0  0  0  0  0
  140.9020   70.9230  228.1090 C   0  0  0  0  0  0  0  0  0  0  0  0
  139.7850   69.9280  227.9010 C   0  0  0  0  0  0  0  0  0  0  0  0
  140.1060   69.1870  226.6220 C   0  0  1  0  0  0  0  0  0  0  0  0
  139.2510   67.9870  226.4150 C   0  0  0  0  0  0  0  0  0  0  0  0
  139.1950   67.5360  225.1260 O   0  0  0  0  0  0  0  0  0  0  0  0
  140.8830   73.6530  221.6800 C   0  0  0  0  0  0  0  0  0  0  0  0
  141.8850   74.0040  220.7960 C   0  0  0  0  0  0  0  0  0  0  0  0
  142.1440   75.3160  220.4980 C   0  0  0  0  0  0  0  0  0  0  0  0
  141.4050   76.3300  221.0770 C   0  0  0  0  0  0  0  0  0  0  0  0
  141.6680   77.6470  220.7740 C   0  0  0  0  0  0  0  0  0  0  0  0
  140.9040   78.6260  221.3760 C   0  0  0  0  0  0  0  0  0  0  0  0
  141.1790   79.9080  221.0660 F   0  0  0  0  0  0  0  0  0  0  0  0
  139.9260   78.2340  222.2420 C   0  0  0  0  0  0  0  0  0  0  0  0
  139.6470   76.9210  222.5590 C   0  0  0  0  0  0  0  0  0  0  0  0
  140.4090   75.9410  221.9580 C   0  0  0  0  0  0  0  0  0  0  0  0
  140.1750   74.6320  222.2340 N   0  0  0  0  0  0  0  0  0  0  0  0
  139.1200   72.6280  223.3560 H   0  0  0  0  0  0  0  0  0  0  0  0
  138.6292   70.0966  222.5104 H   0  0  0  0  0  0  0  0  0  0  0  0
  140.3750   69.9306  223.0050 H   0  0  0  0  0  0  0  0  0  0  0  0
  142.0456   70.7680  225.4013 H   0  0  0  0  0  0  0  0  0  0  0  0
  140.8388   71.9993  224.8729 H   0  0  0  0  0  0  0  0  0  0  0  0
  142.1114   72.3354  227.1181 H   0  0  0  0  0  0  0  0  0  0  0  0
  140.3039   72.6064  227.0282 H   0  0  0  0  0  0  0  0  0  0  0  0
  141.8340   70.3600  228.2653 H   0  0  0  0  0  0  0  0  0  0  0  0
  140.6068   71.5354  228.9738 H   0  0  0  0  0  0  0  0  0  0  0  0
  139.7389   69.2256  228.7463 H   0  0  0  0  0  0  0  0  0  0  0  0
  138.8092   70.4316  227.8360 H   0  0  0  0  0  0  0  0  0  0  0  0
  141.1104   68.7387  226.6365 H   0  0  0  0  0  0  0  0  0  0  0  0
  139.6437   67.1749  227.0444 H   0  0  0  0  0  0  0  0  0  0  0  0
  138.2271   68.2879  226.6814 H   0  0  0  0  0  0  0  0  0  0  0  0
  138.5880   68.0100  224.5380 H   0  0  0  0  0  0  0  0  0  0  0  0
  142.4868   73.2145  220.3220 H   0  0  0  0  0  0  0  0  0  0  0  0
  142.9486   75.5648  219.7904 H   0  0  0  0  0  0  0  0  0  0  0  0
  142.4688   77.9128  220.0682 H   0  0  0  0  0  0  0  0  0  0  0  0
  139.3191   79.0174  222.7196 H   0  0  0  0  0  0  0  0  0  0  0  0
  138.8447   76.6644  223.2665 H   0  0  0  0  0  0  0  0  0  0  0  0
  1  2  2  0
  2  3  1  0
  3  4  1  0
  4  5  1  0
  5  6  2  0
  5  7  1  0
  7  8  1  0
  8  9  1  0
  9 10  1  0
 10 11  1  0
 11 12  1  0
 12 13  1  0
 13 14  1  0
  2 15  1  0
 15 16  2  0
 16 17  1  0
 17 18  2  0
 18 19  1  0
 19 20  2  0
 20 21  1  0
 20 22  1  0
 22 23  2  0
 23 24  1  0
 24 25  2  0
 12  7  1  0
 25 15  1  0
 24 18  1  0
  3 26  1  0
  4 27  1  0
  4 28  1  0
  8 29  1  0
  8 30  1  0
  9 31  1  0
  9 32  1  0
 10 33  1  0
 10 34  1  0
 11 35  1  0
 11 36  1  0
 12 37  1  1
 13 38  1  0
 13 39  1  0
 14 40  1  0
 16 41  1  0
 17 42  1  0
 19 43  1  0
 22 44  1  0
 23 45  1  0
M  END
>  <smiles>  (30) 
O=C(NCC(=O)N1CCCC[C@H]1CO)c1ccc2cc(F)ccc2n1

>  <score_type>  (30) 
oracle

>  <origin>  (30) 
autodockgpu

>  <m_score__min__energy>  (30) 
-7.9100000000000001

>  <m_primary>  (30) 
energy

>  <rmsd>  (30) 
8.671535313828516

>  <m_score__min__rmsd>  (30) 
8.671535313828516

>  <meeko>  (30) 
{"free_energy": -7.39, "intermolecular_energy": -9.18, "internal_energy": -1.84, "cluster_size": 33, "cluster_id": 1, "rank_in_cluster": 13}

>  <energy>  (30) 
-7.13

>  <cluster_rmsd>  (30) 
0.71

>  <cluster>  (30) 
1

$$$$

     RDKit          3D

 45 47  0  0  0  0  0  0  0  0999 V2000
  141.0770   71.1220  221.2750 O   0  0  0  0  0  0  0  0  0  0  0  0
  140.5000   72.0410  221.9410 C   0  0  0  0  0  0  0  0  0  0  0  0
  139.5670   71.6860  222.9690 N   0  0  0  0  0  0  0  0  0  0  0  0
  139.2910   70.3010  223.2350 C   0  0  0  0  0  0  0  0  0  0  0  0
  139.0160   70.0340  224.6620 C   0  0  0  0  0  0  0  0  0  0  0  0
  137.8360   69.7340  224.9760 O   0  0  0  0  0  0  0  0  0  0  0  0
  140.0840   70.1300  225.5920 N   0  0  0  0  0  0  0  0  0  0  0  0
  141.0360   71.2540  225.5350 C   0  0  0  0  0  0  0  0  0  0  0  0
  141.1270   71.9360  226.8810 C   0  0  0  0  0  0  0  0  0  0  0  0
  141.0720   71.0020  228.0330 C   0  0  0  0  0  0  0  0  0  0  0  0
  140.0350   69.9090  227.9280 C   0  0  0  0  0  0  0  0  0  0  0  0
  140.3280   69.1640  226.6440 C   0  0  1  0  0  0  0  0  0  0  0  0
  139.5690   67.8900  226.5250 C   0  0  0  0  0  0  0  0  0  0  0  0
  139.4780   67.3920  225.2550 O   0  0  0  0  0  0  0  0  0  0  0  0
  140.7750   73.4510  221.6750 C   0  0  0  0  0  0  0  0  0  0  0  0
  141.8270   73.7730  220.8380 C   0  0  0  0  0  0  0  0  0  0  0  0
  142.1340   75.0770  220.5510 C   0  0  0  0  0  0  0  0  0  0  0  0
  141.3970   76.1120  221.0930 C   0  0  0  0  0  0  0  0  0  0  0  0
  141.7090   77.4200  220.8020 C   0  0  0  0  0  0  0  0  0  0  0  0
  140.9440   78.4200  221.3670 C   0  0  0  0  0  0  0  0  0  0  0  0
  141.2670   79.6940  221.0680 F   0  0  0  0  0  0  0  0  0  0  0  0
  139.9160   78.0570  222.1870 C   0  0  0  0  0  0  0  0  0  0  0  0
  139.5880   76.7520  222.4910 C   0  0  0  0  0  0  0  0  0  0  0  0
  140.3510   75.7510  221.9280 C   0  0  0  0  0  0  0  0  0  0  0  0
  140.0690   74.4490  222.1940 N   0  0  0  0  0  0  0  0  0  0  0  0
  139.1210   72.4770  223.4860 H   0  0  0  0  0  0  0  0  0  0  0  0
  138.4129   69.9985  222.6456 H   0  0  0  0  0  0  0  0  0  0  0  0
  140.1872   69.7264  222.9581 H   0  0  0  0  0  0  0  0  0  0  0  0
  142.0291   70.8740  225.2533 H   0  0  0  0  0  0  0  0  0  0  0  0
  140.6844   71.9820  224.7891 H   0  0  0  0  0  0  0  0  0  0  0  0
  142.0781   72.4867  226.9267 H   0  0  0  0  0  0  0  0  0  0  0  0
  140.2519   72.5973  226.9638 H   0  0  0  0  0  0  0  0  0  0  0  0
  142.0587   70.5261  228.1322 H   0  0  0  0  0  0  0  0  0  0  0  0
  140.7866   71.6097  228.9043 H   0  0  0  0  0  0  0  0  0  0  0  0
  140.1113   69.2283  228.7887 H   0  0  0  0  0  0  0  0  0  0  0  0
  139.0165   70.3246  227.9244 H   0  0  0  0  0  0  0  0  0  0  0  0
  141.3661   68.8037  226.5934 H   0  0  0  0  0  0  0  0  0  0  0  0
  140.0659   67.1360  227.1532 H   0  0  0  0  0  0  0  0  0  0  0  0
  138.5401   68.1122  226.8443 H   0  0  0  0  0  0  0  0  0  0  0  0
  138.8060   67.7990  224.6880 H   0  0  0  0  0  0  0  0  0  0  0  0
  142.4292   72.9667  220.3938 H   0  0  0  0  0  0  0  0  0  0  0  0
  142.9770   75.3024  219.8813 H   0  0  0  0  0  0  0  0  0  0  0  0
  142.5488   77.6631  220.1344 H   0  0  0  0  0  0  0  0  0  0  0  0
  139.3088   78.8573  222.6352 H   0  0  0  0  0  0  0  0  0  0  0  0
  138.7465   76.5180  223.1597 H   0  0  0  0  0  0  0  0  0  0  0  0
  1  2  2  0
  2  3  1  0
  3  4  1  0
  4  5  1  0
  5  6  2  0
  5  7  1  0
  7  8  1  0
  8  9  1  0
  9 10  1  0
 10 11  1  0
 11 12  1  0
 12 13  1  0
 13 14  1  0
  2 15  1  0
 15 16  2  0
 16 17  1  0
 17 18  2  0
 18 19  1  0
 19 20  2  0
 20 21  1  0
 20 22  1  0
 22 23  2  0
 23 24  1  0
 24 25  2  0
 12  7  1  0
 25 15  1  0
 24 18  1  0
  3 26  1  0
  4 27  1  0
  4 28  1  0
  8 29  1  0
  8 30  1  0
  9 31  1  0
  9 32  1  0
 10 33  1  0
 10 34  1  0
 11 35  1  0
 11 36  1  0
 12 37  1  1
 13 38  1  0
 13 39  1  0
 14 40  1  0
 16 41  1  0
 17 42  1  0
 19 43  1  0
 22 44  1  0
 23 45  1  0
M  END
>  <smiles>  (31) 
O=C(NCC(=O)N1CCCC[C@H]1CO)c1ccc2cc(F)ccc2n1

>  <score_type>  (31) 
oracle

>  <origin>  (31) 
autodockgpu

>  <m_score__min__energy>  (31) 
-7.9100000000000001

>  <m_primary>  (31) 
energy

>  <rmsd>  (31) 
8.602388312549207

>  <m_score__min__rmsd>  (31) 
8.602388312549207

>  <meeko>  (31) 
{"free_energy": -7.52, "intermolecular_energy": -9.31, "internal_energy": -1.84, "cluster_size": 33, "cluster_id": 1, "rank_in_cluster": 6}

>  <energy>  (31) 
-6.91

>  <cluster_rmsd>  (31) 
0.9

>  <cluster>  (31) 
1

$$$$

     RDKit          3D

 45 47  0  0  0  0  0  0  0  0999 V2000
  138.8940   70.7220  221.0070 O   0  0  0  0  0  0  0  0  0  0  0  0
  138.9010   71.3940  222.0890 C   0  0  0  0  0  0  0  0  0  0  0  0
  138.5690   72.7880  222.0550 N   0  0  0  0  0  0  0  0  0  0  0  0
  138.2330   73.4110  220.8040 C   0  0  0  0  0  0  0  0  0  0  0  0
  139.4100   73.6280  219.9360 C   0  0  0  0  0  0  0  0  0  0  0  0
  139.1960   73.8040  218.7100 O   0  0  0  0  0  0  0  0  0  0  0  0
  140.7010   73.6250  220.5240 N   0  0  0  0  0  0  0  0  0  0  0  0
  141.6030   72.4710  220.3580 C   0  0  0  0  0  0  0  0  0  0  0  0
  142.9440   72.9230  219.8230 C   0  0  0  0  0  0  0  0  0  0  0  0
  143.4070   74.2180  220.3800 C   0  0  0  0  0  0  0  0  0  0  0  0
  142.3510   75.2930  220.4770 C   0  0  0  0  0  0  0  0  0  0  0  0
  141.2310   74.7170  221.3150 C   0  0  1  0  0  0  0  0  0  0  0  0
  140.2340   75.7390  221.7350 C   0  0  0  0  0  0  0  0  0  0  0  0
  139.3520   75.3210  222.6920 O   0  0  0  0  0  0  0  0  0  0  0  0
  139.2420   70.7660  223.3630 C   0  0  0  0  0  0  0  0  0  0  0  0
  138.9310   69.4330  223.5480 C   0  0  0  0  0  0  0  0  0  0  0  0
  139.2260   68.7900  224.7210 C   0  0  0  0  0  0  0  0  0  0  0  0
  139.8450   69.4600  225.7580 C   0  0  0  0  0  0  0  0  0  0  0  0
  140.1400   68.8090  226.9350 C   0  0  0  0  0  0  0  0  0  0  0  0
  140.7600   69.5210  227.9420 C   0  0  0  0  0  0  0  0  0  0  0  0
  141.0390   68.8650  229.0850 F   0  0  0  0  0  0  0  0  0  0  0  0
  141.0480   70.8350  227.7170 C   0  0  0  0  0  0  0  0  0  0  0  0
  140.7610   71.5040  226.5450 C   0  0  0  0  0  0  0  0  0  0  0  0
  140.1420   70.7960  225.5370 C   0  0  0  0  0  0  0  0  0  0  0  0
  139.8380   71.4080  224.3630 N   0  0  0  0  0  0  0  0  0  0  0  0
  138.5900   73.2930  222.9690 H   0  0  0  0  0  0  0  0  0  0  0  0
  137.5181   72.7665  220.2716 H   0  0  0  0  0  0  0  0  0  0  0  0
  137.8033   74.3978  221.0311 H   0  0  0  0  0  0  0  0  0  0  0  0
  141.7478   71.9810  221.3321 H   0  0  0  0  0  0  0  0  0  0  0  0
  141.1529   71.7659  219.6437 H   0  0  0  0  0  0  0  0  0  0  0  0
  143.6915   72.1538  220.0669 H   0  0  0  0  0  0  0  0  0  0  0  0
  142.8240   73.0659  218.7389 H   0  0  0  0  0  0  0  0  0  0  0  0
  143.7973   74.0328  221.3916 H   0  0  0  0  0  0  0  0  0  0  0  0
  144.1642   74.5977  219.6782 H   0  0  0  0  0  0  0  0  0  0  0  0
  142.7649   76.1904  220.9602 H   0  0  0  0  0  0  0  0  0  0  0  0
  141.9915   75.5900  219.4807 H   0  0  0  0  0  0  0  0  0  0  0  0
  141.5825   74.3436  222.2882 H   0  0  0  0  0  0  0  0  0  0  0  0
  140.7806   76.6081  222.1298 H   0  0  0  0  0  0  0  0  0  0  0  0
  139.6347   75.9716  220.8424 H   0  0  0  0  0  0  0  0  0  0  0  0
  139.5410   74.4610  223.0960 H   0  0  0  0  0  0  0  0  0  0  0  0
  138.4368   68.8770  222.7377 H   0  0  0  0  0  0  0  0  0  0  0  0
  138.9668   67.7274  224.8384 H   0  0  0  0  0  0  0  0  0  0  0  0
  139.8876   67.7468  227.0695 H   0  0  0  0  0  0  0  0  0  0  0  0
  141.5414   71.3983  228.5227 H   0  0  0  0  0  0  0  0  0  0  0  0
  141.0174   72.5663  226.4192 H   0  0  0  0  0  0  0  0  0  0  0  0
  1  2  2  0
  2  3  1  0
  3  4  1  0
  4  5  1  0
  5  6  2  0
  5  7  1  0
  7  8  1  0
  8  9  1  0
  9 10  1  0
 10 11  1  0
 11 12  1  0
 12 13  1  0
 13 14  1  0
  2 15  1  0
 15 16  2  0
 16 17  1  0
 17 18  2  0
 18 19  1  0
 19 20  2  0
 20 21  1  0
 20 22  1  0
 22 23  2  0
 23 24  1  0
 24 25  2  0
 12  7  1  0
 25 15  1  0
 24 18  1  0
  3 26  1  0
  4 27  1  0
  4 28  1  0
  8 29  1  0
  8 30  1  0
  9 31  1  0
  9 32  1  0
 10 33  1  0
 10 34  1  0
 11 35  1  0
 11 36  1  0
 12 37  1  1
 13 38  1  0
 13 39  1  0
 14 40  1  0
 16 41  1  0
 17 42  1  0
 19 43  1  0
 22 44  1  0
 23 45  1  0
M  END
>  <smiles>  (32) 
O=C(NCC(=O)N1CCCC[C@H]1CO)c1ccc2cc(F)ccc2n1

>  <score_type>  (32) 
oracle

>  <origin>  (32) 
autodockgpu

>  <m_score__min__energy>  (32) 
-7.9100000000000001

>  <m_primary>  (32) 
energy

>  <rmsd>  (32) 
2.416698759858893

>  <m_score__min__rmsd>  (32) 
2.416698759858893

>  <meeko>  (32) 
{"free_energy": -6.23, "intermolecular_energy": -8.02, "internal_energy": -2.12, "cluster_size": 15, "cluster_id": 2, "rank_in_cluster": 12}

>  <energy>  (32) 
-6.57

>  <cluster_rmsd>  (32) 
1.42

>  <cluster>  (32) 
1

$$$$

     RDKit          3D

 45 47  0  0  0  0  0  0  0  0999 V2000
  138.2600   70.8630  221.7810 O   0  0  0  0  0  0  0  0  0  0  0  0
  138.9440   71.3550  222.7360 C   0  0  0  0  0  0  0  0  0  0  0  0
  139.3920   72.7140  222.6540 N   0  0  0  0  0  0  0  0  0  0  0  0
  139.0670   73.5050  221.4990 C   0  0  0  0  0  0  0  0  0  0  0  0
  140.0120   74.6190  221.2810 C   0  0  0  0  0  0  0  0  0  0  0  0
  140.8310   74.8680  222.2020 O   0  0  0  0  0  0  0  0  0  0  0  0
  139.9460   75.3410  220.0610 N   0  0  0  0  0  0  0  0  0  0  0  0
  138.6770   75.9310  219.6010 C   0  0  0  0  0  0  0  0  0  0  0  0
  138.8570   77.4020  219.3020 C   0  0  0  0  0  0  0  0  0  0  0  0
  140.1590   77.7320  218.6710 C   0  0  0  0  0  0  0  0  0  0  0  0
  141.3600   77.0390  219.2710 C   0  0  0  0  0  0  0  0  0  0  0  0
  141.0830   75.5550  219.1880 C   0  0  1  0  0  0  0  0  0  0  0  0
  142.2790   74.7220  219.4850 C   0  0  0  0  0  0  0  0  0  0  0  0
  143.0830   75.2060  220.4790 O   0  0  0  0  0  0  0  0  0  0  0  0
  139.2780   70.5560  223.9130 C   0  0  0  0  0  0  0  0  0  0  0  0
  138.9540   69.2130  223.9140 C   0  0  0  0  0  0  0  0  0  0  0  0
  139.2420   68.4130  224.9880 C   0  0  0  0  0  0  0  0  0  0  0  0
  139.8680   68.9300  226.1060 C   0  0  0  0  0  0  0  0  0  0  0  0
  140.1560   68.1220  227.1830 C   0  0  0  0  0  0  0  0  0  0  0  0
  140.7810   68.6840  228.2770 C   0  0  0  0  0  0  0  0  0  0  0  0
  141.0530   67.8750  229.3200 F   0  0  0  0  0  0  0  0  0  0  0  0
  141.0820   70.0130  228.2330 C   0  0  0  0  0  0  0  0  0  0  0  0
  140.8020   70.8390  227.1640 C   0  0  0  0  0  0  0  0  0  0  0  0
  140.1770   70.2810  226.0690 C   0  0  0  0  0  0  0  0  0  0  0  0
  139.8800   71.0500  224.9900 N   0  0  0  0  0  0  0  0  0  0  0  0
  139.9490   73.0690  223.4640 H   0  0  0  0  0  0  0  0  0  0  0  0
  139.0813   72.8540  220.6124 H   0  0  0  0  0  0  0  0  0  0  0  0
  138.0727   73.9439  221.6685 H   0  0  0  0  0  0  0  0  0  0  0  0
  138.3466   75.4135  218.6883 H   0  0  0  0  0  0  0  0  0  0  0  0
  137.9230   75.8179  220.3939 H   0  0  0  0  0  0  0  0  0  0  0  0
  138.0524   77.7183  218.6219 H   0  0  0  0  0  0  0  0  0  0  0  0
  138.8264   77.9301  220.2664 H   0  0  0  0  0  0  0  0  0  0  0  0
  140.1019   77.4543  217.6082 H   0  0  0  0  0  0  0  0  0  0  0  0
  140.3139   78.8083  218.8369 H   0  0  0  0  0  0  0  0  0  0  0  0
  142.2672   77.2890  218.7014 H   0  0  0  0  0  0  0  0  0  0  0  0
  141.5245   77.3561  220.3114 H   0  0  0  0  0  0  0  0  0  0  0  0
  140.8411   75.2283  218.1659 H   0  0  0  0  0  0  0  0  0  0  0  0
  141.9334   73.7207  219.7817 H   0  0  0  0  0  0  0  0  0  0  0  0
  142.8881   74.7176  218.5691 H   0  0  0  0  0  0  0  0  0  0  0  0
  142.6280   75.5990  221.2390 H   0  0  0  0  0  0  0  0  0  0  0  0
  138.4552   68.7777  223.0355 H   0  0  0  0  0  0  0  0  0  0  0  0
  138.9719   67.3470  224.9601 H   0  0  0  0  0  0  0  0  0  0  0  0
  139.8940   67.0537  227.1714 H   0  0  0  0  0  0  0  0  0  0  0  0
  141.5810   70.4559  229.1075 H   0  0  0  0  0  0  0  0  0  0  0  0
  141.0682   71.9061  227.1846 H   0  0  0  0  0  0  0  0  0  0  0  0
  1  2  2  0
  2  3  1  0
  3  4  1  0
  4  5  1  0
  5  6  2  0
  5  7  1  0
  7  8  1  0
  8  9  1  0
  9 10  1  0
 10 11  1  0
 11 12  1  0
 12 13  1  0
 13 14  1  0
  2 15  1  0
 15 16  2  0
 16 17  1  0
 17 18  2  0
 18 19  1  0
 19 20  2  0
 20 21  1  0
 20 22  1  0
 22 23  2  0
 23 24  1  0
 24 25  2  0
 12  7  1  0
 25 15  1  0
 24 18  1  0
  3 26  1  0
  4 27  1  0
  4 28  1  0
  8 29  1  0
  8 30  1  0
  9 31  1  0
  9 32  1  0
 10 33  1  0
 10 34  1  0
 11 35  1  0
 11 36  1  0
 12 37  1  6
 13 38  1  0
 13 39  1  0
 14 40  1  0
 16 41  1  0
 17 42  1  0
 19 43  1  0
 22 44  1  0
 23 45  1  0
M  END
>  <smiles>  (33) 
O=C(NCC(=O)N1CCCC[C@H]1CO)c1ccc2cc(F)ccc2n1

>  <score_type>  (33) 
oracle

>  <origin>  (33) 
autodockgpu

>  <m_score__min__energy>  (33) 
-7.9100000000000001

>  <m_primary>  (33) 
energy

>  <rmsd>  (33) 
1.6632452204361992

>  <m_score__min__rmsd>  (33) 
1.6632452204361992

>  <meeko>  (33) 
{"free_energy": -5.77, "intermolecular_energy": -7.56, "internal_energy": -2.24, "cluster_size": 15, "cluster_id": 2, "rank_in_cluster": 15}

>  <energy>  (33) 
-6.39

>  <cluster_rmsd>  (33) 
1.53

>  <cluster>  (33) 
1

$$$$

     RDKit          3D

 45 47  0  0  0  0  0  0  0  0999 V2000
  141.3010   71.2680  221.2820 O   0  0  0  0  0  0  0  0  0  0  0  0
  140.7130   72.1900  221.9350 C   0  0  0  0  0  0  0  0  0  0  0  0
  139.8060   71.8390  222.9870 N   0  0  0  0  0  0  0  0  0  0  0  0
  139.5680   70.4550  223.2920 C   0  0  0  0  0  0  0  0  0  0  0  0
  139.2120   70.2320  224.7090 C   0  0  0  0  0  0  0  0  0  0  0  0
  138.0000   70.0240  224.9730 O   0  0  0  0  0  0  0  0  0  0  0  0
  140.2410   70.2670  225.6850 N   0  0  0  0  0  0  0  0  0  0  0  0
  140.9500   71.5230  225.9890 C   0  0  0  0  0  0  0  0  0  0  0  0
  140.9070   71.8060  227.4740 C   0  0  0  0  0  0  0  0  0  0  0  0
  141.0410   70.5950  228.3210 C   0  0  0  0  0  0  0  0  0  0  0  0
  140.2420   69.3980  227.8650 C   0  0  0  0  0  0  0  0  0  0  0  0
  140.6730   69.1110  226.4440 C   0  0  1  0  0  0  0  0  0  0  0  0
  140.1830   67.8010  225.9400 C   0  0  0  0  0  0  0  0  0  0  0  0
  138.8420   67.5880  226.1020 O   0  0  0  0  0  0  0  0  0  0  0  0
  140.9490   73.5990  221.6280 C   0  0  0  0  0  0  0  0  0  0  0  0
  141.9310   73.9200  220.7110 C   0  0  0  0  0  0  0  0  0  0  0  0
  142.1990   75.2230  220.3830 C   0  0  0  0  0  0  0  0  0  0  0  0
  141.4920   76.2570  220.9640 C   0  0  0  0  0  0  0  0  0  0  0  0
  141.7640   77.5650  220.6310 C   0  0  0  0  0  0  0  0  0  0  0  0
  141.0310   78.5640  221.2380 C   0  0  0  0  0  0  0  0  0  0  0  0
  141.3140   79.8370  220.8980 F   0  0  0  0  0  0  0  0  0  0  0  0
  140.0730   78.2020  222.1390 C   0  0  0  0  0  0  0  0  0  0  0  0
  139.7850   76.8980  222.4860 C   0  0  0  0  0  0  0  0  0  0  0  0
  140.5160   75.8970  221.8800 C   0  0  0  0  0  0  0  0  0  0  0  0
  140.2720   74.5960  222.1860 N   0  0  0  0  0  0  0  0  0  0  0  0
  139.3490   72.6320  223.4910 H   0  0  0  0  0  0  0  0  0  0  0  0
  138.7423   70.0935  222.6615 H   0  0  0  0  0  0  0  0  0  0  0  0
  140.5021   69.9081  223.0960 H   0  0  0  0  0  0  0  0  0  0  0  0
  141.9981   71.4348  225.6670 H   0  0  0  0  0  0  0  0  0  0  0  0
  140.4586   72.3489  225.4538 H   0  0  0  0  0  0  0  0  0  0  0  0
  141.7300   72.4932  227.7196 H   0  0  0  0  0  0  0  0  0  0  0  0
  139.9182   72.2377  227.6883 H   0  0  0  0  0  0  0  0  0  0  0  0
  142.1028   70.3083  228.3387 H   0  0  0  0  0  0  0  0  0  0  0  0
  140.6423   70.8688  229.3090 H   0  0  0  0  0  0  0  0  0  0  0  0
  140.4541   68.5317  228.5089 H   0  0  0  0  0  0  0  0  0  0  0  0
  139.1614   69.5959  227.9210 H   0  0  0  0  0  0  0  0  0  0  0  0
  141.7618   68.9840  226.3525 H   0  0  0  0  0  0  0  0  0  0  0  0
  140.4114   67.7409  224.8657 H   0  0  0  0  0  0  0  0  0  0  0  0
  140.6926   67.0301  226.5367 H   0  0  0  0  0  0  0  0  0  0  0  0
  138.2680   68.3490  225.9260 H   0  0  0  0  0  0  0  0  0  0  0  0
  142.5089   73.1141  220.2350 H   0  0  0  0  0  0  0  0  0  0  0  0
  142.9863   75.4479  219.6485 H   0  0  0  0  0  0  0  0  0  0  0  0
  142.5475   77.8079  219.8981 H   0  0  0  0  0  0  0  0  0  0  0  0
  139.4919   79.0022  222.6206 H   0  0  0  0  0  0  0  0  0  0  0  0
  138.9999   76.6646  223.2202 H   0  0  0  0  0  0  0  0  0  0  0  0
  1  2  2  0
  2  3  1  0
  3  4  1  0
  4  5  1  0
  5  6  2  0
  5  7  1  0
  7  8  1  0
  8  9  1  0
  9 10  1  0
 10 11  1  0
 11 12  1  0
 12 13  1  0
 13 14  1  0
  2 15  1  0
 15 16  2  0
 16 17  1  0
 17 18  2  0
 18 19  1  0
 19 20  2  0
 20 21  1  0
 20 22  1  0
 22 23  2  0
 23 24  1  0
 24 25  2  0
 12  7  1  0
 25 15  1  0
 24 18  1  0
  3 26  1  0
  4 27  1  0
  4 28  1  0
  8 29  1  0
  8 30  1  0
  9 31  1  0
  9 32  1  0
 10 33  1  0
 10 34  1  0
 11 35  1  0
 11 36  1  0
 12 37  1  1
 13 38  1  0
 13 39  1  0
 14 40  1  0
 16 41  1  0
 17 42  1  0
 19 43  1  0
 22 44  1  0
 23 45  1  0
M  END
>  <smiles>  (34) 
O=C(NCC(=O)N1CCCC[C@H]1CO)c1ccc2cc(F)ccc2n1

>  <score_type>  (34) 
oracle

>  <origin>  (34) 
autodockgpu

>  <m_score__min__energy>  (34) 
-7.9100000000000001

>  <m_primary>  (34) 
energy

>  <rmsd>  (34) 
8.670708307711296

>  <m_score__min__rmsd>  (34) 
8.670708307711296

>  <meeko>  (34) 
{"free_energy": -7.36, "intermolecular_energy": -9.15, "internal_energy": -1.99, "cluster_size": 33, "cluster_id": 1, "rank_in_cluster": 14}

>  <energy>  (34) 
-6.92

>  <cluster_rmsd>  (34) 
0.0

>  <cluster>  (34) 
2

$$$$

     RDKit          3D

 45 47  0  0  0  0  0  0  0  0999 V2000
  141.5220   71.7500  221.0890 O   0  0  0  0  0  0  0  0  0  0  0  0
  140.9270   72.6390  221.7810 C   0  0  0  0  0  0  0  0  0  0  0  0
  140.0850   72.2380  222.8690 N   0  0  0  0  0  0  0  0  0  0  0  0
  139.9210   70.8420  223.1670 C   0  0  0  0  0  0  0  0  0  0  0  0
  139.3820   70.6030  224.5230 C   0  0  0  0  0  0  0  0  0  0  0  0
  138.1330   70.5310  224.6420 O   0  0  0  0  0  0  0  0  0  0  0  0
  140.2910   70.4730  225.6040 N   0  0  0  0  0  0  0  0  0  0  0  0
  141.0740   71.6290  226.0760 C   0  0  0  0  0  0  0  0  0  0  0  0
  140.8870   71.8200  227.5650 C   0  0  0  0  0  0  0  0  0  0  0  0
  140.8090   70.5500  228.3290 C   0  0  0  0  0  0  0  0  0  0  0  0
  139.9600   69.4710  227.7010 C   0  0  0  0  0  0  0  0  0  0  0  0
  140.5240   69.2330  226.3180 C   0  0  1  0  0  0  0  0  0  0  0  0
  139.9750   68.0130  225.6670 C   0  0  0  0  0  0  0  0  0  0  0  0
  138.6170   67.8810  225.7470 O   0  0  0  0  0  0  0  0  0  0  0  0
  141.0890   74.0600  221.4820 C   0  0  0  0  0  0  0  0  0  0  0  0
  141.9570   74.4290  220.4720 C   0  0  0  0  0  0  0  0  0  0  0  0
  142.1510   75.7450  220.1460 C   0  0  0  0  0  0  0  0  0  0  0  0
  141.4810   76.7460  220.8220 C   0  0  0  0  0  0  0  0  0  0  0  0
  141.6790   78.0680  220.4910 C   0  0  0  0  0  0  0  0  0  0  0  0
  140.9870   79.0320  221.1950 C   0  0  0  0  0  0  0  0  0  0  0  0
  141.1960   80.3190  220.8550 F   0  0  0  0  0  0  0  0  0  0  0  0
  140.1420   78.6240  222.1840 C   0  0  0  0  0  0  0  0  0  0  0  0
  139.9300   77.3050  222.5310 C   0  0  0  0  0  0  0  0  0  0  0  0
  140.6200   76.3390  221.8290 C   0  0  0  0  0  0  0  0  0  0  0  0
  140.4470   75.0260  222.1300 N   0  0  0  0  0  0  0  0  0  0  0  0
  139.6200   73.0050  223.4040 H   0  0  0  0  0  0  0  0  0  0  0  0
  139.2289   70.4051  222.4321 H   0  0  0  0  0  0  0  0  0  0  0  0
  140.9159   70.3751  223.1200 H   0  0  0  0  0  0  0  0  0  0  0  0
  142.1394   71.4561  225.8637 H   0  0  0  0  0  0  0  0  0  0  0  0
  140.7263   72.5326  225.5539 H   0  0  0  0  0  0  0  0  0  0  0  0
  141.7369   72.4035  227.9488 H   0  0  0  0  0  0  0  0  0  0  0  0
  139.9248   72.3350  227.7025 H   0  0  0  0  0  0  0  0  0  0  0  0
  141.8304   70.1571  228.4405 H   0  0  0  0  0  0  0  0  0  0  0  0
  140.3261   70.7993  229.2854 H   0  0  0  0  0  0  0  0  0  0  0  0
  140.0147   68.5486  228.2978 H   0  0  0  0  0  0  0  0  0  0  0  0
  138.9033   69.7727  227.6537 H   0  0  0  0  0  0  0  0  0  0  0  0
  141.5996   69.0034  226.3366 H   0  0  0  0  0  0  0  0  0  0  0  0
  140.2541   68.0380  224.6033 H   0  0  0  0  0  0  0  0  0  0  0  0
  140.4013   67.1555  226.2082 H   0  0  0  0  0  0  0  0  0  0  0  0
  138.0980   68.5660  225.3000 H   0  0  0  0  0  0  0  0  0  0  0  0
  142.5029   73.6504  219.9190 H   0  0  0  0  0  0  0  0  0  0  0  0
  142.8482   76.0077  219.3367 H   0  0  0  0  0  0  0  0  0  0  0  0
  142.3724   78.3488  219.6845 H   0  0  0  0  0  0  0  0  0  0  0  0
  139.5931   79.3968  222.7421 H   0  0  0  0  0  0  0  0  0  0  0  0
  139.2349   77.0337  223.3393 H   0  0  0  0  0  0  0  0  0  0  0  0
  1  2  2  0
  2  3  1  0
  3  4  1  0
  4  5  1  0
  5  6  2  0
  5  7  1  0
  7  8  1  0
  8  9  1  0
  9 10  1  0
 10 11  1  0
 11 12  1  0
 12 13  1  0
 13 14  1  0
  2 15  1  0
 15 16  2  0
 16 17  1  0
 17 18  2  0
 18 19  1  0
 19 20  2  0
 20 21  1  0
 20 22  1  0
 22 23  2  0
 23 24  1  0
 24 25  2  0
 12  7  1  0
 25 15  1  0
 24 18  1  0
  3 26  1  0
  4 27  1  0
  4 28  1  0
  8 29  1  0
  8 30  1  0
  9 31  1  0
  9 32  1  0
 10 33  1  0
 10 34  1  0
 11 35  1  0
 11 36  1  0
 12 37  1  1
 13 38  1  0
 13 39  1  0
 14 40  1  0
 16 41  1  0
 17 42  1  0
 19 43  1  0
 22 44  1  0
 23 45  1  0
M  END
>  <smiles>  (35) 
O=C(NCC(=O)N1CCCC[C@H]1CO)c1ccc2cc(F)ccc2n1

>  <score_type>  (35) 
oracle

>  <origin>  (35) 
autodockgpu

>  <m_score__min__energy>  (35) 
-7.9100000000000001

>  <m_primary>  (35) 
energy

>  <rmsd>  (35) 
8.796189282250557

>  <m_score__min__rmsd>  (35) 
8.796189282250557

>  <meeko>  (35) 
{"free_energy": -7.18, "intermolecular_energy": -8.97, "internal_energy": -1.96, "cluster_size": 33, "cluster_id": 1, "rank_in_cluster": 27}

>  <energy>  (35) 
-6.91

>  <cluster_rmsd>  (35) 
0.08

>  <cluster>  (35) 
2

$$$$

     RDKit          3D

 45 47  0  0  0  0  0  0  0  0999 V2000
  141.4140   71.6440  221.1550 O   0  0  0  0  0  0  0  0  0  0  0  0
  140.8200   72.5320  221.8490 C   0  0  0  0  0  0  0  0  0  0  0  0
  139.9510   72.1280  222.9140 N   0  0  0  0  0  0  0  0  0  0  0  0
  139.7560   70.7310  223.1860 C   0  0  0  0  0  0  0  0  0  0  0  0
  139.2580   70.4760  224.5540 C   0  0  0  0  0  0  0  0  0  0  0  0
  138.0120   70.4040  224.7090 O   0  0  0  0  0  0  0  0  0  0  0  0
  140.1980   70.3290  225.6060 N   0  0  0  0  0  0  0  0  0  0  0  0
  141.0030   71.4760  226.0640 C   0  0  0  0  0  0  0  0  0  0  0  0
  140.8620   71.6550  227.5590 C   0  0  0  0  0  0  0  0  0  0  0  0
  140.8000   70.3790  228.3140 C   0  0  0  0  0  0  0  0  0  0  0  0
  139.9240   69.3110  227.7030 C   0  0  0  0  0  0  0  0  0  0  0  0
  140.4450   69.0820  226.3010 C   0  0  1  0  0  0  0  0  0  0  0  0
  139.8680   67.8710  225.6570 C   0  0  0  0  0  0  0  0  0  0  0  0
  139.2090   67.0270  226.5060 O   0  0  0  0  0  0  0  0  0  0  0  0
  141.0130   73.9540  221.5770 C   0  0  0  0  0  0  0  0  0  0  0  0
  141.9350   74.3240  220.6160 C   0  0  0  0  0  0  0  0  0  0  0  0
  142.1590   75.6420  220.3170 C   0  0  0  0  0  0  0  0  0  0  0  0
  141.4680   76.6430  220.9720 C   0  0  0  0  0  0  0  0  0  0  0  0
  141.6970   77.9660  220.6670 C   0  0  0  0  0  0  0  0  0  0  0  0
  140.9820   78.9300  221.3480 C   0  0  0  0  0  0  0  0  0  0  0  0
  141.2220   80.2190  221.0350 F   0  0  0  0  0  0  0  0  0  0  0  0
  140.0840   78.5200  222.2890 C   0  0  0  0  0  0  0  0  0  0  0  0
  139.8400   77.2000  222.6080 C   0  0  0  0  0  0  0  0  0  0  0  0
  140.5530   76.2340  221.9290 C   0  0  0  0  0  0  0  0  0  0  0  0
  140.3510   74.9190  222.2040 N   0  0  0  0  0  0  0  0  0  0  0  0
  139.4880   72.8950  223.4520 H   0  0  0  0  0  0  0  0  0  0  0  0
  139.0260   70.3318  222.4665 H   0  0  0  0  0  0  0  0  0  0  0  0
  140.7343   70.2367  223.0931 H   0  0  0  0  0  0  0  0  0  0  0  0
  142.0603   71.2980  225.8183 H   0  0  0  0  0  0  0  0  0  0  0  0
  140.6462   72.3864  225.5602 H   0  0  0  0  0  0  0  0  0  0  0  0
  141.7263   72.2306  227.9220 H   0  0  0  0  0  0  0  0  0  0  0  0
  139.9072   72.1739  227.7299 H   0  0  0  0  0  0  0  0  0  0  0  0
  141.8217   69.9786  228.3897 H   0  0  0  0  0  0  0  0  0  0  0  0
  140.3496   70.6225  229.2876 H   0  0  0  0  0  0  0  0  0  0  0  0
  139.9901   68.3829  228.2898 H   0  0  0  0  0  0  0  0  0  0  0  0
  138.8683   69.6198  227.6908 H   0  0  0  0  0  0  0  0  0  0  0  0
  141.5193   68.8461  226.2842 H   0  0  0  0  0  0  0  0  0  0  0  0
  139.1585   68.2004  224.8836 H   0  0  0  0  0  0  0  0  0  0  0  0
  140.7180   67.3012  225.2535 H   0  0  0  0  0  0  0  0  0  0  0  0
  139.7390   66.6500  227.2250 H   0  0  0  0  0  0  0  0  0  0  0  0
  142.4993   73.5457  220.0814 H   0  0  0  0  0  0  0  0  0  0  0  0
  142.8979   75.9064  219.5462 H   0  0  0  0  0  0  0  0  0  0  0  0
  142.4323   78.2478  219.8989 H   0  0  0  0  0  0  0  0  0  0  0  0
  139.5170   79.2925  222.8292 H   0  0  0  0  0  0  0  0  0  0  0  0
  139.1024   76.9274  223.3772 H   0  0  0  0  0  0  0  0  0  0  0  0
  1  2  2  0
  2  3  1  0
  3  4  1  0
  4  5  1  0
  5  6  2  0
  5  7  1  0
  7  8  1  0
  8  9  1  0
  9 10  1  0
 10 11  1  0
 11 12  1  0
 12 13  1  0
 13 14  1  0
  2 15  1  0
 15 16  2  0
 16 17  1  0
 17 18  2  0
 18 19  1  0
 19 20  2  0
 20 21  1  0
 20 22  1  0
 22 23  2  0
 23 24  1  0
 24 25  2  0
 12  7  1  0
 25 15  1  0
 24 18  1  0
  3 26  1  0
  4 27  1  0
  4 28  1  0
  8 29  1  0
  8 30  1  0
  9 31  1  0
  9 32  1  0
 10 33  1  0
 10 34  1  0
 11 35  1  0
 11 36  1  0
 12 37  1  1
 13 38  1  0
 13 39  1  0
 14 40  1  0
 16 41  1  0
 17 42  1  0
 19 43  1  0
 22 44  1  0
 23 45  1  0
M  END
>  <smiles>  (36) 
O=C(NCC(=O)N1CCCC[C@H]1CO)c1ccc2cc(F)ccc2n1

>  <score_type>  (36) 
oracle

>  <origin>  (36) 
autodockgpu

>  <m_score__min__energy>  (36) 
-7.9100000000000001

>  <m_primary>  (36) 
energy

>  <rmsd>  (36) 
8.729734581359983

>  <m_score__min__rmsd>  (36) 
8.729734581359983

>  <meeko>  (36) 
{"free_energy": -7.88, "intermolecular_energy": -9.67, "internal_energy": -1.26, "cluster_size": 33, "cluster_id": 1, "rank_in_cluster": 2}

>  <energy>  (36) 
-6.91

>  <cluster_rmsd>  (36) 
0.06

>  <cluster>  (36) 
2

$$$$

     RDKit          3D

 45 47  0  0  0  0  0  0  0  0999 V2000
  141.0520   71.6450  221.3130 O   0  0  0  0  0  0  0  0  0  0  0  0
  140.4840   72.1340  222.3430 C   0  0  0  0  0  0  0  0  0  0  0  0
  140.0120   73.4870  222.3100 N   0  0  0  0  0  0  0  0  0  0  0  0
  140.1840   74.2750  221.1210 C   0  0  0  0  0  0  0  0  0  0  0  0
  141.0460   75.4560  221.3350 C   0  0  0  0  0  0  0  0  0  0  0  0
  140.7270   76.2430  222.2630 O   0  0  0  0  0  0  0  0  0  0  0  0
  142.1730   75.6400  220.4920 N   0  0  0  0  0  0  0  0  0  0  0  0
  143.1500   74.5560  220.2910 C   0  0  0  0  0  0  0  0  0  0  0  0
  143.3450   74.2890  218.8150 C   0  0  0  0  0  0  0  0  0  0  0  0
  143.3370   75.5140  217.9770 C   0  0  0  0  0  0  0  0  0  0  0  0
  142.2650   76.5210  218.3190 C   0  0  0  0  0  0  0  0  0  0  0  0
  142.4550   76.8690  219.7780 C   0  0  1  0  0  0  0  0  0  0  0  0
  141.6550   78.0490  220.2040 C   0  0  0  0  0  0  0  0  0  0  0  0
  141.8880   78.4700  221.4840 O   0  0  0  0  0  0  0  0  0  0  0  0
  140.3060   71.3380  223.5550 C   0  0  0  0  0  0  0  0  0  0  0  0
  139.6530   70.1250  223.4590 C   0  0  0  0  0  0  0  0  0  0  0  0
  139.4560   69.3340  224.5610 C   0  0  0  0  0  0  0  0  0  0  0  0
  139.9070   69.7310  225.8050 C   0  0  0  0  0  0  0  0  0  0  0  0
  139.7070   68.9340  226.9090 C   0  0  0  0  0  0  0  0  0  0  0  0
  140.1750   69.3720  228.1300 C   0  0  0  0  0  0  0  0  0  0  0  0
  139.9680   68.5760  229.1980 F   0  0  0  0  0  0  0  0  0  0  0  0
  140.8130   70.5770  228.1790 C   0  0  0  0  0  0  0  0  0  0  0  0
  141.0230   71.3910  227.0850 C   0  0  0  0  0  0  0  0  0  0  0  0
  140.5560   70.9540  225.8620 C   0  0  0  0  0  0  0  0  0  0  0  0
  140.7370   71.7170  224.7530 N   0  0  0  0  0  0  0  0  0  0  0  0
  139.5530   73.8400  223.1800 H   0  0  0  0  0  0  0  0  0  0  0  0
  140.6398   73.6436  220.3441 H   0  0  0  0  0  0  0  0  0  0  0  0
  139.1911   74.6405  220.8201 H   0  0  0  0  0  0  0  0  0  0  0  0
  144.1123   74.8481  220.7367 H   0  0  0  0  0  0  0  0  0  0  0  0
  142.7726   73.6417  220.7722 H   0  0  0  0  0  0  0  0  0  0  0  0
  144.3120   73.7826  218.6793 H   0  0  0  0  0  0  0  0  0  0  0  0
  142.4958   73.6716  218.4869 H   0  0  0  0  0  0  0  0  0  0  0  0
  144.3142   76.0072  218.0862 H   0  0  0  0  0  0  0  0  0  0  0  0
  143.1251   75.1799  216.9506 H   0  0  0  0  0  0  0  0  0  0  0  0
  142.3757   77.4207  217.6959 H   0  0  0  0  0  0  0  0  0  0  0  0
  141.2607   76.1120  218.1344 H   0  0  0  0  0  0  0  0  0  0  0  0
  143.4774   77.2089  219.9996 H   0  0  0  0  0  0  0  0  0  0  0  0
  141.8849   78.8817  219.5231 H   0  0  0  0  0  0  0  0  0  0  0  0
  140.6009   77.7365  220.1687 H   0  0  0  0  0  0  0  0  0  0  0  0
  142.2090   77.7940  222.1000 H   0  0  0  0  0  0  0  0  0  0  0  0
  139.2839   69.7871  222.4794 H   0  0  0  0  0  0  0  0  0  0  0  0
  138.9329   68.3723  224.4536 H   0  0  0  0  0  0  0  0  0  0  0  0
  139.1857   67.9695  226.8195 H   0  0  0  0  0  0  0  0  0  0  0  0
  141.1845   70.9223  229.1551 H   0  0  0  0  0  0  0  0  0  0  0  0
  141.5444   72.3545  227.1841 H   0  0  0  0  0  0  0  0  0  0  0  0
  1  2  2  0
  2  3  1  0
  3  4  1  0
  4  5  1  0
  5  6  2  0
  5  7  1  0
  7  8  1  0
  8  9  1  0
  9 10  1  0
 10 11  1  0
 11 12  1  0
 12 13  1  0
 13 14  1  0
  2 15  1  0
 15 16  2  0
 16 17  1  0
 17 18  2  0
 18 19  1  0
 19 20  2  0
 20 21  1  0
 20 22  1  0
 22 23  2  0
 23 24  1  0
 24 25  2  0
 12  7  1  0
 25 15  1  0
 24 18  1  0
  3 26  1  0
  4 27  1  0
  4 28  1  0
  8 29  1  0
  8 30  1  0
  9 31  1  0
  9 32  1  0
 10 33  1  0
 10 34  1  0
 11 35  1  0
 11 36  1  0
 12 37  1  6
 13 38  1  0
 13 39  1  0
 14 40  1  0
 16 41  1  0
 17 42  1  0
 19 43  1  0
 22 44  1  0
 23 45  1  0
M  END
>  <smiles>  (37) 
O=C(NCC(=O)N1CCCC[C@H]1CO)c1ccc2cc(F)ccc2n1

>  <score_type>  (37) 
oracle

>  <origin>  (37) 
autodockgpu

>  <m_score__min__energy>  (37) 
-7.9100000000000001

>  <m_primary>  (37) 
energy

>  <rmsd>  (37) 
2.3001303720008446

>  <m_score__min__rmsd>  (37) 
2.3001303720008446

>  <meeko>  (37) 
{"free_energy": -6.84, "intermolecular_energy": -8.63, "internal_energy": -1.8, "cluster_size": 15, "cluster_id": 2, "rank_in_cluster": 6}

>  <energy>  (37) 
-6.91

>  <cluster_rmsd>  (37) 
0.08

>  <cluster>  (37) 
2

$$$$

     RDKit          3D

 45 47  0  0  0  0  0  0  0  0999 V2000
  141.0820   72.0420  221.3450 O   0  0  0  0  0  0  0  0  0  0  0  0
  140.2570   72.3410  222.2670 C   0  0  0  0  0  0  0  0  0  0  0  0
  139.4270   73.5000  222.1200 N   0  0  0  0  0  0  0  0  0  0  0  0
  139.5350   74.3110  220.9380 C   0  0  0  0  0  0  0  0  0  0  0  0
  140.7850   75.0970  220.8930 C   0  0  0  0  0  0  0  0  0  0  0  0
  141.3910   75.2790  221.9790 O   0  0  0  0  0  0  0  0  0  0  0  0
  141.2280   75.6020  219.6430 N   0  0  0  0  0  0  0  0  0  0  0  0
  140.2660   76.1080  218.6490 C   0  0  0  0  0  0  0  0  0  0  0  0
  140.6430   77.5070  218.2150 C   0  0  0  0  0  0  0  0  0  0  0  0
  142.1050   77.7210  218.0830 C   0  0  0  0  0  0  0  0  0  0  0  0
  142.9450   77.1380  219.1940 C   0  0  0  0  0  0  0  0  0  0  0  0
  142.6200   75.6610  219.2450 C   0  0  1  0  0  0  0  0  0  0  0  0
  143.5600   74.8880  220.1000 C   0  0  0  0  0  0  0  0  0  0  0  0
  143.1320   73.6340  220.4360 O   0  0  0  0  0  0  0  0  0  0  0  0
  140.1430   71.5220  223.4720 C   0  0  0  0  0  0  0  0  0  0  0  0
  139.5090   70.2980  223.3810 C   0  0  0  0  0  0  0  0  0  0  0  0
  139.3710   69.4860  224.4760 C   0  0  0  0  0  0  0  0  0  0  0  0
  139.8650   69.8710  225.7070 C   0  0  0  0  0  0  0  0  0  0  0  0
  139.7250   69.0510  226.8050 C   0  0  0  0  0  0  0  0  0  0  0  0
  140.2350   69.4790  228.0140 C   0  0  0  0  0  0  0  0  0  0  0  0
  140.0870   68.6610  229.0750 F   0  0  0  0  0  0  0  0  0  0  0  0
  140.8520   70.6940  228.0570 C   0  0  0  0  0  0  0  0  0  0  0  0
  141.0030   71.5290  226.9700 C   0  0  0  0  0  0  0  0  0  0  0  0
  140.4940   71.1050  225.7600 C   0  0  0  0  0  0  0  0  0  0  0  0
  140.6160   71.8890  224.6580 N   0  0  0  0  0  0  0  0  0  0  0  0
  138.7670   73.7030  222.9050 H   0  0  0  0  0  0  0  0  0  0  0  0
  139.5018   73.6534  220.0568 H   0  0  0  0  0  0  0  0  0  0  0  0
  138.6970   75.0235  220.9485 H   0  0  0  0  0  0  0  0  0  0  0  0
  140.2676   75.4437  217.7722 H   0  0  0  0  0  0  0  0  0  0  0  0
  139.2642   76.1329  219.1025 H   0  0  0  0  0  0  0  0  0  0  0  0
  140.1743   77.7054  217.2398 H   0  0  0  0  0  0  0  0  0  0  0  0
  140.2893   78.1915  219.0001 H   0  0  0  0  0  0  0  0  0  0  0  0
  142.4310   77.2662  217.1359 H   0  0  0  0  0  0  0  0  0  0  0  0
  142.2582   78.8095  218.1247 H   0  0  0  0  0  0  0  0  0  0  0  0
  144.0139   77.2852  218.9801 H   0  0  0  0  0  0  0  0  0  0  0  0
  142.7298   77.6272  220.1555 H   0  0  0  0  0  0  0  0  0  0  0  0
  142.7558   75.1655  218.2724 H   0  0  0  0  0  0  0  0  0  0  0  0
  144.5129   74.7906  219.5592 H   0  0  0  0  0  0  0  0  0  0  0  0
  143.6506   75.4467  221.0432 H   0  0  0  0  0  0  0  0  0  0  0  0
  142.4850   73.5850  221.1560 H   0  0  0  0  0  0  0  0  0  0  0  0
  139.1074   69.9691  222.4112 H   0  0  0  0  0  0  0  0  0  0  0  0
  138.8611   68.5167  224.3735 H   0  0  0  0  0  0  0  0  0  0  0  0
  139.2187   68.0781  226.7202 H   0  0  0  0  0  0  0  0  0  0  0  0
  141.2563   71.0306  229.0231 H   0  0  0  0  0  0  0  0  0  0  0  0
  141.5118   72.4997  227.0645 H   0  0  0  0  0  0  0  0  0  0  0  0
  1  2  2  0
  2  3  1  0
  3  4  1  0
  4  5  1  0
  5  6  2  0
  5  7  1  0
  7  8  1  0
  8  9  1  0
  9 10  1  0
 10 11  1  0
 11 12  1  0
 12 13  1  0
 13 14  1  0
  2 15  1  0
 15 16  2  0
 16 17  1  0
 17 18  2  0
 18 19  1  0
 19 20  2  0
 20 21  1  0
 20 22  1  0
 22 23  2  0
 23 24  1  0
 24 25  2  0
 12  7  1  0
 25 15  1  0
 24 18  1  0
  3 26  1  0
  4 27  1  0
  4 28  1  0
  8 29  1  0
  8 30  1  0
  9 31  1  0
  9 32  1  0
 10 33  1  0
 10 34  1  0
 11 35  1  0
 11 36  1  0
 12 37  1  6
 13 38  1  0
 13 39  1  0
 14 40  1  0
 16 41  1  0
 17 42  1  0
 19 43  1  0
 22 44  1  0
 23 45  1  0
M  END
>  <smiles>  (38) 
O=C(NCC(=O)N1CCCC[C@H]1CO)c1ccc2cc(F)ccc2n1

>  <score_type>  (38) 
oracle

>  <origin>  (38) 
autodockgpu

>  <m_score__min__energy>  (38) 
-7.9100000000000001

>  <m_primary>  (38) 
energy

>  <rmsd>  (38) 
1.8977213450175179

>  <m_score__min__rmsd>  (38) 
1.8977213450175179

>  <meeko>  (38) 
{"free_energy": -6.2, "intermolecular_energy": -7.99, "internal_energy": -2.33, "cluster_size": 15, "cluster_id": 2, "rank_in_cluster": 14}

>  <energy>  (38) 
-6.9

>  <cluster_rmsd>  (38) 
0.26

>  <cluster>  (38) 
2

$$$$

     RDKit          3D

 45 47  0  0  0  0  0  0  0  0999 V2000
  141.5400   71.7250  221.0770 O   0  0  0  0  0  0  0  0  0  0  0  0
  140.9140   72.6340  221.7130 C   0  0  0  0  0  0  0  0  0  0  0  0
  139.9950   72.2630  222.7470 N   0  0  0  0  0  0  0  0  0  0  0  0
  139.7870   70.8750  223.0540 C   0  0  0  0  0  0  0  0  0  0  0  0
  139.2480   70.6610  224.4130 C   0  0  0  0  0  0  0  0  0  0  0  0
  137.9990   70.6990  224.5500 O   0  0  0  0  0  0  0  0  0  0  0  0
  140.1560   70.4300  225.4790 N   0  0  0  0  0  0  0  0  0  0  0  0
  141.0860   71.4840  225.9210 C   0  0  0  0  0  0  0  0  0  0  0  0
  140.9550   71.7130  227.4100 C   0  0  0  0  0  0  0  0  0  0  0  0
  140.7370   70.4700  228.1910 C   0  0  0  0  0  0  0  0  0  0  0  0
  139.7470   69.4980  227.5940 C   0  0  0  0  0  0  0  0  0  0  0  0
  140.2490   69.1780  226.2030 C   0  0  1  0  0  0  0  0  0  0  0  0
  139.5400   68.0290  225.5790 C   0  0  0  0  0  0  0  0  0  0  0  0
  139.2130   67.0190  226.4400 O   0  0  0  0  0  0  0  0  0  0  0  0
  141.1200   74.0470  221.4050 C   0  0  0  0  0  0  0  0  0  0  0  0
  142.0460   74.3850  220.4360 C   0  0  0  0  0  0  0  0  0  0  0  0
  142.2820   75.6930  220.1040 C   0  0  0  0  0  0  0  0  0  0  0  0
  141.5990   76.7160  220.7330 C   0  0  0  0  0  0  0  0  0  0  0  0
  141.8400   78.0290  220.3960 C   0  0  0  0  0  0  0  0  0  0  0  0
  141.1320   79.0160  221.0510 C   0  0  0  0  0  0  0  0  0  0  0  0
  141.3840   80.2940  220.7050 F   0  0  0  0  0  0  0  0  0  0  0  0
  140.2300   78.6370  222.0000 C   0  0  0  0  0  0  0  0  0  0  0  0
  139.9740   77.3280  222.3520 C   0  0  0  0  0  0  0  0  0  0  0  0
  140.6800   76.3390  221.6990 C   0  0  0  0  0  0  0  0  0  0  0  0
  140.4650   75.0340  222.0070 N   0  0  0  0  0  0  0  0  0  0  0  0
  139.5070   73.0460  223.2380 H   0  0  0  0  0  0  0  0  0  0  0  0
  139.0772   70.4569  222.3251 H   0  0  0  0  0  0  0  0  0  0  0  0
  140.7660   70.3759  223.0049 H   0  0  0  0  0  0  0  0  0  0  0  0
  142.1170   71.1773  225.6909 H   0  0  0  0  0  0  0  0  0  0  0  0
  140.8426   72.4183  225.3938 H   0  0  0  0  0  0  0  0  0  0  0  0
  141.8781   72.1911  227.7698 H   0  0  0  0  0  0  0  0  0  0  0  0
  140.0672   72.3449  227.5597 H   0  0  0  0  0  0  0  0  0  0  0  0
  141.7041   69.9545  228.2864 H   0  0  0  0  0  0  0  0  0  0  0  0
  140.3096   70.7867  229.1538 H   0  0  0  0  0  0  0  0  0  0  0  0
  139.6994   68.5821  228.2014 H   0  0  0  0  0  0  0  0  0  0  0  0
  138.7348   69.9275  227.5639 H   0  0  0  0  0  0  0  0  0  0  0  0
  141.2882   68.8173  226.2027 H   0  0  0  0  0  0  0  0  0  0  0  0
  138.6113   68.4058  225.1256 H   0  0  0  0  0  0  0  0  0  0  0  0
  140.2375   67.5967  224.8465 H   0  0  0  0  0  0  0  0  0  0  0  0
  139.9510   66.6220  226.9270 H   0  0  0  0  0  0  0  0  0  0  0  0
  142.6040   73.5887  219.9217 H   0  0  0  0  0  0  0  0  0  0  0  0
  143.0239   75.9315  219.3276 H   0  0  0  0  0  0  0  0  0  0  0  0
  142.5794   78.2852  219.6229 H   0  0  0  0  0  0  0  0  0  0  0  0
  139.6689   79.4276  222.5198 H   0  0  0  0  0  0  0  0  0  0  0  0
  139.2327   77.0814  223.1264 H   0  0  0  0  0  0  0  0  0  0  0  0
  1  2  2  0
  2  3  1  0
  3  4  1  0
  4  5  1  0
  5  6  2  0
  5  7  1  0
  7  8  1  0
  8  9  1  0
  9 10  1  0
 10 11  1  0
 11 12  1  0
 12 13  1  0
 13 14  1  0
  2 15  1  0
 15 16  2  0
 16 17  1  0
 17 18  2  0
 18 19  1  0
 19 20  2  0
 20 21  1  0
 20 22  1  0
 22 23  2  0
 23 24  1  0
 24 25  2  0
 12  7  1  0
 25 15  1  0
 24 18  1  0
  3 26  1  0
  4 27  1  0
  4 28  1  0
  8 29  1  0
  8 30  1  0
  9 31  1  0
  9 32  1  0
 10 33  1  0
 10 34  1  0
 11 35  1  0
 11 36  1  0
 12 37  1  1
 13 38  1  0
 13 39  1  0
 14 40  1  0
 16 41  1  0
 17 42  1  0
 19 43  1  0
 22 44  1  0
 23 45  1  0
M  END
>  <smiles>  (39) 
O=C(NCC(=O)N1CCCC[C@H]1CO)c1ccc2cc(F)ccc2n1

>  <score_type>  (39) 
oracle

>  <origin>  (39) 
autodockgpu

>  <m_score__min__energy>  (39) 
-7.9100000000000001

>  <m_primary>  (39) 
energy

>  <rmsd>  (39) 
8.754295867851717

>  <m_score__min__rmsd>  (39) 
8.754295867851717

>  <meeko>  (39) 
{"free_energy": -7.87, "intermolecular_energy": -9.66, "internal_energy": -1.25, "cluster_size": 33, "cluster_id": 1, "rank_in_cluster": 3}

>  <energy>  (39) 
-6.84

>  <cluster_rmsd>  (39) 
0.27

>  <cluster>  (39) 
2

$$$$

     RDKit          3D

 45 47  0  0  0  0  0  0  0  0999 V2000
  141.4130   71.5090  221.2130 O   0  0  0  0  0  0  0  0  0  0  0  0
  140.8230   72.4320  221.8620 C   0  0  0  0  0  0  0  0  0  0  0  0
  139.9270   72.0840  222.9250 N   0  0  0  0  0  0  0  0  0  0  0  0
  139.7030   70.7010  223.2460 C   0  0  0  0  0  0  0  0  0  0  0  0
  139.3050   70.4950  224.6540 C   0  0  0  0  0  0  0  0  0  0  0  0
  138.0770   70.3780  224.8940 O   0  0  0  0  0  0  0  0  0  0  0  0
  140.3170   70.4420  225.6480 N   0  0  0  0  0  0  0  0  0  0  0  0
  141.0740   71.6500  226.0190 C   0  0  0  0  0  0  0  0  0  0  0  0
  141.0150   71.8710  227.5140 C   0  0  0  0  0  0  0  0  0  0  0  0
  141.0800   70.6190  228.3090 C   0  0  0  0  0  0  0  0  0  0  0  0
  140.2380   69.4800  227.7870 C   0  0  0  0  0  0  0  0  0  0  0  0
  140.6840   69.2360  226.3620 C   0  0  1  0  0  0  0  0  0  0  0  0
  140.1460   67.9720  225.7930 C   0  0  0  0  0  0  0  0  0  0  0  0
  138.8150   67.7590  226.0190 O   0  0  0  0  0  0  0  0  0  0  0  0
  141.0460   73.8400  221.5410 C   0  0  0  0  0  0  0  0  0  0  0  0
  141.9910   74.1580  220.5850 C   0  0  0  0  0  0  0  0  0  0  0  0
  142.2440   75.4600  220.2410 C   0  0  0  0  0  0  0  0  0  0  0  0
  141.5580   76.4960  220.8440 C   0  0  0  0  0  0  0  0  0  0  0  0
  141.8160   77.8030  220.4950 C   0  0  0  0  0  0  0  0  0  0  0  0
  141.1050   78.8040  221.1250 C   0  0  0  0  0  0  0  0  0  0  0  0
  141.3730   80.0750  220.7680 F   0  0  0  0  0  0  0  0  0  0  0  0
  140.1820   78.4440  222.0630 C   0  0  0  0  0  0  0  0  0  0  0  0
  139.9100   77.1410  222.4260 C   0  0  0  0  0  0  0  0  0  0  0  0
  140.6190   76.1390  221.7980 C   0  0  0  0  0  0  0  0  0  0  0  0
  140.3880   74.8390  222.1190 N   0  0  0  0  0  0  0  0  0  0  0  0
  139.4680   72.8780  223.4260 H   0  0  0  0  0  0  0  0  0  0  0  0
  138.9047   70.3144  222.5954 H   0  0  0  0  0  0  0  0  0  0  0  0
  140.6524   70.1678  223.0898 H   0  0  0  0  0  0  0  0  0  0  0  0
  142.1232   71.5288  225.7117 H   0  0  0  0  0  0  0  0  0  0  0  0
  140.6296   72.5192  225.5121 H   0  0  0  0  0  0  0  0  0  0  0  0
  141.8624   72.5098  227.8036 H   0  0  0  0  0  0  0  0  0  0  0  0
  140.0423   72.3370  227.7303 H   0  0  0  0  0  0  0  0  0  0  0  0
  142.1277   70.2847  228.3318 H   0  0  0  0  0  0  0  0  0  0  0  0
  140.6754   70.8670  229.3014 H   0  0  0  0  0  0  0  0  0  0  0  0
  140.3991   68.5780  228.3956 H   0  0  0  0  0  0  0  0  0  0  0  0
  139.1662   69.7233  227.8329 H   0  0  0  0  0  0  0  0  0  0  0  0
  141.7677   69.0649  226.2830 H   0  0  0  0  0  0  0  0  0  0  0  0
  140.3091   67.9904  224.7053 H   0  0  0  0  0  0  0  0  0  0  0  0
  140.6793   67.1543  226.2999 H   0  0  0  0  0  0  0  0  0  0  0  0
  138.2370   68.5290  225.9050 H   0  0  0  0  0  0  0  0  0  0  0  0
  142.5511   73.3507  220.0905 H   0  0  0  0  0  0  0  0  0  0  0  0
  143.0022   75.6827  219.4758 H   0  0  0  0  0  0  0  0  0  0  0  0
  142.5710   78.0434  219.7320 H   0  0  0  0  0  0  0  0  0  0  0  0
  139.6177   79.2452  222.5627 H   0  0  0  0  0  0  0  0  0  0  0  0
  139.1534   76.9095  223.1902 H   0  0  0  0  0  0  0  0  0  0  0  0
  1  2  2  0
  2  3  1  0
  3  4  1  0
  4  5  1  0
  5  6  2  0
  5  7  1  0
  7  8  1  0
  8  9  1  0
  9 10  1  0
 10 11  1  0
 11 12  1  0
 12 13  1  0
 13 14  1  0
  2 15  1  0
 15 16  2  0
 16 17  1  0
 17 18  2  0
 18 19  1  0
 19 20  2  0
 20 21  1  0
 20 22  1  0
 22 23  2  0
 23 24  1  0
 24 25  2  0
 12  7  1  0
 25 15  1  0
 24 18  1  0
  3 26  1  0
  4 27  1  0
  4 28  1  0
  8 29  1  0
  8 30  1  0
  9 31  1  0
  9 32  1  0
 10 33  1  0
 10 34  1  0
 11 35  1  0
 11 36  1  0
 12 37  1  1
 13 38  1  0
 13 39  1  0
 14 40  1  0
 16 41  1  0
 17 42  1  0
 19 43  1  0
 22 44  1  0
 23 45  1  0
M  END
>  <smiles>  (40) 
O=C(NCC(=O)N1CCCC[C@H]1CO)c1ccc2cc(F)ccc2n1

>  <score_type>  (40) 
oracle

>  <origin>  (40) 
autodockgpu

>  <m_score__min__energy>  (40) 
-7.9100000000000001

>  <m_primary>  (40) 
energy

>  <rmsd>  (40) 
8.724798837544048

>  <m_score__min__rmsd>  (40) 
8.724798837544048

>  <meeko>  (40) 
{"free_energy": -7.31, "intermolecular_energy": -9.1, "internal_energy": -1.98, "cluster_size": 33, "cluster_id": 1, "rank_in_cluster": 25}

>  <energy>  (40) 
-6.82

>  <cluster_rmsd>  (40) 
1.76

>  <cluster>  (40) 
2

$$$$

     RDKit          3D

 45 47  0  0  0  0  0  0  0  0999 V2000
  141.3550   71.4610  221.3920 O   0  0  0  0  0  0  0  0  0  0  0  0
  140.6270   72.3870  221.8780 C   0  0  0  0  0  0  0  0  0  0  0  0
  139.5450   72.0450  222.7530 N   0  0  0  0  0  0  0  0  0  0  0  0
  139.2920   70.6670  223.0720 C   0  0  0  0  0  0  0  0  0  0  0  0
  138.9320   70.4620  224.4900 C   0  0  0  0  0  0  0  0  0  0  0  0
  137.7090   70.3830  224.7690 O   0  0  0  0  0  0  0  0  0  0  0  0
  139.9720   70.3680  225.4510 N   0  0  0  0  0  0  0  0  0  0  0  0
  141.0300   71.3920  225.5200 C   0  0  0  0  0  0  0  0  0  0  0  0
  141.1420   71.9400  226.9260 C   0  0  0  0  0  0  0  0  0  0  0  0
  140.9570   70.9170  227.9850 C   0  0  0  0  0  0  0  0  0  0  0  0
  139.8230   69.9480  227.7550 C   0  0  0  0  0  0  0  0  0  0  0  0
  140.0850   69.2940  226.4160 C   0  0  1  0  0  0  0  0  0  0  0  0
  139.2110   68.1170  226.1620 C   0  0  0  0  0  0  0  0  0  0  0  0
  139.5460   67.3790  225.0620 O   0  0  0  0  0  0  0  0  0  0  0  0
  140.8800   73.7900  221.5580 C   0  0  0  0  0  0  0  0  0  0  0  0
  141.8650   74.0910  220.6380 C   0  0  0  0  0  0  0  0  0  0  0  0
  142.1470   75.3880  220.2970 C   0  0  0  0  0  0  0  0  0  0  0  0
  141.4510   76.4360  220.8680 C   0  0  0  0  0  0  0  0  0  0  0  0
  141.7380   77.7370  220.5230 C   0  0  0  0  0  0  0  0  0  0  0  0
  141.0150   78.7500  221.1190 C   0  0  0  0  0  0  0  0  0  0  0  0
  141.3130   80.0160  220.7670 F   0  0  0  0  0  0  0  0  0  0  0  0
  140.0530   78.4070  222.0220 C   0  0  0  0  0  0  0  0  0  0  0  0
  139.7500   77.1100  222.3820 C   0  0  0  0  0  0  0  0  0  0  0  0
  140.4710   76.0950  221.7870 C   0  0  0  0  0  0  0  0  0  0  0  0
  140.2120   74.8000  222.1050 N   0  0  0  0  0  0  0  0  0  0  0  0
  138.9790   72.8410  223.1250 H   0  0  0  0  0  0  0  0  0  0  0  0
  138.4634   70.3078  222.4440 H   0  0  0  0  0  0  0  0  0  0  0  0
  140.2207   70.1085  222.8831 H   0  0  0  0  0  0  0  0  0  0  0  0
  141.9903   70.9413  225.2290 H   0  0  0  0  0  0  0  0  0  0  0  0
  140.7759   72.2146  224.8353 H   0  0  0  0  0  0  0  0  0  0  0  0
  142.1403   72.3862  227.0456 H   0  0  0  0  0  0  0  0  0  0  0  0
  140.3339   72.6763  227.0477 H   0  0  0  0  0  0  0  0  0  0  0  0
  141.8885   70.3373  228.0639 H   0  0  0  0  0  0  0  0  0  0  0  0
  140.7031   71.4703  228.9012 H   0  0  0  0  0  0  0  0  0  0  0  0
  139.8032   69.1896  228.5515 H   0  0  0  0  0  0  0  0  0  0  0  0
  138.8508   70.4625  227.7641 H   0  0  0  0  0  0  0  0  0  0  0  0
  141.0844   68.8379  226.3589 H   0  0  0  0  0  0  0  0  0  0  0  0
  139.2590   67.4593  227.0424 H   0  0  0  0  0  0  0  0  0  0  0  0
  138.2038   68.5158  225.9712 H   0  0  0  0  0  0  0  0  0  0  0  0
  140.4850   67.1550  224.9720 H   0  0  0  0  0  0  0  0  0  0  0  0
  142.4340   73.2742  220.1700 H   0  0  0  0  0  0  0  0  0  0  0  0
  142.9366   75.5971  219.5602 H   0  0  0  0  0  0  0  0  0  0  0  0
  142.5254   77.9641  219.7892 H   0  0  0  0  0  0  0  0  0  0  0  0
  139.4802   79.2183  222.4951 H   0  0  0  0  0  0  0  0  0  0  0  0
  138.9614   76.8927  223.1175 H   0  0  0  0  0  0  0  0  0  0  0  0
  1  2  2  0
  2  3  1  0
  3  4  1  0
  4  5  1  0
  5  6  2  0
  5  7  1  0
  7  8  1  0
  8  9  1  0
  9 10  1  0
 10 11  1  0
 11 12  1  0
 12 13  1  0
 13 14  1  0
  2 15  1  0
 15 16  2  0
 16 17  1  0
 17 18  2  0
 18 19  1  0
 19 20  2  0
 20 21  1  0
 20 22  1  0
 22 23  2  0
 23 24  1  0
 24 25  2  0
 12  7  1  0
 25 15  1  0
 24 18  1  0
  3 26  1  0
  4 27  1  0
  4 28  1  0
  8 29  1  0
  8 30  1  0
  9 31  1  0
  9 32  1  0
 10 33  1  0
 10 34  1  0
 11 35  1  0
 11 36  1  0
 12 37  1  1
 13 38  1  0
 13 39  1  0
 14 40  1  0
 16 41  1  0
 17 42  1  0
 19 43  1  0
 22 44  1  0
 23 45  1  0
M  END
>  <smiles>  (41) 
O=C(NCC(=O)N1CCCC[C@H]1CO)c1ccc2cc(F)ccc2n1

>  <score_type>  (41) 
oracle

>  <origin>  (41) 
autodockgpu

>  <m_score__min__energy>  (41) 
-7.9100000000000001

>  <m_primary>  (41) 
energy

>  <rmsd>  (41) 
8.651374960187002

>  <m_score__min__rmsd>  (41) 
8.651374960187002

>  <meeko>  (41) 
{"free_energy": -7.52, "intermolecular_energy": -9.31, "internal_energy": -1.4, "cluster_size": 33, "cluster_id": 1, "rank_in_cluster": 5}

>  <energy>  (41) 
-6.78

>  <cluster_rmsd>  (41) 
1.2

>  <cluster>  (41) 
2

$$$$

     RDKit          3D

 45 47  0  0  0  0  0  0  0  0999 V2000
  140.9320   73.1580  221.3500 O   0  0  0  0  0  0  0  0  0  0  0  0
  139.9950   73.1140  222.2130 C   0  0  0  0  0  0  0  0  0  0  0  0
  139.0850   74.2150  222.3200 N   0  0  0  0  0  0  0  0  0  0  0  0
  139.2380   75.3550  221.4580 C   0  0  0  0  0  0  0  0  0  0  0  0
  140.3880   76.2050  221.8280 C   0  0  0  0  0  0  0  0  0  0  0  0
  141.4520   75.6230  222.1600 O   0  0  0  0  0  0  0  0  0  0  0  0
  140.2330   77.6150  221.7920 N   0  0  0  0  0  0  0  0  0  0  0  0
  139.3230   78.2990  222.7270 C   0  0  0  0  0  0  0  0  0  0  0  0
  140.0520   79.4020  223.4620 C   0  0  0  0  0  0  0  0  0  0  0  0
  141.0270   80.1410  222.6220 C   0  0  0  0  0  0  0  0  0  0  0  0
  141.8840   79.2820  221.7220 C   0  0  0  0  0  0  0  0  0  0  0  0
  140.9320   78.4810  220.8630 C   0  0  1  0  0  0  0  0  0  0  0  0
  141.6090   77.7860  219.7350 C   0  0  0  0  0  0  0  0  0  0  0  0
  142.6650   76.9970  220.0970 O   0  0  0  0  0  0  0  0  0  0  0  0
  139.8350   71.9590  223.0930 C   0  0  0  0  0  0  0  0  0  0  0  0
  139.0420   70.9100  222.6690 C   0  0  0  0  0  0  0  0  0  0  0  0
  138.8550   69.8000  223.4500 C   0  0  0  0  0  0  0  0  0  0  0  0
  139.4560   69.6990  224.6900 C   0  0  0  0  0  0  0  0  0  0  0  0
  139.2650   68.5810  225.4710 C   0  0  0  0  0  0  0  0  0  0  0  0
  139.8860   68.5260  226.7020 C   0  0  0  0  0  0  0  0  0  0  0  0
  139.6850   67.4230  227.4500 F   0  0  0  0  0  0  0  0  0  0  0  0
  140.6590   69.5840  227.0800 C   0  0  0  0  0  0  0  0  0  0  0  0
  140.8630   70.7120  226.3120 C   0  0  0  0  0  0  0  0  0  0  0  0
  140.2430   70.7700  225.0810 C   0  0  0  0  0  0  0  0  0  0  0  0
  140.4120   71.8580  224.2850 N   0  0  0  0  0  0  0  0  0  0  0  0
  138.3350   74.1300  223.0430 H   0  0  0  0  0  0  0  0  0  0  0  0
  139.3820   74.9989  220.4273 H   0  0  0  0  0  0  0  0  0  0  0  0
  138.3296   75.9675  221.5562 H   0  0  0  0  0  0  0  0  0  0  0  0
  138.4835   78.7324  222.1636 H   0  0  0  0  0  0  0  0  0  0  0  0
  138.9499   77.5684  223.4599 H   0  0  0  0  0  0  0  0  0  0  0  0
  139.3071   80.1180  223.8395 H   0  0  0  0  0  0  0  0  0  0  0  0
  140.6245   78.9234  224.2702 H   0  0  0  0  0  0  0  0  0  0  0  0
  140.4660   80.8434  221.9881 H   0  0  0  0  0  0  0  0  0  0  0  0
  141.7185   80.6345  223.3207 H   0  0  0  0  0  0  0  0  0  0  0  0
  142.5256   79.9144  221.0908 H   0  0  0  0  0  0  0  0  0  0  0  0
  142.5423   78.6237  222.3079 H   0  0  0  0  0  0  0  0  0  0  0  0
  140.2141   79.1181  220.3258 H   0  0  0  0  0  0  0  0  0  0  0  0
  140.8662   77.1520  219.2289 H   0  0  0  0  0  0  0  0  0  0  0  0
  142.0202   78.5750  219.0881 H   0  0  0  0  0  0  0  0  0  0  0  0
  142.6780   76.7050  221.0220 H   0  0  0  0  0  0  0  0  0  0  0  0
  138.5516   70.9671  221.6860 H   0  0  0  0  0  0  0  0  0  0  0  0
  138.2190   68.9798  223.0856 H   0  0  0  0  0  0  0  0  0  0  0  0
  138.6325   67.7516  225.1218 H   0  0  0  0  0  0  0  0  0  0  0  0
  141.1524   69.5349  228.0619 H   0  0  0  0  0  0  0  0  0  0  0  0
  141.4979   71.5363  226.6689 H   0  0  0  0  0  0  0  0  0  0  0  0
  1  2  2  0
  2  3  1  0
  3  4  1  0
  4  5  1  0
  5  6  2  0
  5  7  1  0
  7  8  1  0
  8  9  1  0
  9 10  1  0
 10 11  1  0
 11 12  1  0
 12 13  1  0
 13 14  1  0
  2 15  1  0
 15 16  2  0
 16 17  1  0
 17 18  2  0
 18 19  1  0
 19 20  2  0
 20 21  1  0
 20 22  1  0
 22 23  2  0
 23 24  1  0
 24 25  2  0
 12  7  1  0
 25 15  1  0
 24 18  1  0
  3 26  1  0
  4 27  1  0
  4 28  1  0
  8 29  1  0
  8 30  1  0
  9 31  1  0
  9 32  1  0
 10 33  1  0
 10 34  1  0
 11 35  1  0
 11 36  1  0
 12 37  1  6
 13 38  1  0
 13 39  1  0
 14 40  1  0
 16 41  1  0
 17 42  1  0
 19 43  1  0
 22 44  1  0
 23 45  1  0
M  END
>  <smiles>  (42) 
O=C(NCC(=O)N1CCCC[C@H]1CO)c1ccc2cc(F)ccc2n1

>  <score_type>  (42) 
oracle

>  <origin>  (42) 
autodockgpu

>  <m_score__min__energy>  (42) 
-7.9100000000000001

>  <m_primary>  (42) 
energy

>  <rmsd>  (42) 
3.154931031218184

>  <m_score__min__rmsd>  (42) 
3.154931031218184

>  <meeko>  (42) 
{"free_energy": -6.82, "intermolecular_energy": -8.61, "internal_energy": -1.6, "cluster_size": 15, "cluster_id": 2, "rank_in_cluster": 7}

>  <energy>  (42) 
-6.73

>  <cluster_rmsd>  (42) 
1.09

>  <cluster>  (42) 
2

$$$$

     RDKit          3D

 45 47  0  0  0  0  0  0  0  0999 V2000
  139.7720   73.5420  222.6410 O   0  0  0  0  0  0  0  0  0  0  0  0
  140.3010   72.3840  222.6170 C   0  0  0  0  0  0  0  0  0  0  0  0
  140.9850   71.9480  221.4360 N   0  0  0  0  0  0  0  0  0  0  0  0
  141.0660   72.8180  220.2940 C   0  0  0  0  0  0  0  0  0  0  0  0
  141.9000   74.0120  220.5410 C   0  0  0  0  0  0  0  0  0  0  0  0
  141.3240   75.0330  220.9970 O   0  0  0  0  0  0  0  0  0  0  0  0
  143.2880   73.9470  220.2510 N   0  0  0  0  0  0  0  0  0  0  0  0
  144.1350   72.8990  220.8460 C   0  0  0  0  0  0  0  0  0  0  0  0
  144.8940   72.1580  219.7680 C   0  0  0  0  0  0  0  0  0  0  0  0
  145.3680   73.0280  218.6630 C   0  0  0  0  0  0  0  0  0  0  0  0
  144.3690   74.0470  218.1700 C   0  0  0  0  0  0  0  0  0  0  0  0
  143.9730   74.8740  219.3730 C   0  0  1  0  0  0  0  0  0  0  0  0
  143.2030   76.0950  219.0120 C   0  0  0  0  0  0  0  0  0  0  0  0
  142.9340   76.9340  220.0570 O   0  0  0  0  0  0  0  0  0  0  0  0
  140.2220   71.4950  223.7730 C   0  0  0  0  0  0  0  0  0  0  0  0
  139.6380   70.2530  223.6140 C   0  0  0  0  0  0  0  0  0  0  0  0
  139.5350   69.3760  224.6610 C   0  0  0  0  0  0  0  0  0  0  0  0
  140.0140   69.7110  225.9130 C   0  0  0  0  0  0  0  0  0  0  0  0
  139.9090   68.8260  226.9620 C   0  0  0  0  0  0  0  0  0  0  0  0
  140.4020   69.2060  228.1940 C   0  0  0  0  0  0  0  0  0  0  0  0
  140.2880   68.3250  229.2070 F   0  0  0  0  0  0  0  0  0  0  0  0
  140.9690   70.4410  228.3060 C   0  0  0  0  0  0  0  0  0  0  0  0
  141.0840   71.3410  227.2670 C   0  0  0  0  0  0  0  0  0  0  0  0
  140.5920   70.9650  226.0350 C   0  0  0  0  0  0  0  0  0  0  0  0
  140.6810   71.8130  224.9780 N   0  0  0  0  0  0  0  0  0  0  0  0
  141.4020   70.9900  221.4660 H   0  0  0  0  0  0  0  0  0  0  0  0
  141.4984   72.2552  219.4536 H   0  0  0  0  0  0  0  0  0  0  0  0
  140.0469   73.1667  220.0708 H   0  0  0  0  0  0  0  0  0  0  0  0
  144.8515   73.3629  221.5399 H   0  0  0  0  0  0  0  0  0  0  0  0
  143.4939   72.1858  221.3848 H   0  0  0  0  0  0  0  0  0  0  0  0
  145.7685   71.6755  220.2289 H   0  0  0  0  0  0  0  0  0  0  0  0
  144.1959   71.4314  219.3266 H   0  0  0  0  0  0  0  0  0  0  0  0
  146.2593   73.5684  219.0144 H   0  0  0  0  0  0  0  0  0  0  0  0
  145.5650   72.3590  217.8123 H   0  0  0  0  0  0  0  0  0  0  0  0
  144.8267   74.6877  217.4019 H   0  0  0  0  0  0  0  0  0  0  0  0
  143.4937   73.5597  217.7156 H   0  0  0  0  0  0  0  0  0  0  0  0
  144.8415   75.3103  219.8881 H   0  0  0  0  0  0  0  0  0  0  0  0
  143.7822   76.6557  218.2636 H   0  0  0  0  0  0  0  0  0  0  0  0
  142.2295   75.7468  218.6365 H   0  0  0  0  0  0  0  0  0  0  0  0
  142.6590   76.5080  220.8830 H   0  0  0  0  0  0  0  0  0  0  0  0
  139.2481   69.9628  222.6272 H   0  0  0  0  0  0  0  0  0  0  0  0
  139.0656   68.3938  224.5033 H   0  0  0  0  0  0  0  0  0  0  0  0
  139.4433   67.8394  226.8218 H   0  0  0  0  0  0  0  0  0  0  0  0
  141.3605   70.7393  229.2897 H   0  0  0  0  0  0  0  0  0  0  0  0
  141.5522   72.3251  227.4162 H   0  0  0  0  0  0  0  0  0  0  0  0
  1  2  2  0
  2  3  1  0
  3  4  1  0
  4  5  1  0
  5  6  2  0
  5  7  1  0
  7  8  1  0
  8  9  1  0
  9 10  1  0
 10 11  1  0
 11 12  1  0
 12 13  1  0
 13 14  1  0
  2 15  1  0
 15 16  2  0
 16 17  1  0
 17 18  2  0
 18 19  1  0
 19 20  2  0
 20 21  1  0
 20 22  1  0
 22 23  2  0
 23 24  1  0
 24 25  2  0
 12  7  1  0
 25 15  1  0
 24 18  1  0
  3 26  1  0
  4 27  1  0
  4 28  1  0
  8 29  1  0
  8 30  1  0
  9 31  1  0
  9 32  1  0
 10 33  1  0
 10 34  1  0
 11 35  1  0
 11 36  1  0
 12 37  1  1
 13 38  1  0
 13 39  1  0
 14 40  1  0
 16 41  1  0
 17 42  1  0
 19 43  1  0
 22 44  1  0
 23 45  1  0
M  END
>  <smiles>  (43) 
O=C(NCC(=O)N1CCCC[C@H]1CO)c1ccc2cc(F)ccc2n1

>  <score_type>  (43) 
oracle

>  <origin>  (43) 
autodockgpu

>  <m_score__min__energy>  (43) 
-7.9100000000000001

>  <m_primary>  (43) 
energy

>  <rmsd>  (43) 
3.3558468421552465

>  <m_score__min__rmsd>  (43) 
3.3558468421552465

>  <meeko>  (43) 
{"free_energy": -6.73, "intermolecular_energy": -8.52, "internal_energy": -1.64, "cluster_size": 15, "cluster_id": 2, "rank_in_cluster": 10}

>  <energy>  (43) 
-6.73

>  <cluster_rmsd>  (43) 
1.6

>  <cluster>  (43) 
2

$$$$

     RDKit          3D

 45 47  0  0  0  0  0  0  0  0999 V2000
  141.3230   71.3410  221.2810 O   0  0  0  0  0  0  0  0  0  0  0  0
  140.7230   72.2490  221.9420 C   0  0  0  0  0  0  0  0  0  0  0  0
  139.8160   71.8760  222.9870 N   0  0  0  0  0  0  0  0  0  0  0  0
  139.5930   70.4860  223.2760 C   0  0  0  0  0  0  0  0  0  0  0  0
  139.2310   70.2440  224.6890 C   0  0  0  0  0  0  0  0  0  0  0  0
  138.0190   70.0210  224.9420 O   0  0  0  0  0  0  0  0  0  0  0  0
  140.2540   70.2790  225.6710 N   0  0  0  0  0  0  0  0  0  0  0  0
  140.9730   71.5300  225.9690 C   0  0  0  0  0  0  0  0  0  0  0  0
  140.9230   71.8280  227.4500 C   0  0  0  0  0  0  0  0  0  0  0  0
  141.0400   70.6230  228.3090 C   0  0  0  0  0  0  0  0  0  0  0  0
  140.2320   69.4290  227.8590 C   0  0  0  0  0  0  0  0  0  0  0  0
  140.6700   69.1250  226.4430 C   0  0  1  0  0  0  0  0  0  0  0  0
  140.1700   67.8150  225.9480 C   0  0  0  0  0  0  0  0  0  0  0  0
  138.8310   67.6070  226.1230 O   0  0  0  0  0  0  0  0  0  0  0  0
  140.9450   73.6630  221.6520 C   0  0  0  0  0  0  0  0  0  0  0  0
  141.9330   74.0060  220.7490 C   0  0  0  0  0  0  0  0  0  0  0  0
  142.1870   75.3160  220.4370 C   0  0  0  0  0  0  0  0  0  0  0  0
  141.4600   76.3350  221.0200 C   0  0  0  0  0  0  0  0  0  0  0  0
  141.7190   77.6500  220.7030 C   0  0  0  0  0  0  0  0  0  0  0  0
  140.9660   78.6330  221.3110 C   0  0  0  0  0  0  0  0  0  0  0  0
  141.2370   79.9130  220.9870 F   0  0  0  0  0  0  0  0  0  0  0  0
  140.0030   78.2500  222.1970 C   0  0  0  0  0  0  0  0  0  0  0  0
  139.7280   76.9390  222.5280 C   0  0  0  0  0  0  0  0  0  0  0  0
  140.4790   75.9530  221.9210 C   0  0  0  0  0  0  0  0  0  0  0  0
  140.2480   74.6470  222.2110 N   0  0  0  0  0  0  0  0  0  0  0  0
  139.3490   72.6580  223.4990 H   0  0  0  0  0  0  0  0  0  0  0  0
  138.7757   70.1211  222.6366 H   0  0  0  0  0  0  0  0  0  0  0  0
  140.5347   69.9524  223.0800 H   0  0  0  0  0  0  0  0  0  0  0  0
  142.0224   71.4282  225.6552 H   0  0  0  0  0  0  0  0  0  0  0  0
  140.4930   72.3555  225.4231 H   0  0  0  0  0  0  0  0  0  0  0  0
  141.7510   72.5097  227.6945 H   0  0  0  0  0  0  0  0  0  0  0  0
  139.9373   72.2717  227.6539 H   0  0  0  0  0  0  0  0  0  0  0  0
  142.0989   70.3262  228.3359 H   0  0  0  0  0  0  0  0  0  0  0  0
  140.6377   70.9097  229.2918 H   0  0  0  0  0  0  0  0  0  0  0  0
  140.4315   68.5667  228.5122 H   0  0  0  0  0  0  0  0  0  0  0  0
  139.1529   69.6374  227.9063 H   0  0  0  0  0  0  0  0  0  0  0  0
  141.7580   68.9866  226.3591 H   0  0  0  0  0  0  0  0  0  0  0  0
  140.3880   67.7506  224.8717 H   0  0  0  0  0  0  0  0  0  0  0  0
  140.6823   67.0445  226.5429 H   0  0  0  0  0  0  0  0  0  0  0  0
  138.2450   68.2800  225.7450 H   0  0  0  0  0  0  0  0  0  0  0  0
  142.5268   73.2126  220.2716 H   0  0  0  0  0  0  0  0  0  0  0  0
  142.9793   75.5587  219.7136 H   0  0  0  0  0  0  0  0  0  0  0  0
  142.5078   77.9103  219.9819 H   0  0  0  0  0  0  0  0  0  0  0  0
  139.4061   79.0379  222.6796 H   0  0  0  0  0  0  0  0  0  0  0  0
  138.9375   76.6884  223.2507 H   0  0  0  0  0  0  0  0  0  0  0  0
  1  2  2  0
  2  3  1  0
  3  4  1  0
  4  5  1  0
  5  6  2  0
  5  7  1  0
  7  8  1  0
  8  9  1  0
  9 10  1  0
 10 11  1  0
 11 12  1  0
 12 13  1  0
 13 14  1  0
  2 15  1  0
 15 16  2  0
 16 17  1  0
 17 18  2  0
 18 19  1  0
 19 20  2  0
 20 21  1  0
 20 22  1  0
 22 23  2  0
 23 24  1  0
 24 25  2  0
 12  7  1  0
 25 15  1  0
 24 18  1  0
  3 26  1  0
  4 27  1  0
  4 28  1  0
  8 29  1  0
  8 30  1  0
  9 31  1  0
  9 32  1  0
 10 33  1  0
 10 34  1  0
 11 35  1  0
 11 36  1  0
 12 37  1  1
 13 38  1  0
 13 39  1  0
 14 40  1  0
 16 41  1  0
 17 42  1  0
 19 43  1  0
 22 44  1  0
 23 45  1  0
M  END
>  <smiles>  (44) 
O=C(NCC(=O)N1CCCC[C@H]1CO)c1ccc2cc(F)ccc2n1

>  <score_type>  (44) 
oracle

>  <origin>  (44) 
autodockgpu

>  <m_score__min__energy>  (44) 
-7.9100000000000001

>  <m_primary>  (44) 
energy

>  <rmsd>  (44) 
8.674605553427545

>  <m_score__min__rmsd>  (44) 
8.674605553427545

>  <meeko>  (44) 
{"free_energy": -7.35, "intermolecular_energy": -9.14, "internal_energy": -1.99, "cluster_size": 33, "cluster_id": 1, "rank_in_cluster": 19}

>  <energy>  (44) 
-6.33

>  <cluster_rmsd>  (44) 
1.14

>  <cluster>  (44) 
2

$$$$

     RDKit          3D

 45 47  0  0  0  0  0  0  0  0999 V2000
  141.0730   71.1910  221.2780 O   0  0  0  0  0  0  0  0  0  0  0  0
  140.4970   72.1200  221.9320 C   0  0  0  0  0  0  0  0  0  0  0  0
  139.5450   71.7780  222.9470 N   0  0  0  0  0  0  0  0  0  0  0  0
  139.2490   70.3980  223.2140 C   0  0  0  0  0  0  0  0  0  0  0  0
  138.9560   70.1380  224.6390 C   0  0  0  0  0  0  0  0  0  0  0  0
  137.7590   69.9090  224.9480 O   0  0  0  0  0  0  0  0  0  0  0  0
  140.0260   70.1620  225.5700 N   0  0  0  0  0  0  0  0  0  0  0  0
  141.0370   71.2330  225.5310 C   0  0  0  0  0  0  0  0  0  0  0  0
  141.1630   71.8900  226.8880 C   0  0  0  0  0  0  0  0  0  0  0  0
  141.0550   70.9430  228.0250 C   0  0  0  0  0  0  0  0  0  0  0  0
  139.9600   69.9100  227.9030 C   0  0  0  0  0  0  0  0  0  0  0  0
  140.2140   69.1690  226.6090 C   0  0  1  0  0  0  0  0  0  0  0  0
  139.3880   67.9400  226.4700 C   0  0  0  0  0  0  0  0  0  0  0  0
  139.2610   67.4740  225.1920 O   0  0  0  0  0  0  0  0  0  0  0  0
  140.7930   73.5250  221.6650 C   0  0  0  0  0  0  0  0  0  0  0  0
  141.8240   73.8310  220.7980 C   0  0  0  0  0  0  0  0  0  0  0  0
  142.1480   75.1300  220.5090 C   0  0  0  0  0  0  0  0  0  0  0  0
  141.4500   76.1760  221.0800 C   0  0  0  0  0  0  0  0  0  0  0  0
  141.7800   77.4800  220.7860 C   0  0  0  0  0  0  0  0  0  0  0  0
  141.0540   78.4920  221.3810 C   0  0  0  0  0  0  0  0  0  0  0  0
  141.3930   79.7600  221.0800 F   0  0  0  0  0  0  0  0  0  0  0  0
  140.0460   78.1440  222.2320 C   0  0  0  0  0  0  0  0  0  0  0  0
  139.7000   76.8440  222.5390 C   0  0  0  0  0  0  0  0  0  0  0  0
  140.4240   75.8310  221.9450 C   0  0  0  0  0  0  0  0  0  0  0  0
  140.1240   74.5340  222.2130 N   0  0  0  0  0  0  0  0  0  0  0  0
  139.1000   72.5760  223.4550 H   0  0  0  0  0  0  0  0  0  0  0  0
  138.3732   70.1049  222.6164 H   0  0  0  0  0  0  0  0  0  0  0  0
  140.1409   69.8116  222.9480 H   0  0  0  0  0  0  0  0  0  0  0  0
  142.0085   70.8039  225.2446 H   0  0  0  0  0  0  0  0  0  0  0  0
  140.7263   71.9900  224.7959 H   0  0  0  0  0  0  0  0  0  0  0  0
  142.1427   72.3872  226.9428 H   0  0  0  0  0  0  0  0  0  0  0  0
  140.3257   72.5974  226.9801 H   0  0  0  0  0  0  0  0  0  0  0  0
  142.0140   70.4123  228.1175 H   0  0  0  0  0  0  0  0  0  0  0  0
  140.8016   71.5522  228.9052 H   0  0  0  0  0  0  0  0  0  0  0  0
  139.9974   69.2137  228.7538 H   0  0  0  0  0  0  0  0  0  0  0  0
  138.9658   70.3807  227.9044 H   0  0  0  0  0  0  0  0  0  0  0  0
  141.2310   68.7533  226.5551 H   0  0  0  0  0  0  0  0  0  0  0  0
  139.8489   67.1479  227.0784 H   0  0  0  0  0  0  0  0  0  0  0  0
  138.3747   68.2100  226.8021 H   0  0  0  0  0  0  0  0  0  0  0  0
  138.6010   67.9220  224.6410 H   0  0  0  0  0  0  0  0  0  0  0  0
  142.3958   73.0157  220.3307 H   0  0  0  0  0  0  0  0  0  0  0  0
  142.9737   75.3426  219.8140 H   0  0  0  0  0  0  0  0  0  0  0  0
  142.6029   77.7099  220.0932 H   0  0  0  0  0  0  0  0  0  0  0  0
  139.4708   78.9537  222.7049 H   0  0  0  0  0  0  0  0  0  0  0  0
  138.8757   76.6231  223.2331 H   0  0  0  0  0  0  0  0  0  0  0  0
  1  2  2  0
  2  3  1  0
  3  4  1  0
  4  5  1  0
  5  6  2  0
  5  7  1  0
  7  8  1  0
  8  9  1  0
  9 10  1  0
 10 11  1  0
 11 12  1  0
 12 13  1  0
 13 14  1  0
  2 15  1  0
 15 16  2  0
 16 17  1  0
 17 18  2  0
 18 19  1  0
 19 20  2  0
 20 21  1  0
 20 22  1  0
 22 23  2  0
 23 24  1  0
 24 25  2  0
 12  7  1  0
 25 15  1  0
 24 18  1  0
  3 26  1  0
  4 27  1  0
  4 28  1  0
  8 29  1  0
  8 30  1  0
  9 31  1  0
  9 32  1  0
 10 33  1  0
 10 34  1  0
 11 35  1  0
 11 36  1  0
 12 37  1  1
 13 38  1  0
 13 39  1  0
 14 40  1  0
 16 41  1  0
 17 42  1  0
 19 43  1  0
 22 44  1  0
 23 45  1  0
M  END
>  <smiles>  (45) 
O=C(NCC(=O)N1CCCC[C@H]1CO)c1ccc2cc(F)ccc2n1

>  <score_type>  (45) 
oracle

>  <origin>  (45) 
autodockgpu

>  <m_score__min__energy>  (45) 
-7.9100000000000001

>  <m_primary>  (45) 
energy

>  <rmsd>  (45) 
8.61071097515978

>  <m_score__min__rmsd>  (45) 
8.61071097515978

>  <meeko>  (45) 
{"free_energy": -7.5, "intermolecular_energy": -9.29, "internal_energy": -1.85, "cluster_size": 33, "cluster_id": 1, "rank_in_cluster": 8}

>  <energy>  (45) 
-6.23

>  <cluster_rmsd>  (45) 
1.54

>  <cluster>  (45) 
2

$$$$

     RDKit          3D

 45 47  0  0  0  0  0  0  0  0999 V2000
  141.2880   71.3070  221.2450 O   0  0  0  0  0  0  0  0  0  0  0  0
  140.7060   72.2330  221.8970 C   0  0  0  0  0  0  0  0  0  0  0  0
  139.8040   71.8870  222.9560 N   0  0  0  0  0  0  0  0  0  0  0  0
  139.5650   70.5050  223.2680 C   0  0  0  0  0  0  0  0  0  0  0  0
  139.2080   70.2890  224.6860 C   0  0  0  0  0  0  0  0  0  0  0  0
  137.9920   70.1230  224.9550 O   0  0  0  0  0  0  0  0  0  0  0  0
  140.2440   70.2840  225.6560 N   0  0  0  0  0  0  0  0  0  0  0  0
  140.9690   71.5210  225.9930 C   0  0  0  0  0  0  0  0  0  0  0  0
  140.9380   71.7620  227.4860 C   0  0  0  0  0  0  0  0  0  0  0  0
  141.0620   70.5250  228.2960 C   0  0  0  0  0  0  0  0  0  0  0  0
  140.2460   69.3510  227.8100 C   0  0  0  0  0  0  0  0  0  0  0  0
  140.6670   69.1010  226.3790 C   0  0  1  0  0  0  0  0  0  0  0  0
  140.1580   67.8110  225.8390 C   0  0  0  0  0  0  0  0  0  0  0  0
  138.8300   67.5790  226.0630 O   0  0  0  0  0  0  0  0  0  0  0  0
  140.9430   73.6400  221.5840 C   0  0  0  0  0  0  0  0  0  0  0  0
  141.9480   73.9580  220.6910 C   0  0  0  0  0  0  0  0  0  0  0  0
  142.2180   75.2590  220.3580 C   0  0  0  0  0  0  0  0  0  0  0  0
  141.4900   76.2950  220.9100 C   0  0  0  0  0  0  0  0  0  0  0  0
  141.7640   77.6010  220.5730 C   0  0  0  0  0  0  0  0  0  0  0  0
  141.0100   78.6020  221.1500 C   0  0  0  0  0  0  0  0  0  0  0  0
  141.2960   79.8730  220.8060 F   0  0  0  0  0  0  0  0  0  0  0  0
  140.0300   78.2420  222.0280 C   0  0  0  0  0  0  0  0  0  0  0  0
  139.7390   76.9400  222.3790 C   0  0  0  0  0  0  0  0  0  0  0  0
  140.4910   75.9380  221.8030 C   0  0  0  0  0  0  0  0  0  0  0  0
  140.2460   74.6390  222.1140 N   0  0  0  0  0  0  0  0  0  0  0  0
  139.3520   72.6830  223.4600 H   0  0  0  0  0  0  0  0  0  0  0  0
  138.7395   70.1408  222.6388 H   0  0  0  0  0  0  0  0  0  0  0  0
  140.4990   69.9568  223.0755 H   0  0  0  0  0  0  0  0  0  0  0  0
  142.0142   71.4297  225.6625 H   0  0  0  0  0  0  0  0  0  0  0  0
  140.4839   72.3677  225.4854 H   0  0  0  0  0  0  0  0  0  0  0  0
  141.7709   72.4317  227.7463 H   0  0  0  0  0  0  0  0  0  0  0  0
  139.9562   72.1999  227.7190 H   0  0  0  0  0  0  0  0  0  0  0  0
  142.1204   70.2253  228.2989 H   0  0  0  0  0  0  0  0  0  0  0  0
  140.6719   70.7744  229.2938 H   0  0  0  0  0  0  0  0  0  0  0  0
  140.4508   68.4639  228.4273 H   0  0  0  0  0  0  0  0  0  0  0  0
  139.1681   69.5595  227.8777 H   0  0  0  0  0  0  0  0  0  0  0  0
  141.7538   68.9644  226.2783 H   0  0  0  0  0  0  0  0  0  0  0  0
  140.3278   67.8044  224.7522 H   0  0  0  0  0  0  0  0  0  0  0  0
  140.7043   67.0169  226.3690 H   0  0  0  0  0  0  0  0  0  0  0  0
  138.2200   68.2630  225.7470 H   0  0  0  0  0  0  0  0  0  0  0  0
  142.5429   73.1509  220.2386 H   0  0  0  0  0  0  0  0  0  0  0  0
  143.0237   75.4813  219.6429 H   0  0  0  0  0  0  0  0  0  0  0  0
  142.5661   77.8413  219.8597 H   0  0  0  0  0  0  0  0  0  0  0  0
  139.4320   79.0432  222.4867 H   0  0  0  0  0  0  0  0  0  0  0  0
  138.9351   76.7092  223.0935 H   0  0  0  0  0  0  0  0  0  0  0  0
  1  2  2  0
  2  3  1  0
  3  4  1  0
  4  5  1  0
  5  6  2  0
  5  7  1  0
  7  8  1  0
  8  9  1  0
  9 10  1  0
 10 11  1  0
 11 12  1  0
 12 13  1  0
 13 14  1  0
  2 15  1  0
 15 16  2  0
 16 17  1  0
 17 18  2  0
 18 19  1  0
 19 20  2  0
 20 21  1  0
 20 22  1  0
 22 23  2  0
 23 24  1  0
 24 25  2  0
 12  7  1  0
 25 15  1  0
 24 18  1  0
  3 26  1  0
  4 27  1  0
  4 28  1  0
  8 29  1  0
  8 30  1  0
  9 31  1  0
  9 32  1  0
 10 33  1  0
 10 34  1  0
 11 35  1  0
 11 36  1  0
 12 37  1  1
 13 38  1  0
 13 39  1  0
 14 40  1  0
 16 41  1  0
 17 42  1  0
 19 43  1  0
 22 44  1  0
 23 45  1  0
M  END
>  <smiles>  (46) 
O=C(NCC(=O)N1CCCC[C@H]1CO)c1ccc2cc(F)ccc2n1

>  <score_type>  (46) 
oracle

>  <origin>  (46) 
autodockgpu

>  <m_score__min__energy>  (46) 
-7.9100000000000001

>  <m_primary>  (46) 
energy

>  <rmsd>  (46) 
8.686347303844478

>  <m_score__min__rmsd>  (46) 
8.686347303844478

>  <meeko>  (46) 
{"free_energy": -7.36, "intermolecular_energy": -9.15, "internal_energy": -1.98, "cluster_size": 33, "cluster_id": 1, "rank_in_cluster": 16}

>  <energy>  (46) 
-6.2

>  <cluster_rmsd>  (46) 
1.81

>  <cluster>  (46) 
2

$$$$

     RDKit          3D

 45 47  0  0  0  0  0  0  0  0999 V2000
  141.4750   72.0940  221.5680 O   0  0  0  0  0  0  0  0  0  0  0  0
  140.6280   72.4130  222.4650 C   0  0  0  0  0  0  0  0  0  0  0  0
  139.8730   73.6220  222.3210 N   0  0  0  0  0  0  0  0  0  0  0  0
  140.0770   74.4590  221.1710 C   0  0  0  0  0  0  0  0  0  0  0  0
  141.0670   75.5300  221.4080 C   0  0  0  0  0  0  0  0  0  0  0  0
  140.8520   76.3100  222.3710 O   0  0  0  0  0  0  0  0  0  0  0  0
  142.1910   75.6240  220.5470 N   0  0  0  0  0  0  0  0  0  0  0  0
  143.1440   74.5070  220.4270 C   0  0  0  0  0  0  0  0  0  0  0  0
  143.3230   74.1200  218.9760 C   0  0  0  0  0  0  0  0  0  0  0  0
  143.3330   75.2740  218.0440 C   0  0  0  0  0  0  0  0  0  0  0  0
  142.2840   76.3270  218.3100 C   0  0  0  0  0  0  0  0  0  0  0  0
  142.4920   76.7860  219.7370 C   0  0  1  0  0  0  0  0  0  0  0  0
  141.7190   78.0120  220.0720 C   0  0  0  0  0  0  0  0  0  0  0  0
  141.9390   78.5040  221.3280 O   0  0  0  0  0  0  0  0  0  0  0  0
  140.4170   71.5670  223.6370 C   0  0  0  0  0  0  0  0  0  0  0  0
  139.7580   70.3630  223.4730 C   0  0  0  0  0  0  0  0  0  0  0  0
  139.5300   69.5270  224.5340 C   0  0  0  0  0  0  0  0  0  0  0  0
  139.9540   69.8660  225.8040 C   0  0  0  0  0  0  0  0  0  0  0  0
  139.7230   69.0230  226.8680 C   0  0  0  0  0  0  0  0  0  0  0  0
  140.1660   69.4050  228.1180 C   0  0  0  0  0  0  0  0  0  0  0  0
  139.9290   68.5650  229.1440 F   0  0  0  0  0  0  0  0  0  0  0  0
  140.8100   70.6010  228.2330 C   0  0  0  0  0  0  0  0  0  0  0  0
  141.0510   71.4600  227.1810 C   0  0  0  0  0  0  0  0  0  0  0  0
  140.6100   71.0810  225.9300 C   0  0  0  0  0  0  0  0  0  0  0  0
  140.8230   71.8890  224.8600 N   0  0  0  0  0  0  0  0  0  0  0  0
  139.1920   73.8380  223.0830 H   0  0  0  0  0  0  0  0  0  0  0  0
  140.4303   73.8323  220.3389 H   0  0  0  0  0  0  0  0  0  0  0  0
  139.1164   74.9425  220.9399 H   0  0  0  0  0  0  0  0  0  0  0  0
  144.1153   74.8130  220.8429 H   0  0  0  0  0  0  0  0  0  0  0  0
  142.7511   73.6418  220.9811 H   0  0  0  0  0  0  0  0  0  0  0  0
  144.2789   73.5850  218.8754 H   0  0  0  0  0  0  0  0  0  0  0  0
  142.4595   73.4958  218.7027 H   0  0  0  0  0  0  0  0  0  0  0  0
  144.3206   75.7542  218.1082 H   0  0  0  0  0  0  0  0  0  0  0  0
  143.1066   74.8635  217.0489 H   0  0  0  0  0  0  0  0  0  0  0  0
  142.4085   77.1718  217.6166 H   0  0  0  0  0  0  0  0  0  0  0  0
  141.2702   75.9260  218.1637 H   0  0  0  0  0  0  0  0  0  0  0  0
  143.5225   77.1215  219.9257 H   0  0  0  0  0  0  0  0  0  0  0  0
  141.9870   78.7942  219.3465 H   0  0  0  0  0  0  0  0  0  0  0  0
  140.6569   77.7283  220.0327 H   0  0  0  0  0  0  0  0  0  0  0  0
  142.2770   77.8710  221.9780 H   0  0  0  0  0  0  0  0  0  0  0  0
  139.4100   70.0706  222.4713 H   0  0  0  0  0  0  0  0  0  0  0  0
  139.0033   68.5749  224.3727 H   0  0  0  0  0  0  0  0  0  0  0  0
  139.1976   68.0673  226.7250 H   0  0  0  0  0  0  0  0  0  0  0  0
  141.1609   70.9011  229.2314 H   0  0  0  0  0  0  0  0  0  0  0  0
  141.5766   72.4141  227.3343 H   0  0  0  0  0  0  0  0  0  0  0  0
  1  2  2  0
  2  3  1  0
  3  4  1  0
  4  5  1  0
  5  6  2  0
  5  7  1  0
  7  8  1  0
  8  9  1  0
  9 10  1  0
 10 11  1  0
 11 12  1  0
 12 13  1  0
 13 14  1  0
  2 15  1  0
 15 16  2  0
 16 17  1  0
 17 18  2  0
 18 19  1  0
 19 20  2  0
 20 21  1  0
 20 22  1  0
 22 23  2  0
 23 24  1  0
 24 25  2  0
 12  7  1  0
 25 15  1  0
 24 18  1  0
  3 26  1  0
  4 27  1  0
  4 28  1  0
  8 29  1  0
  8 30  1  0
  9 31  1  0
  9 32  1  0
 10 33  1  0
 10 34  1  0
 11 35  1  0
 11 36  1  0
 12 37  1  6
 13 38  1  0
 13 39  1  0
 14 40  1  0
 16 41  1  0
 17 42  1  0
 19 43  1  0
 22 44  1  0
 23 45  1  0
M  END
>  <smiles>  (47) 
O=C(NCC(=O)N1CCCC[C@H]1CO)c1ccc2cc(F)ccc2n1

>  <score_type>  (47) 
oracle

>  <origin>  (47) 
autodockgpu

>  <m_score__min__energy>  (47) 
-7.9100000000000001

>  <m_primary>  (47) 
energy

>  <rmsd>  (47) 
2.3649705775903023

>  <m_score__min__rmsd>  (47) 
2.3649705775903023

>  <meeko>  (47) 
{"free_energy": -6.91, "intermolecular_energy": -8.7, "internal_energy": -1.81, "cluster_size": 15, "cluster_id": 2, "rank_in_cluster": 4}

>  <energy>  (47) 
-6.2

>  <cluster_rmsd>  (47) 
1.22

>  <cluster>  (47) 
2

$$$$

     RDKit          3D

 45 47  0  0  0  0  0  0  0  0999 V2000
  141.1090   71.1600  221.2920 O   0  0  0  0  0  0  0  0  0  0  0  0
  140.5150   72.0870  221.9330 C   0  0  0  0  0  0  0  0  0  0  0  0
  139.5530   71.7440  222.9380 N   0  0  0  0  0  0  0  0  0  0  0  0
  139.2670   70.3620  223.2100 C   0  0  0  0  0  0  0  0  0  0  0  0
  138.9710   70.1070  224.6350 C   0  0  0  0  0  0  0  0  0  0  0  0
  137.7750   69.8660  224.9410 O   0  0  0  0  0  0  0  0  0  0  0  0
  140.0370   70.1480  225.5710 N   0  0  0  0  0  0  0  0  0  0  0  0
  141.0380   71.2280  225.5280 C   0  0  0  0  0  0  0  0  0  0  0  0
  141.1520   71.8960  226.8800 C   0  0  0  0  0  0  0  0  0  0  0  0
  141.0480   70.9570  228.0250 C   0  0  0  0  0  0  0  0  0  0  0  0
  139.9630   69.9130  227.9050 C   0  0  0  0  0  0  0  0  0  0  0  0
  140.2300   69.1650  226.6180 C   0  0  1  0  0  0  0  0  0  0  0  0
  139.4160   67.9270  226.4850 C   0  0  0  0  0  0  0  0  0  0  0  0
  139.3020   67.4480  225.2100 O   0  0  0  0  0  0  0  0  0  0  0  0
  140.8010   73.4940  221.6600 C   0  0  0  0  0  0  0  0  0  0  0  0
  141.8380   73.8030  220.8010 C   0  0  0  0  0  0  0  0  0  0  0  0
  142.1530   75.1040  220.5070 C   0  0  0  0  0  0  0  0  0  0  0  0
  141.4410   76.1470  221.0650 C   0  0  0  0  0  0  0  0  0  0  0  0
  141.7610   77.4520  220.7660 C   0  0  0  0  0  0  0  0  0  0  0  0
  141.0210   78.4610  221.3480 C   0  0  0  0  0  0  0  0  0  0  0  0
  141.3520   79.7310  221.0430 F   0  0  0  0  0  0  0  0  0  0  0  0
  140.0080   78.1100  222.1910 C   0  0  0  0  0  0  0  0  0  0  0  0
  139.6710   76.8080  222.5030 C   0  0  0  0  0  0  0  0  0  0  0  0
  140.4100   75.7980  221.9230 C   0  0  0  0  0  0  0  0  0  0  0  0
  140.1190   74.5000  222.1960 N   0  0  0  0  0  0  0  0  0  0  0  0
  139.0950   72.5410  223.4340 H   0  0  0  0  0  0  0  0  0  0  0  0
  138.3958   70.0591  222.6106 H   0  0  0  0  0  0  0  0  0  0  0  0
  140.1642   69.7812  222.9496 H   0  0  0  0  0  0  0  0  0  0  0  0
  142.0147   70.8059  225.2489 H   0  0  0  0  0  0  0  0  0  0  0  0
  140.7234   71.9765  224.7858 H   0  0  0  0  0  0  0  0  0  0  0  0
  142.1268   72.4027  226.9350 H   0  0  0  0  0  0  0  0  0  0  0  0
  140.3073   72.5957  226.9629 H   0  0  0  0  0  0  0  0  0  0  0  0
  142.0115   70.4361  228.1263 H   0  0  0  0  0  0  0  0  0  0  0  0
  140.7855   71.5704  228.8995 H   0  0  0  0  0  0  0  0  0  0  0  0
  140.0025   69.2233  228.7610 H   0  0  0  0  0  0  0  0  0  0  0  0
  138.9646   70.3747  227.8979 H   0  0  0  0  0  0  0  0  0  0  0  0
  141.2512   68.7589  226.5715 H   0  0  0  0  0  0  0  0  0  0  0  0
  139.8799   67.1448  227.1038 H   0  0  0  0  0  0  0  0  0  0  0  0
  138.3981   68.1906  226.8079 H   0  0  0  0  0  0  0  0  0  0  0  0
  138.6510   67.8920  224.6460 H   0  0  0  0  0  0  0  0  0  0  0  0
  142.4215   72.9899  220.3446 H   0  0  0  0  0  0  0  0  0  0  0  0
  142.9831   75.3198  219.8182 H   0  0  0  0  0  0  0  0  0  0  0  0
  142.5877   77.6852  220.0789 H   0  0  0  0  0  0  0  0  0  0  0  0
  139.4208   78.9174  222.6527 H   0  0  0  0  0  0  0  0  0  0  0  0
  138.8419   76.5839  223.1903 H   0  0  0  0  0  0  0  0  0  0  0  0
  1  2  2  0
  2  3  1  0
  3  4  1  0
  4  5  1  0
  5  6  2  0
  5  7  1  0
  7  8  1  0
  8  9  1  0
  9 10  1  0
 10 11  1  0
 11 12  1  0
 12 13  1  0
 13 14  1  0
  2 15  1  0
 15 16  2  0
 16 17  1  0
 17 18  2  0
 18 19  1  0
 19 20  2  0
 20 21  1  0
 20 22  1  0
 22 23  2  0
 23 24  1  0
 24 25  2  0
 12  7  1  0
 25 15  1  0
 24 18  1  0
  3 26  1  0
  4 27  1  0
  4 28  1  0
  8 29  1  0
  8 30  1  0
  9 31  1  0
  9 32  1  0
 10 33  1  0
 10 34  1  0
 11 35  1  0
 11 36  1  0
 12 37  1  1
 13 38  1  0
 13 39  1  0
 14 40  1  0
 16 41  1  0
 17 42  1  0
 19 43  1  0
 22 44  1  0
 23 45  1  0
M  END
>  <smiles>  (48) 
O=C(NCC(=O)N1CCCC[C@H]1CO)c1ccc2cc(F)ccc2n1

>  <score_type>  (48) 
oracle

>  <origin>  (48) 
autodockgpu

>  <m_score__min__energy>  (48) 
-7.9100000000000001

>  <m_primary>  (48) 
energy

>  <rmsd>  (48) 
8.610886689915679

>  <m_score__min__rmsd>  (48) 
8.610886689915679

>  <meeko>  (48) 
{"free_energy": -7.49, "intermolecular_energy": -9.28, "internal_energy": -1.85, "cluster_size": 33, "cluster_id": 1, "rank_in_cluster": 10}

>  <energy>  (48) 
-5.77

>  <cluster_rmsd>  (48) 
1.71

>  <cluster>  (48) 
2

$$$$

     RDKit          3D

 45 47  0  0  0  0  0  0  0  0999 V2000
  141.3430   72.0440  221.4680 O   0  0  0  0  0  0  0  0  0  0  0  0
  140.5590   72.3980  222.4080 C   0  0  0  0  0  0  0  0  0  0  0  0
  139.8610   73.6460  222.3090 N   0  0  0  0  0  0  0  0  0  0  0  0
  140.0530   74.4820  221.1560 C   0  0  0  0  0  0  0  0  0  0  0  0
  141.0480   75.5510  221.3820 C   0  0  0  0  0  0  0  0  0  0  0  0
  140.8280   76.3540  222.3240 O   0  0  0  0  0  0  0  0  0  0  0  0
  142.1840   75.6160  220.5330 N   0  0  0  0  0  0  0  0  0  0  0  0
  143.1140   74.4780  220.4280 C   0  0  0  0  0  0  0  0  0  0  0  0
  143.3000   74.0810  218.9810 C   0  0  0  0  0  0  0  0  0  0  0  0
  143.3470   75.2310  218.0440 C   0  0  0  0  0  0  0  0  0  0  0  0
  142.3180   76.3080  218.2940 C   0  0  0  0  0  0  0  0  0  0  0  0
  142.5200   76.7680  219.7210 C   0  0  1  0  0  0  0  0  0  0  0  0
  141.7710   78.0120  220.0430 C   0  0  0  0  0  0  0  0  0  0  0  0
  141.9880   78.5060  221.2990 O   0  0  0  0  0  0  0  0  0  0  0  0
  140.3600   71.5530  223.5820 C   0  0  0  0  0  0  0  0  0  0  0  0
  139.7250   70.3360  223.4220 C   0  0  0  0  0  0  0  0  0  0  0  0
  139.5100   69.5000  224.4860 C   0  0  0  0  0  0  0  0  0  0  0  0
  139.9230   69.8530  225.7560 C   0  0  0  0  0  0  0  0  0  0  0  0
  139.7050   69.0100  226.8220 C   0  0  0  0  0  0  0  0  0  0  0  0
  140.1360   69.4050  228.0720 C   0  0  0  0  0  0  0  0  0  0  0  0
  139.9120   68.5650  229.1010 F   0  0  0  0  0  0  0  0  0  0  0  0
  140.7570   70.6140  228.1840 C   0  0  0  0  0  0  0  0  0  0  0  0
  140.9850   71.4730  227.1290 C   0  0  0  0  0  0  0  0  0  0  0  0
  140.5550   71.0800  225.8790 C   0  0  0  0  0  0  0  0  0  0  0  0
  140.7550   71.8880  224.8050 N   0  0  0  0  0  0  0  0  0  0  0  0
  139.2310   73.8900  223.1050 H   0  0  0  0  0  0  0  0  0  0  0  0
  140.3955   73.8543  220.3201 H   0  0  0  0  0  0  0  0  0  0  0  0
  139.0907   74.9670  220.9351 H   0  0  0  0  0  0  0  0  0  0  0  0
  144.0872   74.7648  220.8531 H   0  0  0  0  0  0  0  0  0  0  0  0
  142.6966   73.6239  220.9815 H   0  0  0  0  0  0  0  0  0  0  0  0
  144.2443   73.5237  218.8932 H   0  0  0  0  0  0  0  0  0  0  0  0
  142.4253   73.4758  218.7006 H   0  0  0  0  0  0  0  0  0  0  0  0
  144.3441   75.6895  218.1181 H   0  0  0  0  0  0  0  0  0  0  0  0
  143.1239   74.8217  217.0477 H   0  0  0  0  0  0  0  0  0  0  0  0
  142.4687   77.1470  217.5988 H   0  0  0  0  0  0  0  0  0  0  0  0
  141.2974   75.9287  218.1378 H   0  0  0  0  0  0  0  0  0  0  0  0
  143.5557   77.0812  219.9192 H   0  0  0  0  0  0  0  0  0  0  0  0
  142.0636   78.7846  219.3167 H   0  0  0  0  0  0  0  0  0  0  0  0
  140.7036   77.7506  219.9946 H   0  0  0  0  0  0  0  0  0  0  0  0
  142.3080   77.8680  221.9550 H   0  0  0  0  0  0  0  0  0  0  0  0
  139.3855   70.0325  222.4207 H   0  0  0  0  0  0  0  0  0  0  0  0
  139.0028   68.5369  224.3271 H   0  0  0  0  0  0  0  0  0  0  0  0
  139.1988   68.0436  226.6808 H   0  0  0  0  0  0  0  0  0  0  0  0
  141.0989   70.9249  229.1822 H   0  0  0  0  0  0  0  0  0  0  0  0
  141.4920   72.4375  227.2795 H   0  0  0  0  0  0  0  0  0  0  0  0
  1  2  2  0
  2  3  1  0
  3  4  1  0
  4  5  1  0
  5  6  2  0
  5  7  1  0
  7  8  1  0
  8  9  1  0
  9 10  1  0
 10 11  1  0
 11 12  1  0
 12 13  1  0
 13 14  1  0
  2 15  1  0
 15 16  2  0
 16 17  1  0
 17 18  2  0
 18 19  1  0
 19 20  2  0
 20 21  1  0
 20 22  1  0
 22 23  2  0
 23 24  1  0
 24 25  2  0
 12  7  1  0
 25 15  1  0
 24 18  1  0
  3 26  1  0
  4 27  1  0
  4 28  1  0
  8 29  1  0
  8 30  1  0
  9 31  1  0
  9 32  1  0
 10 33  1  0
 10 34  1  0
 11 35  1  0
 11 36  1  0
 12 37  1  6
 13 38  1  0
 13 39  1  0
 14 40  1  0
 16 41  1  0
 17 42  1  0
 19 43  1  0
 22 44  1  0
 23 45  1  0
M  END
>  <smiles>  (49) 
O=C(NCC(=O)N1CCCC[C@H]1CO)c1ccc2cc(F)ccc2n1

>  <score_type>  (49) 
oracle

>  <origin>  (49) 
autodockgpu

>  <m_score__min__energy>  (49) 
-7.9100000000000001

>  <m_primary>  (49) 
energy

>  <rmsd>  (49) 
2.3478755530741013

>  <m_score__min__rmsd>  (49) 
2.3478755530741013

>  <meeko>  (49) 
{"free_energy": -6.91, "intermolecular_energy": -8.7, "internal_energy": -1.81, "cluster_size": 15, "cluster_id": 2, "rank_in_cluster": 2}

>  <energy>  (49) 
-6.56

>  <cluster_rmsd>  (49) 
0.0

>  <cluster>  (49) 
3

$$$$

     RDKit          3D

 45 47  0  0  0  0  0  0  0  0999 V2000
  141.2150   71.2470  221.3760 O   0  0  0  0  0  0  0  0  0  0  0  0
  140.5680   72.1740  221.9630 C   0  0  0  0  0  0  0  0  0  0  0  0
  139.5610   71.8310  222.9230 N   0  0  0  0  0  0  0  0  0  0  0  0
  139.2910   70.4500  223.2120 C   0  0  0  0  0  0  0  0  0  0  0  0
  138.9770   70.2120  224.6360 C   0  0  0  0  0  0  0  0  0  0  0  0
  137.7720   70.0200  224.9370 O   0  0  0  0  0  0  0  0  0  0  0  0
  140.0390   70.2150  225.5780 N   0  0  0  0  0  0  0  0  0  0  0  0
  141.0670   71.2700  225.5530 C   0  0  0  0  0  0  0  0  0  0  0  0
  141.1910   71.9180  226.9140 C   0  0  0  0  0  0  0  0  0  0  0  0
  141.0580   70.9680  228.0460 C   0  0  0  0  0  0  0  0  0  0  0  0
  139.9480   69.9530  227.9090 C   0  0  0  0  0  0  0  0  0  0  0  0
  140.2020   69.2140  226.6130 C   0  0  1  0  0  0  0  0  0  0  0  0
  139.3580   67.9990  226.4610 C   0  0  0  0  0  0  0  0  0  0  0  0
  139.2170   67.5540  225.1760 O   0  0  0  0  0  0  0  0  0  0  0  0
  140.8380   73.5800  221.6730 C   0  0  0  0  0  0  0  0  0  0  0  0
  141.8580   73.8910  220.7940 C   0  0  0  0  0  0  0  0  0  0  0  0
  142.1580   75.1910  220.4830 C   0  0  0  0  0  0  0  0  0  0  0  0
  141.4460   76.2330  221.0430 C   0  0  0  0  0  0  0  0  0  0  0  0
  141.7500   77.5380  220.7270 C   0  0  0  0  0  0  0  0  0  0  0  0
  141.0100   78.5460  221.3120 C   0  0  0  0  0  0  0  0  0  0  0  0
  141.3260   79.8160  220.9890 F   0  0  0  0  0  0  0  0  0  0  0  0
  140.0140   78.1940  222.1730 C   0  0  0  0  0  0  0  0  0  0  0  0
  139.6930   76.8930  222.5030 C   0  0  0  0  0  0  0  0  0  0  0  0
  140.4310   75.8840  221.9200 C   0  0  0  0  0  0  0  0  0  0  0  0
  140.1550   74.5860  222.2090 N   0  0  0  0  0  0  0  0  0  0  0  0
  139.0600   72.6290  223.3750 H   0  0  0  0  0  0  0  0  0  0  0  0
  138.4335   70.1253  222.6043 H   0  0  0  0  0  0  0  0  0  0  0  0
  140.2005   69.8788  222.9743 H   0  0  0  0  0  0  0  0  0  0  0  0
  142.0342   70.8270  225.2730 H   0  0  0  0  0  0  0  0  0  0  0  0
  140.7750   72.0353  224.8188 H   0  0  0  0  0  0  0  0  0  0  0  0
  142.1778   72.3994  226.9799 H   0  0  0  0  0  0  0  0  0  0  0  0
  140.3636   72.6376  227.0019 H   0  0  0  0  0  0  0  0  0  0  0  0
  142.0077   70.4219  228.1449 H   0  0  0  0  0  0  0  0  0  0  0  0
  140.8065   71.5772  228.9267 H   0  0  0  0  0  0  0  0  0  0  0  0
  139.9667   69.2521  228.7565 H   0  0  0  0  0  0  0  0  0  0  0  0
  138.9614   70.4394  227.9038 H   0  0  0  0  0  0  0  0  0  0  0  0
  141.2126   68.7823  226.5654 H   0  0  0  0  0  0  0  0  0  0  0  0
  139.8113   67.1914  227.0546 H   0  0  0  0  0  0  0  0  0  0  0  0
  138.3506   68.2779  226.8036 H   0  0  0  0  0  0  0  0  0  0  0  0
  138.5600   68.0200  224.6370 H   0  0  0  0  0  0  0  0  0  0  0  0
  142.4405   73.0786  220.3350 H   0  0  0  0  0  0  0  0  0  0  0  0
  142.9753   75.4071  219.7792 H   0  0  0  0  0  0  0  0  0  0  0  0
  142.5636   77.7721  220.0247 H   0  0  0  0  0  0  0  0  0  0  0  0
  139.4267   79.0008  222.6359 H   0  0  0  0  0  0  0  0  0  0  0  0
  138.8774   76.6686  223.2061 H   0  0  0  0  0  0  0  0  0  0  0  0
  1  2  2  0
  2  3  1  0
  3  4  1  0
  4  5  1  0
  5  6  2  0
  5  7  1  0
  7  8  1  0
  8  9  1  0
  9 10  1  0
 10 11  1  0
 11 12  1  0
 12 13  1  0
 13 14  1  0
  2 15  1  0
 15 16  2  0
 16 17  1  0
 17 18  2  0
 18 19  1  0
 19 20  2  0
 20 21  1  0
 20 22  1  0
 22 23  2  0
 23 24  1  0
 24 25  2  0
 12  7  1  0
 25 15  1  0
 24 18  1  0
  3 26  1  0
  4 27  1  0
  4 28  1  0
  8 29  1  0
  8 30  1  0
  9 31  1  0
  9 32  1  0
 10 33  1  0
 10 34  1  0
 11 35  1  0
 11 36  1  0
 12 37  1  1
 13 38  1  0
 13 39  1  0
 14 40  1  0
 16 41  1  0
 17 42  1  0
 19 43  1  0
 22 44  1  0
 23 45  1  0
M  END
>  <smiles>  (50) 
O=C(NCC(=O)N1CCCC[C@H]1CO)c1ccc2cc(F)ccc2n1

>  <score_type>  (50) 
oracle

>  <origin>  (50) 
autodockgpu

>  <m_score__min__energy>  (50) 
-7.9100000000000001

>  <m_primary>  (50) 
energy

>  <rmsd>  (50) 
8.632732470670334

>  <m_score__min__rmsd>  (50) 
8.632732470670334

>  <meeko>  (50) 
{"free_energy": -7.46, "intermolecular_energy": -9.25, "internal_energy": -1.85, "cluster_size": 33, "cluster_id": 1, "rank_in_cluster": 11}

>  <energy>  (50) 
-6.23

>  <cluster_rmsd>  (50) 
1.67

>  <cluster>  (50) 
3

$$$$
