
     RDKit          3D

 52 55  0  0  0  0  0  0  0  0999 V2000
  139.2420   71.8350  220.4640 O   0  0  0  0  0  0  0  0  0  0  0  0
  139.0710   72.2660  221.6410 C   0  0  0  0  0  0  0  0  0  0  0  0
  138.6150   73.5990  221.8440 N   0  0  0  0  0  0  0  0  0  0  0  0
  138.3400   74.4800  220.7290 C   0  0  0  0  0  0  0  0  0  0  0  0
  139.5870   74.8990  220.0380 C   0  0  0  0  0  0  0  0  0  0  0  0
  139.8430   74.4280  218.9040 O   0  0  0  0  0  0  0  0  0  0  0  0
  140.4250   75.8220  220.7200 N   0  0  0  0  0  0  0  0  0  0  0  0
  140.6110   75.9950  222.1620 C   0  0  0  0  0  0  0  0  0  0  0  0
  141.0770   77.4460  222.3330 C   0  0  0  0  0  0  0  0  0  0  0  0
  140.9940   77.9990  220.9240 C   0  0  0  0  0  0  0  0  0  0  0  0
  141.3110   76.8340  220.0800 C   0  0  1  0  0  0  0  0  0  0  0  0
  142.6710   76.2520  220.0940 C   0  0  0  0  0  0  0  0  0  0  0  0
  142.9440   75.1090  220.7340 O   0  0  0  0  0  0  0  0  0  0  0  0
  143.1530   73.8060  220.5280 C   0  0  0  0  0  0  0  0  0  0  0  0
  144.4400   73.4400  220.0720 C   0  0  0  0  0  0  0  0  0  0  0  0
  144.7810   72.1370  219.8200 C   0  0  0  0  0  0  0  0  0  0  0  0
  143.8730   71.1210  220.0030 C   0  0  0  0  0  0  0  0  0  0  0  0
  144.2390   69.4360  219.7020 Cl  0  0  0  0  0  0  0  0  0  0  0  0
  142.6110   71.4360  220.4450 C   0  0  0  0  0  0  0  0  0  0  0  0
  142.2830   72.7560  220.6930 C   0  0  0  0  0  0  0  0  0  0  0  0
  139.3440   71.3940  222.7910 C   0  0  0  0  0  0  0  0  0  0  0  0
  138.9870   70.0780  222.7390 C   0  0  0  0  0  0  0  0  0  0  0  0
  139.2180   69.1980  223.7980 C   0  0  0  0  0  0  0  0  0  0  0  0
  139.8310   69.7020  224.9280 C   0  0  0  0  0  0  0  0  0  0  0  0
  140.1120   68.9310  226.0390 C   0  0  0  0  0  0  0  0  0  0  0  0
  140.7330   69.5080  227.1420 C   0  0  0  0  0  0  0  0  0  0  0  0
  141.1010   68.5400  228.5740 Cl  0  0  0  0  0  0  0  0  0  0  0  0
  141.0730   70.8490  227.1460 C   0  0  0  0  0  0  0  0  0  0  0  0
  140.7970   71.6250  226.0440 C   0  0  0  0  0  0  0  0  0  0  0  0
  140.1760   71.0450  224.9370 C   0  0  0  0  0  0  0  0  0  0  0  0
  139.9380   71.8650  223.8980 N   0  0  0  0  0  0  0  0  0  0  0  0
  138.4950   73.8970  222.8530 H   0  0  0  0  0  0  0  0  0  0  0  0
  137.6939   73.9544  220.0105 H   0  0  0  0  0  0  0  0  0  0  0  0
  137.8449   75.3816  221.1189 H   0  0  0  0  0  0  0  0  0  0  0  0
  139.6641   75.8279  222.6964 H   0  0  0  0  0  0  0  0  0  0  0  0
  141.3366   75.2777  222.5732 H   0  0  0  0  0  0  0  0  0  0  0  0
  140.4118   77.9973  223.0139 H   0  0  0  0  0  0  0  0  0  0  0  0
  142.0817   77.5297  222.7731 H   0  0  0  0  0  0  0  0  0  0  0  0
  139.9839   78.3776  220.7088 H   0  0  0  0  0  0  0  0  0  0  0  0
  141.6726   78.8483  220.7556 H   0  0  0  0  0  0  0  0  0  0  0  0
  141.1972   77.1276  219.0260 H   0  0  0  0  0  0  0  0  0  0  0  0
  142.9482   76.0902  219.0418 H   0  0  0  0  0  0  0  0  0  0  0  0
  143.2332   76.9895  220.6857 H   0  0  0  0  0  0  0  0  0  0  0  0
  145.1923   74.2269  219.9143 H   0  0  0  0  0  0  0  0  0  0  0  0
  145.7954   71.9006  219.4664 H   0  0  0  0  0  0  0  0  0  0  0  0
  141.8655   70.6423  220.6008 H   0  0  0  0  0  0  0  0  0  0  0  0
  141.2644   72.9787  221.0434 H   0  0  0  0  0  0  0  0  0  0  0  0
  138.4995   69.6966  221.8297 H   0  0  0  0  0  0  0  0  0  0  0  0
  138.9221   68.1405  223.7344 H   0  0  0  0  0  0  0  0  0  0  0  0
  139.8455   67.8638  226.0516 H   0  0  0  0  0  0  0  0  0  0  0  0
  141.5616   71.2926  228.0260 H   0  0  0  0  0  0  0  0  0  0  0  0
  141.0632   72.6923  226.0356 H   0  0  0  0  0  0  0  0  0  0  0  0
  1  2  2  0
  2  3  1  0
  3  4  1  0
  4  5  1  0
  5  6  2  0
  5  7  1  0
  7  8  1  0
  8  9  1  0
  9 10  1  0
 10 11  1  0
 11 12  1  0
 12 13  1  0
 13 14  1  0
 14 15  2  0
 15 16  1  0
 16 17  2  0
 17 18  1  0
 17 19  1  0
 19 20  2  0
  2 21  1  0
 21 22  2  0
 22 23  1  0
 23 24  2  0
 24 25  1  0
 25 26  2  0
 26 27  1  0
 26 28  1  0
 28 29  2  0
 29 30  1  0
 30 31  2  0
 11  7  1  0
 20 14  1  0
 31 21  1  0
 30 24  1  0
  3 32  1  0
  4 33  1  0
  4 34  1  0
  8 35  1  0
  8 36  1  0
  9 37  1  0
  9 38  1  0
 10 39  1  0
 10 40  1  0
 11 41  1  6
 12 42  1  0
 12 43  1  0
 15 44  1  0
 16 45  1  0
 19 46  1  0
 20 47  1  0
 22 48  1  0
 23 49  1  0
 25 50  1  0
 28 51  1  0
 29 52  1  0
M  END
>  <smiles>  (1) 
O=C(NCC(=O)N1CCC[C@H]1COc1ccc(Cl)cc1)c1ccc2cc(Cl)ccc2n1

>  <score_type>  (1) 
oracle

>  <origin>  (1) 
autodockgpu

>  <m_score__min__energy>  (1) 
-8.3499999999999996

>  <m_primary>  (1) 
energy

>  <rmsd>  (1) 
2.324663448998469

>  <m_score__min__rmsd>  (1) 
2.324663448998469

>  <meeko>  (1) 
{"free_energy": -7.13, "intermolecular_energy": -9.22, "internal_energy": -2.42, "cluster_size": 6, "cluster_id": 2, "rank_in_cluster": 6}

>  <energy>  (1) 
-8.35

>  <cluster_rmsd>  (1) 
0.0

>  <cluster>  (1) 
1

$$$$

     RDKit          3D

 52 55  0  0  0  0  0  0  0  0999 V2000
  140.3120   72.4390  220.6610 O   0  0  0  0  0  0  0  0  0  0  0  0
  140.0470   72.8200  221.8380 C   0  0  0  0  0  0  0  0  0  0  0  0
  139.7380   74.1870  222.0830 N   0  0  0  0  0  0  0  0  0  0  0  0
  139.7180   75.1610  221.0110 C   0  0  0  0  0  0  0  0  0  0  0  0
  140.0870   76.5170  221.4930 C   0  0  0  0  0  0  0  0  0  0  0  0
  139.6050   76.9310  222.5740 O   0  0  0  0  0  0  0  0  0  0  0  0
  140.9780   77.2700  220.6820 N   0  0  0  0  0  0  0  0  0  0  0  0
  141.4200   78.6550  220.8530 C   0  0  0  0  0  0  0  0  0  0  0  0
  141.8180   79.1240  219.4480 C   0  0  0  0  0  0  0  0  0  0  0  0
  141.4370   77.9450  218.5750 C   0  0  0  0  0  0  0  0  0  0  0  0
  141.6630   76.7830  219.4520 C   0  0  1  0  0  0  0  0  0  0  0  0
  143.0360   76.4180  219.8670 C   0  0  0  0  0  0  0  0  0  0  0  0
  143.3280   75.2090  220.3590 O   0  0  0  0  0  0  0  0  0  0  0  0
  144.0000   74.0890  220.0820 C   0  0  0  0  0  0  0  0  0  0  0  0
  143.2750   73.0650  219.4300 C   0  0  0  0  0  0  0  0  0  0  0  0
  143.8480   71.8680  219.0930 C   0  0  0  0  0  0  0  0  0  0  0  0
  145.1660   71.6090  219.3800 C   0  0  0  0  0  0  0  0  0  0  0  0
  145.9630   70.1030  218.9800 Cl  0  0  0  0  0  0  0  0  0  0  0  0
  145.9060   72.5780  220.0140 C   0  0  0  0  0  0  0  0  0  0  0  0
  145.3120   73.7810  220.3480 C   0  0  0  0  0  0  0  0  0  0  0  0
  140.0610   71.8550  222.9440 C   0  0  0  0  0  0  0  0  0  0  0  0
  139.5960   70.5880  222.7390 C   0  0  0  0  0  0  0  0  0  0  0  0
  139.5820   69.6240  223.7500 C   0  0  0  0  0  0  0  0  0  0  0  0
  140.0610   69.9900  224.9920 C   0  0  0  0  0  0  0  0  0  0  0  0
  140.0980   69.1260  226.0690 C   0  0  0  0  0  0  0  0  0  0  0  0
  140.5950   69.5670  227.2910 C   0  0  0  0  0  0  0  0  0  0  0  0
  140.6510   68.4780  228.6820 Cl  0  0  0  0  0  0  0  0  0  0  0  0
  141.0540   70.8620  227.4480 C   0  0  0  0  0  0  0  0  0  0  0  0
  141.0210   71.7300  226.3810 C   0  0  0  0  0  0  0  0  0  0  0  0
  140.5230   71.2880  225.1540 C   0  0  0  0  0  0  0  0  0  0  0  0
  140.5220   72.1910  224.1590 N   0  0  0  0  0  0  0  0  0  0  0  0
  139.5270   74.4390  223.0890 H   0  0  0  0  0  0  0  0  0  0  0  0
  140.4336   74.8516  220.2350 H   0  0  0  0  0  0  0  0  0  0  0  0
  138.6952   75.2069  220.6087 H   0  0  0  0  0  0  0  0  0  0  0  0
  140.6026   79.2750  221.2499 H   0  0  0  0  0  0  0  0  0  0  0  0
  142.2536   78.7364  221.5661 H   0  0  0  0  0  0  0  0  0  0  0  0
  141.2594   80.0266  219.1594 H   0  0  0  0  0  0  0  0  0  0  0  0
  142.8801   79.3983  219.3670 H   0  0  0  0  0  0  0  0  0  0  0  0
  140.3825   78.0072  218.2680 H   0  0  0  0  0  0  0  0  0  0  0  0
  142.0166   77.8972  217.6413 H   0  0  0  0  0  0  0  0  0  0  0  0
  141.3354   75.8777  218.9199 H   0  0  0  0  0  0  0  0  0  0  0  0
  143.6721   76.5516  218.9796 H   0  0  0  0  0  0  0  0  0  0  0  0
  143.1950   77.0682  220.7399 H   0  0  0  0  0  0  0  0  0  0  0  0
  142.2162   73.2356  219.1855 H   0  0  0  0  0  0  0  0  0  0  0  0
  143.2437   71.1022  218.5847 H   0  0  0  0  0  0  0  0  0  0  0  0
  146.9642   72.3977  220.2542 H   0  0  0  0  0  0  0  0  0  0  0  0
  145.9272   74.5372  220.8576 H   0  0  0  0  0  0  0  0  0  0  0  0
  139.2188   70.3164  221.7420 H   0  0  0  0  0  0  0  0  0  0  0  0
  139.2025   68.6086  223.5630 H   0  0  0  0  0  0  0  0  0  0  0  0
  139.7358   68.0930  225.9607 H   0  0  0  0  0  0  0  0  0  0  0  0
  141.4435   71.1964  228.4209 H   0  0  0  0  0  0  0  0  0  0  0  0
  141.3836   72.7624  226.4937 H   0  0  0  0  0  0  0  0  0  0  0  0
  1  2  2  0
  2  3  1  0
  3  4  1  0
  4  5  1  0
  5  6  2  0
  5  7  1  0
  7  8  1  0
  8  9  1  0
  9 10  1  0
 10 11  1  0
 11 12  1  0
 12 13  1  0
 13 14  1  0
 14 15  2  0
 15 16  1  0
 16 17  2  0
 17 18  1  0
 17 19  1  0
 19 20  2  0
  2 21  1  0
 21 22  2  0
 22 23  1  0
 23 24  2  0
 24 25  1  0
 25 26  2  0
 26 27  1  0
 26 28  1  0
 28 29  2  0
 29 30  1  0
 30 31  2  0
 11  7  1  0
 20 14  1  0
 31 21  1  0
 30 24  1  0
  3 32  1  0
  4 33  1  0
  4 34  1  0
  8 35  1  0
  8 36  1  0
  9 37  1  0
  9 38  1  0
 10 39  1  0
 10 40  1  0
 11 41  1  6
 12 42  1  0
 12 43  1  0
 15 44  1  0
 16 45  1  0
 19 46  1  0
 20 47  1  0
 22 48  1  0
 23 49  1  0
 25 50  1  0
 28 51  1  0
 29 52  1  0
M  END
>  <smiles>  (2) 
O=C(NCC(=O)N1CCC[C@H]1COc1ccc(Cl)cc1)c1ccc2cc(Cl)ccc2n1

>  <score_type>  (2) 
oracle

>  <origin>  (2) 
autodockgpu

>  <m_score__min__energy>  (2) 
-8.3499999999999996

>  <m_primary>  (2) 
energy

>  <rmsd>  (2) 
2.4262245877933593

>  <m_score__min__rmsd>  (2) 
2.4262245877933593

>  <meeko>  (2) 
{"free_energy": -8.14, "intermolecular_energy": -10.23, "internal_energy": -2.0, "cluster_size": 6, "cluster_id": 2, "rank_in_cluster": 1}

>  <energy>  (2) 
-7.96

>  <cluster_rmsd>  (2) 
1.35

>  <cluster>  (2) 
1

$$$$

     RDKit          3D

 52 55  0  0  0  0  0  0  0  0999 V2000
  137.2480   70.6560  220.3640 O   0  0  0  0  0  0  0  0  0  0  0  0
  137.9490   71.3210  221.1810 C   0  0  0  0  0  0  0  0  0  0  0  0
  138.3060   72.6630  220.8740 N   0  0  0  0  0  0  0  0  0  0  0  0
  137.8840   73.2930  219.6410 C   0  0  0  0  0  0  0  0  0  0  0  0
  137.5180   74.7180  219.8480 C   0  0  0  0  0  0  0  0  0  0  0  0
  137.2610   75.4320  218.8500 O   0  0  0  0  0  0  0  0  0  0  0  0
  137.4820   75.1870  221.1880 N   0  0  0  0  0  0  0  0  0  0  0  0
  136.6730   74.6990  222.3070 C   0  0  0  0  0  0  0  0  0  0  0  0
  136.5530   75.8920  223.2640 C   0  0  0  0  0  0  0  0  0  0  0  0
  137.2380   77.0100  222.5030 C   0  0  0  0  0  0  0  0  0  0  0  0
  138.2880   76.3110  221.7420 C   0  0  1  0  0  0  0  0  0  0  0  0
  139.4290   75.6850  222.4470 C   0  0  0  0  0  0  0  0  0  0  0  0
  140.0390   74.5920  221.9750 O   0  0  0  0  0  0  0  0  0  0  0  0
  141.1960   74.1650  221.4650 C   0  0  0  0  0  0  0  0  0  0  0  0
  141.4470   72.7760  221.5530 C   0  0  0  0  0  0  0  0  0  0  0  0
  142.5980   72.2110  221.0710 C   0  0  0  0  0  0  0  0  0  0  0  0
  143.5680   72.9810  220.4760 C   0  0  0  0  0  0  0  0  0  0  0  0
  145.0610   72.3280  219.8380 Cl  0  0  0  0  0  0  0  0  0  0  0  0
  143.3630   74.3360  220.3720 C   0  0  0  0  0  0  0  0  0  0  0  0
  142.1960   74.8900  220.8650 C   0  0  0  0  0  0  0  0  0  0  0  0
  138.3920   70.7060  222.4390 C   0  0  0  0  0  0  0  0  0  0  0  0
  137.9700   69.4480  222.7600 C   0  0  0  0  0  0  0  0  0  0  0  0
  138.3550   68.8090  223.9410 C   0  0  0  0  0  0  0  0  0  0  0  0
  139.1930   69.4960  224.7980 C   0  0  0  0  0  0  0  0  0  0  0  0
  139.6410   68.9700  225.9940 C   0  0  0  0  0  0  0  0  0  0  0  0
  140.4840   69.7210  226.8060 C   0  0  0  0  0  0  0  0  0  0  0  0
  141.0700   69.0670  228.3400 Cl  0  0  0  0  0  0  0  0  0  0  0  0
  140.8820   70.9920  226.4350 C   0  0  0  0  0  0  0  0  0  0  0  0
  140.4410   71.5250  225.2460 C   0  0  0  0  0  0  0  0  0  0  0  0
  139.5960   70.7710  224.4310 C   0  0  0  0  0  0  0  0  0  0  0  0
  139.2050   71.3570  223.2850 N   0  0  0  0  0  0  0  0  0  0  0  0
  138.8940   73.1610  221.6000 H   0  0  0  0  0  0  0  0  0  0  0  0
  138.7071   73.2386  218.9133 H   0  0  0  0  0  0  0  0  0  0  0  0
  136.9947   72.7612  219.2717 H   0  0  0  0  0  0  0  0  0  0  0  0
  135.6792   74.3838  221.9564 H   0  0  0  0  0  0  0  0  0  0  0  0
  137.1286   73.8243  222.7941 H   0  0  0  0  0  0  0  0  0  0  0  0
  135.4987   76.1361  223.4612 H   0  0  0  0  0  0  0  0  0  0  0  0
  136.9997   75.7024  224.2512 H   0  0  0  0  0  0  0  0  0  0  0  0
  136.5328   77.5160  221.8273 H   0  0  0  0  0  0  0  0  0  0  0  0
  137.6358   77.7967  223.1609 H   0  0  0  0  0  0  0  0  0  0  0  0
  138.7915   77.0439  221.0944 H   0  0  0  0  0  0  0  0  0  0  0  0
  140.2049   76.4606  222.5271 H   0  0  0  0  0  0  0  0  0  0  0  0
  138.9551   75.3075  223.3651 H   0  0  0  0  0  0  0  0  0  0  0  0
  140.6931   72.1280  222.0240 H   0  0  0  0  0  0  0  0  0  0  0  0
  142.7479   71.1250  221.1616 H   0  0  0  0  0  0  0  0  0  0  0  0
  144.1227   74.9759  219.8994 H   0  0  0  0  0  0  0  0  0  0  0  0
  142.0604   75.9775  220.7709 H   0  0  0  0  0  0  0  0  0  0  0  0
  137.3029   68.9186  222.0637 H   0  0  0  0  0  0  0  0  0  0  0  0
  138.0033   67.7945  224.1802 H   0  0  0  0  0  0  0  0  0  0  0  0
  139.3321   67.9605  226.3031 H   0  0  0  0  0  0  0  0  0  0  0  0
  141.5486   71.5746  227.0879 H   0  0  0  0  0  0  0  0  0  0  0  0
  140.7513   72.5353  224.9409 H   0  0  0  0  0  0  0  0  0  0  0  0
  1  2  2  0
  2  3  1  0
  3  4  1  0
  4  5  1  0
  5  6  2  0
  5  7  1  0
  7  8  1  0
  8  9  1  0
  9 10  1  0
 10 11  1  0
 11 12  1  0
 12 13  1  0
 13 14  1  0
 14 15  2  0
 15 16  1  0
 16 17  2  0
 17 18  1  0
 17 19  1  0
 19 20  2  0
  2 21  1  0
 21 22  2  0
 22 23  1  0
 23 24  2  0
 24 25  1  0
 25 26  2  0
 26 27  1  0
 26 28  1  0
 28 29  2  0
 29 30  1  0
 30 31  2  0
 11  7  1  0
 20 14  1  0
 31 21  1  0
 30 24  1  0
  3 32  1  0
  4 33  1  0
  4 34  1  0
  8 35  1  0
  8 36  1  0
  9 37  1  0
  9 38  1  0
 10 39  1  0
 10 40  1  0
 11 41  1  6
 12 42  1  0
 12 43  1  0
 15 44  1  0
 16 45  1  0
 19 46  1  0
 20 47  1  0
 22 48  1  0
 23 49  1  0
 25 50  1  0
 28 51  1  0
 29 52  1  0
M  END
>  <smiles>  (3) 
O=C(NCC(=O)N1CCC[C@H]1COc1ccc(Cl)cc1)c1ccc2cc(Cl)ccc2n1

>  <score_type>  (3) 
oracle

>  <origin>  (3) 
autodockgpu

>  <m_score__min__energy>  (3) 
-8.3499999999999996

>  <m_primary>  (3) 
energy

>  <rmsd>  (3) 
3.2412604398215654

>  <m_score__min__rmsd>  (3) 
3.2412604398215654

>  <meeko>  (3) 
{"free_energy": -6.28, "intermolecular_energy": -8.36, "internal_energy": -3.38, "cluster_size": 4, "cluster_id": 10, "rank_in_cluster": 4}

>  <energy>  (3) 
-7.89

>  <cluster_rmsd>  (3) 
1.69

>  <cluster>  (3) 
1

$$$$

     RDKit          3D

 52 55  0  0  0  0  0  0  0  0999 V2000
  140.4730   74.6950  221.9740 O   0  0  0  0  0  0  0  0  0  0  0  0
  141.0270   75.8100  221.7460 C   0  0  0  0  0  0  0  0  0  0  0  0
  142.1520   75.8740  220.8780 N   0  0  0  0  0  0  0  0  0  0  0  0
  142.6850   74.6860  220.2440 C   0  0  0  0  0  0  0  0  0  0  0  0
  142.3010   74.6080  218.8110 C   0  0  0  0  0  0  0  0  0  0  0  0
  142.4270   73.5170  218.2050 O   0  0  0  0  0  0  0  0  0  0  0  0
  141.8080   75.7960  218.2090 N   0  0  0  0  0  0  0  0  0  0  0  0
  140.4510   76.3440  218.2420 C   0  0  0  0  0  0  0  0  0  0  0  0
  140.3390   77.2130  216.9840 C   0  0  0  0  0  0  0  0  0  0  0  0
  141.6600   76.9670  216.2820 C   0  0  0  0  0  0  0  0  0  0  0  0
  142.6040   76.7560  217.3930 C   0  0  1  0  0  0  0  0  0  0  0  0
  142.9490   77.8740  218.3000 C   0  0  0  0  0  0  0  0  0  0  0  0
  142.1540   78.2310  219.3150 O   0  0  0  0  0  0  0  0  0  0  0  0
  141.4270   79.2500  219.7800 C   0  0  0  0  0  0  0  0  0  0  0  0
  142.1080   80.1950  220.5810 C   0  0  0  0  0  0  0  0  0  0  0  0
  141.4760   81.2830  221.1220 C   0  0  0  0  0  0  0  0  0  0  0  0
  140.1370   81.5030  220.9050 C   0  0  0  0  0  0  0  0  0  0  0  0
  139.2650   82.8700  221.5630 Cl  0  0  0  0  0  0  0  0  0  0  0  0
  139.4380   80.6070  220.1320 C   0  0  0  0  0  0  0  0  0  0  0  0
  140.0920   79.5130  219.5950 C   0  0  0  0  0  0  0  0  0  0  0  0
  140.5080   77.0310  222.3770 C   0  0  0  0  0  0  0  0  0  0  0  0
  141.3660   77.8710  223.0260 C   0  0  0  0  0  0  0  0  0  0  0  0
  140.9360   79.0460  223.6450 C   0  0  0  0  0  0  0  0  0  0  0  0
  139.5890   79.3470  223.5850 C   0  0  0  0  0  0  0  0  0  0  0  0
  139.0440   80.4790  224.1590 C   0  0  0  0  0  0  0  0  0  0  0  0
  137.6770   80.7160  224.0580 C   0  0  0  0  0  0  0  0  0  0  0  0
  136.9600   82.1580  224.7850 Cl  0  0  0  0  0  0  0  0  0  0  0  0
  136.8500   79.8320  223.3890 C   0  0  0  0  0  0  0  0  0  0  0  0
  137.3830   78.7010  222.8140 C   0  0  0  0  0  0  0  0  0  0  0  0
  138.7550   78.4650  222.9160 C   0  0  0  0  0  0  0  0  0  0  0  0
  139.2030   77.3410  222.3300 N   0  0  0  0  0  0  0  0  0  0  0  0
  142.5670   76.8360  220.7310 H   0  0  0  0  0  0  0  0  0  0  0  0
  143.7823   74.7042  220.3184 H   0  0  0  0  0  0  0  0  0  0  0  0
  142.2692   73.8071  220.7585 H   0  0  0  0  0  0  0  0  0  0  0  0
  139.7070   75.5341  218.2191 H   0  0  0  0  0  0  0  0  0  0  0  0
  140.2624   76.9213  219.1592 H   0  0  0  0  0  0  0  0  0  0  0  0
  139.4928   76.8946  216.3574 H   0  0  0  0  0  0  0  0  0  0  0  0
  140.1564   78.2750  217.2051 H   0  0  0  0  0  0  0  0  0  0  0  0
  141.6039   76.0764  215.6388 H   0  0  0  0  0  0  0  0  0  0  0  0
  141.9547   77.7945  215.6199 H   0  0  0  0  0  0  0  0  0  0  0  0
  143.5845   76.4913  216.9704 H   0  0  0  0  0  0  0  0  0  0  0  0
  143.9227   77.6212  218.7449 H   0  0  0  0  0  0  0  0  0  0  0  0
  142.8788   78.7453  217.6322 H   0  0  0  0  0  0  0  0  0  0  0  0
  143.1810   80.0518  220.7762 H   0  0  0  0  0  0  0  0  0  0  0  0
  142.0486   81.9910  221.7392 H   0  0  0  0  0  0  0  0  0  0  0  0
  138.3653   80.7590  219.9416 H   0  0  0  0  0  0  0  0  0  0  0  0
  139.5072   78.8110  218.9825 H   0  0  0  0  0  0  0  0  0  0  0  0
  142.4346   77.6128  223.0626 H   0  0  0  0  0  0  0  0  0  0  0  0
  141.6449   79.7091  224.1625 H   0  0  0  0  0  0  0  0  0  0  0  0
  139.6892   81.1911  224.6945 H   0  0  0  0  0  0  0  0  0  0  0  0
  135.7708   80.0321  223.3169 H   0  0  0  0  0  0  0  0  0  0  0  0
  136.7349   77.9907  222.2798 H   0  0  0  0  0  0  0  0  0  0  0  0
  1  2  2  0
  2  3  1  0
  3  4  1  0
  4  5  1  0
  5  6  2  0
  5  7  1  0
  7  8  1  0
  8  9  1  0
  9 10  1  0
 10 11  1  0
 11 12  1  0
 12 13  1  0
 13 14  1  0
 14 15  2  0
 15 16  1  0
 16 17  2  0
 17 18  1  0
 17 19  1  0
 19 20  2  0
  2 21  1  0
 21 22  2  0
 22 23  1  0
 23 24  2  0
 24 25  1  0
 25 26  2  0
 26 27  1  0
 26 28  1  0
 28 29  2  0
 29 30  1  0
 30 31  2  0
 11  7  1  0
 20 14  1  0
 31 21  1  0
 30 24  1  0
  3 32  1  0
  4 33  1  0
  4 34  1  0
  8 35  1  0
  8 36  1  0
  9 37  1  0
  9 38  1  0
 10 39  1  0
 10 40  1  0
 11 41  1  6
 12 42  1  0
 12 43  1  0
 15 44  1  0
 16 45  1  0
 19 46  1  0
 20 47  1  0
 22 48  1  0
 23 49  1  0
 25 50  1  0
 28 51  1  0
 29 52  1  0
M  END
>  <smiles>  (4) 
O=C(NCC(=O)N1CCC[C@H]1COc1ccc(Cl)cc1)c1ccc2cc(Cl)ccc2n1

>  <score_type>  (4) 
oracle

>  <origin>  (4) 
autodockgpu

>  <m_score__min__energy>  (4) 
-8.3499999999999996

>  <m_primary>  (4) 
energy

>  <rmsd>  (4) 
7.287195020948441

>  <m_score__min__rmsd>  (4) 
7.287195020948441

>  <meeko>  (4) 
{"free_energy": -5.37, "intermolecular_energy": -7.45, "internal_energy": -4.17, "cluster_size": 1, "cluster_id": 15, "rank_in_cluster": 1}

>  <energy>  (4) 
-7.64

>  <cluster_rmsd>  (4) 
1.86

>  <cluster>  (4) 
1

$$$$

     RDKit          3D

 52 55  0  0  0  0  0  0  0  0999 V2000
  141.0870   73.7980  220.8770 O   0  0  0  0  0  0  0  0  0  0  0  0
  140.3110   73.7930  221.8770 C   0  0  0  0  0  0  0  0  0  0  0  0
  139.6930   75.0040  222.2960 N   0  0  0  0  0  0  0  0  0  0  0  0
  139.9310   76.2520  221.6020 C   0  0  0  0  0  0  0  0  0  0  0  0
  139.4110   77.4150  222.3660 C   0  0  0  0  0  0  0  0  0  0  0  0
  138.4070   77.2590  223.1020 O   0  0  0  0  0  0  0  0  0  0  0  0
  140.0950   78.6500  222.2100 N   0  0  0  0  0  0  0  0  0  0  0  0
  141.0730   79.0310  221.1890 C   0  0  0  0  0  0  0  0  0  0  0  0
  141.9090   80.1430  221.8330 C   0  0  0  0  0  0  0  0  0  0  0  0
  141.3700   80.2010  223.2480 C   0  0  0  0  0  0  0  0  0  0  0  0
  139.9490   79.8460  223.0870 C   0  0  1  0  0  0  0  0  0  0  0  0
  139.0280   80.7610  222.3770 C   0  0  0  0  0  0  0  0  0  0  0  0
  137.8910   81.1930  222.9350 O   0  0  0  0  0  0  0  0  0  0  0  0
  137.2470   81.2640  224.1020 C   0  0  0  0  0  0  0  0  0  0  0  0
  135.8810   80.8980  224.0890 C   0  0  0  0  0  0  0  0  0  0  0  0
  135.1070   80.9300  225.2190 C   0  0  0  0  0  0  0  0  0  0  0  0
  135.6340   81.3250  226.4260 C   0  0  0  0  0  0  0  0  0  0  0  0
  134.7050   81.3910  227.9080 Cl  0  0  0  0  0  0  0  0  0  0  0  0
  136.9570   81.6900  226.4800 C   0  0  0  0  0  0  0  0  0  0  0  0
  137.7240   81.6530  225.3300 C   0  0  0  0  0  0  0  0  0  0  0  0
  140.0530   72.5410  222.6010 C   0  0  0  0  0  0  0  0  0  0  0  0
  139.2280   71.6030  222.0520 C   0  0  0  0  0  0  0  0  0  0  0  0
  138.9420   70.3940  222.6890 C   0  0  0  0  0  0  0  0  0  0  0  0
  139.5270   70.1630  223.9190 C   0  0  0  0  0  0  0  0  0  0  0  0
  139.3210   69.0060  224.6450 C   0  0  0  0  0  0  0  0  0  0  0  0
  139.9460   68.8440  225.8770 C   0  0  0  0  0  0  0  0  0  0  0  0
  139.6950   67.3720  226.8230 Cl  0  0  0  0  0  0  0  0  0  0  0  0
  140.7720   69.8260  226.3910 C   0  0  0  0  0  0  0  0  0  0  0  0
  140.9840   70.9820  225.6750 C   0  0  0  0  0  0  0  0  0  0  0  0
  140.3580   71.1440  224.4380 C   0  0  0  0  0  0  0  0  0  0  0  0
  140.6120   72.2980  223.7970 N   0  0  0  0  0  0  0  0  0  0  0  0
  139.0580   74.9300  223.1400 H   0  0  0  0  0  0  0  0  0  0  0  0
  141.0140   76.3773  221.4557 H   0  0  0  0  0  0  0  0  0  0  0  0
  139.4041   76.2130  220.6372 H   0  0  0  0  0  0  0  0  0  0  0  0
  141.7091   78.1735  220.9243 H   0  0  0  0  0  0  0  0  0  0  0  0
  140.5896   79.3645  220.2589 H   0  0  0  0  0  0  0  0  0  0  0  0
  142.9786   79.8864  221.8279 H   0  0  0  0  0  0  0  0  0  0  0  0
  141.8345   81.1033  221.3018 H   0  0  0  0  0  0  0  0  0  0  0  0
  141.8857   79.4767  223.8956 H   0  0  0  0  0  0  0  0  0  0  0  0
  141.5163   81.1821  223.7234 H   0  0  0  0  0  0  0  0  0  0  0  0
  139.4910   79.7869  224.0854 H   0  0  0  0  0  0  0  0  0  0  0  0
  139.6132   81.6601  222.1338 H   0  0  0  0  0  0  0  0  0  0  0  0
  138.6582   80.1278  221.5571 H   0  0  0  0  0  0  0  0  0  0  0  0
  135.4251   80.5772  223.1407 H   0  0  0  0  0  0  0  0  0  0  0  0
  134.0488   80.6355  225.1598 H   0  0  0  0  0  0  0  0  0  0  0  0
  137.4040   82.0100  227.4328 H   0  0  0  0  0  0  0  0  0  0  0  0
  138.7797   81.9532  225.4030 H   0  0  0  0  0  0  0  0  0  0  0  0
  138.7717   71.8067  221.0721 H   0  0  0  0  0  0  0  0  0  0  0  0
  138.2743   69.6514  222.2277 H   0  0  0  0  0  0  0  0  0  0  0  0
  138.6653   68.2159  224.2504 H   0  0  0  0  0  0  0  0  0  0  0  0
  141.2576   69.6841  227.3678 H   0  0  0  0  0  0  0  0  0  0  0  0
  141.6399   71.7701  226.0734 H   0  0  0  0  0  0  0  0  0  0  0  0
  1  2  2  0
  2  3  1  0
  3  4  1  0
  4  5  1  0
  5  6  2  0
  5  7  1  0
  7  8  1  0
  8  9  1  0
  9 10  1  0
 10 11  1  0
 11 12  1  0
 12 13  1  0
 13 14  1  0
 14 15  2  0
 15 16  1  0
 16 17  2  0
 17 18  1  0
 17 19  1  0
 19 20  2  0
  2 21  1  0
 21 22  2  0
 22 23  1  0
 23 24  2  0
 24 25  1  0
 25 26  2  0
 26 27  1  0
 26 28  1  0
 28 29  2  0
 29 30  1  0
 30 31  2  0
 11  7  1  0
 20 14  1  0
 31 21  1  0
 30 24  1  0
  3 32  1  0
  4 33  1  0
  4 34  1  0
  8 35  1  0
  8 36  1  0
  9 37  1  0
  9 38  1  0
 10 39  1  0
 10 40  1  0
 11 41  1  1
 12 42  1  0
 12 43  1  0
 15 44  1  0
 16 45  1  0
 19 46  1  0
 20 47  1  0
 22 48  1  0
 23 49  1  0
 25 50  1  0
 28 51  1  0
 29 52  1  0
M  END
>  <smiles>  (5) 
O=C(NCC(=O)N1CCC[C@H]1COc1ccc(Cl)cc1)c1ccc2cc(Cl)ccc2n1

>  <score_type>  (5) 
oracle

>  <origin>  (5) 
autodockgpu

>  <m_score__min__energy>  (5) 
-8.3499999999999996

>  <m_primary>  (5) 
energy

>  <rmsd>  (5) 
3.8407550257663114

>  <m_score__min__rmsd>  (5) 
3.8407550257663114

>  <meeko>  (5) 
{"free_energy": -7.73, "intermolecular_energy": -9.82, "internal_energy": -1.61, "cluster_size": 2, "cluster_id": 7, "rank_in_cluster": 1}

>  <energy>  (5) 
-7.49

>  <cluster_rmsd>  (5) 
1.8

>  <cluster>  (5) 
1

$$$$

     RDKit          3D

 52 55  0  0  0  0  0  0  0  0999 V2000
  138.1790   75.4880  222.6580 O   0  0  0  0  0  0  0  0  0  0  0  0
  139.2760   75.8850  222.1670 C   0  0  0  0  0  0  0  0  0  0  0  0
  139.5470   77.2790  222.0850 N   0  0  0  0  0  0  0  0  0  0  0  0
  138.5910   78.2630  222.5500 C   0  0  0  0  0  0  0  0  0  0  0  0
  139.2540   79.3620  223.2980 C   0  0  0  0  0  0  0  0  0  0  0  0
  138.6040   79.9790  224.1760 O   0  0  0  0  0  0  0  0  0  0  0  0
  140.6040   79.6500  222.9630 N   0  0  0  0  0  0  0  0  0  0  0  0
  141.8130   78.9080  223.3240 C   0  0  0  0  0  0  0  0  0  0  0  0
  142.9470   79.9400  223.2660 C   0  0  0  0  0  0  0  0  0  0  0  0
  142.2140   81.2350  222.9770 C   0  0  0  0  0  0  0  0  0  0  0  0
  141.0740   80.8050  222.1490 C   0  0  1  0  0  0  0  0  0  0  0  0
  141.3010   80.2780  220.7850 C   0  0  0  0  0  0  0  0  0  0  0  0
  141.6410   79.0020  220.5680 O   0  0  0  0  0  0  0  0  0  0  0  0
  141.7610   78.0900  219.6010 C   0  0  0  0  0  0  0  0  0  0  0  0
  140.5800   77.4090  219.2270 C   0  0  0  0  0  0  0  0  0  0  0  0
  140.5700   76.4490  218.2500 C   0  0  0  0  0  0  0  0  0  0  0  0
  141.7230   76.1030  217.5870 C   0  0  0  0  0  0  0  0  0  0  0  0
  141.7840   74.8870  216.3300 Cl  0  0  0  0  0  0  0  0  0  0  0  0
  142.8930   76.7410  217.9220 C   0  0  0  0  0  0  0  0  0  0  0  0
  142.8850   77.7070  218.9110 C   0  0  0  0  0  0  0  0  0  0  0  0
  140.2630   74.9100  221.6860 C   0  0  0  0  0  0  0  0  0  0  0  0
  139.9330   73.5860  221.6350 C   0  0  0  0  0  0  0  0  0  0  0  0
  140.8260   72.6100  221.1870 C   0  0  0  0  0  0  0  0  0  0  0  0
  142.0820   73.0240  220.7890 C   0  0  0  0  0  0  0  0  0  0  0  0
  143.0510   72.1540  220.3280 C   0  0  0  0  0  0  0  0  0  0  0  0
  144.2940   72.6440  219.9430 C   0  0  0  0  0  0  0  0  0  0  0  0
  145.5480   71.5480  219.3510 Cl  0  0  0  0  0  0  0  0  0  0  0  0
  144.5790   73.9960  220.0150 C   0  0  0  0  0  0  0  0  0  0  0  0
  143.6210   74.8710  220.4730 C   0  0  0  0  0  0  0  0  0  0  0  0
  142.3730   74.3780  220.8580 C   0  0  0  0  0  0  0  0  0  0  0  0
  141.4890   75.2920  221.2940 N   0  0  0  0  0  0  0  0  0  0  0  0
  140.4820   77.5440  221.6640 H   0  0  0  0  0  0  0  0  0  0  0  0
  138.0664   78.6884  221.6818 H   0  0  0  0  0  0  0  0  0  0  0  0
  137.8860   77.7619  223.2297 H   0  0  0  0  0  0  0  0  0  0  0  0
  141.7219   78.4908  224.3377 H   0  0  0  0  0  0  0  0  0  0  0  0
  141.9931   78.0591  222.6481 H   0  0  0  0  0  0  0  0  0  0  0  0
  143.4820   79.9941  224.2256 H   0  0  0  0  0  0  0  0  0  0  0  0
  143.7146   79.6993  222.5158 H   0  0  0  0  0  0  0  0  0  0  0  0
  141.8680   81.7076  223.9081 H   0  0  0  0  0  0  0  0  0  0  0  0
  142.8470   81.9848  222.4799 H   0  0  0  0  0  0  0  0  0  0  0  0
  140.4367   81.6801  221.9542 H   0  0  0  0  0  0  0  0  0  0  0  0
  140.3668   80.4471  220.2295 H   0  0  0  0  0  0  0  0  0  0  0  0
  142.2092   80.8162  220.4761 H   0  0  0  0  0  0  0  0  0  0  0  0
  139.6380   77.6582  219.7374 H   0  0  0  0  0  0  0  0  0  0  0  0
  139.6254   75.9477  217.9923 H   0  0  0  0  0  0  0  0  0  0  0  0
  143.8303   76.4847  217.4064 H   0  0  0  0  0  0  0  0  0  0  0  0
  143.8368   78.1988  219.1604 H   0  0  0  0  0  0  0  0  0  0  0  0
  138.9280   73.2771  221.9583 H   0  0  0  0  0  0  0  0  0  0  0  0
  140.5390   71.5487  221.1524 H   0  0  0  0  0  0  0  0  0  0  0  0
  142.8398   71.0763  220.2657 H   0  0  0  0  0  0  0  0  0  0  0  0
  145.5669   74.3696  219.7075 H   0  0  0  0  0  0  0  0  0  0  0  0
  143.8363   75.9479  220.5352 H   0  0  0  0  0  0  0  0  0  0  0  0
  1  2  2  0
  2  3  1  0
  3  4  1  0
  4  5  1  0
  5  6  2  0
  5  7  1  0
  7  8  1  0
  8  9  1  0
  9 10  1  0
 10 11  1  0
 11 12  1  0
 12 13  1  0
 13 14  1  0
 14 15  2  0
 15 16  1  0
 16 17  2  0
 17 18  1  0
 17 19  1  0
 19 20  2  0
  2 21  1  0
 21 22  2  0
 22 23  1  0
 23 24  2  0
 24 25  1  0
 25 26  2  0
 26 27  1  0
 26 28  1  0
 28 29  2  0
 29 30  1  0
 30 31  2  0
 11  7  1  0
 20 14  1  0
 31 21  1  0
 30 24  1  0
  3 32  1  0
  4 33  1  0
  4 34  1  0
  8 35  1  0
  8 36  1  0
  9 37  1  0
  9 38  1  0
 10 39  1  0
 10 40  1  0
 11 41  1  6
 12 42  1  0
 12 43  1  0
 15 44  1  0
 16 45  1  0
 19 46  1  0
 20 47  1  0
 22 48  1  0
 23 49  1  0
 25 50  1  0
 28 51  1  0
 29 52  1  0
M  END
>  <smiles>  (6) 
O=C(NCC(=O)N1CCC[C@H]1COc1ccc(Cl)cc1)c1ccc2cc(Cl)ccc2n1

>  <score_type>  (6) 
oracle

>  <origin>  (6) 
autodockgpu

>  <m_score__min__energy>  (6) 
-8.3499999999999996

>  <m_primary>  (6) 
energy

>  <rmsd>  (6) 
6.456668559064168

>  <m_score__min__rmsd>  (6) 
6.456668559064168

>  <meeko>  (6) 
{"free_energy": -5.85, "intermolecular_energy": -7.94, "internal_energy": -3.96, "cluster_size": 8, "cluster_id": 11, "rank_in_cluster": 5}

>  <energy>  (6) 
-7.45

>  <cluster_rmsd>  (6) 
1.79

>  <cluster>  (6) 
1

$$$$

     RDKit          3D

 52 55  0  0  0  0  0  0  0  0999 V2000
  136.1050   74.6840  221.2520 O   0  0  0  0  0  0  0  0  0  0  0  0
  137.1820   74.7100  221.9160 C   0  0  0  0  0  0  0  0  0  0  0  0
  137.7840   73.4890  222.3320 N   0  0  0  0  0  0  0  0  0  0  0  0
  137.1900   72.2080  222.0110 C   0  0  0  0  0  0  0  0  0  0  0  0
  137.7410   71.6450  220.7520 C   0  0  0  0  0  0  0  0  0  0  0  0
  136.9850   70.9940  219.9930 O   0  0  0  0  0  0  0  0  0  0  0  0
  139.1160   71.8850  220.4850 N   0  0  0  0  0  0  0  0  0  0  0  0
  139.7130   72.6990  219.4240 C   0  0  0  0  0  0  0  0  0  0  0  0
  141.1170   72.1180  219.2180 C   0  0  0  0  0  0  0  0  0  0  0  0
  141.1280   70.9160  220.1410 C   0  0  0  0  0  0  0  0  0  0  0  0
  140.2640   71.3350  221.2580 C   0  0  1  0  0  0  0  0  0  0  0  0
  140.6980   72.4180  222.1690 C   0  0  0  0  0  0  0  0  0  0  0  0
  140.4360   72.3850  223.4810 O   0  0  0  0  0  0  0  0  0  0  0  0
  140.3070   71.5470  224.5120 C   0  0  0  0  0  0  0  0  0  0  0  0
  141.0280   71.8750  225.6830 C   0  0  0  0  0  0  0  0  0  0  0  0
  140.9830   71.0970  226.8100 C   0  0  0  0  0  0  0  0  0  0  0  0
  140.2270   69.9500  226.8470 C   0  0  0  0  0  0  0  0  0  0  0  0
  140.1220   68.9090  228.2500 Cl  0  0  0  0  0  0  0  0  0  0  0  0
  139.5110   69.5960  225.7290 C   0  0  0  0  0  0  0  0  0  0  0  0
  139.5680   70.3920  224.6000 C   0  0  0  0  0  0  0  0  0  0  0  0
  137.8060   75.9950  222.2570 C   0  0  0  0  0  0  0  0  0  0  0  0
  137.0190   77.0850  222.4930 C   0  0  0  0  0  0  0  0  0  0  0  0
  137.5500   78.3340  222.8200 C   0  0  0  0  0  0  0  0  0  0  0  0
  138.9240   78.4450  222.9010 C   0  0  0  0  0  0  0  0  0  0  0  0
  139.5670   79.6270  223.2160 C   0  0  0  0  0  0  0  0  0  0  0  0
  140.9560   79.6630  223.2800 C   0  0  0  0  0  0  0  0  0  0  0  0
  141.7970   81.1640  223.6810 Cl  0  0  0  0  0  0  0  0  0  0  0  0
  141.7080   78.5300  223.0310 C   0  0  0  0  0  0  0  0  0  0  0  0
  141.0780   77.3480  222.7160 C   0  0  0  0  0  0  0  0  0  0  0  0
  139.6840   77.3120  222.6530 C   0  0  0  0  0  0  0  0  0  0  0  0
  139.1390   76.1240  222.3400 N   0  0  0  0  0  0  0  0  0  0  0  0
  138.6820   73.5820  222.8840 H   0  0  0  0  0  0  0  0  0  0  0  0
  137.3917   71.5058  222.8334 H   0  0  0  0  0  0  0  0  0  0  0  0
  136.1087   72.3569  221.8747 H   0  0  0  0  0  0  0  0  0  0  0  0
  139.1230   72.6209  218.4989 H   0  0  0  0  0  0  0  0  0  0  0  0
  139.7431   73.7659  219.6901 H   0  0  0  0  0  0  0  0  0  0  0  0
  141.2695   71.8144  218.1718 H   0  0  0  0  0  0  0  0  0  0  0  0
  141.9199   72.8380  219.4347 H   0  0  0  0  0  0  0  0  0  0  0  0
  140.7170   70.0289  219.6369 H   0  0  0  0  0  0  0  0  0  0  0  0
  142.1404   70.6323  220.4644 H   0  0  0  0  0  0  0  0  0  0  0  0
  140.1507   70.4851  221.9470 H   0  0  0  0  0  0  0  0  0  0  0  0
  141.7921   72.4809  222.0743 H   0  0  0  0  0  0  0  0  0  0  0  0
  140.0845   73.2661  221.8307 H   0  0  0  0  0  0  0  0  0  0  0  0
  141.6457   72.7852  225.6896 H   0  0  0  0  0  0  0  0  0  0  0  0
  141.5602   71.3948  227.6978 H   0  0  0  0  0  0  0  0  0  0  0  0
  138.8957   68.6842  225.7322 H   0  0  0  0  0  0  0  0  0  0  0  0
  138.9867   70.0820  223.7191 H   0  0  0  0  0  0  0  0  0  0  0  0
  135.9267   76.9753  222.4230 H   0  0  0  0  0  0  0  0  0  0  0  0
  136.8969   79.1992  223.0066 H   0  0  0  0  0  0  0  0  0  0  0  0
  138.9819   80.5369  223.4156 H   0  0  0  0  0  0  0  0  0  0  0  0
  142.8058   78.5733  223.0845 H   0  0  0  0  0  0  0  0  0  0  0  0
  141.6669   76.4407  222.5159 H   0  0  0  0  0  0  0  0  0  0  0  0
  1  2  2  0
  2  3  1  0
  3  4  1  0
  4  5  1  0
  5  6  2  0
  5  7  1  0
  7  8  1  0
  8  9  1  0
  9 10  1  0
 10 11  1  0
 11 12  1  0
 12 13  1  0
 13 14  1  0
 14 15  2  0
 15 16  1  0
 16 17  2  0
 17 18  1  0
 17 19  1  0
 19 20  2  0
  2 21  1  0
 21 22  2  0
 22 23  1  0
 23 24  2  0
 24 25  1  0
 25 26  2  0
 26 27  1  0
 26 28  1  0
 28 29  2  0
 29 30  1  0
 30 31  2  0
 11  7  1  0
 20 14  1  0
 31 21  1  0
 30 24  1  0
  3 32  1  0
  4 33  1  0
  4 34  1  0
  8 35  1  0
  8 36  1  0
  9 37  1  0
  9 38  1  0
 10 39  1  0
 10 40  1  0
 11 41  1  1
 12 42  1  0
 12 43  1  0
 15 44  1  0
 16 45  1  0
 19 46  1  0
 20 47  1  0
 22 48  1  0
 23 49  1  0
 25 50  1  0
 28 51  1  0
 29 52  1  0
M  END
>  <smiles>  (7) 
O=C(NCC(=O)N1CCC[C@H]1COc1ccc(Cl)cc1)c1ccc2cc(Cl)ccc2n1

>  <score_type>  (7) 
oracle

>  <origin>  (7) 
autodockgpu

>  <m_score__min__energy>  (7) 
-8.3499999999999996

>  <m_primary>  (7) 
energy

>  <rmsd>  (7) 
6.926990562713348

>  <m_score__min__rmsd>  (7) 
6.926990562713348

>  <meeko>  (7) 
{"free_energy": -7.19, "intermolecular_energy": -9.28, "internal_energy": -2.67, "cluster_size": 8, "cluster_id": 4, "rank_in_cluster": 7}

>  <energy>  (7) 
-7.07

>  <cluster_rmsd>  (7) 
1.93

>  <cluster>  (7) 
1

$$$$

     RDKit          3D

 52 55  0  0  0  0  0  0  0  0999 V2000
  138.6000   70.1520  220.9590 O   0  0  0  0  0  0  0  0  0  0  0  0
  138.7220   71.0690  221.8220 C   0  0  0  0  0  0  0  0  0  0  0  0
  138.3200   72.3960  221.5020 N   0  0  0  0  0  0  0  0  0  0  0  0
  137.7710   72.7250  220.2030 C   0  0  0  0  0  0  0  0  0  0  0  0
  137.1940   74.0940  220.1820 C   0  0  0  0  0  0  0  0  0  0  0  0
  136.6690   74.5170  219.1240 O   0  0  0  0  0  0  0  0  0  0  0  0
  137.2760   74.8490  221.3820 N   0  0  0  0  0  0  0  0  0  0  0  0
  136.5080   74.6890  222.6180 C   0  0  0  0  0  0  0  0  0  0  0  0
  136.5330   76.0690  223.2860 C   0  0  0  0  0  0  0  0  0  0  0  0
  137.2450   76.9310  222.2620 C   0  0  0  0  0  0  0  0  0  0  0  0
  138.1930   75.9970  221.6300 C   0  0  1  0  0  0  0  0  0  0  0  0
  139.3290   75.4510  222.4050 C   0  0  0  0  0  0  0  0  0  0  0  0
  140.0980   74.4630  221.9320 O   0  0  0  0  0  0  0  0  0  0  0  0
  141.2840   74.2240  221.3670 C   0  0  0  0  0  0  0  0  0  0  0  0
  141.6940   72.8720  221.3130 C   0  0  0  0  0  0  0  0  0  0  0  0
  142.8900   72.4950  220.7620 C   0  0  0  0  0  0  0  0  0  0  0  0
  143.7500   73.4270  220.2330 C   0  0  0  0  0  0  0  0  0  0  0  0
  145.2920   73.0170  219.5140 Cl  0  0  0  0  0  0  0  0  0  0  0  0
  143.3890   74.7520  220.2670 C   0  0  0  0  0  0  0  0  0  0  0  0
  142.1790   75.1160  220.8280 C   0  0  0  0  0  0  0  0  0  0  0  0
  139.2770   70.7630  223.1470 C   0  0  0  0  0  0  0  0  0  0  0  0
  139.9640   71.7260  223.8290 C   0  0  0  0  0  0  0  0  0  0  0  0
  140.5150   71.4980  225.0910 C   0  0  0  0  0  0  0  0  0  0  0  0
  140.3480   70.2450  225.6480 C   0  0  0  0  0  0  0  0  0  0  0  0
  140.8470   69.9000  226.8890 C   0  0  0  0  0  0  0  0  0  0  0  0
  140.6380   68.6170  227.3850 C   0  0  0  0  0  0  0  0  0  0  0  0
  141.2690   68.1550  228.9700 Cl  0  0  0  0  0  0  0  0  0  0  0  0
  139.9360   67.6770  226.6530 C   0  0  0  0  0  0  0  0  0  0  0  0
  139.4350   68.0110  225.4160 C   0  0  0  0  0  0  0  0  0  0  0  0
  139.6440   69.2980  224.9190 C   0  0  0  0  0  0  0  0  0  0  0  0
  139.1250   69.5520  223.7050 N   0  0  0  0  0  0  0  0  0  0  0  0
  138.4500   73.1140  222.2680 H   0  0  0  0  0  0  0  0  0  0  0  0
  138.5719   72.6639  219.4514 H   0  0  0  0  0  0  0  0  0  0  0  0
  136.9659   72.0096  219.9794 H   0  0  0  0  0  0  0  0  0  0  0  0
  135.4742   74.3873  222.3939 H   0  0  0  0  0  0  0  0  0  0  0  0
  136.9313   73.9090  223.2679 H   0  0  0  0  0  0  0  0  0  0  0  0
  135.5131   76.4368  223.4718 H   0  0  0  0  0  0  0  0  0  0  0  0
  137.0273   76.0659  224.2687 H   0  0  0  0  0  0  0  0  0  0  0  0
  136.5354   77.3318  221.5231 H   0  0  0  0  0  0  0  0  0  0  0  0
  137.7380   77.8079  222.7069 H   0  0  0  0  0  0  0  0  0  0  0  0
  138.7046   76.5236  220.8109 H   0  0  0  0  0  0  0  0  0  0  0  0
  140.0024   76.2979  222.6034 H   0  0  0  0  0  0  0  0  0  0  0  0
  138.8206   74.9647  223.2506 H   0  0  0  0  0  0  0  0  0  0  0  0
  141.0311   72.0979  221.7269 H   0  0  0  0  0  0  0  0  0  0  0  0
  143.1661   71.4304  220.7427 H   0  0  0  0  0  0  0  0  0  0  0  0
  144.0587   75.5188  219.8504 H   0  0  0  0  0  0  0  0  0  0  0  0
  141.9171   76.1843  220.8437 H   0  0  0  0  0  0  0  0  0  0  0  0
  140.0876   72.7168  223.3674 H   0  0  0  0  0  0  0  0  0  0  0  0
  141.0634   72.2889  225.6237 H   0  0  0  0  0  0  0  0  0  0  0  0
  141.4075   70.6369  227.4829 H   0  0  0  0  0  0  0  0  0  0  0  0
  139.7788   66.6664  227.0581 H   0  0  0  0  0  0  0  0  0  0  0  0
  138.8754   67.2711  224.8248 H   0  0  0  0  0  0  0  0  0  0  0  0
  1  2  2  0
  2  3  1  0
  3  4  1  0
  4  5  1  0
  5  6  2  0
  5  7  1  0
  7  8  1  0
  8  9  1  0
  9 10  1  0
 10 11  1  0
 11 12  1  0
 12 13  1  0
 13 14  1  0
 14 15  2  0
 15 16  1  0
 16 17  2  0
 17 18  1  0
 17 19  1  0
 19 20  2  0
  2 21  1  0
 21 22  2  0
 22 23  1  0
 23 24  2  0
 24 25  1  0
 25 26  2  0
 26 27  1  0
 26 28  1  0
 28 29  2  0
 29 30  1  0
 30 31  2  0
 11  7  1  0
 20 14  1  0
 31 21  1  0
 30 24  1  0
  3 32  1  0
  4 33  1  0
  4 34  1  0
  8 35  1  0
  8 36  1  0
  9 37  1  0
  9 38  1  0
 10 39  1  0
 10 40  1  0
 11 41  1  6
 12 42  1  0
 12 43  1  0
 15 44  1  0
 16 45  1  0
 19 46  1  0
 20 47  1  0
 22 48  1  0
 23 49  1  0
 25 50  1  0
 28 51  1  0
 29 52  1  0
M  END
>  <smiles>  (8) 
O=C(NCC(=O)N1CCC[C@H]1COc1ccc(Cl)cc1)c1ccc2cc(Cl)ccc2n1

>  <score_type>  (8) 
oracle

>  <origin>  (8) 
autodockgpu

>  <m_score__min__energy>  (8) 
-8.3499999999999996

>  <m_primary>  (8) 
energy

>  <rmsd>  (8) 
3.8325905112418113

>  <m_score__min__rmsd>  (8) 
3.8325905112418113

>  <meeko>  (8) 
{"free_energy": -7.08, "intermolecular_energy": -9.17, "internal_energy": -2.8, "cluster_size": 4, "cluster_id": 10, "rank_in_cluster": 1}

>  <energy>  (8) 
-6.63

>  <cluster_rmsd>  (8) 
1.83

>  <cluster>  (8) 
1

$$$$

     RDKit          3D

 52 55  0  0  0  0  0  0  0  0999 V2000
  140.1210   72.6180  220.6640 O   0  0  0  0  0  0  0  0  0  0  0  0
  139.8960   72.9550  221.8630 C   0  0  0  0  0  0  0  0  0  0  0  0
  139.5980   74.3120  222.1690 N   0  0  0  0  0  0  0  0  0  0  0  0
  139.5460   75.3250  221.1350 C   0  0  0  0  0  0  0  0  0  0  0  0
  138.9500   76.5910  221.6340 C   0  0  0  0  0  0  0  0  0  0  0  0
  137.7020   76.7200  221.6280 O   0  0  0  0  0  0  0  0  0  0  0  0
  139.8470   77.5910  222.0930 N   0  0  0  0  0  0  0  0  0  0  0  0
  141.1600   77.4250  222.7200 C   0  0  0  0  0  0  0  0  0  0  0  0
  141.3730   78.6990  223.5450 C   0  0  0  0  0  0  0  0  0  0  0  0
  140.0580   79.4340  223.3840 C   0  0  0  0  0  0  0  0  0  0  0  0
  139.6230   79.0630  222.0260 C   0  0  1  0  0  0  0  0  0  0  0  0
  140.3790   79.5370  220.8460 C   0  0  0  0  0  0  0  0  0  0  0  0
  141.5300   78.9700  220.4690 O   0  0  0  0  0  0  0  0  0  0  0  0
  142.0960   78.2880  219.4700 C   0  0  0  0  0  0  0  0  0  0  0  0
  142.5530   76.9860  219.7770 C   0  0  0  0  0  0  0  0  0  0  0  0
  143.1540   76.1850  218.8420 C   0  0  0  0  0  0  0  0  0  0  0  0
  143.3400   76.6210  217.5520 C   0  0  0  0  0  0  0  0  0  0  0  0
  144.0990   75.6530  216.3070 Cl  0  0  0  0  0  0  0  0  0  0  0  0
  142.9110   77.8820  217.2140 C   0  0  0  0  0  0  0  0  0  0  0  0
  142.3070   78.6770  218.1700 C   0  0  0  0  0  0  0  0  0  0  0  0
  139.9430   71.9490  222.9320 C   0  0  0  0  0  0  0  0  0  0  0  0
  139.4720   70.6900  222.6930 C   0  0  0  0  0  0  0  0  0  0  0  0
  139.4890   69.6890  223.6670 C   0  0  0  0  0  0  0  0  0  0  0  0
  140.0050   70.0100  224.9080 C   0  0  0  0  0  0  0  0  0  0  0  0
  140.0750   69.1060  225.9500 C   0  0  0  0  0  0  0  0  0  0  0  0
  140.6090   69.5010  227.1720 C   0  0  0  0  0  0  0  0  0  0  0  0
  140.7070   68.3610  228.5190 Cl  0  0  0  0  0  0  0  0  0  0  0  0
  141.0720   70.7900  227.3630 C   0  0  0  0  0  0  0  0  0  0  0  0
  141.0060   71.6980  226.3300 C   0  0  0  0  0  0  0  0  0  0  0  0
  140.4720   71.3010  225.1040 C   0  0  0  0  0  0  0  0  0  0  0  0
  140.4410   72.2410  224.1430 N   0  0  0  0  0  0  0  0  0  0  0  0
  139.4210   74.5270  223.1900 H   0  0  0  0  0  0  0  0  0  0  0  0
  140.5682   75.5271  220.7825 H   0  0  0  0  0  0  0  0  0  0  0  0
  138.9139   74.9478  220.3176 H   0  0  0  0  0  0  0  0  0  0  0  0
  141.1679   76.5380  223.3705 H   0  0  0  0  0  0  0  0  0  0  0  0
  141.9564   77.2783  221.9756 H   0  0  0  0  0  0  0  0  0  0  0  0
  141.5646   78.4585  224.6011 H   0  0  0  0  0  0  0  0  0  0  0  0
  142.2417   79.2881  223.2158 H   0  0  0  0  0  0  0  0  0  0  0  0
  139.3269   79.1020  224.1359 H   0  0  0  0  0  0  0  0  0  0  0  0
  140.1541   80.5211  223.5220 H   0  0  0  0  0  0  0  0  0  0  0  0
  138.6270   79.4956  221.8501 H   0  0  0  0  0  0  0  0  0  0  0  0
  139.6968   79.4500  219.9875 H   0  0  0  0  0  0  0  0  0  0  0  0
  140.7073   80.5365  221.1673 H   0  0  0  0  0  0  0  0  0  0  0  0
  142.4218   76.6035  220.8000 H   0  0  0  0  0  0  0  0  0  0  0  0
  143.4926   75.1782  219.1280 H   0  0  0  0  0  0  0  0  0  0  0  0
  143.0474   78.2565  216.1888 H   0  0  0  0  0  0  0  0  0  0  0  0
  141.9752   79.6823  217.8713 H   0  0  0  0  0  0  0  0  0  0  0  0
  139.0648   70.4557  221.6984 H   0  0  0  0  0  0  0  0  0  0  0  0
  139.1051   68.6805  223.4536 H   0  0  0  0  0  0  0  0  0  0  0  0
  139.7097   68.0774  225.8138 H   0  0  0  0  0  0  0  0  0  0  0  0
  141.4909   71.0884  228.3353 H   0  0  0  0  0  0  0  0  0  0  0  0
  141.3707   72.7263  226.4701 H   0  0  0  0  0  0  0  0  0  0  0  0
  1  2  2  0
  2  3  1  0
  3  4  1  0
  4  5  1  0
  5  6  2  0
  5  7  1  0
  7  8  1  0
  8  9  1  0
  9 10  1  0
 10 11  1  0
 11 12  1  0
 12 13  1  0
 13 14  1  0
 14 15  2  0
 15 16  1  0
 16 17  2  0
 17 18  1  0
 17 19  1  0
 19 20  2  0
  2 21  1  0
 21 22  2  0
 22 23  1  0
 23 24  2  0
 24 25  1  0
 25 26  2  0
 26 27  1  0
 26 28  1  0
 28 29  2  0
 29 30  1  0
 30 31  2  0
 11  7  1  0
 20 14  1  0
 31 21  1  0
 30 24  1  0
  3 32  1  0
  4 33  1  0
  4 34  1  0
  8 35  1  0
  8 36  1  0
  9 37  1  0
  9 38  1  0
 10 39  1  0
 10 40  1  0
 11 41  1  6
 12 42  1  0
 12 43  1  0
 15 44  1  0
 16 45  1  0
 19 46  1  0
 20 47  1  0
 22 48  1  0
 23 49  1  0
 25 50  1  0
 28 51  1  0
 29 52  1  0
M  END
>  <smiles>  (9) 
O=C(NCC(=O)N1CCC[C@H]1COc1ccc(Cl)cc1)c1ccc2cc(Cl)ccc2n1

>  <score_type>  (9) 
oracle

>  <origin>  (9) 
autodockgpu

>  <m_score__min__energy>  (9) 
-8.3499999999999996

>  <m_primary>  (9) 
energy

>  <rmsd>  (9) 
3.4619220475191304

>  <m_score__min__rmsd>  (9) 
3.4619220475191304

>  <meeko>  (9) 
{"free_energy": -7.88, "intermolecular_energy": -9.97, "internal_energy": -1.7, "cluster_size": 1, "cluster_id": 6, "rank_in_cluster": 1}

>  <energy>  (9) 
-8.14

>  <cluster_rmsd>  (9) 
0.0

>  <cluster>  (9) 
2

$$$$

     RDKit          3D

 52 55  0  0  0  0  0  0  0  0999 V2000
  138.3330   72.8660  220.2520 O   0  0  0  0  0  0  0  0  0  0  0  0
  138.2780   73.4100  221.3930 C   0  0  0  0  0  0  0  0  0  0  0  0
  137.4190   72.8700  222.3900 N   0  0  0  0  0  0  0  0  0  0  0  0
  136.5990   71.7050  222.1300 C   0  0  0  0  0  0  0  0  0  0  0  0
  137.0440   70.5310  222.9240 C   0  0  0  0  0  0  0  0  0  0  0  0
  137.0150   70.5960  224.1760 O   0  0  0  0  0  0  0  0  0  0  0  0
  137.4840   69.3900  222.2000 N   0  0  0  0  0  0  0  0  0  0  0  0
  138.0640   69.3270  220.8570 C   0  0  0  0  0  0  0  0  0  0  0  0
  137.7620   67.9090  220.3570 C   0  0  0  0  0  0  0  0  0  0  0  0
  136.9090   67.3310  221.4680 C   0  0  0  0  0  0  0  0  0  0  0  0
  137.4390   67.9810  222.6800 C   0  0  1  0  0  0  0  0  0  0  0  0
  138.8050   67.6690  223.1560 C   0  0  0  0  0  0  0  0  0  0  0  0
  139.1410   67.7600  224.4480 O   0  0  0  0  0  0  0  0  0  0  0  0
  139.5640   68.6270  225.3710 C   0  0  0  0  0  0  0  0  0  0  0  0
  139.8970   69.9220  224.9120 C   0  0  0  0  0  0  0  0  0  0  0  0
  140.3460   70.9020  225.7580 C   0  0  0  0  0  0  0  0  0  0  0  0
  140.4940   70.6610  227.1030 C   0  0  0  0  0  0  0  0  0  0  0  0
  141.0620   71.8640  228.2410 Cl  0  0  0  0  0  0  0  0  0  0  0  0
  140.1820   69.4140  227.5890 C   0  0  0  0  0  0  0  0  0  0  0  0
  139.7310   68.4370  226.7210 C   0  0  0  0  0  0  0  0  0  0  0  0
  139.0980   74.5940  221.6840 C   0  0  0  0  0  0  0  0  0  0  0  0
  140.4470   74.5440  221.4860 C   0  0  0  0  0  0  0  0  0  0  0  0
  141.2810   75.6350  221.7430 C   0  0  0  0  0  0  0  0  0  0  0  0
  140.6950   76.7930  222.2170 C   0  0  0  0  0  0  0  0  0  0  0  0
  141.4140   77.9350  222.5080 C   0  0  0  0  0  0  0  0  0  0  0  0
  140.7540   79.0650  222.9810 C   0  0  0  0  0  0  0  0  0  0  0  0
  141.6550   80.5370  223.3600 Cl  0  0  0  0  0  0  0  0  0  0  0  0
  139.3840   79.0630  223.1660 C   0  0  0  0  0  0  0  0  0  0  0  0
  138.6580   77.9290  222.8790 C   0  0  0  0  0  0  0  0  0  0  0  0
  139.3210   76.7970  222.4030 C   0  0  0  0  0  0  0  0  0  0  0  0
  138.5470   75.7280  222.1450 N   0  0  0  0  0  0  0  0  0  0  0  0
  137.4200   73.3730  223.3220 H   0  0  0  0  0  0  0  0  0  0  0  0
  135.5562   71.9376  222.3916 H   0  0  0  0  0  0  0  0  0  0  0  0
  136.6911   71.4522  221.0634 H   0  0  0  0  0  0  0  0  0  0  0  0
  137.5978   70.0757  220.1996 H   0  0  0  0  0  0  0  0  0  0  0  0
  139.1431   69.5403  220.8639 H   0  0  0  0  0  0  0  0  0  0  0  0
  137.2092   67.9342  219.4063 H   0  0  0  0  0  0  0  0  0  0  0  0
  138.6676   67.3187  220.1537 H   0  0  0  0  0  0  0  0  0  0  0  0
  135.8479   67.5804  221.3197 H   0  0  0  0  0  0  0  0  0  0  0  0
  136.9530   66.2329  221.5158 H   0  0  0  0  0  0  0  0  0  0  0  0
  136.8209   67.6746  223.5368 H   0  0  0  0  0  0  0  0  0  0  0  0
  139.0058   66.6295  222.8575 H   0  0  0  0  0  0  0  0  0  0  0  0
  139.3988   68.4772  222.7041 H   0  0  0  0  0  0  0  0  0  0  0  0
  139.7923   70.1503  223.8411 H   0  0  0  0  0  0  0  0  0  0  0  0
  140.5914   71.8956  225.3550 H   0  0  0  0  0  0  0  0  0  0  0  0
  140.2904   69.1947  228.6615 H   0  0  0  0  0  0  0  0  0  0  0  0
  139.4913   67.4472  227.1369 H   0  0  0  0  0  0  0  0  0  0  0  0
  140.8938   73.6116  221.1107 H   0  0  0  0  0  0  0  0  0  0  0  0
  142.3662   75.5742  221.5739 H   0  0  0  0  0  0  0  0  0  0  0  0
  142.5047   77.9516  222.3665 H   0  0  0  0  0  0  0  0  0  0  0  0
  138.8761   79.9638  223.5410 H   0  0  0  0  0  0  0  0  0  0  0  0
  137.5676   77.9154  223.0233 H   0  0  0  0  0  0  0  0  0  0  0  0
  1  2  2  0
  2  3  1  0
  3  4  1  0
  4  5  1  0
  5  6  2  0
  5  7  1  0
  7  8  1  0
  8  9  1  0
  9 10  1  0
 10 11  1  0
 11 12  1  0
 12 13  1  0
 13 14  1  0
 14 15  2  0
 15 16  1  0
 16 17  2  0
 17 18  1  0
 17 19  1  0
 19 20  2  0
  2 21  1  0
 21 22  2  0
 22 23  1  0
 23 24  2  0
 24 25  1  0
 25 26  2  0
 26 27  1  0
 26 28  1  0
 28 29  2  0
 29 30  1  0
 30 31  2  0
 11  7  1  0
 20 14  1  0
 31 21  1  0
 30 24  1  0
  3 32  1  0
  4 33  1  0
  4 34  1  0
  8 35  1  0
  8 36  1  0
  9 37  1  0
  9 38  1  0
 10 39  1  0
 10 40  1  0
 11 41  1  1
 12 42  1  0
 12 43  1  0
 15 44  1  0
 16 45  1  0
 19 46  1  0
 20 47  1  0
 22 48  1  0
 23 49  1  0
 25 50  1  0
 28 51  1  0
 29 52  1  0
M  END
>  <smiles>  (10) 
O=C(NCC(=O)N1CCC[C@H]1COc1ccc(Cl)cc1)c1ccc2cc(Cl)ccc2n1

>  <score_type>  (10) 
oracle

>  <origin>  (10) 
autodockgpu

>  <m_score__min__energy>  (10) 
-8.3499999999999996

>  <m_primary>  (10) 
energy

>  <rmsd>  (10) 
7.804615169657634

>  <m_score__min__rmsd>  (10) 
7.804615169657634

>  <meeko>  (10) 
{"free_energy": -7.92, "intermolecular_energy": -10.01, "internal_energy": -1.83, "cluster_size": 8, "cluster_id": 4, "rank_in_cluster": 1}

>  <energy>  (10) 
-7.97

>  <cluster_rmsd>  (10) 
1.3

>  <cluster>  (10) 
2

$$$$

     RDKit          3D

 52 55  0  0  0  0  0  0  0  0999 V2000
  138.1500   76.5630  222.7550 O   0  0  0  0  0  0  0  0  0  0  0  0
  139.1180   76.8180  221.9800 C   0  0  0  0  0  0  0  0  0  0  0  0
  139.2590   78.1240  221.4340 N   0  0  0  0  0  0  0  0  0  0  0  0
  138.3150   79.1770  221.7440 C   0  0  0  0  0  0  0  0  0  0  0  0
  138.9200   80.2190  222.6130 C   0  0  0  0  0  0  0  0  0  0  0  0
  138.1950   81.1450  223.0490 O   0  0  0  0  0  0  0  0  0  0  0  0
  140.3060   80.0980  222.8980 N   0  0  0  0  0  0  0  0  0  0  0  0
  140.9780   79.1470  223.7860 C   0  0  0  0  0  0  0  0  0  0  0  0
  142.2860   79.8360  224.1940 C   0  0  0  0  0  0  0  0  0  0  0  0
  142.1610   81.2070  223.5590 C   0  0  0  0  0  0  0  0  0  0  0  0
  141.3920   80.9460  222.3300 C   0  0  1  0  0  0  0  0  0  0  0  0
  141.9900   80.1590  221.2290 C   0  0  0  0  0  0  0  0  0  0  0  0
  141.2780   79.7830  220.1610 O   0  0  0  0  0  0  0  0  0  0  0  0
  141.2960   78.9500  219.1180 C   0  0  0  0  0  0  0  0  0  0  0  0
  142.5690   78.6160  218.6020 C   0  0  0  0  0  0  0  0  0  0  0  0
  142.7240   77.7730  217.5330 C   0  0  0  0  0  0  0  0  0  0  0  0
  141.6350   77.2130  216.9100 C   0  0  0  0  0  0  0  0  0  0  0  0
  141.7580   76.1300  215.5410 Cl  0  0  0  0  0  0  0  0  0  0  0  0
  140.3790   77.5140  217.3810 C   0  0  0  0  0  0  0  0  0  0  0  0
  140.2410   78.3660  218.4610 C   0  0  0  0  0  0  0  0  0  0  0  0
  140.0900   75.7680  221.6470 C   0  0  0  0  0  0  0  0  0  0  0  0
  139.8150   74.4690  221.9680 C   0  0  0  0  0  0  0  0  0  0  0  0
  140.6970   73.4260  221.6790 C   0  0  0  0  0  0  0  0  0  0  0  0
  141.8830   73.7450  221.0470 C   0  0  0  0  0  0  0  0  0  0  0  0
  142.8340   72.8010  220.7100 C   0  0  0  0  0  0  0  0  0  0  0  0
  144.0050   73.1980  220.0730 C   0  0  0  0  0  0  0  0  0  0  0  0
  145.2350   72.0060  219.6330 Cl  0  0  0  0  0  0  0  0  0  0  0  0
  144.2360   74.5270  219.7710 C   0  0  0  0  0  0  0  0  0  0  0  0
  143.2950   75.4750  220.1030 C   0  0  0  0  0  0  0  0  0  0  0  0
  142.1190   75.0770  220.7400 C   0  0  0  0  0  0  0  0  0  0  0  0
  141.2470   76.0570  221.0330 N   0  0  0  0  0  0  0  0  0  0  0  0
  140.0890   78.2690  220.7940 H   0  0  0  0  0  0  0  0  0  0  0  0
  137.9818   79.6447  220.8058 H   0  0  0  0  0  0  0  0  0  0  0  0
  137.4675   78.7297  222.2841 H   0  0  0  0  0  0  0  0  0  0  0  0
  140.3580   78.9407  224.6709 H   0  0  0  0  0  0  0  0  0  0  0  0
  141.1580   78.1801  223.2934 H   0  0  0  0  0  0  0  0  0  0  0  0
  142.3678   79.9130  225.2883 H   0  0  0  0  0  0  0  0  0  0  0  0
  143.1837   79.2886  223.8709 H   0  0  0  0  0  0  0  0  0  0  0  0
  141.6211   81.8997  224.2214 H   0  0  0  0  0  0  0  0  0  0  0  0
  143.1348   81.6799  223.3636 H   0  0  0  0  0  0  0  0  0  0  0  0
  141.1862   81.9085  221.8389 H   0  0  0  0  0  0  0  0  0  0  0  0
  142.8306   80.7555  220.8448 H   0  0  0  0  0  0  0  0  0  0  0  0
  142.1992   79.1966  221.7189 H   0  0  0  0  0  0  0  0  0  0  0  0
  143.4643   79.0469  219.0741 H   0  0  0  0  0  0  0  0  0  0  0  0
  143.7355   77.5411  217.1681 H   0  0  0  0  0  0  0  0  0  0  0  0
  139.4894   77.0797  216.9015 H   0  0  0  0  0  0  0  0  0  0  0  0
  139.2241   78.5897  218.8157 H   0  0  0  0  0  0  0  0  0  0  0  0
  138.8652   74.2366  222.4719 H   0  0  0  0  0  0  0  0  0  0  0  0
  140.4558   72.3864  221.9454 H   0  0  0  0  0  0  0  0  0  0  0  0
  142.6657   71.7396  220.9446 H   0  0  0  0  0  0  0  0  0  0  0  0
  145.1674   74.8255  219.2677 H   0  0  0  0  0  0  0  0  0  0  0  0
  143.4682   76.5357  219.8685 H   0  0  0  0  0  0  0  0  0  0  0  0
  1  2  2  0
  2  3  1  0
  3  4  1  0
  4  5  1  0
  5  6  2  0
  5  7  1  0
  7  8  1  0
  8  9  1  0
  9 10  1  0
 10 11  1  0
 11 12  1  0
 12 13  1  0
 13 14  1  0
 14 15  2  0
 15 16  1  0
 16 17  2  0
 17 18  1  0
 17 19  1  0
 19 20  2  0
  2 21  1  0
 21 22  2  0
 22 23  1  0
 23 24  2  0
 24 25  1  0
 25 26  2  0
 26 27  1  0
 26 28  1  0
 28 29  2  0
 29 30  1  0
 30 31  2  0
 11  7  1  0
 20 14  1  0
 31 21  1  0
 30 24  1  0
  3 32  1  0
  4 33  1  0
  4 34  1  0
  8 35  1  0
  8 36  1  0
  9 37  1  0
  9 38  1  0
 10 39  1  0
 10 40  1  0
 11 41  1  6
 12 42  1  0
 12 43  1  0
 15 44  1  0
 16 45  1  0
 19 46  1  0
 20 47  1  0
 22 48  1  0
 23 49  1  0
 25 50  1  0
 28 51  1  0
 29 52  1  0
M  END
>  <smiles>  (11) 
O=C(NCC(=O)N1CCC[C@H]1COc1ccc(Cl)cc1)c1ccc2cc(Cl)ccc2n1

>  <score_type>  (11) 
oracle

>  <origin>  (11) 
autodockgpu

>  <m_score__min__energy>  (11) 
-8.3499999999999996

>  <m_primary>  (11) 
energy

>  <rmsd>  (11) 
6.875720630927662

>  <m_score__min__rmsd>  (11) 
6.875720630927662

>  <meeko>  (11) 
{"free_energy": -5.47, "intermolecular_energy": -7.56, "internal_energy": -3.76, "cluster_size": 1, "cluster_id": 14, "rank_in_cluster": 1}

>  <energy>  (11) 
-7.86

>  <cluster_rmsd>  (11) 
1.15

>  <cluster>  (11) 
2

$$$$

     RDKit          3D

 52 55  0  0  0  0  0  0  0  0999 V2000
  139.9680   73.7000  222.3430 O   0  0  0  0  0  0  0  0  0  0  0  0
  140.1610   74.7140  221.6100 C   0  0  0  0  0  0  0  0  0  0  0  0
  140.6540   74.5430  220.2860 N   0  0  0  0  0  0  0  0  0  0  0  0
  140.9430   73.2280  219.7530 C   0  0  0  0  0  0  0  0  0  0  0  0
  142.1390   72.6250  220.3940 C   0  0  0  0  0  0  0  0  0  0  0  0
  141.9840   71.6790  221.2030 O   0  0  0  0  0  0  0  0  0  0  0  0
  143.4030   73.1690  220.0450 N   0  0  0  0  0  0  0  0  0  0  0  0
  144.4620   72.5730  219.2280 C   0  0  0  0  0  0  0  0  0  0  0  0
  145.7550   73.2550  219.6890 C   0  0  0  0  0  0  0  0  0  0  0  0
  145.2910   74.1200  220.8440 C   0  0  0  0  0  0  0  0  0  0  0  0
  143.9230   74.5030  220.4560 C   0  0  1  0  0  0  0  0  0  0  0  0
  143.7010   75.4010  219.3010 C   0  0  0  0  0  0  0  0  0  0  0  0
  142.7240   76.3160  219.2940 O   0  0  0  0  0  0  0  0  0  0  0  0
  142.4860   77.6060  219.0450 C   0  0  0  0  0  0  0  0  0  0  0  0
  141.8010   78.3240  220.0520 C   0  0  0  0  0  0  0  0  0  0  0  0
  141.4920   79.6520  219.9190 C   0  0  0  0  0  0  0  0  0  0  0  0
  141.8400   80.3480  218.7860 C   0  0  0  0  0  0  0  0  0  0  0  0
  141.4790   82.0440  218.5480 Cl  0  0  0  0  0  0  0  0  0  0  0  0
  142.5060   79.6860  217.7840 C   0  0  0  0  0  0  0  0  0  0  0  0
  142.8090   78.3450  217.9340 C   0  0  0  0  0  0  0  0  0  0  0  0
  139.8780   76.0600  222.1260 C   0  0  0  0  0  0  0  0  0  0  0  0
  140.9060   76.8430  222.5660 C   0  0  0  0  0  0  0  0  0  0  0  0
  140.7020   78.1300  223.0680 C   0  0  0  0  0  0  0  0  0  0  0  0
  139.4060   78.6040  223.1110 C   0  0  0  0  0  0  0  0  0  0  0  0
  139.0790   79.8600  223.5860 C   0  0  0  0  0  0  0  0  0  0  0  0
  137.7500   80.2690  223.5990 C   0  0  0  0  0  0  0  0  0  0  0  0
  137.3100   81.8710  224.2030 Cl  0  0  0  0  0  0  0  0  0  0  0  0
  136.7450   79.4360  223.1430 C   0  0  0  0  0  0  0  0  0  0  0  0
  137.0600   78.1830  222.6680 C   0  0  0  0  0  0  0  0  0  0  0  0
  138.3940   77.7740  222.6550 C   0  0  0  0  0  0  0  0  0  0  0  0
  138.6250   76.5380  222.1770 N   0  0  0  0  0  0  0  0  0  0  0  0
  140.7940   75.4310  219.7280 H   0  0  0  0  0  0  0  0  0  0  0  0
  140.0764   72.5738  219.9293 H   0  0  0  0  0  0  0  0  0  0  0  0
  141.1469   73.3319  218.6771 H   0  0  0  0  0  0  0  0  0  0  0  0
  144.5162   71.4876  219.3982 H   0  0  0  0  0  0  0  0  0  0  0  0
  144.2820   72.7160  218.1523 H   0  0  0  0  0  0  0  0  0  0  0  0
  146.4957   72.5135  220.0230 H   0  0  0  0  0  0  0  0  0  0  0  0
  146.2517   73.8268  218.8913 H   0  0  0  0  0  0  0  0  0  0  0  0
  145.2883   73.5511  221.7855 H   0  0  0  0  0  0  0  0  0  0  0  0
  145.9453   74.9863  221.0215 H   0  0  0  0  0  0  0  0  0  0  0  0
  143.4752   75.0747  221.2822 H   0  0  0  0  0  0  0  0  0  0  0  0
  144.6413   75.9527  219.1541 H   0  0  0  0  0  0  0  0  0  0  0  0
  143.3674   74.6994  218.5223 H   0  0  0  0  0  0  0  0  0  0  0  0
  141.5064   77.7990  220.9727 H   0  0  0  0  0  0  0  0  0  0  0  0
  140.9580   80.1685  220.7302 H   0  0  0  0  0  0  0  0  0  0  0  0
  142.7969   80.2194  216.8670 H   0  0  0  0  0  0  0  0  0  0  0  0
  143.3407   77.8402  217.1140 H   0  0  0  0  0  0  0  0  0  0  0  0
  141.9311   76.4462  222.5236 H   0  0  0  0  0  0  0  0  0  0  0  0
  141.5447   78.7448  223.4171 H   0  0  0  0  0  0  0  0  0  0  0  0
  139.8674   80.5339  223.9525 H   0  0  0  0  0  0  0  0  0  0  0  0
  135.6981   79.7732  223.1598 H   0  0  0  0  0  0  0  0  0  0  0  0
  136.2689   77.5116  222.3027 H   0  0  0  0  0  0  0  0  0  0  0  0
  1  2  2  0
  2  3  1  0
  3  4  1  0
  4  5  1  0
  5  6  2  0
  5  7  1  0
  7  8  1  0
  8  9  1  0
  9 10  1  0
 10 11  1  0
 11 12  1  0
 12 13  1  0
 13 14  1  0
 14 15  2  0
 15 16  1  0
 16 17  2  0
 17 18  1  0
 17 19  1  0
 19 20  2  0
  2 21  1  0
 21 22  2  0
 22 23  1  0
 23 24  2  0
 24 25  1  0
 25 26  2  0
 26 27  1  0
 26 28  1  0
 28 29  2  0
 29 30  1  0
 30 31  2  0
 11  7  1  0
 20 14  1  0
 31 21  1  0
 30 24  1  0
  3 32  1  0
  4 33  1  0
  4 34  1  0
  8 35  1  0
  8 36  1  0
  9 37  1  0
  9 38  1  0
 10 39  1  0
 10 40  1  0
 11 41  1  1
 12 42  1  0
 12 43  1  0
 15 44  1  0
 16 45  1  0
 19 46  1  0
 20 47  1  0
 22 48  1  0
 23 49  1  0
 25 50  1  0
 28 51  1  0
 29 52  1  0
M  END
>  <smiles>  (12) 
O=C(NCC(=O)N1CCC[C@H]1COc1ccc(Cl)cc1)c1ccc2cc(Cl)ccc2n1

>  <score_type>  (12) 
oracle

>  <origin>  (12) 
autodockgpu

>  <m_score__min__energy>  (12) 
-8.3499999999999996

>  <m_primary>  (12) 
energy

>  <rmsd>  (12) 
7.38026610352249

>  <m_score__min__rmsd>  (12) 
7.38026610352249

>  <meeko>  (12) 
{"free_energy": -6.57, "intermolecular_energy": -8.65, "internal_energy": -2.81, "cluster_size": 1, "cluster_id": 13, "rank_in_cluster": 1}

>  <energy>  (12) 
-7.29

>  <cluster_rmsd>  (12) 
1.46

>  <cluster>  (12) 
2

$$$$

     RDKit          3D

 52 55  0  0  0  0  0  0  0  0999 V2000
  141.7860   72.8050  220.8960 O   0  0  0  0  0  0  0  0  0  0  0  0
  140.9630   73.5470  221.5080 C   0  0  0  0  0  0  0  0  0  0  0  0
  139.9070   72.9580  222.2580 N   0  0  0  0  0  0  0  0  0  0  0  0
  139.7480   71.5210  222.3370 C   0  0  0  0  0  0  0  0  0  0  0  0
  138.3420   71.1380  222.6270 C   0  0  0  0  0  0  0  0  0  0  0  0
  137.5950   71.9600  223.2090 O   0  0  0  0  0  0  0  0  0  0  0  0
  137.9290   69.8410  222.2210 N   0  0  0  0  0  0  0  0  0  0  0  0
  137.9410   69.2560  220.8790 C   0  0  0  0  0  0  0  0  0  0  0  0
  136.8600   68.1680  220.9070 C   0  0  0  0  0  0  0  0  0  0  0  0
  136.2470   68.3330  222.2830 C   0  0  0  0  0  0  0  0  0  0  0  0
  137.3800   68.7810  223.1110 C   0  0  1  0  0  0  0  0  0  0  0  0
  138.5050   67.8620  223.3930 C   0  0  0  0  0  0  0  0  0  0  0  0
  139.1790   67.9040  224.5480 O   0  0  0  0  0  0  0  0  0  0  0  0
  139.6410   68.7480  225.4730 C   0  0  0  0  0  0  0  0  0  0  0  0
  140.2240   69.9450  224.9970 C   0  0  0  0  0  0  0  0  0  0  0  0
  140.7370   70.8930  225.8430 C   0  0  0  0  0  0  0  0  0  0  0  0
  140.7060   70.7150  227.2060 C   0  0  0  0  0  0  0  0  0  0  0  0
  141.3410   71.8820  228.3450 Cl  0  0  0  0  0  0  0  0  0  0  0  0
  140.1480   69.5650  227.7080 C   0  0  0  0  0  0  0  0  0  0  0  0
  139.6350   68.6180  226.8400 C   0  0  0  0  0  0  0  0  0  0  0  0
  141.1000   75.0080  221.4440 C   0  0  0  0  0  0  0  0  0  0  0  0
  141.9680   75.5650  220.5490 C   0  0  0  0  0  0  0  0  0  0  0  0
  142.1430   76.9450  220.4380 C   0  0  0  0  0  0  0  0  0  0  0  0
  141.4010   77.7560  221.2760 C   0  0  0  0  0  0  0  0  0  0  0  0
  141.4870   79.1340  221.2610 C   0  0  0  0  0  0  0  0  0  0  0  0
  140.7080   79.8850  222.1340 C   0  0  0  0  0  0  0  0  0  0  0  0
  140.8030   81.6500  222.1320 Cl  0  0  0  0  0  0  0  0  0  0  0  0
  139.8440   79.2710  223.0230 C   0  0  0  0  0  0  0  0  0  0  0  0
  139.7510   77.8980  223.0460 C   0  0  0  0  0  0  0  0  0  0  0  0
  140.5330   77.1460  222.1690 C   0  0  0  0  0  0  0  0  0  0  0  0
  140.3880   75.8110  222.2490 N   0  0  0  0  0  0  0  0  0  0  0  0
  139.2540   73.6340  222.7440 H   0  0  0  0  0  0  0  0  0  0  0  0
  140.0477   71.0760  221.3767 H   0  0  0  0  0  0  0  0  0  0  0  0
  140.3801   71.1510  223.1578 H   0  0  0  0  0  0  0  0  0  0  0  0
  137.7017   70.0186  220.1232 H   0  0  0  0  0  0  0  0  0  0  0  0
  138.9284   68.8489  220.6159 H   0  0  0  0  0  0  0  0  0  0  0  0
  136.1115   68.3338  220.1181 H   0  0  0  0  0  0  0  0  0  0  0  0
  137.2565   67.1578  220.7270 H   0  0  0  0  0  0  0  0  0  0  0  0
  135.4469   69.0878  222.2694 H   0  0  0  0  0  0  0  0  0  0  0  0
  135.7798   67.4105  222.6581 H   0  0  0  0  0  0  0  0  0  0  0  0
  137.0051   69.0032  224.1210 H   0  0  0  0  0  0  0  0  0  0  0  0
  138.0993   66.8430  223.3094 H   0  0  0  0  0  0  0  0  0  0  0  0
  139.2636   68.1944  222.6691 H   0  0  0  0  0  0  0  0  0  0  0  0
  140.2671   70.1209  223.9120 H   0  0  0  0  0  0  0  0  0  0  0  0
  141.1799   71.8094  225.4258 H   0  0  0  0  0  0  0  0  0  0  0  0
  140.1092   69.3978  228.7945 H   0  0  0  0  0  0  0  0  0  0  0  0
  139.1959   67.7060  227.2706 H   0  0  0  0  0  0  0  0  0  0  0  0
  142.5501   74.9021  219.8920 H   0  0  0  0  0  0  0  0  0  0  0  0
  142.8470   77.3726  219.7089 H   0  0  0  0  0  0  0  0  0  0  0  0
  142.1701   79.6363  220.5602 H   0  0  0  0  0  0  0  0  0  0  0  0
  139.2339   79.8775  223.7085 H   0  0  0  0  0  0  0  0  0  0  0  0
  139.0673   77.3989  223.7485 H   0  0  0  0  0  0  0  0  0  0  0  0
  1  2  2  0
  2  3  1  0
  3  4  1  0
  4  5  1  0
  5  6  2  0
  5  7  1  0
  7  8  1  0
  8  9  1  0
  9 10  1  0
 10 11  1  0
 11 12  1  0
 12 13  1  0
 13 14  1  0
 14 15  2  0
 15 16  1  0
 16 17  2  0
 17 18  1  0
 17 19  1  0
 19 20  2  0
  2 21  1  0
 21 22  2  0
 22 23  1  0
 23 24  2  0
 24 25  1  0
 25 26  2  0
 26 27  1  0
 26 28  1  0
 28 29  2  0
 29 30  1  0
 30 31  2  0
 11  7  1  0
 20 14  1  0
 31 21  1  0
 30 24  1  0
  3 32  1  0
  4 33  1  0
  4 34  1  0
  8 35  1  0
  8 36  1  0
  9 37  1  0
  9 38  1  0
 10 39  1  0
 10 40  1  0
 11 41  1  1
 12 42  1  0
 12 43  1  0
 15 44  1  0
 16 45  1  0
 19 46  1  0
 20 47  1  0
 22 48  1  0
 23 49  1  0
 25 50  1  0
 28 51  1  0
 29 52  1  0
M  END
>  <smiles>  (13) 
O=C(NCC(=O)N1CCC[C@H]1COc1ccc(Cl)cc1)c1ccc2cc(Cl)ccc2n1

>  <score_type>  (13) 
oracle

>  <origin>  (13) 
autodockgpu

>  <m_score__min__energy>  (13) 
-8.3499999999999996

>  <m_primary>  (13) 
energy

>  <rmsd>  (13) 
8.167129188623043

>  <m_score__min__rmsd>  (13) 
8.167129188623043

>  <meeko>  (13) 
{"free_energy": -7.8, "intermolecular_energy": -9.89, "internal_energy": -2.14, "cluster_size": 8, "cluster_id": 4, "rank_in_cluster": 3}

>  <energy>  (13) 
-7.15

>  <cluster_rmsd>  (13) 
0.84

>  <cluster>  (13) 
2

$$$$

     RDKit          3D

 52 55  0  0  0  0  0  0  0  0999 V2000
  138.0250   75.7000  222.6690 O   0  0  0  0  0  0  0  0  0  0  0  0
  139.1270   76.1230  222.2130 C   0  0  0  0  0  0  0  0  0  0  0  0
  139.3670   77.5230  222.1370 N   0  0  0  0  0  0  0  0  0  0  0  0
  138.3750   78.4840  222.5700 C   0  0  0  0  0  0  0  0  0  0  0  0
  138.9720   79.8230  222.8070 C   0  0  0  0  0  0  0  0  0  0  0  0
  138.2140   80.8130  222.9400 O   0  0  0  0  0  0  0  0  0  0  0  0
  140.3890   79.8970  222.8660 N   0  0  0  0  0  0  0  0  0  0  0  0
  141.3200   79.0340  223.5960 C   0  0  0  0  0  0  0  0  0  0  0  0
  142.5680   79.8960  223.8240 C   0  0  0  0  0  0  0  0  0  0  0  0
  142.1540   81.2470  223.2790 C   0  0  0  0  0  0  0  0  0  0  0  0
  141.2410   80.9050  222.1750 C   0  0  1  0  0  0  0  0  0  0  0  0
  141.7580   80.2370  220.9600 C   0  0  0  0  0  0  0  0  0  0  0  0
  141.1550   79.1660  220.4310 O   0  0  0  0  0  0  0  0  0  0  0  0
  141.2940   78.2340  219.4860 C   0  0  0  0  0  0  0  0  0  0  0  0
  142.5570   78.1600  218.8550 C   0  0  0  0  0  0  0  0  0  0  0  0
  142.8270   77.2500  217.8680 C   0  0  0  0  0  0  0  0  0  0  0  0
  141.8690   76.3610  217.4450 C   0  0  0  0  0  0  0  0  0  0  0  0
  142.1440   75.1720  216.1900 Cl  0  0  0  0  0  0  0  0  0  0  0  0
  140.6270   76.4000  218.0320 C   0  0  0  0  0  0  0  0  0  0  0  0
  140.3710   77.3260  219.0260 C   0  0  0  0  0  0  0  0  0  0  0  0
  140.1520   75.1710  221.7650 C   0  0  0  0  0  0  0  0  0  0  0  0
  139.9220   73.8300  221.8780 C   0  0  0  0  0  0  0  0  0  0  0  0
  140.8550   72.8750  221.4710 C   0  0  0  0  0  0  0  0  0  0  0  0
  142.0460   73.3270  220.9380 C   0  0  0  0  0  0  0  0  0  0  0  0
  143.0450   72.4800  220.5000 C   0  0  0  0  0  0  0  0  0  0  0  0
  144.2190   73.0100  219.9740 C   0  0  0  0  0  0  0  0  0  0  0  0
  145.5100   71.9440  219.4090 Cl  0  0  0  0  0  0  0  0  0  0  0  0
  144.4040   74.3770  219.8830 C   0  0  0  0  0  0  0  0  0  0  0  0
  143.4140   75.2300  220.3160 C   0  0  0  0  0  0  0  0  0  0  0  0
  142.2360   74.6980  220.8430 C   0  0  0  0  0  0  0  0  0  0  0  0
  141.3150   75.5910  221.2450 N   0  0  0  0  0  0  0  0  0  0  0  0
  140.3080   77.8090  221.7450 H   0  0  0  0  0  0  0  0  0  0  0  0
  137.6010   78.5715  221.7933 H   0  0  0  0  0  0  0  0  0  0  0  0
  137.9449   78.1284  223.5179 H   0  0  0  0  0  0  0  0  0  0  0  0
  140.8850   78.7223  224.5570 H   0  0  0  0  0  0  0  0  0  0  0  0
  141.5508   78.1132  223.0402 H   0  0  0  0  0  0  0  0  0  0  0  0
  142.8140   79.9601  224.8942 H   0  0  0  0  0  0  0  0  0  0  0  0
  143.4687   79.4910  223.3395 H   0  0  0  0  0  0  0  0  0  0  0  0
  141.6370   81.8399  224.0479 H   0  0  0  0  0  0  0  0  0  0  0  0
  143.0085   81.8595  222.9553 H   0  0  0  0  0  0  0  0  0  0  0  0
  140.8269   81.8385  221.7662 H   0  0  0  0  0  0  0  0  0  0  0  0
  141.7747   81.0028  220.1705 H   0  0  0  0  0  0  0  0  0  0  0  0
  142.7103   79.8157  221.3143 H   0  0  0  0  0  0  0  0  0  0  0  0
  143.3491   78.8565  219.1672 H   0  0  0  0  0  0  0  0  0  0  0  0
  143.8256   77.2306  217.4071 H   0  0  0  0  0  0  0  0  0  0  0  0
  139.8417   75.6989  217.7130 H   0  0  0  0  0  0  0  0  0  0  0  0
  139.3673   77.3366  219.4761 H   0  0  0  0  0  0  0  0  0  0  0  0
  138.9671   73.4900  222.3052 H   0  0  0  0  0  0  0  0  0  0  0  0
  140.6486   71.7992  221.5714 H   0  0  0  0  0  0  0  0  0  0  0  0
  142.9130   71.3900  220.5668 H   0  0  0  0  0  0  0  0  0  0  0  0
  145.3383   74.7814  219.4664 H   0  0  0  0  0  0  0  0  0  0  0  0
  143.5498   76.3194  220.2474 H   0  0  0  0  0  0  0  0  0  0  0  0
  1  2  2  0
  2  3  1  0
  3  4  1  0
  4  5  1  0
  5  6  2  0
  5  7  1  0
  7  8  1  0
  8  9  1  0
  9 10  1  0
 10 11  1  0
 11 12  1  0
 12 13  1  0
 13 14  1  0
 14 15  2  0
 15 16  1  0
 16 17  2  0
 17 18  1  0
 17 19  1  0
 19 20  2  0
  2 21  1  0
 21 22  2  0
 22 23  1  0
 23 24  2  0
 24 25  1  0
 25 26  2  0
 26 27  1  0
 26 28  1  0
 28 29  2  0
 29 30  1  0
 30 31  2  0
 11  7  1  0
 20 14  1  0
 31 21  1  0
 30 24  1  0
  3 32  1  0
  4 33  1  0
  4 34  1  0
  8 35  1  0
  8 36  1  0
  9 37  1  0
  9 38  1  0
 10 39  1  0
 10 40  1  0
 11 41  1  6
 12 42  1  0
 12 43  1  0
 15 44  1  0
 16 45  1  0
 19 46  1  0
 20 47  1  0
 22 48  1  0
 23 49  1  0
 25 50  1  0
 28 51  1  0
 29 52  1  0
M  END
>  <smiles>  (14) 
O=C(NCC(=O)N1CCC[C@H]1COc1ccc(Cl)cc1)c1ccc2cc(Cl)ccc2n1

>  <score_type>  (14) 
oracle

>  <origin>  (14) 
autodockgpu

>  <m_score__min__energy>  (14) 
-8.3499999999999996

>  <m_primary>  (14) 
energy

>  <rmsd>  (14) 
6.623636986622374

>  <m_score__min__rmsd>  (14) 
6.623636986622374

>  <meeko>  (14) 
{"free_energy": -5.72, "intermolecular_energy": -7.81, "internal_energy": -3.96, "cluster_size": 8, "cluster_id": 11, "rank_in_cluster": 6}

>  <energy>  (14) 
-7.13

>  <cluster_rmsd>  (14) 
1.13

>  <cluster>  (14) 
2

$$$$

     RDKit          3D

 52 55  0  0  0  0  0  0  0  0999 V2000
  134.2990   69.3890  225.9520 O   0  0  0  0  0  0  0  0  0  0  0  0
  134.5780   70.5710  225.5930 C   0  0  0  0  0  0  0  0  0  0  0  0
  135.6120   70.7920  224.6420 N   0  0  0  0  0  0  0  0  0  0  0  0
  136.3600   69.6920  224.0700 C   0  0  0  0  0  0  0  0  0  0  0  0
  137.1420   70.1180  222.8800 C   0  0  0  0  0  0  0  0  0  0  0  0
  137.1580   71.3320  222.5660 O   0  0  0  0  0  0  0  0  0  0  0  0
  137.8320   69.1040  222.1640 N   0  0  0  0  0  0  0  0  0  0  0  0
  138.8010   69.2510  221.0760 C   0  0  0  0  0  0  0  0  0  0  0  0
  138.7280   67.9330  220.2950 C   0  0  0  0  0  0  0  0  0  0  0  0
  137.5980   67.1920  220.9820 C   0  0  0  0  0  0  0  0  0  0  0  0
  137.7000   67.6370  222.3830 C   0  0  1  0  0  0  0  0  0  0  0  0
  138.8640   67.2420  223.2080 C   0  0  0  0  0  0  0  0  0  0  0  0
  139.0090   67.6590  224.4700 O   0  0  0  0  0  0  0  0  0  0  0  0
  139.4830   68.6700  225.2020 C   0  0  0  0  0  0  0  0  0  0  0  0
  139.6270   68.4300  226.5880 C   0  0  0  0  0  0  0  0  0  0  0  0
  140.0990   69.3860  227.4480 C   0  0  0  0  0  0  0  0  0  0  0  0
  140.4570   70.6320  226.9930 C   0  0  0  0  0  0  0  0  0  0  0  0
  141.0670   71.9000  228.0330 Cl  0  0  0  0  0  0  0  0  0  0  0  0
  140.3310   70.9060  225.6520 C   0  0  0  0  0  0  0  0  0  0  0  0
  139.8520   69.9300  224.7980 C   0  0  0  0  0  0  0  0  0  0  0  0
  133.8360   71.7060  226.1580 C   0  0  0  0  0  0  0  0  0  0  0  0
  132.7380   71.4730  226.9350 C   0  0  0  0  0  0  0  0  0  0  0  0
  131.9910   72.5080  227.5000 C   0  0  0  0  0  0  0  0  0  0  0  0
  132.3970   73.8040  227.2500 C   0  0  0  0  0  0  0  0  0  0  0  0
  131.7400   74.9100  227.7540 C   0  0  0  0  0  0  0  0  0  0  0  0
  132.2080   76.1860  227.4590 C   0  0  0  0  0  0  0  0  0  0  0  0
  131.3820   77.6140  228.0920 Cl  0  0  0  0  0  0  0  0  0  0  0  0
  133.3260   76.3670  226.6650 C   0  0  0  0  0  0  0  0  0  0  0  0
  133.9880   75.2720  226.1590 C   0  0  0  0  0  0  0  0  0  0  0  0
  133.5180   73.9920  226.4560 C   0  0  0  0  0  0  0  0  0  0  0  0
  134.2150   72.9720  225.9260 N   0  0  0  0  0  0  0  0  0  0  0  0
  135.7950   71.8030  224.3860 H   0  0  0  0  0  0  0  0  0  0  0  0
  137.0522   69.2988  224.8292 H   0  0  0  0  0  0  0  0  0  0  0  0
  135.6442   68.9201  223.7512 H   0  0  0  0  0  0  0  0  0  0  0  0
  138.5299   70.0986  220.4294 H   0  0  0  0  0  0  0  0  0  0  0  0
  139.8152   69.4518  221.4517 H   0  0  0  0  0  0  0  0  0  0  0  0
  138.4955   68.1138  219.2352 H   0  0  0  0  0  0  0  0  0  0  0  0
  139.6761   67.3752  220.2961 H   0  0  0  0  0  0  0  0  0  0  0  0
  136.6252   67.4702  220.5505 H   0  0  0  0  0  0  0  0  0  0  0  0
  137.6710   66.1000  220.8718 H   0  0  0  0  0  0  0  0  0  0  0  0
  136.8606   67.2032  222.9462 H   0  0  0  0  0  0  0  0  0  0  0  0
  138.8569   66.1427  223.2452 H   0  0  0  0  0  0  0  0  0  0  0  0
  139.6942   67.7524  222.6979 H   0  0  0  0  0  0  0  0  0  0  0  0
  139.3510   67.4434  226.9887 H   0  0  0  0  0  0  0  0  0  0  0  0
  140.1928   69.1527  228.5189 H   0  0  0  0  0  0  0  0  0  0  0  0
  140.6095   71.8956  225.2607 H   0  0  0  0  0  0  0  0  0  0  0  0
  139.7608   70.1775  223.7301 H   0  0  0  0  0  0  0  0  0  0  0  0
  132.4312   70.4334  227.1224 H   0  0  0  0  0  0  0  0  0  0  0  0
  131.1090   72.2984  228.1231 H   0  0  0  0  0  0  0  0  0  0  0  0
  130.8494   74.7817  228.3867 H   0  0  0  0  0  0  0  0  0  0  0  0
  133.6844   77.3821  226.4390 H   0  0  0  0  0  0  0  0  0  0  0  0
  134.8785   75.4042  225.5269 H   0  0  0  0  0  0  0  0  0  0  0  0
  1  2  2  0
  2  3  1  0
  3  4  1  0
  4  5  1  0
  5  6  2  0
  5  7  1  0
  7  8  1  0
  8  9  1  0
  9 10  1  0
 10 11  1  0
 11 12  1  0
 12 13  1  0
 13 14  1  0
 14 15  2  0
 15 16  1  0
 16 17  2  0
 17 18  1  0
 17 19  1  0
 19 20  2  0
  2 21  1  0
 21 22  2  0
 22 23  1  0
 23 24  2  0
 24 25  1  0
 25 26  2  0
 26 27  1  0
 26 28  1  0
 28 29  2  0
 29 30  1  0
 30 31  2  0
 11  7  1  0
 20 14  1  0
 31 21  1  0
 30 24  1  0
  3 32  1  0
  4 33  1  0
  4 34  1  0
  8 35  1  0
  8 36  1  0
  9 37  1  0
  9 38  1  0
 10 39  1  0
 10 40  1  0
 11 41  1  1
 12 42  1  0
 12 43  1  0
 15 44  1  0
 16 45  1  0
 19 46  1  0
 20 47  1  0
 22 48  1  0
 23 49  1  0
 25 50  1  0
 28 51  1  0
 29 52  1  0
M  END
>  <smiles>  (15) 
O=C(NCC(=O)N1CCC[C@H]1COc1ccc(Cl)cc1)c1ccc2cc(Cl)ccc2n1

>  <score_type>  (15) 
oracle

>  <origin>  (15) 
autodockgpu

>  <m_score__min__energy>  (15) 
-8.3499999999999996

>  <m_primary>  (15) 
energy

>  <rmsd>  (15) 
8.253916430128038

>  <m_score__min__rmsd>  (15) 
8.253916430128038

>  <meeko>  (15) 
{"free_energy": -7.77, "intermolecular_energy": -9.86, "internal_energy": -2.43, "cluster_size": 3, "cluster_id": 3, "rank_in_cluster": 2}

>  <energy>  (15) 
-8.0

>  <cluster_rmsd>  (15) 
0.0

>  <cluster>  (15) 
3

$$$$

     RDKit          3D

 52 55  0  0  0  0  0  0  0  0999 V2000
  135.9130   75.6430  221.1570 O   0  0  0  0  0  0  0  0  0  0  0  0
  136.9220   75.5120  221.9100 C   0  0  0  0  0  0  0  0  0  0  0  0
  137.2980   74.2170  222.3650 N   0  0  0  0  0  0  0  0  0  0  0  0
  136.5490   73.0370  221.9850 C   0  0  0  0  0  0  0  0  0  0  0  0
  137.4290   71.8500  221.8410 C   0  0  0  0  0  0  0  0  0  0  0  0
  136.9820   70.7190  222.1470 O   0  0  0  0  0  0  0  0  0  0  0  0
  138.7460   72.0760  221.3580 N   0  0  0  0  0  0  0  0  0  0  0  0
  139.1920   73.0100  220.3230 C   0  0  0  0  0  0  0  0  0  0  0  0
  140.4990   72.4160  219.7840 C   0  0  0  0  0  0  0  0  0  0  0  0
  140.6020   71.0960  220.5210 C   0  0  0  0  0  0  0  0  0  0  0  0
  139.9790   71.3820  221.8250 C   0  0  1  0  0  0  0  0  0  0  0  0
  140.6330   72.3090  222.7760 C   0  0  0  0  0  0  0  0  0  0  0  0
  140.4850   72.1840  224.0990 O   0  0  0  0  0  0  0  0  0  0  0  0
  140.5090   71.2850  225.0860 C   0  0  0  0  0  0  0  0  0  0  0  0
  140.9800   71.7390  226.3390 C   0  0  0  0  0  0  0  0  0  0  0  0
  141.0560   70.9150  227.4310 C   0  0  0  0  0  0  0  0  0  0  0  0
  140.6750   69.5970  227.3500 C   0  0  0  0  0  0  0  0  0  0  0  0
  140.7460   68.4880  228.7020 Cl  0  0  0  0  0  0  0  0  0  0  0  0
  140.2130   69.1160  226.1490 C   0  0  0  0  0  0  0  0  0  0  0  0
  140.1420   69.9620  225.0570 C   0  0  0  0  0  0  0  0  0  0  0  0
  137.6990   76.6920  222.3120 C   0  0  0  0  0  0  0  0  0  0  0  0
  137.0490   77.8410  222.6580 C   0  0  0  0  0  0  0  0  0  0  0  0
  137.7300   78.9960  223.0490 C   0  0  0  0  0  0  0  0  0  0  0  0
  139.1100   78.9480  223.0770 C   0  0  0  0  0  0  0  0  0  0  0  0
  139.8930   80.0250  223.4460 C   0  0  0  0  0  0  0  0  0  0  0  0
  141.2780   79.9020  223.4510 C   0  0  0  0  0  0  0  0  0  0  0  0
  142.2990   81.2670  223.9190 Cl  0  0  0  0  0  0  0  0  0  0  0  0
  141.8890   78.7150  223.0900 C   0  0  0  0  0  0  0  0  0  0  0  0
  141.1170   77.6360  222.7210 C   0  0  0  0  0  0  0  0  0  0  0  0
  139.7270   77.7600  222.7170 C   0  0  0  0  0  0  0  0  0  0  0  0
  139.0400   76.6650  222.3460 N   0  0  0  0  0  0  0  0  0  0  0  0
  138.1490   74.1770  222.9920 H   0  0  0  0  0  0  0  0  0  0  0  0
  135.7945   72.8296  222.7581 H   0  0  0  0  0  0  0  0  0  0  0  0
  136.0739   73.2313  221.0121 H   0  0  0  0  0  0  0  0  0  0  0  0
  138.4424   73.0846  219.5214 H   0  0  0  0  0  0  0  0  0  0  0  0
  139.3341   74.0264  220.7190 H   0  0  0  0  0  0  0  0  0  0  0  0
  140.4431   72.2586  218.6968 H   0  0  0  0  0  0  0  0  0  0  0  0
  141.3697   73.0696  219.9410 H   0  0  0  0  0  0  0  0  0  0  0  0
  140.0544   70.3044  219.9886 H   0  0  0  0  0  0  0  0  0  0  0  0
  141.6370   70.7342  220.6102 H   0  0  0  0  0  0  0  0  0  0  0  0
  139.9404   70.4475  222.4039 H   0  0  0  0  0  0  0  0  0  0  0  0
  141.7131   72.2420  222.5787 H   0  0  0  0  0  0  0  0  0  0  0  0
  140.1120   73.2562  222.5725 H   0  0  0  0  0  0  0  0  0  0  0  0
  141.2957   72.7878  226.4407 H   0  0  0  0  0  0  0  0  0  0  0  0
  141.4273   71.3141  228.3864 H   0  0  0  0  0  0  0  0  0  0  0  0
  139.9016   68.0651  226.0564 H   0  0  0  0  0  0  0  0  0  0  0  0
  139.7689   69.5501  224.1077 H   0  0  0  0  0  0  0  0  0  0  0  0
  135.9495   77.8581  222.6279 H   0  0  0  0  0  0  0  0  0  0  0  0
  137.1864   79.9116  223.3249 H   0  0  0  0  0  0  0  0  0  0  0  0
  139.4223   80.9764  223.7348 H   0  0  0  0  0  0  0  0  0  0  0  0
  142.9859   78.6332  223.0976 H   0  0  0  0  0  0  0  0  0  0  0  0
  141.5910   76.6863  222.4324 H   0  0  0  0  0  0  0  0  0  0  0  0
  1  2  2  0
  2  3  1  0
  3  4  1  0
  4  5  1  0
  5  6  2  0
  5  7  1  0
  7  8  1  0
  8  9  1  0
  9 10  1  0
 10 11  1  0
 11 12  1  0
 12 13  1  0
 13 14  1  0
 14 15  2  0
 15 16  1  0
 16 17  2  0
 17 18  1  0
 17 19  1  0
 19 20  2  0
  2 21  1  0
 21 22  2  0
 22 23  1  0
 23 24  2  0
 24 25  1  0
 25 26  2  0
 26 27  1  0
 26 28  1  0
 28 29  2  0
 29 30  1  0
 30 31  2  0
 11  7  1  0
 20 14  1  0
 31 21  1  0
 30 24  1  0
  3 32  1  0
  4 33  1  0
  4 34  1  0
  8 35  1  0
  8 36  1  0
  9 37  1  0
  9 38  1  0
 10 39  1  0
 10 40  1  0
 11 41  1  1
 12 42  1  0
 12 43  1  0
 15 44  1  0
 16 45  1  0
 19 46  1  0
 20 47  1  0
 22 48  1  0
 23 49  1  0
 25 50  1  0
 28 51  1  0
 29 52  1  0
M  END
>  <smiles>  (16) 
O=C(NCC(=O)N1CCC[C@H]1COc1ccc(Cl)cc1)c1ccc2cc(Cl)ccc2n1

>  <score_type>  (16) 
oracle

>  <origin>  (16) 
autodockgpu

>  <m_score__min__energy>  (16) 
-8.3499999999999996

>  <m_primary>  (16) 
energy

>  <rmsd>  (16) 
7.194779280766878

>  <m_score__min__rmsd>  (16) 
7.194779280766878

>  <meeko>  (16) 
{"free_energy": -7.75, "intermolecular_energy": -9.84, "internal_energy": -1.78, "cluster_size": 8, "cluster_id": 4, "rank_in_cluster": 4}

>  <energy>  (16) 
-7.77

>  <cluster_rmsd>  (16) 
0.38

>  <cluster>  (16) 
3

$$$$

     RDKit          3D

 52 55  0  0  0  0  0  0  0  0999 V2000
  137.7150   70.6470  221.3200 O   0  0  0  0  0  0  0  0  0  0  0  0
  138.2090   71.5140  222.0980 C   0  0  0  0  0  0  0  0  0  0  0  0
  138.0510   72.8970  221.8030 N   0  0  0  0  0  0  0  0  0  0  0  0
  137.3340   73.3400  220.6250 C   0  0  0  0  0  0  0  0  0  0  0  0
  137.8520   74.6380  220.1220 C   0  0  0  0  0  0  0  0  0  0  0  0
  137.0510   75.5890  219.9550 O   0  0  0  0  0  0  0  0  0  0  0  0
  139.2450   74.7190  219.8570 N   0  0  0  0  0  0  0  0  0  0  0  0
  139.9980   75.8180  219.2500 C   0  0  0  0  0  0  0  0  0  0  0  0
  141.2470   75.1620  218.6480 C   0  0  0  0  0  0  0  0  0  0  0  0
  141.0050   73.6850  218.8880 C   0  0  0  0  0  0  0  0  0  0  0  0
  140.2530   73.6630  220.1540 C   0  0  1  0  0  0  0  0  0  0  0  0
  140.9090   74.0700  221.4180 C   0  0  0  0  0  0  0  0  0  0  0  0
  140.3000   74.8640  222.3060 O   0  0  0  0  0  0  0  0  0  0  0  0
  139.9900   76.1410  222.5440 C   0  0  0  0  0  0  0  0  0  0  0  0
  141.0750   77.0350  222.6930 C   0  0  0  0  0  0  0  0  0  0  0  0
  140.8920   78.3690  222.9430 C   0  0  0  0  0  0  0  0  0  0  0  0
  139.6290   78.8990  223.0620 C   0  0  0  0  0  0  0  0  0  0  0  0
  139.3200   80.5920  223.3800 Cl  0  0  0  0  0  0  0  0  0  0  0  0
  138.5470   78.0630  222.9240 C   0  0  0  0  0  0  0  0  0  0  0  0
  138.7510   76.7180  222.6730 C   0  0  0  0  0  0  0  0  0  0  0  0
  138.9420   71.0920  223.2990 C   0  0  0  0  0  0  0  0  0  0  0  0
  139.9810   71.8520  223.7550 C   0  0  0  0  0  0  0  0  0  0  0  0
  140.7170   71.5060  224.8900 C   0  0  0  0  0  0  0  0  0  0  0  0
  140.3630   70.3490  225.5560 C   0  0  0  0  0  0  0  0  0  0  0  0
  141.0150   69.9030  226.6890 C   0  0  0  0  0  0  0  0  0  0  0  0
  140.6010   68.7270  227.3070 C   0  0  0  0  0  0  0  0  0  0  0  0
  141.4230   68.1380  228.7570 Cl  0  0  0  0  0  0  0  0  0  0  0  0
  139.5430   67.9930  226.8030 C   0  0  0  0  0  0  0  0  0  0  0  0
  138.8870   68.4290  225.6750 C   0  0  0  0  0  0  0  0  0  0  0  0
  139.3020   69.6090  225.0560 C   0  0  0  0  0  0  0  0  0  0  0  0
  138.6140   69.9720  223.9600 N   0  0  0  0  0  0  0  0  0  0  0  0
  138.4890   73.5690  222.4930 H   0  0  0  0  0  0  0  0  0  0  0  0
  137.4436   72.5823  219.8351 H   0  0  0  0  0  0  0  0  0  0  0  0
  136.2770   73.4753  220.8978 H   0  0  0  0  0  0  0  0  0  0  0  0
  139.4023   76.3071  218.4652 H   0  0  0  0  0  0  0  0  0  0  0  0
  140.2543   76.5966  219.9836 H   0  0  0  0  0  0  0  0  0  0  0  0
  141.3288   75.3797  217.5729 H   0  0  0  0  0  0  0  0  0  0  0  0
  142.1850   75.5257  219.0928 H   0  0  0  0  0  0  0  0  0  0  0  0
  140.4136   73.2453  218.0713 H   0  0  0  0  0  0  0  0  0  0  0  0
  141.9350   73.0992  218.9310 H   0  0  0  0  0  0  0  0  0  0  0  0
  139.9647   72.6233  220.3681 H   0  0  0  0  0  0  0  0  0  0  0  0
  141.1533   73.1400  221.9522 H   0  0  0  0  0  0  0  0  0  0  0  0
  141.7291   74.7091  221.0589 H   0  0  0  0  0  0  0  0  0  0  0  0
  142.1002   76.6462  222.6052 H   0  0  0  0  0  0  0  0  0  0  0  0
  141.7679   79.0257  223.0501 H   0  0  0  0  0  0  0  0  0  0  0  0
  137.5253   78.4608  223.0126 H   0  0  0  0  0  0  0  0  0  0  0  0
  137.8669   76.0716  222.5706 H   0  0  0  0  0  0  0  0  0  0  0  0
  140.2474   72.7690  223.2089 H   0  0  0  0  0  0  0  0  0  0  0  0
  141.5497   72.1330  225.2414 H   0  0  0  0  0  0  0  0  0  0  0  0
  141.8588   70.4756  227.1015 H   0  0  0  0  0  0  0  0  0  0  0  0
  139.2273   67.0647  227.3017 H   0  0  0  0  0  0  0  0  0  0  0  0
  138.0439   67.8534  225.2652 H   0  0  0  0  0  0  0  0  0  0  0  0
  1  2  2  0
  2  3  1  0
  3  4  1  0
  4  5  1  0
  5  6  2  0
  5  7  1  0
  7  8  1  0
  8  9  1  0
  9 10  1  0
 10 11  1  0
 11 12  1  0
 12 13  1  0
 13 14  1  0
 14 15  2  0
 15 16  1  0
 16 17  2  0
 17 18  1  0
 17 19  1  0
 19 20  2  0
  2 21  1  0
 21 22  2  0
 22 23  1  0
 23 24  2  0
 24 25  1  0
 25 26  2  0
 26 27  1  0
 26 28  1  0
 28 29  2  0
 29 30  1  0
 30 31  2  0
 11  7  1  0
 20 14  1  0
 31 21  1  0
 30 24  1  0
  3 32  1  0
  4 33  1  0
  4 34  1  0
  8 35  1  0
  8 36  1  0
  9 37  1  0
  9 38  1  0
 10 39  1  0
 10 40  1  0
 11 41  1  1
 12 42  1  0
 12 43  1  0
 15 44  1  0
 16 45  1  0
 19 46  1  0
 20 47  1  0
 22 48  1  0
 23 49  1  0
 25 50  1  0
 28 51  1  0
 29 52  1  0
M  END
>  <smiles>  (17) 
O=C(NCC(=O)N1CCC[C@H]1COc1ccc(Cl)cc1)c1ccc2cc(Cl)ccc2n1

>  <score_type>  (17) 
oracle

>  <origin>  (17) 
autodockgpu

>  <m_score__min__energy>  (17) 
-8.3499999999999996

>  <m_primary>  (17) 
energy

>  <rmsd>  (17) 
2.904890839895785

>  <m_score__min__rmsd>  (17) 
2.904890839895785

>  <meeko>  (17) 
{"free_energy": -6.97, "intermolecular_energy": -9.06, "internal_energy": -2.74, "cluster_size": 4, "cluster_id": 5, "rank_in_cluster": 4}

>  <energy>  (17) 
-7.1

>  <cluster_rmsd>  (17) 
1.89

>  <cluster>  (17) 
3

$$$$

     RDKit          3D

 52 55  0  0  0  0  0  0  0  0999 V2000
  140.1140   72.4600  220.6800 O   0  0  0  0  0  0  0  0  0  0  0  0
  139.8530   72.8520  221.8550 C   0  0  0  0  0  0  0  0  0  0  0  0
  139.5540   74.2230  222.0890 N   0  0  0  0  0  0  0  0  0  0  0  0
  139.5400   75.1880  221.0100 C   0  0  0  0  0  0  0  0  0  0  0  0
  138.1610   75.4440  220.5190 C   0  0  0  0  0  0  0  0  0  0  0  0
  137.9460   75.4460  219.2830 O   0  0  0  0  0  0  0  0  0  0  0  0
  137.1590   75.6770  221.4980 N   0  0  0  0  0  0  0  0  0  0  0  0
  136.8880   74.9250  222.7250 C   0  0  0  0  0  0  0  0  0  0  0  0
  135.4080   75.1860  223.0340 C   0  0  0  0  0  0  0  0  0  0  0  0
  134.9490   75.9990  221.8410 C   0  0  0  0  0  0  0  0  0  0  0  0
  136.1480   76.7700  221.4710 C   0  0  1  0  0  0  0  0  0  0  0  0
  136.6640   77.8250  222.3720 C   0  0  0  0  0  0  0  0  0  0  0  0
  137.8840   77.7560  222.9160 O   0  0  0  0  0  0  0  0  0  0  0  0
  139.0090   78.4550  223.0810 C   0  0  0  0  0  0  0  0  0  0  0  0
  140.2110   77.8120  222.7060 C   0  0  0  0  0  0  0  0  0  0  0  0
  141.4320   78.4200  222.8280 C   0  0  0  0  0  0  0  0  0  0  0  0
  141.5400   79.6950  223.3290 C   0  0  0  0  0  0  0  0  0  0  0  0
  143.0660   80.5330  223.5140 Cl  0  0  0  0  0  0  0  0  0  0  0  0
  140.3950   80.3550  223.7070 C   0  0  0  0  0  0  0  0  0  0  0  0
  139.1710   79.7260  223.5770 C   0  0  0  0  0  0  0  0  0  0  0  0
  139.8610   71.8950  222.9680 C   0  0  0  0  0  0  0  0  0  0  0  0
  139.2990   70.6620  222.8020 C   0  0  0  0  0  0  0  0  0  0  0  0
  139.2740   69.7080  223.8220 C   0  0  0  0  0  0  0  0  0  0  0  0
  139.8450   70.0480  225.0320 C   0  0  0  0  0  0  0  0  0  0  0  0
  139.8820   69.1910  226.1140 C   0  0  0  0  0  0  0  0  0  0  0  0
  140.4760   69.6030  227.3030 C   0  0  0  0  0  0  0  0  0  0  0  0
  140.5330   68.5220  228.7000 Cl  0  0  0  0  0  0  0  0  0  0  0  0
  141.0310   70.8640  227.4200 C   0  0  0  0  0  0  0  0  0  0  0  0
  140.9990   71.7260  226.3480 C   0  0  0  0  0  0  0  0  0  0  0  0
  140.4050   71.3110  225.1560 C   0  0  0  0  0  0  0  0  0  0  0  0
  140.4110   72.2060  224.1520 N   0  0  0  0  0  0  0  0  0  0  0  0
  139.3460   74.4840  223.0940 H   0  0  0  0  0  0  0  0  0  0  0  0
  139.9708   76.1333  221.3717 H   0  0  0  0  0  0  0  0  0  0  0  0
  140.1301   74.7790  220.1767 H   0  0  0  0  0  0  0  0  0  0  0  0
  137.0662   73.8511  222.5672 H   0  0  0  0  0  0  0  0  0  0  0  0
  137.5431   75.2355  223.5523 H   0  0  0  0  0  0  0  0  0  0  0  0
  134.8474   74.2425  223.1088 H   0  0  0  0  0  0  0  0  0  0  0  0
  135.2495   75.6982  223.9945 H   0  0  0  0  0  0  0  0  0  0  0  0
  134.6327   75.3434  221.0163 H   0  0  0  0  0  0  0  0  0  0  0  0
  134.0808   76.6365  222.0644 H   0  0  0  0  0  0  0  0  0  0  0  0
  135.9255   77.3379  220.5556 H   0  0  0  0  0  0  0  0  0  0  0  0
  136.6353   78.7624  221.7972 H   0  0  0  0  0  0  0  0  0  0  0  0
  136.0117   77.7183  223.2513 H   0  0  0  0  0  0  0  0  0  0  0  0
  140.1639   76.7896  222.3029 H   0  0  0  0  0  0  0  0  0  0  0  0
  142.3396   77.8799  222.5205 H   0  0  0  0  0  0  0  0  0  0  0  0
  140.4524   81.3768  224.1102 H   0  0  0  0  0  0  0  0  0  0  0  0
  138.2716   80.2767  223.8898 H   0  0  0  0  0  0  0  0  0  0  0  0
  138.8496   70.4107  221.8299 H   0  0  0  0  0  0  0  0  0  0  0  0
  138.8154   68.7203  223.6665 H   0  0  0  0  0  0  0  0  0  0  0  0
  139.4431   68.1853  226.0363 H   0  0  0  0  0  0  0  0  0  0  0  0
  141.4963   71.1768  228.3664 H   0  0  0  0  0  0  0  0  0  0  0  0
  141.4371   72.7316  226.4301 H   0  0  0  0  0  0  0  0  0  0  0  0
  1  2  2  0
  2  3  1  0
  3  4  1  0
  4  5  1  0
  5  6  2  0
  5  7  1  0
  7  8  1  0
  8  9  1  0
  9 10  1  0
 10 11  1  0
 11 12  1  0
 12 13  1  0
 13 14  1  0
 14 15  2  0
 15 16  1  0
 16 17  2  0
 17 18  1  0
 17 19  1  0
 19 20  2  0
  2 21  1  0
 21 22  2  0
 22 23  1  0
 23 24  2  0
 24 25  1  0
 25 26  2  0
 26 27  1  0
 26 28  1  0
 28 29  2  0
 29 30  1  0
 30 31  2  0
 11  7  1  0
 20 14  1  0
 31 21  1  0
 30 24  1  0
  3 32  1  0
  4 33  1  0
  4 34  1  0
  8 35  1  0
  8 36  1  0
  9 37  1  0
  9 38  1  0
 10 39  1  0
 10 40  1  0
 11 41  1  6
 12 42  1  0
 12 43  1  0
 15 44  1  0
 16 45  1  0
 19 46  1  0
 20 47  1  0
 22 48  1  0
 23 49  1  0
 25 50  1  0
 28 51  1  0
 29 52  1  0
M  END
>  <smiles>  (18) 
O=C(NCC(=O)N1CCC[C@H]1COc1ccc(Cl)cc1)c1ccc2cc(Cl)ccc2n1

>  <score_type>  (18) 
oracle

>  <origin>  (18) 
autodockgpu

>  <m_score__min__energy>  (18) 
-8.3499999999999996

>  <m_primary>  (18) 
energy

>  <rmsd>  (18) 
3.7960838996802266

>  <m_score__min__rmsd>  (18) 
3.7960838996802266

>  <meeko>  (18) 
{"free_energy": -7.89, "intermolecular_energy": -9.98, "internal_energy": -1.79, "cluster_size": 4, "cluster_id": 5, "rank_in_cluster": 1}

>  <energy>  (18) 
-7.92

>  <cluster_rmsd>  (18) 
0.0

>  <cluster>  (18) 
4

$$$$

     RDKit          3D

 52 55  0  0  0  0  0  0  0  0999 V2000
  135.9630   75.3670  221.6260 O   0  0  0  0  0  0  0  0  0  0  0  0
  137.1330   75.3160  222.1040 C   0  0  0  0  0  0  0  0  0  0  0  0
  137.7530   74.0530  222.3180 N   0  0  0  0  0  0  0  0  0  0  0  0
  137.0710   72.8150  222.0000 C   0  0  0  0  0  0  0  0  0  0  0  0
  136.9100   71.9520  223.1980 C   0  0  0  0  0  0  0  0  0  0  0  0
  135.9140   72.1210  223.9400 O   0  0  0  0  0  0  0  0  0  0  0  0
  137.9150   70.9760  223.4310 N   0  0  0  0  0  0  0  0  0  0  0  0
  138.0270   69.6280  222.8710 C   0  0  0  0  0  0  0  0  0  0  0  0
  138.8650   68.8410  223.8870 C   0  0  0  0  0  0  0  0  0  0  0  0
  139.0510   69.8340  225.0170 C   0  0  0  0  0  0  0  0  0  0  0  0
  139.0960   71.1340  224.3250 C   0  0  1  0  0  0  0  0  0  0  0  0
  140.2350   71.4680  223.4410 C   0  0  0  0  0  0  0  0  0  0  0  0
  140.3050   72.6340  222.7890 O   0  0  0  0  0  0  0  0  0  0  0  0
  141.0190   73.2920  221.8720 C   0  0  0  0  0  0  0  0  0  0  0  0
  141.9820   72.5370  221.1650 C   0  0  0  0  0  0  0  0  0  0  0  0
  142.7810   73.0940  220.2010 C   0  0  0  0  0  0  0  0  0  0  0  0
  142.6770   74.4260  219.8800 C   0  0  0  0  0  0  0  0  0  0  0  0
  143.6640   75.2030  218.6620 Cl  0  0  0  0  0  0  0  0  0  0  0  0
  141.7540   75.1950  220.5460 C   0  0  0  0  0  0  0  0  0  0  0  0
  140.9560   74.6170  221.5170 C   0  0  0  0  0  0  0  0  0  0  0  0
  137.8470   76.5560  222.4360 C   0  0  0  0  0  0  0  0  0  0  0  0
  137.1390   77.6990  222.6720 C   0  0  0  0  0  0  0  0  0  0  0  0
  137.7580   78.9080  222.9920 C   0  0  0  0  0  0  0  0  0  0  0  0
  139.1370   78.9240  223.0670 C   0  0  0  0  0  0  0  0  0  0  0  0
  139.8620   80.0580  223.3750 C   0  0  0  0  0  0  0  0  0  0  0  0
  141.2500   79.9970  223.4320 C   0  0  0  0  0  0  0  0  0  0  0  0
  142.1970   81.4370  223.8240 Cl  0  0  0  0  0  0  0  0  0  0  0  0
  141.9210   78.8130  223.1840 C   0  0  0  0  0  0  0  0  0  0  0  0
  141.2080   77.6770  222.8760 C   0  0  0  0  0  0  0  0  0  0  0  0
  139.8150   77.7390  222.8200 C   0  0  0  0  0  0  0  0  0  0  0  0
  139.1860   76.5910  222.5140 N   0  0  0  0  0  0  0  0  0  0  0  0
  138.7310   74.0810  222.7200 H   0  0  0  0  0  0  0  0  0  0  0  0
  136.0761   73.0504  221.5941 H   0  0  0  0  0  0  0  0  0  0  0  0
  137.6786   72.2687  221.2635 H   0  0  0  0  0  0  0  0  0  0  0  0
  137.0318   69.1735  222.7567 H   0  0  0  0  0  0  0  0  0  0  0  0
  138.4886   69.6337  221.8726 H   0  0  0  0  0  0  0  0  0  0  0  0
  138.3287   67.9449  224.2323 H   0  0  0  0  0  0  0  0  0  0  0  0
  139.8151   68.4725  223.4728 H   0  0  0  0  0  0  0  0  0  0  0  0
  138.2069   69.7918  225.7210 H   0  0  0  0  0  0  0  0  0  0  0  0
  139.9503   69.6364  225.6188 H   0  0  0  0  0  0  0  0  0  0  0  0
  139.1520   71.9288  225.0834 H   0  0  0  0  0  0  0  0  0  0  0  0
  141.1382   71.4094  224.0661 H   0  0  0  0  0  0  0  0  0  0  0  0
  140.1091   70.7489  222.6181 H   0  0  0  0  0  0  0  0  0  0  0  0
  142.0938   71.4674  221.3960 H   0  0  0  0  0  0  0  0  0  0  0  0
  143.5162   72.4658  219.6767 H   0  0  0  0  0  0  0  0  0  0  0  0
  141.6500   76.2640  220.3087 H   0  0  0  0  0  0  0  0  0  0  0  0
  140.2273   75.2572  222.0358 H   0  0  0  0  0  0  0  0  0  0  0  0
  136.0414   77.6658  222.6076 H   0  0  0  0  0  0  0  0  0  0  0  0
  137.1677   79.8173  223.1782 H   0  0  0  0  0  0  0  0  0  0  0  0
  139.3430   81.0071  223.5747 H   0  0  0  0  0  0  0  0  0  0  0  0
  143.0194   78.7797  223.2328 H   0  0  0  0  0  0  0  0  0  0  0  0
  141.7306   76.7300  222.6760 H   0  0  0  0  0  0  0  0  0  0  0  0
  1  2  2  0
  2  3  1  0
  3  4  1  0
  4  5  1  0
  5  6  2  0
  5  7  1  0
  7  8  1  0
  8  9  1  0
  9 10  1  0
 10 11  1  0
 11 12  1  0
 12 13  1  0
 13 14  1  0
 14 15  2  0
 15 16  1  0
 16 17  2  0
 17 18  1  0
 17 19  1  0
 19 20  2  0
  2 21  1  0
 21 22  2  0
 22 23  1  0
 23 24  2  0
 24 25  1  0
 25 26  2  0
 26 27  1  0
 26 28  1  0
 28 29  2  0
 29 30  1  0
 30 31  2  0
 11  7  1  0
 20 14  1  0
 31 21  1  0
 30 24  1  0
  3 32  1  0
  4 33  1  0
  4 34  1  0
  8 35  1  0
  8 36  1  0
  9 37  1  0
  9 38  1  0
 10 39  1  0
 10 40  1  0
 11 41  1  1
 12 42  1  0
 12 43  1  0
 15 44  1  0
 16 45  1  0
 19 46  1  0
 20 47  1  0
 22 48  1  0
 23 49  1  0
 25 50  1  0
 28 51  1  0
 29 52  1  0
M  END
>  <smiles>  (19) 
O=C(NCC(=O)N1CCC[C@H]1COc1ccc(Cl)cc1)c1ccc2cc(Cl)ccc2n1

>  <score_type>  (19) 
oracle

>  <origin>  (19) 
autodockgpu

>  <m_score__min__energy>  (19) 
-8.3499999999999996

>  <m_primary>  (19) 
energy

>  <rmsd>  (19) 
8.17111122938463

>  <m_score__min__rmsd>  (19) 
8.17111122938463

>  <meeko>  (19) 
{"free_energy": -6.76, "intermolecular_energy": -8.85, "internal_energy": -2.93, "cluster_size": 1, "cluster_id": 12, "rank_in_cluster": 1}

>  <energy>  (19) 
-7.85

>  <cluster_rmsd>  (19) 
0.18

>  <cluster>  (19) 
4

$$$$

     RDKit          3D

 52 55  0  0  0  0  0  0  0  0999 V2000
  138.5190   72.9180  220.2050 O   0  0  0  0  0  0  0  0  0  0  0  0
  138.4460   73.4550  221.3490 C   0  0  0  0  0  0  0  0  0  0  0  0
  137.6080   72.8800  222.3440 N   0  0  0  0  0  0  0  0  0  0  0  0
  136.8300   71.6880  222.0790 C   0  0  0  0  0  0  0  0  0  0  0  0
  137.2920   70.5370  222.8980 C   0  0  0  0  0  0  0  0  0  0  0  0
  137.3390   70.6570  224.1450 O   0  0  0  0  0  0  0  0  0  0  0  0
  137.6570   69.3540  222.2010 N   0  0  0  0  0  0  0  0  0  0  0  0
  138.2590   69.2240  220.8730 C   0  0  0  0  0  0  0  0  0  0  0  0
  137.8580   67.8250  220.3880 C   0  0  0  0  0  0  0  0  0  0  0  0
  136.9410   67.3320  221.4890 C   0  0  0  0  0  0  0  0  0  0  0  0
  137.4930   67.9600  222.7020 C   0  0  1  0  0  0  0  0  0  0  0  0
  138.8210   67.5530  223.2130 C   0  0  0  0  0  0  0  0  0  0  0  0
  139.2020   67.8020  224.4710 O   0  0  0  0  0  0  0  0  0  0  0  0
  139.6580   68.7740  225.2640 C   0  0  0  0  0  0  0  0  0  0  0  0
  139.6150   68.5230  226.6550 C   0  0  0  0  0  0  0  0  0  0  0  0
  140.0510   69.4400  227.5750 C   0  0  0  0  0  0  0  0  0  0  0  0
  140.5520   70.6560  227.1780 C   0  0  0  0  0  0  0  0  0  0  0  0
  141.1260   71.8740  228.2970 Cl  0  0  0  0  0  0  0  0  0  0  0  0
  140.6110   70.9390  225.8350 C   0  0  0  0  0  0  0  0  0  0  0  0
  140.1660   70.0030  224.9200 C   0  0  0  0  0  0  0  0  0  0  0  0
  139.2230   74.6650  221.6440 C   0  0  0  0  0  0  0  0  0  0  0  0
  140.5590   74.6940  221.3660 C   0  0  0  0  0  0  0  0  0  0  0  0
  141.3530   75.8130  221.6230 C   0  0  0  0  0  0  0  0  0  0  0  0
  140.7410   76.9190  222.1800 C   0  0  0  0  0  0  0  0  0  0  0  0
  141.4190   78.0840  222.4800 C   0  0  0  0  0  0  0  0  0  0  0  0
  140.7350   79.1580  223.0400 C   0  0  0  0  0  0  0  0  0  0  0  0
  141.5850   80.6570  223.4320 Cl  0  0  0  0  0  0  0  0  0  0  0  0
  139.3800   79.0780  223.3040 C   0  0  0  0  0  0  0  0  0  0  0  0
  138.6950   77.9220  223.0090 C   0  0  0  0  0  0  0  0  0  0  0  0
  139.3820   76.8450  222.4460 C   0  0  0  0  0  0  0  0  0  0  0  0
  138.6470   75.7500  222.1850 N   0  0  0  0  0  0  0  0  0  0  0  0
  137.5920   73.3790  223.2780 H   0  0  0  0  0  0  0  0  0  0  0  0
  135.7747   71.8916  222.3134 H   0  0  0  0  0  0  0  0  0  0  0  0
  136.9545   71.4259  221.0179 H   0  0  0  0  0  0  0  0  0  0  0  0
  137.8667   69.9954  220.1939 H   0  0  0  0  0  0  0  0  0  0  0  0
  139.3510   69.3534  220.9009 H   0  0  0  0  0  0  0  0  0  0  0  0
  137.3277   67.8772  219.4257 H   0  0  0  0  0  0  0  0  0  0  0  0
  138.7194   67.1636  220.2129 H   0  0  0  0  0  0  0  0  0  0  0  0
  135.9052   67.6582  221.3137 H   0  0  0  0  0  0  0  0  0  0  0  0
  136.9010   66.2347  221.5545 H   0  0  0  0  0  0  0  0  0  0  0  0
  136.8348   67.7165  223.5491 H   0  0  0  0  0  0  0  0  0  0  0  0
  138.8801   66.4623  223.0833 H   0  0  0  0  0  0  0  0  0  0  0  0
  139.4993   68.1969  222.6339 H   0  0  0  0  0  0  0  0  0  0  0  0
  139.2186   67.5603  227.0100 H   0  0  0  0  0  0  0  0  0  0  0  0
  139.9991   69.1990  228.6470 H   0  0  0  0  0  0  0  0  0  0  0  0
  141.0098   71.9043  225.4898 H   0  0  0  0  0  0  0  0  0  0  0  0
  140.2222   70.2580  223.8514 H   0  0  0  0  0  0  0  0  0  0  0  0
  141.0273   73.8027  220.9231 H   0  0  0  0  0  0  0  0  0  0  0  0
  142.4281   75.8140  221.3902 H   0  0  0  0  0  0  0  0  0  0  0  0
  142.4972   78.1625  222.2767 H   0  0  0  0  0  0  0  0  0  0  0  0
  138.8522   79.9349  223.7479 H   0  0  0  0  0  0  0  0  0  0  0  0
  137.6170   77.8471  223.2146 H   0  0  0  0  0  0  0  0  0  0  0  0
  1  2  2  0
  2  3  1  0
  3  4  1  0
  4  5  1  0
  5  6  2  0
  5  7  1  0
  7  8  1  0
  8  9  1  0
  9 10  1  0
 10 11  1  0
 11 12  1  0
 12 13  1  0
 13 14  1  0
 14 15  2  0
 15 16  1  0
 16 17  2  0
 17 18  1  0
 17 19  1  0
 19 20  2  0
  2 21  1  0
 21 22  2  0
 22 23  1  0
 23 24  2  0
 24 25  1  0
 25 26  2  0
 26 27  1  0
 26 28  1  0
 28 29  2  0
 29 30  1  0
 30 31  2  0
 11  7  1  0
 20 14  1  0
 31 21  1  0
 30 24  1  0
  3 32  1  0
  4 33  1  0
  4 34  1  0
  8 35  1  0
  8 36  1  0
  9 37  1  0
  9 38  1  0
 10 39  1  0
 10 40  1  0
 11 41  1  1
 12 42  1  0
 12 43  1  0
 15 44  1  0
 16 45  1  0
 19 46  1  0
 20 47  1  0
 22 48  1  0
 23 49  1  0
 25 50  1  0
 28 51  1  0
 29 52  1  0
M  END
>  <smiles>  (20) 
O=C(NCC(=O)N1CCC[C@H]1COc1ccc(Cl)cc1)c1ccc2cc(Cl)ccc2n1

>  <score_type>  (20) 
oracle

>  <origin>  (20) 
autodockgpu

>  <m_score__min__energy>  (20) 
-8.3499999999999996

>  <m_primary>  (20) 
energy

>  <rmsd>  (20) 
7.835707153752227

>  <m_score__min__rmsd>  (20) 
7.835707153752227

>  <meeko>  (20) 
{"free_energy": -7.85, "intermolecular_energy": -9.94, "internal_energy": -1.85, "cluster_size": 8, "cluster_id": 4, "rank_in_cluster": 2}

>  <energy>  (20) 
-7.8

>  <cluster_rmsd>  (20) 
1.45

>  <cluster>  (20) 
4

$$$$

     RDKit          3D

 52 55  0  0  0  0  0  0  0  0999 V2000
  135.9200   74.5510  221.3200 O   0  0  0  0  0  0  0  0  0  0  0  0
  137.0090   74.5490  221.9650 C   0  0  0  0  0  0  0  0  0  0  0  0
  137.5890   73.3120  222.3640 N   0  0  0  0  0  0  0  0  0  0  0  0
  136.9590   72.0470  222.0490 C   0  0  0  0  0  0  0  0  0  0  0  0
  137.9130   71.1020  221.4120 C   0  0  0  0  0  0  0  0  0  0  0  0
  137.6360   69.8790  221.3920 O   0  0  0  0  0  0  0  0  0  0  0  0
  139.0980   71.6550  220.8570 N   0  0  0  0  0  0  0  0  0  0  0  0
  139.2300   72.6860  219.8270 C   0  0  0  0  0  0  0  0  0  0  0  0
  140.6050   72.4430  219.1920 C   0  0  0  0  0  0  0  0  0  0  0  0
  141.0790   71.1780  219.8800 C   0  0  0  0  0  0  0  0  0  0  0  0
  140.4920   71.2810  221.2270 C   0  0  1  0  0  0  0  0  0  0  0  0
  140.9590   72.3260  222.1650 C   0  0  0  0  0  0  0  0  0  0  0  0
  140.5390   72.3750  223.4340 O   0  0  0  0  0  0  0  0  0  0  0  0
  140.4720   71.6520  224.5550 C   0  0  0  0  0  0  0  0  0  0  0  0
  139.6620   70.4940  224.5090 C   0  0  0  0  0  0  0  0  0  0  0  0
  139.5080   69.6700  225.5920 C   0  0  0  0  0  0  0  0  0  0  0  0
  140.1410   69.9380  226.7810 C   0  0  0  0  0  0  0  0  0  0  0  0
  139.9900   68.9300  228.2040 Cl  0  0  0  0  0  0  0  0  0  0  0  0
  140.9380   71.0550  226.8670 C   0  0  0  0  0  0  0  0  0  0  0  0
  141.0820   71.8770  225.7650 C   0  0  0  0  0  0  0  0  0  0  0  0
  137.6690   75.8170  222.2990 C   0  0  0  0  0  0  0  0  0  0  0  0
  136.9110   76.9200  222.5700 C   0  0  0  0  0  0  0  0  0  0  0  0
  137.4770   78.1540  222.8950 C   0  0  0  0  0  0  0  0  0  0  0  0
  138.8560   78.2370  222.9350 C   0  0  0  0  0  0  0  0  0  0  0  0
  139.5310   79.4020  223.2430 C   0  0  0  0  0  0  0  0  0  0  0  0
  140.9220   79.4090  223.2650 C   0  0  0  0  0  0  0  0  0  0  0  0
  141.8060   80.8890  223.6550 Cl  0  0  0  0  0  0  0  0  0  0  0  0
  141.6430   78.2640  222.9810 C   0  0  0  0  0  0  0  0  0  0  0  0
  140.9800   77.0990  222.6730 C   0  0  0  0  0  0  0  0  0  0  0  0
  139.5850   77.0920  222.6530 C   0  0  0  0  0  0  0  0  0  0  0  0
  139.0060   75.9180  222.3440 N   0  0  0  0  0  0  0  0  0  0  0  0
  138.4990   73.3810  222.9000 H   0  0  0  0  0  0  0  0  0  0  0  0
  136.5781   71.5973  222.9778 H   0  0  0  0  0  0  0  0  0  0  0  0
  136.1404   72.2385  221.3396 H   0  0  0  0  0  0  0  0  0  0  0  0
  138.4339   72.5845  219.0747 H   0  0  0  0  0  0  0  0  0  0  0  0
  139.1425   73.6997  220.2450 H   0  0  0  0  0  0  0  0  0  0  0  0
  140.5180   72.2935  218.1057 H   0  0  0  0  0  0  0  0  0  0  0  0
  141.2961   73.2896  219.3169 H   0  0  0  0  0  0  0  0  0  0  0  0
  140.7095   70.2835  219.3571 H   0  0  0  0  0  0  0  0  0  0  0  0
  142.1747   71.0825  219.8954 H   0  0  0  0  0  0  0  0  0  0  0  0
  140.7226   70.3572  221.7778 H   0  0  0  0  0  0  0  0  0  0  0  0
  142.0546   72.2365  222.2059 H   0  0  0  0  0  0  0  0  0  0  0  0
  140.5144   73.2370  221.7379 H   0  0  0  0  0  0  0  0  0  0  0  0
  139.1388   70.2471  223.5734 H   0  0  0  0  0  0  0  0  0  0  0  0
  138.8674   68.7797  225.5083 H   0  0  0  0  0  0  0  0  0  0  0  0
  141.4578   71.2931  227.8068 H   0  0  0  0  0  0  0  0  0  0  0  0
  141.7239   72.7649  225.8630 H   0  0  0  0  0  0  0  0  0  0  0  0
  135.8151   76.8330  222.5308 H   0  0  0  0  0  0  0  0  0  0  0  0
  136.8475   79.0297  223.1117 H   0  0  0  0  0  0  0  0  0  0  0  0
  138.9707   80.3210  223.4701 H   0  0  0  0  0  0  0  0  0  0  0  0
  142.7426   78.2847  223.0013 H   0  0  0  0  0  0  0  0  0  0  0  0
  141.5437   76.1824  222.4448 H   0  0  0  0  0  0  0  0  0  0  0  0
  1  2  2  0
  2  3  1  0
  3  4  1  0
  4  5  1  0
  5  6  2  0
  5  7  1  0
  7  8  1  0
  8  9  1  0
  9 10  1  0
 10 11  1  0
 11 12  1  0
 12 13  1  0
 13 14  1  0
 14 15  2  0
 15 16  1  0
 16 17  2  0
 17 18  1  0
 17 19  1  0
 19 20  2  0
  2 21  1  0
 21 22  2  0
 22 23  1  0
 23 24  2  0
 24 25  1  0
 25 26  2  0
 26 27  1  0
 26 28  1  0
 28 29  2  0
 29 30  1  0
 30 31  2  0
 11  7  1  0
 20 14  1  0
 31 21  1  0
 30 24  1  0
  3 32  1  0
  4 33  1  0
  4 34  1  0
  8 35  1  0
  8 36  1  0
  9 37  1  0
  9 38  1  0
 10 39  1  0
 10 40  1  0
 11 41  1  1
 12 42  1  0
 12 43  1  0
 15 44  1  0
 16 45  1  0
 19 46  1  0
 20 47  1  0
 22 48  1  0
 23 49  1  0
 25 50  1  0
 28 51  1  0
 29 52  1  0
M  END
>  <smiles>  (21) 
O=C(NCC(=O)N1CCC[C@H]1COc1ccc(Cl)cc1)c1ccc2cc(Cl)ccc2n1

>  <score_type>  (21) 
oracle

>  <origin>  (21) 
autodockgpu

>  <m_score__min__energy>  (21) 
-8.3499999999999996

>  <m_primary>  (21) 
energy

>  <rmsd>  (21) 
6.8042947488627545

>  <m_score__min__rmsd>  (21) 
6.8042947488627545

>  <meeko>  (21) 
{"free_energy": -7.0, "intermolecular_energy": -9.09, "internal_energy": -2.72, "cluster_size": 8, "cluster_id": 4, "rank_in_cluster": 8}

>  <energy>  (21) 
-7.75

>  <cluster_rmsd>  (21) 
1.9

>  <cluster>  (21) 
4

$$$$

     RDKit          3D

 52 55  0  0  0  0  0  0  0  0999 V2000
  139.5190   72.6900  220.5870 O   0  0  0  0  0  0  0  0  0  0  0  0
  140.1500   72.9200  221.6600 C   0  0  0  0  0  0  0  0  0  0  0  0
  140.8970   74.1240  221.7930 N   0  0  0  0  0  0  0  0  0  0  0  0
  140.9550   75.0980  220.7230 C   0  0  0  0  0  0  0  0  0  0  0  0
  140.9100   76.4890  221.2430 C   0  0  0  0  0  0  0  0  0  0  0  0
  140.4280   76.6980  222.3820 O   0  0  0  0  0  0  0  0  0  0  0  0
  141.4260   77.5100  220.4020 N   0  0  0  0  0  0  0  0  0  0  0  0
  141.7960   78.8830  220.7510 C   0  0  0  0  0  0  0  0  0  0  0  0
  141.6730   79.6750  219.4430 C   0  0  0  0  0  0  0  0  0  0  0  0
  141.1140   78.6510  218.4760 C   0  0  0  0  0  0  0  0  0  0  0  0
  141.7010   77.3830  218.9430 C   0  0  1  0  0  0  0  0  0  0  0  0
  143.1580   77.1480  218.8220 C   0  0  0  0  0  0  0  0  0  0  0  0
  143.7660   76.1420  219.4610 O   0  0  0  0  0  0  0  0  0  0  0  0
  144.0580   74.8440  219.3540 C   0  0  0  0  0  0  0  0  0  0  0  0
  144.7090   74.2520  220.4600 C   0  0  0  0  0  0  0  0  0  0  0  0
  145.0650   72.9290  220.4750 C   0  0  0  0  0  0  0  0  0  0  0  0
  144.8020   72.1140  219.4000 C   0  0  0  0  0  0  0  0  0  0  0  0
  145.2270   70.4180  219.3490 Cl  0  0  0  0  0  0  0  0  0  0  0  0
  144.1700   72.6520  218.3040 C   0  0  0  0  0  0  0  0  0  0  0  0
  143.8190   73.9890  218.3060 C   0  0  0  0  0  0  0  0  0  0  0  0
  140.1100   71.9490  222.7610 C   0  0  0  0  0  0  0  0  0  0  0  0
  139.5610   70.7160  222.5520 C   0  0  0  0  0  0  0  0  0  0  0  0
  139.4920   69.7490  223.5570 C   0  0  0  0  0  0  0  0  0  0  0  0
  140.0050   70.0760  224.7980 C   0  0  0  0  0  0  0  0  0  0  0  0
  139.9950   69.2040  225.8690 C   0  0  0  0  0  0  0  0  0  0  0  0
  140.5300   69.6030  227.0900 C   0  0  0  0  0  0  0  0  0  0  0  0
  140.5270   68.5040  228.4740 Cl  0  0  0  0  0  0  0  0  0  0  0  0
  141.0740   70.8650  227.2490 C   0  0  0  0  0  0  0  0  0  0  0  0
  141.0880   71.7400  226.1870 C   0  0  0  0  0  0  0  0  0  0  0  0
  140.5520   71.3390  224.9630 C   0  0  0  0  0  0  0  0  0  0  0  0
  140.6020   72.2470  223.9730 N   0  0  0  0  0  0  0  0  0  0  0  0
  141.4020   74.2540  222.7140 H   0  0  0  0  0  0  0  0  0  0  0  0
  141.8912   74.9569  220.1629 H   0  0  0  0  0  0  0  0  0  0  0  0
  140.0803   74.9463  220.0735 H   0  0  0  0  0  0  0  0  0  0  0  0
  141.1116   79.2858  221.5121 H   0  0  0  0  0  0  0  0  0  0  0  0
  142.8095   78.9417  221.1745 H   0  0  0  0  0  0  0  0  0  0  0  0
  140.9855   80.5258  219.5591 H   0  0  0  0  0  0  0  0  0  0  0  0
  142.6259   80.1116  219.1092 H   0  0  0  0  0  0  0  0  0  0  0  0
  140.0157   78.6190  218.5283 H   0  0  0  0  0  0  0  0  0  0  0  0
  141.3559   78.8750  217.4266 H   0  0  0  0  0  0  0  0  0  0  0  0
  141.2838   76.5638  218.3390 H   0  0  0  0  0  0  0  0  0  0  0  0
  143.3588   76.9995  217.7507 H   0  0  0  0  0  0  0  0  0  0  0  0
  143.5788   78.0312  219.3248 H   0  0  0  0  0  0  0  0  0  0  0  0
  144.9375   74.8741  221.3380 H   0  0  0  0  0  0  0  0  0  0  0  0
  145.5686   72.5131  221.3602 H   0  0  0  0  0  0  0  0  0  0  0  0
  143.9450   72.0222  217.4306 H   0  0  0  0  0  0  0  0  0  0  0  0
  143.3178   74.3928  217.4140 H   0  0  0  0  0  0  0  0  0  0  0  0
  139.1589   70.4762  221.5566 H   0  0  0  0  0  0  0  0  0  0  0  0
  139.0451   68.7619  223.3677 H   0  0  0  0  0  0  0  0  0  0  0  0
  139.5655   68.1975  225.7572 H   0  0  0  0  0  0  0  0  0  0  0  0
  141.4934   71.1676  228.2198 H   0  0  0  0  0  0  0  0  0  0  0  0
  141.5177   72.7460  226.3021 H   0  0  0  0  0  0  0  0  0  0  0  0
  1  2  2  0
  2  3  1  0
  3  4  1  0
  4  5  1  0
  5  6  2  0
  5  7  1  0
  7  8  1  0
  8  9  1  0
  9 10  1  0
 10 11  1  0
 11 12  1  0
 12 13  1  0
 13 14  1  0
 14 15  2  0
 15 16  1  0
 16 17  2  0
 17 18  1  0
 17 19  1  0
 19 20  2  0
  2 21  1  0
 21 22  2  0
 22 23  1  0
 23 24  2  0
 24 25  1  0
 25 26  2  0
 26 27  1  0
 26 28  1  0
 28 29  2  0
 29 30  1  0
 30 31  2  0
 11  7  1  0
 20 14  1  0
 31 21  1  0
 30 24  1  0
  3 32  1  0
  4 33  1  0
  4 34  1  0
  8 35  1  0
  8 36  1  0
  9 37  1  0
  9 38  1  0
 10 39  1  0
 10 40  1  0
 11 41  1  6
 12 42  1  0
 12 43  1  0
 15 44  1  0
 16 45  1  0
 19 46  1  0
 20 47  1  0
 22 48  1  0
 23 49  1  0
 25 50  1  0
 28 51  1  0
 29 52  1  0
M  END
>  <smiles>  (22) 
O=C(NCC(=O)N1CCC[C@H]1COc1ccc(Cl)cc1)c1ccc2cc(Cl)ccc2n1

>  <score_type>  (22) 
oracle

>  <origin>  (22) 
autodockgpu

>  <m_score__min__energy>  (22) 
-8.3499999999999996

>  <m_primary>  (22) 
energy

>  <rmsd>  (22) 
2.7753178147893043

>  <m_score__min__rmsd>  (22) 
2.7753178147893043

>  <meeko>  (22) 
{"free_energy": -7.15, "intermolecular_energy": -9.24, "internal_energy": -2.16, "cluster_size": 6, "cluster_id": 2, "rank_in_cluster": 5}

>  <energy>  (22) 
-7.43

>  <cluster_rmsd>  (22) 
1.85

>  <cluster>  (22) 
4

$$$$

     RDKit          3D

 52 55  0  0  0  0  0  0  0  0999 V2000
  143.3390   75.1740  218.1320 O   0  0  0  0  0  0  0  0  0  0  0  0
  143.1150   75.6360  219.2890 C   0  0  0  0  0  0  0  0  0  0  0  0
  143.3240   74.8100  220.4290 N   0  0  0  0  0  0  0  0  0  0  0  0
  143.7890   73.4450  220.2980 C   0  0  0  0  0  0  0  0  0  0  0  0
  142.7130   72.4660  220.6000 C   0  0  0  0  0  0  0  0  0  0  0  0
  143.0240   71.2760  220.8440 O   0  0  0  0  0  0  0  0  0  0  0  0
  141.3780   72.9500  220.5910 N   0  0  0  0  0  0  0  0  0  0  0  0
  140.3630   72.8170  219.5440 C   0  0  0  0  0  0  0  0  0  0  0  0
  139.4070   73.9960  219.7600 C   0  0  0  0  0  0  0  0  0  0  0  0
  140.0690   74.7700  220.8820 C   0  0  0  0  0  0  0  0  0  0  0  0
  140.7210   73.7200  221.6840 C   0  0  1  0  0  0  0  0  0  0  0  0
  139.9030   72.7420  222.4360 C   0  0  0  0  0  0  0  0  0  0  0  0
  140.4580   71.7460  223.1350 O   0  0  0  0  0  0  0  0  0  0  0  0
  140.3390   71.0580  224.2730 C   0  0  0  0  0  0  0  0  0  0  0  0
  141.0560   71.5530  225.3860 C   0  0  0  0  0  0  0  0  0  0  0  0
  141.0200   70.9380  226.6090 C   0  0  0  0  0  0  0  0  0  0  0  0
  140.2760   69.7990  226.8060 C   0  0  0  0  0  0  0  0  0  0  0  0
  140.1840   68.9620  228.3400 Cl  0  0  0  0  0  0  0  0  0  0  0  0
  139.5650   69.2850  225.7490 C   0  0  0  0  0  0  0  0  0  0  0  0
  139.6130   69.9180  224.5210 C   0  0  0  0  0  0  0  0  0  0  0  0
  142.6420   77.0170  219.4520 C   0  0  0  0  0  0  0  0  0  0  0  0
  142.6270   77.8550  218.3750 C   0  0  0  0  0  0  0  0  0  0  0  0
  142.1890   79.1780  218.4650 C   0  0  0  0  0  0  0  0  0  0  0  0
  141.7610   79.6310  219.6980 C   0  0  0  0  0  0  0  0  0  0  0  0
  141.3060   80.9170  219.9110 C   0  0  0  0  0  0  0  0  0  0  0  0
  140.8900   81.3010  221.1820 C   0  0  0  0  0  0  0  0  0  0  0  0
  140.3050   82.9430  221.4770 Cl  0  0  0  0  0  0  0  0  0  0  0  0
  140.9260   80.4120  222.2410 C   0  0  0  0  0  0  0  0  0  0  0  0
  141.3780   79.1280  222.0380 C   0  0  0  0  0  0  0  0  0  0  0  0
  141.7940   78.7430  220.7630 C   0  0  0  0  0  0  0  0  0  0  0  0
  142.2220   77.4750  220.6420 N   0  0  0  0  0  0  0  0  0  0  0  0
  143.1170   75.2570  221.3660 H   0  0  0  0  0  0  0  0  0  0  0  0
  144.1376   73.2847  219.2671 H   0  0  0  0  0  0  0  0  0  0  0  0
  144.6052   73.2904  221.0190 H   0  0  0  0  0  0  0  0  0  0  0  0
  140.8264   72.8734  218.5480 H   0  0  0  0  0  0  0  0  0  0  0  0
  139.8419   71.8497  219.5967 H   0  0  0  0  0  0  0  0  0  0  0  0
  139.3247   74.6100  218.8510 H   0  0  0  0  0  0  0  0  0  0  0  0
  138.3793   73.6832  219.9965 H   0  0  0  0  0  0  0  0  0  0  0  0
  140.8101   75.4800  220.4863 H   0  0  0  0  0  0  0  0  0  0  0  0
  139.3579   75.3749  221.4638 H   0  0  0  0  0  0  0  0  0  0  0  0
  141.2979   74.2041  222.4858 H   0  0  0  0  0  0  0  0  0  0  0  0
  139.3053   73.3254  223.1518 H   0  0  0  0  0  0  0  0  0  0  0  0
  139.3883   72.2004  221.6287 H   0  0  0  0  0  0  0  0  0  0  0  0
  141.6630   72.4624  225.2658 H   0  0  0  0  0  0  0  0  0  0  0  0
  141.5947   71.3615  227.4458 H   0  0  0  0  0  0  0  0  0  0  0  0
  138.9609   68.3749  225.8790 H   0  0  0  0  0  0  0  0  0  0  0  0
  139.0351   69.4828  223.6923 H   0  0  0  0  0  0  0  0  0  0  0  0
  142.9720   77.4751  217.4020 H   0  0  0  0  0  0  0  0  0  0  0  0
  142.1849   79.8369  217.5842 H   0  0  0  0  0  0  0  0  0  0  0  0
  141.2725   81.6355  219.0788 H   0  0  0  0  0  0  0  0  0  0  0  0
  140.5949   80.7297  223.2407 H   0  0  0  0  0  0  0  0  0  0  0  0
  141.4110   78.4123  222.8727 H   0  0  0  0  0  0  0  0  0  0  0  0
  1  2  2  0
  2  3  1  0
  3  4  1  0
  4  5  1  0
  5  6  2  0
  5  7  1  0
  7  8  1  0
  8  9  1  0
  9 10  1  0
 10 11  1  0
 11 12  1  0
 12 13  1  0
 13 14  1  0
 14 15  2  0
 15 16  1  0
 16 17  2  0
 17 18  1  0
 17 19  1  0
 19 20  2  0
  2 21  1  0
 21 22  2  0
 22 23  1  0
 23 24  2  0
 24 25  1  0
 25 26  2  0
 26 27  1  0
 26 28  1  0
 28 29  2  0
 29 30  1  0
 30 31  2  0
 11  7  1  0
 20 14  1  0
 31 21  1  0
 30 24  1  0
  3 32  1  0
  4 33  1  0
  4 34  1  0
  8 35  1  0
  8 36  1  0
  9 37  1  0
  9 38  1  0
 10 39  1  0
 10 40  1  0
 11 41  1  1
 12 42  1  0
 12 43  1  0
 15 44  1  0
 16 45  1  0
 19 46  1  0
 20 47  1  0
 22 48  1  0
 23 49  1  0
 25 50  1  0
 28 51  1  0
 29 52  1  0
M  END
>  <smiles>  (23) 
O=C(NCC(=O)N1CCC[C@H]1COc1ccc(Cl)cc1)c1ccc2cc(Cl)ccc2n1

>  <score_type>  (23) 
oracle

>  <origin>  (23) 
autodockgpu

>  <m_score__min__energy>  (23) 
-8.3499999999999996

>  <m_primary>  (23) 
energy

>  <rmsd>  (23) 
8.237206982046413

>  <m_score__min__rmsd>  (23) 
8.237206982046413

>  <meeko>  (23) 
{"free_energy": -7.25, "intermolecular_energy": -9.34, "internal_energy": -2.12, "cluster_size": 1, "cluster_id": 9, "rank_in_cluster": 1}

>  <energy>  (23) 
-7.42

>  <cluster_rmsd>  (23) 
1.84

>  <cluster>  (23) 
4

$$$$

     RDKit          3D

 52 55  0  0  0  0  0  0  0  0999 V2000
  140.7220   72.6880  220.8750 O   0  0  0  0  0  0  0  0  0  0  0  0
  140.2610   73.0000  222.0120 C   0  0  0  0  0  0  0  0  0  0  0  0
  139.8090   74.3280  222.2480 N   0  0  0  0  0  0  0  0  0  0  0  0
  139.8630   75.3390  221.2140 C   0  0  0  0  0  0  0  0  0  0  0  0
  139.4530   76.6720  221.7250 C   0  0  0  0  0  0  0  0  0  0  0  0
  138.2860   76.8250  222.1600 O   0  0  0  0  0  0  0  0  0  0  0  0
  140.4260   77.7070  221.6870 N   0  0  0  0  0  0  0  0  0  0  0  0
  141.4440   78.0410  222.6850 C   0  0  0  0  0  0  0  0  0  0  0  0
  141.7540   79.5260  222.4560 C   0  0  0  0  0  0  0  0  0  0  0  0
  140.7580   79.9210  221.3850 C   0  0  0  0  0  0  0  0  0  0  0  0
  140.6090   78.6930  220.5860 C   0  0  1  0  0  0  0  0  0  0  0  0
  141.7400   78.1910  219.7740 C   0  0  0  0  0  0  0  0  0  0  0  0
  141.7670   76.9420  219.2950 O   0  0  0  0  0  0  0  0  0  0  0  0
  142.4590   75.8020  219.3530 C   0  0  0  0  0  0  0  0  0  0  0  0
  143.6840   75.8460  220.0580 C   0  0  0  0  0  0  0  0  0  0  0  0
  144.4900   74.7450  220.1890 C   0  0  0  0  0  0  0  0  0  0  0  0
  144.1360   73.5400  219.6320 C   0  0  0  0  0  0  0  0  0  0  0  0
  145.1150   72.0950  219.7580 Cl  0  0  0  0  0  0  0  0  0  0  0  0
  142.9530   73.4560  218.9370 C   0  0  0  0  0  0  0  0  0  0  0  0
  142.1520   74.5760  218.8150 C   0  0  0  0  0  0  0  0  0  0  0  0
  140.1950   71.9940  223.0800 C   0  0  0  0  0  0  0  0  0  0  0  0
  139.6640   70.7640  222.8160 C   0  0  0  0  0  0  0  0  0  0  0  0
  139.5730   69.7660  223.7880 C   0  0  0  0  0  0  0  0  0  0  0  0
  140.0430   70.0570  225.0540 C   0  0  0  0  0  0  0  0  0  0  0  0
  140.0080   69.1530  226.0970 C   0  0  0  0  0  0  0  0  0  0  0  0
  140.5000   69.5180  227.3450 C   0  0  0  0  0  0  0  0  0  0  0  0
  140.4630   68.3760  228.6940 Cl  0  0  0  0  0  0  0  0  0  0  0  0
  141.0270   70.7780  227.5610 C   0  0  0  0  0  0  0  0  0  0  0  0
  141.0670   71.6870  226.5280 C   0  0  0  0  0  0  0  0  0  0  0  0
  140.5740   71.3190  225.2750 C   0  0  0  0  0  0  0  0  0  0  0  0
  140.6460   72.2580  224.3160 N   0  0  0  0  0  0  0  0  0  0  0  0
  139.4370   74.5220  223.2200 H   0  0  0  0  0  0  0  0  0  0  0  0
  140.8930   75.4048  220.8336 H   0  0  0  0  0  0  0  0  0  0  0  0
  139.1646   75.0491  220.4151 H   0  0  0  0  0  0  0  0  0  0  0  0
  141.0562   77.8795  223.7016 H   0  0  0  0  0  0  0  0  0  0  0  0
  142.3410   77.4121  222.5860 H   0  0  0  0  0  0  0  0  0  0  0  0
  141.5976   80.1089  223.3756 H   0  0  0  0  0  0  0  0  0  0  0  0
  142.7988   79.7109  222.1657 H   0  0  0  0  0  0  0  0  0  0  0  0
  139.7978   80.2188  221.8314 H   0  0  0  0  0  0  0  0  0  0  0  0
  141.0895   80.7835  220.7881 H   0  0  0  0  0  0  0  0  0  0  0  0
  139.8362   78.8672  219.8228 H   0  0  0  0  0  0  0  0  0  0  0  0
  141.8132   78.8574  218.9019 H   0  0  0  0  0  0  0  0  0  0  0  0
  142.5621   78.1771  220.5048 H   0  0  0  0  0  0  0  0  0  0  0  0
  144.0004   76.7946  220.5162 H   0  0  0  0  0  0  0  0  0  0  0  0
  145.4337   74.8274  220.7481 H   0  0  0  0  0  0  0  0  0  0  0  0
  142.6456   72.5034  218.4807 H   0  0  0  0  0  0  0  0  0  0  0  0
  141.2114   74.4795  218.2528 H   0  0  0  0  0  0  0  0  0  0  0  0
  139.2949   70.5520  221.8017 H   0  0  0  0  0  0  0  0  0  0  0  0
  139.1418   68.7815  223.5538 H   0  0  0  0  0  0  0  0  0  0  0  0
  139.5920   68.1467  225.9409 H   0  0  0  0  0  0  0  0  0  0  0  0
  141.4125   71.0528  228.5539 H   0  0  0  0  0  0  0  0  0  0  0  0
  141.4830   72.6926  226.6882 H   0  0  0  0  0  0  0  0  0  0  0  0
  1  2  2  0
  2  3  1  0
  3  4  1  0
  4  5  1  0
  5  6  2  0
  5  7  1  0
  7  8  1  0
  8  9  1  0
  9 10  1  0
 10 11  1  0
 11 12  1  0
 12 13  1  0
 13 14  1  0
 14 15  2  0
 15 16  1  0
 16 17  2  0
 17 18  1  0
 17 19  1  0
 19 20  2  0
  2 21  1  0
 21 22  2  0
 22 23  1  0
 23 24  2  0
 24 25  1  0
 25 26  2  0
 26 27  1  0
 26 28  1  0
 28 29  2  0
 29 30  1  0
 30 31  2  0
 11  7  1  0
 20 14  1  0
 31 21  1  0
 30 24  1  0
  3 32  1  0
  4 33  1  0
  4 34  1  0
  8 35  1  0
  8 36  1  0
  9 37  1  0
  9 38  1  0
 10 39  1  0
 10 40  1  0
 11 41  1  6
 12 42  1  0
 12 43  1  0
 15 44  1  0
 16 45  1  0
 19 46  1  0
 20 47  1  0
 22 48  1  0
 23 49  1  0
 25 50  1  0
 28 51  1  0
 29 52  1  0
M  END
>  <smiles>  (24) 
O=C(NCC(=O)N1CCC[C@H]1COc1ccc(Cl)cc1)c1ccc2cc(Cl)ccc2n1

>  <score_type>  (24) 
oracle

>  <origin>  (24) 
autodockgpu

>  <m_score__min__energy>  (24) 
-8.3499999999999996

>  <m_primary>  (24) 
energy

>  <rmsd>  (24) 
3.2147006818852293

>  <m_score__min__rmsd>  (24) 
3.2147006818852293

>  <meeko>  (24) 
{"free_energy": -7.86, "intermolecular_energy": -9.95, "internal_energy": -2.16, "cluster_size": 6, "cluster_id": 2, "rank_in_cluster": 3}

>  <energy>  (24) 
-7.19

>  <cluster_rmsd>  (24) 
1.96

>  <cluster>  (24) 
4

$$$$

     RDKit          3D

 52 55  0  0  0  0  0  0  0  0999 V2000
  136.9070   74.9320  220.7230 O   0  0  0  0  0  0  0  0  0  0  0  0
  137.7750   74.7330  221.6220 C   0  0  0  0  0  0  0  0  0  0  0  0
  137.7880   73.4970  222.3270 N   0  0  0  0  0  0  0  0  0  0  0  0
  136.8260   72.4540  222.0400 C   0  0  0  0  0  0  0  0  0  0  0  0
  137.3900   71.4190  221.1360 C   0  0  0  0  0  0  0  0  0  0  0  0
  136.6990   70.4100  220.8590 O   0  0  0  0  0  0  0  0  0  0  0  0
  138.7000   71.6430  220.6350 N   0  0  0  0  0  0  0  0  0  0  0  0
  139.1140   72.4460  219.4820 C   0  0  0  0  0  0  0  0  0  0  0  0
  140.4570   71.8490  219.0420 C   0  0  0  0  0  0  0  0  0  0  0  0
  140.6150   70.6520  219.9570 C   0  0  0  0  0  0  0  0  0  0  0  0
  139.9590   71.0850  221.2030 C   0  0  1  0  0  0  0  0  0  0  0  0
  140.5530   72.1680  222.0200 C   0  0  0  0  0  0  0  0  0  0  0  0
  140.3570   72.2450  223.3410 O   0  0  0  0  0  0  0  0  0  0  0  0
  140.2070   71.4930  224.4340 C   0  0  0  0  0  0  0  0  0  0  0  0
  141.0010   71.8420  225.5510 C   0  0  0  0  0  0  0  0  0  0  0  0
  140.9440   71.1480  226.7300 C   0  0  0  0  0  0  0  0  0  0  0  0
  140.1040   70.0710  226.8770 C   0  0  0  0  0  0  0  0  0  0  0  0
  139.9790   69.1400  228.3540 Cl  0  0  0  0  0  0  0  0  0  0  0  0
  139.3160   69.6990  225.8140 C   0  0  0  0  0  0  0  0  0  0  0  0
  139.3860   70.4100  224.6300 C   0  0  0  0  0  0  0  0  0  0  0  0
  138.7630   75.7740  221.9350 C   0  0  0  0  0  0  0  0  0  0  0  0
  140.0820   75.5560  221.6620 C   0  0  0  0  0  0  0  0  0  0  0  0
  141.0690   76.5050  221.9360 C   0  0  0  0  0  0  0  0  0  0  0  0
  140.6710   77.6990  222.5040 C   0  0  0  0  0  0  0  0  0  0  0  0
  141.5530   78.7130  222.8200 C   0  0  0  0  0  0  0  0  0  0  0  0
  141.0780   79.8900  223.3910 C   0  0  0  0  0  0  0  0  0  0  0  0
  142.1900   81.2000  223.8040 Cl  0  0  0  0  0  0  0  0  0  0  0  0
  139.7300   80.0610  223.6490 C   0  0  0  0  0  0  0  0  0  0  0  0
  138.8430   79.0560  223.3370 C   0  0  0  0  0  0  0  0  0  0  0  0
  139.3200   77.8770  222.7640 C   0  0  0  0  0  0  0  0  0  0  0  0
  138.3960   76.9410  222.4870 N   0  0  0  0  0  0  0  0  0  0  0  0
  138.5390   73.3960  223.0660 H   0  0  0  0  0  0  0  0  0  0  0  0
  136.5254   71.9768  222.9844 H   0  0  0  0  0  0  0  0  0  0  0  0
  135.9620   72.9136  221.5377 H   0  0  0  0  0  0  0  0  0  0  0  0
  138.3735   72.3698  218.6722 H   0  0  0  0  0  0  0  0  0  0  0  0
  139.1993   73.5138  219.7322 H   0  0  0  0  0  0  0  0  0  0  0  0
  140.4249   71.5386  217.9872 H   0  0  0  0  0  0  0  0  0  0  0  0
  141.2919   72.5617  219.1131 H   0  0  0  0  0  0  0  0  0  0  0  0
  140.1157   69.7666  219.5365 H   0  0  0  0  0  0  0  0  0  0  0  0
  141.6653   70.3598  220.1040 H   0  0  0  0  0  0  0  0  0  0  0  0
  139.9577   70.2393  221.9064 H   0  0  0  0  0  0  0  0  0  0  0  0
  141.6412   72.1040  221.8728 H   0  0  0  0  0  0  0  0  0  0  0  0
  140.0171   73.0560  221.6535 H   0  0  0  0  0  0  0  0  0  0  0  0
  141.6864   72.6985  225.4701 H   0  0  0  0  0  0  0  0  0  0  0  0
  141.5804   71.4575  227.5721 H   0  0  0  0  0  0  0  0  0  0  0  0
  138.6338   68.8409  225.9046 H   0  0  0  0  0  0  0  0  0  0  0  0
  138.7457   70.0888  223.7953 H   0  0  0  0  0  0  0  0  0  0  0  0
  140.3785   74.5981  221.2098 H   0  0  0  0  0  0  0  0  0  0  0  0
  142.1268   76.3082  221.7073 H   0  0  0  0  0  0  0  0  0  0  0  0
  142.6280   78.5910  222.6211 H   0  0  0  0  0  0  0  0  0  0  0  0
  139.3684   80.9961  224.1016 H   0  0  0  0  0  0  0  0  0  0  0  0
  137.7687   79.1812  223.5375 H   0  0  0  0  0  0  0  0  0  0  0  0
  1  2  2  0
  2  3  1  0
  3  4  1  0
  4  5  1  0
  5  6  2  0
  5  7  1  0
  7  8  1  0
  8  9  1  0
  9 10  1  0
 10 11  1  0
 11 12  1  0
 12 13  1  0
 13 14  1  0
 14 15  2  0
 15 16  1  0
 16 17  2  0
 17 18  1  0
 17 19  1  0
 19 20  2  0
  2 21  1  0
 21 22  2  0
 22 23  1  0
 23 24  2  0
 24 25  1  0
 25 26  2  0
 26 27  1  0
 26 28  1  0
 28 29  2  0
 29 30  1  0
 30 31  2  0
 11  7  1  0
 20 14  1  0
 31 21  1  0
 30 24  1  0
  3 32  1  0
  4 33  1  0
  4 34  1  0
  8 35  1  0
  8 36  1  0
  9 37  1  0
  9 38  1  0
 10 39  1  0
 10 40  1  0
 11 41  1  1
 12 42  1  0
 12 43  1  0
 15 44  1  0
 16 45  1  0
 19 46  1  0
 20 47  1  0
 22 48  1  0
 23 49  1  0
 25 50  1  0
 28 51  1  0
 29 52  1  0
M  END
>  <smiles>  (25) 
O=C(NCC(=O)N1CCC[C@H]1COc1ccc(Cl)cc1)c1ccc2cc(Cl)ccc2n1

>  <score_type>  (25) 
oracle

>  <origin>  (25) 
autodockgpu

>  <m_score__min__energy>  (25) 
-8.3499999999999996

>  <m_primary>  (25) 
energy

>  <rmsd>  (25) 
6.856114282303117

>  <m_score__min__rmsd>  (25) 
6.856114282303117

>  <meeko>  (25) 
{"free_energy": -7.42, "intermolecular_energy": -9.51, "internal_energy": -2.75, "cluster_size": 8, "cluster_id": 4, "rank_in_cluster": 6}

>  <energy>  (25) 
-7.0

>  <cluster_rmsd>  (25) 
1.95

>  <cluster>  (25) 
4

$$$$

     RDKit          3D

 52 55  0  0  0  0  0  0  0  0999 V2000
  140.4950   72.6150  220.7940 O   0  0  0  0  0  0  0  0  0  0  0  0
  140.0730   72.9410  221.9420 C   0  0  0  0  0  0  0  0  0  0  0  0
  139.6030   74.2650  222.1690 N   0  0  0  0  0  0  0  0  0  0  0  0
  139.5950   75.2550  221.1120 C   0  0  0  0  0  0  0  0  0  0  0  0
  139.5970   76.6380  221.6540 C   0  0  0  0  0  0  0  0  0  0  0  0
  138.9910   76.8720  222.7270 O   0  0  0  0  0  0  0  0  0  0  0  0
  140.2960   77.6240  220.9070 N   0  0  0  0  0  0  0  0  0  0  0  0
  139.7590   78.6160  219.9740 C   0  0  0  0  0  0  0  0  0  0  0  0
  140.9230   78.9500  219.0330 C   0  0  0  0  0  0  0  0  0  0  0  0
  142.0080   77.9900  219.4780 C   0  0  0  0  0  0  0  0  0  0  0  0
  141.7690   77.8510  220.9250 C   0  0  1  0  0  0  0  0  0  0  0  0
  141.9930   78.9990  221.8310 C   0  0  0  0  0  0  0  0  0  0  0  0
  141.1040   79.3410  222.7720 O   0  0  0  0  0  0  0  0  0  0  0  0
  140.0440   80.1230  222.9900 C   0  0  0  0  0  0  0  0  0  0  0  0
  139.2300   79.7830  224.0950 C   0  0  0  0  0  0  0  0  0  0  0  0
  138.1120   80.5030  224.4250 C   0  0  0  0  0  0  0  0  0  0  0  0
  137.7320   81.5970  223.6850 C   0  0  0  0  0  0  0  0  0  0  0  0
  136.3180   82.5620  224.0480 Cl  0  0  0  0  0  0  0  0  0  0  0  0
  138.4970   81.9600  222.6030 C   0  0  0  0  0  0  0  0  0  0  0  0
  139.6210   81.2220  222.2830 C   0  0  0  0  0  0  0  0  0  0  0  0
  140.0710   71.9580  223.0330 C   0  0  0  0  0  0  0  0  0  0  0  0
  139.5780   70.7050  222.8090 C   0  0  0  0  0  0  0  0  0  0  0  0
  139.5480   69.7250  223.8040 C   0  0  0  0  0  0  0  0  0  0  0  0
  140.0390   70.0610  225.0500 C   0  0  0  0  0  0  0  0  0  0  0  0
  140.0620   69.1790  226.1130 C   0  0  0  0  0  0  0  0  0  0  0  0
  140.5740   69.5890  227.3400 C   0  0  0  0  0  0  0  0  0  0  0  0
  140.6120   68.4770  228.7130 Cl  0  0  0  0  0  0  0  0  0  0  0  0
  141.0610   70.8720  227.5150 C   0  0  0  0  0  0  0  0  0  0  0  0
  141.0410   71.7580  226.4620 C   0  0  0  0  0  0  0  0  0  0  0  0
  140.5290   71.3460  225.2310 C   0  0  0  0  0  0  0  0  0  0  0  0
  140.5440   72.2650  224.2500 N   0  0  0  0  0  0  0  0  0  0  0  0
  139.2650   74.4720  223.1500 H   0  0  0  0  0  0  0  0  0  0  0  0
  140.4892   75.1160  220.4867 H   0  0  0  0  0  0  0  0  0  0  0  0
  138.6764   75.1193  220.5223 H   0  0  0  0  0  0  0  0  0  0  0  0
  138.9135   78.1967  219.4088 H   0  0  0  0  0  0  0  0  0  0  0  0
  139.3800   79.5082  220.4939 H   0  0  0  0  0  0  0  0  0  0  0  0
  140.6456   78.7739  217.9832 H   0  0  0  0  0  0  0  0  0  0  0  0
  141.2310   80.0049  219.0822 H   0  0  0  0  0  0  0  0  0  0  0  0
  141.9091   77.0205  218.9679 H   0  0  0  0  0  0  0  0  0  0  0  0
  143.0211   78.3482  219.2427 H   0  0  0  0  0  0  0  0  0  0  0  0
  142.4713   77.1035  221.3226 H   0  0  0  0  0  0  0  0  0  0  0  0
  142.9373   78.7967  222.3576 H   0  0  0  0  0  0  0  0  0  0  0  0
  141.9407   79.8536  221.1404 H   0  0  0  0  0  0  0  0  0  0  0  0
  139.5031   78.9124  224.7095 H   0  0  0  0  0  0  0  0  0  0  0  0
  137.5099   80.2011  225.2947 H   0  0  0  0  0  0  0  0  0  0  0  0
  138.2166   82.8328  221.9950 H   0  0  0  0  0  0  0  0  0  0  0  0
  140.2124   81.5336  221.4094 H   0  0  0  0  0  0  0  0  0  0  0  0
  139.1906   70.4582  221.8095 H   0  0  0  0  0  0  0  0  0  0  0  0
  139.1472   68.7207  223.6019 H   0  0  0  0  0  0  0  0  0  0  0  0
  139.6768   68.1560  225.9898 H   0  0  0  0  0  0  0  0  0  0  0  0
  141.4623   71.1825  228.4910 H   0  0  0  0  0  0  0  0  0  0  0  0
  141.4249   72.7809  226.5895 H   0  0  0  0  0  0  0  0  0  0  0  0
  1  2  2  0
  2  3  1  0
  3  4  1  0
  4  5  1  0
  5  6  2  0
  5  7  1  0
  7  8  1  0
  8  9  1  0
  9 10  1  0
 10 11  1  0
 11 12  1  0
 12 13  1  0
 13 14  1  0
 14 15  2  0
 15 16  1  0
 16 17  2  0
 17 18  1  0
 17 19  1  0
 19 20  2  0
  2 21  1  0
 21 22  2  0
 22 23  1  0
 23 24  2  0
 24 25  1  0
 25 26  2  0
 26 27  1  0
 26 28  1  0
 28 29  2  0
 29 30  1  0
 30 31  2  0
 11  7  1  0
 20 14  1  0
 31 21  1  0
 30 24  1  0
  3 32  1  0
  4 33  1  0
  4 34  1  0
  8 35  1  0
  8 36  1  0
  9 37  1  0
  9 38  1  0
 10 39  1  0
 10 40  1  0
 11 41  1  1
 12 42  1  0
 12 43  1  0
 15 44  1  0
 16 45  1  0
 19 46  1  0
 20 47  1  0
 22 48  1  0
 23 49  1  0
 25 50  1  0
 28 51  1  0
 29 52  1  0
M  END
>  <smiles>  (26) 
O=C(NCC(=O)N1CCC[C@H]1COc1ccc(Cl)cc1)c1ccc2cc(Cl)ccc2n1

>  <score_type>  (26) 
oracle

>  <origin>  (26) 
autodockgpu

>  <m_score__min__energy>  (26) 
-8.3499999999999996

>  <m_primary>  (26) 
energy

>  <rmsd>  (26) 
2.179308054657788

>  <m_score__min__rmsd>  (26) 
2.179308054657788

>  <meeko>  (26) 
{"free_energy": -7.68, "intermolecular_energy": -9.77, "internal_energy": -2.03, "cluster_size": 2, "cluster_id": 7, "rank_in_cluster": 2}

>  <energy>  (26) 
-7.89

>  <cluster_rmsd>  (26) 
0.0

>  <cluster>  (26) 
5

$$$$

     RDKit          3D

 52 55  0  0  0  0  0  0  0  0999 V2000
  134.0740   69.6850  226.0710 O   0  0  0  0  0  0  0  0  0  0  0  0
  134.4160   70.8560  225.7350 C   0  0  0  0  0  0  0  0  0  0  0  0
  135.5060   71.0410  224.8390 N   0  0  0  0  0  0  0  0  0  0  0  0
  136.2390   69.9150  224.2990 C   0  0  0  0  0  0  0  0  0  0  0  0
  137.2790   70.3490  223.3310 C   0  0  0  0  0  0  0  0  0  0  0  0
  137.6100   71.5580  223.2940 O   0  0  0  0  0  0  0  0  0  0  0  0
  137.8400   69.3480  222.4940 N   0  0  0  0  0  0  0  0  0  0  0  0
  138.7020   69.5130  221.3230 C   0  0  0  0  0  0  0  0  0  0  0  0
  138.4840   68.2480  220.4840 C   0  0  0  0  0  0  0  0  0  0  0  0
  137.3920   67.5210  221.2420 C   0  0  0  0  0  0  0  0  0  0  0  0
  137.6550   67.8770  222.6470 C   0  0  1  0  0  0  0  0  0  0  0  0
  138.8730   67.3820  223.3260 C   0  0  0  0  0  0  0  0  0  0  0  0
  139.0890   67.5870  224.6300 O   0  0  0  0  0  0  0  0  0  0  0  0
  139.5160   68.5060  225.5000 C   0  0  0  0  0  0  0  0  0  0  0  0
  139.9610   69.7310  224.9520 C   0  0  0  0  0  0  0  0  0  0  0  0
  140.4260   70.7530  225.7360 C   0  0  0  0  0  0  0  0  0  0  0  0
  140.4810   70.6270  227.1030 C   0  0  0  0  0  0  0  0  0  0  0  0
  141.0630   71.8910  228.1650 Cl  0  0  0  0  0  0  0  0  0  0  0  0
  140.0590   69.4510  227.6750 C   0  0  0  0  0  0  0  0  0  0  0  0
  139.5930   68.4290  226.8690 C   0  0  0  0  0  0  0  0  0  0  0  0
  133.6910   72.0170  226.2680 C   0  0  0  0  0  0  0  0  0  0  0  0
  132.5510   71.8240  226.9940 C   0  0  0  0  0  0  0  0  0  0  0  0
  131.8170   72.8850  227.5270 C   0  0  0  0  0  0  0  0  0  0  0  0
  132.2800   74.1660  227.2980 C   0  0  0  0  0  0  0  0  0  0  0  0
  131.6410   75.2940  227.7740 C   0  0  0  0  0  0  0  0  0  0  0  0
  132.1690   76.5520  227.5030 C   0  0  0  0  0  0  0  0  0  0  0  0
  131.3660   78.0090  228.1020 Cl  0  0  0  0  0  0  0  0  0  0  0  0
  133.3270   76.6940  226.7620 C   0  0  0  0  0  0  0  0  0  0  0  0
  133.9710   75.5750  226.2830 C   0  0  0  0  0  0  0  0  0  0  0  0
  133.4420   74.3130  226.5560 C   0  0  0  0  0  0  0  0  0  0  0  0
  134.1250   73.2680  226.0560 N   0  0  0  0  0  0  0  0  0  0  0  0
  135.7410   72.0450  224.6000 H   0  0  0  0  0  0  0  0  0  0  0  0
  136.7245   69.3761  225.1260 H   0  0  0  0  0  0  0  0  0  0  0  0
  135.5272   69.2652  223.7688 H   0  0  0  0  0  0  0  0  0  0  0  0
  138.4124   70.4085  220.7536 H   0  0  0  0  0  0  0  0  0  0  0  0
  139.7574   69.6441  221.6038 H   0  0  0  0  0  0  0  0  0  0  0  0
  138.1567   68.5010  219.4647 H   0  0  0  0  0  0  0  0  0  0  0  0
  139.3975   67.6483  220.3580 H   0  0  0  0  0  0  0  0  0  0  0  0
  136.3967   67.8685  220.9278 H   0  0  0  0  0  0  0  0  0  0  0  0
  137.3978   66.4351  221.0663 H   0  0  0  0  0  0  0  0  0  0  0  0
  136.8548   67.4494  223.2690 H   0  0  0  0  0  0  0  0  0  0  0  0
  138.8864   66.2919  223.1790 H   0  0  0  0  0  0  0  0  0  0  0  0
  139.6614   67.9928  222.8618 H   0  0  0  0  0  0  0  0  0  0  0  0
  139.9328   69.8675  223.8609 H   0  0  0  0  0  0  0  0  0  0  0  0
  140.7604   71.6887  225.2642 H   0  0  0  0  0  0  0  0  0  0  0  0
  140.0918   69.3236  228.7671 H   0  0  0  0  0  0  0  0  0  0  0  0
  139.2640   67.4979  227.3535 H   0  0  0  0  0  0  0  0  0  0  0  0
  132.1984   70.7961  227.1650 H   0  0  0  0  0  0  0  0  0  0  0  0
  130.9011   72.7070  228.1095 H   0  0  0  0  0  0  0  0  0  0  0  0
  130.7183   75.1980  228.3650 H   0  0  0  0  0  0  0  0  0  0  0  0
  133.7321   77.6957  226.5559 H   0  0  0  0  0  0  0  0  0  0  0  0
  134.8929   75.6750  225.6913 H   0  0  0  0  0  0  0  0  0  0  0  0
  1  2  2  0
  2  3  1  0
  3  4  1  0
  4  5  1  0
  5  6  2  0
  5  7  1  0
  7  8  1  0
  8  9  1  0
  9 10  1  0
 10 11  1  0
 11 12  1  0
 12 13  1  0
 13 14  1  0
 14 15  2  0
 15 16  1  0
 16 17  2  0
 17 18  1  0
 17 19  1  0
 19 20  2  0
  2 21  1  0
 21 22  2  0
 22 23  1  0
 23 24  2  0
 24 25  1  0
 25 26  2  0
 26 27  1  0
 26 28  1  0
 28 29  2  0
 29 30  1  0
 30 31  2  0
 11  7  1  0
 20 14  1  0
 31 21  1  0
 30 24  1  0
  3 32  1  0
  4 33  1  0
  4 34  1  0
  8 35  1  0
  8 36  1  0
  9 37  1  0
  9 38  1  0
 10 39  1  0
 10 40  1  0
 11 41  1  1
 12 42  1  0
 12 43  1  0
 15 44  1  0
 16 45  1  0
 19 46  1  0
 20 47  1  0
 22 48  1  0
 23 49  1  0
 25 50  1  0
 28 51  1  0
 29 52  1  0
M  END
>  <smiles>  (27) 
O=C(NCC(=O)N1CCC[C@H]1COc1ccc(Cl)cc1)c1ccc2cc(Cl)ccc2n1

>  <score_type>  (27) 
oracle

>  <origin>  (27) 
autodockgpu

>  <m_score__min__energy>  (27) 
-8.3499999999999996

>  <m_primary>  (27) 
energy

>  <rmsd>  (27) 
8.320780704456682

>  <m_score__min__rmsd>  (27) 
8.320780704456682

>  <meeko>  (27) 
{"free_energy": -8.0, "intermolecular_energy": -10.08, "internal_energy": -2.39, "cluster_size": 3, "cluster_id": 3, "rank_in_cluster": 1}

>  <energy>  (27) 
-7.83

>  <cluster_rmsd>  (27) 
0.52

>  <cluster>  (27) 
5

$$$$

     RDKit          3D

 52 55  0  0  0  0  0  0  0  0999 V2000
  137.4320   70.8760  221.1630 O   0  0  0  0  0  0  0  0  0  0  0  0
  137.6380   71.4200  222.2870 C   0  0  0  0  0  0  0  0  0  0  0  0
  137.3100   72.7910  222.4770 N   0  0  0  0  0  0  0  0  0  0  0  0
  136.7430   73.5870  221.4080 C   0  0  0  0  0  0  0  0  0  0  0  0
  137.7950   74.2650  220.6090 C   0  0  0  0  0  0  0  0  0  0  0  0
  137.4790   75.2420  219.8890 O   0  0  0  0  0  0  0  0  0  0  0  0
  139.1160   73.7520  220.7120 N   0  0  0  0  0  0  0  0  0  0  0  0
  139.6920   72.5720  220.0650 C   0  0  0  0  0  0  0  0  0  0  0  0
  140.8540   72.1470  220.9720 C   0  0  0  0  0  0  0  0  0  0  0  0
  140.7390   73.1010  222.1440 C   0  0  0  0  0  0  0  0  0  0  0  0
  140.2170   74.3340  221.5300 C   0  0  1  0  0  0  0  0  0  0  0  0
  141.0550   75.1120  220.5910 C   0  0  0  0  0  0  0  0  0  0  0  0
  141.0810   76.4490  220.6070 O   0  0  0  0  0  0  0  0  0  0  0  0
  141.3010   77.4930  221.4100 C   0  0  0  0  0  0  0  0  0  0  0  0
  141.8350   78.6520  220.8020 C   0  0  0  0  0  0  0  0  0  0  0  0
  142.1090   79.7890  221.5150 C   0  0  0  0  0  0  0  0  0  0  0  0
  141.8740   79.8490  222.8670 C   0  0  0  0  0  0  0  0  0  0  0  0
  142.2000   81.2670  223.8410 Cl  0  0  0  0  0  0  0  0  0  0  0  0
  141.3560   78.7430  223.4960 C   0  0  0  0  0  0  0  0  0  0  0  0
  141.0860   77.6030  222.7620 C   0  0  0  0  0  0  0  0  0  0  0  0
  138.2140   70.6370  223.3880 C   0  0  0  0  0  0  0  0  0  0  0  0
  137.9410   69.3030  223.4820 C   0  0  0  0  0  0  0  0  0  0  0  0
  138.4570   68.5050  224.5040 C   0  0  0  0  0  0  0  0  0  0  0  0
  139.2690   69.1100  225.4430 C   0  0  0  0  0  0  0  0  0  0  0  0
  139.8380   68.4260  226.4990 C   0  0  0  0  0  0  0  0  0  0  0  0
  140.6470   69.1030  227.4060 C   0  0  0  0  0  0  0  0  0  0  0  0
  141.3840   68.2470  228.7650 Cl  0  0  0  0  0  0  0  0  0  0  0  0
  140.8910   70.4570  227.2680 C   0  0  0  0  0  0  0  0  0  0  0  0
  140.3290   71.1480  226.2180 C   0  0  0  0  0  0  0  0  0  0  0  0
  139.5190   70.4670  225.3080 C   0  0  0  0  0  0  0  0  0  0  0  0
  139.0050   71.2070  224.3100 N   0  0  0  0  0  0  0  0  0  0  0  0
  137.5080   73.1840  223.4400 H   0  0  0  0  0  0  0  0  0  0  0  0
  136.1602   72.9302  220.7454 H   0  0  0  0  0  0  0  0  0  0  0  0
  136.1039   74.3604  221.8590 H   0  0  0  0  0  0  0  0  0  0  0  0
  138.9448   71.7680  219.9921 H   0  0  0  0  0  0  0  0  0  0  0  0
  140.0265   72.7861  219.0392 H   0  0  0  0  0  0  0  0  0  0  0  0
  140.7386   71.1032  221.2992 H   0  0  0  0  0  0  0  0  0  0  0  0
  141.8327   72.1913  220.4717 H   0  0  0  0  0  0  0  0  0  0  0  0
  140.0418   72.7125  222.9009 H   0  0  0  0  0  0  0  0  0  0  0  0
  141.6934   73.2534  222.6692 H   0  0  0  0  0  0  0  0  0  0  0  0
  140.0275   75.0656  222.3293 H   0  0  0  0  0  0  0  0  0  0  0  0
  142.0911   74.7816  220.7564 H   0  0  0  0  0  0  0  0  0  0  0  0
  140.5755   74.9013  219.6237 H   0  0  0  0  0  0  0  0  0  0  0  0
  142.0372   78.6404  219.7208 H   0  0  0  0  0  0  0  0  0  0  0  0
  142.5232   80.6668  220.9974 H   0  0  0  0  0  0  0  0  0  0  0  0
  141.1572   78.7643  224.5777 H   0  0  0  0  0  0  0  0  0  0  0  0
  140.6743   76.7318  223.2926 H   0  0  0  0  0  0  0  0  0  0  0  0
  137.2908   68.8402  222.7249 H   0  0  0  0  0  0  0  0  0  0  0  0
  138.2250   67.4312  224.5597 H   0  0  0  0  0  0  0  0  0  0  0  0
  139.6521   67.3489  226.6227 H   0  0  0  0  0  0  0  0  0  0  0  0
  141.5312   70.9798  227.9938 H   0  0  0  0  0  0  0  0  0  0  0  0
  140.5164   72.2252  226.0977 H   0  0  0  0  0  0  0  0  0  0  0  0
  1  2  2  0
  2  3  1  0
  3  4  1  0
  4  5  1  0
  5  6  2  0
  5  7  1  0
  7  8  1  0
  8  9  1  0
  9 10  1  0
 10 11  1  0
 11 12  1  0
 12 13  1  0
 13 14  1  0
 14 15  2  0
 15 16  1  0
 16 17  2  0
 17 18  1  0
 17 19  1  0
 19 20  2  0
  2 21  1  0
 21 22  2  0
 22 23  1  0
 23 24  2  0
 24 25  1  0
 25 26  2  0
 26 27  1  0
 26 28  1  0
 28 29  2  0
 29 30  1  0
 30 31  2  0
 11  7  1  0
 20 14  1  0
 31 21  1  0
 30 24  1  0
  3 32  1  0
  4 33  1  0
  4 34  1  0
  8 35  1  0
  8 36  1  0
  9 37  1  0
  9 38  1  0
 10 39  1  0
 10 40  1  0
 11 41  1  1
 12 42  1  0
 12 43  1  0
 15 44  1  0
 16 45  1  0
 19 46  1  0
 20 47  1  0
 22 48  1  0
 23 49  1  0
 25 50  1  0
 28 51  1  0
 29 52  1  0
M  END
>  <smiles>  (28) 
O=C(NCC(=O)N1CCC[C@H]1COc1ccc(Cl)cc1)c1ccc2cc(Cl)ccc2n1

>  <score_type>  (28) 
oracle

>  <origin>  (28) 
autodockgpu

>  <m_score__min__energy>  (28) 
-8.3499999999999996

>  <m_primary>  (28) 
energy

>  <rmsd>  (28) 
2.7972194466761047

>  <m_score__min__rmsd>  (28) 
2.7972194466761047

>  <meeko>  (28) 
{"free_energy": -7.64, "intermolecular_energy": -9.73, "internal_energy": -2.06, "cluster_size": 8, "cluster_id": 1, "rank_in_cluster": 4}

>  <energy>  (28) 
-7.64

>  <cluster_rmsd>  (28) 
1.09

>  <cluster>  (28) 
5

$$$$

     RDKit          3D

 52 55  0  0  0  0  0  0  0  0999 V2000
  139.5670   74.6800  222.0070 O   0  0  0  0  0  0  0  0  0  0  0  0
  140.7520   74.8930  221.6170 C   0  0  0  0  0  0  0  0  0  0  0  0
  141.2860   76.2110  221.6750 N   0  0  0  0  0  0  0  0  0  0  0  0
  140.5020   77.3220  222.1740 C   0  0  0  0  0  0  0  0  0  0  0  0
  141.3440   78.3040  222.9050 C   0  0  0  0  0  0  0  0  0  0  0  0
  141.9590   77.9330  223.9320 O   0  0  0  0  0  0  0  0  0  0  0  0
  141.3960   79.6240  222.3830 N   0  0  0  0  0  0  0  0  0  0  0  0
  142.0610   80.8030  222.9420 C   0  0  0  0  0  0  0  0  0  0  0  0
  141.3020   82.0020  222.3630 C   0  0  0  0  0  0  0  0  0  0  0  0
  140.1690   81.3510  221.5950 C   0  0  0  0  0  0  0  0  0  0  0  0
  140.7610   80.0890  221.1180 C   0  0  1  0  0  0  0  0  0  0  0  0
  141.8390   80.1090  220.1040 C   0  0  0  0  0  0  0  0  0  0  0  0
  141.8440   79.2710  219.0610 O   0  0  0  0  0  0  0  0  0  0  0  0
  142.4280   78.1630  218.5970 C   0  0  0  0  0  0  0  0  0  0  0  0
  142.5470   78.0570  217.1920 C   0  0  0  0  0  0  0  0  0  0  0  0
  143.1240   76.9700  216.5900 C   0  0  0  0  0  0  0  0  0  0  0  0
  143.6140   75.9260  217.3360 C   0  0  0  0  0  0  0  0  0  0  0  0
  144.3630   74.5070  216.6350 Cl  0  0  0  0  0  0  0  0  0  0  0  0
  143.5170   75.9900  218.7060 C   0  0  0  0  0  0  0  0  0  0  0  0
  142.9310   77.0940  219.2970 C   0  0  0  0  0  0  0  0  0  0  0  0
  141.5690   73.7850  221.1050 C   0  0  0  0  0  0  0  0  0  0  0  0
  140.9990   72.5600  220.9150 C   0  0  0  0  0  0  0  0  0  0  0  0
  141.7210   71.4670  220.4320 C   0  0  0  0  0  0  0  0  0  0  0  0
  143.0580   71.6580  220.1450 C   0  0  0  0  0  0  0  0  0  0  0  0
  143.8750   70.6540  219.6620 C   0  0  0  0  0  0  0  0  0  0  0  0
  145.2140   70.9210  219.3950 C   0  0  0  0  0  0  0  0  0  0  0  0
  146.2770   69.6520  218.7780 Cl  0  0  0  0  0  0  0  0  0  0  0  0
  145.7440   72.1810  219.6060 C   0  0  0  0  0  0  0  0  0  0  0  0
  144.9380   73.1880  220.0870 C   0  0  0  0  0  0  0  0  0  0  0  0
  143.5950   72.9190  220.3540 C   0  0  0  0  0  0  0  0  0  0  0  0
  142.8690   73.9510  220.8200 N   0  0  0  0  0  0  0  0  0  0  0  0
  142.2820   76.3200  221.3330 H   0  0  0  0  0  0  0  0  0  0  0  0
  140.0200   77.8281  221.3246 H   0  0  0  0  0  0  0  0  0  0  0  0
  139.7517   76.9254  222.8738 H   0  0  0  0  0  0  0  0  0  0  0  0
  141.9961   80.7986  224.0401 H   0  0  0  0  0  0  0  0  0  0  0  0
  143.1311   80.8314  222.6886 H   0  0  0  0  0  0  0  0  0  0  0  0
  140.9157   82.6494  223.1640 H   0  0  0  0  0  0  0  0  0  0  0  0
  141.9316   82.6522  221.7378 H   0  0  0  0  0  0  0  0  0  0  0  0
  139.3079   81.1584  222.2518 H   0  0  0  0  0  0  0  0  0  0  0  0
  139.7856   81.9810  220.7789 H   0  0  0  0  0  0  0  0  0  0  0  0
  139.9772   79.5080  220.6101 H   0  0  0  0  0  0  0  0  0  0  0  0
  141.8478   81.1253  219.6832 H   0  0  0  0  0  0  0  0  0  0  0  0
  142.7086   79.7643  220.6828 H   0  0  0  0  0  0  0  0  0  0  0  0
  142.1640   78.8735  216.5622 H   0  0  0  0  0  0  0  0  0  0  0  0
  143.1959   76.9328  215.4930 H   0  0  0  0  0  0  0  0  0  0  0  0
  143.9029   75.1686  219.3275 H   0  0  0  0  0  0  0  0  0  0  0  0
  142.8636   77.1175  220.3947 H   0  0  0  0  0  0  0  0  0  0  0  0
  139.9326   72.4289  221.1508 H   0  0  0  0  0  0  0  0  0  0  0  0
  141.2415   70.4880  220.2853 H   0  0  0  0  0  0  0  0  0  0  0  0
  143.4681   69.6468  219.4891 H   0  0  0  0  0  0  0  0  0  0  0  0
  146.8046   72.3775  219.3905 H   0  0  0  0  0  0  0  0  0  0  0  0
  145.3483   74.1940  220.2591 H   0  0  0  0  0  0  0  0  0  0  0  0
  1  2  2  0
  2  3  1  0
  3  4  1  0
  4  5  1  0
  5  6  2  0
  5  7  1  0
  7  8  1  0
  8  9  1  0
  9 10  1  0
 10 11  1  0
 11 12  1  0
 12 13  1  0
 13 14  1  0
 14 15  2  0
 15 16  1  0
 16 17  2  0
 17 18  1  0
 17 19  1  0
 19 20  2  0
  2 21  1  0
 21 22  2  0
 22 23  1  0
 23 24  2  0
 24 25  1  0
 25 26  2  0
 26 27  1  0
 26 28  1  0
 28 29  2  0
 29 30  1  0
 30 31  2  0
 11  7  1  0
 20 14  1  0
 31 21  1  0
 30 24  1  0
  3 32  1  0
  4 33  1  0
  4 34  1  0
  8 35  1  0
  8 36  1  0
  9 37  1  0
  9 38  1  0
 10 39  1  0
 10 40  1  0
 11 41  1  6
 12 42  1  0
 12 43  1  0
 15 44  1  0
 16 45  1  0
 19 46  1  0
 20 47  1  0
 22 48  1  0
 23 49  1  0
 25 50  1  0
 28 51  1  0
 29 52  1  0
M  END
>  <smiles>  (29) 
O=C(NCC(=O)N1CCC[C@H]1COc1ccc(Cl)cc1)c1ccc2cc(Cl)ccc2n1

>  <score_type>  (29) 
oracle

>  <origin>  (29) 
autodockgpu

>  <m_score__min__energy>  (29) 
-8.3499999999999996

>  <m_primary>  (29) 
energy

>  <rmsd>  (29) 
6.455254777255867

>  <m_score__min__rmsd>  (29) 
6.455254777255867

>  <meeko>  (29) 
{"free_energy": -7.07, "intermolecular_energy": -9.16, "internal_energy": -2.58, "cluster_size": 8, "cluster_id": 11, "rank_in_cluster": 1}

>  <energy>  (29) 
-6.97

>  <cluster_rmsd>  (29) 
1.84

>  <cluster>  (29) 
5

$$$$

     RDKit          3D

 52 55  0  0  0  0  0  0  0  0999 V2000
  137.5360   71.1220  220.7960 O   0  0  0  0  0  0  0  0  0  0  0  0
  138.0470   71.7180  221.7890 C   0  0  0  0  0  0  0  0  0  0  0  0
  138.2130   73.1310  221.7540 N   0  0  0  0  0  0  0  0  0  0  0  0
  137.8100   73.9100  220.6020 C   0  0  0  0  0  0  0  0  0  0  0  0
  137.0100   75.0990  220.9940 C   0  0  0  0  0  0  0  0  0  0  0  0
  135.7890   75.1320  220.7100 O   0  0  0  0  0  0  0  0  0  0  0  0
  137.6930   76.1400  221.6760 N   0  0  0  0  0  0  0  0  0  0  0  0
  137.2320   76.9490  222.8060 C   0  0  0  0  0  0  0  0  0  0  0  0
  138.0350   78.2530  222.7180 C   0  0  0  0  0  0  0  0  0  0  0  0
  138.8160   78.0860  221.4300 C   0  0  0  0  0  0  0  0  0  0  0  0
  139.0640   76.6360  221.3660 C   0  0  1  0  0  0  0  0  0  0  0  0
  139.9630   75.9890  222.3480 C   0  0  0  0  0  0  0  0  0  0  0  0
  140.4450   74.7560  222.1610 O   0  0  0  0  0  0  0  0  0  0  0  0
  141.4000   74.0800  221.5170 C   0  0  0  0  0  0  0  0  0  0  0  0
  141.3350   72.6700  221.5960 C   0  0  0  0  0  0  0  0  0  0  0  0
  142.2560   71.8630  220.9820 C   0  0  0  0  0  0  0  0  0  0  0  0
  143.2940   72.3980  220.2580 C   0  0  0  0  0  0  0  0  0  0  0  0
  144.5060   71.4280  219.4490 Cl  0  0  0  0  0  0  0  0  0  0  0  0
  143.3930   73.7650  220.1580 C   0  0  0  0  0  0  0  0  0  0  0  0
  142.4560   74.5650  220.7840 C   0  0  0  0  0  0  0  0  0  0  0  0
  138.4650   70.9530  222.9700 C   0  0  0  0  0  0  0  0  0  0  0  0
  137.9950   69.6840  223.1530 C   0  0  0  0  0  0  0  0  0  0  0  0
  138.3550   68.9060  224.2550 C   0  0  0  0  0  0  0  0  0  0  0  0
  139.2180   69.4610  225.1790 C   0  0  0  0  0  0  0  0  0  0  0  0
  139.6460   68.7900  226.3080 C   0  0  0  0  0  0  0  0  0  0  0  0
  140.5180   69.4150  227.1940 C   0  0  0  0  0  0  0  0  0  0  0  0
  141.0770   68.5750  228.6450 Cl  0  0  0  0  0  0  0  0  0  0  0  0
  140.9640   70.7030  226.9630 C   0  0  0  0  0  0  0  0  0  0  0  0
  140.5440   71.3800  225.8410 C   0  0  0  0  0  0  0  0  0  0  0  0
  139.6700   70.7530  224.9520 C   0  0  0  0  0  0  0  0  0  0  0  0
  139.3030   71.4750  223.8790 N   0  0  0  0  0  0  0  0  0  0  0  0
  138.6460   73.5660  222.6160 H   0  0  0  0  0  0  0  0  0  0  0  0
  138.7102   74.2469  220.0671 H   0  0  0  0  0  0  0  0  0  0  0  0
  137.1843   73.2729  219.9596 H   0  0  0  0  0  0  0  0  0  0  0  0
  136.1544   77.1526  222.7209 H   0  0  0  0  0  0  0  0  0  0  0  0
  137.3820   76.4368  223.7679 H   0  0  0  0  0  0  0  0  0  0  0  0
  137.3674   79.1257  222.6653 H   0  0  0  0  0  0  0  0  0  0  0  0
  138.6765   78.4271  223.5945 H   0  0  0  0  0  0  0  0  0  0  0  0
  138.2254   78.4227  220.5652 H   0  0  0  0  0  0  0  0  0  0  0  0
  139.7410   78.6809  221.4088 H   0  0  0  0  0  0  0  0  0  0  0  0
  139.5651   76.4121  220.4127 H   0  0  0  0  0  0  0  0  0  0  0  0
  140.8369   76.6496  222.4477 H   0  0  0  0  0  0  0  0  0  0  0  0
  139.2982   75.8489  223.2131 H   0  0  0  0  0  0  0  0  0  0  0  0
  140.5186   72.2060  222.1689 H   0  0  0  0  0  0  0  0  0  0  0  0
  142.1632   70.7705  221.0699 H   0  0  0  0  0  0  0  0  0  0  0  0
  144.2132   74.2197  219.5831 H   0  0  0  0  0  0  0  0  0  0  0  0
  142.5620   75.6558  220.6897 H   0  0  0  0  0  0  0  0  0  0  0  0
  137.3084   69.2597  222.4057 H   0  0  0  0  0  0  0  0  0  0  0  0
  137.9644   67.8856  224.3828 H   0  0  0  0  0  0  0  0  0  0  0  0
  139.2987   67.7652  226.5059 H   0  0  0  0  0  0  0  0  0  0  0  0
  141.6520   71.1848  227.6733 H   0  0  0  0  0  0  0  0  0  0  0  0
  140.8936   72.4048  225.6469 H   0  0  0  0  0  0  0  0  0  0  0  0
  1  2  2  0
  2  3  1  0
  3  4  1  0
  4  5  1  0
  5  6  2  0
  5  7  1  0
  7  8  1  0
  8  9  1  0
  9 10  1  0
 10 11  1  0
 11 12  1  0
 12 13  1  0
 13 14  1  0
 14 15  2  0
 15 16  1  0
 16 17  2  0
 17 18  1  0
 17 19  1  0
 19 20  2  0
  2 21  1  0
 21 22  2  0
 22 23  1  0
 23 24  2  0
 24 25  1  0
 25 26  2  0
 26 27  1  0
 26 28  1  0
 28 29  2  0
 29 30  1  0
 30 31  2  0
 11  7  1  0
 20 14  1  0
 31 21  1  0
 30 24  1  0
  3 32  1  0
  4 33  1  0
  4 34  1  0
  8 35  1  0
  8 36  1  0
  9 37  1  0
  9 38  1  0
 10 39  1  0
 10 40  1  0
 11 41  1  6
 12 42  1  0
 12 43  1  0
 15 44  1  0
 16 45  1  0
 19 46  1  0
 20 47  1  0
 22 48  1  0
 23 49  1  0
 25 50  1  0
 28 51  1  0
 29 52  1  0
M  END
>  <smiles>  (30) 
O=C(NCC(=O)N1CCC[C@H]1COc1ccc(Cl)cc1)c1ccc2cc(Cl)ccc2n1

>  <score_type>  (30) 
oracle

>  <origin>  (30) 
autodockgpu

>  <m_score__min__energy>  (30) 
-8.3499999999999996

>  <m_primary>  (30) 
energy

>  <rmsd>  (30) 
2.868775154339755

>  <m_score__min__rmsd>  (30) 
2.868775154339755

>  <meeko>  (30) 
{"free_energy": -6.97, "intermolecular_energy": -9.05, "internal_energy": -2.95, "cluster_size": 4, "cluster_id": 10, "rank_in_cluster": 2}

>  <energy>  (30) 
-7.88

>  <cluster_rmsd>  (30) 
0.0

>  <cluster>  (30) 
6

$$$$

     RDKit          3D

 52 55  0  0  0  0  0  0  0  0999 V2000
  138.1810   75.5050  222.6450 O   0  0  0  0  0  0  0  0  0  0  0  0
  139.2770   75.9110  222.1610 C   0  0  0  0  0  0  0  0  0  0  0  0
  139.5440   77.3070  222.0950 N   0  0  0  0  0  0  0  0  0  0  0  0
  138.5840   78.2820  222.5700 C   0  0  0  0  0  0  0  0  0  0  0  0
  139.1200   79.6650  222.4900 C   0  0  0  0  0  0  0  0  0  0  0  0
  138.3310   80.6110  222.2540 O   0  0  0  0  0  0  0  0  0  0  0  0
  140.5170   79.8300  222.6880 N   0  0  0  0  0  0  0  0  0  0  0  0
  141.4010   79.1120  223.6080 C   0  0  0  0  0  0  0  0  0  0  0  0
  142.5740   80.0670  223.8610 C   0  0  0  0  0  0  0  0  0  0  0  0
  142.1600   81.3210  223.1170 C   0  0  0  0  0  0  0  0  0  0  0  0
  141.3920   80.8010  221.9730 C   0  0  1  0  0  0  0  0  0  0  0  0
  142.0710   80.0300  220.9070 C   0  0  0  0  0  0  0  0  0  0  0  0
  141.5300   78.9260  220.3790 O   0  0  0  0  0  0  0  0  0  0  0  0
  141.7250   77.9990  219.4390 C   0  0  0  0  0  0  0  0  0  0  0  0
  140.6020   77.2160  219.0840 C   0  0  0  0  0  0  0  0  0  0  0  0
  140.6710   76.2300  218.1360 C   0  0  0  0  0  0  0  0  0  0  0  0
  141.8500   75.9570  217.4840 C   0  0  0  0  0  0  0  0  0  0  0  0
  142.0110   74.7130  216.2640 Cl  0  0  0  0  0  0  0  0  0  0  0  0
  142.9650   76.6950  217.8010 C   0  0  0  0  0  0  0  0  0  0  0  0
  142.8780   77.6860  218.7610 C   0  0  0  0  0  0  0  0  0  0  0  0
  140.2680   74.9440  221.6700 C   0  0  0  0  0  0  0  0  0  0  0  0
  139.9410   73.6210  221.5990 C   0  0  0  0  0  0  0  0  0  0  0  0
  140.8370   72.6530  221.1420 C   0  0  0  0  0  0  0  0  0  0  0  0
  142.0940   73.0750  220.7540 C   0  0  0  0  0  0  0  0  0  0  0  0
  143.0660   72.2130  220.2850 C   0  0  0  0  0  0  0  0  0  0  0  0
  144.3100   72.7110  219.9120 C   0  0  0  0  0  0  0  0  0  0  0  0
  145.5680   71.6250  219.3100 Cl  0  0  0  0  0  0  0  0  0  0  0  0
  144.5920   74.0610  220.0050 C   0  0  0  0  0  0  0  0  0  0  0  0
  143.6310   74.9280  220.4710 C   0  0  0  0  0  0  0  0  0  0  0  0
  142.3820   74.4280  220.8440 C   0  0  0  0  0  0  0  0  0  0  0  0
  141.4940   75.3340  221.2890 N   0  0  0  0  0  0  0  0  0  0  0  0
  140.4780   77.5790  221.6790 H   0  0  0  0  0  0  0  0  0  0  0  0
  137.6746   78.2160  221.9546 H   0  0  0  0  0  0  0  0  0  0  0  0
  138.3633   78.0603  223.6246 H   0  0  0  0  0  0  0  0  0  0  0  0
  140.8777   78.8853  224.5486 H   0  0  0  0  0  0  0  0  0  0  0  0
  141.7348   78.1498  223.1925 H   0  0  0  0  0  0  0  0  0  0  0  0
  142.6960   80.2672  224.9357 H   0  0  0  0  0  0  0  0  0  0  0  0
  143.5410   79.6638  223.5259 H   0  0  0  0  0  0  0  0  0  0  0  0
  141.5339   81.9662  223.7508 H   0  0  0  0  0  0  0  0  0  0  0  0
  143.0154   81.9424  222.8133 H   0  0  0  0  0  0  0  0  0  0  0  0
  140.9826   81.6551  221.4136 H   0  0  0  0  0  0  0  0  0  0  0  0
  142.2242   80.7285  220.0711 H   0  0  0  0  0  0  0  0  0  0  0  0
  142.9491   79.6288  221.4342 H   0  0  0  0  0  0  0  0  0  0  0  0
  139.6416   77.4052  219.5858 H   0  0  0  0  0  0  0  0  0  0  0  0
  139.7698   75.6480  217.8928 H   0  0  0  0  0  0  0  0  0  0  0  0
  143.9211   76.4984  217.2939 H   0  0  0  0  0  0  0  0  0  0  0  0
  143.7873   78.2586  218.9962 H   0  0  0  0  0  0  0  0  0  0  0  0
  138.9350   73.3060  221.9132 H   0  0  0  0  0  0  0  0  0  0  0  0
  140.5523   71.5916  221.0926 H   0  0  0  0  0  0  0  0  0  0  0  0
  142.8569   71.1359  220.2067 H   0  0  0  0  0  0  0  0  0  0  0  0
  145.5807   74.4404  219.7076 H   0  0  0  0  0  0  0  0  0  0  0  0
  143.8445   76.0043  220.5489 H   0  0  0  0  0  0  0  0  0  0  0  0
  1  2  2  0
  2  3  1  0
  3  4  1  0
  4  5  1  0
  5  6  2  0
  5  7  1  0
  7  8  1  0
  8  9  1  0
  9 10  1  0
 10 11  1  0
 11 12  1  0
 12 13  1  0
 13 14  1  0
 14 15  2  0
 15 16  1  0
 16 17  2  0
 17 18  1  0
 17 19  1  0
 19 20  2  0
  2 21  1  0
 21 22  2  0
 22 23  1  0
 23 24  2  0
 24 25  1  0
 25 26  2  0
 26 27  1  0
 26 28  1  0
 28 29  2  0
 29 30  1  0
 30 31  2  0
 11  7  1  0
 20 14  1  0
 31 21  1  0
 30 24  1  0
  3 32  1  0
  4 33  1  0
  4 34  1  0
  8 35  1  0
  8 36  1  0
  9 37  1  0
  9 38  1  0
 10 39  1  0
 10 40  1  0
 11 41  1  6
 12 42  1  0
 12 43  1  0
 15 44  1  0
 16 45  1  0
 19 46  1  0
 20 47  1  0
 22 48  1  0
 23 49  1  0
 25 50  1  0
 28 51  1  0
 29 52  1  0
M  END
>  <smiles>  (31) 
O=C(NCC(=O)N1CCC[C@H]1COc1ccc(Cl)cc1)c1ccc2cc(Cl)ccc2n1

>  <score_type>  (31) 
oracle

>  <origin>  (31) 
autodockgpu

>  <m_score__min__energy>  (31) 
-8.3499999999999996

>  <m_primary>  (31) 
energy

>  <rmsd>  (31) 
6.542890100920515

>  <m_score__min__rmsd>  (31) 
6.542890100920515

>  <meeko>  (31) 
{"free_energy": -5.52, "intermolecular_energy": -7.61, "internal_energy": -4.06, "cluster_size": 8, "cluster_id": 11, "rank_in_cluster": 8}

>  <energy>  (31) 
-7.73

>  <cluster_rmsd>  (31) 
0.0

>  <cluster>  (31) 
7

$$$$

     RDKit          3D

 52 55  0  0  0  0  0  0  0  0999 V2000
  135.1090   68.5500  224.4920 O   0  0  0  0  0  0  0  0  0  0  0  0
  135.6100   69.7030  224.6350 C   0  0  0  0  0  0  0  0  0  0  0  0
  136.9180   69.9690  224.1410 N   0  0  0  0  0  0  0  0  0  0  0  0
  137.6950   68.9450  223.4730 C   0  0  0  0  0  0  0  0  0  0  0  0
  138.0120   69.3220  222.0720 C   0  0  0  0  0  0  0  0  0  0  0  0
  137.8850   68.4620  221.1670 O   0  0  0  0  0  0  0  0  0  0  0  0
  138.4460   70.6550  221.8430 N   0  0  0  0  0  0  0  0  0  0  0  0
  137.6720   71.7980  221.3560 C   0  0  0  0  0  0  0  0  0  0  0  0
  138.7040   72.7370  220.7200 C   0  0  0  0  0  0  0  0  0  0  0  0
  139.9920   71.9440  220.8170 C   0  0  0  0  0  0  0  0  0  0  0  0
  139.8260   71.1730  222.0610 C   0  0  1  0  0  0  0  0  0  0  0  0
  139.7990   71.8640  223.3690 C   0  0  0  0  0  0  0  0  0  0  0  0
  139.4140   71.2430  224.4890 O   0  0  0  0  0  0  0  0  0  0  0  0
  139.8890   70.6170  225.5690 C   0  0  0  0  0  0  0  0  0  0  0  0
  139.9430   69.2060  225.5040 C   0  0  0  0  0  0  0  0  0  0  0  0
  140.4080   68.4460  226.5450 C   0  0  0  0  0  0  0  0  0  0  0  0
  140.8430   69.0320  227.7090 C   0  0  0  0  0  0  0  0  0  0  0  0
  141.4490   68.1250  229.0780 Cl  0  0  0  0  0  0  0  0  0  0  0  0
  140.8060   70.4020  227.8120 C   0  0  0  0  0  0  0  0  0  0  0  0
  140.3340   71.1540  226.7520 C   0  0  0  0  0  0  0  0  0  0  0  0
  134.8450   70.7600  225.3100 C   0  0  0  0  0  0  0  0  0  0  0  0
  133.9140   70.4230  226.2490 C   0  0  0  0  0  0  0  0  0  0  0  0
  133.1540   71.3800  226.9250 C   0  0  0  0  0  0  0  0  0  0  0  0
  133.3710   72.7080  226.6140 C   0  0  0  0  0  0  0  0  0  0  0  0
  132.6830   73.7440  227.2140 C   0  0  0  0  0  0  0  0  0  0  0  0
  132.9560   75.0580  226.8490 C   0  0  0  0  0  0  0  0  0  0  0  0
  132.0860   76.3980  227.6050 Cl  0  0  0  0  0  0  0  0  0  0  0  0
  133.9090   75.3460  225.8900 C   0  0  0  0  0  0  0  0  0  0  0  0
  134.6010   74.3210  225.2860 C   0  0  0  0  0  0  0  0  0  0  0  0
  134.3270   73.0030  225.6530 C   0  0  0  0  0  0  0  0  0  0  0  0
  135.0410   72.0550  225.0210 N   0  0  0  0  0  0  0  0  0  0  0  0
  137.2780   70.9520  224.2940 H   0  0  0  0  0  0  0  0  0  0  0  0
  138.6356   68.7955  224.0234 H   0  0  0  0  0  0  0  0  0  0  0  0
  137.0987   68.0209  223.4528 H   0  0  0  0  0  0  0  0  0  0  0  0
  136.9327   71.4737  220.6088 H   0  0  0  0  0  0  0  0  0  0  0  0
  137.1100   72.2896  222.1638 H   0  0  0  0  0  0  0  0  0  0  0  0
  138.4499   72.9517  219.6715 H   0  0  0  0  0  0  0  0  0  0  0  0
  138.7605   73.7178  221.2148 H   0  0  0  0  0  0  0  0  0  0  0  0
  140.1082   71.2747  219.9518 H   0  0  0  0  0  0  0  0  0  0  0  0
  140.8888   72.5810  220.8233 H   0  0  0  0  0  0  0  0  0  0  0  0
  140.6919   70.5037  222.1722 H   0  0  0  0  0  0  0  0  0  0  0  0
  140.8238   72.2202  223.5507 H   0  0  0  0  0  0  0  0  0  0  0  0
  138.9956   72.6014  223.2250 H   0  0  0  0  0  0  0  0  0  0  0  0
  139.6007   68.7019  224.5882 H   0  0  0  0  0  0  0  0  0  0  0  0
  140.4334   67.3506  226.4473 H   0  0  0  0  0  0  0  0  0  0  0  0
  141.1498   70.8972  228.7321 H   0  0  0  0  0  0  0  0  0  0  0  0
  140.3137   72.2482  226.8630 H   0  0  0  0  0  0  0  0  0  0  0  0
  133.7565   69.3595  226.4818 H   0  0  0  0  0  0  0  0  0  0  0  0
  132.4086   71.0863  227.6788 H   0  0  0  0  0  0  0  0  0  0  0  0
  131.9213   73.5307  227.9784 H   0  0  0  0  0  0  0  0  0  0  0  0
  134.1135   76.3901  225.6107 H   0  0  0  0  0  0  0  0  0  0  0  0
  135.3620   74.5385  224.5221 H   0  0  0  0  0  0  0  0  0  0  0  0
  1  2  2  0
  2  3  1  0
  3  4  1  0
  4  5  1  0
  5  6  2  0
  5  7  1  0
  7  8  1  0
  8  9  1  0
  9 10  1  0
 10 11  1  0
 11 12  1  0
 12 13  1  0
 13 14  1  0
 14 15  2  0
 15 16  1  0
 16 17  2  0
 17 18  1  0
 17 19  1  0
 19 20  2  0
  2 21  1  0
 21 22  2  0
 22 23  1  0
 23 24  2  0
 24 25  1  0
 25 26  2  0
 26 27  1  0
 26 28  1  0
 28 29  2  0
 29 30  1  0
 30 31  2  0
 11  7  1  0
 20 14  1  0
 31 21  1  0
 30 24  1  0
  3 32  1  0
  4 33  1  0
  4 34  1  0
  8 35  1  0
  8 36  1  0
  9 37  1  0
  9 38  1  0
 10 39  1  0
 10 40  1  0
 11 41  1  1
 12 42  1  0
 12 43  1  0
 15 44  1  0
 16 45  1  0
 19 46  1  0
 20 47  1  0
 22 48  1  0
 23 49  1  0
 25 50  1  0
 28 51  1  0
 29 52  1  0
M  END
>  <smiles>  (32) 
O=C(NCC(=O)N1CCC[C@H]1COc1ccc(Cl)cc1)c1ccc2cc(Cl)ccc2n1

>  <score_type>  (32) 
oracle

>  <origin>  (32) 
autodockgpu

>  <m_score__min__energy>  (32) 
-8.3499999999999996

>  <m_primary>  (32) 
energy

>  <rmsd>  (32) 
6.401928663051301

>  <m_score__min__rmsd>  (32) 
6.401928663051301

>  <meeko>  (32) 
{"free_energy": -7.1, "intermolecular_energy": -9.19, "internal_energy": -2.65, "cluster_size": 3, "cluster_id": 3, "rank_in_cluster": 3}

>  <energy>  (32) 
-7.68

>  <cluster_rmsd>  (32) 
1.78

>  <cluster>  (32) 
7

$$$$

     RDKit          3D

 52 55  0  0  0  0  0  0  0  0999 V2000
  139.4970   72.0060  220.7110 O   0  0  0  0  0  0  0  0  0  0  0  0
  139.5600   72.4380  221.8990 C   0  0  0  0  0  0  0  0  0  0  0  0
  139.4920   73.8380  222.1430 N   0  0  0  0  0  0  0  0  0  0  0  0
  139.3520   74.7880  221.0590 C   0  0  0  0  0  0  0  0  0  0  0  0
  139.2200   76.1800  221.5610 C   0  0  0  0  0  0  0  0  0  0  0  0
  140.2570   76.8530  221.7690 O   0  0  0  0  0  0  0  0  0  0  0  0
  137.9030   76.6660  221.7770 N   0  0  0  0  0  0  0  0  0  0  0  0
  137.1460   76.7310  223.0280 C   0  0  0  0  0  0  0  0  0  0  0  0
  135.6720   76.7240  222.6050 C   0  0  0  0  0  0  0  0  0  0  0  0
  135.7500   76.5330  221.1030 C   0  0  0  0  0  0  0  0  0  0  0  0
  136.9970   77.2250  220.7350 C   0  0  1  0  0  0  0  0  0  0  0  0
  137.0960   78.6970  220.8550 C   0  0  0  0  0  0  0  0  0  0  0  0
  137.7730   79.2800  221.8510 O   0  0  0  0  0  0  0  0  0  0  0  0
  139.0110   79.5210  222.2880 C   0  0  0  0  0  0  0  0  0  0  0  0
  139.8860   80.1590  221.3790 C   0  0  0  0  0  0  0  0  0  0  0  0
  141.1830   80.4590  221.7050 C   0  0  0  0  0  0  0  0  0  0  0  0
  141.6910   80.1470  222.9430 C   0  0  0  0  0  0  0  0  0  0  0  0
  143.3360   80.5010  223.4260 Cl  0  0  0  0  0  0  0  0  0  0  0  0
  140.8730   79.5260  223.8550 C   0  0  0  0  0  0  0  0  0  0  0  0
  139.5670   79.2290  223.5100 C   0  0  0  0  0  0  0  0  0  0  0  0
  139.7030   71.4970  223.0180 C   0  0  0  0  0  0  0  0  0  0  0  0
  139.3020   70.2020  222.8640 C   0  0  0  0  0  0  0  0  0  0  0  0
  139.4120   69.2590  223.8890 C   0  0  0  0  0  0  0  0  0  0  0  0
  139.9470   69.6780  225.0910 C   0  0  0  0  0  0  0  0  0  0  0  0
  140.1060   68.8400  226.1770 C   0  0  0  0  0  0  0  0  0  0  0  0
  140.6540   69.3330  227.3570 C   0  0  0  0  0  0  0  0  0  0  0  0
  140.8650   68.2780  228.7590 Cl  0  0  0  0  0  0  0  0  0  0  0  0
  141.0440   70.6560  227.4610 C   0  0  0  0  0  0  0  0  0  0  0  0
  140.8890   71.4990  226.3850 C   0  0  0  0  0  0  0  0  0  0  0  0
  140.3410   71.0040  225.2010 C   0  0  0  0  0  0  0  0  0  0  0  0
  140.2210   71.8850  224.1930 N   0  0  0  0  0  0  0  0  0  0  0  0
  139.5520   74.1320  223.1580 H   0  0  0  0  0  0  0  0  0  0  0  0
  140.2400   74.7249  220.4129 H   0  0  0  0  0  0  0  0  0  0  0  0
  138.4386   74.5374  220.4997 H   0  0  0  0  0  0  0  0  0  0  0  0
  137.3702   75.8595  223.6606 H   0  0  0  0  0  0  0  0  0  0  0  0
  137.4009   77.6240  223.6176 H   0  0  0  0  0  0  0  0  0  0  0  0
  135.1278   75.8952  223.0813 H   0  0  0  0  0  0  0  0  0  0  0  0
  135.1320   77.6362  222.8988 H   0  0  0  0  0  0  0  0  0  0  0  0
  135.8014   75.4651  220.8442 H   0  0  0  0  0  0  0  0  0  0  0  0
  134.8690   76.9254  220.5740 H   0  0  0  0  0  0  0  0  0  0  0  0
  137.1758   77.0693  219.6609 H   0  0  0  0  0  0  0  0  0  0  0  0
  137.5544   79.0528  219.9205 H   0  0  0  0  0  0  0  0  0  0  0  0
  136.0580   78.9824  221.0809 H   0  0  0  0  0  0  0  0  0  0  0  0
  139.5139   80.4230  220.3781 H   0  0  0  0  0  0  0  0  0  0  0  0
  141.8266   80.9568  220.9648 H   0  0  0  0  0  0  0  0  0  0  0  0
  141.2543   79.2665  224.8536 H   0  0  0  0  0  0  0  0  0  0  0  0
  138.9354   78.7289  224.2590 H   0  0  0  0  0  0  0  0  0  0  0  0
  138.8771   69.8894  221.8987 H   0  0  0  0  0  0  0  0  0  0  0  0
  139.0839   68.2192  223.7436 H   0  0  0  0  0  0  0  0  0  0  0  0
  139.8002   67.7855  226.1093 H   0  0  0  0  0  0  0  0  0  0  0  0
  141.4762   71.0324  228.3999 H   0  0  0  0  0  0  0  0  0  0  0  0
  141.1942   72.5533  226.4573 H   0  0  0  0  0  0  0  0  0  0  0  0
  1  2  2  0
  2  3  1  0
  3  4  1  0
  4  5  1  0
  5  6  2  0
  5  7  1  0
  7  8  1  0
  8  9  1  0
  9 10  1  0
 10 11  1  0
 11 12  1  0
 12 13  1  0
 13 14  1  0
 14 15  2  0
 15 16  1  0
 16 17  2  0
 17 18  1  0
 17 19  1  0
 19 20  2  0
  2 21  1  0
 21 22  2  0
 22 23  1  0
 23 24  2  0
 24 25  1  0
 25 26  2  0
 26 27  1  0
 26 28  1  0
 28 29  2  0
 29 30  1  0
 30 31  2  0
 11  7  1  0
 20 14  1  0
 31 21  1  0
 30 24  1  0
  3 32  1  0
  4 33  1  0
  4 34  1  0
  8 35  1  0
  8 36  1  0
  9 37  1  0
  9 38  1  0
 10 39  1  0
 10 40  1  0
 11 41  1  6
 12 42  1  0
 12 43  1  0
 15 44  1  0
 16 45  1  0
 19 46  1  0
 20 47  1  0
 22 48  1  0
 23 49  1  0
 25 50  1  0
 28 51  1  0
 29 52  1  0
M  END
>  <smiles>  (33) 
O=C(NCC(=O)N1CCC[C@H]1COc1ccc(Cl)cc1)c1ccc2cc(Cl)ccc2n1

>  <score_type>  (33) 
oracle

>  <origin>  (33) 
autodockgpu

>  <m_score__min__energy>  (33) 
-8.3499999999999996

>  <m_primary>  (33) 
energy

>  <rmsd>  (33) 
3.3915087525550907

>  <m_score__min__rmsd>  (33) 
3.3915087525550907

>  <meeko>  (33) 
{"free_energy": -7.64, "intermolecular_energy": -9.73, "internal_energy": -1.94, "cluster_size": 4, "cluster_id": 5, "rank_in_cluster": 3}

>  <energy>  (33) 
-7.39

>  <cluster_rmsd>  (33) 
0.0

>  <cluster>  (33) 
8

$$$$

     RDKit          3D

 52 55  0  0  0  0  0  0  0  0999 V2000
  138.2320   75.6110  222.7790 O   0  0  0  0  0  0  0  0  0  0  0  0
  139.2720   75.9950  222.1690 C   0  0  0  0  0  0  0  0  0  0  0  0
  139.4840   77.3840  221.9430 N   0  0  0  0  0  0  0  0  0  0  0  0
  138.5320   78.3760  222.3960 C   0  0  0  0  0  0  0  0  0  0  0  0
  139.1900   79.4490  223.1860 C   0  0  0  0  0  0  0  0  0  0  0  0
  138.5250   80.0580  224.0570 O   0  0  0  0  0  0  0  0  0  0  0  0
  140.5540   79.7210  222.8970 N   0  0  0  0  0  0  0  0  0  0  0  0
  141.7290   78.8920  223.1710 C   0  0  0  0  0  0  0  0  0  0  0  0
  142.9030   79.8770  223.2470 C   0  0  0  0  0  0  0  0  0  0  0  0
  142.2250   81.2260  223.1150 C   0  0  0  0  0  0  0  0  0  0  0  0
  141.0780   80.9470  222.2340 C   0  0  1  0  0  0  0  0  0  0  0  0
  141.2980   80.5820  220.8170 C   0  0  0  0  0  0  0  0  0  0  0  0
  140.8450   79.4330  220.3040 O   0  0  0  0  0  0  0  0  0  0  0  0
  141.1830   78.4340  219.4850 C   0  0  0  0  0  0  0  0  0  0  0  0
  142.5010   78.4600  218.9720 C   0  0  0  0  0  0  0  0  0  0  0  0
  142.9700   77.4960  218.1200 C   0  0  0  0  0  0  0  0  0  0  0  0
  142.1680   76.4530  217.7220 C   0  0  0  0  0  0  0  0  0  0  0  0
  142.7010   75.1880  216.6360 Cl  0  0  0  0  0  0  0  0  0  0  0  0
  140.8810   76.3930  218.1970 C   0  0  0  0  0  0  0  0  0  0  0  0
  140.4230   77.3740  219.0560 C   0  0  0  0  0  0  0  0  0  0  0  0
  140.2540   75.0100  221.6970 C   0  0  0  0  0  0  0  0  0  0  0  0
  139.9290   73.6840  221.6910 C   0  0  0  0  0  0  0  0  0  0  0  0
  140.8170   72.7000  221.2540 C   0  0  0  0  0  0  0  0  0  0  0  0
  142.0640   73.1070  220.8200 C   0  0  0  0  0  0  0  0  0  0  0  0
  143.0270   72.2270  220.3650 C   0  0  0  0  0  0  0  0  0  0  0  0
  144.2600   72.7110  219.9430 C   0  0  0  0  0  0  0  0  0  0  0  0
  145.5070   71.6030  219.3580 Cl  0  0  0  0  0  0  0  0  0  0  0  0
  144.5400   74.0650  219.9700 C   0  0  0  0  0  0  0  0  0  0  0  0
  143.5870   74.9490  220.4210 C   0  0  0  0  0  0  0  0  0  0  0  0
  142.3500   74.4630  220.8440 C   0  0  0  0  0  0  0  0  0  0  0  0
  141.4690   75.3860  221.2710 N   0  0  0  0  0  0  0  0  0  0  0  0
  140.3730   77.6370  221.4270 H   0  0  0  0  0  0  0  0  0  0  0  0
  138.0432   78.8271  221.5199 H   0  0  0  0  0  0  0  0  0  0  0  0
  137.7970   77.8753  223.0433 H   0  0  0  0  0  0  0  0  0  0  0  0
  141.6107   78.3575  224.1251 H   0  0  0  0  0  0  0  0  0  0  0  0
  141.8828   78.1257  222.3969 H   0  0  0  0  0  0  0  0  0  0  0  0
  143.4293   79.7914  224.2091 H   0  0  0  0  0  0  0  0  0  0  0  0
  143.6685   79.6993  222.4773 H   0  0  0  0  0  0  0  0  0  0  0  0
  141.8880   81.5947  224.0951 H   0  0  0  0  0  0  0  0  0  0  0  0
  142.8923   82.0049  222.7175 H   0  0  0  0  0  0  0  0  0  0  0  0
  140.4782   81.8648  222.1446 H   0  0  0  0  0  0  0  0  0  0  0  0
  140.8463   81.3864  220.2178 H   0  0  0  0  0  0  0  0  0  0  0  0
  142.3879   80.4379  220.7814 H   0  0  0  0  0  0  0  0  0  0  0  0
  143.1708   79.2811  219.2670 H   0  0  0  0  0  0  0  0  0  0  0  0
  144.0036   77.5572  217.7487 H   0  0  0  0  0  0  0  0  0  0  0  0
  140.2181   75.5686  217.8954 H   0  0  0  0  0  0  0  0  0  0  0  0
  139.3868   77.3012  219.4179 H   0  0  0  0  0  0  0  0  0  0  0  0
  138.9320   73.3805  222.0430 H   0  0  0  0  0  0  0  0  0  0  0  0
  140.5339   71.6371  221.2550 H   0  0  0  0  0  0  0  0  0  0  0  0
  142.8188   71.1472  220.3368 H   0  0  0  0  0  0  0  0  0  0  0  0
  145.5199   74.4335  219.6325 H   0  0  0  0  0  0  0  0  0  0  0  0
  143.7986   76.0281  220.4477 H   0  0  0  0  0  0  0  0  0  0  0  0
  1  2  2  0
  2  3  1  0
  3  4  1  0
  4  5  1  0
  5  6  2  0
  5  7  1  0
  7  8  1  0
  8  9  1  0
  9 10  1  0
 10 11  1  0
 11 12  1  0
 12 13  1  0
 13 14  1  0
 14 15  2  0
 15 16  1  0
 16 17  2  0
 17 18  1  0
 17 19  1  0
 19 20  2  0
  2 21  1  0
 21 22  2  0
 22 23  1  0
 23 24  2  0
 24 25  1  0
 25 26  2  0
 26 27  1  0
 26 28  1  0
 28 29  2  0
 29 30  1  0
 30 31  2  0
 11  7  1  0
 20 14  1  0
 31 21  1  0
 30 24  1  0
  3 32  1  0
  4 33  1  0
  4 34  1  0
  8 35  1  0
  8 36  1  0
  9 37  1  0
  9 38  1  0
 10 39  1  0
 10 40  1  0
 11 41  1  6
 12 42  1  0
 12 43  1  0
 15 44  1  0
 16 45  1  0
 19 46  1  0
 20 47  1  0
 22 48  1  0
 23 49  1  0
 25 50  1  0
 28 51  1  0
 29 52  1  0
M  END
>  <smiles>  (34) 
O=C(NCC(=O)N1CCC[C@H]1COc1ccc(Cl)cc1)c1ccc2cc(Cl)ccc2n1

>  <score_type>  (34) 
oracle

>  <origin>  (34) 
autodockgpu

>  <m_score__min__energy>  (34) 
-8.3499999999999996

>  <m_primary>  (34) 
energy

>  <rmsd>  (34) 
6.490110928319228

>  <m_score__min__rmsd>  (34) 
6.490110928319228

>  <meeko>  (34) 
{"free_energy": -5.89, "intermolecular_energy": -7.98, "internal_energy": -4.03, "cluster_size": 8, "cluster_id": 11, "rank_in_cluster": 4}

>  <energy>  (34) 
-7.25

>  <cluster_rmsd>  (34) 
0.0

>  <cluster>  (34) 
9

$$$$

     RDKit          3D

 52 55  0  0  0  0  0  0  0  0999 V2000
  137.5620   71.1860  220.9200 O   0  0  0  0  0  0  0  0  0  0  0  0
  137.8580   71.7550  222.0120 C   0  0  0  0  0  0  0  0  0  0  0  0
  137.7270   73.1670  222.1280 N   0  0  0  0  0  0  0  0  0  0  0  0
  137.2610   73.9750  221.0210 C   0  0  0  0  0  0  0  0  0  0  0  0
  138.1850   73.9020  219.8590 C   0  0  0  0  0  0  0  0  0  0  0  0
  137.7200   74.0430  218.7030 O   0  0  0  0  0  0  0  0  0  0  0  0
  139.5580   73.6700  220.1390 N   0  0  0  0  0  0  0  0  0  0  0  0
  140.4340   72.6210  219.6140 C   0  0  0  0  0  0  0  0  0  0  0  0
  141.5350   72.4560  220.6680 C   0  0  0  0  0  0  0  0  0  0  0  0
  141.0880   73.3860  221.7780 C   0  0  0  0  0  0  0  0  0  0  0  0
  140.4100   74.4770  221.0570 C   0  0  1  0  0  0  0  0  0  0  0  0
  141.1860   75.3930  220.1920 C   0  0  0  0  0  0  0  0  0  0  0  0
  141.0350   76.7210  220.2520 O   0  0  0  0  0  0  0  0  0  0  0  0
  141.3300   77.7860  221.0010 C   0  0  0  0  0  0  0  0  0  0  0  0
  141.1100   77.6570  222.3920 C   0  0  0  0  0  0  0  0  0  0  0  0
  141.3700   78.6770  223.2690 C   0  0  0  0  0  0  0  0  0  0  0  0
  141.8610   79.8820  222.8260 C   0  0  0  0  0  0  0  0  0  0  0  0
  142.2160   81.2270  223.8880 Cl  0  0  0  0  0  0  0  0  0  0  0  0
  142.0880   80.0470  221.4810 C   0  0  0  0  0  0  0  0  0  0  0  0
  141.8190   79.0080  220.6100 C   0  0  0  0  0  0  0  0  0  0  0  0
  138.3340   70.9590  223.1510 C   0  0  0  0  0  0  0  0  0  0  0  0
  137.9750   69.6460  223.2520 C   0  0  0  0  0  0  0  0  0  0  0  0
  138.3940   68.8360  224.3100 C   0  0  0  0  0  0  0  0  0  0  0  0
  139.2000   69.4080  225.2750 C   0  0  0  0  0  0  0  0  0  0  0  0
  139.6770   68.7100  226.3670 C   0  0  0  0  0  0  0  0  0  0  0  0
  140.4850   69.3540  227.3000 C   0  0  0  0  0  0  0  0  0  0  0  0
  141.1050   68.4790  228.7040 Cl  0  0  0  0  0  0  0  0  0  0  0  0
  140.8180   70.6870  227.1510 C   0  0  0  0  0  0  0  0  0  0  0  0
  140.3480   71.3910  226.0660 C   0  0  0  0  0  0  0  0  0  0  0  0
  139.5390   70.7450  225.1310 C   0  0  0  0  0  0  0  0  0  0  0  0
  139.1170   71.4960  224.0990 N   0  0  0  0  0  0  0  0  0  0  0  0
  137.9920   73.5780  223.0670 H   0  0  0  0  0  0  0  0  0  0  0  0
  136.2688   73.6157  220.7104 H   0  0  0  0  0  0  0  0  0  0  0  0
  137.2144   75.0216  221.3565 H   0  0  0  0  0  0  0  0  0  0  0  0
  139.8773   71.6809  219.4865 H   0  0  0  0  0  0  0  0  0  0  0  0
  140.8438   72.8818  218.6271 H   0  0  0  0  0  0  0  0  0  0  0  0
  141.5904   71.4160  221.0221 H   0  0  0  0  0  0  0  0  0  0  0  0
  142.5394   72.6899  220.2853 H   0  0  0  0  0  0  0  0  0  0  0  0
  140.3945   72.8764  222.4631 H   0  0  0  0  0  0  0  0  0  0  0  0
  141.9206   73.7379  222.4048 H   0  0  0  0  0  0  0  0  0  0  0  0
  139.9801   75.1675  221.7975 H   0  0  0  0  0  0  0  0  0  0  0  0
  142.2466   75.1935  220.4050 H   0  0  0  0  0  0  0  0  0  0  0  0
  140.7892   75.1597  219.1929 H   0  0  0  0  0  0  0  0  0  0  0  0
  140.7173   76.7066  222.7826 H   0  0  0  0  0  0  0  0  0  0  0  0
  141.1831   78.5295  224.3429 H   0  0  0  0  0  0  0  0  0  0  0  0
  142.4816   81.0007  221.0995 H   0  0  0  0  0  0  0  0  0  0  0  0
  142.0082   79.1700  219.5386 H   0  0  0  0  0  0  0  0  0  0  0  0
  137.3329   69.2102  222.4724 H   0  0  0  0  0  0  0  0  0  0  0  0
  138.0928   67.7799  224.3725 H   0  0  0  0  0  0  0  0  0  0  0  0
  139.4194   67.6488  226.4992 H   0  0  0  0  0  0  0  0  0  0  0  0
  141.4563   71.1833  227.8968 H   0  0  0  0  0  0  0  0  0  0  0  0
  140.6076   72.4522  225.9373 H   0  0  0  0  0  0  0  0  0  0  0  0
  1  2  2  0
  2  3  1  0
  3  4  1  0
  4  5  1  0
  5  6  2  0
  5  7  1  0
  7  8  1  0
  8  9  1  0
  9 10  1  0
 10 11  1  0
 11 12  1  0
 12 13  1  0
 13 14  1  0
 14 15  2  0
 15 16  1  0
 16 17  2  0
 17 18  1  0
 17 19  1  0
 19 20  2  0
  2 21  1  0
 21 22  2  0
 22 23  1  0
 23 24  2  0
 24 25  1  0
 25 26  2  0
 26 27  1  0
 26 28  1  0
 28 29  2  0
 29 30  1  0
 30 31  2  0
 11  7  1  0
 20 14  1  0
 31 21  1  0
 30 24  1  0
  3 32  1  0
  4 33  1  0
  4 34  1  0
  8 35  1  0
  8 36  1  0
  9 37  1  0
  9 38  1  0
 10 39  1  0
 10 40  1  0
 11 41  1  1
 12 42  1  0
 12 43  1  0
 15 44  1  0
 16 45  1  0
 19 46  1  0
 20 47  1  0
 22 48  1  0
 23 49  1  0
 25 50  1  0
 28 51  1  0
 29 52  1  0
M  END
>  <smiles>  (35) 
O=C(NCC(=O)N1CCC[C@H]1COc1ccc(Cl)cc1)c1ccc2cc(Cl)ccc2n1

>  <score_type>  (35) 
oracle

>  <origin>  (35) 
autodockgpu

>  <m_score__min__energy>  (35) 
-8.3499999999999996

>  <m_primary>  (35) 
energy

>  <rmsd>  (35) 
2.6697413238124366

>  <m_score__min__rmsd>  (35) 
2.6697413238124366

>  <meeko>  (35) 
{"free_energy": -7.49, "intermolecular_energy": -9.58, "internal_energy": -2.06, "cluster_size": 8, "cluster_id": 1, "rank_in_cluster": 5}

>  <energy>  (35) 
-7.08

>  <cluster_rmsd>  (35) 
0.0

>  <cluster>  (35) 
10

$$$$

     RDKit          3D

 52 55  0  0  0  0  0  0  0  0999 V2000
  138.9750   71.9980  220.7760 O   0  0  0  0  0  0  0  0  0  0  0  0
  139.2270   72.4360  221.9360 C   0  0  0  0  0  0  0  0  0  0  0  0
  139.2980   73.8400  222.1590 N   0  0  0  0  0  0  0  0  0  0  0  0
  139.0880   74.7860  221.0830 C   0  0  0  0  0  0  0  0  0  0  0  0
  137.6470   74.9330  220.7520 C   0  0  0  0  0  0  0  0  0  0  0  0
  137.2340   74.5250  219.6400 O   0  0  0  0  0  0  0  0  0  0  0  0
  136.8170   75.5370  221.7330 N   0  0  0  0  0  0  0  0  0  0  0  0
  136.5830   75.1180  223.1160 C   0  0  0  0  0  0  0  0  0  0  0  0
  135.2090   75.6930  223.4810 C   0  0  0  0  0  0  0  0  0  0  0  0
  134.7390   76.3060  222.1770 C   0  0  0  0  0  0  0  0  0  0  0  0
  135.9880   76.7600  221.5430 C   0  0  1  0  0  0  0  0  0  0  0  0
  136.7630   77.8730  222.1360 C   0  0  0  0  0  0  0  0  0  0  0  0
  137.9520   77.6770  222.7170 O   0  0  0  0  0  0  0  0  0  0  0  0
  139.1330   78.2600  222.9310 C   0  0  0  0  0  0  0  0  0  0  0  0
  139.1010   79.5630  223.4790 C   0  0  0  0  0  0  0  0  0  0  0  0
  140.2430   80.2710  223.7440 C   0  0  0  0  0  0  0  0  0  0  0  0
  141.4830   79.7370  223.4840 C   0  0  0  0  0  0  0  0  0  0  0  0
  142.9820   80.5830  223.7960 Cl  0  0  0  0  0  0  0  0  0  0  0  0
  141.5570   78.4730  222.9500 C   0  0  0  0  0  0  0  0  0  0  0  0
  140.3940   77.7720  222.6880 C   0  0  0  0  0  0  0  0  0  0  0  0
  139.4450   71.4990  223.0460 C   0  0  0  0  0  0  0  0  0  0  0  0
  139.0390   70.2020  222.9220 C   0  0  0  0  0  0  0  0  0  0  0  0
  139.2170   69.2630  223.9400 C   0  0  0  0  0  0  0  0  0  0  0  0
  139.8270   69.6870  225.1040 C   0  0  0  0  0  0  0  0  0  0  0  0
  140.0580   68.8520  226.1800 C   0  0  0  0  0  0  0  0  0  0  0  0
  140.6790   69.3500  227.3210 C   0  0  0  0  0  0  0  0  0  0  0  0
  140.9830   68.2990  228.7080 Cl  0  0  0  0  0  0  0  0  0  0  0  0
  141.0700   70.6740  227.3960 C   0  0  0  0  0  0  0  0  0  0  0  0
  140.8440   71.5140  226.3300 C   0  0  0  0  0  0  0  0  0  0  0  0
  140.2220   71.0130  225.1850 C   0  0  0  0  0  0  0  0  0  0  0  0
  140.0350   71.8920  224.1850 N   0  0  0  0  0  0  0  0  0  0  0  0
  139.5120   74.1390  223.1510 H   0  0  0  0  0  0  0  0  0  0  0  0
  139.4853   75.7656  221.3873 H   0  0  0  0  0  0  0  0  0  0  0  0
  139.6077   74.4092  220.1897 H   0  0  0  0  0  0  0  0  0  0  0  0
  136.5745   74.0206  223.1908 H   0  0  0  0  0  0  0  0  0  0  0  0
  137.3723   75.4751  223.7938 H   0  0  0  0  0  0  0  0  0  0  0  0
  134.5241   74.8994  223.8144 H   0  0  0  0  0  0  0  0  0  0  0  0
  135.2473   76.4146  224.3104 H   0  0  0  0  0  0  0  0  0  0  0  0
  134.2295   75.5581  221.5517 H   0  0  0  0  0  0  0  0  0  0  0  0
  134.0115   77.1182  222.3221 H   0  0  0  0  0  0  0  0  0  0  0  0
  135.7466   77.1531  220.5444 H   0  0  0  0  0  0  0  0  0  0  0  0
  136.9318   78.5972  221.3254 H   0  0  0  0  0  0  0  0  0  0  0  0
  136.1334   78.1644  222.9897 H   0  0  0  0  0  0  0  0  0  0  0  0
  138.1266   80.0233  223.6998 H   0  0  0  0  0  0  0  0  0  0  0  0
  140.1670   81.2818  224.1712 H   0  0  0  0  0  0  0  0  0  0  0  0
  142.5360   78.0212  222.7321 H   0  0  0  0  0  0  0  0  0  0  0  0
  140.4841   76.7630  222.2593 H   0  0  0  0  0  0  0  0  0  0  0  0
  138.5543   69.8850  221.9868 H   0  0  0  0  0  0  0  0  0  0  0  0
  138.8830   68.2220  223.8190 H   0  0  0  0  0  0  0  0  0  0  0  0
  139.7518   67.7964  226.1348 H   0  0  0  0  0  0  0  0  0  0  0  0
  141.5599   71.0544  228.3045 H   0  0  0  0  0  0  0  0  0  0  0  0
  141.1502   72.5694  226.3794 H   0  0  0  0  0  0  0  0  0  0  0  0
  1  2  2  0
  2  3  1  0
  3  4  1  0
  4  5  1  0
  5  6  2  0
  5  7  1  0
  7  8  1  0
  8  9  1  0
  9 10  1  0
 10 11  1  0
 11 12  1  0
 12 13  1  0
 13 14  1  0
 14 15  2  0
 15 16  1  0
 16 17  2  0
 17 18  1  0
 17 19  1  0
 19 20  2  0
  2 21  1  0
 21 22  2  0
 22 23  1  0
 23 24  2  0
 24 25  1  0
 25 26  2  0
 26 27  1  0
 26 28  1  0
 28 29  2  0
 29 30  1  0
 30 31  2  0
 11  7  1  0
 20 14  1  0
 31 21  1  0
 30 24  1  0
  3 32  1  0
  4 33  1  0
  4 34  1  0
  8 35  1  0
  8 36  1  0
  9 37  1  0
  9 38  1  0
 10 39  1  0
 10 40  1  0
 11 41  1  6
 12 42  1  0
 12 43  1  0
 15 44  1  0
 16 45  1  0
 19 46  1  0
 20 47  1  0
 22 48  1  0
 23 49  1  0
 25 50  1  0
 28 51  1  0
 29 52  1  0
M  END
>  <smiles>  (36) 
O=C(NCC(=O)N1CCC[C@H]1COc1ccc(Cl)cc1)c1ccc2cc(Cl)ccc2n1

>  <score_type>  (36) 
oracle

>  <origin>  (36) 
autodockgpu

>  <m_score__min__energy>  (36) 
-8.3499999999999996

>  <m_primary>  (36) 
energy

>  <rmsd>  (36) 
3.9060089303591545

>  <m_score__min__rmsd>  (36) 
3.9060089303591545

>  <meeko>  (36) 
{"free_energy": -7.83, "intermolecular_energy": -9.92, "internal_energy": -1.93, "cluster_size": 4, "cluster_id": 5, "rank_in_cluster": 2}

>  <energy>  (36) 
-6.97

>  <cluster_rmsd>  (36) 
1.14

>  <cluster>  (36) 
10

$$$$

     RDKit          3D

 52 55  0  0  0  0  0  0  0  0999 V2000
  140.2570   73.5820  221.9990 O   0  0  0  0  0  0  0  0  0  0  0  0
  139.6230   72.4880  221.9680 C   0  0  0  0  0  0  0  0  0  0  0  0
  138.7990   72.1830  220.8490 N   0  0  0  0  0  0  0  0  0  0  0  0
  138.6660   73.1020  219.7370 C   0  0  0  0  0  0  0  0  0  0  0  0
  137.6900   74.1820  220.0290 C   0  0  0  0  0  0  0  0  0  0  0  0
  136.4960   74.0360  219.6730 O   0  0  0  0  0  0  0  0  0  0  0  0
  138.1800   75.3320  220.7040 N   0  0  0  0  0  0  0  0  0  0  0  0
  138.2580   75.5830  222.1450 C   0  0  0  0  0  0  0  0  0  0  0  0
  138.2490   77.1100  222.2850 C   0  0  0  0  0  0  0  0  0  0  0  0
  138.0460   77.5820  220.8590 C   0  0  0  0  0  0  0  0  0  0  0  0
  138.7320   76.5550  220.0580 C   0  0  1  0  0  0  0  0  0  0  0  0
  140.2050   76.4200  220.1220 C   0  0  0  0  0  0  0  0  0  0  0  0
  140.9100   76.8670  221.1670 O   0  0  0  0  0  0  0  0  0  0  0  0
  141.2870   77.9880  221.7870 C   0  0  0  0  0  0  0  0  0  0  0  0
  141.3570   77.9320  223.1980 C   0  0  0  0  0  0  0  0  0  0  0  0
  141.7270   79.0140  223.9530 C   0  0  0  0  0  0  0  0  0  0  0  0
  142.0470   80.2120  223.3610 C   0  0  0  0  0  0  0  0  0  0  0  0
  142.5280   81.6340  224.2620 Cl  0  0  0  0  0  0  0  0  0  0  0  0
  141.9900   80.3080  221.9920 C   0  0  0  0  0  0  0  0  0  0  0  0
  141.6140   79.2060  221.2450 C   0  0  0  0  0  0  0  0  0  0  0  0
  139.7380   71.5380  223.0820 C   0  0  0  0  0  0  0  0  0  0  0  0
  139.2570   70.2690  222.9390 C   0  0  0  0  0  0  0  0  0  0  0  0
  139.3360   69.3200  223.9600 C   0  0  0  0  0  0  0  0  0  0  0  0
  139.9250   69.7040  225.1490 C   0  0  0  0  0  0  0  0  0  0  0  0
  140.0610   68.8560  226.2300 C   0  0  0  0  0  0  0  0  0  0  0  0
  140.6660   69.3140  227.3960 C   0  0  0  0  0  0  0  0  0  0  0  0
  140.8490   68.2450  228.7920 Cl  0  0  0  0  0  0  0  0  0  0  0  0
  141.1360   70.6110  227.4910 C   0  0  0  0  0  0  0  0  0  0  0  0
  141.0060   71.4640  226.4190 C   0  0  0  0  0  0  0  0  0  0  0  0
  140.3990   71.0040  225.2490 C   0  0  0  0  0  0  0  0  0  0  0  0
  140.3070   71.8920  224.2450 N   0  0  0  0  0  0  0  0  0  0  0  0
  138.2960   71.2530  220.8860 H   0  0  0  0  0  0  0  0  0  0  0  0
  139.6469   73.5547  219.5298 H   0  0  0  0  0  0  0  0  0  0  0  0
  138.3005   72.5363  218.8673 H   0  0  0  0  0  0  0  0  0  0  0  0
  137.3922   75.1427  222.6612 H   0  0  0  0  0  0  0  0  0  0  0  0
  139.1557   75.1330  222.5940 H   0  0  0  0  0  0  0  0  0  0  0  0
  137.4245   77.4428  222.9327 H   0  0  0  0  0  0  0  0  0  0  0  0
  139.1642   77.5083  222.7473 H   0  0  0  0  0  0  0  0  0  0  0  0
  136.9760   77.6270  220.6080 H   0  0  0  0  0  0  0  0  0  0  0  0
  138.4362   78.5952  220.6827 H   0  0  0  0  0  0  0  0  0  0  0  0
  138.5671   76.7788  218.9937 H   0  0  0  0  0  0  0  0  0  0  0  0
  140.4201   75.3442  220.0421 H   0  0  0  0  0  0  0  0  0  0  0  0
  140.5353   77.0903  219.3148 H   0  0  0  0  0  0  0  0  0  0  0  0
  141.1063   76.9892  223.7062 H   0  0  0  0  0  0  0  0  0  0  0  0
  141.7684   78.9222  225.0484 H   0  0  0  0  0  0  0  0  0  0  0  0
  142.2418   81.2553  221.4927 H   0  0  0  0  0  0  0  0  0  0  0  0
  141.5747   79.3122  220.1508 H   0  0  0  0  0  0  0  0  0  0  0  0
  138.7902   69.9834  221.9848 H   0  0  0  0  0  0  0  0  0  0  0  0
  138.9429   68.3019  223.8224 H   0  0  0  0  0  0  0  0  0  0  0  0
  139.6921   67.8215  226.1695 H   0  0  0  0  0  0  0  0  0  0  0  0
  141.6118   70.9594  228.4196 H   0  0  0  0  0  0  0  0  0  0  0  0
  141.3766   72.4977  226.4833 H   0  0  0  0  0  0  0  0  0  0  0  0
  1  2  2  0
  2  3  1  0
  3  4  1  0
  4  5  1  0
  5  6  2  0
  5  7  1  0
  7  8  1  0
  8  9  1  0
  9 10  1  0
 10 11  1  0
 11 12  1  0
 12 13  1  0
 13 14  1  0
 14 15  2  0
 15 16  1  0
 16 17  2  0
 17 18  1  0
 17 19  1  0
 19 20  2  0
  2 21  1  0
 21 22  2  0
 22 23  1  0
 23 24  2  0
 24 25  1  0
 25 26  2  0
 26 27  1  0
 26 28  1  0
 28 29  2  0
 29 30  1  0
 30 31  2  0
 11  7  1  0
 20 14  1  0
 31 21  1  0
 30 24  1  0
  3 32  1  0
  4 33  1  0
  4 34  1  0
  8 35  1  0
  8 36  1  0
  9 37  1  0
  9 38  1  0
 10 39  1  0
 10 40  1  0
 11 41  1  6
 12 42  1  0
 12 43  1  0
 15 44  1  0
 16 45  1  0
 19 46  1  0
 20 47  1  0
 22 48  1  0
 23 49  1  0
 25 50  1  0
 28 51  1  0
 29 52  1  0
M  END
>  <smiles>  (37) 
O=C(NCC(=O)N1CCC[C@H]1COc1ccc(Cl)cc1)c1ccc2cc(Cl)ccc2n1

>  <score_type>  (37) 
oracle

>  <origin>  (37) 
autodockgpu

>  <m_score__min__energy>  (37) 
-8.3499999999999996

>  <m_primary>  (37) 
energy

>  <rmsd>  (37) 
2.7294346525917668

>  <m_score__min__rmsd>  (37) 
2.7294346525917668

>  <meeko>  (37) 
{"free_energy": -7.89, "intermolecular_energy": -9.98, "internal_energy": -1.59, "cluster_size": 8, "cluster_id": 1, "rank_in_cluster": 3}

>  <energy>  (37) 
-6.95

>  <cluster_rmsd>  (37) 
1.13

>  <cluster>  (37) 
10

$$$$

     RDKit          3D

 52 55  0  0  0  0  0  0  0  0999 V2000
  139.2250   71.4470  220.8370 O   0  0  0  0  0  0  0  0  0  0  0  0
  139.3880   71.9420  221.9900 C   0  0  0  0  0  0  0  0  0  0  0  0
  139.4070   73.3560  222.1530 N   0  0  0  0  0  0  0  0  0  0  0  0
  139.2440   74.2480  221.0240 C   0  0  0  0  0  0  0  0  0  0  0  0
  140.4020   75.1670  220.8770 C   0  0  0  0  0  0  0  0  0  0  0  0
  140.7850   75.8270  221.8730 O   0  0  0  0  0  0  0  0  0  0  0  0
  141.0110   75.2400  219.5960 N   0  0  0  0  0  0  0  0  0  0  0  0
  140.4820   74.7950  218.3060 C   0  0  0  0  0  0  0  0  0  0  0  0
  141.7180   74.5310  217.4370 C   0  0  0  0  0  0  0  0  0  0  0  0
  142.8660   74.7550  218.4010 C   0  0  0  0  0  0  0  0  0  0  0  0
  142.3580   75.8040  219.3000 C   0  0  1  0  0  0  0  0  0  0  0  0
  142.1230   77.1740  218.7900 C   0  0  0  0  0  0  0  0  0  0  0  0
  141.5430   78.1180  219.5400 O   0  0  0  0  0  0  0  0  0  0  0  0
  141.7130   78.8390  220.6500 C   0  0  0  0  0  0  0  0  0  0  0  0
  141.8170   80.2390  220.4820 C   0  0  0  0  0  0  0  0  0  0  0  0
  141.9960   81.0890  221.5410 C   0  0  0  0  0  0  0  0  0  0  0  0
  142.0850   80.6100  222.8250 C   0  0  0  0  0  0  0  0  0  0  0  0
  142.3130   81.6360  224.2240 Cl  0  0  0  0  0  0  0  0  0  0  0  0
  141.9900   79.2540  223.0320 C   0  0  0  0  0  0  0  0  0  0  0  0
  141.8100   78.4100  221.9520 C   0  0  0  0  0  0  0  0  0  0  0  0
  139.5570   71.0610  223.1520 C   0  0  0  0  0  0  0  0  0  0  0  0
  139.1200   69.7690  223.0880 C   0  0  0  0  0  0  0  0  0  0  0  0
  139.2520   68.8820  224.1580 C   0  0  0  0  0  0  0  0  0  0  0  0
  139.8470   69.3520  225.3120 C   0  0  0  0  0  0  0  0  0  0  0  0
  140.0330   68.5710  226.4350 C   0  0  0  0  0  0  0  0  0  0  0  0
  140.6420   69.1140  227.5620 C   0  0  0  0  0  0  0  0  0  0  0  0
  140.8890   68.1310  229.0100 Cl  0  0  0  0  0  0  0  0  0  0  0  0
  141.0660   70.4300  227.5770 C   0  0  0  0  0  0  0  0  0  0  0  0
  140.8850   71.2170  226.4620 C   0  0  0  0  0  0  0  0  0  0  0  0
  140.2760   70.6710  225.3320 C   0  0  0  0  0  0  0  0  0  0  0  0
  140.1330   71.4990  224.2820 N   0  0  0  0  0  0  0  0  0  0  0  0
  139.5480   73.7040  223.1420 H   0  0  0  0  0  0  0  0  0  0  0  0
  139.1465   73.6481  220.1071 H   0  0  0  0  0  0  0  0  0  0  0  0
  138.3436   74.8562  221.1953 H   0  0  0  0  0  0  0  0  0  0  0  0
  139.8916   73.8749  218.4274 H   0  0  0  0  0  0  0  0  0  0  0  0
  139.8130   75.5426  217.8548 H   0  0  0  0  0  0  0  0  0  0  0  0
  141.7190   73.5000  217.0536 H   0  0  0  0  0  0  0  0  0  0  0  0
  141.7676   75.1748  216.5464 H   0  0  0  0  0  0  0  0  0  0  0  0
  143.0959   73.8356  218.9595 H   0  0  0  0  0  0  0  0  0  0  0  0
  143.8012   75.0386  217.8960 H   0  0  0  0  0  0  0  0  0  0  0  0
  143.1056   75.9768  220.0882 H   0  0  0  0  0  0  0  0  0  0  0  0
  143.1087   77.5698  218.5040 H   0  0  0  0  0  0  0  0  0  0  0  0
  141.3691   77.0040  218.0072 H   0  0  0  0  0  0  0  0  0  0  0  0
  141.7520   80.6593  219.4676 H   0  0  0  0  0  0  0  0  0  0  0  0
  142.0696   82.1716  221.3603 H   0  0  0  0  0  0  0  0  0  0  0  0
  142.0568   78.8434  224.0503 H   0  0  0  0  0  0  0  0  0  0  0  0
  141.7402   77.3296  222.1466 H   0  0  0  0  0  0  0  0  0  0  0  0
  138.6471   69.4144  222.1603 H   0  0  0  0  0  0  0  0  0  0  0  0
  138.8943   67.8444  224.0843 H   0  0  0  0  0  0  0  0  0  0  0  0
  139.7007   67.5224  226.4388 H   0  0  0  0  0  0  0  0  0  0  0  0
  141.5455   70.8460  228.4753 H   0  0  0  0  0  0  0  0  0  0  0  0
  141.2172   72.2656  226.4622 H   0  0  0  0  0  0  0  0  0  0  0  0
  1  2  2  0
  2  3  1  0
  3  4  1  0
  4  5  1  0
  5  6  2  0
  5  7  1  0
  7  8  1  0
  8  9  1  0
  9 10  1  0
 10 11  1  0
 11 12  1  0
 12 13  1  0
 13 14  1  0
 14 15  2  0
 15 16  1  0
 16 17  2  0
 17 18  1  0
 17 19  1  0
 19 20  2  0
  2 21  1  0
 21 22  2  0
 22 23  1  0
 23 24  2  0
 24 25  1  0
 25 26  2  0
 26 27  1  0
 26 28  1  0
 28 29  2  0
 29 30  1  0
 30 31  2  0
 11  7  1  0
 20 14  1  0
 31 21  1  0
 30 24  1  0
  3 32  1  0
  4 33  1  0
  4 34  1  0
  8 35  1  0
  8 36  1  0
  9 37  1  0
  9 38  1  0
 10 39  1  0
 10 40  1  0
 11 41  1  1
 12 42  1  0
 12 43  1  0
 15 44  1  0
 16 45  1  0
 19 46  1  0
 20 47  1  0
 22 48  1  0
 23 49  1  0
 25 50  1  0
 28 51  1  0
 29 52  1  0
M  END
>  <smiles>  (38) 
O=C(NCC(=O)N1CCC[C@H]1COc1ccc(Cl)cc1)c1ccc2cc(Cl)ccc2n1

>  <score_type>  (38) 
oracle

>  <origin>  (38) 
autodockgpu

>  <m_score__min__energy>  (38) 
-8.3499999999999996

>  <m_primary>  (38) 
energy

>  <rmsd>  (38) 
1.5690475051716382

>  <m_score__min__rmsd>  (38) 
1.5690475051716382

>  <meeko>  (38) 
{"free_energy": -7.96, "intermolecular_energy": -10.05, "internal_energy": -1.75, "cluster_size": 8, "cluster_id": 1, "rank_in_cluster": 2}

>  <energy>  (38) 
-6.28

>  <cluster_rmsd>  (38) 
0.91

>  <cluster>  (38) 
10

$$$$

     RDKit          3D

 52 55  0  0  0  0  0  0  0  0999 V2000
  139.8950   72.1190  220.6500 O   0  0  0  0  0  0  0  0  0  0  0  0
  139.7960   72.5340  221.8420 C   0  0  0  0  0  0  0  0  0  0  0  0
  139.6360   73.9250  222.0930 N   0  0  0  0  0  0  0  0  0  0  0  0
  139.5840   74.8860  221.0110 C   0  0  0  0  0  0  0  0  0  0  0  0
  140.0890   76.2180  221.4340 C   0  0  0  0  0  0  0  0  0  0  0  0
  140.4940   76.3690  222.6110 O   0  0  0  0  0  0  0  0  0  0  0  0
  140.0780   77.2520  220.4600 N   0  0  0  0  0  0  0  0  0  0  0  0
  138.9750   78.1350  220.0760 C   0  0  0  0  0  0  0  0  0  0  0  0
  139.2940   78.5720  218.6420 C   0  0  0  0  0  0  0  0  0  0  0  0
  140.5360   77.7700  218.3090 C   0  0  0  0  0  0  0  0  0  0  0  0
  141.2280   77.6570  219.6040 C   0  0  1  0  0  0  0  0  0  0  0  0
  141.8100   78.8580  220.2450 C   0  0  0  0  0  0  0  0  0  0  0  0
  141.4900   79.2180  221.4930 O   0  0  0  0  0  0  0  0  0  0  0  0
  140.5370   79.8180  222.2100 C   0  0  0  0  0  0  0  0  0  0  0  0
  140.1460   79.1700  223.4040 C   0  0  0  0  0  0  0  0  0  0  0  0
  139.1770   79.6800  224.2270 C   0  0  0  0  0  0  0  0  0  0  0  0
  138.5370   80.8570  223.9200 C   0  0  0  0  0  0  0  0  0  0  0  0
  137.2910   81.5660  224.9230 Cl  0  0  0  0  0  0  0  0  0  0  0  0
  138.8870   81.5170  222.7670 C   0  0  0  0  0  0  0  0  0  0  0  0
  139.8670   80.9870  221.9470 C   0  0  0  0  0  0  0  0  0  0  0  0
  139.8460   71.5810  222.9580 C   0  0  0  0  0  0  0  0  0  0  0  0
  139.3280   70.3280  222.7990 C   0  0  0  0  0  0  0  0  0  0  0  0
  139.3450   69.3770  223.8210 C   0  0  0  0  0  0  0  0  0  0  0  0
  139.9110   69.7420  225.0280 C   0  0  0  0  0  0  0  0  0  0  0  0
  139.9860   68.8900  226.1120 C   0  0  0  0  0  0  0  0  0  0  0  0
  140.5710   69.3270  227.2960 C   0  0  0  0  0  0  0  0  0  0  0  0
  140.6770   68.2530  228.6950 Cl  0  0  0  0  0  0  0  0  0  0  0  0
  141.0800   70.6090  227.4060 C   0  0  0  0  0  0  0  0  0  0  0  0
  141.0090   71.4650  226.3310 C   0  0  0  0  0  0  0  0  0  0  0  0
  140.4240   71.0250  225.1440 C   0  0  0  0  0  0  0  0  0  0  0  0
  140.3910   71.9160  224.1380 N   0  0  0  0  0  0  0  0  0  0  0  0
  139.5600   74.2040  223.1110 H   0  0  0  0  0  0  0  0  0  0  0  0
  140.2015   74.5187  220.1781 H   0  0  0  0  0  0  0  0  0  0  0  0
  138.5340   74.9993  220.7033 H   0  0  0  0  0  0  0  0  0  0  0  0
  138.0176   77.5946  220.1111 H   0  0  0  0  0  0  0  0  0  0  0  0
  138.8784   78.9937  220.7567 H   0  0  0  0  0  0  0  0  0  0  0  0
  138.4679   78.3228  217.9598 H   0  0  0  0  0  0  0  0  0  0  0  0
  139.4396   79.6577  218.5422 H   0  0  0  0  0  0  0  0  0  0  0  0
  140.2699   76.7772  217.9172 H   0  0  0  0  0  0  0  0  0  0  0  0
  141.1552   78.2411  217.5314 H   0  0  0  0  0  0  0  0  0  0  0  0
  142.1116   77.0156  219.4706 H   0  0  0  0  0  0  0  0  0  0  0  0
  142.9006   78.7150  220.2353 H   0  0  0  0  0  0  0  0  0  0  0  0
  141.3742   79.6735  219.6491 H   0  0  0  0  0  0  0  0  0  0  0  0
  140.6360   78.2250  223.6813 H   0  0  0  0  0  0  0  0  0  0  0  0
  138.9073   79.1400  225.1466 H   0  0  0  0  0  0  0  0  0  0  0  0
  138.3910   82.4611  222.4975 H   0  0  0  0  0  0  0  0  0  0  0  0
  140.1250   81.5353  221.0289 H   0  0  0  0  0  0  0  0  0  0  0  0
  138.8811   70.0579  221.8308 H   0  0  0  0  0  0  0  0  0  0  0  0
  138.9227   68.3724  223.6709 H   0  0  0  0  0  0  0  0  0  0  0  0
  139.5843   67.8686  226.0395 H   0  0  0  0  0  0  0  0  0  0  0  0
  141.5392   70.9423  228.3484 H   0  0  0  0  0  0  0  0  0  0  0  0
  141.4098   72.4865  226.4072 H   0  0  0  0  0  0  0  0  0  0  0  0
  1  2  2  0
  2  3  1  0
  3  4  1  0
  4  5  1  0
  5  6  2  0
  5  7  1  0
  7  8  1  0
  8  9  1  0
  9 10  1  0
 10 11  1  0
 11 12  1  0
 12 13  1  0
 13 14  1  0
 14 15  2  0
 15 16  1  0
 16 17  2  0
 17 18  1  0
 17 19  1  0
 19 20  2  0
  2 21  1  0
 21 22  2  0
 22 23  1  0
 23 24  2  0
 24 25  1  0
 25 26  2  0
 26 27  1  0
 26 28  1  0
 28 29  2  0
 29 30  1  0
 30 31  2  0
 11  7  1  0
 20 14  1  0
 31 21  1  0
 30 24  1  0
  3 32  1  0
  4 33  1  0
  4 34  1  0
  8 35  1  0
  8 36  1  0
  9 37  1  0
  9 38  1  0
 10 39  1  0
 10 40  1  0
 11 41  1  6
 12 42  1  0
 12 43  1  0
 15 44  1  0
 16 45  1  0
 19 46  1  0
 20 47  1  0
 22 48  1  0
 23 49  1  0
 25 50  1  0
 28 51  1  0
 29 52  1  0
M  END
>  <smiles>  (39) 
O=C(NCC(=O)N1CCC[C@H]1COc1ccc(Cl)cc1)c1ccc2cc(Cl)ccc2n1

>  <score_type>  (39) 
oracle

>  <origin>  (39) 
autodockgpu

>  <m_score__min__energy>  (39) 
-8.3499999999999996

>  <m_primary>  (39) 
energy

>  <rmsd>  (39) 
1.8125318063833042

>  <m_score__min__rmsd>  (39) 
1.8125318063833042

>  <meeko>  (39) 
{"free_energy": -7.39, "intermolecular_energy": -9.48, "internal_energy": -2.09, "cluster_size": 1, "cluster_id": 8, "rank_in_cluster": 1}

>  <energy>  (39) 
-7.07

>  <cluster_rmsd>  (39) 
0.0

>  <cluster>  (39) 
11

$$$$

     RDKit          3D

 52 55  0  0  0  0  0  0  0  0999 V2000
  138.1450   75.6050  222.7460 O   0  0  0  0  0  0  0  0  0  0  0  0
  139.2050   76.0160  222.1910 C   0  0  0  0  0  0  0  0  0  0  0  0
  139.4240   77.4140  222.0380 N   0  0  0  0  0  0  0  0  0  0  0  0
  138.4560   78.3850  222.5030 C   0  0  0  0  0  0  0  0  0  0  0  0
  139.0330   79.7520  222.5630 C   0  0  0  0  0  0  0  0  0  0  0  0
  138.2670   80.7410  222.4760 O   0  0  0  0  0  0  0  0  0  0  0  0
  140.4420   79.8530  222.7150 N   0  0  0  0  0  0  0  0  0  0  0  0
  141.3280   79.0640  223.5730 C   0  0  0  0  0  0  0  0  0  0  0  0
  142.5480   79.9600  223.8190 C   0  0  0  0  0  0  0  0  0  0  0  0
  142.1590   81.2590  223.1410 C   0  0  0  0  0  0  0  0  0  0  0  0
  141.3300   80.8170  222.0070 C   0  0  1  0  0  0  0  0  0  0  0  0
  141.9390   80.0640  220.8870 C   0  0  0  0  0  0  0  0  0  0  0  0
  141.2570   79.1350  220.2070 O   0  0  0  0  0  0  0  0  0  0  0  0
  141.4140   78.1290  219.3440 C   0  0  0  0  0  0  0  0  0  0  0  0
  142.6590   78.0620  218.6760 C   0  0  0  0  0  0  0  0  0  0  0  0
  142.9450   77.0800  217.7650 C   0  0  0  0  0  0  0  0  0  0  0  0
  142.0220   76.1090  217.4580 C   0  0  0  0  0  0  0  0  0  0  0  0
  142.3190   74.8270  216.3050 Cl  0  0  0  0  0  0  0  0  0  0  0  0
  140.7990   76.1400  218.0840 C   0  0  0  0  0  0  0  0  0  0  0  0
  140.5270   77.1390  219.0010 C   0  0  0  0  0  0  0  0  0  0  0  0
  140.2040   75.0540  221.7080 C   0  0  0  0  0  0  0  0  0  0  0  0
  139.9050   73.7220  221.6940 C   0  0  0  0  0  0  0  0  0  0  0  0
  140.8100   72.7570  221.2480 C   0  0  0  0  0  0  0  0  0  0  0  0
  142.0460   73.1910  220.8090 C   0  0  0  0  0  0  0  0  0  0  0  0
  143.0230   72.3340  220.3450 C   0  0  0  0  0  0  0  0  0  0  0  0
  144.2450   72.8440  219.9190 C   0  0  0  0  0  0  0  0  0  0  0  0
  145.5100   71.7640  219.3220 Cl  0  0  0  0  0  0  0  0  0  0  0  0
  144.4990   74.2030  219.9540 C   0  0  0  0  0  0  0  0  0  0  0  0
  143.5310   75.0660  220.4150 C   0  0  0  0  0  0  0  0  0  0  0  0
  142.3060   74.5530  220.8410 C   0  0  0  0  0  0  0  0  0  0  0  0
  141.4100   75.4560  221.2780 N   0  0  0  0  0  0  0  0  0  0  0  0
  140.3300   77.6900  221.5650 H   0  0  0  0  0  0  0  0  0  0  0  0
  137.5979   78.3904  221.8148 H   0  0  0  0  0  0  0  0  0  0  0  0
  138.1455   78.0995  223.5189 H   0  0  0  0  0  0  0  0  0  0  0  0
  140.8296   78.8208  224.5230 H   0  0  0  0  0  0  0  0  0  0  0  0
  141.6067   78.1068  223.1082 H   0  0  0  0  0  0  0  0  0  0  0  0
  142.7171   80.1110  224.8954 H   0  0  0  0  0  0  0  0  0  0  0  0
  143.4849   79.5326  223.4322 H   0  0  0  0  0  0  0  0  0  0  0  0
  141.5828   81.9018  223.8229 H   0  0  0  0  0  0  0  0  0  0  0  0
  143.0276   81.8582  222.8303 H   0  0  0  0  0  0  0  0  0  0  0  0
  140.9359   81.7087  221.4975 H   0  0  0  0  0  0  0  0  0  0  0  0
  142.2588   80.8141  220.1487 H   0  0  0  0  0  0  0  0  0  0  0  0
  142.7035   79.4621  221.4000 H   0  0  0  0  0  0  0  0  0  0  0  0
  143.4222   78.8232  218.8952 H   0  0  0  0  0  0  0  0  0  0  0  0
  143.9281   77.0683  217.2717 H   0  0  0  0  0  0  0  0  0  0  0  0
  140.0414   75.3754  217.8573 H   0  0  0  0  0  0  0  0  0  0  0  0
  139.5393   77.1403  219.4852 H   0  0  0  0  0  0  0  0  0  0  0  0
  138.9151   73.3973  222.0470 H   0  0  0  0  0  0  0  0  0  0  0  0
  140.5481   71.6886  221.2462 H   0  0  0  0  0  0  0  0  0  0  0  0
  142.8359   71.2505  220.3121 H   0  0  0  0  0  0  0  0  0  0  0  0
  145.4703   74.5924  219.6149 H   0  0  0  0  0  0  0  0  0  0  0  0
  143.7215   76.1489  220.4471 H   0  0  0  0  0  0  0  0  0  0  0  0
  1  2  2  0
  2  3  1  0
  3  4  1  0
  4  5  1  0
  5  6  2  0
  5  7  1  0
  7  8  1  0
  8  9  1  0
  9 10  1  0
 10 11  1  0
 11 12  1  0
 12 13  1  0
 13 14  1  0
 14 15  2  0
 15 16  1  0
 16 17  2  0
 17 18  1  0
 17 19  1  0
 19 20  2  0
  2 21  1  0
 21 22  2  0
 22 23  1  0
 23 24  2  0
 24 25  1  0
 25 26  2  0
 26 27  1  0
 26 28  1  0
 28 29  2  0
 29 30  1  0
 30 31  2  0
 11  7  1  0
 20 14  1  0
 31 21  1  0
 30 24  1  0
  3 32  1  0
  4 33  1  0
  4 34  1  0
  8 35  1  0
  8 36  1  0
  9 37  1  0
  9 38  1  0
 10 39  1  0
 10 40  1  0
 11 41  1  6
 12 42  1  0
 12 43  1  0
 15 44  1  0
 16 45  1  0
 19 46  1  0
 20 47  1  0
 22 48  1  0
 23 49  1  0
 25 50  1  0
 28 51  1  0
 29 52  1  0
M  END
>  <smiles>  (40) 
O=C(NCC(=O)N1CCC[C@H]1COc1ccc(Cl)cc1)c1ccc2cc(Cl)ccc2n1

>  <score_type>  (40) 
oracle

>  <origin>  (40) 
autodockgpu

>  <m_score__min__energy>  (40) 
-8.3499999999999996

>  <m_primary>  (40) 
energy

>  <rmsd>  (40) 
6.565546614482573

>  <m_score__min__rmsd>  (40) 
6.565546614482573

>  <meeko>  (40) 
{"free_energy": -5.57, "intermolecular_energy": -7.66, "internal_energy": -4.03, "cluster_size": 8, "cluster_id": 11, "rank_in_cluster": 7}

>  <energy>  (40) 
-6.03

>  <cluster_rmsd>  (40) 
1.75

>  <cluster>  (40) 
11

$$$$

     RDKit          3D

 52 55  0  0  0  0  0  0  0  0999 V2000
  137.6600   71.1310  220.6860 O   0  0  0  0  0  0  0  0  0  0  0  0
  138.0650   71.7450  221.7160 C   0  0  0  0  0  0  0  0  0  0  0  0
  138.1050   73.1670  221.7180 N   0  0  0  0  0  0  0  0  0  0  0  0
  137.6910   73.9350  220.5620 C   0  0  0  0  0  0  0  0  0  0  0  0
  136.9380   75.1550  220.9530 C   0  0  0  0  0  0  0  0  0  0  0  0
  135.7170   75.2300  220.6790 O   0  0  0  0  0  0  0  0  0  0  0  0
  137.6650   76.1750  221.6220 N   0  0  0  0  0  0  0  0  0  0  0  0
  137.2270   77.0410  222.7190 C   0  0  0  0  0  0  0  0  0  0  0  0
  138.1040   78.2950  222.6130 C   0  0  0  0  0  0  0  0  0  0  0  0
  138.9020   78.0470  221.3490 C   0  0  0  0  0  0  0  0  0  0  0  0
  139.0680   76.5830  221.3310 C   0  0  1  0  0  0  0  0  0  0  0  0
  139.9070   75.9160  222.3510 C   0  0  0  0  0  0  0  0  0  0  0  0
  140.3330   74.6560  222.2020 O   0  0  0  0  0  0  0  0  0  0  0  0
  141.2490   73.9180  221.5710 C   0  0  0  0  0  0  0  0  0  0  0  0
  142.2120   74.6230  220.8130 C   0  0  0  0  0  0  0  0  0  0  0  0
  143.2030   73.9820  220.1170 C   0  0  0  0  0  0  0  0  0  0  0  0
  143.3010   72.6110  220.1270 C   0  0  0  0  0  0  0  0  0  0  0  0
  144.5400   71.7280  219.2620 Cl  0  0  0  0  0  0  0  0  0  0  0  0
  142.3840   71.8900  220.8510 C   0  0  0  0  0  0  0  0  0  0  0  0
  141.3890   72.5520  221.5470 C   0  0  0  0  0  0  0  0  0  0  0  0
  138.4920   70.9910  222.9020 C   0  0  0  0  0  0  0  0  0  0  0  0
  138.0110   69.7300  223.1080 C   0  0  0  0  0  0  0  0  0  0  0  0
  138.3780   68.9620  224.2150 C   0  0  0  0  0  0  0  0  0  0  0  0
  139.2600   69.5210  225.1200 C   0  0  0  0  0  0  0  0  0  0  0  0
  139.6960   68.8610  226.2510 C   0  0  0  0  0  0  0  0  0  0  0  0
  140.5860   69.4880  227.1180 C   0  0  0  0  0  0  0  0  0  0  0  0
  141.1560   68.6610  228.5720 Cl  0  0  0  0  0  0  0  0  0  0  0  0
  141.0420   70.7680  226.8630 C   0  0  0  0  0  0  0  0  0  0  0  0
  140.6130   71.4350  225.7380 C   0  0  0  0  0  0  0  0  0  0  0  0
  139.7220   70.8040  224.8690 C   0  0  0  0  0  0  0  0  0  0  0  0
  139.3470   71.5160  223.7920 N   0  0  0  0  0  0  0  0  0  0  0  0
  138.4540   73.6170  222.6100 H   0  0  0  0  0  0  0  0  0  0  0  0
  138.5844   74.2343  219.9943 H   0  0  0  0  0  0  0  0  0  0  0  0
  137.0284   73.3044  219.9510 H   0  0  0  0  0  0  0  0  0  0  0  0
  136.1646   77.3020  222.6043 H   0  0  0  0  0  0  0  0  0  0  0  0
  137.3279   76.5491  223.6977 H   0  0  0  0  0  0  0  0  0  0  0  0
  137.4880   79.2016  222.5202 H   0  0  0  0  0  0  0  0  0  0  0  0
  138.7351   78.4588  223.4990 H   0  0  0  0  0  0  0  0  0  0  0  0
  138.3507   78.3915  220.4616 H   0  0  0  0  0  0  0  0  0  0  0  0
  139.8597   78.5878  221.3330 H   0  0  0  0  0  0  0  0  0  0  0  0
  139.5758   76.3028  220.3963 H   0  0  0  0  0  0  0  0  0  0  0  0
  140.8091   76.5356  222.4616 H   0  0  0  0  0  0  0  0  0  0  0  0
  139.2138   75.8279  223.2005 H   0  0  0  0  0  0  0  0  0  0  0  0
  142.1641   75.7215  220.7810 H   0  0  0  0  0  0  0  0  0  0  0  0
  143.9308   74.5732  219.5418 H   0  0  0  0  0  0  0  0  0  0  0  0
  142.4404   70.7918  220.8774 H   0  0  0  0  0  0  0  0  0  0  0  0
  140.6664   71.9482  222.1155 H   0  0  0  0  0  0  0  0  0  0  0  0
  137.3093   69.3038  222.3759 H   0  0  0  0  0  0  0  0  0  0  0  0
  137.9789   67.9475  224.3615 H   0  0  0  0  0  0  0  0  0  0  0  0
  139.3411   67.8424  226.4665 H   0  0  0  0  0  0  0  0  0  0  0  0
  141.7453   71.2517  227.5568 H   0  0  0  0  0  0  0  0  0  0  0  0
  140.9686   72.4542  225.5263 H   0  0  0  0  0  0  0  0  0  0  0  0
  1  2  2  0
  2  3  1  0
  3  4  1  0
  4  5  1  0
  5  6  2  0
  5  7  1  0
  7  8  1  0
  8  9  1  0
  9 10  1  0
 10 11  1  0
 11 12  1  0
 12 13  1  0
 13 14  1  0
 14 15  2  0
 15 16  1  0
 16 17  2  0
 17 18  1  0
 17 19  1  0
 19 20  2  0
  2 21  1  0
 21 22  2  0
 22 23  1  0
 23 24  2  0
 24 25  1  0
 25 26  2  0
 26 27  1  0
 26 28  1  0
 28 29  2  0
 29 30  1  0
 30 31  2  0
 11  7  1  0
 20 14  1  0
 31 21  1  0
 30 24  1  0
  3 32  1  0
  4 33  1  0
  4 34  1  0
  8 35  1  0
  8 36  1  0
  9 37  1  0
  9 38  1  0
 10 39  1  0
 10 40  1  0
 11 41  1  6
 12 42  1  0
 12 43  1  0
 15 44  1  0
 16 45  1  0
 19 46  1  0
 20 47  1  0
 22 48  1  0
 23 49  1  0
 25 50  1  0
 28 51  1  0
 29 52  1  0
M  END
>  <smiles>  (41) 
O=C(NCC(=O)N1CCC[C@H]1COc1ccc(Cl)cc1)c1ccc2cc(Cl)ccc2n1

>  <score_type>  (41) 
oracle

>  <origin>  (41) 
autodockgpu

>  <m_score__min__energy>  (41) 
-8.3499999999999996

>  <m_primary>  (41) 
energy

>  <rmsd>  (41) 
2.8503472469656317

>  <m_score__min__rmsd>  (41) 
2.8503472469656317

>  <meeko>  (41) 
{"free_energy": -6.95, "intermolecular_energy": -9.04, "internal_energy": -2.96, "cluster_size": 4, "cluster_id": 10, "rank_in_cluster": 3}

>  <energy>  (41) 
-5.99

>  <cluster_rmsd>  (41) 
1.76

>  <cluster>  (41) 
11

$$$$

     RDKit          3D

 52 55  0  0  0  0  0  0  0  0999 V2000
  139.9390   73.7880  222.2900 O   0  0  0  0  0  0  0  0  0  0  0  0
  139.9340   72.5470  222.0440 C   0  0  0  0  0  0  0  0  0  0  0  0
  139.8870   72.0960  220.6950 N   0  0  0  0  0  0  0  0  0  0  0  0
  139.8440   73.0300  219.5890 C   0  0  0  0  0  0  0  0  0  0  0  0
  141.1100   73.0200  218.8110 C   0  0  0  0  0  0  0  0  0  0  0  0
  141.4520   71.9680  218.2200 O   0  0  0  0  0  0  0  0  0  0  0  0
  141.8640   74.2230  218.7890 N   0  0  0  0  0  0  0  0  0  0  0  0
  142.5430   74.8560  217.6560 C   0  0  0  0  0  0  0  0  0  0  0  0
  143.6590   75.7020  218.2810 C   0  0  0  0  0  0  0  0  0  0  0  0
  143.5640   75.3570  219.7540 C   0  0  0  0  0  0  0  0  0  0  0  0
  142.1250   75.1120  219.9550 C   0  0  1  0  0  0  0  0  0  0  0  0
  141.1570   76.2250  219.8440 C   0  0  0  0  0  0  0  0  0  0  0  0
  140.7610   76.9270  220.9130 O   0  0  0  0  0  0  0  0  0  0  0  0
  141.1380   77.9140  221.7280 C   0  0  0  0  0  0  0  0  0  0  0  0
  141.7270   79.0450  221.1170 C   0  0  0  0  0  0  0  0  0  0  0  0
  142.1590   80.1230  221.8420 C   0  0  0  0  0  0  0  0  0  0  0  0
  142.0370   80.1500  223.2100 C   0  0  0  0  0  0  0  0  0  0  0  0
  142.5660   81.4930  224.2000 Cl  0  0  0  0  0  0  0  0  0  0  0  0
  141.4700   79.0700  223.8430 C   0  0  0  0  0  0  0  0  0  0  0  0
  141.0400   77.9880  223.0960 C   0  0  0  0  0  0  0  0  0  0  0  0
  139.9760   71.5770  223.1470 C   0  0  0  0  0  0  0  0  0  0  0  0
  139.5070   70.3110  222.9490 C   0  0  0  0  0  0  0  0  0  0  0  0
  139.5190   69.3440  223.9560 C   0  0  0  0  0  0  0  0  0  0  0  0
  140.0280   69.7070  225.1880 C   0  0  0  0  0  0  0  0  0  0  0  0
  140.0920   68.8390  226.2610 C   0  0  0  0  0  0  0  0  0  0  0  0
  140.6180   69.2770  227.4720 C   0  0  0  0  0  0  0  0  0  0  0  0
  140.7090   68.1830  228.8580 Cl  0  0  0  0  0  0  0  0  0  0  0  0
  141.0790   70.5720  227.6210 C   0  0  0  0  0  0  0  0  0  0  0  0
  141.0190   71.4440  226.5580 C   0  0  0  0  0  0  0  0  0  0  0  0
  140.4920   71.0040  225.3430 C   0  0  0  0  0  0  0  0  0  0  0  0
  140.4660   71.9110  224.3500 N   0  0  0  0  0  0  0  0  0  0  0  0
  139.8850   71.0470  220.5590 H   0  0  0  0  0  0  0  0  0  0  0  0
  139.0137   72.7547  218.9221 H   0  0  0  0  0  0  0  0  0  0  0  0
  139.7019   74.0407  219.9993 H   0  0  0  0  0  0  0  0  0  0  0  0
  142.9659   74.0942  216.9846 H   0  0  0  0  0  0  0  0  0  0  0  0
  141.8548   75.4641  217.0505 H   0  0  0  0  0  0  0  0  0  0  0  0
  144.6418   75.4241  217.8724 H   0  0  0  0  0  0  0  0  0  0  0  0
  143.5515   76.7781  218.0800 H   0  0  0  0  0  0  0  0  0  0  0  0
  144.1527   74.4573  219.9863 H   0  0  0  0  0  0  0  0  0  0  0  0
  143.9603   76.1486  220.4070 H   0  0  0  0  0  0  0  0  0  0  0  0
  141.9718   74.7766  220.9914 H   0  0  0  0  0  0  0  0  0  0  0  0
  141.5996   76.9503  219.1454 H   0  0  0  0  0  0  0  0  0  0  0  0
  140.2337   75.7017  219.5547 H   0  0  0  0  0  0  0  0  0  0  0  0
  141.8419   79.0592  220.0231 H   0  0  0  0  0  0  0  0  0  0  0  0
  142.6105   80.9803  221.3213 H   0  0  0  0  0  0  0  0  0  0  0  0
  141.3587   79.0659  224.9374 H   0  0  0  0  0  0  0  0  0  0  0  0
  140.5929   77.1361  223.6294 H   0  0  0  0  0  0  0  0  0  0  0  0
  139.1052   70.0427  221.9608 H   0  0  0  0  0  0  0  0  0  0  0  0
  139.1366   68.3287  223.7748 H   0  0  0  0  0  0  0  0  0  0  0  0
  139.7285   67.8059  226.1581 H   0  0  0  0  0  0  0  0  0  0  0  0
  141.4919   70.9038  228.5850 H   0  0  0  0  0  0  0  0  0  0  0  0
  141.3825   72.4767  226.6649 H   0  0  0  0  0  0  0  0  0  0  0  0
  1  2  2  0
  2  3  1  0
  3  4  1  0
  4  5  1  0
  5  6  2  0
  5  7  1  0
  7  8  1  0
  8  9  1  0
  9 10  1  0
 10 11  1  0
 11 12  1  0
 12 13  1  0
 13 14  1  0
 14 15  2  0
 15 16  1  0
 16 17  2  0
 17 18  1  0
 17 19  1  0
 19 20  2  0
  2 21  1  0
 21 22  2  0
 22 23  1  0
 23 24  2  0
 24 25  1  0
 25 26  2  0
 26 27  1  0
 26 28  1  0
 28 29  2  0
 29 30  1  0
 30 31  2  0
 11  7  1  0
 20 14  1  0
 31 21  1  0
 30 24  1  0
  3 32  1  0
  4 33  1  0
  4 34  1  0
  8 35  1  0
  8 36  1  0
  9 37  1  0
  9 38  1  0
 10 39  1  0
 10 40  1  0
 11 41  1  1
 12 42  1  0
 12 43  1  0
 15 44  1  0
 16 45  1  0
 19 46  1  0
 20 47  1  0
 22 48  1  0
 23 49  1  0
 25 50  1  0
 28 51  1  0
 29 52  1  0
M  END
>  <smiles>  (42) 
O=C(NCC(=O)N1CCC[C@H]1COc1ccc(Cl)cc1)c1ccc2cc(Cl)ccc2n1

>  <score_type>  (42) 
oracle

>  <origin>  (42) 
autodockgpu

>  <m_score__min__energy>  (42) 
-8.3499999999999996

>  <m_primary>  (42) 
energy

>  <rmsd>  (42) 
2.5628326280152414

>  <m_score__min__rmsd>  (42) 
2.5628326280152414

>  <meeko>  (42) 
{"free_energy": -8.35, "intermolecular_energy": -10.44, "internal_energy": -1.49, "cluster_size": 8, "cluster_id": 1, "rank_in_cluster": 1}

>  <energy>  (42) 
-5.89

>  <cluster_rmsd>  (42) 
1.73

>  <cluster>  (42) 
11

$$$$

     RDKit          3D

 52 55  0  0  0  0  0  0  0  0999 V2000
  137.3760   71.3070  220.4850 O   0  0  0  0  0  0  0  0  0  0  0  0
  138.0860   71.8760  221.3650 C   0  0  0  0  0  0  0  0  0  0  0  0
  138.5200   73.2150  221.1630 N   0  0  0  0  0  0  0  0  0  0  0  0
  138.1680   73.9500  219.9660 C   0  0  0  0  0  0  0  0  0  0  0  0
  139.2960   74.0030  219.0010 C   0  0  0  0  0  0  0  0  0  0  0  0
  139.1400   73.5190  217.8550 O   0  0  0  0  0  0  0  0  0  0  0  0
  140.5010   74.6070  219.4490 N   0  0  0  0  0  0  0  0  0  0  0  0
  140.9180   76.0070  219.3390 C   0  0  0  0  0  0  0  0  0  0  0  0
  142.4500   75.9720  219.3850 C   0  0  0  0  0  0  0  0  0  0  0  0
  142.7580   74.4880  219.4010 C   0  0  0  0  0  0  0  0  0  0  0  0
  141.6220   73.9120  220.1420 C   0  0  1  0  0  0  0  0  0  0  0  0
  141.4500   74.2000  221.5830 C   0  0  0  0  0  0  0  0  0  0  0  0
  140.4160   74.9130  222.0440 O   0  0  0  0  0  0  0  0  0  0  0  0
  140.0430   76.1580  222.3490 C   0  0  0  0  0  0  0  0  0  0  0  0
  141.0790   77.0620  222.6790 C   0  0  0  0  0  0  0  0  0  0  0  0
  140.8290   78.3670  223.0140 C   0  0  0  0  0  0  0  0  0  0  0  0
  139.5450   78.8550  223.0450 C   0  0  0  0  0  0  0  0  0  0  0  0
  139.1530   80.5080  223.4630 Cl  0  0  0  0  0  0  0  0  0  0  0  0
  138.5100   78.0080  222.7320 C   0  0  0  0  0  0  0  0  0  0  0  0
  138.7790   76.6940  222.3970 C   0  0  0  0  0  0  0  0  0  0  0  0
  138.4580   71.1530  222.5890 C   0  0  0  0  0  0  0  0  0  0  0  0
  137.8580   69.9620  222.8770 C   0  0  0  0  0  0  0  0  0  0  0  0
  138.1680   69.2280  224.0240 C   0  0  0  0  0  0  0  0  0  0  0  0
  139.1190   69.7470  224.8810 C   0  0  0  0  0  0  0  0  0  0  0  0
  139.5090   69.1140  226.0440 C   0  0  0  0  0  0  0  0  0  0  0  0
  140.4740   69.6980  226.8590 C   0  0  0  0  0  0  0  0  0  0  0  0
  140.9880   68.9050  228.3530 Cl  0  0  0  0  0  0  0  0  0  0  0  0
  141.0510   70.9080  226.5210 C   0  0  0  0  0  0  0  0  0  0  0  0
  140.6690   71.5470  225.3640 C   0  0  0  0  0  0  0  0  0  0  0  0
  139.7020   70.9600  224.5470 C   0  0  0  0  0  0  0  0  0  0  0  0
  139.3790   71.6410  223.4340 N   0  0  0  0  0  0  0  0  0  0  0  0
  139.1100   73.6310  221.9370 H   0  0  0  0  0  0  0  0  0  0  0  0
  137.3102   73.4574  219.4847 H   0  0  0  0  0  0  0  0  0  0  0  0
  137.9184   74.9807  220.2580 H   0  0  0  0  0  0  0  0  0  0  0  0
  140.5699   76.4402  218.3897 H   0  0  0  0  0  0  0  0  0  0  0  0
  140.4955   76.6274  220.1432 H   0  0  0  0  0  0  0  0  0  0  0  0
  142.8831   76.4559  218.4972 H   0  0  0  0  0  0  0  0  0  0  0  0
  142.8697   76.5107  220.2473 H   0  0  0  0  0  0  0  0  0  0  0  0
  142.8062   74.0849  218.3787 H   0  0  0  0  0  0  0  0  0  0  0  0
  143.7312   74.2561  219.8583 H   0  0  0  0  0  0  0  0  0  0  0  0
  141.7237   72.8167  220.1358 H   0  0  0  0  0  0  0  0  0  0  0  0
  141.4013   73.2243  222.0886 H   0  0  0  0  0  0  0  0  0  0  0  0
  142.3008   74.8661  221.7891 H   0  0  0  0  0  0  0  0  0  0  0  0
  142.1197   76.7060  222.6664 H   0  0  0  0  0  0  0  0  0  0  0  0
  141.6683   79.0334  223.2617 H   0  0  0  0  0  0  0  0  0  0  0  0
  137.4725   78.3733  222.7478 H   0  0  0  0  0  0  0  0  0  0  0  0
  137.9299   76.0382  222.1543 H   0  0  0  0  0  0  0  0  0  0  0  0
  137.1036   69.5659  222.1813 H   0  0  0  0  0  0  0  0  0  0  0  0
  137.6720   68.2697  224.2376 H   0  0  0  0  0  0  0  0  0  0  0  0
  139.0584   68.1509  226.3257 H   0  0  0  0  0  0  0  0  0  0  0  0
  141.8126   71.3582  227.1746 H   0  0  0  0  0  0  0  0  0  0  0  0
  141.1211   72.5105  225.0859 H   0  0  0  0  0  0  0  0  0  0  0  0
  1  2  2  0
  2  3  1  0
  3  4  1  0
  4  5  1  0
  5  6  2  0
  5  7  1  0
  7  8  1  0
  8  9  1  0
  9 10  1  0
 10 11  1  0
 11 12  1  0
 12 13  1  0
 13 14  1  0
 14 15  2  0
 15 16  1  0
 16 17  2  0
 17 18  1  0
 17 19  1  0
 19 20  2  0
  2 21  1  0
 21 22  2  0
 22 23  1  0
 23 24  2  0
 24 25  1  0
 25 26  2  0
 26 27  1  0
 26 28  1  0
 28 29  2  0
 29 30  1  0
 30 31  2  0
 11  7  1  0
 20 14  1  0
 31 21  1  0
 30 24  1  0
  3 32  1  0
  4 33  1  0
  4 34  1  0
  8 35  1  0
  8 36  1  0
  9 37  1  0
  9 38  1  0
 10 39  1  0
 10 40  1  0
 11 41  1  1
 12 42  1  0
 12 43  1  0
 15 44  1  0
 16 45  1  0
 19 46  1  0
 20 47  1  0
 22 48  1  0
 23 49  1  0
 25 50  1  0
 28 51  1  0
 29 52  1  0
M  END
>  <smiles>  (43) 
O=C(NCC(=O)N1CCC[C@H]1COc1ccc(Cl)cc1)c1ccc2cc(Cl)ccc2n1

>  <score_type>  (43) 
oracle

>  <origin>  (43) 
autodockgpu

>  <m_score__min__energy>  (43) 
-8.3499999999999996

>  <m_primary>  (43) 
energy

>  <rmsd>  (43) 
2.276780109567228

>  <m_score__min__rmsd>  (43) 
2.276780109567228

>  <meeko>  (43) 
{"free_energy": -6.63, "intermolecular_energy": -8.71, "internal_energy": -3.05, "cluster_size": 8, "cluster_id": 1, "rank_in_cluster": 8}

>  <energy>  (43) 
-5.85

>  <cluster_rmsd>  (43) 
1.74

>  <cluster>  (43) 
11

$$$$

     RDKit          3D

 52 55  0  0  0  0  0  0  0  0999 V2000
  139.7720   72.7130  220.7650 O   0  0  0  0  0  0  0  0  0  0  0  0
  139.6230   73.0190  221.9840 C   0  0  0  0  0  0  0  0  0  0  0  0
  139.3740   74.3720  222.3460 N   0  0  0  0  0  0  0  0  0  0  0  0
  139.2860   75.4160  221.3470 C   0  0  0  0  0  0  0  0  0  0  0  0
  139.0750   76.7510  221.9640 C   0  0  0  0  0  0  0  0  0  0  0  0
  137.9680   77.0090  222.4930 O   0  0  0  0  0  0  0  0  0  0  0  0
  140.1610   77.6660  221.9120 N   0  0  0  0  0  0  0  0  0  0  0  0
  141.3390   77.7370  222.7780 C   0  0  0  0  0  0  0  0  0  0  0  0
  141.8070   79.1950  222.6960 C   0  0  0  0  0  0  0  0  0  0  0  0
  140.7360   79.8500  221.8480 C   0  0  0  0  0  0  0  0  0  0  0  0
  140.3210   78.7750  220.9300 C   0  0  1  0  0  0  0  0  0  0  0  0
  141.2570   78.2740  219.8990 C   0  0  0  0  0  0  0  0  0  0  0  0
  141.4090   76.9670  219.6570 O   0  0  0  0  0  0  0  0  0  0  0  0
  142.2760   75.9610  219.7920 C   0  0  0  0  0  0  0  0  0  0  0  0
  141.7390   74.6550  219.7190 C   0  0  0  0  0  0  0  0  0  0  0  0
  142.5220   73.5370  219.8450 C   0  0  0  0  0  0  0  0  0  0  0  0
  143.8760   73.6420  220.0510 C   0  0  0  0  0  0  0  0  0  0  0  0
  144.9360   72.2600  220.2210 Cl  0  0  0  0  0  0  0  0  0  0  0  0
  144.4370   74.8940  220.1290 C   0  0  0  0  0  0  0  0  0  0  0  0
  143.6320   76.0120  220.0010 C   0  0  0  0  0  0  0  0  0  0  0  0
  139.7090   71.9800  223.0190 C   0  0  0  0  0  0  0  0  0  0  0  0
  139.1880   70.7420  222.7760 C   0  0  0  0  0  0  0  0  0  0  0  0
  139.2370   69.7120  223.7180 C   0  0  0  0  0  0  0  0  0  0  0  0
  139.8390   69.9810  224.9310 C   0  0  0  0  0  0  0  0  0  0  0  0
  139.9490   69.0450  225.9410 C   0  0  0  0  0  0  0  0  0  0  0  0
  140.5700   69.3890  227.1370 C   0  0  0  0  0  0  0  0  0  0  0  0
  140.7200   68.2060  228.4420 Cl  0  0  0  0  0  0  0  0  0  0  0  0
  141.0810   70.6580  227.3340 C   0  0  0  0  0  0  0  0  0  0  0  0
  140.9770   71.5980  226.3340 C   0  0  0  0  0  0  0  0  0  0  0  0
  140.3550   71.2520  225.1340 C   0  0  0  0  0  0  0  0  0  0  0  0
  140.2900   72.2210  224.2040 N   0  0  0  0  0  0  0  0  0  0  0  0
  139.2600   74.5590  223.3820 H   0  0  0  0  0  0  0  0  0  0  0  0
  140.2210   75.4348  220.7678 H   0  0  0  0  0  0  0  0  0  0  0  0
  138.4246   75.1981  220.6985 H   0  0  0  0  0  0  0  0  0  0  0  0
  141.0742   77.4739  223.8127 H   0  0  0  0  0  0  0  0  0  0  0  0
  142.1244   77.0335  222.4644 H   0  0  0  0  0  0  0  0  0  0  0  0
  141.8541   79.6518  223.6955 H   0  0  0  0  0  0  0  0  0  0  0  0
  142.8181   79.3026  222.2763 H   0  0  0  0  0  0  0  0  0  0  0  0
  139.8921   80.1844  222.4693 H   0  0  0  0  0  0  0  0  0  0  0  0
  141.0939   80.7480  221.3232 H   0  0  0  0  0  0  0  0  0  0  0  0
  139.4819   79.1424  220.3210 H   0  0  0  0  0  0  0  0  0  0  0  0
  140.9411   78.7289  218.9486 H   0  0  0  0  0  0  0  0  0  0  0  0
  142.2352   78.5469  220.3216 H   0  0  0  0  0  0  0  0  0  0  0  0
  140.6581   74.5322  219.5558 H   0  0  0  0  0  0  0  0  0  0  0  0
  142.0593   72.5412  219.7802 H   0  0  0  0  0  0  0  0  0  0  0  0
  145.5190   75.0066  220.2921 H   0  0  0  0  0  0  0  0  0  0  0  0
  144.1072   77.0016  220.0709 H   0  0  0  0  0  0  0  0  0  0  0  0
  138.7124   70.5486  221.8032 H   0  0  0  0  0  0  0  0  0  0  0  0
  138.8109   68.7213  223.5011 H   0  0  0  0  0  0  0  0  0  0  0  0
  139.5468   68.0310  225.7998 H   0  0  0  0  0  0  0  0  0  0  0  0
  141.5686   70.9156  228.2858 H   0  0  0  0  0  0  0  0  0  0  0  0
  141.3800   72.6112  226.4793 H   0  0  0  0  0  0  0  0  0  0  0  0
  1  2  2  0
  2  3  1  0
  3  4  1  0
  4  5  1  0
  5  6  2  0
  5  7  1  0
  7  8  1  0
  8  9  1  0
  9 10  1  0
 10 11  1  0
 11 12  1  0
 12 13  1  0
 13 14  1  0
 14 15  2  0
 15 16  1  0
 16 17  2  0
 17 18  1  0
 17 19  1  0
 19 20  2  0
  2 21  1  0
 21 22  2  0
 22 23  1  0
 23 24  2  0
 24 25  1  0
 25 26  2  0
 26 27  1  0
 26 28  1  0
 28 29  2  0
 29 30  1  0
 30 31  2  0
 11  7  1  0
 20 14  1  0
 31 21  1  0
 30 24  1  0
  3 32  1  0
  4 33  1  0
  4 34  1  0
  8 35  1  0
  8 36  1  0
  9 37  1  0
  9 38  1  0
 10 39  1  0
 10 40  1  0
 11 41  1  6
 12 42  1  0
 12 43  1  0
 15 44  1  0
 16 45  1  0
 19 46  1  0
 20 47  1  0
 22 48  1  0
 23 49  1  0
 25 50  1  0
 28 51  1  0
 29 52  1  0
M  END
>  <smiles>  (44) 
O=C(NCC(=O)N1CCC[C@H]1COc1ccc(Cl)cc1)c1ccc2cc(Cl)ccc2n1

>  <score_type>  (44) 
oracle

>  <origin>  (44) 
autodockgpu

>  <m_score__min__energy>  (44) 
-8.3499999999999996

>  <m_primary>  (44) 
energy

>  <rmsd>  (44) 
3.210147412998272

>  <m_score__min__rmsd>  (44) 
3.210147412998272

>  <meeko>  (44) 
{"free_energy": -7.97, "intermolecular_energy": -10.06, "internal_energy": -2.12, "cluster_size": 6, "cluster_id": 2, "rank_in_cluster": 2}

>  <energy>  (44) 
-5.72

>  <cluster_rmsd>  (44) 
1.88

>  <cluster>  (44) 
11

$$$$

     RDKit          3D

 52 55  0  0  0  0  0  0  0  0999 V2000
  138.1710   75.6500  222.6830 O   0  0  0  0  0  0  0  0  0  0  0  0
  139.2520   76.0540  222.1630 C   0  0  0  0  0  0  0  0  0  0  0  0
  139.4870   77.4500  222.0230 N   0  0  0  0  0  0  0  0  0  0  0  0
  138.5140   78.4270  222.4640 C   0  0  0  0  0  0  0  0  0  0  0  0
  139.1490   79.5260  223.2370 C   0  0  0  0  0  0  0  0  0  0  0  0
  138.4530   80.1790  224.0500 O   0  0  0  0  0  0  0  0  0  0  0  0
  140.5280   79.7700  222.9990 N   0  0  0  0  0  0  0  0  0  0  0  0
  141.6760   78.9180  223.3170 C   0  0  0  0  0  0  0  0  0  0  0  0
  142.8650   79.8790  223.4370 C   0  0  0  0  0  0  0  0  0  0  0  0
  142.2200   81.2420  223.2800 C   0  0  0  0  0  0  0  0  0  0  0  0
  141.1010   80.9860  222.3570 C   0  0  1  0  0  0  0  0  0  0  0  0
  141.3670   80.6160  220.9490 C   0  0  0  0  0  0  0  0  0  0  0  0
  140.9050   79.4780  220.4170 O   0  0  0  0  0  0  0  0  0  0  0  0
  141.2100   78.5220  219.5370 C   0  0  0  0  0  0  0  0  0  0  0  0
  142.4940   78.5930  218.9510 C   0  0  0  0  0  0  0  0  0  0  0  0
  142.9280   77.6750  218.0310 C   0  0  0  0  0  0  0  0  0  0  0  0
  142.1210   76.6350  217.6360 C   0  0  0  0  0  0  0  0  0  0  0  0
  142.6080   75.4270  216.4680 Cl  0  0  0  0  0  0  0  0  0  0  0  0
  140.8640   76.5310  218.1820 C   0  0  0  0  0  0  0  0  0  0  0  0
  140.4420   77.4670  219.1080 C   0  0  0  0  0  0  0  0  0  0  0  0
  140.2560   75.0850  221.7060 C   0  0  0  0  0  0  0  0  0  0  0  0
  139.9960   73.7480  221.8030 C   0  0  0  0  0  0  0  0  0  0  0  0
  140.9090   72.7770  221.3860 C   0  0  0  0  0  0  0  0  0  0  0  0
  142.1110   73.2100  220.8610 C   0  0  0  0  0  0  0  0  0  0  0  0
  143.0920   72.3460  220.4160 C   0  0  0  0  0  0  0  0  0  0  0  0
  144.2780   72.8550  219.8980 C   0  0  0  0  0  0  0  0  0  0  0  0
  145.5470   71.7680  219.3230 Cl  0  0  0  0  0  0  0  0  0  0  0  0
  144.4930   74.2190  219.8220 C   0  0  0  0  0  0  0  0  0  0  0  0
  143.5220   75.0880  220.2640 C   0  0  0  0  0  0  0  0  0  0  0  0
  142.3320   74.5760  220.7820 C   0  0  0  0  0  0  0  0  0  0  0  0
  141.4300   75.4850  221.1930 N   0  0  0  0  0  0  0  0  0  0  0  0
  140.4100   77.7200  221.5800 H   0  0  0  0  0  0  0  0  0  0  0  0
  138.0134   78.8543  221.5826 H   0  0  0  0  0  0  0  0  0  0  0  0
  137.7920   77.9193  223.1204 H   0  0  0  0  0  0  0  0  0  0  0  0
  141.5115   78.3866  224.2660 H   0  0  0  0  0  0  0  0  0  0  0  0
  141.8436   78.1485  222.5491 H   0  0  0  0  0  0  0  0  0  0  0  0
  143.3530   79.7833  224.4182 H   0  0  0  0  0  0  0  0  0  0  0  0
  143.6548   79.6856  222.6962 H   0  0  0  0  0  0  0  0  0  0  0  0
  141.8545   81.6182  224.2469 H   0  0  0  0  0  0  0  0  0  0  0  0
  142.9175   82.0068  222.9076 H   0  0  0  0  0  0  0  0  0  0  0  0
  140.5232   81.9155  222.2464 H   0  0  0  0  0  0  0  0  0  0  0  0
  140.9596   81.4317  220.3336 H   0  0  0  0  0  0  0  0  0  0  0  0
  142.4535   80.4445  220.9557 H   0  0  0  0  0  0  0  0  0  0  0  0
  143.1673   79.4123  219.2431 H   0  0  0  0  0  0  0  0  0  0  0  0
  143.9365   77.7718  217.6026 H   0  0  0  0  0  0  0  0  0  0  0  0
  140.1977   75.7080  217.8841 H   0  0  0  0  0  0  0  0  0  0  0  0
  139.4303   77.3604  219.5264 H   0  0  0  0  0  0  0  0  0  0  0  0
  139.0330   73.4242  222.2247 H   0  0  0  0  0  0  0  0  0  0  0  0
  140.6789   71.7048  221.4726 H   0  0  0  0  0  0  0  0  0  0  0  0
  142.9358   71.2585  220.4711 H   0  0  0  0  0  0  0  0  0  0  0  0
  145.4360   74.6075  219.4100 H   0  0  0  0  0  0  0  0  0  0  0  0
  143.6823   76.1749  220.2095 H   0  0  0  0  0  0  0  0  0  0  0  0
  1  2  2  0
  2  3  1  0
  3  4  1  0
  4  5  1  0
  5  6  2  0
  5  7  1  0
  7  8  1  0
  8  9  1  0
  9 10  1  0
 10 11  1  0
 11 12  1  0
 12 13  1  0
 13 14  1  0
 14 15  2  0
 15 16  1  0
 16 17  2  0
 17 18  1  0
 17 19  1  0
 19 20  2  0
  2 21  1  0
 21 22  2  0
 22 23  1  0
 23 24  2  0
 24 25  1  0
 25 26  2  0
 26 27  1  0
 26 28  1  0
 28 29  2  0
 29 30  1  0
 30 31  2  0
 11  7  1  0
 20 14  1  0
 31 21  1  0
 30 24  1  0
  3 32  1  0
  4 33  1  0
  4 34  1  0
  8 35  1  0
  8 36  1  0
  9 37  1  0
  9 38  1  0
 10 39  1  0
 10 40  1  0
 11 41  1  6
 12 42  1  0
 12 43  1  0
 15 44  1  0
 16 45  1  0
 19 46  1  0
 20 47  1  0
 22 48  1  0
 23 49  1  0
 25 50  1  0
 28 51  1  0
 29 52  1  0
M  END
>  <smiles>  (45) 
O=C(NCC(=O)N1CCC[C@H]1COc1ccc(Cl)cc1)c1ccc2cc(Cl)ccc2n1

>  <score_type>  (45) 
oracle

>  <origin>  (45) 
autodockgpu

>  <m_score__min__energy>  (45) 
-8.3499999999999996

>  <m_primary>  (45) 
energy

>  <rmsd>  (45) 
6.582743130188777

>  <m_score__min__rmsd>  (45) 
6.582743130188777

>  <meeko>  (45) 
{"free_energy": -5.99, "intermolecular_energy": -8.08, "internal_energy": -3.97, "cluster_size": 8, "cluster_id": 11, "rank_in_cluster": 3}

>  <energy>  (45) 
-5.57

>  <cluster_rmsd>  (45) 
1.82

>  <cluster>  (45) 
11

$$$$

     RDKit          3D

 52 55  0  0  0  0  0  0  0  0999 V2000
  137.4460   71.2130  220.9550 O   0  0  0  0  0  0  0  0  0  0  0  0
  138.0600   71.7870  221.9010 C   0  0  0  0  0  0  0  0  0  0  0  0
  138.3150   73.1850  221.8280 N   0  0  0  0  0  0  0  0  0  0  0  0
  137.8870   73.9720  220.6910 C   0  0  0  0  0  0  0  0  0  0  0  0
  138.7040   73.6850  219.4840 C   0  0  0  0  0  0  0  0  0  0  0  0
  138.1560   73.1480  218.4920 O   0  0  0  0  0  0  0  0  0  0  0  0
  140.0780   74.0410  219.5340 N   0  0  0  0  0  0  0  0  0  0  0  0
  140.7700   75.1170  218.8220 C   0  0  0  0  0  0  0  0  0  0  0  0
  142.2340   74.6660  218.7410 C   0  0  0  0  0  0  0  0  0  0  0  0
  142.1950   73.2750  219.3390 C   0  0  0  0  0  0  0  0  0  0  0  0
  141.1260   73.3660  220.3490 C   0  0  1  0  0  0  0  0  0  0  0  0
  141.3100   74.2060  221.5540 C   0  0  0  0  0  0  0  0  0  0  0  0
  140.3600   75.0460  221.9810 O   0  0  0  0  0  0  0  0  0  0  0  0
  140.1500   76.3190  222.3230 C   0  0  0  0  0  0  0  0  0  0  0  0
  138.8010   76.7220  222.4490 C   0  0  0  0  0  0  0  0  0  0  0  0
  138.4520   78.0020  222.7910 C   0  0  0  0  0  0  0  0  0  0  0  0
  139.4110   78.9570  223.0280 C   0  0  0  0  0  0  0  0  0  0  0  0
  139.0380   80.6090  223.4690 Cl  0  0  0  0  0  0  0  0  0  0  0  0
  140.7340   78.6050  222.9160 C   0  0  0  0  0  0  0  0  0  0  0  0
  141.0690   77.3100  222.5680 C   0  0  0  0  0  0  0  0  0  0  0  0
  138.5070   71.0130  223.0660 C   0  0  0  0  0  0  0  0  0  0  0  0
  138.0520   69.7380  223.2430 C   0  0  0  0  0  0  0  0  0  0  0  0
  138.4390   68.9510  224.3290 C   0  0  0  0  0  0  0  0  0  0  0  0
  139.3130   69.5040  225.2440 C   0  0  0  0  0  0  0  0  0  0  0  0
  139.7670   68.8250  226.3570 C   0  0  0  0  0  0  0  0  0  0  0  0
  140.6490   69.4480  227.2350 C   0  0  0  0  0  0  0  0  0  0  0  0
  141.2410   68.5970  228.6660 Cl  0  0  0  0  0  0  0  0  0  0  0  0
  141.0790   70.7430  227.0110 C   0  0  0  0  0  0  0  0  0  0  0  0
  140.6320   71.4280  225.9040 C   0  0  0  0  0  0  0  0  0  0  0  0
  139.7490   70.8020  225.0240 C   0  0  0  0  0  0  0  0  0  0  0  0
  139.3560   71.5330  223.9650 N   0  0  0  0  0  0  0  0  0  0  0  0
  138.8330   73.6030  222.6510 H   0  0  0  0  0  0  0  0  0  0  0  0
  136.8344   73.7390  220.4724 H   0  0  0  0  0  0  0  0  0  0  0  0
  138.0117   75.0352  220.9440 H   0  0  0  0  0  0  0  0  0  0  0  0
  140.3493   75.2458  217.8138 H   0  0  0  0  0  0  0  0  0  0  0  0
  140.6647   76.0846  219.3346 H   0  0  0  0  0  0  0  0  0  0  0  0
  142.5821   74.6384  217.6979 H   0  0  0  0  0  0  0  0  0  0  0  0
  142.9260   75.3433  219.2630 H   0  0  0  0  0  0  0  0  0  0  0  0
  141.9499   72.5243  218.5733 H   0  0  0  0  0  0  0  0  0  0  0  0
  143.1608   72.9634  219.7635 H   0  0  0  0  0  0  0  0  0  0  0  0
  140.9739   72.3676  220.7849 H   0  0  0  0  0  0  0  0  0  0  0  0
  141.5063   73.5136  222.3859 H   0  0  0  0  0  0  0  0  0  0  0  0
  142.1055   74.8964  221.2370 H   0  0  0  0  0  0  0  0  0  0  0  0
  138.0058   75.9842  222.2666 H   0  0  0  0  0  0  0  0  0  0  0  0
  137.3884   78.2690  222.8771 H   0  0  0  0  0  0  0  0  0  0  0  0
  141.5222   79.3494  223.1022 H   0  0  0  0  0  0  0  0  0  0  0  0
  142.1362   77.0577  222.4820 H   0  0  0  0  0  0  0  0  0  0  0  0
  137.3556   69.3159  222.5035 H   0  0  0  0  0  0  0  0  0  0  0  0
  138.0607   67.9254  224.4517 H   0  0  0  0  0  0  0  0  0  0  0  0
  139.4327   67.7948  226.5493 H   0  0  0  0  0  0  0  0  0  0  0  0
  141.7751   71.2235  227.7143 H   0  0  0  0  0  0  0  0  0  0  0  0
  140.9676   72.4584  225.7152 H   0  0  0  0  0  0  0  0  0  0  0  0
  1  2  2  0
  2  3  1  0
  3  4  1  0
  4  5  1  0
  5  6  2  0
  5  7  1  0
  7  8  1  0
  8  9  1  0
  9 10  1  0
 10 11  1  0
 11 12  1  0
 12 13  1  0
 13 14  1  0
 14 15  2  0
 15 16  1  0
 16 17  2  0
 17 18  1  0
 17 19  1  0
 19 20  2  0
  2 21  1  0
 21 22  2  0
 22 23  1  0
 23 24  2  0
 24 25  1  0
 25 26  2  0
 26 27  1  0
 26 28  1  0
 28 29  2  0
 29 30  1  0
 30 31  2  0
 11  7  1  0
 20 14  1  0
 31 21  1  0
 30 24  1  0
  3 32  1  0
  4 33  1  0
  4 34  1  0
  8 35  1  0
  8 36  1  0
  9 37  1  0
  9 38  1  0
 10 39  1  0
 10 40  1  0
 11 41  1  1
 12 42  1  0
 12 43  1  0
 15 44  1  0
 16 45  1  0
 19 46  1  0
 20 47  1  0
 22 48  1  0
 23 49  1  0
 25 50  1  0
 28 51  1  0
 29 52  1  0
M  END
>  <smiles>  (46) 
O=C(NCC(=O)N1CCC[C@H]1COc1ccc(Cl)cc1)c1ccc2cc(Cl)ccc2n1

>  <score_type>  (46) 
oracle

>  <origin>  (46) 
autodockgpu

>  <m_score__min__energy>  (46) 
-8.3499999999999996

>  <m_primary>  (46) 
energy

>  <rmsd>  (46) 
2.2778955310150724

>  <m_score__min__rmsd>  (46) 
2.2778955310150724

>  <meeko>  (46) 
{"free_energy": -7.07, "intermolecular_energy": -9.16, "internal_energy": -2.9, "cluster_size": 8, "cluster_id": 1, "rank_in_cluster": 7}

>  <energy>  (46) 
-5.52

>  <cluster_rmsd>  (46) 
1.79

>  <cluster>  (46) 
11

$$$$

     RDKit          3D

 52 55  0  0  0  0  0  0  0  0999 V2000
  138.2250   75.6440  222.7110 O   0  0  0  0  0  0  0  0  0  0  0  0
  139.3210   76.0380  222.2160 C   0  0  0  0  0  0  0  0  0  0  0  0
  139.5810   77.4330  222.1020 N   0  0  0  0  0  0  0  0  0  0  0  0
  138.6160   78.4190  222.5420 C   0  0  0  0  0  0  0  0  0  0  0  0
  139.2500   79.4770  223.3700 C   0  0  0  0  0  0  0  0  0  0  0  0
  138.5730   80.0340  224.2670 O   0  0  0  0  0  0  0  0  0  0  0  0
  140.6050   79.7940  223.0870 N   0  0  0  0  0  0  0  0  0  0  0  0
  141.8160   79.0740  223.4870 C   0  0  0  0  0  0  0  0  0  0  0  0
  142.9290   80.1290  223.4780 C   0  0  0  0  0  0  0  0  0  0  0  0
  142.1810   81.4110  223.1730 C   0  0  0  0  0  0  0  0  0  0  0  0
  141.0810   80.9660  222.3000 C   0  0  1  0  0  0  0  0  0  0  0  0
  141.3690   80.4550  220.9410 C   0  0  0  0  0  0  0  0  0  0  0  0
  141.1340   79.1820  220.6010 O   0  0  0  0  0  0  0  0  0  0  0  0
  141.3080   78.3040  219.6110 C   0  0  0  0  0  0  0  0  0  0  0  0
  142.5710   78.3130  218.9760 C   0  0  0  0  0  0  0  0  0  0  0  0
  142.8750   77.4640  217.9450 C   0  0  0  0  0  0  0  0  0  0  0  0
  141.9530   76.5570  217.4800 C   0  0  0  0  0  0  0  0  0  0  0  0
  142.2720   75.4430  216.1690 Cl  0  0  0  0  0  0  0  0  0  0  0  0
  140.7130   76.5170  218.0700 C   0  0  0  0  0  0  0  0  0  0  0  0
  140.4220   77.3820  219.1090 C   0  0  0  0  0  0  0  0  0  0  0  0
  140.3170   75.0600  221.7600 C   0  0  0  0  0  0  0  0  0  0  0  0
  140.0590   73.7260  221.8910 C   0  0  0  0  0  0  0  0  0  0  0  0
  140.9650   72.7460  221.4780 C   0  0  0  0  0  0  0  0  0  0  0  0
  142.1570   73.1680  220.9210 C   0  0  0  0  0  0  0  0  0  0  0  0
  143.1300   72.2950  220.4760 C   0  0  0  0  0  0  0  0  0  0  0  0
  144.3060   72.7940  219.9260 C   0  0  0  0  0  0  0  0  0  0  0  0
  145.5650   71.6940  219.3510 Cl  0  0  0  0  0  0  0  0  0  0  0  0
  144.5190   74.1560  219.8170 C   0  0  0  0  0  0  0  0  0  0  0  0
  143.5550   75.0340  220.2580 C   0  0  0  0  0  0  0  0  0  0  0  0
  142.3750   74.5330  220.8090 C   0  0  0  0  0  0  0  0  0  0  0  0
  141.4800   75.4500  221.2170 N   0  0  0  0  0  0  0  0  0  0  0  0
  140.5150   77.6940  221.6790 H   0  0  0  0  0  0  0  0  0  0  0  0
  138.1552   78.8857  221.6589 H   0  0  0  0  0  0  0  0  0  0  0  0
  137.8605   77.9086  223.1575 H   0  0  0  0  0  0  0  0  0  0  0  0
  141.6967   78.6470  224.4937 H   0  0  0  0  0  0  0  0  0  0  0  0
  142.0383   78.2344  222.8120 H   0  0  0  0  0  0  0  0  0  0  0  0
  143.4280   80.1857  224.4567 H   0  0  0  0  0  0  0  0  0  0  0  0
  143.7277   79.9104  222.7539 H   0  0  0  0  0  0  0  0  0  0  0  0
  141.7916   81.8681  224.0946 H   0  0  0  0  0  0  0  0  0  0  0  0
  142.8164   82.1777  222.7057 H   0  0  0  0  0  0  0  0  0  0  0  0
  140.4337   81.8299  222.0889 H   0  0  0  0  0  0  0  0  0  0  0  0
  140.7804   81.0735  220.2475 H   0  0  0  0  0  0  0  0  0  0  0  0
  142.4670   80.5079  220.9002 H   0  0  0  0  0  0  0  0  0  0  0  0
  143.3348   79.0253  219.3212 H   0  0  0  0  0  0  0  0  0  0  0  0
  143.8719   77.5088  217.4823 H   0  0  0  0  0  0  0  0  0  0  0  0
  139.9558   75.8009  217.7180 H   0  0  0  0  0  0  0  0  0  0  0  0
  139.4205   77.3285  219.5608 H   0  0  0  0  0  0  0  0  0  0  0  0
  139.1041   73.4115  222.3375 H   0  0  0  0  0  0  0  0  0  0  0  0
  140.7374   71.6759  221.5922 H   0  0  0  0  0  0  0  0  0  0  0  0
  142.9756   71.2089  220.5562 H   0  0  0  0  0  0  0  0  0  0  0  0
  145.4543   74.5359  219.3800 H   0  0  0  0  0  0  0  0  0  0  0  0
  143.7132   76.1195  220.1769 H   0  0  0  0  0  0  0  0  0  0  0  0
  1  2  2  0
  2  3  1  0
  3  4  1  0
  4  5  1  0
  5  6  2  0
  5  7  1  0
  7  8  1  0
  8  9  1  0
  9 10  1  0
 10 11  1  0
 11 12  1  0
 12 13  1  0
 13 14  1  0
 14 15  2  0
 15 16  1  0
 16 17  2  0
 17 18  1  0
 17 19  1  0
 19 20  2  0
  2 21  1  0
 21 22  2  0
 22 23  1  0
 23 24  2  0
 24 25  1  0
 25 26  2  0
 26 27  1  0
 26 28  1  0
 28 29  2  0
 29 30  1  0
 30 31  2  0
 11  7  1  0
 20 14  1  0
 31 21  1  0
 30 24  1  0
  3 32  1  0
  4 33  1  0
  4 34  1  0
  8 35  1  0
  8 36  1  0
  9 37  1  0
  9 38  1  0
 10 39  1  0
 10 40  1  0
 11 41  1  6
 12 42  1  0
 12 43  1  0
 15 44  1  0
 16 45  1  0
 19 46  1  0
 20 47  1  0
 22 48  1  0
 23 49  1  0
 25 50  1  0
 28 51  1  0
 29 52  1  0
M  END
>  <smiles>  (47) 
O=C(NCC(=O)N1CCC[C@H]1COc1ccc(Cl)cc1)c1ccc2cc(Cl)ccc2n1

>  <score_type>  (47) 
oracle

>  <origin>  (47) 
autodockgpu

>  <m_score__min__energy>  (47) 
-8.3499999999999996

>  <m_primary>  (47) 
energy

>  <rmsd>  (47) 
6.607858530536955

>  <m_score__min__rmsd>  (47) 
6.607858530536955

>  <meeko>  (47) 
{"free_energy": -6.03, "intermolecular_energy": -8.12, "internal_energy": -3.92, "cluster_size": 8, "cluster_id": 11, "rank_in_cluster": 2}

>  <energy>  (47) 
-6.76

>  <cluster_rmsd>  (47) 
0.0

>  <cluster>  (47) 
12

$$$$

     RDKit          3D

 52 55  0  0  0  0  0  0  0  0999 V2000
  137.6070   70.6160  221.2350 O   0  0  0  0  0  0  0  0  0  0  0  0
  137.8760   71.1920  222.3290 C   0  0  0  0  0  0  0  0  0  0  0  0
  137.6280   72.5850  222.4710 N   0  0  0  0  0  0  0  0  0  0  0  0
  137.0700   73.3670  221.3870 C   0  0  0  0  0  0  0  0  0  0  0  0
  138.1320   73.9320  220.5150 C   0  0  0  0  0  0  0  0  0  0  0  0
  137.8400   74.8640  219.7270 O   0  0  0  0  0  0  0  0  0  0  0  0
  139.4310   73.3690  220.6300 N   0  0  0  0  0  0  0  0  0  0  0  0
  139.9760   72.1840  219.9670 C   0  0  0  0  0  0  0  0  0  0  0  0
  141.1040   71.6960  220.8840 C   0  0  0  0  0  0  0  0  0  0  0  0
  141.0020   72.6270  222.0750 C   0  0  0  0  0  0  0  0  0  0  0  0
  140.5360   73.8920  221.4810 C   0  0  1  0  0  0  0  0  0  0  0  0
  141.4200   74.6590  220.5750 C   0  0  0  0  0  0  0  0  0  0  0  0
  141.3580   75.9930  220.4900 O   0  0  0  0  0  0  0  0  0  0  0  0
  141.3820   77.1020  221.2320 C   0  0  0  0  0  0  0  0  0  0  0  0
  141.8180   78.2820  220.5870 C   0  0  0  0  0  0  0  0  0  0  0  0
  141.8910   79.4850  221.2380 C   0  0  0  0  0  0  0  0  0  0  0  0
  141.5390   79.5950  222.5620 C   0  0  0  0  0  0  0  0  0  0  0  0
  141.6060   81.0970  223.4570 Cl  0  0  0  0  0  0  0  0  0  0  0  0
  141.1100   78.4700  223.2260 C   0  0  0  0  0  0  0  0  0  0  0  0
  141.0430   77.2640  222.5540 C   0  0  0  0  0  0  0  0  0  0  0  0
  138.4430   70.4240  223.4450 C   0  0  0  0  0  0  0  0  0  0  0  0
  138.3000   69.0660  223.4710 C   0  0  0  0  0  0  0  0  0  0  0  0
  138.8160   68.2800  224.5030 C   0  0  0  0  0  0  0  0  0  0  0  0
  139.4900   68.9220  225.5240 C   0  0  0  0  0  0  0  0  0  0  0  0
  140.0440   68.2530  226.5970 C   0  0  0  0  0  0  0  0  0  0  0  0
  140.7090   68.9680  227.5880 C   0  0  0  0  0  0  0  0  0  0  0  0
  141.4240   68.1310  228.9710 Cl  0  0  0  0  0  0  0  0  0  0  0  0
  140.8260   70.3440  227.5160 C   0  0  0  0  0  0  0  0  0  0  0  0
  140.2770   71.0190  226.4500 C   0  0  0  0  0  0  0  0  0  0  0  0
  139.6110   70.3020  225.4560 C   0  0  0  0  0  0  0  0  0  0  0  0
  139.1010   71.0290  224.4460 N   0  0  0  0  0  0  0  0  0  0  0  0
  137.8760   73.0050  223.4110 H   0  0  0  0  0  0  0  0  0  0  0  0
  136.4169   72.7218  220.7812 H   0  0  0  0  0  0  0  0  0  0  0  0
  136.5030   74.2027  221.8230 H   0  0  0  0  0  0  0  0  0  0  0  0
  139.2016   71.4099  219.8620 H   0  0  0  0  0  0  0  0  0  0  0  0
  140.3377   72.4091  218.9529 H   0  0  0  0  0  0  0  0  0  0  0  0
  140.9443   70.6501  221.1850 H   0  0  0  0  0  0  0  0  0  0  0  0
  142.0928   71.7149  220.4025 H   0  0  0  0  0  0  0  0  0  0  0  0
  140.2776   72.2472  222.8105 H   0  0  0  0  0  0  0  0  0  0  0  0
  141.9517   72.7327  222.6198 H   0  0  0  0  0  0  0  0  0  0  0  0
  140.3572   74.6119  222.2932 H   0  0  0  0  0  0  0  0  0  0  0  0
  142.4511   74.4163  220.8715 H   0  0  0  0  0  0  0  0  0  0  0  0
  141.0636   74.3460  219.5825 H   0  0  0  0  0  0  0  0  0  0  0  0
  142.1083   78.2325  219.5271 H   0  0  0  0  0  0  0  0  0  0  0  0
  142.2364   80.3760  220.6932 H   0  0  0  0  0  0  0  0  0  0  0  0
  140.8218   78.5294  224.2859 H   0  0  0  0  0  0  0  0  0  0  0  0
  140.6975   76.3806  223.1109 H   0  0  0  0  0  0  0  0  0  0  0  0
  137.7589   68.5739  222.6494 H   0  0  0  0  0  0  0  0  0  0  0  0
  138.6903   67.1872  224.5032 H   0  0  0  0  0  0  0  0  0  0  0  0
  139.9600   67.1585  226.6682 H   0  0  0  0  0  0  0  0  0  0  0  0
  141.3552   70.8960  228.3067 H   0  0  0  0  0  0  0  0  0  0  0  0
  140.3625   72.1136  226.3823 H   0  0  0  0  0  0  0  0  0  0  0  0
  1  2  2  0
  2  3  1  0
  3  4  1  0
  4  5  1  0
  5  6  2  0
  5  7  1  0
  7  8  1  0
  8  9  1  0
  9 10  1  0
 10 11  1  0
 11 12  1  0
 12 13  1  0
 13 14  1  0
 14 15  2  0
 15 16  1  0
 16 17  2  0
 17 18  1  0
 17 19  1  0
 19 20  2  0
  2 21  1  0
 21 22  2  0
 22 23  1  0
 23 24  2  0
 24 25  1  0
 25 26  2  0
 26 27  1  0
 26 28  1  0
 28 29  2  0
 29 30  1  0
 30 31  2  0
 11  7  1  0
 20 14  1  0
 31 21  1  0
 30 24  1  0
  3 32  1  0
  4 33  1  0
  4 34  1  0
  8 35  1  0
  8 36  1  0
  9 37  1  0
  9 38  1  0
 10 39  1  0
 10 40  1  0
 11 41  1  1
 12 42  1  0
 12 43  1  0
 15 44  1  0
 16 45  1  0
 19 46  1  0
 20 47  1  0
 22 48  1  0
 23 49  1  0
 25 50  1  0
 28 51  1  0
 29 52  1  0
M  END
>  <smiles>  (48) 
O=C(NCC(=O)N1CCC[C@H]1COc1ccc(Cl)cc1)c1ccc2cc(Cl)ccc2n1

>  <score_type>  (48) 
oracle

>  <origin>  (48) 
autodockgpu

>  <m_score__min__energy>  (48) 
-8.3499999999999996

>  <m_primary>  (48) 
energy

>  <rmsd>  (48) 
2.8990286788827984

>  <m_score__min__rmsd>  (48) 
2.8990286788827984

>  <meeko>  (48) 
{"free_energy": -7.45, "intermolecular_energy": -9.54, "internal_energy": -2.18, "cluster_size": 8, "cluster_id": 1, "rank_in_cluster": 6}

>  <energy>  (48) 
-6.57

>  <cluster_rmsd>  (48) 
0.0

>  <cluster>  (48) 
13

$$$$

     RDKit          3D

 52 55  0  0  0  0  0  0  0  0999 V2000
  136.6750   75.3200  221.0570 O   0  0  0  0  0  0  0  0  0  0  0  0
  137.6520   74.9990  221.7950 C   0  0  0  0  0  0  0  0  0  0  0  0
  137.7320   73.6810  222.3250 N   0  0  0  0  0  0  0  0  0  0  0  0
  136.7150   72.6900  222.0390 C   0  0  0  0  0  0  0  0  0  0  0  0
  137.2530   71.5680  221.2270 C   0  0  0  0  0  0  0  0  0  0  0  0
  136.5570   70.5360  221.0790 O   0  0  0  0  0  0  0  0  0  0  0  0
  138.5460   71.7400  220.6640 N   0  0  0  0  0  0  0  0  0  0  0  0
  138.9440   72.5730  219.5270 C   0  0  0  0  0  0  0  0  0  0  0  0
  140.2230   71.9220  218.9850 C   0  0  0  0  0  0  0  0  0  0  0  0
  140.3570   70.6740  219.8340 C   0  0  0  0  0  0  0  0  0  0  0  0
  139.7980   71.0830  221.1340 C   0  0  1  0  0  0  0  0  0  0  0  0
  140.4990   72.0880  221.9630 C   0  0  0  0  0  0  0  0  0  0  0  0
  140.2940   72.1830  223.2820 O   0  0  0  0  0  0  0  0  0  0  0  0
  140.1690   71.4460  224.3880 C   0  0  0  0  0  0  0  0  0  0  0  0
  140.9050   71.8740  225.5170 C   0  0  0  0  0  0  0  0  0  0  0  0
  140.8650   71.2040  226.7110 C   0  0  0  0  0  0  0  0  0  0  0  0
  140.0980   70.0730  226.8610 C   0  0  0  0  0  0  0  0  0  0  0  0
  139.9990   69.1680  228.3550 Cl  0  0  0  0  0  0  0  0  0  0  0  0
  139.3680   69.6240  225.7880 C   0  0  0  0  0  0  0  0  0  0  0  0
  139.4200   70.3120  224.5890 C   0  0  0  0  0  0  0  0  0  0  0  0
  138.6970   75.9850  222.1020 C   0  0  0  0  0  0  0  0  0  0  0  0
  140.0080   75.6600  221.9070 C   0  0  0  0  0  0  0  0  0  0  0  0
  141.0470   76.5520  222.1800 C   0  0  0  0  0  0  0  0  0  0  0  0
  140.7110   77.8000  222.6640 C   0  0  0  0  0  0  0  0  0  0  0  0
  141.6490   78.7670  222.9710 C   0  0  0  0  0  0  0  0  0  0  0  0
  141.2340   80.0030  223.4540 C   0  0  0  0  0  0  0  0  0  0  0  0
  142.4180   81.2540  223.8530 Cl  0  0  0  0  0  0  0  0  0  0  0  0
  139.8920   80.2830  223.6360 C   0  0  0  0  0  0  0  0  0  0  0  0
  138.9500   79.3260  223.3330 C   0  0  0  0  0  0  0  0  0  0  0  0
  139.3660   78.0860  222.8470 C   0  0  0  0  0  0  0  0  0  0  0  0
  138.3900   77.2030  222.5740 N   0  0  0  0  0  0  0  0  0  0  0  0
  138.5730   73.4790  222.9340 H   0  0  0  0  0  0  0  0  0  0  0  0
  136.3301   72.2901  222.9887 H   0  0  0  0  0  0  0  0  0  0  0  0
  135.9146   73.1770  221.4627 H   0  0  0  0  0  0  0  0  0  0  0  0
  138.1575   72.5786  218.7580 H   0  0  0  0  0  0  0  0  0  0  0  0
  139.1063   73.6208  219.8198 H   0  0  0  0  0  0  0  0  0  0  0  0
  140.1159   71.6663  217.9205 H   0  0  0  0  0  0  0  0  0  0  0  0
  141.1020   72.5809  219.0415 H   0  0  0  0  0  0  0  0  0  0  0  0
  139.7820   69.8412  219.4029 H   0  0  0  0  0  0  0  0  0  0  0  0
  141.3938   70.3138  219.9069 H   0  0  0  0  0  0  0  0  0  0  0  0
  139.7844   70.2059  221.7977 H   0  0  0  0  0  0  0  0  0  0  0  0
  141.5749   71.9009  221.8306 H   0  0  0  0  0  0  0  0  0  0  0  0
  140.0731   73.0323  221.5930 H   0  0  0  0  0  0  0  0  0  0  0  0
  141.5305   72.7750  225.4336 H   0  0  0  0  0  0  0  0  0  0  0  0
  141.4548   71.5761  227.5617 H   0  0  0  0  0  0  0  0  0  0  0  0
  138.7452   68.7221  225.8814 H   0  0  0  0  0  0  0  0  0  0  0  0
  138.8262   69.9282  223.7463 H   0  0  0  0  0  0  0  0  0  0  0  0
  140.2549   74.6600  221.5211 H   0  0  0  0  0  0  0  0  0  0  0  0
  142.0973   76.2697  222.0149 H   0  0  0  0  0  0  0  0  0  0  0  0
  142.7205   78.5597  222.8337 H   0  0  0  0  0  0  0  0  0  0  0  0
  139.5791   81.2649  224.0207 H   0  0  0  0  0  0  0  0  0  0  0  0
  137.8795   79.5369  223.4727 H   0  0  0  0  0  0  0  0  0  0  0  0
  1  2  2  0
  2  3  1  0
  3  4  1  0
  4  5  1  0
  5  6  2  0
  5  7  1  0
  7  8  1  0
  8  9  1  0
  9 10  1  0
 10 11  1  0
 11 12  1  0
 12 13  1  0
 13 14  1  0
 14 15  2  0
 15 16  1  0
 16 17  2  0
 17 18  1  0
 17 19  1  0
 19 20  2  0
  2 21  1  0
 21 22  2  0
 22 23  1  0
 23 24  2  0
 24 25  1  0
 25 26  2  0
 26 27  1  0
 26 28  1  0
 28 29  2  0
 29 30  1  0
 30 31  2  0
 11  7  1  0
 20 14  1  0
 31 21  1  0
 30 24  1  0
  3 32  1  0
  4 33  1  0
  4 34  1  0
  8 35  1  0
  8 36  1  0
  9 37  1  0
  9 38  1  0
 10 39  1  0
 10 40  1  0
 11 41  1  1
 12 42  1  0
 12 43  1  0
 15 44  1  0
 16 45  1  0
 19 46  1  0
 20 47  1  0
 22 48  1  0
 23 49  1  0
 25 50  1  0
 28 51  1  0
 29 52  1  0
M  END
>  <smiles>  (49) 
O=C(NCC(=O)N1CCC[C@H]1COc1ccc(Cl)cc1)c1ccc2cc(Cl)ccc2n1

>  <score_type>  (49) 
oracle

>  <origin>  (49) 
autodockgpu

>  <m_score__min__energy>  (49) 
-8.3499999999999996

>  <m_primary>  (49) 
energy

>  <rmsd>  (49) 
6.9081099891058555

>  <m_score__min__rmsd>  (49) 
6.9081099891058555

>  <meeko>  (49) 
{"free_energy": -7.43, "intermolecular_energy": -9.51, "internal_energy": -2.69, "cluster_size": 8, "cluster_id": 4, "rank_in_cluster": 5}

>  <energy>  (49) 
-5.47

>  <cluster_rmsd>  (49) 
0.0

>  <cluster>  (49) 
14

$$$$

     RDKit          3D

 52 55  0  0  0  0  0  0  0  0999 V2000
  140.6810   72.6820  221.1820 O   0  0  0  0  0  0  0  0  0  0  0  0
  139.8600   72.7110  222.1450 C   0  0  0  0  0  0  0  0  0  0  0  0
  138.8580   73.7200  222.1870 N   0  0  0  0  0  0  0  0  0  0  0  0
  138.7530   74.7230  221.1480 C   0  0  0  0  0  0  0  0  0  0  0  0
  139.8640   75.7070  221.2190 C   0  0  0  0  0  0  0  0  0  0  0  0
  140.6040   75.7180  222.2320 O   0  0  0  0  0  0  0  0  0  0  0  0
  140.0180   76.5890  220.1160 N   0  0  0  0  0  0  0  0  0  0  0  0
  140.9120   77.7410  219.9850 C   0  0  0  0  0  0  0  0  0  0  0  0
  140.2460   78.6470  218.9420 C   0  0  0  0  0  0  0  0  0  0  0  0
  138.9350   77.9390  218.6640 C   0  0  0  0  0  0  0  0  0  0  0  0
  139.2730   76.5150  218.8290 C   0  0  1  0  0  0  0  0  0  0  0  0
  140.1820   75.8500  217.8690 C   0  0  0  0  0  0  0  0  0  0  0  0
  141.5090   75.8410  218.0420 O   0  0  0  0  0  0  0  0  0  0  0  0
  142.4750   75.2860  218.7780 C   0  0  0  0  0  0  0  0  0  0  0  0
  142.4730   73.8740  218.8570 C   0  0  0  0  0  0  0  0  0  0  0  0
  143.4080   73.1830  219.5810 C   0  0  0  0  0  0  0  0  0  0  0  0
  144.3990   73.8430  220.2690 C   0  0  0  0  0  0  0  0  0  0  0  0
  145.6250   73.0260  221.2130 Cl  0  0  0  0  0  0  0  0  0  0  0  0
  144.4350   75.2150  220.2170 C   0  0  0  0  0  0  0  0  0  0  0  0
  143.4830   75.8970  219.4830 C   0  0  0  0  0  0  0  0  0  0  0  0
  139.9440   71.7060  223.2130 C   0  0  0  0  0  0  0  0  0  0  0  0
  139.5110   70.4330  222.9770 C   0  0  0  0  0  0  0  0  0  0  0  0
  139.5640   69.4340  223.9510 C   0  0  0  0  0  0  0  0  0  0  0  0
  140.0750   69.7700  225.1890 C   0  0  0  0  0  0  0  0  0  0  0  0
  140.1780   68.8690  226.2310 C   0  0  0  0  0  0  0  0  0  0  0  0
  140.7050   69.2810  227.4500 C   0  0  0  0  0  0  0  0  0  0  0  0
  140.8450   68.1440  228.7970 Cl  0  0  0  0  0  0  0  0  0  0  0  0
  141.1290   70.5840  227.6390 C   0  0  0  0  0  0  0  0  0  0  0  0
  141.0300   71.4890  226.6070 C   0  0  0  0  0  0  0  0  0  0  0  0
  140.5020   71.0750  225.3830 C   0  0  0  0  0  0  0  0  0  0  0  0
  140.4370   72.0140  224.4230 N   0  0  0  0  0  0  0  0  0  0  0  0
  138.2050   73.6870  223.0190 H   0  0  0  0  0  0  0  0  0  0  0  0
  138.7803   74.2248  220.1677 H   0  0  0  0  0  0  0  0  0  0  0  0
  137.8060   75.2646  221.2890 H   0  0  0  0  0  0  0  0  0  0  0  0
  141.0090   78.2659  220.9468 H   0  0  0  0  0  0  0  0  0  0  0  0
  141.9271   77.4428  219.6839 H   0  0  0  0  0  0  0  0  0  0  0  0
  140.0730   79.6551  219.3466 H   0  0  0  0  0  0  0  0  0  0  0  0
  140.8591   78.7944  218.0407 H   0  0  0  0  0  0  0  0  0  0  0  0
  138.1619   78.2458  219.3838 H   0  0  0  0  0  0  0  0  0  0  0  0
  138.5251   78.1702  217.6698 H   0  0  0  0  0  0  0  0  0  0  0  0
  138.3513   75.9244  218.7210 H   0  0  0  0  0  0  0  0  0  0  0  0
  139.8692   74.7962  217.8273 H   0  0  0  0  0  0  0  0  0  0  0  0
  140.0692   76.4753  216.9711 H   0  0  0  0  0  0  0  0  0  0  0  0
  141.6950   73.3122  218.3193 H   0  0  0  0  0  0  0  0  0  0  0  0
  143.3656   72.0843  219.6126 H   0  0  0  0  0  0  0  0  0  0  0  0
  145.2176   75.7683  220.7568 H   0  0  0  0  0  0  0  0  0  0  0  0
  143.5358   76.9955  219.4622 H   0  0  0  0  0  0  0  0  0  0  0  0
  139.1061   70.1856  221.9846 H   0  0  0  0  0  0  0  0  0  0  0  0
  139.2107   68.4140  223.7393 H   0  0  0  0  0  0  0  0  0  0  0  0
  139.8443   67.8294  226.0969 H   0  0  0  0  0  0  0  0  0  0  0  0
  141.5432   70.8953  228.6093 H   0  0  0  0  0  0  0  0  0  0  0  0
  141.3636   72.5280  226.7453 H   0  0  0  0  0  0  0  0  0  0  0  0
  1  2  2  0
  2  3  1  0
  3  4  1  0
  4  5  1  0
  5  6  2  0
  5  7  1  0
  7  8  1  0
  8  9  1  0
  9 10  1  0
 10 11  1  0
 11 12  1  0
 12 13  1  0
 13 14  1  0
 14 15  2  0
 15 16  1  0
 16 17  2  0
 17 18  1  0
 17 19  1  0
 19 20  2  0
  2 21  1  0
 21 22  2  0
 22 23  1  0
 23 24  2  0
 24 25  1  0
 25 26  2  0
 26 27  1  0
 26 28  1  0
 28 29  2  0
 29 30  1  0
 30 31  2  0
 11  7  1  0
 20 14  1  0
 31 21  1  0
 30 24  1  0
  3 32  1  0
  4 33  1  0
  4 34  1  0
  8 35  1  0
  8 36  1  0
  9 37  1  0
  9 38  1  0
 10 39  1  0
 10 40  1  0
 11 41  1  1
 12 42  1  0
 12 43  1  0
 15 44  1  0
 16 45  1  0
 19 46  1  0
 20 47  1  0
 22 48  1  0
 23 49  1  0
 25 50  1  0
 28 51  1  0
 29 52  1  0
M  END
>  <smiles>  (50) 
O=C(NCC(=O)N1CCC[C@H]1COc1ccc(Cl)cc1)c1ccc2cc(Cl)ccc2n1

>  <score_type>  (50) 
oracle

>  <origin>  (50) 
autodockgpu

>  <m_score__min__energy>  (50) 
-8.3499999999999996

>  <m_primary>  (50) 
energy

>  <rmsd>  (50) 
2.1546762100640864

>  <m_score__min__rmsd>  (50) 
2.1546762100640864

>  <meeko>  (50) 
{"free_energy": -7.29, "intermolecular_energy": -9.38, "internal_energy": -2.03, "cluster_size": 6, "cluster_id": 2, "rank_in_cluster": 4}

>  <energy>  (50) 
-5.37

>  <cluster_rmsd>  (50) 
0.0

>  <cluster>  (50) 
15

$$$$
