
     RDKit          3D

 64 67  0  0  0  0  0  0  0  0999 V2000
  137.0050   68.3330  222.5090 C   0  0  0  0  0  0  0  0  0  0  0  0
  138.4750   67.8780  222.6760 C   0  0  0  0  0  0  0  0  0  0  0  0
  139.0430   68.4720  223.8800 C   0  0  0  0  0  0  0  0  0  0  0  0
  139.1990   67.6060  224.8450 O   0  0  0  0  0  0  0  0  0  0  0  0
  139.4380   69.7950  224.1590 N   0  0  0  0  0  0  0  0  0  0  0  0
  139.8900   70.3330  225.3750 C   0  0  0  0  0  0  0  0  0  0  0  0
  140.7280   71.4640  225.3840 C   0  0  0  0  0  0  0  0  0  0  0  0
  141.2010   72.0160  226.5570 C   0  0  0  0  0  0  0  0  0  0  0  0
  140.8820   71.4960  227.7860 C   0  0  0  0  0  0  0  0  0  0  0  0
  140.0690   70.3970  227.8110 C   0  0  0  0  0  0  0  0  0  0  0  0
  139.5930   69.8400  226.6250 C   0  0  0  0  0  0  0  0  0  0  0  0
  139.3650   70.7080  223.0090 C   0  0  0  0  0  0  0  0  0  0  0  0
  138.2390   71.6590  223.0030 C   0  0  0  0  0  0  0  0  0  0  0  0
  138.4450   72.9750  222.3200 C   0  0  0  0  0  0  0  0  0  0  0  0
  139.7440   73.1370  221.7410 N   0  0  0  0  0  0  0  0  0  0  0  0
  140.4780   74.3410  221.6520 C   0  0  0  0  0  0  0  0  0  0  0  0
  141.6460   74.3340  221.1170 O   0  0  0  0  0  0  0  0  0  0  0  0
  140.0190   75.6600  222.1350 C   0  0  1  0  0  0  0  0  0  0  0  0
  141.1950   76.5150  222.3000 N   0  0  0  0  0  0  0  0  0  0  0  0
  139.0770   76.2790  221.1130 C   0  0  2  0  0  0  0  0  0  0  0  0
  139.5590   76.1670  219.7090 C   0  0  0  0  0  0  0  0  0  0  0  0
  140.5820   77.1510  219.2750 C   0  0  0  0  0  0  0  0  0  0  0  0
  140.7610   78.3120  220.1450 C   0  0  0  0  0  0  0  0  0  0  0  0
  141.8270   79.1550  219.9020 C   0  0  0  0  0  0  0  0  0  0  0  0
  142.0710   80.2720  220.6740 C   0  0  0  0  0  0  0  0  0  0  0  0
  141.2130   80.5390  221.7140 C   0  0  0  0  0  0  0  0  0  0  0  0
  141.5300   81.9560  222.6860 Cl  0  0  0  0  0  0  0  0  0  0  0  0
  140.1460   79.7020  221.9650 C   0  0  0  0  0  0  0  0  0  0  0  0
  139.8970   78.5720  221.1860 C   0  0  0  0  0  0  0  0  0  0  0  0
  138.7430   77.7190  221.5010 C   0  0  0  0  0  0  0  0  0  0  0  0
  140.3610   71.9120  221.1940 C   0  0  0  0  0  0  0  0  0  0  0  0
  140.6970   71.1400  222.4880 C   0  0  0  0  0  0  0  0  0  0  0  0
  136.5499   68.4739  223.5005 H   0  0  0  0  0  0  0  0  0  0  0  0
  136.9758   69.2822  221.9539 H   0  0  0  0  0  0  0  0  0  0  0  0
  136.4447   67.5663  221.9539 H   0  0  0  0  0  0  0  0  0  0  0  0
  138.5107   66.7816  222.7581 H   0  0  0  0  0  0  0  0  0  0  0  0
  139.0572   68.2038  221.8014 H   0  0  0  0  0  0  0  0  0  0  0  0
  141.0148   71.9222  224.4260 H   0  0  0  0  0  0  0  0  0  0  0  0
  141.8537   72.8999  226.5051 H   0  0  0  0  0  0  0  0  0  0  0  0
  141.2650   71.9453  228.7141 H   0  0  0  0  0  0  0  0  0  0  0  0
  139.7881   69.9484  228.7753 H   0  0  0  0  0  0  0  0  0  0  0  0
  138.9426   68.9555  226.6922 H   0  0  0  0  0  0  0  0  0  0  0  0
  139.0172   70.0929  222.1660 H   0  0  0  0  0  0  0  0  0  0  0  0
  137.3911   71.1615  222.5094 H   0  0  0  0  0  0  0  0  0  0  0  0
  138.0853   71.9155  224.0616 H   0  0  0  0  0  0  0  0  0  0  0  0
  137.6961   73.0697  221.5199 H   0  0  0  0  0  0  0  0  0  0  0  0
  138.3432   73.7519  223.0921 H   0  0  0  0  0  0  0  0  0  0  0  0
  139.4848   75.5537  223.0907 H   0  0  0  0  0  0  0  0  0  0  0  0
  141.7310   76.4760  221.4040 H   0  0  0  0  0  0  0  0  0  0  0  0
  141.8180   76.1290  223.0330 H   0  0  0  0  0  0  0  0  0  0  0  0
  138.1487   75.6893  221.1355 H   0  0  0  0  0  0  0  0  0  0  0  0
  139.9885   75.1622  219.5832 H   0  0  0  0  0  0  0  0  0  0  0  0
  138.6775   76.3714  219.0835 H   0  0  0  0  0  0  0  0  0  0  0  0
  141.5470   76.6271  219.2093 H   0  0  0  0  0  0  0  0  0  0  0  0
  140.2221   77.5508  218.3155 H   0  0  0  0  0  0  0  0  0  0  0  0
  142.5041   78.9286  219.0652 H   0  0  0  0  0  0  0  0  0  0  0  0
  142.9272   80.9297  220.4634 H   0  0  0  0  0  0  0  0  0  0  0  0
  139.4721   79.9321  222.8034 H   0  0  0  0  0  0  0  0  0  0  0  0
  138.5272   77.7714  222.5784 H   0  0  0  0  0  0  0  0  0  0  0  0
  137.8599   78.0623  220.9422 H   0  0  0  0  0  0  0  0  0  0  0  0
  139.6548   71.3525  220.5630 H   0  0  0  0  0  0  0  0  0  0  0  0
  141.2269   72.0962  220.5411 H   0  0  0  0  0  0  0  0  0  0  0  0
  141.3324   70.2690  222.2696 H   0  0  0  0  0  0  0  0  0  0  0  0
  141.2562   71.7511  223.2118 H   0  0  0  0  0  0  0  0  0  0  0  0
  1  2  1  0
  2  3  1  0
  3  4  2  0
  3  5  1  0
  5  6  1  0
  6  7  2  0
  7  8  1  0
  8  9  2  0
  9 10  1  0
 10 11  2  0
  5 12  1  0
 12 13  1  0
 13 14  1  0
 14 15  1  0
 15 16  1  0
 16 17  2  0
 16 18  1  0
 18 19  1  0
 18 20  1  0
 20 21  1  0
 21 22  1  0
 22 23  1  0
 23 24  2  0
 24 25  1  0
 25 26  2  0
 26 27  1  0
 26 28  1  0
 28 29  2  0
 29 30  1  0
 15 31  1  0
 31 32  1  0
 11  6  1  0
 32 12  1  0
 30 20  1  0
 29 23  1  0
  1 33  1  0
  1 34  1  0
  1 35  1  0
  2 36  1  0
  2 37  1  0
  7 38  1  0
  8 39  1  0
  9 40  1  0
 10 41  1  0
 11 42  1  0
 12 43  1  0
 13 44  1  0
 13 45  1  0
 14 46  1  0
 14 47  1  0
 18 48  1  1
 19 49  1  0
 19 50  1  0
 20 51  1  6
 21 52  1  0
 21 53  1  0
 22 54  1  0
 22 55  1  0
 24 56  1  0
 25 57  1  0
 28 58  1  0
 30 59  1  0
 30 60  1  0
 31 61  1  0
 31 62  1  0
 32 63  1  0
 32 64  1  0
M  END
>  <smiles>  (1) 
CCC(=O)N(c1ccccc1)C1CCN(C(=O)[C@@H](N)C2CCc3ccc(Cl)cc3C2)CC1

>  <score_type>  (1) 
oracle

>  <origin>  (1) 
autodockgpu

>  <m_score__min__energy>  (1) 
-8.5199999999999996

>  <m_primary>  (1) 
energy

>  <rmsd>  (1) 
5.6124555347684

>  <m_score__min__rmsd>  (1) 
5.6124555347684

>  <meeko>  (1) 
{"free_energy": -7.93, "intermolecular_energy": -10.02, "internal_energy": -2.04, "cluster_size": 16, "cluster_id": 1, "rank_in_cluster": 11}

>  <energy>  (1) 
-8.52

>  <cluster_rmsd>  (1) 
0.0

>  <cluster>  (1) 
1

$$$$

     RDKit          3D

 64 67  0  0  0  0  0  0  0  0999 V2000
  146.8080   73.3970  222.0370 C   0  0  0  0  0  0  0  0  0  0  0  0
  145.5340   73.7670  221.2390 C   0  0  0  0  0  0  0  0  0  0  0  0
  145.5340   73.0710  219.9580 C   0  0  0  0  0  0  0  0  0  0  0  0
  146.6990   73.0990  219.3680 O   0  0  0  0  0  0  0  0  0  0  0  0
  144.5050   72.3910  219.2770 N   0  0  0  0  0  0  0  0  0  0  0  0
  144.2610   71.0100  219.2200 C   0  0  0  0  0  0  0  0  0  0  0  0
  145.3210   70.1090  219.0020 C   0  0  0  0  0  0  0  0  0  0  0  0
  145.1210   68.7450  218.9300 C   0  0  0  0  0  0  0  0  0  0  0  0
  143.8760   68.1850  219.0680 C   0  0  0  0  0  0  0  0  0  0  0  0
  142.8250   69.0330  219.2810 C   0  0  0  0  0  0  0  0  0  0  0  0
  143.0290   70.4100  219.3530 C   0  0  0  0  0  0  0  0  0  0  0  0
  143.5760   73.2660  218.5460 C   0  0  0  0  0  0  0  0  0  0  0  0
  142.5200   73.9080  219.3490 C   0  0  0  0  0  0  0  0  0  0  0  0
  142.0100   75.2380  218.8890 C   0  0  0  0  0  0  0  0  0  0  0  0
  142.6320   75.7220  217.6930 N   0  0  0  0  0  0  0  0  0  0  0  0
  142.9120   77.0700  217.3800 C   0  0  0  0  0  0  0  0  0  0  0  0
  143.4910   77.3560  216.2690 O   0  0  0  0  0  0  0  0  0  0  0  0
  142.5950   78.2310  218.2380 C   0  0  1  0  0  0  0  0  0  0  0  0
  142.8710   79.4470  217.4720 N   0  0  0  0  0  0  0  0  0  0  0  0
  141.1240   78.1940  218.6250 C   0  0  2  0  0  0  0  0  0  0  0  0
  140.3190   79.2950  218.0270 C   0  0  0  0  0  0  0  0  0  0  0  0
  140.4000   80.6180  218.6940 C   0  0  0  0  0  0  0  0  0  0  0  0
  140.9850   80.6230  220.0340 C   0  0  0  0  0  0  0  0  0  0  0  0
  141.2670   81.8400  220.6210 C   0  0  0  0  0  0  0  0  0  0  0  0
  141.8190   81.9370  221.8820 C   0  0  0  0  0  0  0  0  0  0  0  0
  142.0880   80.7730  222.5600 C   0  0  0  0  0  0  0  0  0  0  0  0
  142.7870   80.9050  224.1560 Cl  0  0  0  0  0  0  0  0  0  0  0  0
  141.8090   79.5520  221.9820 C   0  0  0  0  0  0  0  0  0  0  0  0
  141.2520   79.4520  220.7070 C   0  0  0  0  0  0  0  0  0  0  0  0
  140.9760   78.1240  220.1440 C   0  0  0  0  0  0  0  0  0  0  0  0
  143.0130   74.6910  216.7060 C   0  0  0  0  0  0  0  0  0  0  0  0
  144.2050   74.0170  217.4190 C   0  0  0  0  0  0  0  0  0  0  0  0
  146.5964   73.4585  223.1147 H   0  0  0  0  0  0  0  0  0  0  0  0
  147.1159   72.3723  221.7817 H   0  0  0  0  0  0  0  0  0  0  0  0
  147.6169   74.0973  221.7817 H   0  0  0  0  0  0  0  0  0  0  0  0
  144.6441   73.4724  221.8146 H   0  0  0  0  0  0  0  0  0  0  0  0
  145.5186   74.8526  221.0624 H   0  0  0  0  0  0  0  0  0  0  0  0
  146.3408   70.5046  218.8854 H   0  0  0  0  0  0  0  0  0  0  0  0
  145.9856   68.0874  218.7568 H   0  0  0  0  0  0  0  0  0  0  0  0
  143.7293   67.0964  219.0095 H   0  0  0  0  0  0  0  0  0  0  0  0
  141.8099   68.6252  219.3965 H   0  0  0  0  0  0  0  0  0  0  0  0
  142.1548   71.0548  219.5261 H   0  0  0  0  0  0  0  0  0  0  0  0
  142.9153   72.5911  217.9820 H   0  0  0  0  0  0  0  0  0  0  0  0
  141.6631   73.2188  219.3766 H   0  0  0  0  0  0  0  0  0  0  0  0
  142.9937   74.1119  220.3206 H   0  0  0  0  0  0  0  0  0  0  0  0
  140.9294   75.1483  218.7042 H   0  0  0  0  0  0  0  0  0  0  0  0
  142.2470   75.9604  219.6840 H   0  0  0  0  0  0  0  0  0  0  0  0
  143.2031   78.2082  219.1544 H   0  0  0  0  0  0  0  0  0  0  0  0
  142.9620   79.1650  216.4700 H   0  0  0  0  0  0  0  0  0  0  0  0
  143.7870   79.8450  217.7500 H   0  0  0  0  0  0  0  0  0  0  0  0
  140.7023   77.2750  218.1918 H   0  0  0  0  0  0  0  0  0  0  0  0
  140.6529   79.4251  216.9870 H   0  0  0  0  0  0  0  0  0  0  0  0
  139.2710   78.9795  218.1371 H   0  0  0  0  0  0  0  0  0  0  0  0
  141.0076   81.2791  218.0586 H   0  0  0  0  0  0  0  0  0  0  0  0
  139.3594   80.9508  218.8223 H   0  0  0  0  0  0  0  0  0  0  0  0
  141.0444   82.7629  220.0654 H   0  0  0  0  0  0  0  0  0  0  0  0
  142.0371   82.9173  222.3309 H   0  0  0  0  0  0  0  0  0  0  0  0
  142.0319   78.6318  222.5419 H   0  0  0  0  0  0  0  0  0  0  0  0
  141.6902   77.3936  220.5520 H   0  0  0  0  0  0  0  0  0  0  0  0
  139.9546   77.8112  220.4064 H   0  0  0  0  0  0  0  0  0  0  0  0
  142.1933   73.9787  216.5307 H   0  0  0  0  0  0  0  0  0  0  0  0
  143.2505   75.0881  215.7080 H   0  0  0  0  0  0  0  0  0  0  0  0
  144.7309   73.3316  216.7381 H   0  0  0  0  0  0  0  0  0  0  0  0
  144.9575   74.7423  217.7621 H   0  0  0  0  0  0  0  0  0  0  0  0
  1  2  1  0
  2  3  1  0
  3  4  2  0
  3  5  1  0
  5  6  1  0
  6  7  2  0
  7  8  1  0
  8  9  2  0
  9 10  1  0
 10 11  2  0
  5 12  1  0
 12 13  1  0
 13 14  1  0
 14 15  1  0
 15 16  1  0
 16 17  2  0
 16 18  1  0
 18 19  1  0
 18 20  1  0
 20 21  1  0
 21 22  1  0
 22 23  1  0
 23 24  2  0
 24 25  1  0
 25 26  2  0
 26 27  1  0
 26 28  1  0
 28 29  2  0
 29 30  1  0
 15 31  1  0
 31 32  1  0
 11  6  1  0
 32 12  1  0
 30 20  1  0
 29 23  1  0
  1 33  1  0
  1 34  1  0
  1 35  1  0
  2 36  1  0
  2 37  1  0
  7 38  1  0
  8 39  1  0
  9 40  1  0
 10 41  1  0
 11 42  1  0
 12 43  1  0
 13 44  1  0
 13 45  1  0
 14 46  1  0
 14 47  1  0
 18 48  1  1
 19 49  1  0
 19 50  1  0
 20 51  1  6
 21 52  1  0
 21 53  1  0
 22 54  1  0
 22 55  1  0
 24 56  1  0
 25 57  1  0
 28 58  1  0
 30 59  1  0
 30 60  1  0
 31 61  1  0
 31 62  1  0
 32 63  1  0
 32 64  1  0
M  END
>  <smiles>  (2) 
CCC(=O)N(c1ccccc1)C1CCN(C(=O)[C@@H](N)C2CCc3ccc(Cl)cc3C2)CC1

>  <score_type>  (2) 
oracle

>  <origin>  (2) 
autodockgpu

>  <m_score__min__energy>  (2) 
-8.5199999999999996

>  <m_primary>  (2) 
energy

>  <rmsd>  (2) 
4.56048576388133

>  <m_score__min__rmsd>  (2) 
4.56048576388133

>  <meeko>  (2) 
{"free_energy": -7.59, "intermolecular_energy": -9.68, "internal_energy": -2.34, "cluster_size": 3, "cluster_id": 3, "rank_in_cluster": 2}

>  <energy>  (2) 
-8.52

>  <cluster_rmsd>  (2) 
0.06

>  <cluster>  (2) 
1

$$$$

     RDKit          3D

 64 67  0  0  0  0  0  0  0  0999 V2000
  136.2680   68.8570  223.0020 C   0  0  0  0  0  0  0  0  0  0  0  0
  137.5770   68.0790  222.7230 C   0  0  0  0  0  0  0  0  0  0  0  0
  138.6180   68.5190  223.6440 C   0  0  0  0  0  0  0  0  0  0  0  0
  139.1080   67.5400  224.3570 O   0  0  0  0  0  0  0  0  0  0  0  0
  139.1630   69.7970  223.8790 N   0  0  0  0  0  0  0  0  0  0  0  0
  139.7390   70.2950  225.0590 C   0  0  0  0  0  0  0  0  0  0  0  0
  139.4400   69.7040  226.3010 C   0  0  0  0  0  0  0  0  0  0  0  0
  139.9780   70.1700  227.4840 C   0  0  0  0  0  0  0  0  0  0  0  0
  140.8390   71.2380  227.5190 C   0  0  0  0  0  0  0  0  0  0  0  0
  141.1490   71.8340  226.3290 C   0  0  0  0  0  0  0  0  0  0  0  0
  140.6050   71.3630  225.1360 C   0  0  0  0  0  0  0  0  0  0  0  0
  139.1170   70.7020  222.7220 C   0  0  0  0  0  0  0  0  0  0  0  0
  138.4170   71.9830  222.9260 C   0  0  0  0  0  0  0  0  0  0  0  0
  138.8770   73.1600  222.1240 C   0  0  0  0  0  0  0  0  0  0  0  0
  139.9640   72.8760  221.2370 N   0  0  0  0  0  0  0  0  0  0  0  0
  141.0150   73.7540  220.8890 C   0  0  0  0  0  0  0  0  0  0  0  0
  141.9360   73.3550  220.0870 O   0  0  0  0  0  0  0  0  0  0  0  0
  141.1680   75.1400  221.3780 C   0  0  1  0  0  0  0  0  0  0  0  0
  142.1850   75.7980  220.5580 N   0  0  0  0  0  0  0  0  0  0  0  0
  139.8450   75.8800  221.2410 C   0  0  2  0  0  0  0  0  0  0  0  0
  139.6140   76.4500  219.8850 C   0  0  0  0  0  0  0  0  0  0  0  0
  140.2950   77.7320  219.5760 C   0  0  0  0  0  0  0  0  0  0  0  0
  140.8400   78.4580  220.7220 C   0  0  0  0  0  0  0  0  0  0  0  0
  141.6500   79.5480  220.4820 C   0  0  0  0  0  0  0  0  0  0  0  0
  142.2070   80.2900  221.5030 C   0  0  0  0  0  0  0  0  0  0  0  0
  141.9320   79.9160  222.7970 C   0  0  0  0  0  0  0  0  0  0  0  0
  142.6410   80.8610  224.0840 Cl  0  0  0  0  0  0  0  0  0  0  0  0
  141.1240   78.8270  223.0470 C   0  0  0  0  0  0  0  0  0  0  0  0
  140.5600   78.0760  222.0160 C   0  0  0  0  0  0  0  0  0  0  0  0
  139.7050   76.9270  222.3450 C   0  0  0  0  0  0  0  0  0  0  0  0
  139.9690   71.5240  220.6410 C   0  0  0  0  0  0  0  0  0  0  0  0
  140.3390   70.6580  221.8630 C   0  0  0  0  0  0  0  0  0  0  0  0
  136.1186   68.9458  224.0882 H   0  0  0  0  0  0  0  0  0  0  0  0
  136.3365   69.8611  222.5580 H   0  0  0  0  0  0  0  0  0  0  0  0
  135.4188   68.3169  222.5580 H   0  0  0  0  0  0  0  0  0  0  0  0
  137.3985   67.0024  222.8608 H   0  0  0  0  0  0  0  0  0  0  0  0
  137.9009   68.2713  221.6895 H   0  0  0  0  0  0  0  0  0  0  0  0
  138.7557   68.8432  226.3300 H   0  0  0  0  0  0  0  0  0  0  0  0
  139.7085   69.6705  228.4263 H   0  0  0  0  0  0  0  0  0  0  0  0
  141.2628   71.6000  228.4673 H   0  0  0  0  0  0  0  0  0  0  0  0
  141.8347   72.6940  226.3129 H   0  0  0  0  0  0  0  0  0  0  0  0
  140.8831   71.8734  224.2021 H   0  0  0  0  0  0  0  0  0  0  0  0
  138.3816   70.2620  222.0324 H   0  0  0  0  0  0  0  0  0  0  0  0
  137.3552   71.8189  222.6901 H   0  0  0  0  0  0  0  0  0  0  0  0
  138.6320   72.2554  223.9698 H   0  0  0  0  0  0  0  0  0  0  0  0
  138.0285   73.5224  221.5251 H   0  0  0  0  0  0  0  0  0  0  0  0
  139.2420   73.9091  222.8421 H   0  0  0  0  0  0  0  0  0  0  0  0
  141.4673   75.1421  222.4365 H   0  0  0  0  0  0  0  0  0  0  0  0
  142.0650   75.4490  219.5810 H   0  0  0  0  0  0  0  0  0  0  0  0
  143.1320   75.5070  220.8600 H   0  0  0  0  0  0  0  0  0  0  0  0
  139.0467   75.1337  221.3669 H   0  0  0  0  0  0  0  0  0  0  0  0
  139.9532   75.7065  219.1487 H   0  0  0  0  0  0  0  0  0  0  0  0
  138.5384   76.6773  219.8464 H   0  0  0  0  0  0  0  0  0  0  0  0
  141.1257   77.5151  218.8884 H   0  0  0  0  0  0  0  0  0  0  0  0
  139.5195   78.3860  219.1508 H   0  0  0  0  0  0  0  0  0  0  0  0
  141.8591   79.8356  219.4410 H   0  0  0  0  0  0  0  0  0  0  0  0
  142.8518   81.1549  221.2882 H   0  0  0  0  0  0  0  0  0  0  0  0
  140.9183   78.5424  224.0895 H   0  0  0  0  0  0  0  0  0  0  0  0
  140.0192   76.4952  223.3067 H   0  0  0  0  0  0  0  0  0  0  0  0
  138.6566   77.2505  222.4239 H   0  0  0  0  0  0  0  0  0  0  0  0
  138.9796   71.2559  220.2419 H   0  0  0  0  0  0  0  0  0  0  0  0
  140.6506   71.4109  219.7850 H   0  0  0  0  0  0  0  0  0  0  0  0
  140.5644   69.6258  221.5567 H   0  0  0  0  0  0  0  0  0  0  0  0
  141.2359   71.0236  222.3845 H   0  0  0  0  0  0  0  0  0  0  0  0
  1  2  1  0
  2  3  1  0
  3  4  2  0
  3  5  1  0
  5  6  1  0
  6  7  2  0
  7  8  1  0
  8  9  2  0
  9 10  1  0
 10 11  2  0
  5 12  1  0
 12 13  1  0
 13 14  1  0
 14 15  1  0
 15 16  1  0
 16 17  2  0
 16 18  1  0
 18 19  1  0
 18 20  1  0
 20 21  1  0
 21 22  1  0
 22 23  1  0
 23 24  2  0
 24 25  1  0
 25 26  2  0
 26 27  1  0
 26 28  1  0
 28 29  2  0
 29 30  1  0
 15 31  1  0
 31 32  1  0
 11  6  1  0
 32 12  1  0
 30 20  1  0
 29 23  1  0
  1 33  1  0
  1 34  1  0
  1 35  1  0
  2 36  1  0
  2 37  1  0
  7 38  1  0
  8 39  1  0
  9 40  1  0
 10 41  1  0
 11 42  1  0
 12 43  1  0
 13 44  1  0
 13 45  1  0
 14 46  1  0
 14 47  1  0
 18 48  1  1
 19 49  1  0
 19 50  1  0
 20 51  1  1
 21 52  1  0
 21 53  1  0
 22 54  1  0
 22 55  1  0
 24 56  1  0
 25 57  1  0
 28 58  1  0
 30 59  1  0
 30 60  1  0
 31 61  1  0
 31 62  1  0
 32 63  1  0
 32 64  1  0
M  END
>  <smiles>  (3) 
CCC(=O)N(c1ccccc1)C1CCN(C(=O)[C@@H](N)C2CCc3ccc(Cl)cc3C2)CC1

>  <score_type>  (3) 
oracle

>  <origin>  (3) 
autodockgpu

>  <m_score__min__energy>  (3) 
-8.5199999999999996

>  <m_primary>  (3) 
energy

>  <rmsd>  (3) 
5.960304909987911

>  <m_score__min__rmsd>  (3) 
5.960304909987911

>  <meeko>  (3) 
{"free_energy": -8.03, "intermolecular_energy": -10.11, "internal_energy": -2.39, "cluster_size": 16, "cluster_id": 1, "rank_in_cluster": 9}

>  <energy>  (3) 
-8.4

>  <cluster_rmsd>  (3) 
0.22

>  <cluster>  (3) 
1

$$$$

     RDKit          3D

 64 67  0  0  0  0  0  0  0  0999 V2000
  138.7720   67.2820  222.3750 C   0  0  0  0  0  0  0  0  0  0  0  0
  137.4980   68.1450  222.5540 C   0  0  0  0  0  0  0  0  0  0  0  0
  137.6910   69.0880  223.6490 C   0  0  0  0  0  0  0  0  0  0  0  0
  136.7750   68.9820  224.5740 O   0  0  0  0  0  0  0  0  0  0  0  0
  138.6820   70.0680  223.8600 N   0  0  0  0  0  0  0  0  0  0  0  0
  139.4800   70.2690  224.9970 C   0  0  0  0  0  0  0  0  0  0  0  0
  139.8440   69.1800  225.8130 C   0  0  0  0  0  0  0  0  0  0  0  0
  140.6190   69.3370  226.9440 C   0  0  0  0  0  0  0  0  0  0  0  0
  141.0840   70.5660  227.3410 C   0  0  0  0  0  0  0  0  0  0  0  0
  140.7490   71.6430  226.5700 C   0  0  0  0  0  0  0  0  0  0  0  0
  139.9650   71.4830  225.4290 C   0  0  0  0  0  0  0  0  0  0  0  0
  138.8910   70.9780  222.7260 C   0  0  0  0  0  0  0  0  0  0  0  0
  137.8730   72.0260  222.5350 C   0  0  0  0  0  0  0  0  0  0  0  0
  138.3110   73.3140  221.9120 C   0  0  0  0  0  0  0  0  0  0  0  0
  139.7000   73.3560  221.5680 N   0  0  0  0  0  0  0  0  0  0  0  0
  140.5430   74.4880  221.6210 C   0  0  0  0  0  0  0  0  0  0  0  0
  141.7810   74.3730  221.2950 O   0  0  0  0  0  0  0  0  0  0  0  0
  140.1280   75.8460  222.0310 C   0  0  1  0  0  0  0  0  0  0  0  0
  141.3260   76.5850  222.4270 N   0  0  0  0  0  0  0  0  0  0  0  0
  139.4570   76.5510  220.8610 C   0  0  2  0  0  0  0  0  0  0  0  0
  140.3980   77.3310  220.0110 C   0  0  0  0  0  0  0  0  0  0  0  0
  140.7960   78.6700  220.5130 C   0  0  0  0  0  0  0  0  0  0  0  0
  139.9810   79.2130  221.5990 C   0  0  0  0  0  0  0  0  0  0  0  0
  140.4180   80.3560  222.2360 C   0  0  0  0  0  0  0  0  0  0  0  0
  139.7120   80.9360  223.2700 C   0  0  0  0  0  0  0  0  0  0  0  0
  138.5370   80.3420  223.6630 C   0  0  0  0  0  0  0  0  0  0  0  0
  137.6500   81.0830  224.9730 Cl  0  0  0  0  0  0  0  0  0  0  0  0
  138.0930   79.1990  223.0320 C   0  0  0  0  0  0  0  0  0  0  0  0
  138.8050   78.6110  221.9870 C   0  0  0  0  0  0  0  0  0  0  0  0
  138.2810   77.3940  221.3520 C   0  0  0  0  0  0  0  0  0  0  0  0
  140.2900   72.0770  221.1230 C   0  0  0  0  0  0  0  0  0  0  0  0
  140.3270   71.2850  222.4460 C   0  0  0  0  0  0  0  0  0  0  0  0
  139.1728   67.0105  223.3628 H   0  0  0  0  0  0  0  0  0  0  0  0
  138.5202   66.3677  221.8176 H   0  0  0  0  0  0  0  0  0  0  0  0
  139.5276   67.8549  221.8176 H   0  0  0  0  0  0  0  0  0  0  0  0
  137.2989   68.6996  221.6251 H   0  0  0  0  0  0  0  0  0  0  0  0
  136.6447   67.4901  222.7844 H   0  0  0  0  0  0  0  0  0  0  0  0
  139.4993   68.1717  225.5398 H   0  0  0  0  0  0  0  0  0  0  0  0
  140.8716   68.4511  227.5451 H   0  0  0  0  0  0  0  0  0  0  0  0
  141.7018   70.6792  228.2440 H   0  0  0  0  0  0  0  0  0  0  0  0
  141.1014   72.6460  226.8526 H   0  0  0  0  0  0  0  0  0  0  0  0
  139.7194   72.3785  224.8393 H   0  0  0  0  0  0  0  0  0  0  0  0
  138.6399   70.3925  221.8293 H   0  0  0  0  0  0  0  0  0  0  0  0
  137.0826   71.6042  221.8968 H   0  0  0  0  0  0  0  0  0  0  0  0
  137.5616   72.3009  223.5536 H   0  0  0  0  0  0  0  0  0  0  0  0
  137.7235   73.4714  220.9954 H   0  0  0  0  0  0  0  0  0  0  0  0
  138.1470   74.1007  222.6631 H   0  0  0  0  0  0  0  0  0  0  0  0
  139.4164   75.7922  222.8681 H   0  0  0  0  0  0  0  0  0  0  0  0
  141.9620   76.6070  221.5980 H   0  0  0  0  0  0  0  0  0  0  0  0
  141.8320   76.0730  223.1730 H   0  0  0  0  0  0  0  0  0  0  0  0
  139.0682   75.7661  220.1956 H   0  0  0  0  0  0  0  0  0  0  0  0
  141.3140   76.7335  219.8929 H   0  0  0  0  0  0  0  0  0  0  0  0
  139.8514   77.5235  219.0761 H   0  0  0  0  0  0  0  0  0  0  0  0
  141.8333   78.6006  220.8723 H   0  0  0  0  0  0  0  0  0  0  0  0
  140.6598   79.3582  219.6658 H   0  0  0  0  0  0  0  0  0  0  0  0
  141.3601   80.8202  221.9089 H   0  0  0  0  0  0  0  0  0  0  0  0
  140.0791   81.8471  223.7651 H   0  0  0  0  0  0  0  0  0  0  0  0
  137.1505   78.7380  223.3623 H   0  0  0  0  0  0  0  0  0  0  0  0
  137.6933   76.8191  222.0828 H   0  0  0  0  0  0  0  0  0  0  0  0
  137.6336   77.6631  220.5044 H   0  0  0  0  0  0  0  0  0  0  0  0
  139.6561   71.5801  220.3738 H   0  0  0  0  0  0  0  0  0  0  0  0
  141.2688   72.1791  220.6315 H   0  0  0  0  0  0  0  0  0  0  0  0
  140.9093   70.3589  222.3308 H   0  0  0  0  0  0  0  0  0  0  0  0
  140.8060   71.8466  223.2616 H   0  0  0  0  0  0  0  0  0  0  0  0
  1  2  1  0
  2  3  1  0
  3  4  2  0
  3  5  1  0
  5  6  1  0
  6  7  2  0
  7  8  1  0
  8  9  2  0
  9 10  1  0
 10 11  2  0
  5 12  1  0
 12 13  1  0
 13 14  1  0
 14 15  1  0
 15 16  1  0
 16 17  2  0
 16 18  1  0
 18 19  1  0
 18 20  1  0
 20 21  1  0
 21 22  1  0
 22 23  1  0
 23 24  2  0
 24 25  1  0
 25 26  2  0
 26 27  1  0
 26 28  1  0
 28 29  2  0
 29 30  1  0
 15 31  1  0
 31 32  1  0
 11  6  1  0
 32 12  1  0
 30 20  1  0
 29 23  1  0
  1 33  1  0
  1 34  1  0
  1 35  1  0
  2 36  1  0
  2 37  1  0
  7 38  1  0
  8 39  1  0
  9 40  1  0
 10 41  1  0
 11 42  1  0
 12 43  1  0
 13 44  1  0
 13 45  1  0
 14 46  1  0
 14 47  1  0
 18 48  1  1
 19 49  1  0
 19 50  1  0
 20 51  1  6
 21 52  1  0
 21 53  1  0
 22 54  1  0
 22 55  1  0
 24 56  1  0
 25 57  1  0
 28 58  1  0
 30 59  1  0
 30 60  1  0
 31 61  1  0
 31 62  1  0
 32 63  1  0
 32 64  1  0
M  END
>  <smiles>  (4) 
CCC(=O)N(c1ccccc1)C1CCN(C(=O)[C@@H](N)C2CCc3ccc(Cl)cc3C2)CC1

>  <score_type>  (4) 
oracle

>  <origin>  (4) 
autodockgpu

>  <m_score__min__energy>  (4) 
-8.5199999999999996

>  <m_primary>  (4) 
energy

>  <rmsd>  (4) 
5.416733792529403

>  <m_score__min__rmsd>  (4) 
5.416733792529403

>  <meeko>  (4) 
{"free_energy": -7.68, "intermolecular_energy": -9.77, "internal_energy": -2.35, "cluster_size": 16, "cluster_id": 1, "rank_in_cluster": 13}

>  <energy>  (4) 
-8.35

>  <cluster_rmsd>  (4) 
0.34

>  <cluster>  (4) 
1

$$$$

     RDKit          3D

 64 67  0  0  0  0  0  0  0  0999 V2000
  135.9320   69.5370  223.7180 C   0  0  0  0  0  0  0  0  0  0  0  0
  136.9630   68.5820  223.0690 C   0  0  0  0  0  0  0  0  0  0  0  0
  138.2820   68.8130  223.6460 C   0  0  0  0  0  0  0  0  0  0  0  0
  138.8570   67.7110  224.0490 O   0  0  0  0  0  0  0  0  0  0  0  0
  139.0120   70.0030  223.8330 N   0  0  0  0  0  0  0  0  0  0  0  0
  139.6880   70.4400  224.9830 C   0  0  0  0  0  0  0  0  0  0  0  0
  139.4760   69.7990  226.2190 C   0  0  0  0  0  0  0  0  0  0  0  0
  140.1140   70.2040  227.3740 C   0  0  0  0  0  0  0  0  0  0  0  0
  140.9950   71.2560  227.3870 C   0  0  0  0  0  0  0  0  0  0  0  0
  141.2220   71.9000  226.2030 C   0  0  0  0  0  0  0  0  0  0  0  0
  140.5770   71.4900  225.0380 C   0  0  0  0  0  0  0  0  0  0  0  0
  139.0640   70.8790  222.6530 C   0  0  0  0  0  0  0  0  0  0  0  0
  138.3700   72.1730  222.7730 C   0  0  0  0  0  0  0  0  0  0  0  0
  138.9040   73.3230  221.9780 C   0  0  0  0  0  0  0  0  0  0  0  0
  140.0480   73.0020  221.1800 N   0  0  0  0  0  0  0  0  0  0  0  0
  141.1340   73.8570  220.8890 C   0  0  0  0  0  0  0  0  0  0  0  0
  142.1060   73.4260  220.1660 O   0  0  0  0  0  0  0  0  0  0  0  0
  141.2720   75.2540  221.3520 C   0  0  1  0  0  0  0  0  0  0  0  0
  142.2670   75.9140  220.5080 N   0  0  0  0  0  0  0  0  0  0  0  0
  139.9350   75.9700  221.2200 C   0  0  2  0  0  0  0  0  0  0  0  0
  139.7020   76.5600  219.8740 C   0  0  0  0  0  0  0  0  0  0  0  0
  140.3590   77.8610  219.5930 C   0  0  0  0  0  0  0  0  0  0  0  0
  140.8820   78.5760  220.7550 C   0  0  0  0  0  0  0  0  0  0  0  0
  141.6730   79.6870  220.5400 C   0  0  0  0  0  0  0  0  0  0  0  0
  142.2080   80.4200  221.5790 C   0  0  0  0  0  0  0  0  0  0  0  0
  141.9330   80.0160  222.8630 C   0  0  0  0  0  0  0  0  0  0  0  0
  142.6160   80.9510  224.1720 Cl  0  0  0  0  0  0  0  0  0  0  0  0
  141.1450   78.9080  223.0880 C   0  0  0  0  0  0  0  0  0  0  0  0
  140.6020   78.1650  222.0400 C   0  0  0  0  0  0  0  0  0  0  0  0
  139.7680   76.9940  222.3420 C   0  0  0  0  0  0  0  0  0  0  0  0
  140.0780   71.6350  220.6200 C   0  0  0  0  0  0  0  0  0  0  0  0
  140.3440   70.7960  221.8880 C   0  0  0  0  0  0  0  0  0  0  0  0
  136.0068   69.4677  224.8133 H   0  0  0  0  0  0  0  0  0  0  0  0
  136.1386   70.5699  223.4010 H   0  0  0  0  0  0  0  0  0  0  0  0
  134.9180   69.2521  223.4010 H   0  0  0  0  0  0  0  0  0  0  0  0
  136.6616   67.5401  223.2524 H   0  0  0  0  0  0  0  0  0  0  0  0
  137.0021   68.7715  221.9862 H   0  0  0  0  0  0  0  0  0  0  0  0
  138.7798   68.9486  226.2653 H   0  0  0  0  0  0  0  0  0  0  0  0
  139.9101   69.6673  228.3123 H   0  0  0  0  0  0  0  0  0  0  0  0
  141.4986   71.5686  228.3136 H   0  0  0  0  0  0  0  0  0  0  0  0
  141.9201   72.7495  226.1696 H   0  0  0  0  0  0  0  0  0  0  0  0
  140.7905   72.0371  224.1079 H   0  0  0  0  0  0  0  0  0  0  0  0
  138.3742   70.4323  221.9218 H   0  0  0  0  0  0  0  0  0  0  0  0
  137.3260   72.0162  222.4640 H   0  0  0  0  0  0  0  0  0  0  0  0
  138.5124   72.4696  223.8227 H   0  0  0  0  0  0  0  0  0  0  0  0
  138.1066   73.6808  221.3101 H   0  0  0  0  0  0  0  0  0  0  0  0
  139.2268   74.0857  222.7019 H   0  0  0  0  0  0  0  0  0  0  0  0
  141.5860   75.2792  222.4059 H   0  0  0  0  0  0  0  0  0  0  0  0
  142.1840   75.5000  219.5530 H   0  0  0  0  0  0  0  0  0  0  0  0
  143.2230   75.6930  220.8420 H   0  0  0  0  0  0  0  0  0  0  0  0
  139.1506   75.2063  221.3272 H   0  0  0  0  0  0  0  0  0  0  0  0
  140.0610   75.8371  219.1266 H   0  0  0  0  0  0  0  0  0  0  0  0
  138.6224   76.7666  219.8322 H   0  0  0  0  0  0  0  0  0  0  0  0
  141.1981   77.6736  218.9069 H   0  0  0  0  0  0  0  0  0  0  0  0
  139.5731   78.5072  219.1749 H   0  0  0  0  0  0  0  0  0  0  0  0
  141.8836   79.9979  219.5061 H   0  0  0  0  0  0  0  0  0  0  0  0
  142.8362   81.3019  221.3852 H   0  0  0  0  0  0  0  0  0  0  0  0
  140.9384   78.6008  224.1238 H   0  0  0  0  0  0  0  0  0  0  0  0
  140.0847   76.5507  223.2976 H   0  0  0  0  0  0  0  0  0  0  0  0
  138.7130   77.2957  222.4197 H   0  0  0  0  0  0  0  0  0  0  0  0
  139.1173   71.3689  220.1550 H   0  0  0  0  0  0  0  0  0  0  0  0
  140.8196   71.4914  219.8204 H   0  0  0  0  0  0  0  0  0  0  0  0
  140.5752   69.7532  221.6252 H   0  0  0  0  0  0  0  0  0  0  0  0
  141.2058   71.1630  222.4647 H   0  0  0  0  0  0  0  0  0  0  0  0
  1  2  1  0
  2  3  1  0
  3  4  2  0
  3  5  1  0
  5  6  1  0
  6  7  2  0
  7  8  1  0
  8  9  2  0
  9 10  1  0
 10 11  2  0
  5 12  1  0
 12 13  1  0
 13 14  1  0
 14 15  1  0
 15 16  1  0
 16 17  2  0
 16 18  1  0
 18 19  1  0
 18 20  1  0
 20 21  1  0
 21 22  1  0
 22 23  1  0
 23 24  2  0
 24 25  1  0
 25 26  2  0
 26 27  1  0
 26 28  1  0
 28 29  2  0
 29 30  1  0
 15 31  1  0
 31 32  1  0
 11  6  1  0
 32 12  1  0
 30 20  1  0
 29 23  1  0
  1 33  1  0
  1 34  1  0
  1 35  1  0
  2 36  1  0
  2 37  1  0
  7 38  1  0
  8 39  1  0
  9 40  1  0
 10 41  1  0
 11 42  1  0
 12 43  1  0
 13 44  1  0
 13 45  1  0
 14 46  1  0
 14 47  1  0
 18 48  1  1
 19 49  1  0
 19 50  1  0
 20 51  1  1
 21 52  1  0
 21 53  1  0
 22 54  1  0
 22 55  1  0
 24 56  1  0
 25 57  1  0
 28 58  1  0
 30 59  1  0
 30 60  1  0
 31 61  1  0
 31 62  1  0
 32 63  1  0
 32 64  1  0
M  END
>  <smiles>  (5) 
CCC(=O)N(c1ccccc1)C1CCN(C(=O)[C@@H](N)C2CCc3ccc(Cl)cc3C2)CC1

>  <score_type>  (5) 
oracle

>  <origin>  (5) 
autodockgpu

>  <m_score__min__energy>  (5) 
-8.5199999999999996

>  <m_primary>  (5) 
energy

>  <rmsd>  (5) 
5.838093919129855

>  <m_score__min__rmsd>  (5) 
5.838093919129855

>  <meeko>  (5) 
{"free_energy": -7.97, "intermolecular_energy": -10.06, "internal_energy": -2.34, "cluster_size": 16, "cluster_id": 1, "rank_in_cluster": 10}

>  <energy>  (5) 
-8.17

>  <cluster_rmsd>  (5) 
1.4

>  <cluster>  (5) 
1

$$$$

     RDKit          3D

 64 67  0  0  0  0  0  0  0  0999 V2000
  137.8810   80.6840  223.8400 C   0  0  0  0  0  0  0  0  0  0  0  0
  137.3790   79.7850  222.6830 C   0  0  0  0  0  0  0  0  0  0  0  0
  138.1430   78.5430  222.6560 C   0  0  0  0  0  0  0  0  0  0  0  0
  137.4610   77.5210  223.0970 O   0  0  0  0  0  0  0  0  0  0  0  0
  139.4640   78.2810  222.2410 N   0  0  0  0  0  0  0  0  0  0  0  0
  140.6080   79.0740  222.4230 C   0  0  0  0  0  0  0  0  0  0  0  0
  141.3550   78.9830  223.6130 C   0  0  0  0  0  0  0  0  0  0  0  0
  142.4800   79.7510  223.8340 C   0  0  0  0  0  0  0  0  0  0  0  0
  142.9390   80.6510  222.9050 C   0  0  0  0  0  0  0  0  0  0  0  0
  142.2370   80.7630  221.7380 C   0  0  0  0  0  0  0  0  0  0  0  0
  141.1010   79.9870  221.5170 C   0  0  0  0  0  0  0  0  0  0  0  0
  139.6400   77.0040  221.5350 C   0  0  0  0  0  0  0  0  0  0  0  0
  140.5180   76.0170  222.1870 C   0  0  0  0  0  0  0  0  0  0  0  0
  140.2330   74.5670  221.9450 C   0  0  0  0  0  0  0  0  0  0  0  0
  139.1150   74.3260  221.0840 N   0  0  0  0  0  0  0  0  0  0  0  0
  138.2020   73.2520  221.1750 C   0  0  0  0  0  0  0  0  0  0  0  0
  137.2320   73.1710  220.3360 O   0  0  0  0  0  0  0  0  0  0  0  0
  138.2530   72.1690  222.1800 C   0  0  1  0  0  0  0  0  0  0  0  0
  137.0020   71.4160  222.0950 N   0  0  0  0  0  0  0  0  0  0  0  0
  139.4250   71.2470  221.8800 C   0  0  2  0  0  0  0  0  0  0  0  0
  139.0580   69.8050  221.8330 C   0  0  0  0  0  0  0  0  0  0  0  0
  138.9210   69.1100  223.1370 C   0  0  0  0  0  0  0  0  0  0  0  0
  139.4760   69.8090  224.2950 C   0  0  0  0  0  0  0  0  0  0  0  0
  139.2070   69.3100  225.5530 C   0  0  0  0  0  0  0  0  0  0  0  0
  139.6900   69.9060  226.7000 C   0  0  0  0  0  0  0  0  0  0  0  0
  140.4650   71.0330  226.5640 C   0  0  0  0  0  0  0  0  0  0  0  0
  141.0720   71.7820  228.0210 Cl  0  0  0  0  0  0  0  0  0  0  0  0
  140.7390   71.5400  225.3110 C   0  0  0  0  0  0  0  0  0  0  0  0
  140.2520   70.9390  224.1510 C   0  0  0  0  0  0  0  0  0  0  0  0
  140.5790   71.5230  222.8430 C   0  0  0  0  0  0  0  0  0  0  0  0
  138.9130   75.3130  220.0030 C   0  0  0  0  0  0  0  0  0  0  0  0
  138.4230   76.5390  220.8030 C   0  0  0  0  0  0  0  0  0  0  0  0
  137.6221   80.2204  224.8034 H   0  0  0  0  0  0  0  0  0  0  0  0
  138.9729   80.7972  223.7692 H   0  0  0  0  0  0  0  0  0  0  0  0
  137.4045   81.6729  223.7692 H   0  0  0  0  0  0  0  0  0  0  0  0
  136.3139   79.5555  222.8345 H   0  0  0  0  0  0  0  0  0  0  0  0
  137.5116   80.3141  221.7278 H   0  0  0  0  0  0  0  0  0  0  0  0
  141.0313   78.2768  224.3918 H   0  0  0  0  0  0  0  0  0  0  0  0
  143.0250   79.6385  224.7828 H   0  0  0  0  0  0  0  0  0  0  0  0
  143.8368   81.2583  223.0925 H   0  0  0  0  0  0  0  0  0  0  0  0
  142.5716   81.4719  220.9663 H   0  0  0  0  0  0  0  0  0  0  0  0
  140.5667   80.1107  220.5634 H   0  0  0  0  0  0  0  0  0  0  0  0
  140.3032   77.2243  220.6855 H   0  0  0  0  0  0  0  0  0  0  0  0
  141.5445   76.2122  221.8432 H   0  0  0  0  0  0  0  0  0  0  0  0
  140.3455   76.1590  223.2641 H   0  0  0  0  0  0  0  0  0  0  0  0
  141.1244   74.1113  221.4892 H   0  0  0  0  0  0  0  0  0  0  0  0
  139.9820   74.1263  222.9211 H   0  0  0  0  0  0  0  0  0  0  0  0
  138.3817   72.5880  223.1889 H   0  0  0  0  0  0  0  0  0  0  0  0
  136.8890   71.1170  221.1010 H   0  0  0  0  0  0  0  0  0  0  0  0
  136.1970   72.0330  222.3100 H   0  0  0  0  0  0  0  0  0  0  0  0
  139.7610   71.4803  220.8589 H   0  0  0  0  0  0  0  0  0  0  0  0
  138.0945   69.7231  221.3086 H   0  0  0  0  0  0  0  0  0  0  0  0
  139.8994   69.3086  221.3275 H   0  0  0  0  0  0  0  0  0  0  0  0
  137.8487   68.9496  223.3223 H   0  0  0  0  0  0  0  0  0  0  0  0
  139.5040   68.1820  223.0422 H   0  0  0  0  0  0  0  0  0  0  0  0
  138.5864   68.4064  225.6446 H   0  0  0  0  0  0  0  0  0  0  0  0
  139.4617   69.4917  227.6931 H   0  0  0  0  0  0  0  0  0  0  0  0
  141.3594   72.4442  225.2244 H   0  0  0  0  0  0  0  0  0  0  0  0
  140.7219   72.6086  222.9478 H   0  0  0  0  0  0  0  0  0  0  0  0
  141.5060   71.0760  222.4545 H   0  0  0  0  0  0  0  0  0  0  0  0
  139.8524   75.5273  219.4723 H   0  0  0  0  0  0  0  0  0  0  0  0
  138.2209   74.9830  219.2143 H   0  0  0  0  0  0  0  0  0  0  0  0
  138.0499   77.3229  220.1274 H   0  0  0  0  0  0  0  0  0  0  0  0
  137.5893   76.2975  221.4788 H   0  0  0  0  0  0  0  0  0  0  0  0
  1  2  1  0
  2  3  1  0
  3  4  2  0
  3  5  1  0
  5  6  1  0
  6  7  2  0
  7  8  1  0
  8  9  2  0
  9 10  1  0
 10 11  2  0
  5 12  1  0
 12 13  1  0
 13 14  1  0
 14 15  1  0
 15 16  1  0
 16 17  2  0
 16 18  1  0
 18 19  1  0
 18 20  1  0
 20 21  1  0
 21 22  1  0
 22 23  1  0
 23 24  2  0
 24 25  1  0
 25 26  2  0
 26 27  1  0
 26 28  1  0
 28 29  2  0
 29 30  1  0
 15 31  1  0
 31 32  1  0
 11  6  1  0
 32 12  1  0
 30 20  1  0
 29 23  1  0
  1 33  1  0
  1 34  1  0
  1 35  1  0
  2 36  1  0
  2 37  1  0
  7 38  1  0
  8 39  1  0
  9 40  1  0
 10 41  1  0
 11 42  1  0
 12 43  1  0
 13 44  1  0
 13 45  1  0
 14 46  1  0
 14 47  1  0
 18 48  1  1
 19 49  1  0
 19 50  1  0
 20 51  1  6
 21 52  1  0
 21 53  1  0
 22 54  1  0
 22 55  1  0
 24 56  1  0
 25 57  1  0
 28 58  1  0
 30 59  1  0
 30 60  1  0
 31 61  1  0
 31 62  1  0
 32 63  1  0
 32 64  1  0
M  END
>  <smiles>  (6) 
CCC(=O)N(c1ccccc1)C1CCN(C(=O)[C@@H](N)C2CCc3ccc(Cl)cc3C2)CC1

>  <score_type>  (6) 
oracle

>  <origin>  (6) 
autodockgpu

>  <m_score__min__energy>  (6) 
-8.5199999999999996

>  <m_primary>  (6) 
energy

>  <rmsd>  (6) 
7.887229471054536

>  <m_score__min__rmsd>  (6) 
7.887229471054536

>  <meeko>  (6) 
{"free_energy": -7.49, "intermolecular_energy": -9.58, "internal_energy": -2.48, "cluster_size": 11, "cluster_id": 4, "rank_in_cluster": 3}

>  <energy>  (6) 
-8.15

>  <cluster_rmsd>  (6) 
0.33

>  <cluster>  (6) 
1

$$$$

     RDKit          3D

 64 67  0  0  0  0  0  0  0  0999 V2000
  137.7750   81.0850  223.3610 C   0  0  0  0  0  0  0  0  0  0  0  0
  137.4100   80.0500  222.2690 C   0  0  0  0  0  0  0  0  0  0  0  0
  138.1270   78.8040  222.5110 C   0  0  0  0  0  0  0  0  0  0  0  0
  137.3890   77.9030  223.1020 O   0  0  0  0  0  0  0  0  0  0  0  0
  139.4530   78.4290  222.2150 N   0  0  0  0  0  0  0  0  0  0  0  0
  140.6400   79.1200  222.5090 C   0  0  0  0  0  0  0  0  0  0  0  0
  141.1400   79.1460  223.8250 C   0  0  0  0  0  0  0  0  0  0  0  0
  142.2970   79.8210  224.1570 C   0  0  0  0  0  0  0  0  0  0  0  0
  143.0320   80.5070  223.2220 C   0  0  0  0  0  0  0  0  0  0  0  0
  142.5720   80.5000  221.9340 C   0  0  0  0  0  0  0  0  0  0  0  0
  141.4030   79.8190  221.6020 C   0  0  0  0  0  0  0  0  0  0  0  0
  139.5830   77.1430  221.5160 C   0  0  0  0  0  0  0  0  0  0  0  0
  140.5290   76.1770  222.1010 C   0  0  0  0  0  0  0  0  0  0  0  0
  140.2430   74.7200  221.9080 C   0  0  0  0  0  0  0  0  0  0  0  0
  139.0570   74.4520  221.1540 N   0  0  0  0  0  0  0  0  0  0  0  0
  138.1710   73.3680  221.3420 C   0  0  0  0  0  0  0  0  0  0  0  0
  137.1310   73.2620  220.5950 O   0  0  0  0  0  0  0  0  0  0  0  0
  138.3250   72.3030  222.3550 C   0  0  1  0  0  0  0  0  0  0  0  0
  137.1160   71.4800  222.3330 N   0  0  0  0  0  0  0  0  0  0  0  0
  139.5340   71.4430  222.0120 C   0  0  2  0  0  0  0  0  0  0  0  0
  139.2160   69.9980  221.8540 C   0  0  0  0  0  0  0  0  0  0  0  0
  139.0800   69.2050  223.1010 C   0  0  0  0  0  0  0  0  0  0  0  0
  139.5900   69.8350  224.3170 C   0  0  0  0  0  0  0  0  0  0  0  0
  139.3160   69.2360  225.5300 C   0  0  0  0  0  0  0  0  0  0  0  0
  139.7580   69.7620  226.7260 C   0  0  0  0  0  0  0  0  0  0  0  0
  140.4960   70.9210  226.6880 C   0  0  0  0  0  0  0  0  0  0  0  0
  141.0520   71.5800  228.2080 Cl  0  0  0  0  0  0  0  0  0  0  0  0
  140.7750   71.5260  225.4810 C   0  0  0  0  0  0  0  0  0  0  0  0
  140.3290   70.9960  224.2710 C   0  0  0  0  0  0  0  0  0  0  0  0
  140.6590   71.6850  223.0160 C   0  0  0  0  0  0  0  0  0  0  0  0
  138.7450   75.4190  220.0810 C   0  0  0  0  0  0  0  0  0  0  0  0
  138.3120   76.6510  220.9030 C   0  0  0  0  0  0  0  0  0  0  0  0
  137.6182   80.6403  224.3548 H   0  0  0  0  0  0  0  0  0  0  0  0
  138.8301   81.3764  223.2520 H   0  0  0  0  0  0  0  0  0  0  0  0
  137.1361   81.9738  223.2520 H   0  0  0  0  0  0  0  0  0  0  0  0
  136.3270   79.8590  222.2941 H   0  0  0  0  0  0  0  0  0  0  0  0
  137.6934   80.4468  221.2830 H   0  0  0  0  0  0  0  0  0  0  0  0
  140.5908   78.6111  224.6138 H   0  0  0  0  0  0  0  0  0  0  0  0
  142.6406   79.8091  225.2019 H   0  0  0  0  0  0  0  0  0  0  0  0
  143.9535   81.0407  223.4976 H   0  0  0  0  0  0  0  0  0  0  0  0
  143.1303   81.0371  221.1531 H   0  0  0  0  0  0  0  0  0  0  0  0
  141.0705   79.8413  220.5537 H   0  0  0  0  0  0  0  0  0  0  0  0
  140.1655   77.3585  220.6081 H   0  0  0  0  0  0  0  0  0  0  0  0
  141.5177   76.3787  221.6631 H   0  0  0  0  0  0  0  0  0  0  0  0
  140.4519   76.3344  223.1869 H   0  0  0  0  0  0  0  0  0  0  0  0
  141.0964   74.2672  221.3819 H   0  0  0  0  0  0  0  0  0  0  0  0
  140.0855   74.2925  222.9092 H   0  0  0  0  0  0  0  0  0  0  0  0
  138.4725   72.7415  223.3530 H   0  0  0  0  0  0  0  0  0  0  0  0
  136.9630   71.1840  221.3430 H   0  0  0  0  0  0  0  0  0  0  0  0
  136.2920   72.0480  222.6010 H   0  0  0  0  0  0  0  0  0  0  0  0
  139.8810   71.7605  221.0176 H   0  0  0  0  0  0  0  0  0  0  0  0
  138.2648   69.9240  221.3066 H   0  0  0  0  0  0  0  0  0  0  0  0
  140.0822   69.5671  221.3306 H   0  0  0  0  0  0  0  0  0  0  0  0
  138.0107   68.9962  223.2526 H   0  0  0  0  0  0  0  0  0  0  0  0
  139.6959   68.3061  222.9507 H   0  0  0  0  0  0  0  0  0  0  0  0
  138.7254   68.3081  225.5433 H   0  0  0  0  0  0  0  0  0  0  0  0
  139.5268   69.2687  227.6816 H   0  0  0  0  0  0  0  0  0  0  0  0
  141.3664   72.4534  225.4724 H   0  0  0  0  0  0  0  0  0  0  0  0
  140.7623   72.7641  223.2027 H   0  0  0  0  0  0  0  0  0  0  0  0
  141.6076   71.2983  222.6152 H   0  0  0  0  0  0  0  0  0  0  0  0
  139.6298   75.6365  219.4647 H   0  0  0  0  0  0  0  0  0  0  0  0
  137.9895   75.0677  219.3628 H   0  0  0  0  0  0  0  0  0  0  0  0
  137.8691   77.4192  220.2520 H   0  0  0  0  0  0  0  0  0  0  0  0
  137.5457   76.4100  221.6544 H   0  0  0  0  0  0  0  0  0  0  0  0
  1  2  1  0
  2  3  1  0
  3  4  2  0
  3  5  1  0
  5  6  1  0
  6  7  2  0
  7  8  1  0
  8  9  2  0
  9 10  1  0
 10 11  2  0
  5 12  1  0
 12 13  1  0
 13 14  1  0
 14 15  1  0
 15 16  1  0
 16 17  2  0
 16 18  1  0
 18 19  1  0
 18 20  1  0
 20 21  1  0
 21 22  1  0
 22 23  1  0
 23 24  2  0
 24 25  1  0
 25 26  2  0
 26 27  1  0
 26 28  1  0
 28 29  2  0
 29 30  1  0
 15 31  1  0
 31 32  1  0
 11  6  1  0
 32 12  1  0
 30 20  1  0
 29 23  1  0
  1 33  1  0
  1 34  1  0
  1 35  1  0
  2 36  1  0
  2 37  1  0
  7 38  1  0
  8 39  1  0
  9 40  1  0
 10 41  1  0
 11 42  1  0
 12 43  1  0
 13 44  1  0
 13 45  1  0
 14 46  1  0
 14 47  1  0
 18 48  1  1
 19 49  1  0
 19 50  1  0
 20 51  1  6
 21 52  1  0
 21 53  1  0
 22 54  1  0
 22 55  1  0
 24 56  1  0
 25 57  1  0
 28 58  1  0
 30 59  1  0
 30 60  1  0
 31 61  1  0
 31 62  1  0
 32 63  1  0
 32 64  1  0
M  END
>  <smiles>  (7) 
CCC(=O)N(c1ccccc1)C1CCN(C(=O)[C@@H](N)C2CCc3ccc(Cl)cc3C2)CC1

>  <score_type>  (7) 
oracle

>  <origin>  (7) 
autodockgpu

>  <m_score__min__energy>  (7) 
-8.5199999999999996

>  <m_primary>  (7) 
energy

>  <rmsd>  (7) 
7.864642011507248

>  <m_score__min__rmsd>  (7) 
7.864642011507248

>  <meeko>  (7) 
{"free_energy": -7.53, "intermolecular_energy": -9.62, "internal_energy": -2.49, "cluster_size": 11, "cluster_id": 4, "rank_in_cluster": 1}

>  <energy>  (7) 
-8.13

>  <cluster_rmsd>  (7) 
1.46

>  <cluster>  (7) 
1

$$$$

     RDKit          3D

 64 67  0  0  0  0  0  0  0  0999 V2000
  137.3340   67.4640  222.2150 C   0  0  0  0  0  0  0  0  0  0  0  0
  138.8310   67.5480  222.6050 C   0  0  0  0  0  0  0  0  0  0  0  0
  138.9650   68.1660  223.9180 C   0  0  0  0  0  0  0  0  0  0  0  0
  139.2380   67.3020  224.8580 O   0  0  0  0  0  0  0  0  0  0  0  0
  138.8500   69.5120  224.3210 N   0  0  0  0  0  0  0  0  0  0  0  0
  139.5110   70.1660  225.3740 C   0  0  0  0  0  0  0  0  0  0  0  0
  139.3480   69.7230  226.7000 C   0  0  0  0  0  0  0  0  0  0  0  0
  139.9730   70.3440  227.7630 C   0  0  0  0  0  0  0  0  0  0  0  0
  140.7910   71.4320  227.5890 C   0  0  0  0  0  0  0  0  0  0  0  0
  140.9690   71.8870  226.3130 C   0  0  0  0  0  0  0  0  0  0  0  0
  140.3380   71.2590  225.2410 C   0  0  0  0  0  0  0  0  0  0  0  0
  137.9180   70.3130  223.5150 C   0  0  0  0  0  0  0  0  0  0  0  0
  136.7510   70.8630  224.2260 C   0  0  0  0  0  0  0  0  0  0  0  0
  136.1760   72.1510  223.7230 C   0  0  0  0  0  0  0  0  0  0  0  0
  136.8540   72.6890  222.5830 N   0  0  0  0  0  0  0  0  0  0  0  0
  137.0500   74.0580  222.2920 C   0  0  0  0  0  0  0  0  0  0  0  0
  137.6940   74.3950  221.2320 O   0  0  0  0  0  0  0  0  0  0  0  0
  136.5700   75.1850  223.1190 C   0  0  1  0  0  0  0  0  0  0  0  0
  137.5670   76.2530  223.0470 N   0  0  0  0  0  0  0  0  0  0  0  0
  135.2410   75.6890  222.5750 C   0  0  2  0  0  0  0  0  0  0  0  0
  134.9010   77.0720  223.0090 C   0  0  0  0  0  0  0  0  0  0  0  0
  134.3330   77.2220  224.3710 C   0  0  0  0  0  0  0  0  0  0  0  0
  133.8640   75.9920  225.0070 C   0  0  0  0  0  0  0  0  0  0  0  0
  133.5110   76.0370  226.3400 C   0  0  0  0  0  0  0  0  0  0  0  0
  133.0580   74.9250  227.0190 C   0  0  0  0  0  0  0  0  0  0  0  0
  132.9610   73.7410  226.3270 C   0  0  0  0  0  0  0  0  0  0  0  0
  132.3870   72.3380  227.1940 Cl  0  0  0  0  0  0  0  0  0  0  0  0
  133.3120   73.6870  224.9940 C   0  0  0  0  0  0  0  0  0  0  0  0
  133.7700   74.8100  224.3060 C   0  0  0  0  0  0  0  0  0  0  0  0
  134.1270   74.6910  222.8860 C   0  0  0  0  0  0  0  0  0  0  0  0
  137.3970   71.6980  221.6320 C   0  0  0  0  0  0  0  0  0  0  0  0
  138.5760   71.1180  222.4420 C   0  0  0  0  0  0  0  0  0  0  0  0
  136.7190   67.4295  223.1264 H   0  0  0  0  0  0  0  0  0  0  0  0
  137.0597   68.3482  221.6208 H   0  0  0  0  0  0  0  0  0  0  0  0
  137.1603   66.5547  221.6208 H   0  0  0  0  0  0  0  0  0  0  0  0
  139.2585   66.5349  222.6329 H   0  0  0  0  0  0  0  0  0  0  0  0
  139.3666   68.1559  221.8610 H   0  0  0  0  0  0  0  0  0  0  0  0
  138.7021   68.8544  226.8956 H   0  0  0  0  0  0  0  0  0  0  0  0
  139.8105   69.9553  228.7791 H   0  0  0  0  0  0  0  0  0  0  0  0
  141.2841   71.9188  228.4434 H   0  0  0  0  0  0  0  0  0  0  0  0
  141.6165   72.7573  226.1303 H   0  0  0  0  0  0  0  0  0  0  0  0
  140.5103   71.6592  224.2310 H   0  0  0  0  0  0  0  0  0  0  0  0
  137.3624   69.5905  222.8992 H   0  0  0  0  0  0  0  0  0  0  0  0
  135.9530   70.1072  224.1825 H   0  0  0  0  0  0  0  0  0  0  0  0
  137.1236   71.0984  225.2339 H   0  0  0  0  0  0  0  0  0  0  0  0
  135.1251   71.9763  223.4490 H   0  0  0  0  0  0  0  0  0  0  0  0
  136.2876   72.8858  224.5339 H   0  0  0  0  0  0  0  0  0  0  0  0
  136.4265   74.8628  224.1609 H   0  0  0  0  0  0  0  0  0  0  0  0
  137.7720   76.4150  222.0350 H   0  0  0  0  0  0  0  0  0  0  0  0
  138.4550   75.9440  223.4820 H   0  0  0  0  0  0  0  0  0  0  0  0
  135.3491   75.7602  221.4826 H   0  0  0  0  0  0  0  0  0  0  0  0
  135.8223   77.6714  222.9642 H   0  0  0  0  0  0  0  0  0  0  0  0
  134.1046   77.4019  222.3257 H   0  0  0  0  0  0  0  0  0  0  0  0
  135.1112   77.6584  225.0144 H   0  0  0  0  0  0  0  0  0  0  0  0
  133.4409   77.8546  224.2531 H   0  0  0  0  0  0  0  0  0  0  0  0
  133.5936   76.9920  226.8796 H   0  0  0  0  0  0  0  0  0  0  0  0
  132.7826   74.9838  228.0823 H   0  0  0  0  0  0  0  0  0  0  0  0
  133.2281   72.7300  224.4582 H   0  0  0  0  0  0  0  0  0  0  0  0
  134.4765   73.6692  222.6767 H   0  0  0  0  0  0  0  0  0  0  0  0
  133.2480   74.9037  222.2598 H   0  0  0  0  0  0  0  0  0  0  0  0
  136.6547   70.9232  221.3899 H   0  0  0  0  0  0  0  0  0  0  0  0
  137.6835   72.1187  220.6568 H   0  0  0  0  0  0  0  0  0  0  0  0
  139.2095   70.4803  221.8079 H   0  0  0  0  0  0  0  0  0  0  0  0
  139.2371   71.8994  222.8450 H   0  0  0  0  0  0  0  0  0  0  0  0
  1  2  1  0
  2  3  1  0
  3  4  2  0
  3  5  1  0
  5  6  1  0
  6  7  2  0
  7  8  1  0
  8  9  2  0
  9 10  1  0
 10 11  2  0
  5 12  1  0
 12 13  1  0
 13 14  1  0
 14 15  1  0
 15 16  1  0
 16 17  2  0
 16 18  1  0
 18 19  1  0
 18 20  1  0
 20 21  1  0
 21 22  1  0
 22 23  1  0
 23 24  2  0
 24 25  1  0
 25 26  2  0
 26 27  1  0
 26 28  1  0
 28 29  2  0
 29 30  1  0
 15 31  1  0
 31 32  1  0
 11  6  1  0
 32 12  1  0
 30 20  1  0
 29 23  1  0
  1 33  1  0
  1 34  1  0
  1 35  1  0
  2 36  1  0
  2 37  1  0
  7 38  1  0
  8 39  1  0
  9 40  1  0
 10 41  1  0
 11 42  1  0
 12 43  1  0
 13 44  1  0
 13 45  1  0
 14 46  1  0
 14 47  1  0
 18 48  1  1
 19 49  1  0
 19 50  1  0
 20 51  1  6
 21 52  1  0
 21 53  1  0
 22 54  1  0
 22 55  1  0
 24 56  1  0
 25 57  1  0
 28 58  1  0
 30 59  1  0
 30 60  1  0
 31 61  1  0
 31 62  1  0
 32 63  1  0
 32 64  1  0
M  END
>  <smiles>  (8) 
CCC(=O)N(c1ccccc1)C1CCN(C(=O)[C@@H](N)C2CCc3ccc(Cl)cc3C2)CC1

>  <score_type>  (8) 
oracle

>  <origin>  (8) 
autodockgpu

>  <m_score__min__energy>  (8) 
-8.5199999999999996

>  <m_primary>  (8) 
energy

>  <rmsd>  (8) 
8.819920950879771

>  <m_score__min__rmsd>  (8) 
8.819920950879771

>  <meeko>  (8) 
{"free_energy": -6.95, "intermolecular_energy": -9.04, "internal_energy": -2.74, "cluster_size": 2, "cluster_id": 7, "rank_in_cluster": 1}

>  <energy>  (8) 
-8.06

>  <cluster_rmsd>  (8) 
1.46

>  <cluster>  (8) 
1

$$$$

     RDKit          3D

 64 67  0  0  0  0  0  0  0  0999 V2000
  146.3230   73.3980  221.5150 C   0  0  0  0  0  0  0  0  0  0  0  0
  145.0280   73.4850  220.6710 C   0  0  0  0  0  0  0  0  0  0  0  0
  145.0380   72.4510  219.6430 C   0  0  0  0  0  0  0  0  0  0  0  0
  145.9470   72.6570  218.7270 O   0  0  0  0  0  0  0  0  0  0  0  0
  144.2450   71.2970  219.4870 N   0  0  0  0  0  0  0  0  0  0  0  0
  144.6630   69.9690  219.3110 C   0  0  0  0  0  0  0  0  0  0  0  0
  143.7540   68.9070  219.4870 C   0  0  0  0  0  0  0  0  0  0  0  0
  144.1280   67.5880  219.3330 C   0  0  0  0  0  0  0  0  0  0  0  0
  145.4100   67.2310  218.9970 C   0  0  0  0  0  0  0  0  0  0  0  0
  146.3170   68.2380  218.8200 C   0  0  0  0  0  0  0  0  0  0  0  0
  145.9380   69.5700  218.9760 C   0  0  0  0  0  0  0  0  0  0  0  0
  142.7960   71.5440  219.5250 C   0  0  0  0  0  0  0  0  0  0  0  0
  142.1740   71.5600  220.8600 C   0  0  0  0  0  0  0  0  0  0  0  0
  140.9630   72.4200  221.0510 C   0  0  0  0  0  0  0  0  0  0  0  0
  140.5570   73.1290  219.8760 N   0  0  0  0  0  0  0  0  0  0  0  0
  139.9820   74.4180  219.8300 C   0  0  0  0  0  0  0  0  0  0  0  0
  139.6790   74.9380  218.6940 O   0  0  0  0  0  0  0  0  0  0  0  0
  139.6850   75.2650  221.0050 C   0  0  1  0  0  0  0  0  0  0  0  0
  138.7990   74.5120  221.8910 N   0  0  0  0  0  0  0  0  0  0  0  0
  140.9790   75.5960  221.7360 C   0  0  2  0  0  0  0  0  0  0  0  0
  141.0140   76.9740  222.2980 C   0  0  0  0  0  0  0  0  0  0  0  0
  141.3370   78.0710  221.3520 C   0  0  0  0  0  0  0  0  0  0  0  0
  141.9040   77.6620  220.0680 C   0  0  0  0  0  0  0  0  0  0  0  0
  142.0390   78.6140  219.0780 C   0  0  0  0  0  0  0  0  0  0  0  0
  142.5640   78.3150  217.8380 C   0  0  0  0  0  0  0  0  0  0  0  0
  142.9600   77.0210  217.5990 C   0  0  0  0  0  0  0  0  0  0  0  0
  143.6230   76.6510  216.0250 Cl  0  0  0  0  0  0  0  0  0  0  0  0
  142.8280   76.0620  218.5820 C   0  0  0  0  0  0  0  0  0  0  0  0
  142.2980   76.3620  219.8370 C   0  0  0  0  0  0  0  0  0  0  0  0
  142.1830   75.2990  220.8440 C   0  0  0  0  0  0  0  0  0  0  0  0
  140.7720   72.4240  218.5950 C   0  0  0  0  0  0  0  0  0  0  0  0
  142.3100   72.4860  218.4720 C   0  0  0  0  0  0  0  0  0  0  0  0
  146.0656   73.4153  222.5843 H   0  0  0  0  0  0  0  0  0  0  0  0
  146.8515   72.4623  221.2802 H   0  0  0  0  0  0  0  0  0  0  0  0
  146.9719   74.2546  221.2802 H   0  0  0  0  0  0  0  0  0  0  0  0
  144.1554   73.3412  221.3252 H   0  0  0  0  0  0  0  0  0  0  0  0
  144.9728   74.4734  220.1914 H   0  0  0  0  0  0  0  0  0  0  0  0
  142.7125   69.1370  219.7559 H   0  0  0  0  0  0  0  0  0  0  0  0
  143.3765   66.7991  219.4840 H   0  0  0  0  0  0  0  0  0  0  0  0
  145.6962   66.1759  218.8750 H   0  0  0  0  0  0  0  0  0  0  0  0
  147.3558   67.9948  218.5520 H   0  0  0  0  0  0  0  0  0  0  0  0
  146.7010   70.3474  218.8228 H   0  0  0  0  0  0  0  0  0  0  0  0
  142.3272   70.6111  219.1786 H   0  0  0  0  0  0  0  0  0  0  0  0
  141.8847   70.5263  221.1006 H   0  0  0  0  0  0  0  0  0  0  0  0
  142.9367   72.0020  221.5180 H   0  0  0  0  0  0  0  0  0  0  0  0
  140.1300   71.7769  221.3712 H   0  0  0  0  0  0  0  0  0  0  0  0
  141.2285   73.1782  221.8024 H   0  0  0  0  0  0  0  0  0  0  0  0
  139.2055   76.2038  220.6907 H   0  0  0  0  0  0  0  0  0  0  0  0
  139.2090   74.5610  222.8510 H   0  0  0  0  0  0  0  0  0  0  0  0
  138.7930   73.5100  221.6250 H   0  0  0  0  0  0  0  0  0  0  0  0
  141.0279   74.9375  222.6157 H   0  0  0  0  0  0  0  0  0  0  0  0
  140.0232   77.1845  222.7269 H   0  0  0  0  0  0  0  0  0  0  0  0
  141.8379   76.9684  223.0268 H   0  0  0  0  0  0  0  0  0  0  0  0
  140.4086   78.6251  221.1491 H   0  0  0  0  0  0  0  0  0  0  0  0
  142.1181   78.6683  221.8451 H   0  0  0  0  0  0  0  0  0  0  0  0
  141.7173   79.6454  219.2846 H   0  0  0  0  0  0  0  0  0  0  0  0
  142.6628   79.0896  217.0632 H   0  0  0  0  0  0  0  0  0  0  0  0
  143.1498   75.0317  218.3701 H   0  0  0  0  0  0  0  0  0  0  0  0
  142.0427   74.3293  220.3440 H   0  0  0  0  0  0  0  0  0  0  0  0
  143.0987   75.2589  221.4522 H   0  0  0  0  0  0  0  0  0  0  0  0
  140.4130   71.3853  218.6415 H   0  0  0  0  0  0  0  0  0  0  0  0
  140.2332   72.8631  217.7424 H   0  0  0  0  0  0  0  0  0  0  0  0
  142.6358   72.1582  217.4738 H   0  0  0  0  0  0  0  0  0  0  0  0
  142.7040   73.5048  218.6014 H   0  0  0  0  0  0  0  0  0  0  0  0
  1  2  1  0
  2  3  1  0
  3  4  2  0
  3  5  1  0
  5  6  1  0
  6  7  2  0
  7  8  1  0
  8  9  2  0
  9 10  1  0
 10 11  2  0
  5 12  1  0
 12 13  1  0
 13 14  1  0
 14 15  1  0
 15 16  1  0
 16 17  2  0
 16 18  1  0
 18 19  1  0
 18 20  1  0
 20 21  1  0
 21 22  1  0
 22 23  1  0
 23 24  2  0
 24 25  1  0
 25 26  2  0
 26 27  1  0
 26 28  1  0
 28 29  2  0
 29 30  1  0
 15 31  1  0
 31 32  1  0
 11  6  1  0
 32 12  1  0
 30 20  1  0
 29 23  1  0
  1 33  1  0
  1 34  1  0
  1 35  1  0
  2 36  1  0
  2 37  1  0
  7 38  1  0
  8 39  1  0
  9 40  1  0
 10 41  1  0
 11 42  1  0
 12 43  1  0
 13 44  1  0
 13 45  1  0
 14 46  1  0
 14 47  1  0
 18 48  1  6
 19 49  1  0
 19 50  1  0
 20 51  1  1
 21 52  1  0
 21 53  1  0
 22 54  1  0
 22 55  1  0
 24 56  1  0
 25 57  1  0
 28 58  1  0
 30 59  1  0
 30 60  1  0
 31 61  1  0
 31 62  1  0
 32 63  1  0
 32 64  1  0
M  END
>  <smiles>  (9) 
CCC(=O)N(c1ccccc1)C1CCN(C(=O)[C@@H](N)C2CCc3ccc(Cl)cc3C2)CC1

>  <score_type>  (9) 
oracle

>  <origin>  (9) 
autodockgpu

>  <m_score__min__energy>  (9) 
-8.5199999999999996

>  <m_primary>  (9) 
energy

>  <rmsd>  (9) 
6.6835037846187095

>  <m_score__min__rmsd>  (9) 
6.6835037846187095

>  <meeko>  (9) 
{"free_energy": -7.33, "intermolecular_energy": -9.42, "internal_energy": -2.53, "cluster_size": 6, "cluster_id": 5, "rank_in_cluster": 4}

>  <energy>  (9) 
-8.03

>  <cluster_rmsd>  (9) 
1.46

>  <cluster>  (9) 
1

$$$$

     RDKit          3D

 64 67  0  0  0  0  0  0  0  0999 V2000
  141.6010   83.6310  218.0310 C   0  0  0  0  0  0  0  0  0  0  0  0
  140.4090   83.3940  218.9910 C   0  0  0  0  0  0  0  0  0  0  0  0
  140.8650   82.6810  220.1780 C   0  0  0  0  0  0  0  0  0  0  0  0
  141.0600   83.4720  221.1990 O   0  0  0  0  0  0  0  0  0  0  0  0
  141.1200   81.3120  220.3910 N   0  0  0  0  0  0  0  0  0  0  0  0
  141.3000   80.6380  221.6100 C   0  0  0  0  0  0  0  0  0  0  0  0
  142.5880   80.5040  222.1650 C   0  0  0  0  0  0  0  0  0  0  0  0
  142.8070   79.8420  223.3560 C   0  0  0  0  0  0  0  0  0  0  0  0
  141.7830   79.2730  224.0710 C   0  0  0  0  0  0  0  0  0  0  0  0
  140.5210   79.3860  223.5580 C   0  0  0  0  0  0  0  0  0  0  0  0
  140.3010   80.0550  222.3560 C   0  0  0  0  0  0  0  0  0  0  0  0
  141.1950   80.5070  219.1640 C   0  0  0  0  0  0  0  0  0  0  0  0
  142.5440   80.2790  218.6160 C   0  0  0  0  0  0  0  0  0  0  0  0
  142.7800   79.0120  217.8550 C   0  0  0  0  0  0  0  0  0  0  0  0
  141.6290   78.1680  217.7520 N   0  0  0  0  0  0  0  0  0  0  0  0
  141.6220   76.7550  217.7430 C   0  0  0  0  0  0  0  0  0  0  0  0
  140.5050   76.1260  217.6600 O   0  0  0  0  0  0  0  0  0  0  0  0
  142.8210   75.8940  217.8250 C   0  0  1  0  0  0  0  0  0  0  0  0
  143.7150   76.2590  216.7260 N   0  0  0  0  0  0  0  0  0  0  0  0
  143.5250   76.1230  219.1540 C   0  0  2  0  0  0  0  0  0  0  0  0
  144.0560   74.8780  219.7740 C   0  0  0  0  0  0  0  0  0  0  0  0
  143.0820   74.0290  220.5040 C   0  0  0  0  0  0  0  0  0  0  0  0
  141.7990   74.6560  220.8190 C   0  0  0  0  0  0  0  0  0  0  0  0
  140.7860   73.8620  221.3170 C   0  0  0  0  0  0  0  0  0  0  0  0
  139.5450   74.3700  221.6410 C   0  0  0  0  0  0  0  0  0  0  0  0
  139.3290   75.7140  221.4550 C   0  0  0  0  0  0  0  0  0  0  0  0
  137.7550   76.3490  221.8670 Cl  0  0  0  0  0  0  0  0  0  0  0  0
  140.3350   76.5160  220.9570 C   0  0  0  0  0  0  0  0  0  0  0  0
  141.5900   76.0050  220.6300 C   0  0  0  0  0  0  0  0  0  0  0  0
  142.6230   76.9080  220.1050 C   0  0  0  0  0  0  0  0  0  0  0  0
  140.3290   78.8630  217.6530 C   0  0  0  0  0  0  0  0  0  0  0  0
  140.1740   79.4190  219.0840 C   0  0  0  0  0  0  0  0  0  0  0  0
  142.5137   83.8125  218.6176 H   0  0  0  0  0  0  0  0  0  0  0  0
  141.7431   82.7435  217.3968 H   0  0  0  0  0  0  0  0  0  0  0  0
  141.3928   84.5053  217.3968 H   0  0  0  0  0  0  0  0  0  0  0  0
  139.9816   84.3629  219.2887 H   0  0  0  0  0  0  0  0  0  0  0  0
  139.6436   82.7931  218.4781 H   0  0  0  0  0  0  0  0  0  0  0  0
  143.4458   80.9406  221.6325 H   0  0  0  0  0  0  0  0  0  0  0  0
  143.8336   79.7682  223.7441 H   0  0  0  0  0  0  0  0  0  0  0  0
  141.9703   78.7471  225.0188 H   0  0  0  0  0  0  0  0  0  0  0  0
  139.6712   78.9446  224.0993 H   0  0  0  0  0  0  0  0  0  0  0  0
  139.2689   80.1212  221.9813 H   0  0  0  0  0  0  0  0  0  0  0  0
  140.8391   81.1659  218.3583 H   0  0  0  0  0  0  0  0  0  0  0  0
  142.7695   81.1160  217.9388 H   0  0  0  0  0  0  0  0  0  0  0  0
  143.1935   80.1978  219.5000 H   0  0  0  0  0  0  0  0  0  0  0  0
  143.1068   79.2757  216.8383 H   0  0  0  0  0  0  0  0  0  0  0  0
  143.5399   78.4446  218.4124 H   0  0  0  0  0  0  0  0  0  0  0  0
  142.5373   74.8337  217.7528 H   0  0  0  0  0  0  0  0  0  0  0  0
  144.6920   76.1830  217.0860 H   0  0  0  0  0  0  0  0  0  0  0  0
  143.5740   77.2520  216.4650 H   0  0  0  0  0  0  0  0  0  0  0  0
  144.4179   76.7294  218.9421 H   0  0  0  0  0  0  0  0  0  0  0  0
  144.4949   74.2670  218.9715 H   0  0  0  0  0  0  0  0  0  0  0  0
  144.7720   75.2177  220.5368 H   0  0  0  0  0  0  0  0  0  0  0  0
  142.8807   73.1406  219.8874 H   0  0  0  0  0  0  0  0  0  0  0  0
  143.5502   73.8051  221.4739 H   0  0  0  0  0  0  0  0  0  0  0  0
  140.9745   72.7878  221.4604 H   0  0  0  0  0  0  0  0  0  0  0  0
  138.7520   73.7184  222.0365 H   0  0  0  0  0  0  0  0  0  0  0  0
  140.1413   77.5893  220.8139 H   0  0  0  0  0  0  0  0  0  0  0  0
  142.1474   77.7384  219.5626 H   0  0  0  0  0  0  0  0  0  0  0  0
  143.2192   77.3166  220.9342 H   0  0  0  0  0  0  0  0  0  0  0  0
  140.3603   79.6716  216.9079 H   0  0  0  0  0  0  0  0  0  0  0  0
  139.4981   78.2202  217.3269 H   0  0  0  0  0  0  0  0  0  0  0  0
  139.1619   79.8209  219.2394 H   0  0  0  0  0  0  0  0  0  0  0  0
  140.3174   78.6475  219.8549 H   0  0  0  0  0  0  0  0  0  0  0  0
  1  2  1  0
  2  3  1  0
  3  4  2  0
  3  5  1  0
  5  6  1  0
  6  7  2  0
  7  8  1  0
  8  9  2  0
  9 10  1  0
 10 11  2  0
  5 12  1  0
 12 13  1  0
 13 14  1  0
 14 15  1  0
 15 16  1  0
 16 17  2  0
 16 18  1  0
 18 19  1  0
 18 20  1  0
 20 21  1  0
 21 22  1  0
 22 23  1  0
 23 24  2  0
 24 25  1  0
 25 26  2  0
 26 27  1  0
 26 28  1  0
 28 29  2  0
 29 30  1  0
 15 31  1  0
 31 32  1  0
 11  6  1  0
 32 12  1  0
 30 20  1  0
 29 23  1  0
  1 33  1  0
  1 34  1  0
  1 35  1  0
  2 36  1  0
  2 37  1  0
  7 38  1  0
  8 39  1  0
  9 40  1  0
 10 41  1  0
 11 42  1  0
 12 43  1  0
 13 44  1  0
 13 45  1  0
 14 46  1  0
 14 47  1  0
 18 48  1  6
 19 49  1  0
 19 50  1  0
 20 51  1  6
 21 52  1  0
 21 53  1  0
 22 54  1  0
 22 55  1  0
 24 56  1  0
 25 57  1  0
 28 58  1  0
 30 59  1  0
 30 60  1  0
 31 61  1  0
 31 62  1  0
 32 63  1  0
 32 64  1  0
M  END
>  <smiles>  (10) 
CCC(=O)N(c1ccccc1)C1CCN(C(=O)[C@@H](N)C2CCc3ccc(Cl)cc3C2)CC1

>  <score_type>  (10) 
oracle

>  <origin>  (10) 
autodockgpu

>  <m_score__min__energy>  (10) 
-8.5199999999999996

>  <m_primary>  (10) 
energy

>  <rmsd>  (10) 
5.312228437134116

>  <m_score__min__rmsd>  (10) 
5.312228437134116

>  <meeko>  (10) 
{"free_energy": -6.62, "intermolecular_energy": -8.7, "internal_energy": -2.95, "cluster_size": 2, "cluster_id": 8, "rank_in_cluster": 1}

>  <energy>  (10) 
-7.97

>  <cluster_rmsd>  (10) 
1.51

>  <cluster>  (10) 
1

$$$$

     RDKit          3D

 64 67  0  0  0  0  0  0  0  0999 V2000
  136.8150   68.5540  222.8590 C   0  0  0  0  0  0  0  0  0  0  0  0
  138.2690   68.0260  222.9200 C   0  0  0  0  0  0  0  0  0  0  0  0
  138.9620   68.6190  224.0580 C   0  0  0  0  0  0  0  0  0  0  0  0
  139.1790   67.7630  225.0200 O   0  0  0  0  0  0  0  0  0  0  0  0
  139.4220   69.9330  224.2750 N   0  0  0  0  0  0  0  0  0  0  0  0
  139.9150   70.4990  225.4620 C   0  0  0  0  0  0  0  0  0  0  0  0
  139.5770   69.9410  226.7100 C   0  0  0  0  0  0  0  0  0  0  0  0
  140.0330   70.4720  227.8990 C   0  0  0  0  0  0  0  0  0  0  0  0
  140.8460   71.5780  227.9360 C   0  0  0  0  0  0  0  0  0  0  0  0
  141.1920   72.1430  226.7410 C   0  0  0  0  0  0  0  0  0  0  0  0
  140.7310   71.6050  225.5410 C   0  0  0  0  0  0  0  0  0  0  0  0
  139.3770   70.7990  223.0890 C   0  0  0  0  0  0  0  0  0  0  0  0
  138.2610   71.7590  223.0270 C   0  0  0  0  0  0  0  0  0  0  0  0
  138.4910   73.0450  222.2940 C   0  0  0  0  0  0  0  0  0  0  0  0
  139.8000   73.1720  221.7310 N   0  0  0  0  0  0  0  0  0  0  0  0
  140.5480   74.3630  221.6050 C   0  0  0  0  0  0  0  0  0  0  0  0
  141.7240   74.3240  221.0890 O   0  0  0  0  0  0  0  0  0  0  0  0
  140.0940   75.7060  222.0270 C   0  0  1  0  0  0  0  0  0  0  0  0
  141.2770   76.4930  222.3730 N   0  0  0  0  0  0  0  0  0  0  0  0
  139.3510   76.3770  220.8820 C   0  0  2  0  0  0  0  0  0  0  0  0
  140.2340   77.1460  219.9620 C   0  0  0  0  0  0  0  0  0  0  0  0
  140.6460   78.4990  220.4100 C   0  0  0  0  0  0  0  0  0  0  0  0
  139.8890   79.0600  221.5280 C   0  0  0  0  0  0  0  0  0  0  0  0
  140.3500   80.2220  222.1140 C   0  0  0  0  0  0  0  0  0  0  0  0
  139.6980   80.8190  223.1740 C   0  0  0  0  0  0  0  0  0  0  0  0
  138.5530   80.2230  223.6460 C   0  0  0  0  0  0  0  0  0  0  0  0
  137.7350   80.9860  224.9880 Cl  0  0  0  0  0  0  0  0  0  0  0  0
  138.0860   79.0620  223.0670 C   0  0  0  0  0  0  0  0  0  0  0  0
  138.7430   78.4560  221.9970 C   0  0  0  0  0  0  0  0  0  0  0  0
  138.1960   77.2210  221.4200 C   0  0  0  0  0  0  0  0  0  0  0  0
  140.4130   71.9190  221.2430 C   0  0  0  0  0  0  0  0  0  0  0  0
  140.7210   71.1970  222.5720 C   0  0  0  0  0  0  0  0  0  0  0  0
  136.4322   68.6930  223.8808 H   0  0  0  0  0  0  0  0  0  0  0  0
  136.7964   69.5163  222.3264 H   0  0  0  0  0  0  0  0  0  0  0  0
  136.1833   67.8279  222.3264 H   0  0  0  0  0  0  0  0  0  0  0  0
  138.2559   66.9316  223.0301 H   0  0  0  0  0  0  0  0  0  0  0  0
  138.7939   68.2986  221.9925 H   0  0  0  0  0  0  0  0  0  0  0  0
  138.9284   69.0530  226.7378 H   0  0  0  0  0  0  0  0  0  0  0  0
  139.7366   69.9954  228.8450 H   0  0  0  0  0  0  0  0  0  0  0  0
  141.2044   71.9926  228.8897 H   0  0  0  0  0  0  0  0  0  0  0  0
  141.8408   73.0312  226.7260 H   0  0  0  0  0  0  0  0  0  0  0  0
  141.0366   72.0919  224.6032 H   0  0  0  0  0  0  0  0  0  0  0  0
  139.0375   70.1535  222.2655 H   0  0  0  0  0  0  0  0  0  0  0  0
  137.4159   71.2499  222.5407 H   0  0  0  0  0  0  0  0  0  0  0  0
  138.0934   72.0596  224.0718 H   0  0  0  0  0  0  0  0  0  0  0  0
  137.7563   73.1135  221.4782 H   0  0  0  0  0  0  0  0  0  0  0  0
  138.3841   73.8535  223.0321 H   0  0  0  0  0  0  0  0  0  0  0  0
  139.4176   75.6291  222.8911 H   0  0  0  0  0  0  0  0  0  0  0  0
  141.9010   76.4960  221.5360 H   0  0  0  0  0  0  0  0  0  0  0  0
  141.8060   76.0290  223.1330 H   0  0  0  0  0  0  0  0  0  0  0  0
  138.9336   75.5730  220.2580 H   0  0  0  0  0  0  0  0  0  0  0  0
  141.1479   76.5542  219.8049 H   0  0  0  0  0  0  0  0  0  0  0  0
  139.6328   77.3121  219.0559 H   0  0  0  0  0  0  0  0  0  0  0  0
  141.7027   78.4470  220.7110 H   0  0  0  0  0  0  0  0  0  0  0  0
  140.4545   79.1661  219.5566 H   0  0  0  0  0  0  0  0  0  0  0  0
  141.2670   80.6873  221.7233 H   0  0  0  0  0  0  0  0  0  0  0  0
  140.0833   81.7442  223.6275 H   0  0  0  0  0  0  0  0  0  0  0  0
  137.1684   78.6005  223.4608 H   0  0  0  0  0  0  0  0  0  0  0  0
  137.6561   76.6578  222.1954 H   0  0  0  0  0  0  0  0  0  0  0  0
  137.4992   77.4652  220.6046 H   0  0  0  0  0  0  0  0  0  0  0  0
  139.7108   71.3413  220.6240 H   0  0  0  0  0  0  0  0  0  0  0  0
  141.2906   72.0681  220.5968 H   0  0  0  0  0  0  0  0  0  0  0  0
  141.3508   70.3119  222.3990 H   0  0  0  0  0  0  0  0  0  0  0  0
  141.2750   71.8317  223.2793 H   0  0  0  0  0  0  0  0  0  0  0  0
  1  2  1  0
  2  3  1  0
  3  4  2  0
  3  5  1  0
  5  6  1  0
  6  7  2  0
  7  8  1  0
  8  9  2  0
  9 10  1  0
 10 11  2  0
  5 12  1  0
 12 13  1  0
 13 14  1  0
 14 15  1  0
 15 16  1  0
 16 17  2  0
 16 18  1  0
 18 19  1  0
 18 20  1  0
 20 21  1  0
 21 22  1  0
 22 23  1  0
 23 24  2  0
 24 25  1  0
 25 26  2  0
 26 27  1  0
 26 28  1  0
 28 29  2  0
 29 30  1  0
 15 31  1  0
 31 32  1  0
 11  6  1  0
 32 12  1  0
 30 20  1  0
 29 23  1  0
  1 33  1  0
  1 34  1  0
  1 35  1  0
  2 36  1  0
  2 37  1  0
  7 38  1  0
  8 39  1  0
  9 40  1  0
 10 41  1  0
 11 42  1  0
 12 43  1  0
 13 44  1  0
 13 45  1  0
 14 46  1  0
 14 47  1  0
 18 48  1  1
 19 49  1  0
 19 50  1  0
 20 51  1  6
 21 52  1  0
 21 53  1  0
 22 54  1  0
 22 55  1  0
 24 56  1  0
 25 57  1  0
 28 58  1  0
 30 59  1  0
 30 60  1  0
 31 61  1  0
 31 62  1  0
 32 63  1  0
 32 64  1  0
M  END
>  <smiles>  (11) 
CCC(=O)N(c1ccccc1)C1CCN(C(=O)[C@@H](N)C2CCc3ccc(Cl)cc3C2)CC1

>  <score_type>  (11) 
oracle

>  <origin>  (11) 
autodockgpu

>  <m_score__min__energy>  (11) 
-8.5199999999999996

>  <m_primary>  (11) 
energy

>  <rmsd>  (11) 
5.644178417255357

>  <m_score__min__rmsd>  (11) 
5.644178417255357

>  <meeko>  (11) 
{"free_energy": -8.4, "intermolecular_energy": -10.49, "internal_energy": -2.2, "cluster_size": 16, "cluster_id": 1, "rank_in_cluster": 3}

>  <energy>  (11) 
-7.93

>  <cluster_rmsd>  (11) 
1.12

>  <cluster>  (11) 
1

$$$$

     RDKit          3D

 64 67  0  0  0  0  0  0  0  0999 V2000
  141.6370   79.2480  223.8000 C   0  0  0  0  0  0  0  0  0  0  0  0
  141.5990   80.7960  223.8050 C   0  0  0  0  0  0  0  0  0  0  0  0
  140.4170   81.2630  223.0900 C   0  0  0  0  0  0  0  0  0  0  0  0
  140.6940   82.1780  222.2010 O   0  0  0  0  0  0  0  0  0  0  0  0
  139.0620   80.8930  223.2060 N   0  0  0  0  0  0  0  0  0  0  0  0
  138.0720   81.4550  224.0260 C   0  0  0  0  0  0  0  0  0  0  0  0
  137.2480   82.4880  223.5390 C   0  0  0  0  0  0  0  0  0  0  0  0
  136.2690   83.0740  224.3170 C   0  0  0  0  0  0  0  0  0  0  0  0
  136.0400   82.6830  225.6120 C   0  0  0  0  0  0  0  0  0  0  0  0
  136.8240   81.6820  226.1140 C   0  0  0  0  0  0  0  0  0  0  0  0
  137.8110   81.0920  225.3280 C   0  0  0  0  0  0  0  0  0  0  0  0
  138.6590   79.7770  222.3390 C   0  0  0  0  0  0  0  0  0  0  0  0
  139.6290   79.3720  221.3060 C   0  0  0  0  0  0  0  0  0  0  0  0
  139.6290   77.9370  220.8780 C   0  0  0  0  0  0  0  0  0  0  0  0
  138.6560   77.1270  221.5440 N   0  0  0  0  0  0  0  0  0  0  0  0
  138.7980   75.7680  221.9030 C   0  0  0  0  0  0  0  0  0  0  0  0
  137.8400   75.1690  222.5150 O   0  0  0  0  0  0  0  0  0  0  0  0
  139.9890   74.9340  221.6370 C   0  0  1  0  0  0  0  0  0  0  0  0
  139.7880   73.6400  222.2890 N   0  0  0  0  0  0  0  0  0  0  0  0
  140.1440   74.7300  220.1370 C   0  0  2  0  0  0  0  0  0  0  0  0
  139.7460   73.3740  219.6710 C   0  0  0  0  0  0  0  0  0  0  0  0
  140.7360   72.2860  219.8610 C   0  0  0  0  0  0  0  0  0  0  0  0
  142.1000   72.7110  220.1730 C   0  0  0  0  0  0  0  0  0  0  0  0
  143.0150   71.7500  220.5540 C   0  0  0  0  0  0  0  0  0  0  0  0
  144.3220   72.0630  220.8660 C   0  0  0  0  0  0  0  0  0  0  0  0
  144.7070   73.3800  220.7880 C   0  0  0  0  0  0  0  0  0  0  0  0
  146.3640   73.7660  221.1850 Cl  0  0  0  0  0  0  0  0  0  0  0  0
  143.8000   74.3470  220.4080 C   0  0  0  0  0  0  0  0  0  0  0  0
  142.4780   74.0330  220.0930 C   0  0  0  0  0  0  0  0  0  0  0  0
  141.5580   75.1060  219.6940 C   0  0  0  0  0  0  0  0  0  0  0  0
  137.3850   77.8000  221.8850 C   0  0  0  0  0  0  0  0  0  0  0  0
  137.8370   78.7360  223.0260 C   0  0  0  0  0  0  0  0  0  0  0  0
  141.6461   78.8781  224.8359 H   0  0  0  0  0  0  0  0  0  0  0  0
  140.7481   78.8611  223.2803 H   0  0  0  0  0  0  0  0  0  0  0  0
  142.5438   78.9052  223.2803 H   0  0  0  0  0  0  0  0  0  0  0  0
  141.5641   81.1572  224.8434 H   0  0  0  0  0  0  0  0  0  0  0  0
  142.5008   81.1832  223.3082 H   0  0  0  0  0  0  0  0  0  0  0  0
  137.3886   82.8393  222.5061 H   0  0  0  0  0  0  0  0  0  0  0  0
  135.6546   83.8780  223.8857 H   0  0  0  0  0  0  0  0  0  0  0  0
  135.2566   83.1562  226.2221 H   0  0  0  0  0  0  0  0  0  0  0  0
  136.6740   81.3392  227.1484 H   0  0  0  0  0  0  0  0  0  0  0  0
  138.4171   80.2894  225.7735 H   0  0  0  0  0  0  0  0  0  0  0  0
  137.9075   80.1945  221.6527 H   0  0  0  0  0  0  0  0  0  0  0  0
  139.4313   79.9818  220.4121 H   0  0  0  0  0  0  0  0  0  0  0  0
  140.6133   79.5237  221.7730 H   0  0  0  0  0  0  0  0  0  0  0  0
  139.4279   77.8993  219.7972 H   0  0  0  0  0  0  0  0  0  0  0  0
  140.6154   77.5281  221.1423 H   0  0  0  0  0  0  0  0  0  0  0  0
  140.8948   75.4232  222.0246 H   0  0  0  0  0  0  0  0  0  0  0  0
  138.9280   73.2160  221.8750 H   0  0  0  0  0  0  0  0  0  0  0  0
  139.5930   73.7740  223.2980 H   0  0  0  0  0  0  0  0  0  0  0  0
  139.4323   75.4105  219.6467 H   0  0  0  0  0  0  0  0  0  0  0  0
  138.8316   73.0907  220.2128 H   0  0  0  0  0  0  0  0  0  0  0  0
  139.6251   73.4672  218.5816 H   0  0  0  0  0  0  0  0  0  0  0  0
  140.3838   71.6503  220.6867 H   0  0  0  0  0  0  0  0  0  0  0  0
  140.7996   71.7689  218.8922 H   0  0  0  0  0  0  0  0  0  0  0  0
  142.6914   70.7002  220.6107 H   0  0  0  0  0  0  0  0  0  0  0  0
  145.0348   71.2816  221.1682 H   0  0  0  0  0  0  0  0  0  0  0  0
  144.1284   75.3953  220.3518 H   0  0  0  0  0  0  0  0  0  0  0  0
  141.8581   76.0487  220.1750 H   0  0  0  0  0  0  0  0  0  0  0  0
  141.5861   75.2368  218.6022 H   0  0  0  0  0  0  0  0  0  0  0  0
  136.9882   78.3683  221.0309 H   0  0  0  0  0  0  0  0  0  0  0  0
  136.5708   77.1135  222.1604 H   0  0  0  0  0  0  0  0  0  0  0  0
  136.9687   79.1907  223.5252 H   0  0  0  0  0  0  0  0  0  0  0  0
  138.3969   78.2057  223.8104 H   0  0  0  0  0  0  0  0  0  0  0  0
  1  2  1  0
  2  3  1  0
  3  4  2  0
  3  5  1  0
  5  6  1  0
  6  7  2  0
  7  8  1  0
  8  9  2  0
  9 10  1  0
 10 11  2  0
  5 12  1  0
 12 13  1  0
 13 14  1  0
 14 15  1  0
 15 16  1  0
 16 17  2  0
 16 18  1  0
 18 19  1  0
 18 20  1  0
 20 21  1  0
 21 22  1  0
 22 23  1  0
 23 24  2  0
 24 25  1  0
 25 26  2  0
 26 27  1  0
 26 28  1  0
 28 29  2  0
 29 30  1  0
 15 31  1  0
 31 32  1  0
 11  6  1  0
 32 12  1  0
 30 20  1  0
 29 23  1  0
  1 33  1  0
  1 34  1  0
  1 35  1  0
  2 36  1  0
  2 37  1  0
  7 38  1  0
  8 39  1  0
  9 40  1  0
 10 41  1  0
 11 42  1  0
 12 43  1  0
 13 44  1  0
 13 45  1  0
 14 46  1  0
 14 47  1  0
 18 48  1  1
 19 49  1  0
 19 50  1  0
 20 51  1  6
 21 52  1  0
 21 53  1  0
 22 54  1  0
 22 55  1  0
 24 56  1  0
 25 57  1  0
 28 58  1  0
 30 59  1  0
 30 60  1  0
 31 61  1  0
 31 62  1  0
 32 63  1  0
 32 64  1  0
M  END
>  <smiles>  (12) 
CCC(=O)N(c1ccccc1)C1CCN(C(=O)[C@@H](N)C2CCc3ccc(Cl)cc3C2)CC1

>  <score_type>  (12) 
oracle

>  <origin>  (12) 
autodockgpu

>  <m_score__min__energy>  (12) 
-8.5199999999999996

>  <m_primary>  (12) 
energy

>  <rmsd>  (12) 
6.601622444081022

>  <m_score__min__rmsd>  (12) 
6.601622444081022

>  <meeko>  (12) 
{"free_energy": -7.09, "intermolecular_energy": -9.18, "internal_energy": -2.57, "cluster_size": 5, "cluster_id": 2, "rank_in_cluster": 4}

>  <energy>  (12) 
-7.88

>  <cluster_rmsd>  (12) 
1.11

>  <cluster>  (12) 
1

$$$$

     RDKit          3D

 64 67  0  0  0  0  0  0  0  0999 V2000
  137.0360   68.3730  222.6420 C   0  0  0  0  0  0  0  0  0  0  0  0
  138.4890   67.8810  222.8540 C   0  0  0  0  0  0  0  0  0  0  0  0
  139.0580   68.5180  224.0360 C   0  0  0  0  0  0  0  0  0  0  0  0
  139.2060   67.6900  225.0350 O   0  0  0  0  0  0  0  0  0  0  0  0
  139.4610   69.8490  224.2620 N   0  0  0  0  0  0  0  0  0  0  0  0
  139.9400   70.4250  225.4500 C   0  0  0  0  0  0  0  0  0  0  0  0
  140.8080   71.5330  225.4040 C   0  0  0  0  0  0  0  0  0  0  0  0
  141.3070   72.1210  226.5480 C   0  0  0  0  0  0  0  0  0  0  0  0
  140.9850   71.6620  227.8010 C   0  0  0  0  0  0  0  0  0  0  0  0
  140.1440   70.5880  227.8790 C   0  0  0  0  0  0  0  0  0  0  0  0
  139.6410   69.9950  226.7230 C   0  0  0  0  0  0  0  0  0  0  0  0
  139.3670   70.7240  223.0850 C   0  0  0  0  0  0  0  0  0  0  0  0
  138.2340   71.6650  223.0620 C   0  0  0  0  0  0  0  0  0  0  0  0
  138.4210   72.9600  222.3340 C   0  0  0  0  0  0  0  0  0  0  0  0
  139.7110   73.1130  221.7340 N   0  0  0  0  0  0  0  0  0  0  0  0
  140.4340   74.3190  221.5970 C   0  0  0  0  0  0  0  0  0  0  0  0
  141.5960   74.3030  221.0470 O   0  0  0  0  0  0  0  0  0  0  0  0
  139.9710   75.6500  222.0430 C   0  0  1  0  0  0  0  0  0  0  0  0
  141.1280   76.3820  222.5560 N   0  0  0  0  0  0  0  0  0  0  0  0
  139.3710   76.4030  220.8640 C   0  0  2  0  0  0  0  0  0  0  0  0
  140.3740   77.1510  220.0570 C   0  0  0  0  0  0  0  0  0  0  0  0
  140.8180   78.4610  220.5930 C   0  0  0  0  0  0  0  0  0  0  0  0
  139.9950   79.0260  221.6620 C   0  0  0  0  0  0  0  0  0  0  0  0
  140.4640   80.1380  222.3320 C   0  0  0  0  0  0  0  0  0  0  0  0
  139.7530   80.7340  223.3530 C   0  0  0  0  0  0  0  0  0  0  0  0
  138.5400   80.1900  223.6990 C   0  0  0  0  0  0  0  0  0  0  0  0
  137.6470   80.9520  224.9930 Cl  0  0  0  0  0  0  0  0  0  0  0  0
  138.0640   79.0790  223.0360 C   0  0  0  0  0  0  0  0  0  0  0  0
  138.7800   78.4740  222.0040 C   0  0  0  0  0  0  0  0  0  0  0  0
  138.2210   77.2930  221.3330 C   0  0  0  0  0  0  0  0  0  0  0  0
  140.3310   71.8750  221.2190 C   0  0  0  0  0  0  0  0  0  0  0  0
  140.6890   71.1480  222.5320 C   0  0  0  0  0  0  0  0  0  0  0  0
  136.5575   68.5350  223.6191 H   0  0  0  0  0  0  0  0  0  0  0  0
  137.0473   69.3174  222.0781 H   0  0  0  0  0  0  0  0  0  0  0  0
  136.4711   67.6160  222.0781 H   0  0  0  0  0  0  0  0  0  0  0  0
  138.4887   66.7896  222.9916 H   0  0  0  0  0  0  0  0  0  0  0  0
  139.0937   68.1430  221.9732 H   0  0  0  0  0  0  0  0  0  0  0  0
  141.0973   71.9426  224.4250 H   0  0  0  0  0  0  0  0  0  0  0  0
  141.9832   72.9835  226.4532 H   0  0  0  0  0  0  0  0  0  0  0  0
  141.3880   72.1398  228.7062 H   0  0  0  0  0  0  0  0  0  0  0  0
  139.8614   70.1878  228.8639 H   0  0  0  0  0  0  0  0  0  0  0  0
  138.9660   69.1335  226.8339 H   0  0  0  0  0  0  0  0  0  0  0  0
  139.0135   70.0793  222.2668 H   0  0  0  0  0  0  0  0  0  0  0  0
  137.3843   71.1452  222.5952 H   0  0  0  0  0  0  0  0  0  0  0  0
  138.0910   71.9547  224.1135 H   0  0  0  0  0  0  0  0  0  0  0  0
  137.6616   73.0229  221.5407 H   0  0  0  0  0  0  0  0  0  0  0  0
  138.3224   73.7608  223.0817 H   0  0  0  0  0  0  0  0  0  0  0  0
  139.2047   75.5477  222.8255 H   0  0  0  0  0  0  0  0  0  0  0  0
  141.9760   75.8150  222.3310 H   0  0  0  0  0  0  0  0  0  0  0  0
  141.0820   76.4460  223.5890 H   0  0  0  0  0  0  0  0  0  0  0  0
  138.9676   75.6476  220.1735 H   0  0  0  0  0  0  0  0  0  0  0  0
  141.2643   76.5128  219.9572 H   0  0  0  0  0  0  0  0  0  0  0  0
  139.8666   77.3837  219.1092 H   0  0  0  0  0  0  0  0  0  0  0  0
  141.8389   78.3369  220.9834 H   0  0  0  0  0  0  0  0  0  0  0  0
  140.7414   79.1675  219.7534 H   0  0  0  0  0  0  0  0  0  0  0  0
  141.4365   80.5628  222.0424 H   0  0  0  0  0  0  0  0  0  0  0  0
  140.1460   81.6190  223.8748 H   0  0  0  0  0  0  0  0  0  0  0  0
  137.0912   78.6577  223.3297 H   0  0  0  0  0  0  0  0  0  0  0  0
  137.5846   76.7351  222.0357 H   0  0  0  0  0  0  0  0  0  0  0  0
  137.6143   77.6054  220.4703 H   0  0  0  0  0  0  0  0  0  0  0  0
  139.6214   71.2901  220.6153 H   0  0  0  0  0  0  0  0  0  0  0  0
  141.1874   72.0445  220.5497 H   0  0  0  0  0  0  0  0  0  0  0  0
  141.3276   70.2747  222.3334 H   0  0  0  0  0  0  0  0  0  0  0  0
  141.2531   71.7862  223.2281 H   0  0  0  0  0  0  0  0  0  0  0  0
  1  2  1  0
  2  3  1  0
  3  4  2  0
  3  5  1  0
  5  6  1  0
  6  7  2  0
  7  8  1  0
  8  9  2  0
  9 10  1  0
 10 11  2  0
  5 12  1  0
 12 13  1  0
 13 14  1  0
 14 15  1  0
 15 16  1  0
 16 17  2  0
 16 18  1  0
 18 19  1  0
 18 20  1  0
 20 21  1  0
 21 22  1  0
 22 23  1  0
 23 24  2  0
 24 25  1  0
 25 26  2  0
 26 27  1  0
 26 28  1  0
 28 29  2  0
 29 30  1  0
 15 31  1  0
 31 32  1  0
 11  6  1  0
 32 12  1  0
 30 20  1  0
 29 23  1  0
  1 33  1  0
  1 34  1  0
  1 35  1  0
  2 36  1  0
  2 37  1  0
  7 38  1  0
  8 39  1  0
  9 40  1  0
 10 41  1  0
 11 42  1  0
 12 43  1  0
 13 44  1  0
 13 45  1  0
 14 46  1  0
 14 47  1  0
 18 48  1  1
 19 49  1  0
 19 50  1  0
 20 51  1  6
 21 52  1  0
 21 53  1  0
 22 54  1  0
 22 55  1  0
 24 56  1  0
 25 57  1  0
 28 58  1  0
 30 59  1  0
 30 60  1  0
 31 61  1  0
 31 62  1  0
 32 63  1  0
 32 64  1  0
M  END
>  <smiles>  (13) 
CCC(=O)N(c1ccccc1)C1CCN(C(=O)[C@@H](N)C2CCc3ccc(Cl)cc3C2)CC1

>  <score_type>  (13) 
oracle

>  <origin>  (13) 
autodockgpu

>  <m_score__min__energy>  (13) 
-8.5199999999999996

>  <m_primary>  (13) 
energy

>  <rmsd>  (13) 
5.668947682626795

>  <m_score__min__rmsd>  (13) 
5.668947682626795

>  <meeko>  (13) 
{"free_energy": -8.15, "intermolecular_energy": -10.24, "internal_energy": -2.04, "cluster_size": 16, "cluster_id": 1, "rank_in_cluster": 6}

>  <energy>  (13) 
-7.68

>  <cluster_rmsd>  (13) 
0.72

>  <cluster>  (13) 
1

$$$$

     RDKit          3D

 64 67  0  0  0  0  0  0  0  0999 V2000
  146.3430   73.3270  221.5880 C   0  0  0  0  0  0  0  0  0  0  0  0
  145.1420   73.5580  220.6390 C   0  0  0  0  0  0  0  0  0  0  0  0
  145.1240   72.5290  219.6060 C   0  0  0  0  0  0  0  0  0  0  0  0
  145.9460   72.7840  218.6240 O   0  0  0  0  0  0  0  0  0  0  0  0
  144.3800   71.3360  219.5050 N   0  0  0  0  0  0  0  0  0  0  0  0
  144.8510   70.0310  219.2910 C   0  0  0  0  0  0  0  0  0  0  0  0
  145.8400   69.7810  218.3200 C   0  0  0  0  0  0  0  0  0  0  0  0
  146.3210   68.5110  218.0740 C   0  0  0  0  0  0  0  0  0  0  0  0
  145.8660   67.4150  218.7630 C   0  0  0  0  0  0  0  0  0  0  0  0
  144.9060   67.6240  219.7130 C   0  0  0  0  0  0  0  0  0  0  0  0
  144.4200   68.9070  219.9600 C   0  0  0  0  0  0  0  0  0  0  0  0
  142.9280   71.5080  219.6530 C   0  0  0  0  0  0  0  0  0  0  0  0
  142.4100   71.5110  221.0320 C   0  0  0  0  0  0  0  0  0  0  0  0
  141.1750   72.3100  221.3090 C   0  0  0  0  0  0  0  0  0  0  0  0
  140.6430   72.9810  220.1620 N   0  0  0  0  0  0  0  0  0  0  0  0
  140.0000   74.2390  220.1490 C   0  0  0  0  0  0  0  0  0  0  0  0
  139.5830   74.7270  219.0360 O   0  0  0  0  0  0  0  0  0  0  0  0
  139.7510   75.0840  221.3350 C   0  0  1  0  0  0  0  0  0  0  0  0
  139.0110   74.2850  222.3120 N   0  0  0  0  0  0  0  0  0  0  0  0
  141.0780   75.5250  221.9360 C   0  0  2  0  0  0  0  0  0  0  0  0
  141.0700   76.9250  222.4440 C   0  0  0  0  0  0  0  0  0  0  0  0
  141.2370   78.0010  221.4360 C   0  0  0  0  0  0  0  0  0  0  0  0
  141.7160   77.5760  220.1210 C   0  0  0  0  0  0  0  0  0  0  0  0
  141.7020   78.4930  219.0910 C   0  0  0  0  0  0  0  0  0  0  0  0
  142.1360   78.1780  217.8200 C   0  0  0  0  0  0  0  0  0  0  0  0
  142.5950   76.9020  217.5920 C   0  0  0  0  0  0  0  0  0  0  0  0
  143.1420   76.5110  215.9790 Cl  0  0  0  0  0  0  0  0  0  0  0  0
  142.6120   75.9780  218.6160 C   0  0  0  0  0  0  0  0  0  0  0  0
  142.1740   76.2950  219.9010 C   0  0  0  0  0  0  0  0  0  0  0  0
  142.2180   75.2690  220.9520 C   0  0  0  0  0  0  0  0  0  0  0  0
  140.7960   72.2720  218.8750 C   0  0  0  0  0  0  0  0  0  0  0  0
  142.3130   72.4110  218.6330 C   0  0  0  0  0  0  0  0  0  0  0  0
  146.0031   73.3924  222.6321 H   0  0  0  0  0  0  0  0  0  0  0  0
  146.7700   72.3303  221.4031 H   0  0  0  0  0  0  0  0  0  0  0  0
  147.1093   74.0942  221.4031 H   0  0  0  0  0  0  0  0  0  0  0  0
  144.2066   73.5127  221.2160 H   0  0  0  0  0  0  0  0  0  0  0  0
  145.2378   74.5463  220.1657 H   0  0  0  0  0  0  0  0  0  0  0  0
  146.2417   70.6245  217.7394 H   0  0  0  0  0  0  0  0  0  0  0  0
  147.0925   68.3732  217.3022 H   0  0  0  0  0  0  0  0  0  0  0  0
  146.2585   66.4079  218.5587 H   0  0  0  0  0  0  0  0  0  0  0  0
  144.5134   66.7723  220.2878 H   0  0  0  0  0  0  0  0  0  0  0  0
  143.6478   69.0286  220.7339 H   0  0  0  0  0  0  0  0  0  0  0  0
  142.4860   70.5467  219.3523 H   0  0  0  0  0  0  0  0  0  0  0  0
  142.1941   70.4673  221.3042 H   0  0  0  0  0  0  0  0  0  0  0  0
  143.1971   72.0011  221.6238 H   0  0  0  0  0  0  0  0  0  0  0  0
  140.4039   71.6297  221.6996 H   0  0  0  0  0  0  0  0  0  0  0  0
  141.4578   73.0909  222.0302 H   0  0  0  0  0  0  0  0  0  0  0  0
  139.1742   75.9777  221.0546 H   0  0  0  0  0  0  0  0  0  0  0  0
  138.3040   74.9160  222.7530 H   0  0  0  0  0  0  0  0  0  0  0  0
  139.6430   73.9740  223.0720 H   0  0  0  0  0  0  0  0  0  0  0  0
  141.2457   74.9066  222.8301 H   0  0  0  0  0  0  0  0  0  0  0  0
  140.1080   77.0900  222.9513 H   0  0  0  0  0  0  0  0  0  0  0  0
  141.9525   77.0007  223.0963 H   0  0  0  0  0  0  0  0  0  0  0  0
  140.2603   78.4878  221.2977 H   0  0  0  0  0  0  0  0  0  0  0  0
  142.0170   78.6654  221.8364 H   0  0  0  0  0  0  0  0  0  0  0  0
  141.3323   79.5098  219.2896 H   0  0  0  0  0  0  0  0  0  0  0  0
  142.1155   78.9252  217.0130 H   0  0  0  0  0  0  0  0  0  0  0  0
  142.9817   74.9621  218.4129 H   0  0  0  0  0  0  0  0  0  0  0  0
  142.1009   74.2724  220.5013 H   0  0  0  0  0  0  0  0  0  0  0  0
  143.1832   75.3129  221.4778 H   0  0  0  0  0  0  0  0  0  0  0  0
  140.4964   71.2169  218.9582 H   0  0  0  0  0  0  0  0  0  0  0  0
  140.1714   72.6721  218.0628 H   0  0  0  0  0  0  0  0  0  0  0  0
  142.5775   72.0881  217.6152 H   0  0  0  0  0  0  0  0  0  0  0  0
  142.6619   73.4503  218.7234 H   0  0  0  0  0  0  0  0  0  0  0  0
  1  2  1  0
  2  3  1  0
  3  4  2  0
  3  5  1  0
  5  6  1  0
  6  7  2  0
  7  8  1  0
  8  9  2  0
  9 10  1  0
 10 11  2  0
  5 12  1  0
 12 13  1  0
 13 14  1  0
 14 15  1  0
 15 16  1  0
 16 17  2  0
 16 18  1  0
 18 19  1  0
 18 20  1  0
 20 21  1  0
 21 22  1  0
 22 23  1  0
 23 24  2  0
 24 25  1  0
 25 26  2  0
 26 27  1  0
 26 28  1  0
 28 29  2  0
 29 30  1  0
 15 31  1  0
 31 32  1  0
 11  6  1  0
 32 12  1  0
 30 20  1  0
 29 23  1  0
  1 33  1  0
  1 34  1  0
  1 35  1  0
  2 36  1  0
  2 37  1  0
  7 38  1  0
  8 39  1  0
  9 40  1  0
 10 41  1  0
 11 42  1  0
 12 43  1  0
 13 44  1  0
 13 45  1  0
 14 46  1  0
 14 47  1  0
 18 48  1  6
 19 49  1  0
 19 50  1  0
 20 51  1  1
 21 52  1  0
 21 53  1  0
 22 54  1  0
 22 55  1  0
 24 56  1  0
 25 57  1  0
 28 58  1  0
 30 59  1  0
 30 60  1  0
 31 61  1  0
 31 62  1  0
 32 63  1  0
 32 64  1  0
M  END
>  <smiles>  (14) 
CCC(=O)N(c1ccccc1)C1CCN(C(=O)[C@@H](N)C2CCc3ccc(Cl)cc3C2)CC1

>  <score_type>  (14) 
oracle

>  <origin>  (14) 
autodockgpu

>  <m_score__min__energy>  (14) 
-8.5199999999999996

>  <m_primary>  (14) 
energy

>  <rmsd>  (14) 
6.7507204799095115

>  <m_score__min__rmsd>  (14) 
6.7507204799095115

>  <meeko>  (14) 
{"free_energy": -7.52, "intermolecular_energy": -9.6, "internal_energy": -2.51, "cluster_size": 6, "cluster_id": 5, "rank_in_cluster": 1}

>  <energy>  (14) 
-7.63

>  <cluster_rmsd>  (14) 
1.17

>  <cluster>  (14) 
1

$$$$

     RDKit          3D

 64 67  0  0  0  0  0  0  0  0999 V2000
  137.7170   80.4700  224.0200 C   0  0  0  0  0  0  0  0  0  0  0  0
  137.2110   79.3310  223.1010 C   0  0  0  0  0  0  0  0  0  0  0  0
  138.1160   79.1720  221.9690 C   0  0  0  0  0  0  0  0  0  0  0  0
  137.6000   79.5970  220.8460 O   0  0  0  0  0  0  0  0  0  0  0  0
  139.4210   78.6460  221.8970 N   0  0  0  0  0  0  0  0  0  0  0  0
  140.6150   79.2110  222.3730 C   0  0  0  0  0  0  0  0  0  0  0  0
  141.0120   79.0130  223.7100 C   0  0  0  0  0  0  0  0  0  0  0  0
  142.1740   79.5590  224.2180 C   0  0  0  0  0  0  0  0  0  0  0  0
  143.0130   80.3270  223.4490 C   0  0  0  0  0  0  0  0  0  0  0  0
  142.6550   80.5370  222.1470 C   0  0  0  0  0  0  0  0  0  0  0  0
  141.4820   79.9860  221.6360 C   0  0  0  0  0  0  0  0  0  0  0  0
  139.5150   77.3340  221.2420 C   0  0  0  0  0  0  0  0  0  0  0  0
  140.5040   76.3970  221.8030 C   0  0  0  0  0  0  0  0  0  0  0  0
  140.2180   74.9320  221.6850 C   0  0  0  0  0  0  0  0  0  0  0  0
  138.9870   74.6280  221.0200 N   0  0  0  0  0  0  0  0  0  0  0  0
  138.1230   73.5480  221.3070 C   0  0  0  0  0  0  0  0  0  0  0  0
  137.0380   73.4070  220.6330 O   0  0  0  0  0  0  0  0  0  0  0  0
  138.3500   72.5240  222.3490 C   0  0  1  0  0  0  0  0  0  0  0  0
  137.1590   71.6790  222.4170 N   0  0  0  0  0  0  0  0  0  0  0  0
  139.5580   71.6760  221.9770 C   0  0  2  0  0  0  0  0  0  0  0  0
  139.2360   70.2410  221.7530 C   0  0  0  0  0  0  0  0  0  0  0  0
  139.0870   69.3930  222.9620 C   0  0  0  0  0  0  0  0  0  0  0  0
  139.5900   69.9670  224.2090 C   0  0  0  0  0  0  0  0  0  0  0  0
  139.3040   69.3160  225.3920 C   0  0  0  0  0  0  0  0  0  0  0  0
  139.7390   69.7870  226.6140 C   0  0  0  0  0  0  0  0  0  0  0  0
  140.4820   70.9430  226.6330 C   0  0  0  0  0  0  0  0  0  0  0  0
  141.0280   71.5320  228.1850 Cl  0  0  0  0  0  0  0  0  0  0  0  0
  140.7730   71.6000  225.4560 C   0  0  0  0  0  0  0  0  0  0  0  0
  140.3340   71.1260  224.2200 C   0  0  0  0  0  0  0  0  0  0  0  0
  140.6770   71.8690  223.0000 C   0  0  0  0  0  0  0  0  0  0  0  0
  138.6010   75.5500  219.9320 C   0  0  0  0  0  0  0  0  0  0  0  0
  138.2120   76.8120  220.7310 C   0  0  0  0  0  0  0  0  0  0  0  0
  137.5869   80.1772  225.0723 H   0  0  0  0  0  0  0  0  0  0  0  0
  138.7825   80.6563  223.8203 H   0  0  0  0  0  0  0  0  0  0  0  0
  137.1410   81.3856  223.8203 H   0  0  0  0  0  0  0  0  0  0  0  0
  137.1712   78.3915  223.6717 H   0  0  0  0  0  0  0  0  0  0  0  0
  136.2061   79.5820  222.7306 H   0  0  0  0  0  0  0  0  0  0  0  0
  140.3764   78.4044  224.3700 H   0  0  0  0  0  0  0  0  0  0  0  0
  142.4354   79.3731  225.2702 H   0  0  0  0  0  0  0  0  0  0  0  0
  143.9367   80.7562  223.8645 H   0  0  0  0  0  0  0  0  0  0  0  0
  143.2991   81.1468  221.4964 H   0  0  0  0  0  0  0  0  0  0  0  0
  141.2340   80.1815  220.5823 H   0  0  0  0  0  0  0  0  0  0  0  0
  140.0356   77.5158  220.2902 H   0  0  0  0  0  0  0  0  0  0  0  0
  141.4614   76.5870  221.2958 H   0  0  0  0  0  0  0  0  0  0  0  0
  140.4944   76.5965  222.8847 H   0  0  0  0  0  0  0  0  0  0  0  0
  141.0392   74.4640  221.1223 H   0  0  0  0  0  0  0  0  0  0  0  0
  140.1291   74.5428  222.7100 H   0  0  0  0  0  0  0  0  0  0  0  0
  138.5382   73.0011  223.3221 H   0  0  0  0  0  0  0  0  0  0  0  0
  136.9550   71.3540  221.4460 H   0  0  0  0  0  0  0  0  0  0  0  0
  136.3400   72.2370  222.7180 H   0  0  0  0  0  0  0  0  0  0  0  0
  139.9137   72.0359  221.0003 H   0  0  0  0  0  0  0  0  0  0  0  0
  138.2888   70.1954  221.1955 H   0  0  0  0  0  0  0  0  0  0  0  0
  140.1052   69.8305  221.2183 H   0  0  0  0  0  0  0  0  0  0  0  0
  138.0158   69.1817  223.0959 H   0  0  0  0  0  0  0  0  0  0  0  0
  139.7003   68.4988  222.7766 H   0  0  0  0  0  0  0  0  0  0  0  0
  138.7096   68.3910  225.3597 H   0  0  0  0  0  0  0  0  0  0  0  0
  139.4982   69.2531  227.5451 H   0  0  0  0  0  0  0  0  0  0  0  0
  141.3683   72.5242  225.4930 H   0  0  0  0  0  0  0  0  0  0  0  0
  140.7828   72.9383  223.2354 H   0  0  0  0  0  0  0  0  0  0  0  0
  141.6276   71.4972  222.5899 H   0  0  0  0  0  0  0  0  0  0  0  0
  139.4435   75.7469  219.2528 H   0  0  0  0  0  0  0  0  0  0  0  0
  137.8041   75.1670  219.2776 H   0  0  0  0  0  0  0  0  0  0  0  0
  137.7232   77.5515  220.0797 H   0  0  0  0  0  0  0  0  0  0  0  0
  137.4967   76.5972  221.5386 H   0  0  0  0  0  0  0  0  0  0  0  0
  1  2  1  0
  2  3  1  0
  3  4  2  0
  3  5  1  0
  5  6  1  0
  6  7  2  0
  7  8  1  0
  8  9  2  0
  9 10  1  0
 10 11  2  0
  5 12  1  0
 12 13  1  0
 13 14  1  0
 14 15  1  0
 15 16  1  0
 16 17  2  0
 16 18  1  0
 18 19  1  0
 18 20  1  0
 20 21  1  0
 21 22  1  0
 22 23  1  0
 23 24  2  0
 24 25  1  0
 25 26  2  0
 26 27  1  0
 26 28  1  0
 28 29  2  0
 29 30  1  0
 15 31  1  0
 31 32  1  0
 11  6  1  0
 32 12  1  0
 30 20  1  0
 29 23  1  0
  1 33  1  0
  1 34  1  0
  1 35  1  0
  2 36  1  0
  2 37  1  0
  7 38  1  0
  8 39  1  0
  9 40  1  0
 10 41  1  0
 11 42  1  0
 12 43  1  0
 13 44  1  0
 13 45  1  0
 14 46  1  0
 14 47  1  0
 18 48  1  1
 19 49  1  0
 19 50  1  0
 20 51  1  6
 21 52  1  0
 21 53  1  0
 22 54  1  0
 22 55  1  0
 24 56  1  0
 25 57  1  0
 28 58  1  0
 30 59  1  0
 30 60  1  0
 31 61  1  0
 31 62  1  0
 32 63  1  0
 32 64  1  0
M  END
>  <smiles>  (15) 
CCC(=O)N(c1ccccc1)C1CCN(C(=O)[C@@H](N)C2CCc3ccc(Cl)cc3C2)CC1

>  <score_type>  (15) 
oracle

>  <origin>  (15) 
autodockgpu

>  <m_score__min__energy>  (15) 
-8.5199999999999996

>  <m_primary>  (15) 
energy

>  <rmsd>  (15) 
7.741829944373937

>  <m_score__min__rmsd>  (15) 
7.741829944373937

>  <meeko>  (15) 
{"free_energy": -7.38, "intermolecular_energy": -9.47, "internal_energy": -2.54, "cluster_size": 11, "cluster_id": 4, "rank_in_cluster": 8}

>  <energy>  (15) 
-7.59

>  <cluster_rmsd>  (15) 
1.54

>  <cluster>  (15) 
1

$$$$

     RDKit          3D

 64 67  0  0  0  0  0  0  0  0999 V2000
  144.1070   75.9140  216.3390 C   0  0  0  0  0  0  0  0  0  0  0  0
  142.8070   76.5570  216.8800 C   0  0  0  0  0  0  0  0  0  0  0  0
  142.2540   75.7310  217.9460 C   0  0  0  0  0  0  0  0  0  0  0  0
  141.1100   75.1890  217.6240 O   0  0  0  0  0  0  0  0  0  0  0  0
  142.7450   75.4340  219.2330 N   0  0  0  0  0  0  0  0  0  0  0  0
  143.7110   74.4830  219.5990 C   0  0  0  0  0  0  0  0  0  0  0  0
  144.7840   74.8450  220.4370 C   0  0  0  0  0  0  0  0  0  0  0  0
  145.7590   73.9430  220.8110 C   0  0  0  0  0  0  0  0  0  0  0  0
  145.7400   72.6360  220.3910 C   0  0  0  0  0  0  0  0  0  0  0  0
  144.7110   72.2540  219.5760 C   0  0  0  0  0  0  0  0  0  0  0  0
  143.7280   73.1660  219.1980 C   0  0  0  0  0  0  0  0  0  0  0  0
  142.1610   76.2440  220.3110 C   0  0  0  0  0  0  0  0  0  0  0  0
  141.8890   77.6560  219.9900 C   0  0  0  0  0  0  0  0  0  0  0  0
  140.7550   78.3240  220.7020 C   0  0  0  0  0  0  0  0  0  0  0  0
  140.0680   77.4790  221.6320 N   0  0  0  0  0  0  0  0  0  0  0  0
  138.6870   77.5060  221.9270 C   0  0  0  0  0  0  0  0  0  0  0  0
  138.2040   76.6730  222.7780 O   0  0  0  0  0  0  0  0  0  0  0  0
  137.7020   78.4330  221.3310 C   0  0  1  0  0  0  0  0  0  0  0  0
  136.5610   77.6430  220.8690 N   0  0  0  0  0  0  0  0  0  0  0  0
  137.2400   79.4320  222.3810 C   0  0  2  0  0  0  0  0  0  0  0  0
  136.8590   80.7580  221.8210 C   0  0  0  0  0  0  0  0  0  0  0  0
  137.9680   81.6920  221.5050 C   0  0  0  0  0  0  0  0  0  0  0  0
  139.2700   81.3530  222.0760 C   0  0  0  0  0  0  0  0  0  0  0  0
  140.3750   82.0680  221.6600 C   0  0  0  0  0  0  0  0  0  0  0  0
  141.6410   81.8150  222.1460 C   0  0  0  0  0  0  0  0  0  0  0  0
  141.7870   80.8140  223.0760 C   0  0  0  0  0  0  0  0  0  0  0  0
  143.3940   80.5010  223.6870 Cl  0  0  0  0  0  0  0  0  0  0  0  0
  140.6890   80.0940  223.4990 C   0  0  0  0  0  0  0  0  0  0  0  0
  139.4080   80.3480  223.0080 C   0  0  0  0  0  0  0  0  0  0  0  0
  138.2770   79.5480  223.4970 C   0  0  0  0  0  0  0  0  0  0  0  0
  140.9040   76.4860  222.3360 C   0  0  0  0  0  0  0  0  0  0  0  0
  141.2180   75.4940  221.1950 C   0  0  0  0  0  0  0  0  0  0  0  0
  144.7398   75.6010  217.1825 H   0  0  0  0  0  0  0  0  0  0  0  0
  143.8543   75.0370  215.7250 H   0  0  0  0  0  0  0  0  0  0  0  0
  144.6507   76.6471  215.7250 H   0  0  0  0  0  0  0  0  0  0  0  0
  143.0318   77.5592  217.2739 H   0  0  0  0  0  0  0  0  0  0  0  0
  142.0737   76.6354  216.0638 H   0  0  0  0  0  0  0  0  0  0  0  0
  144.8466   75.8797  220.8049 H   0  0  0  0  0  0  0  0  0  0  0  0
  146.5760   74.2813  221.4653 H   0  0  0  0  0  0  0  0  0  0  0  0
  146.5212   71.9249  220.6979 H   0  0  0  0  0  0  0  0  0  0  0  0
  144.6587   71.2162  219.2151 H   0  0  0  0  0  0  0  0  0  0  0  0
  142.9189   72.8136  218.5414 H   0  0  0  0  0  0  0  0  0  0  0  0
  142.9827   76.4302  221.0182 H   0  0  0  0  0  0  0  0  0  0  0  0
  142.8016   78.2265  220.2173 H   0  0  0  0  0  0  0  0  0  0  0  0
  141.5877   77.6481  218.9321 H   0  0  0  0  0  0  0  0  0  0  0  0
  141.1542   79.1893  221.2515 H   0  0  0  0  0  0  0  0  0  0  0  0
  140.0224   78.6095  219.9327 H   0  0  0  0  0  0  0  0  0  0  0  0
  138.1523   78.9838  220.4920 H   0  0  0  0  0  0  0  0  0  0  0  0
  135.6980   78.1090  221.2290 H   0  0  0  0  0  0  0  0  0  0  0  0
  136.5840   76.6980  221.2930 H   0  0  0  0  0  0  0  0  0  0  0  0
  136.3088   79.0350  222.8115 H   0  0  0  0  0  0  0  0  0  0  0  0
  136.2992   80.5787  220.8912 H   0  0  0  0  0  0  0  0  0  0  0  0
  136.2825   81.2527  222.6165 H   0  0  0  0  0  0  0  0  0  0  0  0
  138.0783   81.7265  220.4111 H   0  0  0  0  0  0  0  0  0  0  0  0
  137.6855   82.6538  221.9579 H   0  0  0  0  0  0  0  0  0  0  0  0
  140.2415   82.8668  220.9156 H   0  0  0  0  0  0  0  0  0  0  0  0
  142.5076   82.3971  221.7994 H   0  0  0  0  0  0  0  0  0  0  0  0
  140.8273   79.2971  224.2445 H   0  0  0  0  0  0  0  0  0  0  0  0
  138.6285   78.5452  223.7813 H   0  0  0  0  0  0  0  0  0  0  0  0
  137.8281   80.0323  224.3768 H   0  0  0  0  0  0  0  0  0  0  0  0
  141.8210   76.9428  222.7366 H   0  0  0  0  0  0  0  0  0  0  0  0
  140.4200   76.0282  223.2113 H   0  0  0  0  0  0  0  0  0  0  0  0
  141.6925   74.5831  221.5888 H   0  0  0  0  0  0  0  0  0  0  0  0
  140.3143   75.1614  220.6634 H   0  0  0  0  0  0  0  0  0  0  0  0
  1  2  1  0
  2  3  1  0
  3  4  2  0
  3  5  1  0
  5  6  1  0
  6  7  2  0
  7  8  1  0
  8  9  2  0
  9 10  1  0
 10 11  2  0
  5 12  1  0
 12 13  1  0
 13 14  1  0
 14 15  1  0
 15 16  1  0
 16 17  2  0
 16 18  1  0
 18 19  1  0
 18 20  1  0
 20 21  1  0
 21 22  1  0
 22 23  1  0
 23 24  2  0
 24 25  1  0
 25 26  2  0
 26 27  1  0
 26 28  1  0
 28 29  2  0
 29 30  1  0
 15 31  1  0
 31 32  1  0
 11  6  1  0
 32 12  1  0
 30 20  1  0
 29 23  1  0
  1 33  1  0
  1 34  1  0
  1 35  1  0
  2 36  1  0
  2 37  1  0
  7 38  1  0
  8 39  1  0
  9 40  1  0
 10 41  1  0
 11 42  1  0
 12 43  1  0
 13 44  1  0
 13 45  1  0
 14 46  1  0
 14 47  1  0
 18 48  1  6
 19 49  1  0
 19 50  1  0
 20 51  1  1
 21 52  1  0
 21 53  1  0
 22 54  1  0
 22 55  1  0
 24 56  1  0
 25 57  1  0
 28 58  1  0
 30 59  1  0
 30 60  1  0
 31 61  1  0
 31 62  1  0
 32 63  1  0
 32 64  1  0
M  END
>  <smiles>  (16) 
CCC(=O)N(c1ccccc1)C1CCN(C(=O)[C@@H](N)C2CCc3ccc(Cl)cc3C2)CC1

>  <score_type>  (16) 
oracle

>  <origin>  (16) 
autodockgpu

>  <m_score__min__energy>  (16) 
-8.5199999999999996

>  <m_primary>  (16) 
energy

>  <rmsd>  (16) 
4.159942928600096

>  <m_score__min__rmsd>  (16) 
4.159942928600096

>  <meeko>  (16) 
{"free_energy": -6.34, "intermolecular_energy": -8.43, "internal_energy": -3.0, "cluster_size": 2, "cluster_id": 9, "rank_in_cluster": 2}

>  <energy>  (16) 
-7.47

>  <cluster_rmsd>  (16) 
0.92

>  <cluster>  (16) 
1

$$$$

     RDKit          3D

 64 67  0  0  0  0  0  0  0  0999 V2000
  135.9270   69.5760  223.8650 C   0  0  0  0  0  0  0  0  0  0  0  0
  136.8290   68.5350  223.1570 C   0  0  0  0  0  0  0  0  0  0  0  0
  138.2190   68.7420  223.5450 C   0  0  0  0  0  0  0  0  0  0  0  0
  138.8750   67.6220  223.6900 O   0  0  0  0  0  0  0  0  0  0  0  0
  138.9450   69.9270  223.7810 N   0  0  0  0  0  0  0  0  0  0  0  0
  139.5900   70.3330  224.9600 C   0  0  0  0  0  0  0  0  0  0  0  0
  140.4400   71.4560  224.9550 C   0  0  0  0  0  0  0  0  0  0  0  0
  141.1000   71.8810  226.0900 C   0  0  0  0  0  0  0  0  0  0  0  0
  140.9650   71.2360  227.2940 C   0  0  0  0  0  0  0  0  0  0  0  0
  140.1470   70.1420  227.3320 C   0  0  0  0  0  0  0  0  0  0  0  0
  139.4820   69.7130  226.1850 C   0  0  0  0  0  0  0  0  0  0  0  0
  139.0290   70.8310  222.6260 C   0  0  0  0  0  0  0  0  0  0  0  0
  138.3060   72.1100  222.7480 C   0  0  0  0  0  0  0  0  0  0  0  0
  138.8520   73.2890  222.0030 C   0  0  0  0  0  0  0  0  0  0  0  0
  140.0340   73.0080  221.2470 N   0  0  0  0  0  0  0  0  0  0  0  0
  141.1150   73.8890  221.0220 C   0  0  0  0  0  0  0  0  0  0  0  0
  142.1230   73.4930  220.3300 O   0  0  0  0  0  0  0  0  0  0  0  0
  141.2070   75.2760  221.5240 C   0  0  1  0  0  0  0  0  0  0  0  0
  142.2640   75.9570  220.7780 N   0  0  0  0  0  0  0  0  0  0  0  0
  139.8810   75.9900  221.2980 C   0  0  2  0  0  0  0  0  0  0  0  0
  139.7030   76.4990  219.9110 C   0  0  0  0  0  0  0  0  0  0  0  0
  140.3810   77.7760  219.5770 C   0  0  0  0  0  0  0  0  0  0  0  0
  140.8660   78.5580  220.7130 C   0  0  0  0  0  0  0  0  0  0  0  0
  141.6730   79.6490  220.4610 C   0  0  0  0  0  0  0  0  0  0  0  0
  142.1740   80.4410  221.4730 C   0  0  0  0  0  0  0  0  0  0  0  0
  141.8480   80.1180  222.7680 C   0  0  0  0  0  0  0  0  0  0  0  0
  142.4880   81.1270  224.0430 Cl  0  0  0  0  0  0  0  0  0  0  0  0
  141.0430   79.0290  223.0300 C   0  0  0  0  0  0  0  0  0  0  0  0
  140.5350   78.2270  222.0090 C   0  0  0  0  0  0  0  0  0  0  0  0
  139.6810   77.0810  222.3490 C   0  0  0  0  0  0  0  0  0  0  0  0
  140.1120   71.6560  220.6560 C   0  0  0  0  0  0  0  0  0  0  0  0
  140.3410   70.7910  221.9130 C   0  0  0  0  0  0  0  0  0  0  0  0
  136.0239   69.4641  224.9550 H   0  0  0  0  0  0  0  0  0  0  0  0
  136.2370   70.5898  223.5714 H   0  0  0  0  0  0  0  0  0  0  0  0
  134.8794   69.4135  223.5714 H   0  0  0  0  0  0  0  0  0  0  0  0
  136.5154   67.5217  223.4483 H   0  0  0  0  0  0  0  0  0  0  0  0
  136.7342   68.6531  222.0675 H   0  0  0  0  0  0  0  0  0  0  0  0
  140.5823   72.0120  224.0166 H   0  0  0  0  0  0  0  0  0  0  0  0
  141.7540   72.7633  226.0279 H   0  0  0  0  0  0  0  0  0  0  0  0
  141.4942   71.5858  228.1926 H   0  0  0  0  0  0  0  0  0  0  0  0
  140.0122   69.5949  228.2768 H   0  0  0  0  0  0  0  0  0  0  0  0
  138.8333   68.8280  226.2625 H   0  0  0  0  0  0  0  0  0  0  0  0
  138.3793   70.3882  221.8567 H   0  0  0  0  0  0  0  0  0  0  0  0
  137.2788   71.9426  222.3919 H   0  0  0  0  0  0  0  0  0  0  0  0
  138.3986   72.3831  223.8095 H   0  0  0  0  0  0  0  0  0  0  0  0
  138.0768   73.6489  221.3105 H   0  0  0  0  0  0  0  0  0  0  0  0
  139.1300   74.0393  222.7579 H   0  0  0  0  0  0  0  0  0  0  0  0
  141.4334   75.2801  222.6004 H   0  0  0  0  0  0  0  0  0  0  0  0
  143.1170   75.3570  220.8350 H   0  0  0  0  0  0  0  0  0  0  0  0
  142.5050   76.8540  221.2360 H   0  0  0  0  0  0  0  0  0  0  0  0
  139.0872   75.2385  221.4207 H   0  0  0  0  0  0  0  0  0  0  0  0
  140.0831   75.7299  219.2225 H   0  0  0  0  0  0  0  0  0  0  0  0
  138.6275   76.7097  219.8165 H   0  0  0  0  0  0  0  0  0  0  0  0
  141.2439   77.5418  218.9362 H   0  0  0  0  0  0  0  0  0  0  0  0
  139.6169   78.4002  219.0907 H   0  0  0  0  0  0  0  0  0  0  0  0
  141.9249   79.8949  219.4188 H   0  0  0  0  0  0  0  0  0  0  0  0
  142.8158   81.3060  221.2498 H   0  0  0  0  0  0  0  0  0  0  0  0
  140.7949   78.7865  224.0738 H   0  0  0  0  0  0  0  0  0  0  0  0
  139.9584   76.6944  223.3408 H   0  0  0  0  0  0  0  0  0  0  0  0
  138.6264   77.3931  222.3683 H   0  0  0  0  0  0  0  0  0  0  0  0
  139.1762   71.3849  220.1453 H   0  0  0  0  0  0  0  0  0  0  0  0
  140.8883   71.5450  219.8846 H   0  0  0  0  0  0  0  0  0  0  0  0
  140.6031   69.7595  221.6349 H   0  0  0  0  0  0  0  0  0  0  0  0
  141.1707   71.1596  222.5340 H   0  0  0  0  0  0  0  0  0  0  0  0
  1  2  1  0
  2  3  1  0
  3  4  2  0
  3  5  1  0
  5  6  1  0
  6  7  2  0
  7  8  1  0
  8  9  2  0
  9 10  1  0
 10 11  2  0
  5 12  1  0
 12 13  1  0
 13 14  1  0
 14 15  1  0
 15 16  1  0
 16 17  2  0
 16 18  1  0
 18 19  1  0
 18 20  1  0
 20 21  1  0
 21 22  1  0
 22 23  1  0
 23 24  2  0
 24 25  1  0
 25 26  2  0
 26 27  1  0
 26 28  1  0
 28 29  2  0
 29 30  1  0
 15 31  1  0
 31 32  1  0
 11  6  1  0
 32 12  1  0
 30 20  1  0
 29 23  1  0
  1 33  1  0
  1 34  1  0
  1 35  1  0
  2 36  1  0
  2 37  1  0
  7 38  1  0
  8 39  1  0
  9 40  1  0
 10 41  1  0
 11 42  1  0
 12 43  1  0
 13 44  1  0
 13 45  1  0
 14 46  1  0
 14 47  1  0
 18 48  1  1
 19 49  1  0
 19 50  1  0
 20 51  1  1
 21 52  1  0
 21 53  1  0
 22 54  1  0
 22 55  1  0
 24 56  1  0
 25 57  1  0
 28 58  1  0
 30 59  1  0
 30 60  1  0
 31 61  1  0
 31 62  1  0
 32 63  1  0
 32 64  1  0
M  END
>  <smiles>  (17) 
CCC(=O)N(c1ccccc1)C1CCN(C(=O)[C@@H](N)C2CCc3ccc(Cl)cc3C2)CC1

>  <score_type>  (17) 
oracle

>  <origin>  (17) 
autodockgpu

>  <m_score__min__energy>  (17) 
-8.5199999999999996

>  <m_primary>  (17) 
energy

>  <rmsd>  (17) 
5.807083163540341

>  <m_score__min__rmsd>  (17) 
5.807083163540341

>  <meeko>  (17) 
{"free_energy": -8.13, "intermolecular_energy": -10.22, "internal_energy": -2.12, "cluster_size": 16, "cluster_id": 1, "rank_in_cluster": 7}

>  <energy>  (17) 
-7.64

>  <cluster_rmsd>  (17) 
0.0

>  <cluster>  (17) 
2

$$$$

     RDKit          3D

 64 67  0  0  0  0  0  0  0  0999 V2000
  146.3250   73.3960  221.4640 C   0  0  0  0  0  0  0  0  0  0  0  0
  145.0550   73.5160  220.5870 C   0  0  0  0  0  0  0  0  0  0  0  0
  145.0470   72.4590  219.5830 C   0  0  0  0  0  0  0  0  0  0  0  0
  145.9330   72.6480  218.6430 O   0  0  0  0  0  0  0  0  0  0  0  0
  144.2550   71.2980  219.4710 N   0  0  0  0  0  0  0  0  0  0  0  0
  144.6760   69.9680  219.3160 C   0  0  0  0  0  0  0  0  0  0  0  0
  143.7700   68.9070  219.5120 C   0  0  0  0  0  0  0  0  0  0  0  0
  144.1470   67.5870  219.3780 C   0  0  0  0  0  0  0  0  0  0  0  0
  145.4290   67.2270  219.0440 C   0  0  0  0  0  0  0  0  0  0  0  0
  146.3330   68.2330  218.8470 C   0  0  0  0  0  0  0  0  0  0  0  0
  145.9510   69.5660  218.9830 C   0  0  0  0  0  0  0  0  0  0  0  0
  142.8070   71.5390  219.5370 C   0  0  0  0  0  0  0  0  0  0  0  0
  142.2120   71.5650  220.8850 C   0  0  0  0  0  0  0  0  0  0  0  0
  141.0030   72.4220  221.0930 C   0  0  0  0  0  0  0  0  0  0  0  0
  140.5680   73.1170  219.9200 N   0  0  0  0  0  0  0  0  0  0  0  0
  139.9880   74.4040  219.8740 C   0  0  0  0  0  0  0  0  0  0  0  0
  139.6580   74.9120  218.7400 O   0  0  0  0  0  0  0  0  0  0  0  0
  139.7110   75.2600  221.0470 C   0  0  1  0  0  0  0  0  0  0  0  0
  138.8350   74.5170  221.9520 N   0  0  0  0  0  0  0  0  0  0  0  0
  141.0160   75.5910  221.7560 C   0  0  2  0  0  0  0  0  0  0  0  0
  141.0640   76.9730  222.3090 C   0  0  0  0  0  0  0  0  0  0  0  0
  141.3760   78.0630  221.3530 C   0  0  0  0  0  0  0  0  0  0  0  0
  141.9220   77.6450  220.0620 C   0  0  0  0  0  0  0  0  0  0  0  0
  142.0450   78.5910  219.0650 C   0  0  0  0  0  0  0  0  0  0  0  0
  142.5500   78.2830  217.8190 C   0  0  0  0  0  0  0  0  0  0  0  0
  142.9390   76.9860  217.5810 C   0  0  0  0  0  0  0  0  0  0  0  0
  143.5760   76.6050  216.0000 Cl  0  0  0  0  0  0  0  0  0  0  0  0
  142.8190   76.0340  218.5720 C   0  0  0  0  0  0  0  0  0  0  0  0
  142.3090   76.3430  219.8320 C   0  0  0  0  0  0  0  0  0  0  0  0
  142.2070   75.2860  220.8480 C   0  0  0  0  0  0  0  0  0  0  0  0
  140.7610   72.4020  218.6420 C   0  0  0  0  0  0  0  0  0  0  0  0
  142.2950   72.4690  218.4860 C   0  0  0  0  0  0  0  0  0  0  0  0
  146.0409   73.4228  222.5263 H   0  0  0  0  0  0  0  0  0  0  0  0
  146.8338   72.4458  221.2444 H   0  0  0  0  0  0  0  0  0  0  0  0
  147.0028   74.2341  221.2444 H   0  0  0  0  0  0  0  0  0  0  0  0
  144.1621   73.4228  221.2226 H   0  0  0  0  0  0  0  0  0  0  0  0
  145.0515   74.4945  220.0845 H   0  0  0  0  0  0  0  0  0  0  0  0
  142.7287   69.1387  219.7804 H   0  0  0  0  0  0  0  0  0  0  0  0
  143.3978   66.7989  219.5438 H   0  0  0  0  0  0  0  0  0  0  0  0
  145.7173   66.1706  218.9391 H   0  0  0  0  0  0  0  0  0  0  0  0
  147.3713   67.9881  218.5787 H   0  0  0  0  0  0  0  0  0  0  0  0
  146.7117   70.3426  218.8147 H   0  0  0  0  0  0  0  0  0  0  0  0
  142.3360   70.6005  219.2094 H   0  0  0  0  0  0  0  0  0  0  0  0
  141.9313   70.5326  221.1406 H   0  0  0  0  0  0  0  0  0  0  0  0
  142.9865   72.0155  221.5232 H   0  0  0  0  0  0  0  0  0  0  0  0
  140.1798   71.7793  221.4384 H   0  0  0  0  0  0  0  0  0  0  0  0
  141.2824   73.1894  221.8299 H   0  0  0  0  0  0  0  0  0  0  0  0
  139.2299   76.1980  220.7327 H   0  0  0  0  0  0  0  0  0  0  0  0
  139.2180   74.6350  222.9170 H   0  0  0  0  0  0  0  0  0  0  0  0
  138.8780   73.5040  221.7400 H   0  0  0  0  0  0  0  0  0  0  0  0
  141.0752   74.9366  222.6382 H   0  0  0  0  0  0  0  0  0  0  0  0
  140.0804   77.1892  222.7514 H   0  0  0  0  0  0  0  0  0  0  0  0
  141.8992   76.9688  223.0249 H   0  0  0  0  0  0  0  0  0  0  0  0
  140.4466   78.6193  221.1614 H   0  0  0  0  0  0  0  0  0  0  0  0
  142.1667   78.6601  221.8308 H   0  0  0  0  0  0  0  0  0  0  0  0
  141.7300   79.6247  219.2707 H   0  0  0  0  0  0  0  0  0  0  0  0
  142.6389   79.0528  217.0383 H   0  0  0  0  0  0  0  0  0  0  0  0
  143.1348   75.0014  218.3620 H   0  0  0  0  0  0  0  0  0  0  0  0
  142.0579   74.3134  220.3563 H   0  0  0  0  0  0  0  0  0  0  0  0
  143.1314   75.2482  221.4430 H   0  0  0  0  0  0  0  0  0  0  0  0
  140.4078   71.3622  218.7051 H   0  0  0  0  0  0  0  0  0  0  0  0
  140.2033   72.8318  217.7969 H   0  0  0  0  0  0  0  0  0  0  0  0
  142.6010   72.1332  217.4842 H   0  0  0  0  0  0  0  0  0  0  0  0
  142.6873   73.4906  218.5976 H   0  0  0  0  0  0  0  0  0  0  0  0
  1  2  1  0
  2  3  1  0
  3  4  2  0
  3  5  1  0
  5  6  1  0
  6  7  2  0
  7  8  1  0
  8  9  2  0
  9 10  1  0
 10 11  2  0
  5 12  1  0
 12 13  1  0
 13 14  1  0
 14 15  1  0
 15 16  1  0
 16 17  2  0
 16 18  1  0
 18 19  1  0
 18 20  1  0
 20 21  1  0
 21 22  1  0
 22 23  1  0
 23 24  2  0
 24 25  1  0
 25 26  2  0
 26 27  1  0
 26 28  1  0
 28 29  2  0
 29 30  1  0
 15 31  1  0
 31 32  1  0
 11  6  1  0
 32 12  1  0
 30 20  1  0
 29 23  1  0
  1 33  1  0
  1 34  1  0
  1 35  1  0
  2 36  1  0
  2 37  1  0
  7 38  1  0
  8 39  1  0
  9 40  1  0
 10 41  1  0
 11 42  1  0
 12 43  1  0
 13 44  1  0
 13 45  1  0
 14 46  1  0
 14 47  1  0
 18 48  1  6
 19 49  1  0
 19 50  1  0
 20 51  1  1
 21 52  1  0
 21 53  1  0
 22 54  1  0
 22 55  1  0
 24 56  1  0
 25 57  1  0
 28 58  1  0
 30 59  1  0
 30 60  1  0
 31 61  1  0
 31 62  1  0
 32 63  1  0
 32 64  1  0
M  END
>  <smiles>  (18) 
CCC(=O)N(c1ccccc1)C1CCN(C(=O)[C@@H](N)C2CCc3ccc(Cl)cc3C2)CC1

>  <score_type>  (18) 
oracle

>  <origin>  (18) 
autodockgpu

>  <m_score__min__energy>  (18) 
-8.5199999999999996

>  <m_primary>  (18) 
energy

>  <rmsd>  (18) 
6.699546952641732

>  <m_score__min__rmsd>  (18) 
6.699546952641732

>  <meeko>  (18) 
{"free_energy": -7.34, "intermolecular_energy": -9.43, "internal_energy": -2.53, "cluster_size": 6, "cluster_id": 5, "rank_in_cluster": 3}

>  <energy>  (18) 
-7.31

>  <cluster_rmsd>  (18) 
0.8

>  <cluster>  (18) 
2

$$$$

     RDKit          3D

 64 67  0  0  0  0  0  0  0  0999 V2000
  141.4450   79.1840  223.8710 C   0  0  0  0  0  0  0  0  0  0  0  0
  141.6650   80.6850  223.5650 C   0  0  0  0  0  0  0  0  0  0  0  0
  140.4440   81.2610  223.0130 C   0  0  0  0  0  0  0  0  0  0  0  0
  140.6730   82.3010  222.2570 O   0  0  0  0  0  0  0  0  0  0  0  0
  139.0950   80.8810  223.1630 N   0  0  0  0  0  0  0  0  0  0  0  0
  138.1220   81.4380  224.0080 C   0  0  0  0  0  0  0  0  0  0  0  0
  137.2930   82.4800  223.5490 C   0  0  0  0  0  0  0  0  0  0  0  0
  136.3310   83.0590  224.3510 C   0  0  0  0  0  0  0  0  0  0  0  0
  136.1240   82.6530  225.6460 C   0  0  0  0  0  0  0  0  0  0  0  0
  136.9130   81.6440  226.1210 C   0  0  0  0  0  0  0  0  0  0  0  0
  137.8840   81.0600  225.3100 C   0  0  0  0  0  0  0  0  0  0  0  0
  138.6780   79.7620  222.3070 C   0  0  0  0  0  0  0  0  0  0  0  0
  139.6390   79.3400  221.2720 C   0  0  0  0  0  0  0  0  0  0  0  0
  139.6240   77.9020  220.8560 C   0  0  0  0  0  0  0  0  0  0  0  0
  138.6460   77.1060  221.5340 N   0  0  0  0  0  0  0  0  0  0  0  0
  138.7780   75.7500  221.9030 C   0  0  0  0  0  0  0  0  0  0  0  0
  137.8170   75.1640  222.5240 O   0  0  0  0  0  0  0  0  0  0  0  0
  139.9590   74.9020  221.6370 C   0  0  1  0  0  0  0  0  0  0  0  0
  139.7430   73.6100  222.2880 N   0  0  0  0  0  0  0  0  0  0  0  0
  140.1150   74.6990  220.1370 C   0  0  2  0  0  0  0  0  0  0  0  0
  139.7150   73.3430  219.6710 C   0  0  0  0  0  0  0  0  0  0  0  0
  140.7030   72.2530  219.8610 C   0  0  0  0  0  0  0  0  0  0  0  0
  142.0680   72.6760  220.1740 C   0  0  0  0  0  0  0  0  0  0  0  0
  142.9810   71.7140  220.5540 C   0  0  0  0  0  0  0  0  0  0  0  0
  144.2880   72.0240  220.8670 C   0  0  0  0  0  0  0  0  0  0  0  0
  144.6760   73.3410  220.7890 C   0  0  0  0  0  0  0  0  0  0  0  0
  146.3330   73.7240  221.1860 Cl  0  0  0  0  0  0  0  0  0  0  0  0
  143.7700   74.3090  220.4090 C   0  0  0  0  0  0  0  0  0  0  0  0
  142.4480   73.9970  220.0940 C   0  0  0  0  0  0  0  0  0  0  0  0
  141.5290   75.0720  219.6940 C   0  0  0  0  0  0  0  0  0  0  0  0
  137.3840   77.7940  221.8750 C   0  0  0  0  0  0  0  0  0  0  0  0
  137.8490   78.7350  223.0070 C   0  0  0  0  0  0  0  0  0  0  0  0
  141.4226   79.0313  224.9601 H   0  0  0  0  0  0  0  0  0  0  0  0
  140.4894   78.8572  223.4352 H   0  0  0  0  0  0  0  0  0  0  0  0
  142.2667   78.5967  223.4352 H   0  0  0  0  0  0  0  0  0  0  0  0
  141.9300   81.2119  224.4935 H   0  0  0  0  0  0  0  0  0  0  0  0
  142.4795   80.7908  222.8333 H   0  0  0  0  0  0  0  0  0  0  0  0
  137.4164   82.8438  222.5183 H   0  0  0  0  0  0  0  0  0  0  0  0
  135.7115   83.8700  223.9405 H   0  0  0  0  0  0  0  0  0  0  0  0
  135.3535   83.1215  226.2760 H   0  0  0  0  0  0  0  0  0  0  0  0
  136.7805   81.2891  227.1537 H   0  0  0  0  0  0  0  0  0  0  0  0
  138.4956   80.2503  225.7347 H   0  0  0  0  0  0  0  0  0  0  0  0
  137.9278   80.1798  221.6196 H   0  0  0  0  0  0  0  0  0  0  0  0
  139.4419   79.9442  220.3742 H   0  0  0  0  0  0  0  0  0  0  0  0
  140.6272   79.4868  221.7324 H   0  0  0  0  0  0  0  0  0  0  0  0
  139.4174   77.8571  219.7765 H   0  0  0  0  0  0  0  0  0  0  0  0
  140.6079   77.4862  221.1188 H   0  0  0  0  0  0  0  0  0  0  0  0
  140.8700   75.3800  222.0263 H   0  0  0  0  0  0  0  0  0  0  0  0
  138.8580   73.2140  221.8990 H   0  0  0  0  0  0  0  0  0  0  0  0
  139.5860   73.7420  223.3030 H   0  0  0  0  0  0  0  0  0  0  0  0
  139.4055   75.3819  219.6469 H   0  0  0  0  0  0  0  0  0  0  0  0
  138.8001   73.0612  220.2128 H   0  0  0  0  0  0  0  0  0  0  0  0
  139.5948   73.4364  218.5816 H   0  0  0  0  0  0  0  0  0  0  0  0
  140.3494   71.6175  220.6863 H   0  0  0  0  0  0  0  0  0  0  0  0
  140.7661   71.7359  218.8922 H   0  0  0  0  0  0  0  0  0  0  0  0
  142.6557   70.6647  220.6092 H   0  0  0  0  0  0  0  0  0  0  0  0
  144.9988   71.2411  221.1700 H   0  0  0  0  0  0  0  0  0  0  0  0
  144.0997   75.3569  220.3528 H   0  0  0  0  0  0  0  0  0  0  0  0
  141.8307   76.0145  220.1743 H   0  0  0  0  0  0  0  0  0  0  0  0
  141.5573   75.2018  218.6021 H   0  0  0  0  0  0  0  0  0  0  0  0
  136.9893   78.3594  221.0180 H   0  0  0  0  0  0  0  0  0  0  0  0
  136.5647   77.1174  222.1596 H   0  0  0  0  0  0  0  0  0  0  0  0
  136.9870   79.2022  223.5057 H   0  0  0  0  0  0  0  0  0  0  0  0
  138.4064   78.2064  223.7943 H   0  0  0  0  0  0  0  0  0  0  0  0
  1  2  1  0
  2  3  1  0
  3  4  2  0
  3  5  1  0
  5  6  1  0
  6  7  2  0
  7  8  1  0
  8  9  2  0
  9 10  1  0
 10 11  2  0
  5 12  1  0
 12 13  1  0
 13 14  1  0
 14 15  1  0
 15 16  1  0
 16 17  2  0
 16 18  1  0
 18 19  1  0
 18 20  1  0
 20 21  1  0
 21 22  1  0
 22 23  1  0
 23 24  2  0
 24 25  1  0
 25 26  2  0
 26 27  1  0
 26 28  1  0
 28 29  2  0
 29 30  1  0
 15 31  1  0
 31 32  1  0
 11  6  1  0
 32 12  1  0
 30 20  1  0
 29 23  1  0
  1 33  1  0
  1 34  1  0
  1 35  1  0
  2 36  1  0
  2 37  1  0
  7 38  1  0
  8 39  1  0
  9 40  1  0
 10 41  1  0
 11 42  1  0
 12 43  1  0
 13 44  1  0
 13 45  1  0
 14 46  1  0
 14 47  1  0
 18 48  1  1
 19 49  1  0
 19 50  1  0
 20 51  1  6
 21 52  1  0
 21 53  1  0
 22 54  1  0
 22 55  1  0
 24 56  1  0
 25 57  1  0
 28 58  1  0
 30 59  1  0
 30 60  1  0
 31 61  1  0
 31 62  1  0
 32 63  1  0
 32 64  1  0
M  END
>  <smiles>  (19) 
CCC(=O)N(c1ccccc1)C1CCN(C(=O)[C@@H](N)C2CCc3ccc(Cl)cc3C2)CC1

>  <score_type>  (19) 
oracle

>  <origin>  (19) 
autodockgpu

>  <m_score__min__energy>  (19) 
-8.5199999999999996

>  <m_primary>  (19) 
energy

>  <rmsd>  (19) 
6.602582763033549

>  <m_score__min__rmsd>  (19) 
6.602582763033549

>  <meeko>  (19) 
{"free_energy": -7.06, "intermolecular_energy": -9.15, "internal_energy": -2.54, "cluster_size": 5, "cluster_id": 2, "rank_in_cluster": 5}

>  <energy>  (19) 
-7.11

>  <cluster_rmsd>  (19) 
1.97

>  <cluster>  (19) 
2

$$$$

     RDKit          3D

 64 67  0  0  0  0  0  0  0  0999 V2000
  138.8710   83.2210  221.5010 C   0  0  0  0  0  0  0  0  0  0  0  0
  140.2730   83.6890  221.0370 C   0  0  0  0  0  0  0  0  0  0  0  0
  140.8670   82.6800  220.1680 C   0  0  0  0  0  0  0  0  0  0  0  0
  141.2130   83.1580  219.0030 O   0  0  0  0  0  0  0  0  0  0  0  0
  141.1200   81.3110  220.3820 N   0  0  0  0  0  0  0  0  0  0  0  0
  141.2940   80.6360  221.6010 C   0  0  0  0  0  0  0  0  0  0  0  0
  142.5770   80.5110  222.1680 C   0  0  0  0  0  0  0  0  0  0  0  0
  142.7900   79.8470  223.3590 C   0  0  0  0  0  0  0  0  0  0  0  0
  141.7630   79.2710  224.0640 C   0  0  0  0  0  0  0  0  0  0  0  0
  140.5050   79.3750  223.5400 C   0  0  0  0  0  0  0  0  0  0  0  0
  140.2910   80.0450  222.3370 C   0  0  0  0  0  0  0  0  0  0  0  0
  141.1990   80.5060  219.1540 C   0  0  0  0  0  0  0  0  0  0  0  0
  142.5500   80.2780  218.6120 C   0  0  0  0  0  0  0  0  0  0  0  0
  142.7880   79.0110  217.8510 C   0  0  0  0  0  0  0  0  0  0  0  0
  141.6360   78.1670  217.7440 N   0  0  0  0  0  0  0  0  0  0  0  0
  141.6280   76.7550  217.7340 C   0  0  0  0  0  0  0  0  0  0  0  0
  140.5110   76.1270  217.6460 O   0  0  0  0  0  0  0  0  0  0  0  0
  142.8260   75.8920  217.8200 C   0  0  1  0  0  0  0  0  0  0  0  0
  143.7210   76.2520  216.7210 N   0  0  0  0  0  0  0  0  0  0  0  0
  143.5290   76.1260  219.1490 C   0  0  2  0  0  0  0  0  0  0  0  0
  144.0660   74.8830  219.7700 C   0  0  0  0  0  0  0  0  0  0  0  0
  143.0970   74.0300  220.5000 C   0  0  0  0  0  0  0  0  0  0  0  0
  141.8100   74.6490  220.8140 C   0  0  0  0  0  0  0  0  0  0  0  0
  140.8020   73.8500  221.3130 C   0  0  0  0  0  0  0  0  0  0  0  0
  139.5580   74.3510  221.6360 C   0  0  0  0  0  0  0  0  0  0  0  0
  139.3350   75.6950  221.4500 C   0  0  0  0  0  0  0  0  0  0  0  0
  137.7570   76.3210  221.8630 Cl  0  0  0  0  0  0  0  0  0  0  0  0
  140.3370   76.5020  220.9530 C   0  0  0  0  0  0  0  0  0  0  0  0
  141.5950   75.9970  220.6250 C   0  0  0  0  0  0  0  0  0  0  0  0
  142.6230   76.9060  220.1000 C   0  0  0  0  0  0  0  0  0  0  0  0
  140.3380   78.8640  217.6390 C   0  0  0  0  0  0  0  0  0  0  0  0
  140.1770   79.4190  219.0700 C   0  0  0  0  0  0  0  0  0  0  0  0
  138.8338   83.2086  222.6003 H   0  0  0  0  0  0  0  0  0  0  0  0
  138.1075   83.9130  221.1161 H   0  0  0  0  0  0  0  0  0  0  0  0
  138.6762   82.2091  221.1161 H   0  0  0  0  0  0  0  0  0  0  0  0
  140.1780   84.6360  220.4855 H   0  0  0  0  0  0  0  0  0  0  0  0
  140.9169   83.8358  221.9167 H   0  0  0  0  0  0  0  0  0  0  0  0
  143.4362   80.9565  221.6453 H   0  0  0  0  0  0  0  0  0  0  0  0
  143.8138   79.7773  223.7551 H   0  0  0  0  0  0  0  0  0  0  0  0
  141.9452   78.7463  225.0135 H   0  0  0  0  0  0  0  0  0  0  0  0
  139.6538   78.9258  224.0726 H   0  0  0  0  0  0  0  0  0  0  0  0
  139.2619   80.1053  221.9532 H   0  0  0  0  0  0  0  0  0  0  0  0
  140.8466   81.1639  218.3460 H   0  0  0  0  0  0  0  0  0  0  0  0
  142.7789   81.1154  217.9364 H   0  0  0  0  0  0  0  0  0  0  0  0
  143.1959   80.1962  219.4986 H   0  0  0  0  0  0  0  0  0  0  0  0
  143.1181   79.2750  216.8355 H   0  0  0  0  0  0  0  0  0  0  0  0
  143.5459   78.4431  218.4104 H   0  0  0  0  0  0  0  0  0  0  0  0
  142.5414   74.8317  217.7513 H   0  0  0  0  0  0  0  0  0  0  0  0
  144.6980   76.1910  217.0870 H   0  0  0  0  0  0  0  0  0  0  0  0
  143.5720   77.2400  216.4460 H   0  0  0  0  0  0  0  0  0  0  0  0
  144.4183   76.7375  218.9365 H   0  0  0  0  0  0  0  0  0  0  0  0
  144.5078   74.2738  218.9677 H   0  0  0  0  0  0  0  0  0  0  0  0
  144.7801   75.2266  220.5329 H   0  0  0  0  0  0  0  0  0  0  0  0
  142.9013   73.1397  219.8843 H   0  0  0  0  0  0  0  0  0  0  0  0
  143.5661   73.8108  221.4705 H   0  0  0  0  0  0  0  0  0  0  0  0
  140.9969   72.7772  221.4582 H   0  0  0  0  0  0  0  0  0  0  0  0
  138.7681   73.6950  222.0305 H   0  0  0  0  0  0  0  0  0  0  0  0
  140.1383   77.5746  220.8113 H   0  0  0  0  0  0  0  0  0  0  0  0
  142.1427   77.7338  219.5577 H   0  0  0  0  0  0  0  0  0  0  0  0
  143.2170   77.3180  220.9291 H   0  0  0  0  0  0  0  0  0  0  0  0
  140.3744   79.6732  216.8948 H   0  0  0  0  0  0  0  0  0  0  0  0
  139.5076   78.2229  217.3081 H   0  0  0  0  0  0  0  0  0  0  0  0
  139.1646   79.8217  219.2215 H   0  0  0  0  0  0  0  0  0  0  0  0
  140.3159   78.6471  219.8413 H   0  0  0  0  0  0  0  0  0  0  0  0
  1  2  1  0
  2  3  1  0
  3  4  2  0
  3  5  1  0
  5  6  1  0
  6  7  2  0
  7  8  1  0
  8  9  2  0
  9 10  1  0
 10 11  2  0
  5 12  1  0
 12 13  1  0
 13 14  1  0
 14 15  1  0
 15 16  1  0
 16 17  2  0
 16 18  1  0
 18 19  1  0
 18 20  1  0
 20 21  1  0
 21 22  1  0
 22 23  1  0
 23 24  2  0
 24 25  1  0
 25 26  2  0
 26 27  1  0
 26 28  1  0
 28 29  2  0
 29 30  1  0
 15 31  1  0
 31 32  1  0
 11  6  1  0
 32 12  1  0
 30 20  1  0
 29 23  1  0
  1 33  1  0
  1 34  1  0
  1 35  1  0
  2 36  1  0
  2 37  1  0
  7 38  1  0
  8 39  1  0
  9 40  1  0
 10 41  1  0
 11 42  1  0
 12 43  1  0
 13 44  1  0
 13 45  1  0
 14 46  1  0
 14 47  1  0
 18 48  1  6
 19 49  1  0
 19 50  1  0
 20 51  1  6
 21 52  1  0
 21 53  1  0
 22 54  1  0
 22 55  1  0
 24 56  1  0
 25 57  1  0
 28 58  1  0
 30 59  1  0
 30 60  1  0
 31 61  1  0
 31 62  1  0
 32 63  1  0
 32 64  1  0
M  END
>  <smiles>  (20) 
CCC(=O)N(c1ccccc1)C1CCN(C(=O)[C@@H](N)C2CCc3ccc(Cl)cc3C2)CC1

>  <score_type>  (20) 
oracle

>  <origin>  (20) 
autodockgpu

>  <m_score__min__energy>  (20) 
-8.5199999999999996

>  <m_primary>  (20) 
energy

>  <rmsd>  (20) 
5.318608547701009

>  <m_score__min__rmsd>  (20) 
5.318608547701009

>  <meeko>  (20) 
{"free_energy": -6.57, "intermolecular_energy": -8.66, "internal_energy": -3.0, "cluster_size": 2, "cluster_id": 8, "rank_in_cluster": 2}

>  <energy>  (20) 
-7.09

>  <cluster_rmsd>  (20) 
1.79

>  <cluster>  (20) 
2

$$$$

     RDKit          3D

 64 67  0  0  0  0  0  0  0  0999 V2000
  141.8590   78.9640  223.8320 C   0  0  0  0  0  0  0  0  0  0  0  0
  142.6760   79.9240  222.9330 C   0  0  0  0  0  0  0  0  0  0  0  0
  141.8730   81.0950  222.6020 C   0  0  0  0  0  0  0  0  0  0  0  0
  141.9140   82.0150  223.5280 O   0  0  0  0  0  0  0  0  0  0  0  0
  141.0820   81.3810  221.4720 N   0  0  0  0  0  0  0  0  0  0  0  0
  141.0230   82.5700  220.7270 C   0  0  0  0  0  0  0  0  0  0  0  0
  141.3840   82.5750  219.3660 C   0  0  0  0  0  0  0  0  0  0  0  0
  141.3490   83.7240  218.6020 C   0  0  0  0  0  0  0  0  0  0  0  0
  140.9590   84.9320  219.1250 C   0  0  0  0  0  0  0  0  0  0  0  0
  140.6030   84.9600  220.4440 C   0  0  0  0  0  0  0  0  0  0  0  0
  140.6390   83.8000  221.2130 C   0  0  0  0  0  0  0  0  0  0  0  0
  140.2220   80.2730  221.0320 C   0  0  0  0  0  0  0  0  0  0  0  0
  140.8010   79.3580  220.0320 C   0  0  0  0  0  0  0  0  0  0  0  0
  140.3360   77.9350  220.0410 C   0  0  0  0  0  0  0  0  0  0  0  0
  139.3590   77.6450  221.0460 N   0  0  0  0  0  0  0  0  0  0  0  0
  139.2230   76.4330  221.7580 C   0  0  0  0  0  0  0  0  0  0  0  0
  138.3030   76.3200  222.6480 O   0  0  0  0  0  0  0  0  0  0  0  0
  140.0680   75.2340  221.5760 C   0  0  1  0  0  0  0  0  0  0  0  0
  139.4760   74.1430  222.3490 N   0  0  0  0  0  0  0  0  0  0  0  0
  140.1040   74.8540  220.1020 C   0  0  2  0  0  0  0  0  0  0  0  0
  139.6310   73.4700  219.8280 C   0  0  0  0  0  0  0  0  0  0  0  0
  140.5990   72.3730  220.0740 C   0  0  0  0  0  0  0  0  0  0  0  0
  141.9950   72.7770  220.2360 C   0  0  0  0  0  0  0  0  0  0  0  0
  142.9060   71.8320  220.6610 C   0  0  0  0  0  0  0  0  0  0  0  0
  144.2420   72.1270  220.8400 C   0  0  0  0  0  0  0  0  0  0  0  0
  144.6600   73.4100  220.5810 C   0  0  0  0  0  0  0  0  0  0  0  0
  146.3530   73.7750  220.8110 Cl  0  0  0  0  0  0  0  0  0  0  0  0
  143.7560   74.3620  220.1570 C   0  0  0  0  0  0  0  0  0  0  0  0
  142.4060   74.0660  219.9750 C   0  0  0  0  0  0  0  0  0  0  0  0
  141.4910   75.1210  219.5190 C   0  0  0  0  0  0  0  0  0  0  0  0
  138.4140   78.7370  221.3570 C   0  0  0  0  0  0  0  0  0  0  0  0
  139.3330   79.7290  222.1020 C   0  0  0  0  0  0  0  0  0  0  0  0
  142.0558   79.1952  224.8893 H   0  0  0  0  0  0  0  0  0  0  0  0
  140.7864   79.0895  223.6227 H   0  0  0  0  0  0  0  0  0  0  0  0
  142.1544   77.9253  223.6227 H   0  0  0  0  0  0  0  0  0  0  0  0
  143.5826   80.2425  223.4683 H   0  0  0  0  0  0  0  0  0  0  0  0
  142.9565   79.4025  222.0060 H   0  0  0  0  0  0  0  0  0  0  0  0
  141.7042   81.6331  218.8966 H   0  0  0  0  0  0  0  0  0  0  0  0
  141.6421   83.6703  217.5431 H   0  0  0  0  0  0  0  0  0  0  0  0
  140.9341   85.8414  218.5067 H   0  0  0  0  0  0  0  0  0  0  0  0
  140.2850   85.9080  220.9025 H   0  0  0  0  0  0  0  0  0  0  0  0
  140.3436   83.8700  222.2703 H   0  0  0  0  0  0  0  0  0  0  0  0
  139.4703   80.7272  220.3697 H   0  0  0  0  0  0  0  0  0  0  0  0
  140.5748   79.7715  219.0381 H   0  0  0  0  0  0  0  0  0  0  0  0
  141.8691   79.3037  220.2894 H   0  0  0  0  0  0  0  0  0  0  0  0
  139.8976   77.7088  219.0578 H   0  0  0  0  0  0  0  0  0  0  0  0
  141.2164   77.3154  220.2669 H   0  0  0  0  0  0  0  0  0  0  0  0
  141.0948   75.4328  221.9169 H   0  0  0  0  0  0  0  0  0  0  0  0
  138.4530   74.1350  222.1380 H   0  0  0  0  0  0  0  0  0  0  0  0
  139.5660   74.3330  223.3640 H   0  0  0  0  0  0  0  0  0  0  0  0
  139.3792   75.5015  219.5869 H   0  0  0  0  0  0  0  0  0  0  0  0
  138.7515   73.2868  220.4628 H   0  0  0  0  0  0  0  0  0  0  0  0
  139.4317   73.4419  218.7466 H   0  0  0  0  0  0  0  0  0  0  0  0
  140.2906   71.8510  220.9918 H   0  0  0  0  0  0  0  0  0  0  0  0
  140.5737   71.7458  219.1707 H   0  0  0  0  0  0  0  0  0  0  0  0
  142.5556   70.8092  220.8639 H   0  0  0  0  0  0  0  0  0  0  0  0
  144.9513   71.3580  221.1799 H   0  0  0  0  0  0  0  0  0  0  0  0
  144.1106   75.3838  219.9568 H   0  0  0  0  0  0  0  0  0  0  0  0
  141.8547   76.1004  219.8633 H   0  0  0  0  0  0  0  0  0  0  0  0
  141.4409   75.1238  218.4201 H   0  0  0  0  0  0  0  0  0  0  0  0
  137.9984   79.1829  220.4413 H   0  0  0  0  0  0  0  0  0  0  0  0
  137.5325   78.4195  221.9333 H   0  0  0  0  0  0  0  0  0  0  0  0
  138.7442   80.5333  222.5673 H   0  0  0  0  0  0  0  0  0  0  0  0
  139.8961   79.2527  222.9181 H   0  0  0  0  0  0  0  0  0  0  0  0
  1  2  1  0
  2  3  1  0
  3  4  2  0
  3  5  1  0
  5  6  1  0
  6  7  2  0
  7  8  1  0
  8  9  2  0
  9 10  1  0
 10 11  2  0
  5 12  1  0
 12 13  1  0
 13 14  1  0
 14 15  1  0
 15 16  1  0
 16 17  2  0
 16 18  1  0
 18 19  1  0
 18 20  1  0
 20 21  1  0
 21 22  1  0
 22 23  1  0
 23 24  2  0
 24 25  1  0
 25 26  2  0
 26 27  1  0
 26 28  1  0
 28 29  2  0
 29 30  1  0
 15 31  1  0
 31 32  1  0
 11  6  1  0
 32 12  1  0
 30 20  1  0
 29 23  1  0
  1 33  1  0
  1 34  1  0
  1 35  1  0
  2 36  1  0
  2 37  1  0
  7 38  1  0
  8 39  1  0
  9 40  1  0
 10 41  1  0
 11 42  1  0
 12 43  1  0
 13 44  1  0
 13 45  1  0
 14 46  1  0
 14 47  1  0
 18 48  1  1
 19 49  1  0
 19 50  1  0
 20 51  1  6
 21 52  1  0
 21 53  1  0
 22 54  1  0
 22 55  1  0
 24 56  1  0
 25 57  1  0
 28 58  1  0
 30 59  1  0
 30 60  1  0
 31 61  1  0
 31 62  1  0
 32 63  1  0
 32 64  1  0
M  END
>  <smiles>  (21) 
CCC(=O)N(c1ccccc1)C1CCN(C(=O)[C@@H](N)C2CCc3ccc(Cl)cc3C2)CC1

>  <score_type>  (21) 
oracle

>  <origin>  (21) 
autodockgpu

>  <m_score__min__energy>  (21) 
-8.5199999999999996

>  <m_primary>  (21) 
energy

>  <rmsd>  (21) 
6.325026776323931

>  <m_score__min__rmsd>  (21) 
6.325026776323931

>  <meeko>  (21) 
{"free_energy": -7.31, "intermolecular_energy": -9.39, "internal_energy": -2.58, "cluster_size": 5, "cluster_id": 2, "rank_in_cluster": 2}

>  <energy>  (21) 
-7.06

>  <cluster_rmsd>  (21) 
1.78

>  <cluster>  (21) 
2

$$$$

     RDKit          3D

 64 67  0  0  0  0  0  0  0  0999 V2000
  137.7440   80.4620  224.0790 C   0  0  0  0  0  0  0  0  0  0  0  0
  137.2160   79.3310  223.1630 C   0  0  0  0  0  0  0  0  0  0  0  0
  138.1020   79.1700  222.0160 C   0  0  0  0  0  0  0  0  0  0  0  0
  137.5690   79.5970  220.9030 O   0  0  0  0  0  0  0  0  0  0  0  0
  139.4050   78.6420  221.9230 N   0  0  0  0  0  0  0  0  0  0  0  0
  140.6070   79.2010  222.3840 C   0  0  0  0  0  0  0  0  0  0  0  0
  141.0150   79.0090  223.7190 C   0  0  0  0  0  0  0  0  0  0  0  0
  142.1840   79.5490  224.2130 C   0  0  0  0  0  0  0  0  0  0  0  0
  143.0220   80.3070  223.4330 C   0  0  0  0  0  0  0  0  0  0  0  0
  142.6540   80.5120  222.1320 C   0  0  0  0  0  0  0  0  0  0  0  0
  141.4720   79.9660  221.6350 C   0  0  0  0  0  0  0  0  0  0  0  0
  139.4860   77.3330  221.2600 C   0  0  0  0  0  0  0  0  0  0  0  0
  140.4830   76.3910  221.7990 C   0  0  0  0  0  0  0  0  0  0  0  0
  140.1930   74.9280  221.6790 C   0  0  0  0  0  0  0  0  0  0  0  0
  138.9510   74.6280  221.0320 N   0  0  0  0  0  0  0  0  0  0  0  0
  138.0900   73.5480  221.3280 C   0  0  0  0  0  0  0  0  0  0  0  0
  136.9950   73.4120  220.6710 O   0  0  0  0  0  0  0  0  0  0  0  0
  138.3330   72.5190  222.3600 C   0  0  1  0  0  0  0  0  0  0  0  0
  137.1530   71.6580  222.4250 N   0  0  0  0  0  0  0  0  0  0  0  0
  139.5500   71.6890  221.9790 C   0  0  2  0  0  0  0  0  0  0  0  0
  139.2460   70.2510  221.7430 C   0  0  0  0  0  0  0  0  0  0  0  0
  139.1120   69.3930  222.9460 C   0  0  0  0  0  0  0  0  0  0  0  0
  139.6110   69.9620  224.1970 C   0  0  0  0  0  0  0  0  0  0  0  0
  139.3370   69.2980  225.3750 C   0  0  0  0  0  0  0  0  0  0  0  0
  139.7690   69.7650  226.5990 C   0  0  0  0  0  0  0  0  0  0  0  0
  140.4970   70.9300  226.6260 C   0  0  0  0  0  0  0  0  0  0  0  0
  141.0400   71.5130  228.1810 Cl  0  0  0  0  0  0  0  0  0  0  0  0
  140.7760   71.6000  225.4530 C   0  0  0  0  0  0  0  0  0  0  0  0
  140.3400   71.1310  224.2150 C   0  0  0  0  0  0  0  0  0  0  0  0
  140.6700   71.8880  223.0000 C   0  0  0  0  0  0  0  0  0  0  0  0
  138.5480   75.5570  219.9560 C   0  0  0  0  0  0  0  0  0  0  0  0
  138.1740   76.8150  220.7670 C   0  0  0  0  0  0  0  0  0  0  0  0
  137.6095   80.1739  225.1320 H   0  0  0  0  0  0  0  0  0  0  0  0
  138.8127   80.6279  223.8779 H   0  0  0  0  0  0  0  0  0  0  0  0
  137.1850   81.3878  223.8779 H   0  0  0  0  0  0  0  0  0  0  0  0
  137.1783   78.3893  223.7303 H   0  0  0  0  0  0  0  0  0  0  0  0
  136.2075   79.5913  222.8091 H   0  0  0  0  0  0  0  0  0  0  0  0
  140.3809   78.4093  224.3885 H   0  0  0  0  0  0  0  0  0  0  0  0
  142.4532   79.3669  225.2639 H   0  0  0  0  0  0  0  0  0  0  0  0
  143.9520   80.7323  223.8383 H   0  0  0  0  0  0  0  0  0  0  0  0
  143.2966   81.1132  221.4720 H   0  0  0  0  0  0  0  0  0  0  0  0
  141.2154   80.1576  220.5827 H   0  0  0  0  0  0  0  0  0  0  0  0
  139.9914   77.5203  220.3011 H   0  0  0  0  0  0  0  0  0  0  0  0
  141.4318   76.5819  221.2761 H   0  0  0  0  0  0  0  0  0  0  0  0
  140.4922   76.5849  222.8817 H   0  0  0  0  0  0  0  0  0  0  0  0
  141.0046   74.4614  221.1014 H   0  0  0  0  0  0  0  0  0  0  0  0
  140.1193   74.5347  222.7037 H   0  0  0  0  0  0  0  0  0  0  0  0
  138.5182   72.9915  223.3359 H   0  0  0  0  0  0  0  0  0  0  0  0
  136.9460   71.3450  221.4500 H   0  0  0  0  0  0  0  0  0  0  0  0
  136.3290   72.2020  222.7400 H   0  0  0  0  0  0  0  0  0  0  0  0
  139.8981   72.0615  221.0043 H   0  0  0  0  0  0  0  0  0  0  0  0
  138.2979   70.1973  221.1878 H   0  0  0  0  0  0  0  0  0  0  0  0
  140.1180   69.8559  221.2013 H   0  0  0  0  0  0  0  0  0  0  0  0
  138.0440   69.1672  223.0812 H   0  0  0  0  0  0  0  0  0  0  0  0
  139.7374   68.5092  222.7515 H   0  0  0  0  0  0  0  0  0  0  0  0
  138.7549   68.3654  225.3369 H   0  0  0  0  0  0  0  0  0  0  0  0
  139.5374   69.2206  227.5264 H   0  0  0  0  0  0  0  0  0  0  0  0
  141.3595   72.5315  225.4959 H   0  0  0  0  0  0  0  0  0  0  0  0
  140.7632   72.9566  223.2436 H   0  0  0  0  0  0  0  0  0  0  0  0
  141.6239   71.5316  222.5840 H   0  0  0  0  0  0  0  0  0  0  0  0
  139.3794   75.7565  219.2639 H   0  0  0  0  0  0  0  0  0  0  0  0
  137.7394   75.1784  219.3134 H   0  0  0  0  0  0  0  0  0  0  0  0
  137.6759   77.5584  220.1273 H   0  0  0  0  0  0  0  0  0  0  0  0
  137.4714   76.5971  221.5849 H   0  0  0  0  0  0  0  0  0  0  0  0
  1  2  1  0
  2  3  1  0
  3  4  2  0
  3  5  1  0
  5  6  1  0
  6  7  2  0
  7  8  1  0
  8  9  2  0
  9 10  1  0
 10 11  2  0
  5 12  1  0
 12 13  1  0
 13 14  1  0
 14 15  1  0
 15 16  1  0
 16 17  2  0
 16 18  1  0
 18 19  1  0
 18 20  1  0
 20 21  1  0
 21 22  1  0
 22 23  1  0
 23 24  2  0
 24 25  1  0
 25 26  2  0
 26 27  1  0
 26 28  1  0
 28 29  2  0
 29 30  1  0
 15 31  1  0
 31 32  1  0
 11  6  1  0
 32 12  1  0
 30 20  1  0
 29 23  1  0
  1 33  1  0
  1 34  1  0
  1 35  1  0
  2 36  1  0
  2 37  1  0
  7 38  1  0
  8 39  1  0
  9 40  1  0
 10 41  1  0
 11 42  1  0
 12 43  1  0
 13 44  1  0
 13 45  1  0
 14 46  1  0
 14 47  1  0
 18 48  1  1
 19 49  1  0
 19 50  1  0
 20 51  1  6
 21 52  1  0
 21 53  1  0
 22 54  1  0
 22 55  1  0
 24 56  1  0
 25 57  1  0
 28 58  1  0
 30 59  1  0
 30 60  1  0
 31 61  1  0
 31 62  1  0
 32 63  1  0
 32 64  1  0
M  END
>  <smiles>  (22) 
CCC(=O)N(c1ccccc1)C1CCN(C(=O)[C@@H](N)C2CCc3ccc(Cl)cc3C2)CC1

>  <score_type>  (22) 
oracle

>  <origin>  (22) 
autodockgpu

>  <m_score__min__energy>  (22) 
-8.5199999999999996

>  <m_primary>  (22) 
energy

>  <rmsd>  (22) 
7.741114125990314

>  <m_score__min__rmsd>  (22) 
7.741114125990314

>  <meeko>  (22) 
{"free_energy": -7.37, "intermolecular_energy": -9.46, "internal_energy": -2.55, "cluster_size": 11, "cluster_id": 4, "rank_in_cluster": 10}

>  <energy>  (22) 
-7.6

>  <cluster_rmsd>  (22) 
0.0

>  <cluster>  (22) 
3

$$$$

     RDKit          3D

 64 67  0  0  0  0  0  0  0  0999 V2000
  146.2240   73.3920  221.5200 C   0  0  0  0  0  0  0  0  0  0  0  0
  144.9930   73.5780  220.6000 C   0  0  0  0  0  0  0  0  0  0  0  0
  144.9400   72.4990  219.6210 C   0  0  0  0  0  0  0  0  0  0  0  0
  145.7790   72.6700  218.6350 O   0  0  0  0  0  0  0  0  0  0  0  0
  144.1480   71.3340  219.5740 N   0  0  0  0  0  0  0  0  0  0  0  0
  144.5660   70.0030  219.4160 C   0  0  0  0  0  0  0  0  0  0  0  0
  145.8760   69.7140  218.9900 C   0  0  0  0  0  0  0  0  0  0  0  0
  146.3220   68.4190  218.8140 C   0  0  0  0  0  0  0  0  0  0  0  0
  145.5130   67.3350  219.0460 C   0  0  0  0  0  0  0  0  0  0  0  0
  144.2340   67.5820  219.4610 C   0  0  0  0  0  0  0  0  0  0  0  0
  143.7860   68.8890  219.6370 C   0  0  0  0  0  0  0  0  0  0  0  0
  142.7050   71.5710  219.7180 C   0  0  0  0  0  0  0  0  0  0  0  0
  142.2000   71.6940  221.0970 C   0  0  0  0  0  0  0  0  0  0  0  0
  140.9980   72.5570  221.3210 C   0  0  0  0  0  0  0  0  0  0  0  0
  140.4800   73.1610  220.1320 N   0  0  0  0  0  0  0  0  0  0  0  0
  139.8840   74.4370  220.0300 C   0  0  0  0  0  0  0  0  0  0  0  0
  139.4750   74.8580  218.8860 O   0  0  0  0  0  0  0  0  0  0  0  0
  139.6770   75.3770  221.1520 C   0  0  1  0  0  0  0  0  0  0  0  0
  138.7910   74.7330  222.1220 N   0  0  0  0  0  0  0  0  0  0  0  0
  141.0130   75.6890  221.8100 C   0  0  2  0  0  0  0  0  0  0  0  0
  141.0680   77.0340  222.4460 C   0  0  0  0  0  0  0  0  0  0  0  0
  141.3090   78.1890  221.5450 C   0  0  0  0  0  0  0  0  0  0  0  0
  141.7900   77.8630  220.2040 C   0  0  0  0  0  0  0  0  0  0  0  0
  141.8420   78.8710  219.2630 C   0  0  0  0  0  0  0  0  0  0  0  0
  142.2830   78.6520  217.9740 C   0  0  0  0  0  0  0  0  0  0  0  0
  142.6800   77.3810  217.6350 C   0  0  0  0  0  0  0  0  0  0  0  0
  143.2360   77.1130  216.0000 Cl  0  0  0  0  0  0  0  0  0  0  0  0
  142.6300   76.3670  218.5680 C   0  0  0  0  0  0  0  0  0  0  0  0
  142.1850   76.5860  219.8710 C   0  0  0  0  0  0  0  0  0  0  0  0
  142.1570   75.4660  220.8220 C   0  0  0  0  0  0  0  0  0  0  0  0
  140.5950   72.3540  218.9000 C   0  0  0  0  0  0  0  0  0  0  0  0
  142.1150   72.4180  218.6380 C   0  0  0  0  0  0  0  0  0  0  0  0
  145.9061   73.4400  222.5720 H   0  0  0  0  0  0  0  0  0  0  0  0
  146.6861   72.4138  221.3209 H   0  0  0  0  0  0  0  0  0  0  0  0
  146.9545   74.1900  221.3209 H   0  0  0  0  0  0  0  0  0  0  0  0
  144.0769   73.5640  221.2087 H   0  0  0  0  0  0  0  0  0  0  0  0
  145.0746   74.5410  220.0747 H   0  0  0  0  0  0  0  0  0  0  0  0
  146.5668   70.5465  218.7909 H   0  0  0  0  0  0  0  0  0  0  0  0
  147.3559   68.2514  218.4780 H   0  0  0  0  0  0  0  0  0  0  0  0
  145.8793   66.3076  218.9036 H   0  0  0  0  0  0  0  0  0  0  0  0
  143.5527   66.7411  219.6576 H   0  0  0  0  0  0  0  0  0  0  0  0
  142.7492   69.0406  219.9719 H   0  0  0  0  0  0  0  0  0  0  0  0
  142.2238   70.6080  219.4919 H   0  0  0  0  0  0  0  0  0  0  0  0
  141.9481   70.6819  221.4466 H   0  0  0  0  0  0  0  0  0  0  0  0
  143.0099   72.1954  221.6471 H   0  0  0  0  0  0  0  0  0  0  0  0
  140.2061   71.9367  221.7660 H   0  0  0  0  0  0  0  0  0  0  0  0
  141.3168   73.3783  221.9797 H   0  0  0  0  0  0  0  0  0  0  0  0
  139.2325   76.3156  220.7894 H   0  0  0  0  0  0  0  0  0  0  0  0
  139.1750   74.9360  223.0720 H   0  0  0  0  0  0  0  0  0  0  0  0
  138.8210   73.7040  222.0060 H   0  0  0  0  0  0  0  0  0  0  0  0
  141.1312   74.9820  222.6443 H   0  0  0  0  0  0  0  0  0  0  0  0
  140.1066   77.2022  222.9534 H   0  0  0  0  0  0  0  0  0  0  0  0
  141.9412   77.0019  223.1142 H   0  0  0  0  0  0  0  0  0  0  0  0
  140.3613   78.7373  221.4391 H   0  0  0  0  0  0  0  0  0  0  0  0
  142.1142   78.7715  222.0166 H   0  0  0  0  0  0  0  0  0  0  0  0
  141.5211   79.8832  219.5502 H   0  0  0  0  0  0  0  0  0  0  0  0
  142.3158   79.4704  217.2398 H   0  0  0  0  0  0  0  0  0  0  0  0
  142.9505   75.3561  218.2758 H   0  0  0  0  0  0  0  0  0  0  0  0
  141.9978   74.5231  220.2784 H   0  0  0  0  0  0  0  0  0  0  0  0
  143.1132   75.4104  221.3630 H   0  0  0  0  0  0  0  0  0  0  0  0
  140.2576   71.3198  219.0630 H   0  0  0  0  0  0  0  0  0  0  0  0
  139.9780   72.7164  218.0646 H   0  0  0  0  0  0  0  0  0  0  0  0
  142.3580   72.0109  217.6454 H   0  0  0  0  0  0  0  0  0  0  0  0
  142.5030   73.4473  218.6482 H   0  0  0  0  0  0  0  0  0  0  0  0
  1  2  1  0
  2  3  1  0
  3  4  2  0
  3  5  1  0
  5  6  1  0
  6  7  2  0
  7  8  1  0
  8  9  2  0
  9 10  1  0
 10 11  2  0
  5 12  1  0
 12 13  1  0
 13 14  1  0
 14 15  1  0
 15 16  1  0
 16 17  2  0
 16 18  1  0
 18 19  1  0
 18 20  1  0
 20 21  1  0
 21 22  1  0
 22 23  1  0
 23 24  2  0
 24 25  1  0
 25 26  2  0
 26 27  1  0
 26 28  1  0
 28 29  2  0
 29 30  1  0
 15 31  1  0
 31 32  1  0
 11  6  1  0
 32 12  1  0
 30 20  1  0
 29 23  1  0
  1 33  1  0
  1 34  1  0
  1 35  1  0
  2 36  1  0
  2 37  1  0
  7 38  1  0
  8 39  1  0
  9 40  1  0
 10 41  1  0
 11 42  1  0
 12 43  1  0
 13 44  1  0
 13 45  1  0
 14 46  1  0
 14 47  1  0
 18 48  1  6
 19 49  1  0
 19 50  1  0
 20 51  1  1
 21 52  1  0
 21 53  1  0
 22 54  1  0
 22 55  1  0
 24 56  1  0
 25 57  1  0
 28 58  1  0
 30 59  1  0
 30 60  1  0
 31 61  1  0
 31 62  1  0
 32 63  1  0
 32 64  1  0
M  END
>  <smiles>  (23) 
CCC(=O)N(c1ccccc1)C1CCN(C(=O)[C@@H](N)C2CCc3ccc(Cl)cc3C2)CC1

>  <score_type>  (23) 
oracle

>  <origin>  (23) 
autodockgpu

>  <m_score__min__energy>  (23) 
-8.5199999999999996

>  <m_primary>  (23) 
energy

>  <rmsd>  (23) 
6.57133144187657

>  <m_score__min__rmsd>  (23) 
6.57133144187657

>  <meeko>  (23) 
{"free_energy": -7.31, "intermolecular_energy": -9.4, "internal_energy": -2.48, "cluster_size": 6, "cluster_id": 5, "rank_in_cluster": 6}

>  <energy>  (23) 
-7.59

>  <cluster_rmsd>  (23) 
0.32

>  <cluster>  (23) 
3

$$$$

     RDKit          3D

 64 67  0  0  0  0  0  0  0  0999 V2000
  137.4250   80.3250  223.9360 C   0  0  0  0  0  0  0  0  0  0  0  0
  137.1570   79.0510  223.0980 C   0  0  0  0  0  0  0  0  0  0  0  0
  138.1140   78.9710  222.0010 C   0  0  0  0  0  0  0  0  0  0  0  0
  137.6300   79.4220  220.8750 O   0  0  0  0  0  0  0  0  0  0  0  0
  139.4400   78.4970  221.9660 N   0  0  0  0  0  0  0  0  0  0  0  0
  140.6000   79.1140  222.4620 C   0  0  0  0  0  0  0  0  0  0  0  0
  141.4170   79.8810  221.6100 C   0  0  0  0  0  0  0  0  0  0  0  0
  142.5690   80.4960  222.0560 C   0  0  0  0  0  0  0  0  0  0  0  0
  142.9870   80.3960  223.3590 C   0  0  0  0  0  0  0  0  0  0  0  0
  142.2160   79.6580  224.2120 C   0  0  0  0  0  0  0  0  0  0  0  0
  141.0530   79.0380  223.7600 C   0  0  0  0  0  0  0  0  0  0  0  0
  139.6010   77.1810  221.3310 C   0  0  0  0  0  0  0  0  0  0  0  0
  140.5500   76.2580  221.9780 C   0  0  0  0  0  0  0  0  0  0  0  0
  140.2890   74.7900  221.8480 C   0  0  0  0  0  0  0  0  0  0  0  0
  139.1210   74.4680  221.0860 N   0  0  0  0  0  0  0  0  0  0  0  0
  138.2460   73.3810  221.3080 C   0  0  0  0  0  0  0  0  0  0  0  0
  137.2220   73.2240  220.5480 O   0  0  0  0  0  0  0  0  0  0  0  0
  138.3970   72.3670  222.3720 C   0  0  1  0  0  0  0  0  0  0  0  0
  137.1610   71.5880  222.4320 N   0  0  0  0  0  0  0  0  0  0  0  0
  139.5640   71.4480  222.0410 C   0  0  2  0  0  0  0  0  0  0  0  0
  139.1790   70.0170  221.9010 C   0  0  0  0  0  0  0  0  0  0  0  0
  139.0070   69.2460  223.1570 C   0  0  0  0  0  0  0  0  0  0  0  0
  139.5460   69.8670  224.3660 C   0  0  0  0  0  0  0  0  0  0  0  0
  139.2440   69.2970  225.5860 C   0  0  0  0  0  0  0  0  0  0  0  0
  139.7100   69.8170  226.7760 C   0  0  0  0  0  0  0  0  0  0  0  0
  140.5010   70.9400  226.7240 C   0  0  0  0  0  0  0  0  0  0  0  0
  141.0870   71.5910  228.2360 Cl  0  0  0  0  0  0  0  0  0  0  0  0
  140.8080   71.5160  225.5100 C   0  0  0  0  0  0  0  0  0  0  0  0
  140.3380   70.9930  224.3060 C   0  0  0  0  0  0  0  0  0  0  0  0
  140.7000   71.6500  223.0430 C   0  0  0  0  0  0  0  0  0  0  0  0
  138.8160   75.3790  219.9630 C   0  0  0  0  0  0  0  0  0  0  0  0
  138.3490   76.6420  220.7180 C   0  0  0  0  0  0  0  0  0  0  0  0
  137.3729   80.0774  225.0065 H   0  0  0  0  0  0  0  0  0  0  0  0
  138.4252   80.7165  223.6984 H   0  0  0  0  0  0  0  0  0  0  0  0
  136.6673   81.0863  223.6984 H   0  0  0  0  0  0  0  0  0  0  0  0
  137.2616   78.1634  223.7393 H   0  0  0  0  0  0  0  0  0  0  0  0
  136.1372   79.0939  222.6879 H   0  0  0  0  0  0  0  0  0  0  0  0
  141.1278   79.9937  220.5547 H   0  0  0  0  0  0  0  0  0  0  0  0
  143.1697   81.0836  221.3462 H   0  0  0  0  0  0  0  0  0  0  0  0
  143.9071   80.8908  223.7035 H   0  0  0  0  0  0  0  0  0  0  0  0
  142.5161   79.5524  225.2650 H   0  0  0  0  0  0  0  0  0  0  0  0
  140.4627   78.4542  224.4817 H   0  0  0  0  0  0  0  0  0  0  0  0
  140.1973   77.3616  220.4244 H   0  0  0  0  0  0  0  0  0  0  0  0
  141.5438   76.4545  221.5494 H   0  0  0  0  0  0  0  0  0  0  0  0
  140.4501   76.4646  223.0538 H   0  0  0  0  0  0  0  0  0  0  0  0
  141.1587   74.3268  221.3591 H   0  0  0  0  0  0  0  0  0  0  0  0
  140.1188   74.4074  222.8652 H   0  0  0  0  0  0  0  0  0  0  0  0
  138.5919   72.8529  223.3394 H   0  0  0  0  0  0  0  0  0  0  0  0
  136.9720   71.2350  221.4660 H   0  0  0  0  0  0  0  0  0  0  0  0
  136.3630   72.2000  222.6820 H   0  0  0  0  0  0  0  0  0  0  0  0
  139.9254   71.7366  221.0430 H   0  0  0  0  0  0  0  0  0  0  0  0
  138.2250   69.9807  221.3546 H   0  0  0  0  0  0  0  0  0  0  0  0
  140.0243   69.5401  221.3832 H   0  0  0  0  0  0  0  0  0  0  0  0
  137.9293   69.0883  223.3108 H   0  0  0  0  0  0  0  0  0  0  0  0
  139.5808   68.3179  223.0177 H   0  0  0  0  0  0  0  0  0  0  0  0
  138.6106   68.3980  225.6105 H   0  0  0  0  0  0  0  0  0  0  0  0
  139.4561   69.3470  227.7376 H   0  0  0  0  0  0  0  0  0  0  0  0
  141.4423   72.4145  225.4904 H   0  0  0  0  0  0  0  0  0  0  0  0
  140.8537   72.7254  223.2162 H   0  0  0  0  0  0  0  0  0  0  0  0
  141.6296   71.2146  222.6477 H   0  0  0  0  0  0  0  0  0  0  0  0
  139.7095   75.5810  219.3540 H   0  0  0  0  0  0  0  0  0  0  0  0
  138.0797   74.9829  219.2482 H   0  0  0  0  0  0  0  0  0  0  0  0
  137.9081   77.3721  220.0233 H   0  0  0  0  0  0  0  0  0  0  0  0
  137.5714   76.4251  221.4652 H   0  0  0  0  0  0  0  0  0  0  0  0
  1  2  1  0
  2  3  1  0
  3  4  2  0
  3  5  1  0
  5  6  1  0
  6  7  2  0
  7  8  1  0
  8  9  2  0
  9 10  1  0
 10 11  2  0
  5 12  1  0
 12 13  1  0
 13 14  1  0
 14 15  1  0
 15 16  1  0
 16 17  2  0
 16 18  1  0
 18 19  1  0
 18 20  1  0
 20 21  1  0
 21 22  1  0
 22 23  1  0
 23 24  2  0
 24 25  1  0
 25 26  2  0
 26 27  1  0
 26 28  1  0
 28 29  2  0
 29 30  1  0
 15 31  1  0
 31 32  1  0
 11  6  1  0
 32 12  1  0
 30 20  1  0
 29 23  1  0
  1 33  1  0
  1 34  1  0
  1 35  1  0
  2 36  1  0
  2 37  1  0
  7 38  1  0
  8 39  1  0
  9 40  1  0
 10 41  1  0
 11 42  1  0
 12 43  1  0
 13 44  1  0
 13 45  1  0
 14 46  1  0
 14 47  1  0
 18 48  1  1
 19 49  1  0
 19 50  1  0
 20 51  1  6
 21 52  1  0
 21 53  1  0
 22 54  1  0
 22 55  1  0
 24 56  1  0
 25 57  1  0
 28 58  1  0
 30 59  1  0
 30 60  1  0
 31 61  1  0
 31 62  1  0
 32 63  1  0
 32 64  1  0
M  END
>  <smiles>  (24) 
CCC(=O)N(c1ccccc1)C1CCN(C(=O)[C@@H](N)C2CCc3ccc(Cl)cc3C2)CC1

>  <score_type>  (24) 
oracle

>  <origin>  (24) 
autodockgpu

>  <m_score__min__energy>  (24) 
-8.5199999999999996

>  <m_primary>  (24) 
energy

>  <rmsd>  (24) 
7.855908398196711

>  <m_score__min__rmsd>  (24) 
7.855908398196711

>  <meeko>  (24) 
{"free_energy": -7.39, "intermolecular_energy": -9.48, "internal_energy": -2.55, "cluster_size": 11, "cluster_id": 4, "rank_in_cluster": 7}

>  <energy>  (24) 
-7.1

>  <cluster_rmsd>  (24) 
0.73

>  <cluster>  (24) 
3

$$$$

     RDKit          3D

 64 67  0  0  0  0  0  0  0  0999 V2000
  137.7830   81.2820  222.7350 C   0  0  0  0  0  0  0  0  0  0  0  0
  137.4120   80.0450  221.8810 C   0  0  0  0  0  0  0  0  0  0  0  0
  138.1300   78.8740  222.3700 C   0  0  0  0  0  0  0  0  0  0  0  0
  137.3810   78.0900  223.0990 O   0  0  0  0  0  0  0  0  0  0  0  0
  139.4670   78.4680  222.1860 N   0  0  0  0  0  0  0  0  0  0  0  0
  140.6420   79.1330  222.5720 C   0  0  0  0  0  0  0  0  0  0  0  0
  141.4060   79.8360  221.6210 C   0  0  0  0  0  0  0  0  0  0  0  0
  142.5710   80.4940  221.9590 C   0  0  0  0  0  0  0  0  0  0  0  0
  143.0540   80.5040  223.2440 C   0  0  0  0  0  0  0  0  0  0  0  0
  142.3340   79.8310  224.1910 C   0  0  0  0  0  0  0  0  0  0  0  0
  141.1580   79.1660  223.8480 C   0  0  0  0  0  0  0  0  0  0  0  0
  139.6230   77.1740  221.5070 C   0  0  0  0  0  0  0  0  0  0  0  0
  140.5580   76.2210  222.1300 C   0  0  0  0  0  0  0  0  0  0  0  0
  140.2860   74.7600  221.9470 C   0  0  0  0  0  0  0  0  0  0  0  0
  139.1220   74.4750  221.1640 N   0  0  0  0  0  0  0  0  0  0  0  0
  138.2370   73.3890  221.3410 C   0  0  0  0  0  0  0  0  0  0  0  0
  137.2180   73.2670  220.5670 O   0  0  0  0  0  0  0  0  0  0  0  0
  138.3700   72.3360  222.3710 C   0  0  1  0  0  0  0  0  0  0  0  0
  137.1410   71.5440  222.3670 N   0  0  0  0  0  0  0  0  0  0  0  0
  139.5550   71.4420  222.0380 C   0  0  2  0  0  0  0  0  0  0  0  0
  139.2000   70.0030  221.8990 C   0  0  0  0  0  0  0  0  0  0  0  0
  139.0460   69.2300  223.1570 C   0  0  0  0  0  0  0  0  0  0  0  0
  139.5740   69.8630  224.3640 C   0  0  0  0  0  0  0  0  0  0  0  0
  139.2870   69.2880  225.5850 C   0  0  0  0  0  0  0  0  0  0  0  0
  139.7440   69.8180  226.7740 C   0  0  0  0  0  0  0  0  0  0  0  0
  140.5120   70.9570  226.7200 C   0  0  0  0  0  0  0  0  0  0  0  0
  141.0870   71.6220  228.2300 Cl  0  0  0  0  0  0  0  0  0  0  0  0
  140.8040   71.5390  225.5040 C   0  0  0  0  0  0  0  0  0  0  0  0
  140.3430   71.0050  224.3010 C   0  0  0  0  0  0  0  0  0  0  0  0
  140.6880   71.6690  223.0370 C   0  0  0  0  0  0  0  0  0  0  0  0
  138.8350   75.4270  220.0710 C   0  0  0  0  0  0  0  0  0  0  0  0
  138.3720   76.6670  220.8650 C   0  0  0  0  0  0  0  0  0  0  0  0
  137.7065   81.0270  223.8023 H   0  0  0  0  0  0  0  0  0  0  0  0
  138.8133   81.5909  222.5047 H   0  0  0  0  0  0  0  0  0  0  0  0
  137.0928   82.1069  222.5047 H   0  0  0  0  0  0  0  0  0  0  0  0
  136.3291   79.8647  221.9505 H   0  0  0  0  0  0  0  0  0  0  0  0
  137.6904   80.2303  220.8331 H   0  0  0  0  0  0  0  0  0  0  0  0
  141.0636   79.8615  220.5760 H   0  0  0  0  0  0  0  0  0  0  0  0
  143.1295   81.0266  221.1751 H   0  0  0  0  0  0  0  0  0  0  0  0
  143.9837   81.0327  223.5013 H   0  0  0  0  0  0  0  0  0  0  0  0
  142.6857   79.8140  225.2331 H   0  0  0  0  0  0  0  0  0  0  0  0
  140.6108   78.6372  224.6424 H   0  0  0  0  0  0  0  0  0  0  0  0
  140.2288   77.3813  220.6126 H   0  0  0  0  0  0  0  0  0  0  0  0
  141.5573   76.4235  221.7173 H   0  0  0  0  0  0  0  0  0  0  0  0
  140.4497   76.3911  223.2114 H   0  0  0  0  0  0  0  0  0  0  0  0
  141.1561   74.3064  221.4499 H   0  0  0  0  0  0  0  0  0  0  0  0
  140.1037   74.3438  222.9488 H   0  0  0  0  0  0  0  0  0  0  0  0
  138.5335   72.7862  223.3613 H   0  0  0  0  0  0  0  0  0  0  0  0
  136.9860   71.2200  221.3860 H   0  0  0  0  0  0  0  0  0  0  0  0
  136.3290   72.1400  222.6120 H   0  0  0  0  0  0  0  0  0  0  0  0
  139.9083   71.7373  221.0390 H   0  0  0  0  0  0  0  0  0  0  0  0
  138.2463   69.9461  221.3539 H   0  0  0  0  0  0  0  0  0  0  0  0
  140.0539   69.5433  221.3798 H   0  0  0  0  0  0  0  0  0  0  0  0
  137.9720   69.0504  223.3129 H   0  0  0  0  0  0  0  0  0  0  0  0
  139.6387   68.3138  223.0178 H   0  0  0  0  0  0  0  0  0  0  0  0
  138.6728   68.3758  225.6113 H   0  0  0  0  0  0  0  0  0  0  0  0
  139.5012   69.3435  227.7362 H   0  0  0  0  0  0  0  0  0  0  0  0
  141.4185   72.4511  225.4825 H   0  0  0  0  0  0  0  0  0  0  0  0
  140.8187   72.7475  223.2093 H   0  0  0  0  0  0  0  0  0  0  0  0
  141.6260   71.2537  222.6399 H   0  0  0  0  0  0  0  0  0  0  0  0
  139.7357   75.6421  219.4773 H   0  0  0  0  0  0  0  0  0  0  0  0
  138.1018   75.0624  219.3365 H   0  0  0  0  0  0  0  0  0  0  0  0
  137.9433   77.4243  220.1922 H   0  0  0  0  0  0  0  0  0  0  0  0
  137.5861   76.4311  221.5976 H   0  0  0  0  0  0  0  0  0  0  0  0
  1  2  1  0
  2  3  1  0
  3  4  2  0
  3  5  1  0
  5  6  1  0
  6  7  2  0
  7  8  1  0
  8  9  2  0
  9 10  1  0
 10 11  2  0
  5 12  1  0
 12 13  1  0
 13 14  1  0
 14 15  1  0
 15 16  1  0
 16 17  2  0
 16 18  1  0
 18 19  1  0
 18 20  1  0
 20 21  1  0
 21 22  1  0
 22 23  1  0
 23 24  2  0
 24 25  1  0
 25 26  2  0
 26 27  1  0
 26 28  1  0
 28 29  2  0
 29 30  1  0
 15 31  1  0
 31 32  1  0
 11  6  1  0
 32 12  1  0
 30 20  1  0
 29 23  1  0
  1 33  1  0
  1 34  1  0
  1 35  1  0
  2 36  1  0
  2 37  1  0
  7 38  1  0
  8 39  1  0
  9 40  1  0
 10 41  1  0
 11 42  1  0
 12 43  1  0
 13 44  1  0
 13 45  1  0
 14 46  1  0
 14 47  1  0
 18 48  1  1
 19 49  1  0
 19 50  1  0
 20 51  1  6
 21 52  1  0
 21 53  1  0
 22 54  1  0
 22 55  1  0
 24 56  1  0
 25 57  1  0
 28 58  1  0
 30 59  1  0
 30 60  1  0
 31 61  1  0
 31 62  1  0
 32 63  1  0
 32 64  1  0
M  END
>  <smiles>  (25) 
CCC(=O)N(c1ccccc1)C1CCN(C(=O)[C@@H](N)C2CCc3ccc(Cl)cc3C2)CC1

>  <score_type>  (25) 
oracle

>  <origin>  (25) 
autodockgpu

>  <m_score__min__energy>  (25) 
-8.5199999999999996

>  <m_primary>  (25) 
energy

>  <rmsd>  (25) 
7.86514830063611

>  <m_score__min__rmsd>  (25) 
7.86514830063611

>  <meeko>  (25) 
{"free_energy": -7.41, "intermolecular_energy": -9.49, "internal_energy": -2.56, "cluster_size": 11, "cluster_id": 4, "rank_in_cluster": 5}

>  <energy>  (25) 
-7.53

>  <cluster_rmsd>  (25) 
0.0

>  <cluster>  (25) 
4

$$$$

     RDKit          3D

 64 67  0  0  0  0  0  0  0  0999 V2000
  136.3580   68.9650  223.3740 C   0  0  0  0  0  0  0  0  0  0  0  0
  137.7050   68.2770  223.0420 C   0  0  0  0  0  0  0  0  0  0  0  0
  138.7310   68.7230  223.9770 C   0  0  0  0  0  0  0  0  0  0  0  0
  139.1810   67.7560  224.7320 O   0  0  0  0  0  0  0  0  0  0  0  0
  139.2970   69.9960  224.1890 N   0  0  0  0  0  0  0  0  0  0  0  0
  139.8590   70.5150  225.3660 C   0  0  0  0  0  0  0  0  0  0  0  0
  139.5710   69.9260  226.6120 C   0  0  0  0  0  0  0  0  0  0  0  0
  140.0950   70.4130  227.7920 C   0  0  0  0  0  0  0  0  0  0  0  0
  140.9320   71.5010  227.8210 C   0  0  0  0  0  0  0  0  0  0  0  0
  141.2310   72.0950  226.6270 C   0  0  0  0  0  0  0  0  0  0  0  0
  140.7000   71.6030  225.4370 C   0  0  0  0  0  0  0  0  0  0  0  0
  139.2930   70.8690  223.0060 C   0  0  0  0  0  0  0  0  0  0  0  0
  138.2050   71.8600  222.9330 C   0  0  0  0  0  0  0  0  0  0  0  0
  138.4810   73.1420  222.2110 C   0  0  0  0  0  0  0  0  0  0  0  0
  139.8020   73.2350  221.6670 N   0  0  0  0  0  0  0  0  0  0  0  0
  140.5840   74.4060  221.5580 C   0  0  0  0  0  0  0  0  0  0  0  0
  141.7660   74.3350  221.0580 O   0  0  0  0  0  0  0  0  0  0  0  0
  140.1620   75.7580  221.9800 C   0  0  1  0  0  0  0  0  0  0  0  0
  141.3580   76.5000  222.3790 N   0  0  0  0  0  0  0  0  0  0  0  0
  139.4850   76.4680  220.8180 C   0  0  2  0  0  0  0  0  0  0  0  0
  140.4200   77.2560  219.9690 C   0  0  0  0  0  0  0  0  0  0  0  0
  140.8170   78.5920  220.4770 C   0  0  0  0  0  0  0  0  0  0  0  0
  140.0060   79.1270  221.5700 C   0  0  0  0  0  0  0  0  0  0  0  0
  140.4430   80.2670  222.2120 C   0  0  0  0  0  0  0  0  0  0  0  0
  139.7410   80.8390  223.2530 C   0  0  0  0  0  0  0  0  0  0  0  0
  138.5690   80.2390  223.6480 C   0  0  0  0  0  0  0  0  0  0  0  0
  137.6860   80.9700  224.9660 Cl  0  0  0  0  0  0  0  0  0  0  0  0
  138.1250   79.0990  223.0110 C   0  0  0  0  0  0  0  0  0  0  0  0
  138.8330   78.5190  221.9590 C   0  0  0  0  0  0  0  0  0  0  0  0
  138.3090   77.3050  221.3190 C   0  0  0  0  0  0  0  0  0  0  0  0
  140.3870   71.9680  221.1810 C   0  0  0  0  0  0  0  0  0  0  0  0
  140.6550   71.2310  222.5100 C   0  0  0  0  0  0  0  0  0  0  0  0
  136.2371   69.0268  224.4656 H   0  0  0  0  0  0  0  0  0  0  0  0
  136.3486   69.9783  222.9461 H   0  0  0  0  0  0  0  0  0  0  0  0
  135.5315   68.3786  222.9461 H   0  0  0  0  0  0  0  0  0  0  0  0
  137.5874   67.1862  223.1219 H   0  0  0  0  0  0  0  0  0  0  0  0
  138.0062   68.5433  222.0181 H   0  0  0  0  0  0  0  0  0  0  0  0
  138.9071   69.0496  226.6459 H   0  0  0  0  0  0  0  0  0  0  0  0
  139.8344   69.9148  228.7375 H   0  0  0  0  0  0  0  0  0  0  0  0
  141.3454   71.8795  228.7675 H   0  0  0  0  0  0  0  0  0  0  0  0
  141.8973   72.9700  226.6056 H   0  0  0  0  0  0  0  0  0  0  0  0
  140.9679   72.1130  224.4999 H   0  0  0  0  0  0  0  0  0  0  0  0
  138.9471   70.2378  222.1742 H   0  0  0  0  0  0  0  0  0  0  0  0
  137.3533   71.3770  222.4317 H   0  0  0  0  0  0  0  0  0  0  0  0
  138.0305   72.1599  223.9769 H   0  0  0  0  0  0  0  0  0  0  0  0
  137.7603   73.2353  221.3853 H   0  0  0  0  0  0  0  0  0  0  0  0
  138.3860   73.9495  222.9519 H   0  0  0  0  0  0  0  0  0  0  0  0
  139.4523   75.6941  222.8180 H   0  0  0  0  0  0  0  0  0  0  0  0
  142.0340   76.4440  221.5840 H   0  0  0  0  0  0  0  0  0  0  0  0
  141.8140   76.0370  223.1860 H   0  0  0  0  0  0  0  0  0  0  0  0
  139.0959   75.6859  220.1495 H   0  0  0  0  0  0  0  0  0  0  0  0
  141.3369   76.6615  219.8428 H   0  0  0  0  0  0  0  0  0  0  0  0
  139.8682   77.4533  219.0381 H   0  0  0  0  0  0  0  0  0  0  0  0
  141.8561   78.5227  220.8311 H   0  0  0  0  0  0  0  0  0  0  0  0
  140.6751   79.2849  219.6345 H   0  0  0  0  0  0  0  0  0  0  0  0
  141.3823   80.7356  221.8831 H   0  0  0  0  0  0  0  0  0  0  0  0
  140.1082   81.7480  223.7519 H   0  0  0  0  0  0  0  0  0  0  0  0
  137.1850   78.6338  223.3426 H   0  0  0  0  0  0  0  0  0  0  0  0
  137.7258   76.7242  222.0488 H   0  0  0  0  0  0  0  0  0  0  0  0
  137.6572   77.5776  220.4759 H   0  0  0  0  0  0  0  0  0  0  0  0
  139.6782   71.4134  220.5485 H   0  0  0  0  0  0  0  0  0  0  0  0
  141.2779   72.0959  220.5486 H   0  0  0  0  0  0  0  0  0  0  0  0
  141.2617   70.3291  222.3411 H   0  0  0  0  0  0  0  0  0  0  0  0
  141.2166   71.8461  223.2285 H   0  0  0  0  0  0  0  0  0  0  0  0
  1  2  1  0
  2  3  1  0
  3  4  2  0
  3  5  1  0
  5  6  1  0
  6  7  2  0
  7  8  1  0
  8  9  2  0
  9 10  1  0
 10 11  2  0
  5 12  1  0
 12 13  1  0
 13 14  1  0
 14 15  1  0
 15 16  1  0
 16 17  2  0
 16 18  1  0
 18 19  1  0
 18 20  1  0
 20 21  1  0
 21 22  1  0
 22 23  1  0
 23 24  2  0
 24 25  1  0
 25 26  2  0
 26 27  1  0
 26 28  1  0
 28 29  2  0
 29 30  1  0
 15 31  1  0
 31 32  1  0
 11  6  1  0
 32 12  1  0
 30 20  1  0
 29 23  1  0
  1 33  1  0
  1 34  1  0
  1 35  1  0
  2 36  1  0
  2 37  1  0
  7 38  1  0
  8 39  1  0
  9 40  1  0
 10 41  1  0
 11 42  1  0
 12 43  1  0
 13 44  1  0
 13 45  1  0
 14 46  1  0
 14 47  1  0
 18 48  1  1
 19 49  1  0
 19 50  1  0
 20 51  1  6
 21 52  1  0
 21 53  1  0
 22 54  1  0
 22 55  1  0
 24 56  1  0
 25 57  1  0
 28 58  1  0
 30 59  1  0
 30 60  1  0
 31 61  1  0
 31 62  1  0
 32 63  1  0
 32 64  1  0
M  END
>  <smiles>  (26) 
CCC(=O)N(c1ccccc1)C1CCN(C(=O)[C@@H](N)C2CCc3ccc(Cl)cc3C2)CC1

>  <score_type>  (26) 
oracle

>  <origin>  (26) 
autodockgpu

>  <m_score__min__energy>  (26) 
-8.5199999999999996

>  <m_primary>  (26) 
energy

>  <rmsd>  (26) 
5.55569365555488

>  <m_score__min__rmsd>  (26) 
5.55569365555488

>  <meeko>  (26) 
{"free_energy": -8.35, "intermolecular_energy": -10.44, "internal_energy": -2.21, "cluster_size": 16, "cluster_id": 1, "rank_in_cluster": 4}

>  <energy>  (26) 
-7.51

>  <cluster_rmsd>  (26) 
0.28

>  <cluster>  (26) 
4

$$$$

     RDKit          3D

 64 67  0  0  0  0  0  0  0  0999 V2000
  137.5550   80.3350  223.9890 C   0  0  0  0  0  0  0  0  0  0  0  0
  137.1600   79.1310  223.0990 C   0  0  0  0  0  0  0  0  0  0  0  0
  138.1060   79.0000  221.9970 C   0  0  0  0  0  0  0  0  0  0  0  0
  137.6130   79.4040  220.8570 O   0  0  0  0  0  0  0  0  0  0  0  0
  139.4300   78.5190  221.9700 N   0  0  0  0  0  0  0  0  0  0  0  0
  140.5900   79.1320  222.4670 C   0  0  0  0  0  0  0  0  0  0  0  0
  141.4120   79.8960  221.6160 C   0  0  0  0  0  0  0  0  0  0  0  0
  142.5650   80.5070  222.0640 C   0  0  0  0  0  0  0  0  0  0  0  0
  142.9810   80.4080  223.3680 C   0  0  0  0  0  0  0  0  0  0  0  0
  142.2040   79.6730  224.2200 C   0  0  0  0  0  0  0  0  0  0  0  0
  141.0410   79.0560  223.7660 C   0  0  0  0  0  0  0  0  0  0  0  0
  139.5870   77.1990  221.3410 C   0  0  0  0  0  0  0  0  0  0  0  0
  140.5440   76.2820  221.9850 C   0  0  0  0  0  0  0  0  0  0  0  0
  140.2830   74.8130  221.8670 C   0  0  0  0  0  0  0  0  0  0  0  0
  139.1090   74.4840  221.1180 N   0  0  0  0  0  0  0  0  0  0  0  0
  138.2390   73.3970  221.3560 C   0  0  0  0  0  0  0  0  0  0  0  0
  137.2070   73.2340  220.6070 O   0  0  0  0  0  0  0  0  0  0  0  0
  138.4010   72.3900  222.4250 C   0  0  1  0  0  0  0  0  0  0  0  0
  137.1700   71.6050  222.4970 N   0  0  0  0  0  0  0  0  0  0  0  0
  139.5710   71.4750  222.0920 C   0  0  2  0  0  0  0  0  0  0  0  0
  139.1890   70.0450  221.9390 C   0  0  0  0  0  0  0  0  0  0  0  0
  139.0130   69.2650  223.1890 C   0  0  0  0  0  0  0  0  0  0  0  0
  139.5460   69.8770  224.4050 C   0  0  0  0  0  0  0  0  0  0  0  0
  139.2390   69.2970  225.6190 C   0  0  0  0  0  0  0  0  0  0  0  0
  139.6990   69.8080  226.8150 C   0  0  0  0  0  0  0  0  0  0  0  0
  140.4890   70.9330  226.7750 C   0  0  0  0  0  0  0  0  0  0  0  0
  141.0670   71.5730  228.2940 Cl  0  0  0  0  0  0  0  0  0  0  0  0
  140.8000   71.5190  225.5660 C   0  0  0  0  0  0  0  0  0  0  0  0
  140.3360   71.0040  224.3570 C   0  0  0  0  0  0  0  0  0  0  0  0
  140.7030   71.6710  223.1000 C   0  0  0  0  0  0  0  0  0  0  0  0
  138.7910   75.3870  219.9930 C   0  0  0  0  0  0  0  0  0  0  0  0
  138.3300   76.6540  220.7440 C   0  0  0  0  0  0  0  0  0  0  0  0
  137.4627   80.0537  225.0484 H   0  0  0  0  0  0  0  0  0  0  0  0
  138.5948   80.6233  223.7754 H   0  0  0  0  0  0  0  0  0  0  0  0
  136.8880   81.1833  223.7754 H   0  0  0  0  0  0  0  0  0  0  0  0
  137.1725   78.2113  223.7023 H   0  0  0  0  0  0  0  0  0  0  0  0
  136.1506   79.2947  222.6936 H   0  0  0  0  0  0  0  0  0  0  0  0
  141.1255   80.0092  220.5600 H   0  0  0  0  0  0  0  0  0  0  0  0
  143.1692   81.0913  221.3544 H   0  0  0  0  0  0  0  0  0  0  0  0
  143.9021   80.8999  223.7138 H   0  0  0  0  0  0  0  0  0  0  0  0
  142.5004   79.5681  225.2741 H   0  0  0  0  0  0  0  0  0  0  0  0
  140.4481   78.4740  224.4870 H   0  0  0  0  0  0  0  0  0  0  0  0
  140.1733   77.3746  220.4270 H   0  0  0  0  0  0  0  0  0  0  0  0
  141.5333   76.4768  221.5453 H   0  0  0  0  0  0  0  0  0  0  0  0
  140.4553   76.4959  223.0604 H   0  0  0  0  0  0  0  0  0  0  0  0
  141.1488   74.3474  221.3734 H   0  0  0  0  0  0  0  0  0  0  0  0
  140.1218   74.4376  222.8883 H   0  0  0  0  0  0  0  0  0  0  0  0
  138.5986   72.8826  223.3885 H   0  0  0  0  0  0  0  0  0  0  0  0
  136.9770   71.2460  221.5350 H   0  0  0  0  0  0  0  0  0  0  0  0
  136.3710   72.2140  222.7500 H   0  0  0  0  0  0  0  0  0  0  0  0
  139.9360   71.7720  221.0977 H   0  0  0  0  0  0  0  0  0  0  0  0
  138.2374   70.0113  221.3882 H   0  0  0  0  0  0  0  0  0  0  0  0
  140.0367   69.5731  221.4206 H   0  0  0  0  0  0  0  0  0  0  0  0
  137.9348   69.1049  223.3372 H   0  0  0  0  0  0  0  0  0  0  0  0
  139.5891   68.3390  223.0452 H   0  0  0  0  0  0  0  0  0  0  0  0
  138.6064   68.3972  225.6335 H   0  0  0  0  0  0  0  0  0  0  0  0
  139.4417   69.3301  227.7717 H   0  0  0  0  0  0  0  0  0  0  0  0
  141.4326   72.4189  225.5556 H   0  0  0  0  0  0  0  0  0  0  0  0
  140.8548   72.7452  223.2817 H   0  0  0  0  0  0  0  0  0  0  0  0
  141.6348   71.2398  222.7053 H   0  0  0  0  0  0  0  0  0  0  0  0
  139.6778   75.5863  219.3734 H   0  0  0  0  0  0  0  0  0  0  0  0
  138.0478   74.9851  219.2887 H   0  0  0  0  0  0  0  0  0  0  0  0
  137.8812   77.3788  220.0489 H   0  0  0  0  0  0  0  0  0  0  0  0
  137.5603   76.4409  221.5004 H   0  0  0  0  0  0  0  0  0  0  0  0
  1  2  1  0
  2  3  1  0
  3  4  2  0
  3  5  1  0
  5  6  1  0
  6  7  2  0
  7  8  1  0
  8  9  2  0
  9 10  1  0
 10 11  2  0
  5 12  1  0
 12 13  1  0
 13 14  1  0
 14 15  1  0
 15 16  1  0
 16 17  2  0
 16 18  1  0
 18 19  1  0
 18 20  1  0
 20 21  1  0
 21 22  1  0
 22 23  1  0
 23 24  2  0
 24 25  1  0
 25 26  2  0
 26 27  1  0
 26 28  1  0
 28 29  2  0
 29 30  1  0
 15 31  1  0
 31 32  1  0
 11  6  1  0
 32 12  1  0
 30 20  1  0
 29 23  1  0
  1 33  1  0
  1 34  1  0
  1 35  1  0
  2 36  1  0
  2 37  1  0
  7 38  1  0
  8 39  1  0
  9 40  1  0
 10 41  1  0
 11 42  1  0
 12 43  1  0
 13 44  1  0
 13 45  1  0
 14 46  1  0
 14 47  1  0
 18 48  1  1
 19 49  1  0
 19 50  1  0
 20 51  1  6
 21 52  1  0
 21 53  1  0
 22 54  1  0
 22 55  1  0
 24 56  1  0
 25 57  1  0
 28 58  1  0
 30 59  1  0
 30 60  1  0
 31 61  1  0
 31 62  1  0
 32 63  1  0
 32 64  1  0
M  END
>  <smiles>  (27) 
CCC(=O)N(c1ccccc1)C1CCN(C(=O)[C@@H](N)C2CCc3ccc(Cl)cc3C2)CC1

>  <score_type>  (27) 
oracle

>  <origin>  (27) 
autodockgpu

>  <m_score__min__energy>  (27) 
-8.5199999999999996

>  <m_primary>  (27) 
energy

>  <rmsd>  (27) 
7.85955606841908

>  <m_score__min__rmsd>  (27) 
7.85955606841908

>  <meeko>  (27) 
{"free_energy": -7.41, "intermolecular_energy": -9.5, "internal_energy": -2.53, "cluster_size": 11, "cluster_id": 4, "rank_in_cluster": 4}

>  <energy>  (27) 
-7.49

>  <cluster_rmsd>  (27) 
0.28

>  <cluster>  (27) 
4

$$$$

     RDKit          3D

 64 67  0  0  0  0  0  0  0  0999 V2000
  146.3310   73.3750  221.5970 C   0  0  0  0  0  0  0  0  0  0  0  0
  145.1060   73.5560  220.6680 C   0  0  0  0  0  0  0  0  0  0  0  0
  145.1080   72.5220  219.6400 C   0  0  0  0  0  0  0  0  0  0  0  0
  145.9500   72.7720  218.6730 O   0  0  0  0  0  0  0  0  0  0  0  0
  144.3660   71.3290  219.5290 N   0  0  0  0  0  0  0  0  0  0  0  0
  144.8400   70.0240  219.3210 C   0  0  0  0  0  0  0  0  0  0  0  0
  145.8530   69.7780  218.3740 C   0  0  0  0  0  0  0  0  0  0  0  0
  146.3400   68.5090  218.1330 C   0  0  0  0  0  0  0  0  0  0  0  0
  145.8650   67.4090  218.8040 C   0  0  0  0  0  0  0  0  0  0  0  0
  144.8810   67.6150  219.7290 C   0  0  0  0  0  0  0  0  0  0  0  0
  144.3900   68.8970  219.9710 C   0  0  0  0  0  0  0  0  0  0  0  0
  142.9120   71.5000  219.6610 C   0  0  0  0  0  0  0  0  0  0  0  0
  142.3890   71.5850  221.0350 C   0  0  0  0  0  0  0  0  0  0  0  0
  141.1470   72.3920  221.2570 C   0  0  0  0  0  0  0  0  0  0  0  0
  140.6150   72.9860  220.0690 N   0  0  0  0  0  0  0  0  0  0  0  0
  139.9650   74.2360  219.9750 C   0  0  0  0  0  0  0  0  0  0  0  0
  139.5490   74.6510  218.8320 O   0  0  0  0  0  0  0  0  0  0  0  0
  139.7050   75.1520  221.1050 C   0  0  1  0  0  0  0  0  0  0  0  0
  138.8140   74.4700  222.0440 N   0  0  0  0  0  0  0  0  0  0  0  0
  141.0160   75.4910  221.8000 C   0  0  2  0  0  0  0  0  0  0  0  0
  141.0330   76.8430  222.4220 C   0  0  0  0  0  0  0  0  0  0  0  0
  141.2850   77.9910  221.5160 C   0  0  0  0  0  0  0  0  0  0  0  0
  141.8110   77.6570  220.1940 C   0  0  0  0  0  0  0  0  0  0  0  0
  141.8790   78.6560  219.2440 C   0  0  0  0  0  0  0  0  0  0  0  0
  142.3620   78.4290  217.9710 C   0  0  0  0  0  0  0  0  0  0  0  0
  142.7860   77.1600  217.6590 C   0  0  0  0  0  0  0  0  0  0  0  0
  143.3960   76.8810  216.0450 Cl  0  0  0  0  0  0  0  0  0  0  0  0
  142.7220   76.1550  218.6010 C   0  0  0  0  0  0  0  0  0  0  0  0
  142.2350   76.3820  219.8880 C   0  0  0  0  0  0  0  0  0  0  0  0
  142.1920   75.2730  220.8500 C   0  0  0  0  0  0  0  0  0  0  0  0
  140.7780   72.1990  218.8290 C   0  0  0  0  0  0  0  0  0  0  0  0
  142.2960   72.3330  218.5840 C   0  0  0  0  0  0  0  0  0  0  0  0
  146.0054   73.4231  222.6466 H   0  0  0  0  0  0  0  0  0  0  0  0
  146.7977   72.3981  221.4023 H   0  0  0  0  0  0  0  0  0  0  0  0
  147.0603   74.1751  221.4023 H   0  0  0  0  0  0  0  0  0  0  0  0
  144.1831   73.4789  221.2616 H   0  0  0  0  0  0  0  0  0  0  0  0
  145.1571   74.5447  220.1885 H   0  0  0  0  0  0  0  0  0  0  0  0
  146.2696   70.6243  217.8081 H   0  0  0  0  0  0  0  0  0  0  0  0
  147.1319   68.3750  217.3813 H   0  0  0  0  0  0  0  0  0  0  0  0
  146.2610   66.4023  218.6047 H   0  0  0  0  0  0  0  0  0  0  0  0
  144.4721   66.7607  220.2884 H   0  0  0  0  0  0  0  0  0  0  0  0
  143.5974   69.0149  220.7246 H   0  0  0  0  0  0  0  0  0  0  0  0
  142.4759   70.5193  219.4200 H   0  0  0  0  0  0  0  0  0  0  0  0
  142.1788   70.5588  221.3709 H   0  0  0  0  0  0  0  0  0  0  0  0
  143.1706   72.1158  221.5983 H   0  0  0  0  0  0  0  0  0  0  0  0
  140.3789   71.7323  221.6869 H   0  0  0  0  0  0  0  0  0  0  0  0
  141.4222   73.2186  221.9286 H   0  0  0  0  0  0  0  0  0  0  0  0
  139.2430   76.0831  220.7451 H   0  0  0  0  0  0  0  0  0  0  0  0
  138.0080   75.1100  222.2230 H   0  0  0  0  0  0  0  0  0  0  0  0
  139.2900   74.3340  222.9540 H   0  0  0  0  0  0  0  0  0  0  0  0
  141.1184   74.7956  222.6461 H   0  0  0  0  0  0  0  0  0  0  0  0
  140.0544   77.0030  222.8983 H   0  0  0  0  0  0  0  0  0  0  0  0
  141.8859   76.8306  223.1166 H   0  0  0  0  0  0  0  0  0  0  0  0
  140.3334   78.5245  221.3752 H   0  0  0  0  0  0  0  0  0  0  0  0
  142.0672   78.5902  222.0050 H   0  0  0  0  0  0  0  0  0  0  0  0
  141.5368   79.6669  219.5103 H   0  0  0  0  0  0  0  0  0  0  0  0
  142.4061   79.2397  217.2288 H   0  0  0  0  0  0  0  0  0  0  0  0
  143.0648   75.1456  218.3297 H   0  0  0  0  0  0  0  0  0  0  0  0
  142.0618   74.3221  220.3125 H   0  0  0  0  0  0  0  0  0  0  0  0
  143.1317   75.2365  221.4206 H   0  0  0  0  0  0  0  0  0  0  0  0
  140.4850   71.1491  218.9768 H   0  0  0  0  0  0  0  0  0  0  0  0
  140.1540   72.5435  217.9912 H   0  0  0  0  0  0  0  0  0  0  0  0
  142.5668   71.9487  217.5895 H   0  0  0  0  0  0  0  0  0  0  0  0
  142.6380   73.3782  218.6099 H   0  0  0  0  0  0  0  0  0  0  0  0
  1  2  1  0
  2  3  1  0
  3  4  2  0
  3  5  1  0
  5  6  1  0
  6  7  2  0
  7  8  1  0
  8  9  2  0
  9 10  1  0
 10 11  2  0
  5 12  1  0
 12 13  1  0
 13 14  1  0
 14 15  1  0
 15 16  1  0
 16 17  2  0
 16 18  1  0
 18 19  1  0
 18 20  1  0
 20 21  1  0
 21 22  1  0
 22 23  1  0
 23 24  2  0
 24 25  1  0
 25 26  2  0
 26 27  1  0
 26 28  1  0
 28 29  2  0
 29 30  1  0
 15 31  1  0
 31 32  1  0
 11  6  1  0
 32 12  1  0
 30 20  1  0
 29 23  1  0
  1 33  1  0
  1 34  1  0
  1 35  1  0
  2 36  1  0
  2 37  1  0
  7 38  1  0
  8 39  1  0
  9 40  1  0
 10 41  1  0
 11 42  1  0
 12 43  1  0
 13 44  1  0
 13 45  1  0
 14 46  1  0
 14 47  1  0
 18 48  1  6
 19 49  1  0
 19 50  1  0
 20 51  1  1
 21 52  1  0
 21 53  1  0
 22 54  1  0
 22 55  1  0
 24 56  1  0
 25 57  1  0
 28 58  1  0
 30 59  1  0
 30 60  1  0
 31 61  1  0
 31 62  1  0
 32 63  1  0
 32 64  1  0
M  END
>  <smiles>  (28) 
CCC(=O)N(c1ccccc1)C1CCN(C(=O)[C@@H](N)C2CCc3ccc(Cl)cc3C2)CC1

>  <score_type>  (28) 
oracle

>  <origin>  (28) 
autodockgpu

>  <m_score__min__energy>  (28) 
-8.5199999999999996

>  <m_primary>  (28) 
energy

>  <rmsd>  (28) 
6.726921653047767

>  <m_score__min__rmsd>  (28) 
6.726921653047767

>  <meeko>  (28) 
{"free_energy": -7.33, "intermolecular_energy": -9.42, "internal_energy": -2.44, "cluster_size": 6, "cluster_id": 5, "rank_in_cluster": 5}

>  <energy>  (28) 
-7.41

>  <cluster_rmsd>  (28) 
0.56

>  <cluster>  (28) 
4

$$$$

     RDKit          3D

 64 67  0  0  0  0  0  0  0  0999 V2000
  140.7560   81.4070  219.2500 C   0  0  0  0  0  0  0  0  0  0  0  0
  142.1170   80.8820  218.7330 C   0  0  0  0  0  0  0  0  0  0  0  0
  142.2030   79.4420  218.9400 C   0  0  0  0  0  0  0  0  0  0  0  0
  142.7410   78.8160  217.9280 O   0  0  0  0  0  0  0  0  0  0  0  0
  141.8070   78.6410  220.0300 N   0  0  0  0  0  0  0  0  0  0  0  0
  141.8090   78.9660  221.3960 C   0  0  0  0  0  0  0  0  0  0  0  0
  142.5630   80.0590  221.8660 C   0  0  0  0  0  0  0  0  0  0  0  0
  142.5990   80.4040  223.2020 C   0  0  0  0  0  0  0  0  0  0  0  0
  141.9010   79.7030  224.1530 C   0  0  0  0  0  0  0  0  0  0  0  0
  141.1600   78.6360  223.7280 C   0  0  0  0  0  0  0  0  0  0  0  0
  141.1250   78.2880  222.3800 C   0  0  0  0  0  0  0  0  0  0  0  0
  141.3260   77.3020  219.6610 C   0  0  0  0  0  0  0  0  0  0  0  0
  142.1020   76.1650  220.1850 C   0  0  0  0  0  0  0  0  0  0  0  0
  141.3700   74.8840  220.4410 C   0  0  0  0  0  0  0  0  0  0  0  0
  139.9740   74.9350  220.1280 N   0  0  0  0  0  0  0  0  0  0  0  0
  138.9370   74.2620  220.8100 C   0  0  0  0  0  0  0  0  0  0  0  0
  137.7200   74.4130  220.4240 O   0  0  0  0  0  0  0  0  0  0  0  0
  139.1170   73.3660  221.9720 C   0  0  1  0  0  0  0  0  0  0  0  0
  137.7990   72.8750  222.3720 N   0  0  0  0  0  0  0  0  0  0  0  0
  140.0020   72.1920  221.5800 C   0  0  2  0  0  0  0  0  0  0  0  0
  139.2430   70.9610  221.2280 C   0  0  0  0  0  0  0  0  0  0  0  0
  138.7510   70.1350  222.3590 C   0  0  0  0  0  0  0  0  0  0  0  0
  139.3340   70.4300  223.6660 C   0  0  0  0  0  0  0  0  0  0  0  0
  138.7780   69.8360  224.7810 C   0  0  0  0  0  0  0  0  0  0  0  0
  139.2650   70.0580  226.0520 C   0  0  0  0  0  0  0  0  0  0  0  0
  140.3420   70.9000  226.1930 C   0  0  0  0  0  0  0  0  0  0  0  0
  140.9520   71.1750  227.8070 Cl  0  0  0  0  0  0  0  0  0  0  0  0
  140.9050   71.4980  225.0850 C   0  0  0  0  0  0  0  0  0  0  0  0
  140.4140   71.2750  223.7990 C   0  0  0  0  0  0  0  0  0  0  0  0
  141.0560   71.9390  222.6570 C   0  0  0  0  0  0  0  0  0  0  0  0
  139.6050   75.7840  218.9770 C   0  0  0  0  0  0  0  0  0  0  0  0
  139.8390   77.1950  219.5560 C   0  0  0  0  0  0  0  0  0  0  0  0
  140.7568   81.4067  220.3500 H   0  0  0  0  0  0  0  0  0  0  0  0
  140.5952   82.4317  218.8837 H   0  0  0  0  0  0  0  0  0  0  0  0
  139.9487   80.7558  218.8837 H   0  0  0  0  0  0  0  0  0  0  0  0
  142.2092   81.1025  217.6593 H   0  0  0  0  0  0  0  0  0  0  0  0
  142.9298   81.3768  219.2848 H   0  0  0  0  0  0  0  0  0  0  0  0
  143.1413   80.6564  221.1457 H   0  0  0  0  0  0  0  0  0  0  0  0
  143.2056   81.2670  223.5138 H   0  0  0  0  0  0  0  0  0  0  0  0
  141.9364   79.9883  225.2148 H   0  0  0  0  0  0  0  0  0  0  0  0
  140.5857   78.0464  224.4578 H   0  0  0  0  0  0  0  0  0  0  0  0
  140.5156   77.4213  222.0843 H   0  0  0  0  0  0  0  0  0  0  0  0
  141.6033   77.1692  218.6048 H   0  0  0  0  0  0  0  0  0  0  0  0
  142.8995   75.9486  219.4589 H   0  0  0  0  0  0  0  0  0  0  0  0
  142.4435   76.4942  221.1775 H   0  0  0  0  0  0  0  0  0  0  0  0
  141.8321   74.0943  219.8304 H   0  0  0  0  0  0  0  0  0  0  0  0
  141.4456   74.6861  221.5204 H   0  0  0  0  0  0  0  0  0  0  0  0
  139.5934   73.9069  222.8030 H   0  0  0  0  0  0  0  0  0  0  0  0
  137.1820   72.9290  221.5310 H   0  0  0  0  0  0  0  0  0  0  0  0
  137.3830   73.5040  223.0830 H   0  0  0  0  0  0  0  0  0  0  0  0
  140.5167   72.4752  220.6500 H   0  0  0  0  0  0  0  0  0  0  0  0
  138.3693   71.2666  220.6336 H   0  0  0  0  0  0  0  0  0  0  0  0
  139.9611   70.3214  220.6938 H   0  0  0  0  0  0  0  0  0  0  0  0
  137.6633   70.2807  222.4345 H   0  0  0  0  0  0  0  0  0  0  0  0
  139.0505   69.1026  222.1258 H   0  0  0  0  0  0  0  0  0  0  0  0
  137.9176   69.1630  224.6515 H   0  0  0  0  0  0  0  0  0  0  0  0
  138.8051   69.5754  226.9270 H   0  0  0  0  0  0  0  0  0  0  0  0
  141.7656   72.1698  225.2195 H   0  0  0  0  0  0  0  0  0  0  0  0
  141.4902   72.8961  222.9818 H   0  0  0  0  0  0  0  0  0  0  0  0
  141.8566   71.3009  222.2547 H   0  0  0  0  0  0  0  0  0  0  0  0
  140.2541   75.5916  218.1100 H   0  0  0  0  0  0  0  0  0  0  0  0
  138.5855   75.6146  218.6004 H   0  0  0  0  0  0  0  0  0  0  0  0
  139.4384   77.9657  218.8811 H   0  0  0  0  0  0  0  0  0  0  0  0
  139.3350   77.3446  220.5222 H   0  0  0  0  0  0  0  0  0  0  0  0
  1  2  1  0
  2  3  1  0
  3  4  2  0
  3  5  1  0
  5  6  1  0
  6  7  2  0
  7  8  1  0
  8  9  2  0
  9 10  1  0
 10 11  2  0
  5 12  1  0
 12 13  1  0
 13 14  1  0
 14 15  1  0
 15 16  1  0
 16 17  2  0
 16 18  1  0
 18 19  1  0
 18 20  1  0
 20 21  1  0
 21 22  1  0
 22 23  1  0
 23 24  2  0
 24 25  1  0
 25 26  2  0
 26 27  1  0
 26 28  1  0
 28 29  2  0
 29 30  1  0
 15 31  1  0
 31 32  1  0
 11  6  1  0
 32 12  1  0
 30 20  1  0
 29 23  1  0
  1 33  1  0
  1 34  1  0
  1 35  1  0
  2 36  1  0
  2 37  1  0
  7 38  1  0
  8 39  1  0
  9 40  1  0
 10 41  1  0
 11 42  1  0
 12 43  1  0
 13 44  1  0
 13 45  1  0
 14 46  1  0
 14 47  1  0
 18 48  1  1
 19 49  1  0
 19 50  1  0
 20 51  1  6
 21 52  1  0
 21 53  1  0
 22 54  1  0
 22 55  1  0
 24 56  1  0
 25 57  1  0
 28 58  1  0
 30 59  1  0
 30 60  1  0
 31 61  1  0
 31 62  1  0
 32 63  1  0
 32 64  1  0
M  END
>  <smiles>  (29) 
CCC(=O)N(c1ccccc1)C1CCN(C(=O)[C@@H](N)C2CCc3ccc(Cl)cc3C2)CC1

>  <score_type>  (29) 
oracle

>  <origin>  (29) 
autodockgpu

>  <m_score__min__energy>  (29) 
-8.5199999999999996

>  <m_primary>  (29) 
energy

>  <rmsd>  (29) 
7.441861443829694

>  <m_score__min__rmsd>  (29) 
7.441861443829694

>  <meeko>  (29) 
{"free_energy": -7.33, "intermolecular_energy": -9.41, "internal_energy": -2.42, "cluster_size": 3, "cluster_id": 6, "rank_in_cluster": 2}

>  <energy>  (29) 
-7.41

>  <cluster_rmsd>  (29) 
0.15

>  <cluster>  (29) 
4

$$$$

     RDKit          3D

 64 67  0  0  0  0  0  0  0  0999 V2000
  146.7090   73.3870  222.2890 C   0  0  0  0  0  0  0  0  0  0  0  0
  145.8990   74.1460  221.2100 C   0  0  0  0  0  0  0  0  0  0  0  0
  145.9020   73.3880  219.9650 C   0  0  0  0  0  0  0  0  0  0  0  0
  147.0450   73.4540  219.3360 O   0  0  0  0  0  0  0  0  0  0  0  0
  144.8950   72.6180  219.3500 N   0  0  0  0  0  0  0  0  0  0  0  0
  144.7610   71.2210  219.3230 C   0  0  0  0  0  0  0  0  0  0  0  0
  143.5320   70.6170  219.6530 C   0  0  0  0  0  0  0  0  0  0  0  0
  143.3630   69.2480  219.6470 C   0  0  0  0  0  0  0  0  0  0  0  0
  144.3830   68.3910  219.3180 C   0  0  0  0  0  0  0  0  0  0  0  0
  145.5890   68.9450  218.9920 C   0  0  0  0  0  0  0  0  0  0  0  0
  145.7580   70.3280  218.9990 C   0  0  0  0  0  0  0  0  0  0  0  0
  143.8600   73.4030  218.6630 C   0  0  0  0  0  0  0  0  0  0  0  0
  142.8290   74.0120  219.5220 C   0  0  0  0  0  0  0  0  0  0  0  0
  142.2020   75.2890  219.0550 C   0  0  0  0  0  0  0  0  0  0  0  0
  142.6980   75.7600  217.7980 N   0  0  0  0  0  0  0  0  0  0  0  0
  142.8670   77.1080  217.4140 C   0  0  0  0  0  0  0  0  0  0  0  0
  143.3400   77.3830  216.2510 O   0  0  0  0  0  0  0  0  0  0  0  0
  142.5430   78.2830  218.2510 C   0  0  1  0  0  0  0  0  0  0  0  0
  142.8130   79.4860  217.4650 N   0  0  0  0  0  0  0  0  0  0  0  0
  141.0720   78.2440  218.6380 C   0  0  2  0  0  0  0  0  0  0  0  0
  140.2710   79.3590  218.0620 C   0  0  0  0  0  0  0  0  0  0  0  0
  140.3580   80.6690  218.7540 C   0  0  0  0  0  0  0  0  0  0  0  0
  140.9420   80.6460  220.0930 C   0  0  0  0  0  0  0  0  0  0  0  0
  141.2300   81.8500  220.7040 C   0  0  0  0  0  0  0  0  0  0  0  0
  141.7820   81.9210  221.9660 C   0  0  0  0  0  0  0  0  0  0  0  0
  142.0470   80.7430  222.6220 C   0  0  0  0  0  0  0  0  0  0  0  0
  142.7470   80.8420  224.2200 Cl  0  0  0  0  0  0  0  0  0  0  0  0
  141.7630   79.5350  222.0200 C   0  0  0  0  0  0  0  0  0  0  0  0
  141.2050   79.4610  220.7440 C   0  0  0  0  0  0  0  0  0  0  0  0
  140.9240   78.1450  220.1550 C   0  0  0  0  0  0  0  0  0  0  0  0
  143.0690   74.7140  216.8220 C   0  0  0  0  0  0  0  0  0  0  0  0
  144.3520   74.1440  217.4630 C   0  0  0  0  0  0  0  0  0  0  0  0
  146.3734   73.7015  223.2882 H   0  0  0  0  0  0  0  0  0  0  0  0
  146.5505   72.3047  222.1727 H   0  0  0  0  0  0  0  0  0  0  0  0
  147.7787   73.6155  222.1727 H   0  0  0  0  0  0  0  0  0  0  0  0
  144.8629   74.2761  221.5557 H   0  0  0  0  0  0  0  0  0  0  0  0
  146.3587   75.1302  221.0367 H   0  0  0  0  0  0  0  0  0  0  0  0
  142.6798   71.2575  219.9241 H   0  0  0  0  0  0  0  0  0  0  0  0
  142.3809   68.8306  219.9140 H   0  0  0  0  0  0  0  0  0  0  0  0
  144.2357   67.3009  219.3167 H   0  0  0  0  0  0  0  0  0  0  0  0
  146.4333   68.2937  218.7219 H   0  0  0  0  0  0  0  0  0  0  0  0
  146.7458   70.7302  218.7299 H   0  0  0  0  0  0  0  0  0  0  0  0
  143.2035   72.6659  218.1776 H   0  0  0  0  0  0  0  0  0  0  0  0
  142.0222   73.2738  219.6413 H   0  0  0  0  0  0  0  0  0  0  0  0
  143.3607   74.2839  220.4458 H   0  0  0  0  0  0  0  0  0  0  0  0
  141.1183   75.1265  218.9593 H   0  0  0  0  0  0  0  0  0  0  0  0
  142.4533   76.0565  219.8019 H   0  0  0  0  0  0  0  0  0  0  0  0
  143.1508   78.2804  219.1679 H   0  0  0  0  0  0  0  0  0  0  0  0
  142.9510   79.1820  216.4750 H   0  0  0  0  0  0  0  0  0  0  0  0
  143.7040   79.9190  217.7660 H   0  0  0  0  0  0  0  0  0  0  0  0
  140.6470   77.3351  218.1872 H   0  0  0  0  0  0  0  0  0  0  0  0
  140.6043   79.5074  217.0243 H   0  0  0  0  0  0  0  0  0  0  0  0
  139.2218   79.0456  218.1672 H   0  0  0  0  0  0  0  0  0  0  0  0
  140.9690   81.3391  218.1313 H   0  0  0  0  0  0  0  0  0  0  0  0
  139.3190   81.0042  218.8882 H   0  0  0  0  0  0  0  0  0  0  0  0
  141.0118   82.7844  220.1661 H   0  0  0  0  0  0  0  0  0  0  0  0
  142.0035   82.8918  222.4335 H   0  0  0  0  0  0  0  0  0  0  0  0
  141.9829   78.6033  222.5618 H   0  0  0  0  0  0  0  0  0  0  0  0
  141.6355   77.4041  220.5485 H   0  0  0  0  0  0  0  0  0  0  0  0
  139.9014   77.8309  220.4114 H   0  0  0  0  0  0  0  0  0  0  0  0
  142.2858   73.9462  216.7373 H   0  0  0  0  0  0  0  0  0  0  0  0
  143.2044   75.0838  215.7949 H   0  0  0  0  0  0  0  0  0  0  0  0
  144.8672   73.4644  216.7682 H   0  0  0  0  0  0  0  0  0  0  0  0
  145.0805   74.9274  217.7193 H   0  0  0  0  0  0  0  0  0  0  0  0
  1  2  1  0
  2  3  1  0
  3  4  2  0
  3  5  1  0
  5  6  1  0
  6  7  2  0
  7  8  1  0
  8  9  2  0
  9 10  1  0
 10 11  2  0
  5 12  1  0
 12 13  1  0
 13 14  1  0
 14 15  1  0
 15 16  1  0
 16 17  2  0
 16 18  1  0
 18 19  1  0
 18 20  1  0
 20 21  1  0
 21 22  1  0
 22 23  1  0
 23 24  2  0
 24 25  1  0
 25 26  2  0
 26 27  1  0
 26 28  1  0
 28 29  2  0
 29 30  1  0
 15 31  1  0
 31 32  1  0
 11  6  1  0
 32 12  1  0
 30 20  1  0
 29 23  1  0
  1 33  1  0
  1 34  1  0
  1 35  1  0
  2 36  1  0
  2 37  1  0
  7 38  1  0
  8 39  1  0
  9 40  1  0
 10 41  1  0
 11 42  1  0
 12 43  1  0
 13 44  1  0
 13 45  1  0
 14 46  1  0
 14 47  1  0
 18 48  1  1
 19 49  1  0
 19 50  1  0
 20 51  1  6
 21 52  1  0
 21 53  1  0
 22 54  1  0
 22 55  1  0
 24 56  1  0
 25 57  1  0
 28 58  1  0
 30 59  1  0
 30 60  1  0
 31 61  1  0
 31 62  1  0
 32 63  1  0
 32 64  1  0
M  END
>  <smiles>  (30) 
CCC(=O)N(c1ccccc1)C1CCN(C(=O)[C@@H](N)C2CCc3ccc(Cl)cc3C2)CC1

>  <score_type>  (30) 
oracle

>  <origin>  (30) 
autodockgpu

>  <m_score__min__energy>  (30) 
-8.5199999999999996

>  <m_primary>  (30) 
energy

>  <rmsd>  (30) 
4.585015040334454

>  <m_score__min__rmsd>  (30) 
4.585015040334454

>  <meeko>  (30) 
{"free_energy": -7.6, "intermolecular_energy": -9.69, "internal_energy": -2.39, "cluster_size": 3, "cluster_id": 3, "rank_in_cluster": 1}

>  <energy>  (30) 
-7.4

>  <cluster_rmsd>  (30) 
0.27

>  <cluster>  (30) 
4

$$$$

     RDKit          3D

 64 67  0  0  0  0  0  0  0  0999 V2000
  141.8990   81.7470  218.4260 C   0  0  0  0  0  0  0  0  0  0  0  0
  141.0030   82.8350  219.0670 C   0  0  0  0  0  0  0  0  0  0  0  0
  140.2620   82.2680  220.1870 C   0  0  0  0  0  0  0  0  0  0  0  0
  139.1840   82.9470  220.4750 O   0  0  0  0  0  0  0  0  0  0  0  0
  140.5190   81.1350  220.9850 N   0  0  0  0  0  0  0  0  0  0  0  0
  141.4250   81.0060  222.0490 C   0  0  0  0  0  0  0  0  0  0  0  0
  142.4000   79.9890  222.0340 C   0  0  0  0  0  0  0  0  0  0  0  0
  143.3020   79.8230  223.0650 C   0  0  0  0  0  0  0  0  0  0  0  0
  143.3040   80.6410  224.1680 C   0  0  0  0  0  0  0  0  0  0  0  0
  142.3700   81.6370  224.2130 C   0  0  0  0  0  0  0  0  0  0  0  0
  141.4590   81.8030  223.1710 C   0  0  0  0  0  0  0  0  0  0  0  0
  139.7160   79.9530  220.6420 C   0  0  0  0  0  0  0  0  0  0  0  0
  140.3250   79.0040  219.6940 C   0  0  0  0  0  0  0  0  0  0  0  0
  139.9430   77.5620  219.8110 C   0  0  0  0  0  0  0  0  0  0  0  0
  139.0040   77.2890  220.8570 N   0  0  0  0  0  0  0  0  0  0  0  0
  138.9500   76.1230  221.6530 C   0  0  0  0  0  0  0  0  0  0  0  0
  138.0560   76.0210  222.5700 O   0  0  0  0  0  0  0  0  0  0  0  0
  139.8580   74.9630  221.5330 C   0  0  1  0  0  0  0  0  0  0  0  0
  139.3270   73.8860  222.3680 N   0  0  0  0  0  0  0  0  0  0  0  0
  139.9140   74.5050  220.0830 C   0  0  2  0  0  0  0  0  0  0  0  0
  139.5010   73.0890  219.8850 C   0  0  0  0  0  0  0  0  0  0  0  0
  140.5150   72.0500  220.1900 C   0  0  0  0  0  0  0  0  0  0  0  0
  141.8920   72.5220  220.3290 C   0  0  0  0  0  0  0  0  0  0  0  0
  142.8420   71.6420  220.8040 C   0  0  0  0  0  0  0  0  0  0  0  0
  144.1630   72.0030  220.9660 C   0  0  0  0  0  0  0  0  0  0  0  0
  144.5260   73.2870  220.6370 C   0  0  0  0  0  0  0  0  0  0  0  0
  146.2020   73.7370  220.8450 Cl  0  0  0  0  0  0  0  0  0  0  0  0
  143.5830   74.1750  220.1610 C   0  0  0  0  0  0  0  0  0  0  0  0
  142.2470   73.8110  219.9970 C   0  0  0  0  0  0  0  0  0  0  0  0
  141.2890   74.7990  219.4850 C   0  0  0  0  0  0  0  0  0  0  0  0
  138.0040   78.3460  221.1140 C   0  0  0  0  0  0  0  0  0  0  0  0
  138.8800   79.4360  221.7670 C   0  0  0  0  0  0  0  0  0  0  0  0
  142.3841   81.1579  219.2182 H   0  0  0  0  0  0  0  0  0  0  0  0
  141.2814   81.0841  217.8022 H   0  0  0  0  0  0  0  0  0  0  0  0
  142.6680   82.2260  217.8022 H   0  0  0  0  0  0  0  0  0  0  0  0
  141.6333   83.6615  219.4272 H   0  0  0  0  0  0  0  0  0  0  0  0
  140.2934   83.2104  218.3150 H   0  0  0  0  0  0  0  0  0  0  0  0
  142.4435   79.3056  221.1731 H   0  0  0  0  0  0  0  0  0  0  0  0
  144.0415   79.0112  223.0014 H   0  0  0  0  0  0  0  0  0  0  0  0
  144.0290   80.4999  224.9831 H   0  0  0  0  0  0  0  0  0  0  0  0
  142.3365   82.3141  225.0793 H   0  0  0  0  0  0  0  0  0  0  0  0
  140.7246   82.6182  223.2499 H   0  0  0  0  0  0  0  0  0  0  0  0
  138.9283   80.3190  219.9670 H   0  0  0  0  0  0  0  0  0  0  0  0
  140.0553   79.3340  218.6799 H   0  0  0  0  0  0  0  0  0  0  0  0
  141.3993   79.0269  219.9293 H   0  0  0  0  0  0  0  0  0  0  0  0
  139.4988   77.2437  218.8563 H   0  0  0  0  0  0  0  0  0  0  0  0
  140.8617   77.0094  220.0573 H   0  0  0  0  0  0  0  0  0  0  0  0
  140.8731   75.2355  221.8576 H   0  0  0  0  0  0  0  0  0  0  0  0
  138.4440   74.2380  222.8000 H   0  0  0  0  0  0  0  0  0  0  0  0
  139.9770   73.6850  223.1490 H   0  0  0  0  0  0  0  0  0  0  0  0
  139.1633   75.0922  219.5337 H   0  0  0  0  0  0  0  0  0  0  0  0
  138.6291   72.9030  220.5293 H   0  0  0  0  0  0  0  0  0  0  0  0
  139.3047   72.9934  218.8069 H   0  0  0  0  0  0  0  0  0  0  0  0
  140.2277   71.5660  221.1351 H   0  0  0  0  0  0  0  0  0  0  0  0
  140.5185   71.3740  219.3222 H   0  0  0  0  0  0  0  0  0  0  0  0
  142.5355   70.6176  221.0623 H   0  0  0  0  0  0  0  0  0  0  0  0
  144.9039   71.2848  221.3471 H   0  0  0  0  0  0  0  0  0  0  0  0
  143.8939   75.1983  219.9038 H   0  0  0  0  0  0  0  0  0  0  0  0
  141.6100   75.8104  219.7750 H   0  0  0  0  0  0  0  0  0  0  0  0
  141.2405   74.7398  218.3877 H   0  0  0  0  0  0  0  0  0  0  0  0
  137.5460   78.7031  220.1798 H   0  0  0  0  0  0  0  0  0  0  0  0
  137.1529   78.0216  221.7308 H   0  0  0  0  0  0  0  0  0  0  0  0
  138.2561   80.2370  222.1902 H   0  0  0  0  0  0  0  0  0  0  0  0
  139.4853   79.0487  222.5998 H   0  0  0  0  0  0  0  0  0  0  0  0
  1  2  1  0
  2  3  1  0
  3  4  2  0
  3  5  1  0
  5  6  1  0
  6  7  2  0
  7  8  1  0
  8  9  2  0
  9 10  1  0
 10 11  2  0
  5 12  1  0
 12 13  1  0
 13 14  1  0
 14 15  1  0
 15 16  1  0
 16 17  2  0
 16 18  1  0
 18 19  1  0
 18 20  1  0
 20 21  1  0
 21 22  1  0
 22 23  1  0
 23 24  2  0
 24 25  1  0
 25 26  2  0
 26 27  1  0
 26 28  1  0
 28 29  2  0
 29 30  1  0
 15 31  1  0
 31 32  1  0
 11  6  1  0
 32 12  1  0
 30 20  1  0
 29 23  1  0
  1 33  1  0
  1 34  1  0
  1 35  1  0
  2 36  1  0
  2 37  1  0
  7 38  1  0
  8 39  1  0
  9 40  1  0
 10 41  1  0
 11 42  1  0
 12 43  1  0
 13 44  1  0
 13 45  1  0
 14 46  1  0
 14 47  1  0
 18 48  1  1
 19 49  1  0
 19 50  1  0
 20 51  1  6
 21 52  1  0
 21 53  1  0
 22 54  1  0
 22 55  1  0
 24 56  1  0
 25 57  1  0
 28 58  1  0
 30 59  1  0
 30 60  1  0
 31 61  1  0
 31 62  1  0
 32 63  1  0
 32 64  1  0
M  END
>  <smiles>  (31) 
CCC(=O)N(c1ccccc1)C1CCN(C(=O)[C@@H](N)C2CCc3ccc(Cl)cc3C2)CC1

>  <score_type>  (31) 
oracle

>  <origin>  (31) 
autodockgpu

>  <m_score__min__energy>  (31) 
-8.5199999999999996

>  <m_primary>  (31) 
energy

>  <rmsd>  (31) 
6.333827993478121

>  <m_score__min__rmsd>  (31) 
6.333827993478121

>  <meeko>  (31) 
{"free_energy": -7.11, "intermolecular_energy": -9.2, "internal_energy": -2.45, "cluster_size": 5, "cluster_id": 2, "rank_in_cluster": 3}

>  <energy>  (31) 
-7.39

>  <cluster_rmsd>  (31) 
0.55

>  <cluster>  (31) 
4

$$$$

     RDKit          3D

 64 67  0  0  0  0  0  0  0  0999 V2000
  138.2190   80.7060  220.7010 C   0  0  0  0  0  0  0  0  0  0  0  0
  137.3910   80.0260  221.8180 C   0  0  0  0  0  0  0  0  0  0  0  0
  138.1150   78.8730  222.3380 C   0  0  0  0  0  0  0  0  0  0  0  0
  137.3720   78.1060  223.0910 O   0  0  0  0  0  0  0  0  0  0  0  0
  139.4530   78.4670  222.1620 N   0  0  0  0  0  0  0  0  0  0  0  0
  140.6250   79.1330  222.5550 C   0  0  0  0  0  0  0  0  0  0  0  0
  141.4130   79.8080  221.6020 C   0  0  0  0  0  0  0  0  0  0  0  0
  142.5760   80.4660  221.9470 C   0  0  0  0  0  0  0  0  0  0  0  0
  143.0340   80.5030  223.2400 C   0  0  0  0  0  0  0  0  0  0  0  0
  142.2920   79.8570  224.1880 C   0  0  0  0  0  0  0  0  0  0  0  0
  141.1180   79.1920  223.8390 C   0  0  0  0  0  0  0  0  0  0  0  0
  139.6130   77.1730  221.4830 C   0  0  0  0  0  0  0  0  0  0  0  0
  140.5500   76.2220  222.1080 C   0  0  0  0  0  0  0  0  0  0  0  0
  140.2820   74.7610  221.9250 C   0  0  0  0  0  0  0  0  0  0  0  0
  139.1200   74.4730  221.1400 N   0  0  0  0  0  0  0  0  0  0  0  0
  138.2380   73.3840  221.3160 C   0  0  0  0  0  0  0  0  0  0  0  0
  137.2210   73.2600  220.5400 O   0  0  0  0  0  0  0  0  0  0  0  0
  138.3710   72.3330  222.3460 C   0  0  1  0  0  0  0  0  0  0  0  0
  137.1460   71.5340  222.3370 N   0  0  0  0  0  0  0  0  0  0  0  0
  139.5620   71.4440  222.0180 C   0  0  2  0  0  0  0  0  0  0  0  0
  139.2150   70.0030  221.8780 C   0  0  0  0  0  0  0  0  0  0  0  0
  139.0590   69.2300  223.1350 C   0  0  0  0  0  0  0  0  0  0  0  0
  139.5800   69.8660  224.3440 C   0  0  0  0  0  0  0  0  0  0  0  0
  139.2900   69.2890  225.5650 C   0  0  0  0  0  0  0  0  0  0  0  0
  139.7410   69.8220  226.7550 C   0  0  0  0  0  0  0  0  0  0  0  0
  140.5030   70.9650  226.7030 C   0  0  0  0  0  0  0  0  0  0  0  0
  141.0690   71.6320  228.2150 Cl  0  0  0  0  0  0  0  0  0  0  0  0
  140.7980   71.5480  225.4890 C   0  0  0  0  0  0  0  0  0  0  0  0
  140.3430   71.0110  224.2840 C   0  0  0  0  0  0  0  0  0  0  0  0
  140.6910   71.6760  223.0210 C   0  0  0  0  0  0  0  0  0  0  0  0
  138.8330   75.4240  220.0460 C   0  0  0  0  0  0  0  0  0  0  0  0
  138.3660   76.6630  220.8390 C   0  0  0  0  0  0  0  0  0  0  0  0
  138.9935   81.3421  221.1543 H   0  0  0  0  0  0  0  0  0  0  0  0
  138.6960   79.9355  220.0774 H   0  0  0  0  0  0  0  0  0  0  0  0
  137.5559   81.3237  220.0774 H   0  0  0  0  0  0  0  0  0  0  0  0
  137.2164   80.7449  222.6321 H   0  0  0  0  0  0  0  0  0  0  0  0
  136.4278   79.6931  221.4040 H   0  0  0  0  0  0  0  0  0  0  0  0
  141.0912   79.8106  220.5501 H   0  0  0  0  0  0  0  0  0  0  0  0
  143.1533   80.9762  221.1618 H   0  0  0  0  0  0  0  0  0  0  0  0
  143.9620   81.0319  223.5029 H   0  0  0  0  0  0  0  0  0  0  0  0
  142.6243   79.8618  225.2366 H   0  0  0  0  0  0  0  0  0  0  0  0
  140.5529   78.6852  224.6351 H   0  0  0  0  0  0  0  0  0  0  0  0
  140.2191   77.3822  220.5892 H   0  0  0  0  0  0  0  0  0  0  0  0
  141.5495   76.4269  221.6968 H   0  0  0  0  0  0  0  0  0  0  0  0
  140.4397   76.3921  223.1892 H   0  0  0  0  0  0  0  0  0  0  0  0
  141.1541   74.3094  221.4295 H   0  0  0  0  0  0  0  0  0  0  0  0
  140.0990   74.3446  222.9265 H   0  0  0  0  0  0  0  0  0  0  0  0
  138.5274   72.7849  223.3366 H   0  0  0  0  0  0  0  0  0  0  0  0
  136.9950   71.2120  221.3550 H   0  0  0  0  0  0  0  0  0  0  0  0
  136.3310   72.1260  222.5810 H   0  0  0  0  0  0  0  0  0  0  0  0
  139.9169   71.7415  221.0202 H   0  0  0  0  0  0  0  0  0  0  0  0
  138.2642   69.9410  221.3284 H   0  0  0  0  0  0  0  0  0  0  0  0
  140.0738   69.5475  221.3632 H   0  0  0  0  0  0  0  0  0  0  0  0
  137.9851   69.0463  223.2867 H   0  0  0  0  0  0  0  0  0  0  0  0
  139.6555   68.3159  222.9986 H   0  0  0  0  0  0  0  0  0  0  0  0
  138.6793   68.3744  225.5894 H   0  0  0  0  0  0  0  0  0  0  0  0
  139.4981   69.3465  227.7167 H   0  0  0  0  0  0  0  0  0  0  0  0
  141.4093   72.4623  225.4697 H   0  0  0  0  0  0  0  0  0  0  0  0
  140.8171   72.7551  223.1933 H   0  0  0  0  0  0  0  0  0  0  0  0
  141.6322   71.2645  222.6277 H   0  0  0  0  0  0  0  0  0  0  0  0
  139.7343   75.6408  219.4538 H   0  0  0  0  0  0  0  0  0  0  0  0
  138.1020   75.0577  219.3101 H   0  0  0  0  0  0  0  0  0  0  0  0
  137.9369   77.4192  220.1652 H   0  0  0  0  0  0  0  0  0  0  0  0
  137.5795   76.4250  221.5703 H   0  0  0  0  0  0  0  0  0  0  0  0
  1  2  1  0
  2  3  1  0
  3  4  2  0
  3  5  1  0
  5  6  1  0
  6  7  2  0
  7  8  1  0
  8  9  2  0
  9 10  1  0
 10 11  2  0
  5 12  1  0
 12 13  1  0
 13 14  1  0
 14 15  1  0
 15 16  1  0
 16 17  2  0
 16 18  1  0
 18 19  1  0
 18 20  1  0
 20 21  1  0
 21 22  1  0
 22 23  1  0
 23 24  2  0
 24 25  1  0
 25 26  2  0
 26 27  1  0
 26 28  1  0
 28 29  2  0
 29 30  1  0
 15 31  1  0
 31 32  1  0
 11  6  1  0
 32 12  1  0
 30 20  1  0
 29 23  1  0
  1 33  1  0
  1 34  1  0
  1 35  1  0
  2 36  1  0
  2 37  1  0
  7 38  1  0
  8 39  1  0
  9 40  1  0
 10 41  1  0
 11 42  1  0
 12 43  1  0
 13 44  1  0
 13 45  1  0
 14 46  1  0
 14 47  1  0
 18 48  1  1
 19 49  1  0
 19 50  1  0
 20 51  1  6
 21 52  1  0
 21 53  1  0
 22 54  1  0
 22 55  1  0
 24 56  1  0
 25 57  1  0
 28 58  1  0
 30 59  1  0
 30 60  1  0
 31 61  1  0
 31 62  1  0
 32 63  1  0
 32 64  1  0
M  END
>  <smiles>  (32) 
CCC(=O)N(c1ccccc1)C1CCN(C(=O)[C@@H](N)C2CCc3ccc(Cl)cc3C2)CC1

>  <score_type>  (32) 
oracle

>  <origin>  (32) 
autodockgpu

>  <m_score__min__energy>  (32) 
-8.5199999999999996

>  <m_primary>  (32) 
energy

>  <rmsd>  (32) 
7.855139497635513

>  <m_score__min__rmsd>  (32) 
7.855139497635513

>  <meeko>  (32) 
{"free_energy": -7.28, "intermolecular_energy": -9.36, "internal_energy": -2.59, "cluster_size": 11, "cluster_id": 4, "rank_in_cluster": 11}

>  <energy>  (32) 
-7.38

>  <cluster_rmsd>  (32) 
0.6

>  <cluster>  (32) 
4

$$$$

     RDKit          3D

 64 67  0  0  0  0  0  0  0  0999 V2000
  142.7800   81.2880  217.8070 C   0  0  0  0  0  0  0  0  0  0  0  0
  141.5750   80.4120  218.2280 C   0  0  0  0  0  0  0  0  0  0  0  0
  142.0490   79.1190  218.7070 C   0  0  0  0  0  0  0  0  0  0  0  0
  142.9670   78.6000  217.9360 O   0  0  0  0  0  0  0  0  0  0  0  0
  141.6820   78.3630  219.8390 N   0  0  0  0  0  0  0  0  0  0  0  0
  141.7090   78.7470  221.1890 C   0  0  0  0  0  0  0  0  0  0  0  0
  142.2280   80.0020  221.5620 C   0  0  0  0  0  0  0  0  0  0  0  0
  142.2800   80.4120  222.8780 C   0  0  0  0  0  0  0  0  0  0  0  0
  141.8280   79.6200  223.9040 C   0  0  0  0  0  0  0  0  0  0  0  0
  141.3180   78.3960  223.5750 C   0  0  0  0  0  0  0  0  0  0  0  0
  141.2660   77.9830  222.2460 C   0  0  0  0  0  0  0  0  0  0  0  0
  141.2080   77.0050  219.5380 C   0  0  0  0  0  0  0  0  0  0  0  0
  142.0080   75.8980  220.0910 C   0  0  0  0  0  0  0  0  0  0  0  0
  141.2960   74.6230  220.4180 C   0  0  0  0  0  0  0  0  0  0  0  0
  139.8930   74.6460  220.1360 N   0  0  0  0  0  0  0  0  0  0  0  0
  138.8780   73.9930  220.8700 C   0  0  0  0  0  0  0  0  0  0  0  0
  137.6520   74.1160  220.5060 O   0  0  0  0  0  0  0  0  0  0  0  0
  139.0950   73.1490  222.0640 C   0  0  1  0  0  0  0  0  0  0  0  0
  137.7930   72.6510  222.5070 N   0  0  0  0  0  0  0  0  0  0  0  0
  139.9950   71.9760  221.7050 C   0  0  2  0  0  0  0  0  0  0  0  0
  139.2540   70.7170  221.4200 C   0  0  0  0  0  0  0  0  0  0  0  0
  138.7990   69.9310  222.5930 C   0  0  0  0  0  0  0  0  0  0  0  0
  139.4010   70.2920  223.8760 C   0  0  0  0  0  0  0  0  0  0  0  0
  138.8770   69.7360  225.0250 C   0  0  0  0  0  0  0  0  0  0  0  0
  139.3840   70.0210  226.2760 C   0  0  0  0  0  0  0  0  0  0  0  0
  140.4470   70.8880  226.3610 C   0  0  0  0  0  0  0  0  0  0  0  0
  141.0820   71.2420  227.9490 Cl  0  0  0  0  0  0  0  0  0  0  0  0
  140.9770   71.4480  225.2180 C   0  0  0  0  0  0  0  0  0  0  0  0
  140.4660   71.1620  223.9520 C   0  0  0  0  0  0  0  0  0  0  0  0
  141.0740   71.7880  222.7700 C   0  0  0  0  0  0  0  0  0  0  0  0
  139.4880   75.4420  218.9590 C   0  0  0  0  0  0  0  0  0  0  0  0
  139.7200   76.8790  219.4720 C   0  0  0  0  0  0  0  0  0  0  0  0
  143.2935   81.6613  218.7053 H   0  0  0  0  0  0  0  0  0  0  0  0
  143.4795   80.6861  217.2083 H   0  0  0  0  0  0  0  0  0  0  0  0
  142.4232   82.1390  217.2083 H   0  0  0  0  0  0  0  0  0  0  0  0
  141.0187   80.9176  219.0311 H   0  0  0  0  0  0  0  0  0  0  0  0
  140.9160   80.2591  217.3606 H   0  0  0  0  0  0  0  0  0  0  0  0
  142.6039   80.6768  220.7788 H   0  0  0  0  0  0  0  0  0  0  0  0
  142.6960   81.4030  223.1122 H   0  0  0  0  0  0  0  0  0  0  0  0
  141.8746   79.9575  224.9499 H   0  0  0  0  0  0  0  0  0  0  0  0
  140.9449   77.7304  224.3673 H   0  0  0  0  0  0  0  0  0  0  0  0
  140.8471   76.9896  222.0279 H   0  0  0  0  0  0  0  0  0  0  0  0
  141.4640   76.8306  218.4825 H   0  0  0  0  0  0  0  0  0  0  0  0
  142.7905   75.6585  219.3559 H   0  0  0  0  0  0  0  0  0  0  0  0
  142.3691   76.2721  221.0603 H   0  0  0  0  0  0  0  0  0  0  0  0
  141.7527   73.8125  219.8311 H   0  0  0  0  0  0  0  0  0  0  0  0
  141.3981   74.4730  221.5029 H   0  0  0  0  0  0  0  0  0  0  0  0
  139.5756   73.7322  222.8633 H   0  0  0  0  0  0  0  0  0  0  0  0
  137.1910   72.5660  221.6580 H   0  0  0  0  0  0  0  0  0  0  0  0
  137.3360   73.3460  223.1250 H   0  0  0  0  0  0  0  0  0  0  0  0
  140.4862   72.2298  220.7541 H   0  0  0  0  0  0  0  0  0  0  0  0
  138.3639   70.9806  220.8299 H   0  0  0  0  0  0  0  0  0  0  0  0
  139.9749   70.0689  220.9001 H   0  0  0  0  0  0  0  0  0  0  0  0
  137.7103   70.0599  222.6834 H   0  0  0  0  0  0  0  0  0  0  0  0
  139.1135   68.8952  222.3975 H   0  0  0  0  0  0  0  0  0  0  0  0
  138.0271   69.0428  224.9407 H   0  0  0  0  0  0  0  0  0  0  0  0
  138.9500   69.5675  227.1793 H   0  0  0  0  0  0  0  0  0  0  0  0
  141.8273   72.1402  225.3070 H   0  0  0  0  0  0  0  0  0  0  0  0
  141.4967   72.7656  223.0452 H   0  0  0  0  0  0  0  0  0  0  0  0
  141.8785   71.1477  222.3792 H   0  0  0  0  0  0  0  0  0  0  0  0
  140.1188   75.2193  218.0858 H   0  0  0  0  0  0  0  0  0  0  0  0
  138.4618   75.2467  218.6143 H   0  0  0  0  0  0  0  0  0  0  0  0
  139.2960   77.6162  218.7744 H   0  0  0  0  0  0  0  0  0  0  0  0
  139.2365   77.0648  220.4424 H   0  0  0  0  0  0  0  0  0  0  0  0
  1  2  1  0
  2  3  1  0
  3  4  2  0
  3  5  1  0
  5  6  1  0
  6  7  2  0
  7  8  1  0
  8  9  2  0
  9 10  1  0
 10 11  2  0
  5 12  1  0
 12 13  1  0
 13 14  1  0
 14 15  1  0
 15 16  1  0
 16 17  2  0
 16 18  1  0
 18 19  1  0
 18 20  1  0
 20 21  1  0
 21 22  1  0
 22 23  1  0
 23 24  2  0
 24 25  1  0
 25 26  2  0
 26 27  1  0
 26 28  1  0
 28 29  2  0
 29 30  1  0
 15 31  1  0
 31 32  1  0
 11  6  1  0
 32 12  1  0
 30 20  1  0
 29 23  1  0
  1 33  1  0
  1 34  1  0
  1 35  1  0
  2 36  1  0
  2 37  1  0
  7 38  1  0
  8 39  1  0
  9 40  1  0
 10 41  1  0
 11 42  1  0
 12 43  1  0
 13 44  1  0
 13 45  1  0
 14 46  1  0
 14 47  1  0
 18 48  1  1
 19 49  1  0
 19 50  1  0
 20 51  1  6
 21 52  1  0
 21 53  1  0
 22 54  1  0
 22 55  1  0
 24 56  1  0
 25 57  1  0
 28 58  1  0
 30 59  1  0
 30 60  1  0
 31 61  1  0
 31 62  1  0
 32 63  1  0
 32 64  1  0
M  END
>  <smiles>  (33) 
CCC(=O)N(c1ccccc1)C1CCN(C(=O)[C@@H](N)C2CCc3ccc(Cl)cc3C2)CC1

>  <score_type>  (33) 
oracle

>  <origin>  (33) 
autodockgpu

>  <m_score__min__energy>  (33) 
-8.5199999999999996

>  <m_primary>  (33) 
energy

>  <rmsd>  (33) 
7.541017518026846

>  <m_score__min__rmsd>  (33) 
7.541017518026846

>  <meeko>  (33) 
{"free_energy": -7.42, "intermolecular_energy": -9.51, "internal_energy": -2.36, "cluster_size": 3, "cluster_id": 6, "rank_in_cluster": 1}

>  <energy>  (33) 
-7.38

>  <cluster_rmsd>  (33) 
0.59

>  <cluster>  (33) 
4

$$$$

     RDKit          3D

 64 67  0  0  0  0  0  0  0  0999 V2000
  142.9520   78.3740  217.6410 C   0  0  0  0  0  0  0  0  0  0  0  0
  142.3640   79.7780  217.9250 C   0  0  0  0  0  0  0  0  0  0  0  0
  141.3760   79.6930  218.9930 C   0  0  0  0  0  0  0  0  0  0  0  0
  140.4460   80.6050  218.8950 O   0  0  0  0  0  0  0  0  0  0  0  0
  141.2690   78.8070  220.0840 N   0  0  0  0  0  0  0  0  0  0  0  0
  141.5500   79.0530  221.4370 C   0  0  0  0  0  0  0  0  0  0  0  0
  142.3100   80.1770  221.8130 C   0  0  0  0  0  0  0  0  0  0  0  0
  142.6150   80.4490  223.1310 C   0  0  0  0  0  0  0  0  0  0  0  0
  142.1950   79.6390  224.1560 C   0  0  0  0  0  0  0  0  0  0  0  0
  141.4540   78.5390  223.8240 C   0  0  0  0  0  0  0  0  0  0  0  0
  141.1470   78.2660  222.4930 C   0  0  0  0  0  0  0  0  0  0  0  0
  140.7930   77.4620  219.7320 C   0  0  0  0  0  0  0  0  0  0  0  0
  141.6420   76.3380  220.1660 C   0  0  0  0  0  0  0  0  0  0  0  0
  140.9690   75.0330  220.4600 C   0  0  0  0  0  0  0  0  0  0  0  0
  139.5510   75.0500  220.2700 N   0  0  0  0  0  0  0  0  0  0  0  0
  138.5950   74.3370  221.0270 C   0  0  0  0  0  0  0  0  0  0  0  0
  137.3460   74.4610  220.7510 O   0  0  0  0  0  0  0  0  0  0  0  0
  138.9000   73.4280  222.1520 C   0  0  1  0  0  0  0  0  0  0  0  0
  137.6400   72.8530  222.6220 N   0  0  0  0  0  0  0  0  0  0  0  0
  139.8220   72.3160  221.6750 C   0  0  2  0  0  0  0  0  0  0  0  0
  139.1080   71.0650  221.2980 C   0  0  0  0  0  0  0  0  0  0  0  0
  138.7010   70.1690  222.4090 C   0  0  0  0  0  0  0  0  0  0  0  0
  139.3230   70.4360  223.7050 C   0  0  0  0  0  0  0  0  0  0  0  0
  138.8400   69.7700  224.8130 C   0  0  0  0  0  0  0  0  0  0  0  0
  139.3680   69.9610  226.0730 C   0  0  0  0  0  0  0  0  0  0  0  0
  140.4090   70.8470  226.2100 C   0  0  0  0  0  0  0  0  0  0  0  0
  141.0710   71.0830  227.8090 Cl  0  0  0  0  0  0  0  0  0  0  0  0
  140.8980   71.5180  225.1080 C   0  0  0  0  0  0  0  0  0  0  0  0
  140.3660   71.3260  223.8340 C   0  0  0  0  0  0  0  0  0  0  0  0
  140.9300   72.0680  222.6980 C   0  0  0  0  0  0  0  0  0  0  0  0
  139.0600   75.9070  219.1720 C   0  0  0  0  0  0  0  0  0  0  0  0
  139.3070   77.3150  219.7550 C   0  0  0  0  0  0  0  0  0  0  0  0
  143.1647   77.8661  218.5933 H   0  0  0  0  0  0  0  0  0  0  0  0
  142.2261   77.7823  217.0640 H   0  0  0  0  0  0  0  0  0  0  0  0
  143.8829   78.4762  217.0640 H   0  0  0  0  0  0  0  0  0  0  0  0
  143.1732   80.4580  218.2295 H   0  0  0  0  0  0  0  0  0  0  0  0
  141.8814   80.1606  217.0136 H   0  0  0  0  0  0  0  0  0  0  0  0
  142.6723   80.8604  221.0309 H   0  0  0  0  0  0  0  0  0  0  0  0
  143.2127   81.3418  223.3671 H   0  0  0  0  0  0  0  0  0  0  0  0
  142.4446   79.8657  225.2031 H   0  0  0  0  0  0  0  0  0  0  0  0
  141.0970   77.8634  224.6152 H   0  0  0  0  0  0  0  0  0  0  0  0
  140.5481   77.3701  222.2726 H   0  0  0  0  0  0  0  0  0  0  0  0
  140.9798   77.3555  218.6532 H   0  0  0  0  0  0  0  0  0  0  0  0
  142.3790   76.1560  219.3700 H   0  0  0  0  0  0  0  0  0  0  0  0
  142.0595   76.6603  221.1313 H   0  0  0  0  0  0  0  0  0  0  0  0
  141.3970   74.2667  219.7969 H   0  0  0  0  0  0  0  0  0  0  0  0
  141.1433   74.8196  221.5249 H   0  0  0  0  0  0  0  0  0  0  0  0
  139.3981   73.9772  222.9646 H   0  0  0  0  0  0  0  0  0  0  0  0
  137.1000   72.5620  221.7760 H   0  0  0  0  0  0  0  0  0  0  0  0
  137.0720   73.5760  223.0990 H   0  0  0  0  0  0  0  0  0  0  0  0
  140.2843   72.6640  220.7395 H   0  0  0  0  0  0  0  0  0  0  0  0
  138.1978   71.3526  220.7513 H   0  0  0  0  0  0  0  0  0  0  0  0
  139.8335   70.4843  220.7094 H   0  0  0  0  0  0  0  0  0  0  0  0
  137.6117   70.2591  222.5329 H   0  0  0  0  0  0  0  0  0  0  0  0
  139.0378   69.1629  222.1187 H   0  0  0  0  0  0  0  0  0  0  0  0
  138.0064   69.0634  224.6872 H   0  0  0  0  0  0  0  0  0  0  0  0
  138.9672   69.4197  226.9427 H   0  0  0  0  0  0  0  0  0  0  0  0
  141.7311   72.2243  225.2385 H   0  0  0  0  0  0  0  0  0  0  0  0
  141.3328   73.0300  223.0477 H   0  0  0  0  0  0  0  0  0  0  0  0
  141.7420   71.4865  222.2370 H   0  0  0  0  0  0  0  0  0  0  0  0
  139.6351   75.7470  218.2481 H   0  0  0  0  0  0  0  0  0  0  0  0
  138.0161   75.7155  218.8829 H   0  0  0  0  0  0  0  0  0  0  0  0
  138.8285   78.0852  219.1322 H   0  0  0  0  0  0  0  0  0  0  0  0
  138.8861   77.4343  220.7643 H   0  0  0  0  0  0  0  0  0  0  0  0
  1  2  1  0
  2  3  1  0
  3  4  2  0
  3  5  1  0
  5  6  1  0
  6  7  2  0
  7  8  1  0
  8  9  2  0
  9 10  1  0
 10 11  2  0
  5 12  1  0
 12 13  1  0
 13 14  1  0
 14 15  1  0
 15 16  1  0
 16 17  2  0
 16 18  1  0
 18 19  1  0
 18 20  1  0
 20 21  1  0
 21 22  1  0
 22 23  1  0
 23 24  2  0
 24 25  1  0
 25 26  2  0
 26 27  1  0
 26 28  1  0
 28 29  2  0
 29 30  1  0
 15 31  1  0
 31 32  1  0
 11  6  1  0
 32 12  1  0
 30 20  1  0
 29 23  1  0
  1 33  1  0
  1 34  1  0
  1 35  1  0
  2 36  1  0
  2 37  1  0
  7 38  1  0
  8 39  1  0
  9 40  1  0
 10 41  1  0
 11 42  1  0
 12 43  1  0
 13 44  1  0
 13 45  1  0
 14 46  1  0
 14 47  1  0
 18 48  1  1
 19 49  1  0
 19 50  1  0
 20 51  1  6
 21 52  1  0
 21 53  1  0
 22 54  1  0
 22 55  1  0
 24 56  1  0
 25 57  1  0
 28 58  1  0
 30 59  1  0
 30 60  1  0
 31 61  1  0
 31 62  1  0
 32 63  1  0
 32 64  1  0
M  END
>  <smiles>  (34) 
CCC(=O)N(c1ccccc1)C1CCN(C(=O)[C@@H](N)C2CCc3ccc(Cl)cc3C2)CC1

>  <score_type>  (34) 
oracle

>  <origin>  (34) 
autodockgpu

>  <m_score__min__energy>  (34) 
-8.5199999999999996

>  <m_primary>  (34) 
energy

>  <rmsd>  (34) 
7.396507978311348

>  <m_score__min__rmsd>  (34) 
7.396507978311348

>  <meeko>  (34) 
{"free_energy": -7.11, "intermolecular_energy": -9.2, "internal_energy": -2.46, "cluster_size": 3, "cluster_id": 6, "rank_in_cluster": 3}

>  <energy>  (34) 
-7.37

>  <cluster_rmsd>  (34) 
0.59

>  <cluster>  (34) 
4

$$$$

     RDKit          3D

 64 67  0  0  0  0  0  0  0  0999 V2000
  138.8090   67.1740  222.5030 C   0  0  0  0  0  0  0  0  0  0  0  0
  137.5080   68.0050  222.6170 C   0  0  0  0  0  0  0  0  0  0  0  0
  137.6530   69.0080  223.6650 C   0  0  0  0  0  0  0  0  0  0  0  0
  136.7340   68.9110  224.5880 O   0  0  0  0  0  0  0  0  0  0  0  0
  138.6010   70.0370  223.8330 N   0  0  0  0  0  0  0  0  0  0  0  0
  139.3870   70.3220  224.9610 C   0  0  0  0  0  0  0  0  0  0  0  0
  140.1750   71.4890  225.0020 C   0  0  0  0  0  0  0  0  0  0  0  0
  140.9680   71.8000  226.0880 C   0  0  0  0  0  0  0  0  0  0  0  0
  141.0350   70.9900  227.1940 C   0  0  0  0  0  0  0  0  0  0  0  0
  140.2810   69.8500  227.1850 C   0  0  0  0  0  0  0  0  0  0  0  0
  139.4820   69.5370  226.0880 C   0  0  0  0  0  0  0  0  0  0  0  0
  138.7760   70.9030  222.6590 C   0  0  0  0  0  0  0  0  0  0  0  0
  138.0920   72.2080  222.7050 C   0  0  0  0  0  0  0  0  0  0  0  0
  138.7160   73.3450  221.9580 C   0  0  0  0  0  0  0  0  0  0  0  0
  139.9250   73.0030  221.2730 N   0  0  0  0  0  0  0  0  0  0  0  0
  141.0460   73.8410  221.0800 C   0  0  0  0  0  0  0  0  0  0  0  0
  142.0740   73.3910  220.4550 O   0  0  0  0  0  0  0  0  0  0  0  0
  141.1600   75.2390  221.5470 C   0  0  1  0  0  0  0  0  0  0  0  0
  142.2290   75.8830  220.7860 N   0  0  0  0  0  0  0  0  0  0  0  0
  139.8470   75.9680  221.3010 C   0  0  2  0  0  0  0  0  0  0  0  0
  139.6960   76.4790  219.9110 C   0  0  0  0  0  0  0  0  0  0  0  0
  140.3930   77.7480  219.5880 C   0  0  0  0  0  0  0  0  0  0  0  0
  140.8700   78.5240  220.7320 C   0  0  0  0  0  0  0  0  0  0  0  0
  141.6930   79.6060  220.4930 C   0  0  0  0  0  0  0  0  0  0  0  0
  142.1880   80.3920  221.5130 C   0  0  0  0  0  0  0  0  0  0  0  0
  141.8380   80.0720  222.8030 C   0  0  0  0  0  0  0  0  0  0  0  0
  142.4690   81.0740  224.0880 Cl  0  0  0  0  0  0  0  0  0  0  0  0
  141.0160   78.9930  223.0510 C   0  0  0  0  0  0  0  0  0  0  0  0
  140.5140   78.1970  222.0220 C   0  0  0  0  0  0  0  0  0  0  0  0
  139.6420   77.0610  222.3480 C   0  0  0  0  0  0  0  0  0  0  0  0
  139.9870   71.6320  220.7260 C   0  0  0  0  0  0  0  0  0  0  0  0
  140.1210   70.7980  222.0170 C   0  0  0  0  0  0  0  0  0  0  0  0
  139.1815   66.9361  223.5103 H   0  0  0  0  0  0  0  0  0  0  0  0
  138.6015   66.2408  221.9589 H   0  0  0  0  0  0  0  0  0  0  0  0
  139.5685   67.7546  221.9589 H   0  0  0  0  0  0  0  0  0  0  0  0
  137.3089   68.5052  221.6578 H   0  0  0  0  0  0  0  0  0  0  0  0
  136.6709   67.3367  222.8672 H   0  0  0  0  0  0  0  0  0  0  0  0
  140.1578   72.1739  224.1414 H   0  0  0  0  0  0  0  0  0  0  0  0
  141.5639   72.7244  226.0665 H   0  0  0  0  0  0  0  0  0  0  0  0
  141.6706   71.2482  228.0539 H   0  0  0  0  0  0  0  0  0  0  0  0
  140.3055   69.1736  228.0521 H   0  0  0  0  0  0  0  0  0  0  0  0
  138.8927   68.6089  226.1242 H   0  0  0  0  0  0  0  0  0  0  0  0
  138.1514   70.4586  221.8701 H   0  0  0  0  0  0  0  0  0  0  0  0
  137.0800   72.0635  222.2987 H   0  0  0  0  0  0  0  0  0  0  0  0
  138.1379   72.5099  223.7618 H   0  0  0  0  0  0  0  0  0  0  0  0
  137.9905   73.7100  221.2161 H   0  0  0  0  0  0  0  0  0  0  0  0
  138.9808   74.1072  222.7056 H   0  0  0  0  0  0  0  0  0  0  0  0
  141.3849   75.2671  222.6234 H   0  0  0  0  0  0  0  0  0  0  0  0
  143.0760   75.2780  220.8720 H   0  0  0  0  0  0  0  0  0  0  0  0
  142.4740   76.7950  221.2130 H   0  0  0  0  0  0  0  0  0  0  0  0
  139.0434   75.2250  221.4120 H   0  0  0  0  0  0  0  0  0  0  0  0
  140.0782   75.7058  219.2283 H   0  0  0  0  0  0  0  0  0  0  0  0
  138.6245   76.7015  219.7997 H   0  0  0  0  0  0  0  0  0  0  0  0
  141.2626   77.5044  218.9599 H   0  0  0  0  0  0  0  0  0  0  0  0
  139.6433   78.3811  219.0908 H   0  0  0  0  0  0  0  0  0  0  0  0
  141.9631   79.8496  219.4549 H   0  0  0  0  0  0  0  0  0  0  0  0
  142.8434   81.2494  221.3002 H   0  0  0  0  0  0  0  0  0  0  0  0
  140.7485   78.7532  224.0907 H   0  0  0  0  0  0  0  0  0  0  0  0
  139.8987   76.6717  223.3443 H   0  0  0  0  0  0  0  0  0  0  0  0
  138.5907   77.3848  222.3499 H   0  0  0  0  0  0  0  0  0  0  0  0
  139.0701   71.3764  220.1747 H   0  0  0  0  0  0  0  0  0  0  0  0
  140.7980   71.4725  220.0002 H   0  0  0  0  0  0  0  0  0  0  0  0
  140.3611   69.7505  221.7822 H   0  0  0  0  0  0  0  0  0  0  0  0
  140.9300   71.1572  222.6700 H   0  0  0  0  0  0  0  0  0  0  0  0
  1  2  1  0
  2  3  1  0
  3  4  2  0
  3  5  1  0
  5  6  1  0
  6  7  2  0
  7  8  1  0
  8  9  2  0
  9 10  1  0
 10 11  2  0
  5 12  1  0
 12 13  1  0
 13 14  1  0
 14 15  1  0
 15 16  1  0
 16 17  2  0
 16 18  1  0
 18 19  1  0
 18 20  1  0
 20 21  1  0
 21 22  1  0
 22 23  1  0
 23 24  2  0
 24 25  1  0
 25 26  2  0
 26 27  1  0
 26 28  1  0
 28 29  2  0
 29 30  1  0
 15 31  1  0
 31 32  1  0
 11  6  1  0
 32 12  1  0
 30 20  1  0
 29 23  1  0
  1 33  1  0
  1 34  1  0
  1 35  1  0
  2 36  1  0
  2 37  1  0
  7 38  1  0
  8 39  1  0
  9 40  1  0
 10 41  1  0
 11 42  1  0
 12 43  1  0
 13 44  1  0
 13 45  1  0
 14 46  1  0
 14 47  1  0
 18 48  1  1
 19 49  1  0
 19 50  1  0
 20 51  1  1
 21 52  1  0
 21 53  1  0
 22 54  1  0
 22 55  1  0
 24 56  1  0
 25 57  1  0
 28 58  1  0
 30 59  1  0
 30 60  1  0
 31 61  1  0
 31 62  1  0
 32 63  1  0
 32 64  1  0
M  END
>  <smiles>  (35) 
CCC(=O)N(c1ccccc1)C1CCN(C(=O)[C@@H](N)C2CCc3ccc(Cl)cc3C2)CC1

>  <score_type>  (35) 
oracle

>  <origin>  (35) 
autodockgpu

>  <m_score__min__energy>  (35) 
-8.5199999999999996

>  <m_primary>  (35) 
energy

>  <rmsd>  (35) 
5.816291156062307

>  <m_score__min__rmsd>  (35) 
5.816291156062307

>  <meeko>  (35) 
{"free_energy": -8.06, "intermolecular_energy": -10.15, "internal_energy": -2.06, "cluster_size": 16, "cluster_id": 1, "rank_in_cluster": 8}

>  <energy>  (35) 
-7.28

>  <cluster_rmsd>  (35) 
0.34

>  <cluster>  (35) 
4

$$$$

     RDKit          3D

 64 67  0  0  0  0  0  0  0  0999 V2000
  137.3040   67.5590  222.2580 C   0  0  0  0  0  0  0  0  0  0  0  0
  138.7950   67.5500  222.6740 C   0  0  0  0  0  0  0  0  0  0  0  0
  138.9480   68.1850  223.9780 C   0  0  0  0  0  0  0  0  0  0  0  0
  139.2240   67.3300  224.9270 O   0  0  0  0  0  0  0  0  0  0  0  0
  138.8490   69.5370  224.3640 N   0  0  0  0  0  0  0  0  0  0  0  0
  139.5080   70.1930  225.4160 C   0  0  0  0  0  0  0  0  0  0  0  0
  139.3200   69.7710  226.7460 C   0  0  0  0  0  0  0  0  0  0  0  0
  139.9420   70.3960  227.8080 C   0  0  0  0  0  0  0  0  0  0  0  0
  140.7820   71.4670  227.6310 C   0  0  0  0  0  0  0  0  0  0  0  0
  140.9850   71.9010  226.3500 C   0  0  0  0  0  0  0  0  0  0  0  0
  140.3560   71.2690  225.2790 C   0  0  0  0  0  0  0  0  0  0  0  0
  137.9390   70.3410  223.5380 C   0  0  0  0  0  0  0  0  0  0  0  0
  136.7500   70.8840  224.2190 C   0  0  0  0  0  0  0  0  0  0  0  0
  136.1860   72.1740  223.7100 C   0  0  0  0  0  0  0  0  0  0  0  0
  136.8940   72.7230  222.5940 N   0  0  0  0  0  0  0  0  0  0  0  0
  137.0950   74.0930  222.3190 C   0  0  0  0  0  0  0  0  0  0  0  0
  137.7680   74.4410  221.2810 O   0  0  0  0  0  0  0  0  0  0  0  0
  136.5900   75.2140  223.1410 C   0  0  1  0  0  0  0  0  0  0  0  0
  137.5630   76.3030  223.0660 N   0  0  0  0  0  0  0  0  0  0  0  0
  135.2510   75.6860  222.5930 C   0  0  2  0  0  0  0  0  0  0  0  0
  134.8790   77.0610  223.0230 C   0  0  0  0  0  0  0  0  0  0  0  0
  134.3050   77.2030  224.3840 C   0  0  0  0  0  0  0  0  0  0  0  0
  133.8620   75.9640  225.0220 C   0  0  0  0  0  0  0  0  0  0  0  0
  133.5050   76.0040  226.3540 C   0  0  0  0  0  0  0  0  0  0  0  0
  133.0760   74.8830  227.0350 C   0  0  0  0  0  0  0  0  0  0  0  0
  133.0080   73.6960  226.3450 C   0  0  0  0  0  0  0  0  0  0  0  0
  132.4640   72.2820  227.2150 Cl  0  0  0  0  0  0  0  0  0  0  0  0
  133.3620   73.6460  225.0130 C   0  0  0  0  0  0  0  0  0  0  0  0
  133.7960   74.7780  224.3240 C   0  0  0  0  0  0  0  0  0  0  0  0
  134.1590   74.6630  222.9050 C   0  0  0  0  0  0  0  0  0  0  0  0
  137.4670   71.7400  221.6510 C   0  0  0  0  0  0  0  0  0  0  0  0
  138.6250   71.1570  222.4900 C   0  0  0  0  0  0  0  0  0  0  0  0
  136.6721   67.5628  223.1584 H   0  0  0  0  0  0  0  0  0  0  0  0
  137.0956   68.4584  221.6600 H   0  0  0  0  0  0  0  0  0  0  0  0
  137.0848   66.6622  221.6600 H   0  0  0  0  0  0  0  0  0  0  0  0
  139.1523   66.5112  222.7295 H   0  0  0  0  0  0  0  0  0  0  0  0
  139.3834   68.1050  221.9285 H   0  0  0  0  0  0  0  0  0  0  0  0
  138.6566   68.9164  226.9450 H   0  0  0  0  0  0  0  0  0  0  0  0
  139.7589   70.0245  228.8271 H   0  0  0  0  0  0  0  0  0  0  0  0
  141.2723   71.9567  228.4853 H   0  0  0  0  0  0  0  0  0  0  0  0
  141.6507   72.7566  226.1634 H   0  0  0  0  0  0  0  0  0  0  0  0
  140.5481   71.6518  224.2658 H   0  0  0  0  0  0  0  0  0  0  0  0
  137.4046   69.6199  222.9021 H   0  0  0  0  0  0  0  0  0  0  0  0
  135.9554   70.1267  224.1469 H   0  0  0  0  0  0  0  0  0  0  0  0
  137.0936   71.1134  225.2385 H   0  0  0  0  0  0  0  0  0  0  0  0
  135.1438   71.9986  223.4051 H   0  0  0  0  0  0  0  0  0  0  0  0
  136.2729   72.9027  224.5295 H   0  0  0  0  0  0  0  0  0  0  0  0
  136.4530   74.8937  224.1844 H   0  0  0  0  0  0  0  0  0  0  0  0
  137.2480   76.9450  222.3040 H   0  0  0  0  0  0  0  0  0  0  0  0
  138.4880   75.9370  222.7790 H   0  0  0  0  0  0  0  0  0  0  0  0
  135.3593   75.7568  221.5006 H   0  0  0  0  0  0  0  0  0  0  0  0
  135.7866   77.6809  222.9780 H   0  0  0  0  0  0  0  0  0  0  0  0
  134.0759   77.3700  222.3377 H   0  0  0  0  0  0  0  0  0  0  0  0
  135.0721   77.6581  225.0277 H   0  0  0  0  0  0  0  0  0  0  0  0
  133.3998   77.8162  224.2632 H   0  0  0  0  0  0  0  0  0  0  0  0
  133.5643   76.9619  226.8915 H   0  0  0  0  0  0  0  0  0  0  0  0
  132.7970   74.9376  228.0976 H   0  0  0  0  0  0  0  0  0  0  0  0
  133.3003   72.6862  224.4791 H   0  0  0  0  0  0  0  0  0  0  0  0
  134.5325   73.6489  222.6997 H   0  0  0  0  0  0  0  0  0  0  0  0
  133.2768   74.8536  222.2763 H   0  0  0  0  0  0  0  0  0  0  0  0
  136.7342   70.9649  221.3823 H   0  0  0  0  0  0  0  0  0  0  0  0
  137.7796   72.1687  220.6874 H   0  0  0  0  0  0  0  0  0  0  0  0
  139.2784   70.5263  221.8692 H   0  0  0  0  0  0  0  0  0  0  0  0
  139.2718   71.9372  222.9177 H   0  0  0  0  0  0  0  0  0  0  0  0
  1  2  1  0
  2  3  1  0
  3  4  2  0
  3  5  1  0
  5  6  1  0
  6  7  2  0
  7  8  1  0
  8  9  2  0
  9 10  1  0
 10 11  2  0
  5 12  1  0
 12 13  1  0
 13 14  1  0
 14 15  1  0
 15 16  1  0
 16 17  2  0
 16 18  1  0
 18 19  1  0
 18 20  1  0
 20 21  1  0
 21 22  1  0
 22 23  1  0
 23 24  2  0
 24 25  1  0
 25 26  2  0
 26 27  1  0
 26 28  1  0
 28 29  2  0
 29 30  1  0
 15 31  1  0
 31 32  1  0
 11  6  1  0
 32 12  1  0
 30 20  1  0
 29 23  1  0
  1 33  1  0
  1 34  1  0
  1 35  1  0
  2 36  1  0
  2 37  1  0
  7 38  1  0
  8 39  1  0
  9 40  1  0
 10 41  1  0
 11 42  1  0
 12 43  1  0
 13 44  1  0
 13 45  1  0
 14 46  1  0
 14 47  1  0
 18 48  1  1
 19 49  1  0
 19 50  1  0
 20 51  1  6
 21 52  1  0
 21 53  1  0
 22 54  1  0
 22 55  1  0
 24 56  1  0
 25 57  1  0
 28 58  1  0
 30 59  1  0
 30 60  1  0
 31 61  1  0
 31 62  1  0
 32 63  1  0
 32 64  1  0
M  END
>  <smiles>  (36) 
CCC(=O)N(c1ccccc1)C1CCN(C(=O)[C@@H](N)C2CCc3ccc(Cl)cc3C2)CC1

>  <score_type>  (36) 
oracle

>  <origin>  (36) 
autodockgpu

>  <m_score__min__energy>  (36) 
-8.5199999999999996

>  <m_primary>  (36) 
energy

>  <rmsd>  (36) 
8.805537153612587

>  <m_score__min__rmsd>  (36) 
8.805537153612587

>  <meeko>  (36) 
{"free_energy": -6.78, "intermolecular_energy": -8.87, "internal_energy": -2.69, "cluster_size": 2, "cluster_id": 7, "rank_in_cluster": 2}

>  <energy>  (36) 
-7.52

>  <cluster_rmsd>  (36) 
0.0

>  <cluster>  (36) 
5

$$$$

     RDKit          3D

 64 67  0  0  0  0  0  0  0  0999 V2000
  136.0120   70.3240  224.5880 C   0  0  0  0  0  0  0  0  0  0  0  0
  136.4380   69.0120  223.8840 C   0  0  0  0  0  0  0  0  0  0  0  0
  137.8510   69.0780  223.5310 C   0  0  0  0  0  0  0  0  0  0  0  0
  138.2610   68.0180  222.8870 O   0  0  0  0  0  0  0  0  0  0  0  0
  138.8160   70.0760  223.7690 N   0  0  0  0  0  0  0  0  0  0  0  0
  139.5910   70.2830  224.9210 C   0  0  0  0  0  0  0  0  0  0  0  0
  139.9730   69.1920  225.7260 C   0  0  0  0  0  0  0  0  0  0  0  0
  140.7260   69.3550  226.8720 C   0  0  0  0  0  0  0  0  0  0  0  0
  141.1500   70.5900  227.2940 C   0  0  0  0  0  0  0  0  0  0  0  0
  140.7950   71.6690  226.5330 C   0  0  0  0  0  0  0  0  0  0  0  0
  140.0350   71.5040  225.3780 C   0  0  0  0  0  0  0  0  0  0  0  0
  139.0250   71.0020  222.6470 C   0  0  0  0  0  0  0  0  0  0  0  0
  137.9920   72.0360  222.4560 C   0  0  0  0  0  0  0  0  0  0  0  0
  138.4170   73.3390  221.8520 C   0  0  0  0  0  0  0  0  0  0  0  0
  139.8090   73.4070  221.5260 N   0  0  0  0  0  0  0  0  0  0  0  0
  140.6330   74.5510  221.6010 C   0  0  0  0  0  0  0  0  0  0  0  0
  141.8770   74.4600  221.2890 O   0  0  0  0  0  0  0  0  0  0  0  0
  140.1910   75.8980  222.0220 C   0  0  1  0  0  0  0  0  0  0  0  0
  141.3740   76.6520  222.4350 N   0  0  0  0  0  0  0  0  0  0  0  0
  139.5180   76.6020  220.8530 C   0  0  2  0  0  0  0  0  0  0  0  0
  140.4560   77.3910  220.0080 C   0  0  0  0  0  0  0  0  0  0  0  0
  140.8440   78.7310  220.5150 C   0  0  0  0  0  0  0  0  0  0  0  0
  140.0250   79.2650  221.6010 C   0  0  0  0  0  0  0  0  0  0  0  0
  140.4530   80.4080  222.2440 C   0  0  0  0  0  0  0  0  0  0  0  0
  139.7420   80.9800  223.2790 C   0  0  0  0  0  0  0  0  0  0  0  0
  138.5700   80.3770  223.6680 C   0  0  0  0  0  0  0  0  0  0  0  0
  137.6770   81.1080  224.9790 Cl  0  0  0  0  0  0  0  0  0  0  0  0
  138.1340   79.2330  223.0320 C   0  0  0  0  0  0  0  0  0  0  0  0
  138.8510   78.6540  221.9860 C   0  0  0  0  0  0  0  0  0  0  0  0
  138.3360   77.4360  221.3460 C   0  0  0  0  0  0  0  0  0  0  0  0
  140.4250   72.1420  221.0730 C   0  0  0  0  0  0  0  0  0  0  0  0
  140.4580   71.3350  222.3890 C   0  0  0  0  0  0  0  0  0  0  0  0
  136.0567   70.1862  225.6784 H   0  0  0  0  0  0  0  0  0  0  0  0
  136.6926   71.1362  224.2928 H   0  0  0  0  0  0  0  0  0  0  0  0
  134.9841   70.5814  224.2928 H   0  0  0  0  0  0  0  0  0  0  0  0
  136.2702   68.1624  224.5622 H   0  0  0  0  0  0  0  0  0  0  0  0
  135.8408   68.8796  222.9698 H   0  0  0  0  0  0  0  0  0  0  0  0
  139.6618   68.1786  225.4326 H   0  0  0  0  0  0  0  0  0  0  0  0
  140.9941   68.4679  227.4646 H   0  0  0  0  0  0  0  0  0  0  0  0
  141.7512   70.7072  228.2077 H   0  0  0  0  0  0  0  0  0  0  0  0
  141.1129   72.6775  226.8362 H   0  0  0  0  0  0  0  0  0  0  0  0
  139.7741   72.4008  224.7969 H   0  0  0  0  0  0  0  0  0  0  0  0
  138.7961   70.4230  221.7401 H   0  0  0  0  0  0  0  0  0  0  0  0
  137.2158   71.6089  221.8040 H   0  0  0  0  0  0  0  0  0  0  0  0
  137.6643   72.2942  223.4738 H   0  0  0  0  0  0  0  0  0  0  0  0
  137.8384   73.4971  220.9299 H   0  0  0  0  0  0  0  0  0  0  0  0
  138.2310   74.1147  222.6094 H   0  0  0  0  0  0  0  0  0  0  0  0
  139.4736   75.8253  222.8527 H   0  0  0  0  0  0  0  0  0  0  0  0
  142.0180   76.6890  221.6130 H   0  0  0  0  0  0  0  0  0  0  0  0
  141.8800   76.1450  223.1830 H   0  0  0  0  0  0  0  0  0  0  0  0
  139.1355   75.8176  220.1834 H   0  0  0  0  0  0  0  0  0  0  0  0
  141.3762   76.7999  219.8904 H   0  0  0  0  0  0  0  0  0  0  0  0
  139.9103   77.5829  219.0724 H   0  0  0  0  0  0  0  0  0  0  0  0
  141.8814   78.6675  220.8753 H   0  0  0  0  0  0  0  0  0  0  0  0
  140.7035   79.4208  219.6698 H   0  0  0  0  0  0  0  0  0  0  0  0
  141.3929   80.8793  221.9207 H   0  0  0  0  0  0  0  0  0  0  0  0
  140.1026   81.8916  223.7779 H   0  0  0  0  0  0  0  0  0  0  0  0
  137.1942   78.7645  223.3595 H   0  0  0  0  0  0  0  0  0  0  0  0
  137.7513   76.8546  222.0741 H   0  0  0  0  0  0  0  0  0  0  0  0
  137.6881   77.7041  220.4984 H   0  0  0  0  0  0  0  0  0  0  0  0
  139.8083   71.6440  220.3103 H   0  0  0  0  0  0  0  0  0  0  0  0
  141.4078   72.2649  220.5945 H   0  0  0  0  0  0  0  0  0  0  0  0
  141.0566   70.4197  222.2711 H   0  0  0  0  0  0  0  0  0  0  0  0
  140.9173   71.8952  223.2168 H   0  0  0  0  0  0  0  0  0  0  0  0
  1  2  1  0
  2  3  1  0
  3  4  2  0
  3  5  1  0
  5  6  1  0
  6  7  2  0
  7  8  1  0
  8  9  2  0
  9 10  1  0
 10 11  2  0
  5 12  1  0
 12 13  1  0
 13 14  1  0
 14 15  1  0
 15 16  1  0
 16 17  2  0
 16 18  1  0
 18 19  1  0
 18 20  1  0
 20 21  1  0
 21 22  1  0
 22 23  1  0
 23 24  2  0
 24 25  1  0
 25 26  2  0
 26 27  1  0
 26 28  1  0
 28 29  2  0
 29 30  1  0
 15 31  1  0
 31 32  1  0
 11  6  1  0
 32 12  1  0
 30 20  1  0
 29 23  1  0
  1 33  1  0
  1 34  1  0
  1 35  1  0
  2 36  1  0
  2 37  1  0
  7 38  1  0
  8 39  1  0
  9 40  1  0
 10 41  1  0
 11 42  1  0
 12 43  1  0
 13 44  1  0
 13 45  1  0
 14 46  1  0
 14 47  1  0
 18 48  1  1
 19 49  1  0
 19 50  1  0
 20 51  1  6
 21 52  1  0
 21 53  1  0
 22 54  1  0
 22 55  1  0
 24 56  1  0
 25 57  1  0
 28 58  1  0
 30 59  1  0
 30 60  1  0
 31 61  1  0
 31 62  1  0
 32 63  1  0
 32 64  1  0
M  END
>  <smiles>  (37) 
CCC(=O)N(c1ccccc1)C1CCN(C(=O)[C@@H](N)C2CCc3ccc(Cl)cc3C2)CC1

>  <score_type>  (37) 
oracle

>  <origin>  (37) 
autodockgpu

>  <m_score__min__energy>  (37) 
-8.5199999999999996

>  <m_primary>  (37) 
energy

>  <rmsd>  (37) 
5.345324530466017

>  <m_score__min__rmsd>  (37) 
5.345324530466017

>  <meeko>  (37) 
{"free_energy": -7.47, "intermolecular_energy": -9.56, "internal_energy": -2.37, "cluster_size": 16, "cluster_id": 1, "rank_in_cluster": 16}

>  <energy>  (37) 
-7.49

>  <cluster_rmsd>  (37) 
0.21

>  <cluster>  (37) 
5

$$$$

     RDKit          3D

 64 67  0  0  0  0  0  0  0  0999 V2000
  138.7350   67.1540  222.1560 C   0  0  0  0  0  0  0  0  0  0  0  0
  137.9490   68.1300  223.0650 C   0  0  0  0  0  0  0  0  0  0  0  0
  138.8260   68.6510  224.1060 C   0  0  0  0  0  0  0  0  0  0  0  0
  139.1590   67.7450  224.9860 O   0  0  0  0  0  0  0  0  0  0  0  0
  139.3560   69.9410  224.3070 N   0  0  0  0  0  0  0  0  0  0  0  0
  139.8990   70.4880  225.4810 C   0  0  0  0  0  0  0  0  0  0  0  0
  139.6070   69.9150  226.7330 C   0  0  0  0  0  0  0  0  0  0  0  0
  140.1130   70.4270  227.9100 C   0  0  0  0  0  0  0  0  0  0  0  0
  140.9350   71.5270  227.9300 C   0  0  0  0  0  0  0  0  0  0  0  0
  141.2380   72.1060  226.7290 C   0  0  0  0  0  0  0  0  0  0  0  0
  140.7250   71.5880  225.5420 C   0  0  0  0  0  0  0  0  0  0  0  0
  139.3310   70.8030  223.1160 C   0  0  0  0  0  0  0  0  0  0  0  0
  138.2230   71.7700  223.0360 C   0  0  0  0  0  0  0  0  0  0  0  0
  138.4710   73.0500  222.3010 C   0  0  0  0  0  0  0  0  0  0  0  0
  139.7880   73.1660  221.7530 N   0  0  0  0  0  0  0  0  0  0  0  0
  140.5460   74.3520  221.6320 C   0  0  0  0  0  0  0  0  0  0  0  0
  141.7280   74.3010  221.1300 O   0  0  0  0  0  0  0  0  0  0  0  0
  140.0970   75.6990  222.0420 C   0  0  1  0  0  0  0  0  0  0  0  0
  141.2810   76.4830  222.3910 N   0  0  0  0  0  0  0  0  0  0  0  0
  139.3640   76.3670  220.8870 C   0  0  2  0  0  0  0  0  0  0  0  0
  140.2560   77.1340  219.9750 C   0  0  0  0  0  0  0  0  0  0  0  0
  140.6620   78.4890  220.4240 C   0  0  0  0  0  0  0  0  0  0  0  0
  139.8930   79.0520  221.5330 C   0  0  0  0  0  0  0  0  0  0  0  0
  140.3460   80.2150  222.1210 C   0  0  0  0  0  0  0  0  0  0  0  0
  139.6830   80.8140  223.1720 C   0  0  0  0  0  0  0  0  0  0  0  0
  138.5340   80.2180  223.6350 C   0  0  0  0  0  0  0  0  0  0  0  0
  137.7020   80.9840  224.9660 Cl  0  0  0  0  0  0  0  0  0  0  0  0
  138.0740   79.0550  223.0540 C   0  0  0  0  0  0  0  0  0  0  0  0
  138.7430   78.4480  221.9910 C   0  0  0  0  0  0  0  0  0  0  0  0
  138.2030   77.2100  221.4120 C   0  0  0  0  0  0  0  0  0  0  0  0
  140.3980   71.9070  221.2790 C   0  0  0  0  0  0  0  0  0  0  0  0
  140.6850   71.1880  222.6140 C   0  0  0  0  0  0  0  0  0  0  0  0
  139.3031   66.4486  222.7802 H   0  0  0  0  0  0  0  0  0  0  0  0
  138.0307   66.5966  221.5210 H   0  0  0  0  0  0  0  0  0  0  0  0
  139.4297   67.7233  221.5210 H   0  0  0  0  0  0  0  0  0  0  0  0
  137.5656   68.9644  222.4593 H   0  0  0  0  0  0  0  0  0  0  0  0
  137.1095   67.5943  223.5323 H   0  0  0  0  0  0  0  0  0  0  0  0
  138.9543   69.0305  226.7744 H   0  0  0  0  0  0  0  0  0  0  0  0
  139.8503   69.9397  228.8605 H   0  0  0  0  0  0  0  0  0  0  0  0
  141.3336   71.9262  228.8743 H   0  0  0  0  0  0  0  0  0  0  0  0
  141.8931   72.9892  226.6998 H   0  0  0  0  0  0  0  0  0  0  0  0
  140.9953   72.0863  224.5993 H   0  0  0  0  0  0  0  0  0  0  0  0
  138.9953   70.1581  222.2905 H   0  0  0  0  0  0  0  0  0  0  0  0
  137.3804   71.2646  222.5414 H   0  0  0  0  0  0  0  0  0  0  0  0
  138.0444   72.0764  224.0773 H   0  0  0  0  0  0  0  0  0  0  0  0
  137.7467   73.1201  221.4761 H   0  0  0  0  0  0  0  0  0  0  0  0
  138.3612   73.8622  223.0346 H   0  0  0  0  0  0  0  0  0  0  0  0
  139.4151   75.6305  222.9024 H   0  0  0  0  0  0  0  0  0  0  0  0
  141.9150   76.4690  221.5600 H   0  0  0  0  0  0  0  0  0  0  0  0
  141.7990   76.0250  223.1630 H   0  0  0  0  0  0  0  0  0  0  0  0
  138.9530   75.5622  220.2598 H   0  0  0  0  0  0  0  0  0  0  0  0
  141.1720   76.5426  219.8296 H   0  0  0  0  0  0  0  0  0  0  0  0
  139.6647   77.2971  219.0619 H   0  0  0  0  0  0  0  0  0  0  0  0
  141.7157   78.4390  220.7358 H   0  0  0  0  0  0  0  0  0  0  0  0
  140.4784   79.1537  219.5670 H   0  0  0  0  0  0  0  0  0  0  0  0
  141.2667   80.6802  221.7389 H   0  0  0  0  0  0  0  0  0  0  0  0
  140.0625   81.7412  223.6262 H   0  0  0  0  0  0  0  0  0  0  0  0
  137.1534   78.5928  223.4398 H   0  0  0  0  0  0  0  0  0  0  0  0
  137.6570   76.6479  222.1839 H   0  0  0  0  0  0  0  0  0  0  0  0
  137.5132   77.4509  220.5897 H   0  0  0  0  0  0  0  0  0  0  0  0
  139.6994   71.3315  220.6539 H   0  0  0  0  0  0  0  0  0  0  0  0
  141.2848   72.0476  220.6436 H   0  0  0  0  0  0  0  0  0  0  0  0
  141.3097   70.2972  222.4519 H   0  0  0  0  0  0  0  0  0  0  0  0
  141.2361   71.8205  223.3255 H   0  0  0  0  0  0  0  0  0  0  0  0
  1  2  1  0
  2  3  1  0
  3  4  2  0
  3  5  1  0
  5  6  1  0
  6  7  2  0
  7  8  1  0
  8  9  2  0
  9 10  1  0
 10 11  2  0
  5 12  1  0
 12 13  1  0
 13 14  1  0
 14 15  1  0
 15 16  1  0
 16 17  2  0
 16 18  1  0
 18 19  1  0
 18 20  1  0
 20 21  1  0
 21 22  1  0
 22 23  1  0
 23 24  2  0
 24 25  1  0
 25 26  2  0
 26 27  1  0
 26 28  1  0
 28 29  2  0
 29 30  1  0
 15 31  1  0
 31 32  1  0
 11  6  1  0
 32 12  1  0
 30 20  1  0
 29 23  1  0
  1 33  1  0
  1 34  1  0
  1 35  1  0
  2 36  1  0
  2 37  1  0
  7 38  1  0
  8 39  1  0
  9 40  1  0
 10 41  1  0
 11 42  1  0
 12 43  1  0
 13 44  1  0
 13 45  1  0
 14 46  1  0
 14 47  1  0
 18 48  1  1
 19 49  1  0
 19 50  1  0
 20 51  1  6
 21 52  1  0
 21 53  1  0
 22 54  1  0
 22 55  1  0
 24 56  1  0
 25 57  1  0
 28 58  1  0
 30 59  1  0
 30 60  1  0
 31 61  1  0
 31 62  1  0
 32 63  1  0
 32 64  1  0
M  END
>  <smiles>  (38) 
CCC(=O)N(c1ccccc1)C1CCN(C(=O)[C@@H](N)C2CCc3ccc(Cl)cc3C2)CC1

>  <score_type>  (38) 
oracle

>  <origin>  (38) 
autodockgpu

>  <m_score__min__energy>  (38) 
-8.5199999999999996

>  <m_primary>  (38) 
energy

>  <rmsd>  (38) 
5.653475818737652

>  <m_score__min__rmsd>  (38) 
5.653475818737652

>  <meeko>  (38) 
{"free_energy": -8.52, "intermolecular_energy": -10.61, "internal_energy": -2.15, "cluster_size": 16, "cluster_id": 1, "rank_in_cluster": 1}

>  <energy>  (38) 
-7.34

>  <cluster_rmsd>  (38) 
0.48

>  <cluster>  (38) 
5

$$$$

     RDKit          3D

 64 67  0  0  0  0  0  0  0  0999 V2000
  138.4480   67.5200  220.9230 C   0  0  0  0  0  0  0  0  0  0  0  0
  137.6800   67.9370  222.2010 C   0  0  0  0  0  0  0  0  0  0  0  0
  138.6260   68.3070  223.2470 C   0  0  0  0  0  0  0  0  0  0  0  0
  139.0960   67.2730  223.8920 O   0  0  0  0  0  0  0  0  0  0  0  0
  139.0990   69.5690  223.6590 N   0  0  0  0  0  0  0  0  0  0  0  0
  139.6500   69.9300  224.8980 C   0  0  0  0  0  0  0  0  0  0  0  0
  140.2350   71.2000  225.0740 C   0  0  0  0  0  0  0  0  0  0  0  0
  140.7950   71.5900  226.2730 C   0  0  0  0  0  0  0  0  0  0  0  0
  140.8160   70.7630  227.3680 C   0  0  0  0  0  0  0  0  0  0  0  0
  140.2560   69.5240  227.2300 C   0  0  0  0  0  0  0  0  0  0  0  0
  139.6910   69.1310  226.0190 C   0  0  0  0  0  0  0  0  0  0  0  0
  138.9990   70.6210  222.6380 C   0  0  0  0  0  0  0  0  0  0  0  0
  137.9890   71.6660  222.8780 C   0  0  0  0  0  0  0  0  0  0  0  0
  138.2590   73.0320  222.3280 C   0  0  0  0  0  0  0  0  0  0  0  0
  139.4960   73.1430  221.6160 N   0  0  0  0  0  0  0  0  0  0  0  0
  140.3410   74.2740  221.5750 C   0  0  0  0  0  0  0  0  0  0  0  0
  141.4350   74.2240  220.9020 O   0  0  0  0  0  0  0  0  0  0  0  0
  140.0840   75.5600  222.2570 C   0  0  1  0  0  0  0  0  0  0  0  0
  141.3490   76.2890  222.3370 N   0  0  0  0  0  0  0  0  0  0  0  0
  139.0770   76.3710  221.4550 C   0  0  2  0  0  0  0  0  0  0  0  0
  139.4290   76.5100  220.0150 C   0  0  0  0  0  0  0  0  0  0  0  0
  140.4420   77.5390  219.6730 C   0  0  0  0  0  0  0  0  0  0  0  0
  140.7370   78.5180  220.7180 C   0  0  0  0  0  0  0  0  0  0  0  0
  141.8040   79.3720  220.5330 C   0  0  0  0  0  0  0  0  0  0  0  0
  142.1530   80.3250  221.4680 C   0  0  0  0  0  0  0  0  0  0  0  0
  141.4000   80.4120  222.6140 C   0  0  0  0  0  0  0  0  0  0  0  0
  141.8490   81.6220  223.7920 Cl  0  0  0  0  0  0  0  0  0  0  0  0
  140.3310   79.5620  222.8080 C   0  0  0  0  0  0  0  0  0  0  0  0
  139.9770   78.5980  221.8640 C   0  0  0  0  0  0  0  0  0  0  0  0
  138.8280   77.7210  222.1260 C   0  0  0  0  0  0  0  0  0  0  0  0
  139.9120   71.9430  220.8620 C   0  0  0  0  0  0  0  0  0  0  0  0
  140.3040   70.9870  222.0080 C   0  0  0  0  0  0  0  0  0  0  0  0
  139.3822   67.0127  221.2057 H   0  0  0  0  0  0  0  0  0  0  0  0
  137.8252   66.8362  220.3276 H   0  0  0  0  0  0  0  0  0  0  0  0
  138.6823   68.4148  220.3276 H   0  0  0  0  0  0  0  0  0  0  0  0
  137.0323   68.7965  221.9737 H   0  0  0  0  0  0  0  0  0  0  0  0
  137.0667   67.0924  222.5481 H   0  0  0  0  0  0  0  0  0  0  0  0
  140.2454   71.9030  224.2281 H   0  0  0  0  0  0  0  0  0  0  0  0
  141.2378   72.5937  226.3537 H   0  0  0  0  0  0  0  0  0  0  0  0
  141.2657   71.0846  228.3190 H   0  0  0  0  0  0  0  0  0  0  0  0
  140.2514   68.8303  228.0837 H   0  0  0  0  0  0  0  0  0  0  0  0
  139.2522   68.1244  225.9543 H   0  0  0  0  0  0  0  0  0  0  0  0
  138.4961   70.1519  221.7795 H   0  0  0  0  0  0  0  0  0  0  0  0
  137.0430   71.3159  222.4393 H   0  0  0  0  0  0  0  0  0  0  0  0
  137.9820   71.8014  223.9696 H   0  0  0  0  0  0  0  0  0  0  0  0
  137.4408   73.2956  221.6416 H   0  0  0  0  0  0  0  0  0  0  0  0
  138.3276   73.7123  223.1897 H   0  0  0  0  0  0  0  0  0  0  0  0
  139.6773   75.3857  223.2641 H   0  0  0  0  0  0  0  0  0  0  0  0
  141.7470   76.3230  221.3710 H   0  0  0  0  0  0  0  0  0  0  0  0
  142.0290   75.7640  222.9160 H   0  0  0  0  0  0  0  0  0  0  0  0
  138.1353   75.8026  221.4562 H   0  0  0  0  0  0  0  0  0  0  0  0
  139.8115   75.5381  219.6700 H   0  0  0  0  0  0  0  0  0  0  0  0
  138.5031   76.8406  219.5216 H   0  0  0  0  0  0  0  0  0  0  0  0
  141.3791   77.0195  219.4239 H   0  0  0  0  0  0  0  0  0  0  0  0
  140.0119   78.1141  218.8398 H   0  0  0  0  0  0  0  0  0  0  0  0
  142.3964   79.2908  219.6097 H   0  0  0  0  0  0  0  0  0  0  0  0
  143.0089   80.9954  221.3008 H   0  0  0  0  0  0  0  0  0  0  0  0
  139.7414   79.6467  223.7328 H   0  0  0  0  0  0  0  0  0  0  0  0
  138.7108   77.5790  223.2105 H   0  0  0  0  0  0  0  0  0  0  0  0
  137.9109   78.1755  221.7231 H   0  0  0  0  0  0  0  0  0  0  0  0
  139.0835   71.5361  220.2637 H   0  0  0  0  0  0  0  0  0  0  0  0
  140.7150   72.1251  220.1326 H   0  0  0  0  0  0  0  0  0  0  0  0
  140.8124   70.0940  221.6153 H   0  0  0  0  0  0  0  0  0  0  0  0
  141.0036   71.4468  222.7215 H   0  0  0  0  0  0  0  0  0  0  0  0
  1  2  1  0
  2  3  1  0
  3  4  2  0
  3  5  1  0
  5  6  1  0
  6  7  2  0
  7  8  1  0
  8  9  2  0
  9 10  1  0
 10 11  2  0
  5 12  1  0
 12 13  1  0
 13 14  1  0
 14 15  1  0
 15 16  1  0
 16 17  2  0
 16 18  1  0
 18 19  1  0
 18 20  1  0
 20 21  1  0
 21 22  1  0
 22 23  1  0
 23 24  2  0
 24 25  1  0
 25 26  2  0
 26 27  1  0
 26 28  1  0
 28 29  2  0
 29 30  1  0
 15 31  1  0
 31 32  1  0
 11  6  1  0
 32 12  1  0
 30 20  1  0
 29 23  1  0
  1 33  1  0
  1 34  1  0
  1 35  1  0
  2 36  1  0
  2 37  1  0
  7 38  1  0
  8 39  1  0
  9 40  1  0
 10 41  1  0
 11 42  1  0
 12 43  1  0
 13 44  1  0
 13 45  1  0
 14 46  1  0
 14 47  1  0
 18 48  1  1
 19 49  1  0
 19 50  1  0
 20 51  1  6
 21 52  1  0
 21 53  1  0
 22 54  1  0
 22 55  1  0
 24 56  1  0
 25 57  1  0
 28 58  1  0
 30 59  1  0
 30 60  1  0
 31 61  1  0
 31 62  1  0
 32 63  1  0
 32 64  1  0
M  END
>  <smiles>  (39) 
CCC(=O)N(c1ccccc1)C1CCN(C(=O)[C@@H](N)C2CCc3ccc(Cl)cc3C2)CC1

>  <score_type>  (39) 
oracle

>  <origin>  (39) 
autodockgpu

>  <m_score__min__energy>  (39) 
-8.5199999999999996

>  <m_primary>  (39) 
energy

>  <rmsd>  (39) 
5.6839106467977425

>  <m_score__min__rmsd>  (39) 
5.6839106467977425

>  <meeko>  (39) 
{"free_energy": -7.63, "intermolecular_energy": -9.72, "internal_energy": -2.18, "cluster_size": 16, "cluster_id": 1, "rank_in_cluster": 14}

>  <energy>  (39) 
-7.33

>  <cluster_rmsd>  (39) 
0.51

>  <cluster>  (39) 
5

$$$$

     RDKit          3D

 64 67  0  0  0  0  0  0  0  0999 V2000
  146.3230   73.3970  221.5860 C   0  0  0  0  0  0  0  0  0  0  0  0
  145.1150   73.6120  220.6420 C   0  0  0  0  0  0  0  0  0  0  0  0
  145.0940   72.5700  219.6230 C   0  0  0  0  0  0  0  0  0  0  0  0
  145.9260   72.8030  218.6440 O   0  0  0  0  0  0  0  0  0  0  0  0
  144.3370   71.3840  219.5300 N   0  0  0  0  0  0  0  0  0  0  0  0
  144.7940   70.0720  219.3270 C   0  0  0  0  0  0  0  0  0  0  0  0
  144.1080   68.9830  219.8990 C   0  0  0  0  0  0  0  0  0  0  0  0
  144.5300   67.6800  219.7300 C   0  0  0  0  0  0  0  0  0  0  0  0
  145.6440   67.3670  218.9920 C   0  0  0  0  0  0  0  0  0  0  0  0
  146.3320   68.4030  218.4230 C   0  0  0  0  0  0  0  0  0  0  0  0
  145.9050   69.7180  218.5950 C   0  0  0  0  0  0  0  0  0  0  0  0
  142.8870   71.5730  219.6780 C   0  0  0  0  0  0  0  0  0  0  0  0
  142.3740   71.6200  221.0590 C   0  0  0  0  0  0  0  0  0  0  0  0
  141.1470   72.4380  221.3160 C   0  0  0  0  0  0  0  0  0  0  0  0
  140.6160   73.0790  220.1520 N   0  0  0  0  0  0  0  0  0  0  0  0
  139.9840   74.3410  220.1040 C   0  0  0  0  0  0  0  0  0  0  0  0
  139.5670   74.8000  218.9790 O   0  0  0  0  0  0  0  0  0  0  0  0
  139.7460   75.2230  221.2670 C   0  0  1  0  0  0  0  0  0  0  0  0
  138.9900   74.4640  222.2620 N   0  0  0  0  0  0  0  0  0  0  0  0
  141.0790   75.6570  221.8600 C   0  0  2  0  0  0  0  0  0  0  0  0
  141.0760   77.0500  222.3850 C   0  0  0  0  0  0  0  0  0  0  0  0
  141.2310   78.1390  221.3890 C   0  0  0  0  0  0  0  0  0  0  0  0
  141.6980   77.7310  220.0650 C   0  0  0  0  0  0  0  0  0  0  0  0
  141.6730   78.6620  219.0460 C   0  0  0  0  0  0  0  0  0  0  0  0
  142.0940   78.3630  217.7670 C   0  0  0  0  0  0  0  0  0  0  0  0
  142.5510   77.0900  217.5180 C   0  0  0  0  0  0  0  0  0  0  0  0
  143.0820   76.7200  215.8950 Cl  0  0  0  0  0  0  0  0  0  0  0  0
  142.5790   76.1540  218.5300 C   0  0  0  0  0  0  0  0  0  0  0  0
  142.1540   76.4540  219.8240 C   0  0  0  0  0  0  0  0  0  0  0  0
  142.2090   75.4150  220.8610 C   0  0  0  0  0  0  0  0  0  0  0  0
  140.7580   72.3310  218.8860 C   0  0  0  0  0  0  0  0  0  0  0  0
  142.2760   72.4500  218.6340 C   0  0  0  0  0  0  0  0  0  0  0  0
  145.9865   73.4569  222.6315 H   0  0  0  0  0  0  0  0  0  0  0  0
  146.7630   72.4064  221.3986 H   0  0  0  0  0  0  0  0  0  0  0  0
  147.0778   74.1749  221.3986 H   0  0  0  0  0  0  0  0  0  0  0  0
  144.1835   73.5711  221.2256 H   0  0  0  0  0  0  0  0  0  0  0  0
  145.2043   74.5945  220.1554 H   0  0  0  0  0  0  0  0  0  0  0  0
  143.2071   69.1773  220.4996 H   0  0  0  0  0  0  0  0  0  0  0  0
  143.9564   66.8680  220.2008 H   0  0  0  0  0  0  0  0  0  0  0  0
  145.9705   66.3245  218.8633 H   0  0  0  0  0  0  0  0  0  0  0  0
  147.2310   68.1961  217.8239 H   0  0  0  0  0  0  0  0  0  0  0  0
  146.4890   70.5193  218.1187 H   0  0  0  0  0  0  0  0  0  0  0  0
  142.4348   70.6075  219.4072 H   0  0  0  0  0  0  0  0  0  0  0  0
  142.1497   70.5866  221.3619 H   0  0  0  0  0  0  0  0  0  0  0  0
  143.1675   72.1191  221.6345 H   0  0  0  0  0  0  0  0  0  0  0  0
  140.3716   71.7765  221.7298 H   0  0  0  0  0  0  0  0  0  0  0  0
  141.4399   73.2379  222.0120 H   0  0  0  0  0  0  0  0  0  0  0  0
  139.1856   76.1187  220.9610 H   0  0  0  0  0  0  0  0  0  0  0  0
  138.6850   75.1400  222.9980 H   0  0  0  0  0  0  0  0  0  0  0  0
  139.6060   73.7760  222.7310 H   0  0  0  0  0  0  0  0  0  0  0  0
  141.2556   75.0270  222.7443 H   0  0  0  0  0  0  0  0  0  0  0  0
  140.1197   77.2079  222.9051 H   0  0  0  0  0  0  0  0  0  0  0  0
  141.9660   77.1180  223.0278 H   0  0  0  0  0  0  0  0  0  0  0  0
  140.2520   78.6253  221.2661 H   0  0  0  0  0  0  0  0  0  0  0  0
  142.0131   78.8004  221.7900 H   0  0  0  0  0  0  0  0  0  0  0  0
  141.3051   79.6761  219.2612 H   0  0  0  0  0  0  0  0  0  0  0  0
  142.0651   79.1203  216.9697 H   0  0  0  0  0  0  0  0  0  0  0  0
  142.9473   75.1410  218.3103 H   0  0  0  0  0  0  0  0  0  0  0  0
  142.0879   74.4243  220.3986 H   0  0  0  0  0  0  0  0  0  0  0  0
  143.1794   75.4532  221.3776 H   0  0  0  0  0  0  0  0  0  0  0  0
  140.4499   71.2814  219.0016 H   0  0  0  0  0  0  0  0  0  0  0  0
  140.1335   72.7123  218.0647 H   0  0  0  0  0  0  0  0  0  0  0  0
  142.5337   72.0946  217.6254 H   0  0  0  0  0  0  0  0  0  0  0  0
  142.6340   73.4885  218.6918 H   0  0  0  0  0  0  0  0  0  0  0  0
  1  2  1  0
  2  3  1  0
  3  4  2  0
  3  5  1  0
  5  6  1  0
  6  7  2  0
  7  8  1  0
  8  9  2  0
  9 10  1  0
 10 11  2  0
  5 12  1  0
 12 13  1  0
 13 14  1  0
 14 15  1  0
 15 16  1  0
 16 17  2  0
 16 18  1  0
 18 19  1  0
 18 20  1  0
 20 21  1  0
 21 22  1  0
 22 23  1  0
 23 24  2  0
 24 25  1  0
 25 26  2  0
 26 27  1  0
 26 28  1  0
 28 29  2  0
 29 30  1  0
 15 31  1  0
 31 32  1  0
 11  6  1  0
 32 12  1  0
 30 20  1  0
 29 23  1  0
  1 33  1  0
  1 34  1  0
  1 35  1  0
  2 36  1  0
  2 37  1  0
  7 38  1  0
  8 39  1  0
  9 40  1  0
 10 41  1  0
 11 42  1  0
 12 43  1  0
 13 44  1  0
 13 45  1  0
 14 46  1  0
 14 47  1  0
 18 48  1  6
 19 49  1  0
 19 50  1  0
 20 51  1  1
 21 52  1  0
 21 53  1  0
 22 54  1  0
 22 55  1  0
 24 56  1  0
 25 57  1  0
 28 58  1  0
 30 59  1  0
 30 60  1  0
 31 61  1  0
 31 62  1  0
 32 63  1  0
 32 64  1  0
M  END
>  <smiles>  (40) 
CCC(=O)N(c1ccccc1)C1CCN(C(=O)[C@@H](N)C2CCc3ccc(Cl)cc3C2)CC1

>  <score_type>  (40) 
oracle

>  <origin>  (40) 
autodockgpu

>  <m_score__min__energy>  (40) 
-8.5199999999999996

>  <m_primary>  (40) 
energy

>  <rmsd>  (40) 
6.657980707777608

>  <m_score__min__rmsd>  (40) 
6.657980707777608

>  <meeko>  (40) 
{"free_energy": -7.49, "intermolecular_energy": -9.58, "internal_energy": -2.49, "cluster_size": 6, "cluster_id": 5, "rank_in_cluster": 2}

>  <energy>  (40) 
-7.33

>  <cluster_rmsd>  (40) 
0.22

>  <cluster>  (40) 
5

$$$$

     RDKit          3D

 64 67  0  0  0  0  0  0  0  0999 V2000
  137.9100   80.7340  223.8290 C   0  0  0  0  0  0  0  0  0  0  0  0
  137.3830   79.8290  222.6880 C   0  0  0  0  0  0  0  0  0  0  0  0
  138.1180   78.5700  222.6770 C   0  0  0  0  0  0  0  0  0  0  0  0
  137.4020   77.5630  223.1030 O   0  0  0  0  0  0  0  0  0  0  0  0
  139.4410   78.2760  222.2900 N   0  0  0  0  0  0  0  0  0  0  0  0
  140.6020   79.0330  222.5150 C   0  0  0  0  0  0  0  0  0  0  0  0
  141.0940   79.8940  221.5150 C   0  0  0  0  0  0  0  0  0  0  0  0
  142.2370   80.6470  221.6930 C   0  0  0  0  0  0  0  0  0  0  0  0
  142.9630   80.6020  222.8570 C   0  0  0  0  0  0  0  0  0  0  0  0
  142.5110   79.7750  223.8470 C   0  0  0  0  0  0  0  0  0  0  0  0
  141.3570   79.0150  223.6660 C   0  0  0  0  0  0  0  0  0  0  0  0
  139.5980   77.0060  221.5680 C   0  0  0  0  0  0  0  0  0  0  0  0
  140.4770   76.0050  222.1960 C   0  0  0  0  0  0  0  0  0  0  0  0
  140.1780   74.5600  221.9410 C   0  0  0  0  0  0  0  0  0  0  0  0
  139.0480   74.3380  221.0910 N   0  0  0  0  0  0  0  0  0  0  0  0
  138.1280   73.2690  221.1810 C   0  0  0  0  0  0  0  0  0  0  0  0
  137.1470   73.2050  220.3540 O   0  0  0  0  0  0  0  0  0  0  0  0
  138.1830   72.1740  222.1720 C   0  0  1  0  0  0  0  0  0  0  0  0
  136.9350   71.4180  222.0790 N   0  0  0  0  0  0  0  0  0  0  0  0
  139.3590   71.2600  221.8590 C   0  0  2  0  0  0  0  0  0  0  0  0
  139.0020   69.8150  221.8240 C   0  0  0  0  0  0  0  0  0  0  0  0
  138.8890   69.1240  223.1320 C   0  0  0  0  0  0  0  0  0  0  0  0
  139.4550   69.8320  224.2790 C   0  0  0  0  0  0  0  0  0  0  0  0
  139.2070   69.3360  225.5430 C   0  0  0  0  0  0  0  0  0  0  0  0
  139.7010   69.9400  226.6800 C   0  0  0  0  0  0  0  0  0  0  0  0
  140.4650   71.0730  226.5290 C   0  0  0  0  0  0  0  0  0  0  0  0
  141.0870   71.8320  227.9750 Cl  0  0  0  0  0  0  0  0  0  0  0  0
  140.7180   71.5770  225.2700 C   0  0  0  0  0  0  0  0  0  0  0  0
  140.2190   70.9670  224.1200 C   0  0  0  0  0  0  0  0  0  0  0  0
  140.5230   71.5490  222.8050 C   0  0  0  0  0  0  0  0  0  0  0  0
  138.8390   75.3390  220.0250 C   0  0  0  0  0  0  0  0  0  0  0  0
  138.3690   76.5590  220.8450 C   0  0  0  0  0  0  0  0  0  0  0  0
  137.6503   80.2880  224.8004 H   0  0  0  0  0  0  0  0  0  0  0  0
  139.0032   80.8264  223.7485 H   0  0  0  0  0  0  0  0  0  0  0  0
  137.4509   81.7304  223.7485 H   0  0  0  0  0  0  0  0  0  0  0  0
  136.3136   79.6262  222.8471 H   0  0  0  0  0  0  0  0  0  0  0  0
  137.5239   80.3403  221.7243 H   0  0  0  0  0  0  0  0  0  0  0  0
  140.5501   79.9688  220.5618 H   0  0  0  0  0  0  0  0  0  0  0  0
  142.5762   81.3028  220.8776 H   0  0  0  0  0  0  0  0  0  0  0  0
  143.8722   81.2072  222.9879 H   0  0  0  0  0  0  0  0  0  0  0  0
  143.0635   79.7087  224.7958 H   0  0  0  0  0  0  0  0  0  0  0  0
  141.0307   78.3634  224.4900 H   0  0  0  0  0  0  0  0  0  0  0  0
  140.2528   77.2314  220.7133 H   0  0  0  0  0  0  0  0  0  0  0  0
  141.5002   76.1967  221.8405 H   0  0  0  0  0  0  0  0  0  0  0  0
  140.3200   76.1354  223.2769 H   0  0  0  0  0  0  0  0  0  0  0  0
  141.0602   74.1028  221.4692 H   0  0  0  0  0  0  0  0  0  0  0  0
  139.9355   74.1097  222.9149 H   0  0  0  0  0  0  0  0  0  0  0  0
  138.3104   72.5805  223.1862 H   0  0  0  0  0  0  0  0  0  0  0  0
  136.8180   71.1380  221.0800 H   0  0  0  0  0  0  0  0  0  0  0  0
  136.1290   72.0270  222.3100 H   0  0  0  0  0  0  0  0  0  0  0  0
  139.6797   71.4915  220.8326 H   0  0  0  0  0  0  0  0  0  0  0  0
  138.0316   69.7238  221.3141 H   0  0  0  0  0  0  0  0  0  0  0  0
  139.8402   69.3229  221.3089 H   0  0  0  0  0  0  0  0  0  0  0  0
  137.8207   68.9560  223.3333 H   0  0  0  0  0  0  0  0  0  0  0  0
  139.4775   68.2000  223.0324 H   0  0  0  0  0  0  0  0  0  0  0  0
  138.5946   68.4282  225.6469 H   0  0  0  0  0  0  0  0  0  0  0  0
  139.4901   69.5277  227.6778 H   0  0  0  0  0  0  0  0  0  0  0  0
  141.3304   72.4853  225.1707 H   0  0  0  0  0  0  0  0  0  0  0  0
  140.6581   72.6362  222.9039 H   0  0  0  0  0  0  0  0  0  0  0  0
  141.4482   71.1081  222.4055 H   0  0  0  0  0  0  0  0  0  0  0  0
  139.7728   75.5526  219.4843 H   0  0  0  0  0  0  0  0  0  0  0  0
  138.1338   75.0233  219.2421 H   0  0  0  0  0  0  0  0  0  0  0  0
  137.9943   77.3537  220.1832 H   0  0  0  0  0  0  0  0  0  0  0  0
  137.5417   76.3159  221.5280 H   0  0  0  0  0  0  0  0  0  0  0  0
  1  2  1  0
  2  3  1  0
  3  4  2  0
  3  5  1  0
  5  6  1  0
  6  7  2  0
  7  8  1  0
  8  9  2  0
  9 10  1  0
 10 11  2  0
  5 12  1  0
 12 13  1  0
 13 14  1  0
 14 15  1  0
 15 16  1  0
 16 17  2  0
 16 18  1  0
 18 19  1  0
 18 20  1  0
 20 21  1  0
 21 22  1  0
 22 23  1  0
 23 24  2  0
 24 25  1  0
 25 26  2  0
 26 27  1  0
 26 28  1  0
 28 29  2  0
 29 30  1  0
 15 31  1  0
 31 32  1  0
 11  6  1  0
 32 12  1  0
 30 20  1  0
 29 23  1  0
  1 33  1  0
  1 34  1  0
  1 35  1  0
  2 36  1  0
  2 37  1  0
  7 38  1  0
  8 39  1  0
  9 40  1  0
 10 41  1  0
 11 42  1  0
 12 43  1  0
 13 44  1  0
 13 45  1  0
 14 46  1  0
 14 47  1  0
 18 48  1  1
 19 49  1  0
 19 50  1  0
 20 51  1  6
 21 52  1  0
 21 53  1  0
 22 54  1  0
 22 55  1  0
 24 56  1  0
 25 57  1  0
 28 58  1  0
 30 59  1  0
 30 60  1  0
 31 61  1  0
 31 62  1  0
 32 63  1  0
 32 64  1  0
M  END
>  <smiles>  (41) 
CCC(=O)N(c1ccccc1)C1CCN(C(=O)[C@@H](N)C2CCc3ccc(Cl)cc3C2)CC1

>  <score_type>  (41) 
oracle

>  <origin>  (41) 
autodockgpu

>  <m_score__min__energy>  (41) 
-8.5199999999999996

>  <m_primary>  (41) 
energy

>  <rmsd>  (41) 
7.8689467678139176

>  <m_score__min__rmsd>  (41) 
7.8689467678139176

>  <meeko>  (41) 
{"free_energy": -7.51, "intermolecular_energy": -9.6, "internal_energy": -2.45, "cluster_size": 11, "cluster_id": 4, "rank_in_cluster": 2}

>  <energy>  (41) 
-7.31

>  <cluster_rmsd>  (41) 
0.48

>  <cluster>  (41) 
5

$$$$

     RDKit          3D

 64 67  0  0  0  0  0  0  0  0999 V2000
  142.5960   77.9620  216.8450 C   0  0  0  0  0  0  0  0  0  0  0  0
  143.0360   76.4780  216.8220 C   0  0  0  0  0  0  0  0  0  0  0  0
  142.3870   75.7530  217.9080 C   0  0  0  0  0  0  0  0  0  0  0  0
  141.1670   75.3900  217.6150 O   0  0  0  0  0  0  0  0  0  0  0  0
  142.8570   75.3930  219.1870 N   0  0  0  0  0  0  0  0  0  0  0  0
  143.8490   74.4570  219.5200 C   0  0  0  0  0  0  0  0  0  0  0  0
  144.8370   74.7770  220.4710 C   0  0  0  0  0  0  0  0  0  0  0  0
  145.8350   73.8880  220.8180 C   0  0  0  0  0  0  0  0  0  0  0  0
  145.9220   72.6380  220.2580 C   0  0  0  0  0  0  0  0  0  0  0  0
  144.9770   72.2980  219.3310 C   0  0  0  0  0  0  0  0  0  0  0  0
  143.9710   73.1960  218.9810 C   0  0  0  0  0  0  0  0  0  0  0  0
  142.2130   76.1100  220.2970 C   0  0  0  0  0  0  0  0  0  0  0  0
  142.0220   77.5600  220.1110 C   0  0  0  0  0  0  0  0  0  0  0  0
  140.8570   78.2000  220.7990 C   0  0  0  0  0  0  0  0  0  0  0  0
  140.0630   77.2940  221.5720 N   0  0  0  0  0  0  0  0  0  0  0  0
  138.6640   77.3530  221.7570 C   0  0  0  0  0  0  0  0  0  0  0  0
  138.0800   76.4570  222.4700 O   0  0  0  0  0  0  0  0  0  0  0  0
  137.7680   78.3820  221.1890 C   0  0  1  0  0  0  0  0  0  0  0  0
  136.6430   77.6990  220.5520 N   0  0  0  0  0  0  0  0  0  0  0  0
  137.2550   79.2840  222.3020 C   0  0  2  0  0  0  0  0  0  0  0  0
  136.8170   80.6270  221.8310 C   0  0  0  0  0  0  0  0  0  0  0  0
  137.8840   81.6300  221.5920 C   0  0  0  0  0  0  0  0  0  0  0  0
  139.1970   81.3110  222.1500 C   0  0  0  0  0  0  0  0  0  0  0  0
  140.2710   82.1020  221.7940 C   0  0  0  0  0  0  0  0  0  0  0  0
  141.5440   81.8730  222.2730 C   0  0  0  0  0  0  0  0  0  0  0  0
  141.7300   80.8170  223.1330 C   0  0  0  0  0  0  0  0  0  0  0  0
  143.3460   80.5340  223.7350 Cl  0  0  0  0  0  0  0  0  0  0  0  0
  140.6630   80.0200  223.4940 C   0  0  0  0  0  0  0  0  0  0  0  0
  139.3760   80.2500  223.0110 C   0  0  0  0  0  0  0  0  0  0  0  0
  138.2790   79.3680  223.4320 C   0  0  0  0  0  0  0  0  0  0  0  0
  140.8000   76.1950  222.2280 C   0  0  0  0  0  0  0  0  0  0  0  0
  141.1720   75.3150  221.0150 C   0  0  0  0  0  0  0  0  0  0  0  0
  142.4962   78.2987  217.8874 H   0  0  0  0  0  0  0  0  0  0  0  0
  143.3507   78.5762  216.3320 H   0  0  0  0  0  0  0  0  0  0  0  0
  141.6285   78.0656  216.3320 H   0  0  0  0  0  0  0  0  0  0  0  0
  142.7502   76.0273  215.8601 H   0  0  0  0  0  0  0  0  0  0  0  0
  144.1272   76.4209  216.9486 H   0  0  0  0  0  0  0  0  0  0  0  0
  144.8130   75.7658  220.9524 H   0  0  0  0  0  0  0  0  0  0  0  0
  146.5828   74.1908  221.5657 H   0  0  0  0  0  0  0  0  0  0  0  0
  146.7206   71.9376  220.5439 H   0  0  0  0  0  0  0  0  0  0  0  0
  145.0111   71.3060  218.8568 H   0  0  0  0  0  0  0  0  0  0  0  0
  143.2315   72.8793  218.2308 H   0  0  0  0  0  0  0  0  0  0  0  0
  142.9771   76.1817  221.0851 H   0  0  0  0  0  0  0  0  0  0  0  0
  142.9326   78.0607  220.4716 H   0  0  0  0  0  0  0  0  0  0  0  0
  141.8117   77.6783  219.0378 H   0  0  0  0  0  0  0  0  0  0  0  0
  141.2400   78.9825  221.4705 H   0  0  0  0  0  0  0  0  0  0  0  0
  140.2034   78.5991  220.0094 H   0  0  0  0  0  0  0  0  0  0  0  0
  138.3080   78.9980  220.4549 H   0  0  0  0  0  0  0  0  0  0  0  0
  136.4520   76.8360  221.1080 H   0  0  0  0  0  0  0  0  0  0  0  0
  136.9070   77.3830  219.6010 H   0  0  0  0  0  0  0  0  0  0  0  0
  136.3405   78.8172  222.6966 H   0  0  0  0  0  0  0  0  0  0  0  0
  136.2729   80.4874  220.8853 H   0  0  0  0  0  0  0  0  0  0  0  0
  136.2123   81.0384  222.6526 H   0  0  0  0  0  0  0  0  0  0  0  0
  137.9994   81.7466  220.5043 H   0  0  0  0  0  0  0  0  0  0  0  0
  137.5549   82.5435  222.1090 H   0  0  0  0  0  0  0  0  0  0  0  0
  140.1059   82.9434  221.1050 H   0  0  0  0  0  0  0  0  0  0  0  0
  142.3853   82.5163  221.9756 H   0  0  0  0  0  0  0  0  0  0  0  0
  140.8330   79.1792  224.1826 H   0  0  0  0  0  0  0  0  0  0  0  0
  138.6737   78.3644  223.6488 H   0  0  0  0  0  0  0  0  0  0  0  0
  137.8033   79.7694  224.3390 H   0  0  0  0  0  0  0  0  0  0  0  0
  141.6964   76.5648  222.7474 H   0  0  0  0  0  0  0  0  0  0  0  0
  140.2275   75.6702  223.0070 H   0  0  0  0  0  0  0  0  0  0  0  0
  141.5774   74.3468  221.3441 H   0  0  0  0  0  0  0  0  0  0  0  0
  140.3049   75.0815  220.3797 H   0  0  0  0  0  0  0  0  0  0  0  0
  1  2  1  0
  2  3  1  0
  3  4  2  0
  3  5  1  0
  5  6  1  0
  6  7  2  0
  7  8  1  0
  8  9  2  0
  9 10  1  0
 10 11  2  0
  5 12  1  0
 12 13  1  0
 13 14  1  0
 14 15  1  0
 15 16  1  0
 16 17  2  0
 16 18  1  0
 18 19  1  0
 18 20  1  0
 20 21  1  0
 21 22  1  0
 22 23  1  0
 23 24  2  0
 24 25  1  0
 25 26  2  0
 26 27  1  0
 26 28  1  0
 28 29  2  0
 29 30  1  0
 15 31  1  0
 31 32  1  0
 11  6  1  0
 32 12  1  0
 30 20  1  0
 29 23  1  0
  1 33  1  0
  1 34  1  0
  1 35  1  0
  2 36  1  0
  2 37  1  0
  7 38  1  0
  8 39  1  0
  9 40  1  0
 10 41  1  0
 11 42  1  0
 12 43  1  0
 13 44  1  0
 13 45  1  0
 14 46  1  0
 14 47  1  0
 18 48  1  6
 19 49  1  0
 19 50  1  0
 20 51  1  1
 21 52  1  0
 21 53  1  0
 22 54  1  0
 22 55  1  0
 24 56  1  0
 25 57  1  0
 28 58  1  0
 30 59  1  0
 30 60  1  0
 31 61  1  0
 31 62  1  0
 32 63  1  0
 32 64  1  0
M  END
>  <smiles>  (42) 
CCC(=O)N(c1ccccc1)C1CCN(C(=O)[C@@H](N)C2CCc3ccc(Cl)cc3C2)CC1

>  <score_type>  (42) 
oracle

>  <origin>  (42) 
autodockgpu

>  <m_score__min__energy>  (42) 
-8.5199999999999996

>  <m_primary>  (42) 
energy

>  <rmsd>  (42) 
4.199593489185728

>  <m_score__min__rmsd>  (42) 
4.199593489185728

>  <meeko>  (42) 
{"free_energy": -6.41, "intermolecular_energy": -8.49, "internal_energy": -3.0, "cluster_size": 2, "cluster_id": 9, "rank_in_cluster": 1}

>  <energy>  (42) 
-7.42

>  <cluster_rmsd>  (42) 
0.0

>  <cluster>  (42) 
6

$$$$

     RDKit          3D

 64 67  0  0  0  0  0  0  0  0999 V2000
  141.8850   78.6700  223.8010 C   0  0  0  0  0  0  0  0  0  0  0  0
  142.5560   79.7600  222.9310 C   0  0  0  0  0  0  0  0  0  0  0  0
  141.7430   80.9700  222.9400 C   0  0  0  0  0  0  0  0  0  0  0  0
  142.1180   81.8240  223.8530 O   0  0  0  0  0  0  0  0  0  0  0  0
  140.6460   81.3510  222.1410 N   0  0  0  0  0  0  0  0  0  0  0  0
  140.2480   82.6440  221.7660 C   0  0  0  0  0  0  0  0  0  0  0  0
  138.9080   83.0490  221.9230 C   0  0  0  0  0  0  0  0  0  0  0  0
  138.4760   84.3080  221.5580 C   0  0  0  0  0  0  0  0  0  0  0  0
  139.3260   85.2420  221.0230 C   0  0  0  0  0  0  0  0  0  0  0  0
  140.6340   84.8790  220.8580 C   0  0  0  0  0  0  0  0  0  0  0  0
  141.0690   83.6080  221.2260 C   0  0  0  0  0  0  0  0  0  0  0  0
  139.8370   80.2300  221.6410 C   0  0  0  0  0  0  0  0  0  0  0  0
  140.4260   79.4390  220.5470 C   0  0  0  0  0  0  0  0  0  0  0  0
  140.0480   77.9940  220.4540 C   0  0  0  0  0  0  0  0  0  0  0  0
  139.1340   77.5610  221.4660 N   0  0  0  0  0  0  0  0  0  0  0  0
  139.1000   76.2880  222.0780 C   0  0  0  0  0  0  0  0  0  0  0  0
  138.2270   76.0450  222.9890 O   0  0  0  0  0  0  0  0  0  0  0  0
  140.0070   75.1640  221.7630 C   0  0  1  0  0  0  0  0  0  0  0  0
  139.4370   73.9490  222.3450 N   0  0  0  0  0  0  0  0  0  0  0  0
  140.1190   75.0040  220.2540 C   0  0  2  0  0  0  0  0  0  0  0  0
  139.6540   73.6810  219.7550 C   0  0  0  0  0  0  0  0  0  0  0  0
  140.6030   72.5480  219.8860 C   0  0  0  0  0  0  0  0  0  0  0  0
  141.9900   72.9070  220.1770 C   0  0  0  0  0  0  0  0  0  0  0  0
  142.8740   71.8990  220.5040 C   0  0  0  0  0  0  0  0  0  0  0  0
  144.2000   72.1480  220.7930 C   0  0  0  0  0  0  0  0  0  0  0  0
  144.6370   73.4500  220.7470 C   0  0  0  0  0  0  0  0  0  0  0  0
  146.3170   73.7570  221.1150 Cl  0  0  0  0  0  0  0  0  0  0  0  0
  143.7610   74.4650  220.4220 C   0  0  0  0  0  0  0  0  0  0  0  0
  142.4200   74.2150  220.1300 C   0  0  0  0  0  0  0  0  0  0  0  0
  141.5350   75.3370  219.7880 C   0  0  0  0  0  0  0  0  0  0  0  0
  138.1390   78.5620  221.9030 C   0  0  0  0  0  0  0  0  0  0  0  0
  139.0280   79.5450  222.6940 C   0  0  0  0  0  0  0  0  0  0  0  0
  142.0316   78.9082  224.8648 H   0  0  0  0  0  0  0  0  0  0  0  0
  140.8084   78.6344  223.5783 H   0  0  0  0  0  0  0  0  0  0  0  0
  142.3381   77.6927  223.5783 H   0  0  0  0  0  0  0  0  0  0  0  0
  143.5533   79.9873  223.3356 H   0  0  0  0  0  0  0  0  0  0  0  0
  142.6494   79.3933  221.8981 H   0  0  0  0  0  0  0  0  0  0  0  0
  138.1834   82.3399  222.3497 H   0  0  0  0  0  0  0  0  0  0  0  0
  137.4173   84.5704  221.7006 H   0  0  0  0  0  0  0  0  0  0  0  0
  138.9698   86.2430  220.7381 H   0  0  0  0  0  0  0  0  0  0  0  0
  141.3492   85.5973  220.4308 H   0  0  0  0  0  0  0  0  0  0  0  0
  142.1302   83.3602  221.0764 H   0  0  0  0  0  0  0  0  0  0  0  0
  139.0328   80.6883  221.0466 H   0  0  0  0  0  0  0  0  0  0  0  0
  140.1329   79.9172  219.6007 H   0  0  0  0  0  0  0  0  0  0  0  0
  141.5055   79.4318  220.7580 H   0  0  0  0  0  0  0  0  0  0  0  0
  139.5828   77.8215  219.4722 H   0  0  0  0  0  0  0  0  0  0  0  0
  140.9729   77.4154  220.5946 H   0  0  0  0  0  0  0  0  0  0  0  0
  141.0098   75.3532  222.1737 H   0  0  0  0  0  0  0  0  0  0  0  0
  138.4560   74.1710  222.6230 H   0  0  0  0  0  0  0  0  0  0  0  0
  139.9400   73.6980  223.2150 H   0  0  0  0  0  0  0  0  0  0  0  0
  139.4254   75.7292  219.8035 H   0  0  0  0  0  0  0  0  0  0  0  0
  138.7416   73.4174  220.3101 H   0  0  0  0  0  0  0  0  0  0  0  0
  139.5111   73.8145  218.6725 H   0  0  0  0  0  0  0  0  0  0  0  0
  140.2446   71.9006  220.6999 H   0  0  0  0  0  0  0  0  0  0  0  0
  140.6223   72.0605  218.9001 H   0  0  0  0  0  0  0  0  0  0  0  0
  142.5091   70.8618  220.5353 H   0  0  0  0  0  0  0  0  0  0  0  0
  144.8867   71.3288  221.0525 H   0  0  0  0  0  0  0  0  0  0  0  0
  144.1304   75.5007  220.3923 H   0  0  0  0  0  0  0  0  0  0  0  0
  141.8848   76.2508  220.2907 H   0  0  0  0  0  0  0  0  0  0  0  0
  141.5424   75.5020  218.7005 H   0  0  0  0  0  0  0  0  0  0  0  0
  137.6590   79.0544  221.0444 H   0  0  0  0  0  0  0  0  0  0  0  0
  137.3030   78.1435  222.4827 H   0  0  0  0  0  0  0  0  0  0  0  0
  138.4128   80.2698  223.2473 H   0  0  0  0  0  0  0  0  0  0  0  0
  139.6527   79.0396  223.4453 H   0  0  0  0  0  0  0  0  0  0  0  0
  1  2  1  0
  2  3  1  0
  3  4  2  0
  3  5  1  0
  5  6  1  0
  6  7  2  0
  7  8  1  0
  8  9  2  0
  9 10  1  0
 10 11  2  0
  5 12  1  0
 12 13  1  0
 13 14  1  0
 14 15  1  0
 15 16  1  0
 16 17  2  0
 16 18  1  0
 18 19  1  0
 18 20  1  0
 20 21  1  0
 21 22  1  0
 22 23  1  0
 23 24  2  0
 24 25  1  0
 25 26  2  0
 26 27  1  0
 26 28  1  0
 28 29  2  0
 29 30  1  0
 15 31  1  0
 31 32  1  0
 11  6  1  0
 32 12  1  0
 30 20  1  0
 29 23  1  0
  1 33  1  0
  1 34  1  0
  1 35  1  0
  2 36  1  0
  2 37  1  0
  7 38  1  0
  8 39  1  0
  9 40  1  0
 10 41  1  0
 11 42  1  0
 12 43  1  0
 13 44  1  0
 13 45  1  0
 14 46  1  0
 14 47  1  0
 18 48  1  1
 19 49  1  0
 19 50  1  0
 20 51  1  6
 21 52  1  0
 21 53  1  0
 22 54  1  0
 22 55  1  0
 24 56  1  0
 25 57  1  0
 28 58  1  0
 30 59  1  0
 30 60  1  0
 31 61  1  0
 31 62  1  0
 32 63  1  0
 32 64  1  0
M  END
>  <smiles>  (43) 
CCC(=O)N(c1ccccc1)C1CCN(C(=O)[C@@H](N)C2CCc3ccc(Cl)cc3C2)CC1

>  <score_type>  (43) 
oracle

>  <origin>  (43) 
autodockgpu

>  <m_score__min__energy>  (43) 
-8.5199999999999996

>  <m_primary>  (43) 
energy

>  <rmsd>  (43) 
6.353147826903455

>  <m_score__min__rmsd>  (43) 
6.353147826903455

>  <meeko>  (43) 
{"free_energy": -7.64, "intermolecular_energy": -9.73, "internal_energy": -2.4, "cluster_size": 5, "cluster_id": 2, "rank_in_cluster": 1}

>  <energy>  (43) 
-7.33

>  <cluster_rmsd>  (43) 
0.44

>  <cluster>  (43) 
6

$$$$

     RDKit          3D

 64 67  0  0  0  0  0  0  0  0999 V2000
  138.3570   67.2570  222.2840 C   0  0  0  0  0  0  0  0  0  0  0  0
  137.1060   68.0920  222.6510 C   0  0  0  0  0  0  0  0  0  0  0  0
  137.4260   69.0070  223.7400 C   0  0  0  0  0  0  0  0  0  0  0  0
  136.6000   68.9020  224.7470 O   0  0  0  0  0  0  0  0  0  0  0  0
  138.4550   69.9600  223.8730 N   0  0  0  0  0  0  0  0  0  0  0  0
  139.3060   70.1780  224.9690 C   0  0  0  0  0  0  0  0  0  0  0  0
  139.4910   69.1710  225.9360 C   0  0  0  0  0  0  0  0  0  0  0  0
  140.3100   69.3490  227.0320 C   0  0  0  0  0  0  0  0  0  0  0  0
  140.9960   70.5190  227.2440 C   0  0  0  0  0  0  0  0  0  0  0  0
  140.8380   71.5150  226.3230 C   0  0  0  0  0  0  0  0  0  0  0  0
  140.0090   71.3350  225.2170 C   0  0  0  0  0  0  0  0  0  0  0  0
  138.6470   70.8190  222.6960 C   0  0  0  0  0  0  0  0  0  0  0  0
  137.9940   72.1390  222.7400 C   0  0  0  0  0  0  0  0  0  0  0  0
  138.6420   73.2590  221.9870 C   0  0  0  0  0  0  0  0  0  0  0  0
  139.8420   72.8880  221.3010 N   0  0  0  0  0  0  0  0  0  0  0  0
  140.9810   73.6990  221.1040 C   0  0  0  0  0  0  0  0  0  0  0  0
  141.9970   73.2240  220.4780 O   0  0  0  0  0  0  0  0  0  0  0  0
  141.1270   75.0950  221.5660 C   0  0  1  0  0  0  0  0  0  0  0  0
  142.1960   75.7190  220.7870 N   0  0  0  0  0  0  0  0  0  0  0  0
  139.8240   75.8480  221.3390 C   0  0  2  0  0  0  0  0  0  0  0  0
  139.6700   76.3770  219.9560 C   0  0  0  0  0  0  0  0  0  0  0  0
  140.3850   77.6390  219.6420 C   0  0  0  0  0  0  0  0  0  0  0  0
  140.8830   78.3940  220.7910 C   0  0  0  0  0  0  0  0  0  0  0  0
  141.7210   79.4650  220.5580 C   0  0  0  0  0  0  0  0  0  0  0  0
  142.2360   80.2320  221.5830 C   0  0  0  0  0  0  0  0  0  0  0  0
  141.8910   79.9030  222.8720 C   0  0  0  0  0  0  0  0  0  0  0  0
  142.5490   80.8790  224.1630 Cl  0  0  0  0  0  0  0  0  0  0  0  0
  141.0540   78.8340  223.1140 C   0  0  0  0  0  0  0  0  0  0  0  0
  140.5320   78.0580  222.0800 C   0  0  0  0  0  0  0  0  0  0  0  0
  139.6450   76.9320  222.4010 C   0  0  0  0  0  0  0  0  0  0  0  0
  139.8710   71.5140  220.7580 C   0  0  0  0  0  0  0  0  0  0  0  0
  139.9890   70.6810  222.0520 C   0  0  0  0  0  0  0  0  0  0  0  0
  138.8578   66.9228  223.2046 H   0  0  0  0  0  0  0  0  0  0  0  0
  138.0524   66.3805  221.6933 H   0  0  0  0  0  0  0  0  0  0  0  0
  139.0497   67.8745  221.6933 H   0  0  0  0  0  0  0  0  0  0  0  0
  136.7813   68.6690  221.7726 H   0  0  0  0  0  0  0  0  0  0  0  0
  136.2985   67.4163  222.9693 H   0  0  0  0  0  0  0  0  0  0  0  0
  138.9659   68.2122  225.8136 H   0  0  0  0  0  0  0  0  0  0  0  0
  140.4164   68.5290  227.7575 H   0  0  0  0  0  0  0  0  0  0  0  0
  141.6472   70.6492  228.1209 H   0  0  0  0  0  0  0  0  0  0  0  0
  141.3702   72.4686  226.4553 H   0  0  0  0  0  0  0  0  0  0  0  0
  139.9111   72.1649  224.5017 H   0  0  0  0  0  0  0  0  0  0  0  0
  138.0101   70.3880  221.9095 H   0  0  0  0  0  0  0  0  0  0  0  0
  136.9776   72.0168  222.3376 H   0  0  0  0  0  0  0  0  0  0  0  0
  138.0504   72.4431  223.7956 H   0  0  0  0  0  0  0  0  0  0  0  0
  137.9233   73.6370  221.2450 H   0  0  0  0  0  0  0  0  0  0  0  0
  138.9252   74.0179  222.7312 H   0  0  0  0  0  0  0  0  0  0  0  0
  141.3687   75.1201  222.6388 H   0  0  0  0  0  0  0  0  0  0  0  0
  142.1740   75.2890  219.8350 H   0  0  0  0  0  0  0  0  0  0  0  0
  143.1200   75.4840  221.1940 H   0  0  0  0  0  0  0  0  0  0  0  0
  139.0091   75.1172  221.4478 H   0  0  0  0  0  0  0  0  0  0  0  0
  140.0344   75.6057  219.2615 H   0  0  0  0  0  0  0  0  0  0  0  0
  138.6013   76.6174  219.8556 H   0  0  0  0  0  0  0  0  0  0  0  0
  141.2457   77.3890  219.0044 H   0  0  0  0  0  0  0  0  0  0  0  0
  139.6418   78.2896  219.1579 H   0  0  0  0  0  0  0  0  0  0  0  0
  141.9874   79.7158  219.5206 H   0  0  0  0  0  0  0  0  0  0  0  0
  142.9029   81.0816  221.3745 H   0  0  0  0  0  0  0  0  0  0  0  0
  140.7906   78.5864  224.1529 H   0  0  0  0  0  0  0  0  0  0  0  0
  139.9043   76.5271  223.3904 H   0  0  0  0  0  0  0  0  0  0  0  0
  138.5990   77.2720  222.4164 H   0  0  0  0  0  0  0  0  0  0  0  0
  138.9471   71.2779  220.2097 H   0  0  0  0  0  0  0  0  0  0  0  0
  140.6762   71.3336  220.0306 H   0  0  0  0  0  0  0  0  0  0  0  0
  140.2048   69.6276  221.8203 H   0  0  0  0  0  0  0  0  0  0  0  0
  140.8074   71.0236  222.7023 H   0  0  0  0  0  0  0  0  0  0  0  0
  1  2  1  0
  2  3  1  0
  3  4  2  0
  3  5  1  0
  5  6  1  0
  6  7  2  0
  7  8  1  0
  8  9  2  0
  9 10  1  0
 10 11  2  0
  5 12  1  0
 12 13  1  0
 13 14  1  0
 14 15  1  0
 15 16  1  0
 16 17  2  0
 16 18  1  0
 18 19  1  0
 18 20  1  0
 20 21  1  0
 21 22  1  0
 22 23  1  0
 23 24  2  0
 24 25  1  0
 25 26  2  0
 26 27  1  0
 26 28  1  0
 28 29  2  0
 29 30  1  0
 15 31  1  0
 31 32  1  0
 11  6  1  0
 32 12  1  0
 30 20  1  0
 29 23  1  0
  1 33  1  0
  1 34  1  0
  1 35  1  0
  2 36  1  0
  2 37  1  0
  7 38  1  0
  8 39  1  0
  9 40  1  0
 10 41  1  0
 11 42  1  0
 12 43  1  0
 13 44  1  0
 13 45  1  0
 14 46  1  0
 14 47  1  0
 18 48  1  1
 19 49  1  0
 19 50  1  0
 20 51  1  1
 21 52  1  0
 21 53  1  0
 22 54  1  0
 22 55  1  0
 24 56  1  0
 25 57  1  0
 28 58  1  0
 30 59  1  0
 30 60  1  0
 31 61  1  0
 31 62  1  0
 32 63  1  0
 32 64  1  0
M  END
>  <smiles>  (44) 
CCC(=O)N(c1ccccc1)C1CCN(C(=O)[C@@H](N)C2CCc3ccc(Cl)cc3C2)CC1

>  <score_type>  (44) 
oracle

>  <origin>  (44) 
autodockgpu

>  <m_score__min__energy>  (44) 
-8.5199999999999996

>  <m_primary>  (44) 
energy

>  <rmsd>  (44) 
5.934407035490626

>  <m_score__min__rmsd>  (44) 
5.934407035490626

>  <meeko>  (44) 
{"free_energy": -7.59, "intermolecular_energy": -9.68, "internal_energy": -2.32, "cluster_size": 16, "cluster_id": 1, "rank_in_cluster": 15}

>  <energy>  (44) 
-7.11

>  <cluster_rmsd>  (44) 
0.79

>  <cluster>  (44) 
6

$$$$

     RDKit          3D

 64 67  0  0  0  0  0  0  0  0999 V2000
  137.6540   80.4870  224.0330 C   0  0  0  0  0  0  0  0  0  0  0  0
  137.1470   79.3510  223.1100 C   0  0  0  0  0  0  0  0  0  0  0  0
  138.0690   79.1730  221.9950 C   0  0  0  0  0  0  0  0  0  0  0  0
  137.5740   79.5870  220.8590 O   0  0  0  0  0  0  0  0  0  0  0  0
  139.3730   78.6400  221.9500 N   0  0  0  0  0  0  0  0  0  0  0  0
  140.5600   79.1970  222.4520 C   0  0  0  0  0  0  0  0  0  0  0  0
  141.4020   79.9510  221.6120 C   0  0  0  0  0  0  0  0  0  0  0  0
  142.5810   80.5070  222.0640 C   0  0  0  0  0  0  0  0  0  0  0  0
  143.0040   80.3600  223.3610 C   0  0  0  0  0  0  0  0  0  0  0  0
  142.2080   79.6330  224.2020 C   0  0  0  0  0  0  0  0  0  0  0  0
  141.0180   79.0720  223.7440 C   0  0  0  0  0  0  0  0  0  0  0  0
  139.4730   77.3270  221.2970 C   0  0  0  0  0  0  0  0  0  0  0  0
  140.4710   76.3970  221.8560 C   0  0  0  0  0  0  0  0  0  0  0  0
  140.1930   74.9310  221.7410 C   0  0  0  0  0  0  0  0  0  0  0  0
  138.9620   74.6170  221.0810 N   0  0  0  0  0  0  0  0  0  0  0  0
  138.1060   73.5320  221.3720 C   0  0  0  0  0  0  0  0  0  0  0  0
  137.0200   73.3830  220.7020 O   0  0  0  0  0  0  0  0  0  0  0  0
  138.3430   72.5120  222.4150 C   0  0  1  0  0  0  0  0  0  0  0  0
  137.1620   71.6530  222.4830 N   0  0  0  0  0  0  0  0  0  0  0  0
  139.5610   71.6770  222.0440 C   0  0  2  0  0  0  0  0  0  0  0  0
  139.2540   70.2370  221.8210 C   0  0  0  0  0  0  0  0  0  0  0  0
  139.1150   69.3900  223.0320 C   0  0  0  0  0  0  0  0  0  0  0  0
  139.6120   69.9700  224.2780 C   0  0  0  0  0  0  0  0  0  0  0  0
  139.3330   69.3170  225.4620 C   0  0  0  0  0  0  0  0  0  0  0  0
  139.7620   69.7940  226.6830 C   0  0  0  0  0  0  0  0  0  0  0  0
  140.4920   70.9590  226.7010 C   0  0  0  0  0  0  0  0  0  0  0  0
  141.0320   71.5550  228.2520 Cl  0  0  0  0  0  0  0  0  0  0  0  0
  140.7760   71.6180  225.5230 C   0  0  0  0  0  0  0  0  0  0  0  0
  140.3430   71.1380  224.2880 C   0  0  0  0  0  0  0  0  0  0  0  0
  140.6770   71.8830  223.0670 C   0  0  0  0  0  0  0  0  0  0  0  0
  138.5660   75.5350  219.9930 C   0  0  0  0  0  0  0  0  0  0  0  0
  138.1710   76.7960  220.7910 C   0  0  0  0  0  0  0  0  0  0  0  0
  137.5222   80.1916  225.0844 H   0  0  0  0  0  0  0  0  0  0  0  0
  138.7201   80.6720  223.8351 H   0  0  0  0  0  0  0  0  0  0  0  0
  137.0798   81.4041  223.8351 H   0  0  0  0  0  0  0  0  0  0  0  0
  137.0831   78.4149  223.6842 H   0  0  0  0  0  0  0  0  0  0  0  0
  136.1527   79.6154  222.7208 H   0  0  0  0  0  0  0  0  0  0  0  0
  141.1104   80.1015  220.5621 H   0  0  0  0  0  0  0  0  0  0  0  0
  143.2007   81.0857  221.3633 H   0  0  0  0  0  0  0  0  0  0  0  0
  143.9456   80.8090  223.7101 H   0  0  0  0  0  0  0  0  0  0  0  0
  142.5101   79.4898  225.2500 H   0  0  0  0  0  0  0  0  0  0  0  0
  140.4091   78.4957  224.4561 H   0  0  0  0  0  0  0  0  0  0  0  0
  139.9892   77.5097  220.3430 H   0  0  0  0  0  0  0  0  0  0  0  0
  141.4252   76.5921  221.3448 H   0  0  0  0  0  0  0  0  0  0  0  0
  140.4654   76.5983  222.9374 H   0  0  0  0  0  0  0  0  0  0  0  0
  141.0152   74.4673  221.1763 H   0  0  0  0  0  0  0  0  0  0  0  0
  140.1091   74.5438  222.7672 H   0  0  0  0  0  0  0  0  0  0  0  0
  138.5243   72.9924  223.3878 H   0  0  0  0  0  0  0  0  0  0  0  0
  136.9620   71.3260  221.5110 H   0  0  0  0  0  0  0  0  0  0  0  0
  136.3360   72.2030  222.7840 H   0  0  0  0  0  0  0  0  0  0  0  0
  139.9137   72.0400  221.0674 H   0  0  0  0  0  0  0  0  0  0  0  0
  138.3071   70.1804  221.2641 H   0  0  0  0  0  0  0  0  0  0  0  0
  140.1266   69.8348  221.2854 H   0  0  0  0  0  0  0  0  0  0  0  0
  138.0462   69.1676  223.1667 H   0  0  0  0  0  0  0  0  0  0  0  0
  139.7386   68.5028  222.8475 H   0  0  0  0  0  0  0  0  0  0  0  0
  138.7491   68.3853  225.4305 H   0  0  0  0  0  0  0  0  0  0  0  0
  139.5271   69.2583  227.6146 H   0  0  0  0  0  0  0  0  0  0  0  0
  141.3609   72.5489  225.5592 H   0  0  0  0  0  0  0  0  0  0  0  0
  140.7709   72.9537  223.3012 H   0  0  0  0  0  0  0  0  0  0  0  0
  141.6313   71.5206  222.6572 H   0  0  0  0  0  0  0  0  0  0  0  0
  139.4049   75.7365  219.3106 H   0  0  0  0  0  0  0  0  0  0  0  0
  137.7693   75.1455  219.3422 H   0  0  0  0  0  0  0  0  0  0  0  0
  137.6755   77.5313  220.1400 H   0  0  0  0  0  0  0  0  0  0  0  0
  137.4593   76.5784  221.6010 H   0  0  0  0  0  0  0  0  0  0  0  0
  1  2  1  0
  2  3  1  0
  3  4  2  0
  3  5  1  0
  5  6  1  0
  6  7  2  0
  7  8  1  0
  8  9  2  0
  9 10  1  0
 10 11  2  0
  5 12  1  0
 12 13  1  0
 13 14  1  0
 14 15  1  0
 15 16  1  0
 16 17  2  0
 16 18  1  0
 18 19  1  0
 18 20  1  0
 20 21  1  0
 21 22  1  0
 22 23  1  0
 23 24  2  0
 24 25  1  0
 25 26  2  0
 26 27  1  0
 26 28  1  0
 28 29  2  0
 29 30  1  0
 15 31  1  0
 31 32  1  0
 11  6  1  0
 32 12  1  0
 30 20  1  0
 29 23  1  0
  1 33  1  0
  1 34  1  0
  1 35  1  0
  2 36  1  0
  2 37  1  0
  7 38  1  0
  8 39  1  0
  9 40  1  0
 10 41  1  0
 11 42  1  0
 12 43  1  0
 13 44  1  0
 13 45  1  0
 14 46  1  0
 14 47  1  0
 18 48  1  1
 19 49  1  0
 19 50  1  0
 20 51  1  6
 21 52  1  0
 21 53  1  0
 22 54  1  0
 22 55  1  0
 24 56  1  0
 25 57  1  0
 28 58  1  0
 30 59  1  0
 30 60  1  0
 31 61  1  0
 31 62  1  0
 32 63  1  0
 32 64  1  0
M  END
>  <smiles>  (45) 
CCC(=O)N(c1ccccc1)C1CCN(C(=O)[C@@H](N)C2CCc3ccc(Cl)cc3C2)CC1

>  <score_type>  (45) 
oracle

>  <origin>  (45) 
autodockgpu

>  <m_score__min__energy>  (45) 
-8.5199999999999996

>  <m_primary>  (45) 
energy

>  <rmsd>  (45) 
7.756768572044671

>  <m_score__min__rmsd>  (45) 
7.756768572044671

>  <meeko>  (45) 
{"free_energy": -7.38, "intermolecular_energy": -9.47, "internal_energy": -2.55, "cluster_size": 11, "cluster_id": 4, "rank_in_cluster": 9}

>  <energy>  (45) 
-6.95

>  <cluster_rmsd>  (45) 
0.0

>  <cluster>  (45) 
7

$$$$

     RDKit          3D

 64 67  0  0  0  0  0  0  0  0999 V2000
  137.8950   81.3230  222.5910 C   0  0  0  0  0  0  0  0  0  0  0  0
  137.3000   80.0810  221.8840 C   0  0  0  0  0  0  0  0  0  0  0  0
  137.9530   78.8730  222.3740 C   0  0  0  0  0  0  0  0  0  0  0  0
  137.1640   78.1340  223.1060 O   0  0  0  0  0  0  0  0  0  0  0  0
  139.2640   78.3920  222.1860 N   0  0  0  0  0  0  0  0  0  0  0  0
  140.4750   78.9890  222.5730 C   0  0  0  0  0  0  0  0  0  0  0  0
  141.3140   79.5840  221.6110 C   0  0  0  0  0  0  0  0  0  0  0  0
  142.5160   80.1720  221.9500 C   0  0  0  0  0  0  0  0  0  0  0  0
  142.9660   80.2120  223.2460 C   0  0  0  0  0  0  0  0  0  0  0  0
  142.1730   79.6430  224.2030 C   0  0  0  0  0  0  0  0  0  0  0  0
  140.9610   79.0490  223.8600 C   0  0  0  0  0  0  0  0  0  0  0  0
  139.3460   77.0950  221.5010 C   0  0  0  0  0  0  0  0  0  0  0  0
  140.3460   76.1460  222.0220 C   0  0  0  0  0  0  0  0  0  0  0  0
  140.0570   74.6840  221.8790 C   0  0  0  0  0  0  0  0  0  0  0  0
  138.8140   74.3940  221.2310 N   0  0  0  0  0  0  0  0  0  0  0  0
  137.9550   73.3080  221.5110 C   0  0  0  0  0  0  0  0  0  0  0  0
  136.8580   73.1810  220.8550 O   0  0  0  0  0  0  0  0  0  0  0  0
  138.2020   72.2620  222.5260 C   0  0  1  0  0  0  0  0  0  0  0  0
  137.0430   71.3710  222.5480 N   0  0  0  0  0  0  0  0  0  0  0  0
  139.4470   71.4700  222.1520 C   0  0  2  0  0  0  0  0  0  0  0  0
  139.1990   70.0150  221.9650 C   0  0  0  0  0  0  0  0  0  0  0  0
  139.1160   69.1890  223.1950 C   0  0  0  0  0  0  0  0  0  0  0  0
  139.6090   69.8170  224.4200 C   0  0  0  0  0  0  0  0  0  0  0  0
  139.3780   69.1790  225.6220 C   0  0  0  0  0  0  0  0  0  0  0  0
  139.8070   69.7000  226.8250 C   0  0  0  0  0  0  0  0  0  0  0  0
  140.4880   70.8940  226.8050 C   0  0  0  0  0  0  0  0  0  0  0  0
  141.0280   71.5470  228.3330 Cl  0  0  0  0  0  0  0  0  0  0  0  0
  140.7230   71.5390  225.6090 C   0  0  0  0  0  0  0  0  0  0  0  0
  140.2900   71.0140  224.3920 C   0  0  0  0  0  0  0  0  0  0  0  0
  140.5710   71.7460  223.1490 C   0  0  0  0  0  0  0  0  0  0  0  0
  138.4060   75.3390  220.1710 C   0  0  0  0  0  0  0  0  0  0  0  0
  138.0330   76.5830  221.0040 C   0  0  0  0  0  0  0  0  0  0  0  0
  137.8313   81.1900  223.6811 H   0  0  0  0  0  0  0  0  0  0  0  0
  138.9482   81.4427  222.2972 H   0  0  0  0  0  0  0  0  0  0  0  0
  137.3283   82.2188  222.2972 H   0  0  0  0  0  0  0  0  0  0  0  0
  136.2216   80.0235  222.0932 H   0  0  0  0  0  0  0  0  0  0  0  0
  137.4634   80.1676  220.7997 H   0  0  0  0  0  0  0  0  0  0  0  0
  141.0016   79.5801  220.5563 H   0  0  0  0  0  0  0  0  0  0  0  0
  143.1318   80.6221  221.1574 H   0  0  0  0  0  0  0  0  0  0  0  0
  143.9260   80.6829  223.5041 H   0  0  0  0  0  0  0  0  0  0  0  0
  142.4954   79.6544  225.2546 H   0  0  0  0  0  0  0  0  0  0  0  0
  140.3571   78.6020  224.6634 H   0  0  0  0  0  0  0  0  0  0  0  0
  139.8487   77.2986  220.5440 H   0  0  0  0  0  0  0  0  0  0  0  0
  141.2930   76.3466  221.4996 H   0  0  0  0  0  0  0  0  0  0  0  0
  140.3585   76.3226  223.1077 H   0  0  0  0  0  0  0  0  0  0  0  0
  140.8674   74.2277  221.2916 H   0  0  0  0  0  0  0  0  0  0  0  0
  139.9869   74.2737  222.8972 H   0  0  0  0  0  0  0  0  0  0  0  0
  138.3551   72.7174  223.5155 H   0  0  0  0  0  0  0  0  0  0  0  0
  136.8610   71.0780  221.5620 H   0  0  0  0  0  0  0  0  0  0  0  0
  136.2010   71.8870  222.8610 H   0  0  0  0  0  0  0  0  0  0  0  0
  139.7661   71.8253  221.1610 H   0  0  0  0  0  0  0  0  0  0  0  0
  138.2466   69.9060  221.4255 H   0  0  0  0  0  0  0  0  0  0  0  0
  140.0797   69.6392  221.4236 H   0  0  0  0  0  0  0  0  0  0  0  0
  138.0599   68.9248  223.3531 H   0  0  0  0  0  0  0  0  0  0  0  0
  139.7729   68.3246  223.0182 H   0  0  0  0  0  0  0  0  0  0  0  0
  138.8336   68.2232  225.6205 H   0  0  0  0  0  0  0  0  0  0  0  0
  139.6101   69.1758  227.7718 H   0  0  0  0  0  0  0  0  0  0  0  0
  141.2675   72.4948  225.6152 H   0  0  0  0  0  0  0  0  0  0  0  0
  140.6231   72.8246  223.3586 H   0  0  0  0  0  0  0  0  0  0  0  0
  141.5329   71.4160  222.7295 H   0  0  0  0  0  0  0  0  0  0  0  0
  139.2347   75.5509  219.4794 H   0  0  0  0  0  0  0  0  0  0  0  0
  137.5961   74.9696  219.5248 H   0  0  0  0  0  0  0  0  0  0  0  0
  137.5316   77.3361  220.3783 H   0  0  0  0  0  0  0  0  0  0  0  0
  137.3337   76.3505  221.8206 H   0  0  0  0  0  0  0  0  0  0  0  0
  1  2  1  0
  2  3  1  0
  3  4  2  0
  3  5  1  0
  5  6  1  0
  6  7  2  0
  7  8  1  0
  8  9  2  0
  9 10  1  0
 10 11  2  0
  5 12  1  0
 12 13  1  0
 13 14  1  0
 14 15  1  0
 15 16  1  0
 16 17  2  0
 16 18  1  0
 18 19  1  0
 18 20  1  0
 20 21  1  0
 21 22  1  0
 22 23  1  0
 23 24  2  0
 24 25  1  0
 25 26  2  0
 26 27  1  0
 26 28  1  0
 28 29  2  0
 29 30  1  0
 15 31  1  0
 31 32  1  0
 11  6  1  0
 32 12  1  0
 30 20  1  0
 29 23  1  0
  1 33  1  0
  1 34  1  0
  1 35  1  0
  2 36  1  0
  2 37  1  0
  7 38  1  0
  8 39  1  0
  9 40  1  0
 10 41  1  0
 11 42  1  0
 12 43  1  0
 13 44  1  0
 13 45  1  0
 14 46  1  0
 14 47  1  0
 18 48  1  1
 19 49  1  0
 19 50  1  0
 20 51  1  6
 21 52  1  0
 21 53  1  0
 22 54  1  0
 22 55  1  0
 24 56  1  0
 25 57  1  0
 28 58  1  0
 30 59  1  0
 30 60  1  0
 31 61  1  0
 31 62  1  0
 32 63  1  0
 32 64  1  0
M  END
>  <smiles>  (46) 
CCC(=O)N(c1ccccc1)C1CCN(C(=O)[C@@H](N)C2CCc3ccc(Cl)cc3C2)CC1

>  <score_type>  (46) 
oracle

>  <origin>  (46) 
autodockgpu

>  <m_score__min__energy>  (46) 
-8.5199999999999996

>  <m_primary>  (46) 
energy

>  <rmsd>  (46) 
7.88883922222101

>  <m_score__min__rmsd>  (46) 
7.88883922222101

>  <meeko>  (46) 
{"free_energy": -7.4, "intermolecular_energy": -9.49, "internal_energy": -2.52, "cluster_size": 11, "cluster_id": 4, "rank_in_cluster": 6}

>  <energy>  (46) 
-6.78

>  <cluster_rmsd>  (46) 
0.19

>  <cluster>  (46) 
7

$$$$

     RDKit          3D

 64 67  0  0  0  0  0  0  0  0999 V2000
  146.7480   73.3800  222.3280 C   0  0  0  0  0  0  0  0  0  0  0  0
  145.4750   73.0220  221.5240 C   0  0  0  0  0  0  0  0  0  0  0  0
  145.7930   72.9480  220.1030 C   0  0  0  0  0  0  0  0  0  0  0  0
  146.8920   73.5840  219.7970 O   0  0  0  0  0  0  0  0  0  0  0  0
  145.1200   72.3160  219.0380 N   0  0  0  0  0  0  0  0  0  0  0  0
  145.3480   71.0400  218.4980 C   0  0  0  0  0  0  0  0  0  0  0  0
  145.3820   69.9090  219.3360 C   0  0  0  0  0  0  0  0  0  0  0  0
  145.6120   68.6390  218.8450 C   0  0  0  0  0  0  0  0  0  0  0  0
  145.8220   68.4040  217.5090 C   0  0  0  0  0  0  0  0  0  0  0  0
  145.7950   69.4820  216.6700 C   0  0  0  0  0  0  0  0  0  0  0  0
  145.5630   70.7630  217.1670 C   0  0  0  0  0  0  0  0  0  0  0  0
  144.0410   73.1130  218.4400 C   0  0  0  0  0  0  0  0  0  0  0  0
  143.0340   73.6490  219.3720 C   0  0  0  0  0  0  0  0  0  0  0  0
  142.3610   74.9350  219.0040 C   0  0  0  0  0  0  0  0  0  0  0  0
  142.7940   75.4860  217.7550 N   0  0  0  0  0  0  0  0  0  0  0  0
  142.9180   76.8570  217.4410 C   0  0  0  0  0  0  0  0  0  0  0  0
  143.3360   77.2070  216.2770 O   0  0  0  0  0  0  0  0  0  0  0  0
  142.6050   77.9760  218.3550 C   0  0  1  0  0  0  0  0  0  0  0  0
  142.8450   79.2270  217.6370 N   0  0  0  0  0  0  0  0  0  0  0  0
  141.1430   77.9000  218.7730 C   0  0  2  0  0  0  0  0  0  0  0  0
  140.2890   78.9540  218.1610 C   0  0  0  0  0  0  0  0  0  0  0  0
  140.3370   80.2980  218.7880 C   0  0  0  0  0  0  0  0  0  0  0  0
  140.9470   80.3630  220.1150 C   0  0  0  0  0  0  0  0  0  0  0  0
  141.1980   81.6050  220.6610 C   0  0  0  0  0  0  0  0  0  0  0  0
  141.7710   81.7580  221.9070 C   0  0  0  0  0  0  0  0  0  0  0  0
  142.0940   80.6240  222.6130 C   0  0  0  0  0  0  0  0  0  0  0  0
  142.8180   80.8280  224.1900 Cl  0  0  0  0  0  0  0  0  0  0  0  0
  141.8470   79.3790  222.0750 C   0  0  0  0  0  0  0  0  0  0  0  0
  141.2680   79.2210  220.8160 C   0  0  0  0  0  0  0  0  0  0  0  0
  141.0270   77.8690  220.2970 C   0  0  0  0  0  0  0  0  0  0  0  0
  143.1450   74.5040  216.7080 C   0  0  0  0  0  0  0  0  0  0  0  0
  144.4660   73.9310  217.2630 C   0  0  0  0  0  0  0  0  0  0  0  0
  146.5309   73.3190  223.4046 H   0  0  0  0  0  0  0  0  0  0  0  0
  147.5521   72.6731  222.0754 H   0  0  0  0  0  0  0  0  0  0  0  0
  147.0658   74.4024  222.0754 H   0  0  0  0  0  0  0  0  0  0  0  0
  145.0904   72.0489  221.8633 H   0  0  0  0  0  0  0  0  0  0  0  0
  144.7129   73.7986  221.6857 H   0  0  0  0  0  0  0  0  0  0  0  0
  145.2202   70.0413  220.4160 H   0  0  0  0  0  0  0  0  0  0  0  0
  145.6274   67.7907  219.5451 H   0  0  0  0  0  0  0  0  0  0  0  0
  146.0048   67.3881  217.1289 H   0  0  0  0  0  0  0  0  0  0  0  0
  145.9580   69.3373  215.5918 H   0  0  0  0  0  0  0  0  0  0  0  0
  145.5510   71.6011  216.4546 H   0  0  0  0  0  0  0  0  0  0  0  0
  143.3805   72.3875  217.9426 H   0  0  0  0  0  0  0  0  0  0  0  0
  142.2487   72.8866  219.4814 H   0  0  0  0  0  0  0  0  0  0  0  0
  143.5978   73.8818  220.2874 H   0  0  0  0  0  0  0  0  0  0  0  0
  141.2778   74.7530  218.9441 H   0  0  0  0  0  0  0  0  0  0  0  0
  142.6271   75.6658  219.7819 H   0  0  0  0  0  0  0  0  0  0  0  0
  143.2352   77.9235  219.2551 H   0  0  0  0  0  0  0  0  0  0  0  0
  142.4220   79.1230  216.6880 H   0  0  0  0  0  0  0  0  0  0  0  0
  143.8620   79.3660  217.4920 H   0  0  0  0  0  0  0  0  0  0  0  0
  140.7453   76.9550  218.3745 H   0  0  0  0  0  0  0  0  0  0  0  0
  140.5975   79.0649  217.1110 H   0  0  0  0  0  0  0  0  0  0  0  0
  139.2550   78.6061  218.3019 H   0  0  0  0  0  0  0  0  0  0  0  0
  140.9089   80.9604  218.1215 H   0  0  0  0  0  0  0  0  0  0  0  0
  139.2881   80.5984  218.9279 H   0  0  0  0  0  0  0  0  0  0  0  0
  140.9325   82.5031  220.0839 H   0  0  0  0  0  0  0  0  0  0  0  0
  141.9635   82.7580  222.3228 H   0  0  0  0  0  0  0  0  0  0  0  0
  142.1144   78.4839  222.6557 H   0  0  0  0  0  0  0  0  0  0  0  0
  141.7737   77.1753  220.7108 H   0  0  0  0  0  0  0  0  0  0  0  0
  140.0223   77.5294  220.5891 H   0  0  0  0  0  0  0  0  0  0  0  0
  142.3756   73.7236  216.6134 H   0  0  0  0  0  0  0  0  0  0  0  0
  143.2282   74.9320  215.6981 H   0  0  0  0  0  0  0  0  0  0  0  0
  144.9661   73.3031  216.5109 H   0  0  0  0  0  0  0  0  0  0  0  0
  145.1874   74.7165  217.5324 H   0  0  0  0  0  0  0  0  0  0  0  0
  1  2  1  0
  2  3  1  0
  3  4  2  0
  3  5  1  0
  5  6  1  0
  6  7  2  0
  7  8  1  0
  8  9  2  0
  9 10  1  0
 10 11  2  0
  5 12  1  0
 12 13  1  0
 13 14  1  0
 14 15  1  0
 15 16  1  0
 16 17  2  0
 16 18  1  0
 18 19  1  0
 18 20  1  0
 20 21  1  0
 21 22  1  0
 22 23  1  0
 23 24  2  0
 24 25  1  0
 25 26  2  0
 26 27  1  0
 26 28  1  0
 28 29  2  0
 29 30  1  0
 15 31  1  0
 31 32  1  0
 11  6  1  0
 32 12  1  0
 30 20  1  0
 29 23  1  0
  1 33  1  0
  1 34  1  0
  1 35  1  0
  2 36  1  0
  2 37  1  0
  7 38  1  0
  8 39  1  0
  9 40  1  0
 10 41  1  0
 11 42  1  0
 12 43  1  0
 13 44  1  0
 13 45  1  0
 14 46  1  0
 14 47  1  0
 18 48  1  1
 19 49  1  0
 19 50  1  0
 20 51  1  6
 21 52  1  0
 21 53  1  0
 22 54  1  0
 22 55  1  0
 24 56  1  0
 25 57  1  0
 28 58  1  0
 30 59  1  0
 30 60  1  0
 31 61  1  0
 31 62  1  0
 32 63  1  0
 32 64  1  0
M  END
>  <smiles>  (47) 
CCC(=O)N(c1ccccc1)C1CCN(C(=O)[C@@H](N)C2CCc3ccc(Cl)cc3C2)CC1

>  <score_type>  (47) 
oracle

>  <origin>  (47) 
autodockgpu

>  <m_score__min__energy>  (47) 
-8.5199999999999996

>  <m_primary>  (47) 
energy

>  <rmsd>  (47) 
4.7921670213603225

>  <m_score__min__rmsd>  (47) 
4.7921670213603225

>  <meeko>  (47) 
{"free_energy": -7.1, "intermolecular_energy": -9.19, "internal_energy": -2.48, "cluster_size": 3, "cluster_id": 3, "rank_in_cluster": 3}

>  <energy>  (47) 
-6.62

>  <cluster_rmsd>  (47) 
0.0

>  <cluster>  (47) 
8

$$$$

     RDKit          3D

 64 67  0  0  0  0  0  0  0  0999 V2000
  136.5690   68.5180  222.7380 C   0  0  0  0  0  0  0  0  0  0  0  0
  137.9530   67.8260  222.6870 C   0  0  0  0  0  0  0  0  0  0  0  0
  138.8050   68.3470  223.7500 C   0  0  0  0  0  0  0  0  0  0  0  0
  139.1980   67.4200  224.5820 O   0  0  0  0  0  0  0  0  0  0  0  0
  139.2580   69.6550  224.0120 N   0  0  0  0  0  0  0  0  0  0  0  0
  139.7940   70.1690  225.2030 C   0  0  0  0  0  0  0  0  0  0  0  0
  139.4360   69.6090  226.4450 C   0  0  0  0  0  0  0  0  0  0  0  0
  139.9340   70.0920  227.6380 C   0  0  0  0  0  0  0  0  0  0  0  0
  140.8100   71.1470  227.6860 C   0  0  0  0  0  0  0  0  0  0  0  0
  141.1770   71.7130  226.4970 C   0  0  0  0  0  0  0  0  0  0  0  0
  140.6730   71.2250  225.2930 C   0  0  0  0  0  0  0  0  0  0  0  0
  139.1510   70.5770  222.8730 C   0  0  0  0  0  0  0  0  0  0  0  0
  138.4260   71.8360  223.1200 C   0  0  0  0  0  0  0  0  0  0  0  0
  138.8300   73.0380  222.3250 C   0  0  0  0  0  0  0  0  0  0  0  0
  139.8940   72.7970  221.3980 N   0  0  0  0  0  0  0  0  0  0  0  0
  140.9100   73.7070  221.0320 C   0  0  0  0  0  0  0  0  0  0  0  0
  141.8140   73.3450  220.1940 O   0  0  0  0  0  0  0  0  0  0  0  0
  141.0440   75.0890  221.5390 C   0  0  1  0  0  0  0  0  0  0  0  0
  142.1270   75.7380  220.8010 N   0  0  0  0  0  0  0  0  0  0  0  0
  139.7440   75.8450  221.3090 C   0  0  2  0  0  0  0  0  0  0  0  0
  139.5720   76.3320  219.9130 C   0  0  0  0  0  0  0  0  0  0  0  0
  140.2930   77.5770  219.5480 C   0  0  0  0  0  0  0  0  0  0  0  0
  140.8150   78.3640  220.6640 C   0  0  0  0  0  0  0  0  0  0  0  0
  141.6590   79.4190  220.3840 C   0  0  0  0  0  0  0  0  0  0  0  0
  142.1970   80.2130  221.3760 C   0  0  0  0  0  0  0  0  0  0  0  0
  141.8700   79.9280  222.6800 C   0  0  0  0  0  0  0  0  0  0  0  0
  142.5570   80.9390  223.9290 Cl  0  0  0  0  0  0  0  0  0  0  0  0
  141.0280   78.8750  222.9690 C   0  0  0  0  0  0  0  0  0  0  0  0
  140.4830   78.0710  221.9690 C   0  0  0  0  0  0  0  0  0  0  0  0
  139.5910   76.9640  222.3390 C   0  0  0  0  0  0  0  0  0  0  0  0
  139.9140   71.4550  220.7800 C   0  0  0  0  0  0  0  0  0  0  0  0
  140.3450   70.5790  221.9750 C   0  0  0  0  0  0  0  0  0  0  0  0
  136.2718   68.6666  223.7866 H   0  0  0  0  0  0  0  0  0  0  0  0
  136.6276   69.4929  222.2318 H   0  0  0  0  0  0  0  0  0  0  0  0
  135.8243   67.8862  222.2318 H   0  0  0  0  0  0  0  0  0  0  0  0
  137.8244   66.7417  222.8204 H   0  0  0  0  0  0  0  0  0  0  0  0
  138.4236   68.0262  221.7131 H   0  0  0  0  0  0  0  0  0  0  0  0
  138.7373   68.7597  226.4646 H   0  0  0  0  0  0  0  0  0  0  0  0
  139.6192   69.6169  228.5788 H   0  0  0  0  0  0  0  0  0  0  0  0
  141.2013   71.5224  228.6431 H   0  0  0  0  0  0  0  0  0  0  0  0
  141.8768   72.5617  226.4906 H   0  0  0  0  0  0  0  0  0  0  0  0
  140.9960   71.7114  224.3608 H   0  0  0  0  0  0  0  0  0  0  0  0
  138.4041   70.1286  222.2014 H   0  0  0  0  0  0  0  0  0  0  0  0
  137.3618   71.6483  222.9142 H   0  0  0  0  0  0  0  0  0  0  0  0
  138.6675   72.0967  224.1610 H   0  0  0  0  0  0  0  0  0  0  0  0
  137.9535   73.3891  221.7607 H   0  0  0  0  0  0  0  0  0  0  0  0
  139.1998   73.7835  223.0443 H   0  0  0  0  0  0  0  0  0  0  0  0
  141.2648   75.0828  222.6166 H   0  0  0  0  0  0  0  0  0  0  0  0
  142.0230   75.4640  219.7980 H   0  0  0  0  0  0  0  0  0  0  0  0
  143.0440   75.3690  221.1130 H   0  0  0  0  0  0  0  0  0  0  0  0
  138.9254   75.1245  221.4536 H   0  0  0  0  0  0  0  0  0  0  0  0
  139.9181   75.5360  219.2372 H   0  0  0  0  0  0  0  0  0  0  0  0
  138.5040   76.5792  219.8225 H   0  0  0  0  0  0  0  0  0  0  0  0
  141.1417   77.2989  218.9059 H   0  0  0  0  0  0  0  0  0  0  0  0
  139.5478   78.2184  219.0548 H   0  0  0  0  0  0  0  0  0  0  0  0
  141.9113   79.6342  219.3352 H   0  0  0  0  0  0  0  0  0  0  0  0
  142.8679   81.0494  221.1303 H   0  0  0  0  0  0  0  0  0  0  0  0
  140.7791   78.6632  224.0193 H   0  0  0  0  0  0  0  0  0  0  0  0
  139.8619   76.5881  223.3367 H   0  0  0  0  0  0  0  0  0  0  0  0
  138.5484   77.3141  222.3595 H   0  0  0  0  0  0  0  0  0  0  0  0
  138.9194   71.1679  220.4082 H   0  0  0  0  0  0  0  0  0  0  0  0
  140.5705   71.3732  219.9012 H   0  0  0  0  0  0  0  0  0  0  0  0
  140.5867   69.5582  221.6441 H   0  0  0  0  0  0  0  0  0  0  0  0
  141.2485   70.9595  222.4739 H   0  0  0  0  0  0  0  0  0  0  0  0
  1  2  1  0
  2  3  1  0
  3  4  2  0
  3  5  1  0
  5  6  1  0
  6  7  2  0
  7  8  1  0
  8  9  2  0
  9 10  1  0
 10 11  2  0
  5 12  1  0
 12 13  1  0
 13 14  1  0
 14 15  1  0
 15 16  1  0
 16 17  2  0
 16 18  1  0
 18 19  1  0
 18 20  1  0
 20 21  1  0
 21 22  1  0
 22 23  1  0
 23 24  2  0
 24 25  1  0
 25 26  2  0
 26 27  1  0
 26 28  1  0
 28 29  2  0
 29 30  1  0
 15 31  1  0
 31 32  1  0
 11  6  1  0
 32 12  1  0
 30 20  1  0
 29 23  1  0
  1 33  1  0
  1 34  1  0
  1 35  1  0
  2 36  1  0
  2 37  1  0
  7 38  1  0
  8 39  1  0
  9 40  1  0
 10 41  1  0
 11 42  1  0
 12 43  1  0
 13 44  1  0
 13 45  1  0
 14 46  1  0
 14 47  1  0
 18 48  1  1
 19 49  1  0
 19 50  1  0
 20 51  1  1
 21 52  1  0
 21 53  1  0
 22 54  1  0
 22 55  1  0
 24 56  1  0
 25 57  1  0
 28 58  1  0
 30 59  1  0
 30 60  1  0
 31 61  1  0
 31 62  1  0
 32 63  1  0
 32 64  1  0
M  END
>  <smiles>  (48) 
CCC(=O)N(c1ccccc1)C1CCN(C(=O)[C@@H](N)C2CCc3ccc(Cl)cc3C2)CC1

>  <score_type>  (48) 
oracle

>  <origin>  (48) 
autodockgpu

>  <m_score__min__energy>  (48) 
-8.5199999999999996

>  <m_primary>  (48) 
energy

>  <rmsd>  (48) 
6.037376614564077

>  <m_score__min__rmsd>  (48) 
6.037376614564077

>  <meeko>  (48) 
{"free_energy": -8.17, "intermolecular_energy": -10.26, "internal_energy": -2.41, "cluster_size": 16, "cluster_id": 1, "rank_in_cluster": 5}

>  <energy>  (48) 
-6.57

>  <cluster_rmsd>  (48) 
0.62

>  <cluster>  (48) 
8

$$$$

     RDKit          3D

 64 67  0  0  0  0  0  0  0  0999 V2000
  138.8020   67.0010  222.1960 C   0  0  0  0  0  0  0  0  0  0  0  0
  138.0270   68.0840  222.9860 C   0  0  0  0  0  0  0  0  0  0  0  0
  138.8670   68.6120  224.0550 C   0  0  0  0  0  0  0  0  0  0  0  0
  139.1760   67.7090  224.9460 O   0  0  0  0  0  0  0  0  0  0  0  0
  139.3830   69.9050  224.2700 N   0  0  0  0  0  0  0  0  0  0  0  0
  139.9120   70.4470  225.4520 C   0  0  0  0  0  0  0  0  0  0  0  0
  139.5950   69.8770  226.7000 C   0  0  0  0  0  0  0  0  0  0  0  0
  140.0870   70.3850  227.8850 C   0  0  0  0  0  0  0  0  0  0  0  0
  140.9180   71.4770  227.9180 C   0  0  0  0  0  0  0  0  0  0  0  0
  141.2450   72.0530  226.7220 C   0  0  0  0  0  0  0  0  0  0  0  0
  140.7470   71.5390  225.5270 C   0  0  0  0  0  0  0  0  0  0  0  0
  139.3580   70.7770  223.0870 C   0  0  0  0  0  0  0  0  0  0  0  0
  138.2500   71.7450  223.0140 C   0  0  0  0  0  0  0  0  0  0  0  0
  138.4980   73.0310  222.2900 C   0  0  0  0  0  0  0  0  0  0  0  0
  139.8150   73.1510  221.7430 N   0  0  0  0  0  0  0  0  0  0  0  0
  140.5730   74.3380  221.6320 C   0  0  0  0  0  0  0  0  0  0  0  0
  141.7550   74.2910  221.1300 O   0  0  0  0  0  0  0  0  0  0  0  0
  140.1240   75.6820  222.0530 C   0  0  1  0  0  0  0  0  0  0  0  0
  141.3090   76.4620  222.4080 N   0  0  0  0  0  0  0  0  0  0  0  0
  139.3910   76.3590  220.9050 C   0  0  2  0  0  0  0  0  0  0  0  0
  140.2810   77.1430  220.0040 C   0  0  0  0  0  0  0  0  0  0  0  0
  140.6780   78.4940  220.4700 C   0  0  0  0  0  0  0  0  0  0  0  0
  139.9020   79.0390  221.5840 C   0  0  0  0  0  0  0  0  0  0  0  0
  140.3470   80.1980  222.1870 C   0  0  0  0  0  0  0  0  0  0  0  0
  139.6770   80.7810  223.2430 C   0  0  0  0  0  0  0  0  0  0  0  0
  138.5310   80.1720  223.6950 C   0  0  0  0  0  0  0  0  0  0  0  0
  137.6900   80.9170  225.0330 Cl  0  0  0  0  0  0  0  0  0  0  0  0
  138.0790   79.0140  223.0990 C   0  0  0  0  0  0  0  0  0  0  0  0
  138.7540   78.4230  222.0310 C   0  0  0  0  0  0  0  0  0  0  0  0
  138.2240   77.1890  221.4360 C   0  0  0  0  0  0  0  0  0  0  0  0
  140.4260   71.8960  221.2580 C   0  0  0  0  0  0  0  0  0  0  0  0
  140.7120   71.1660  222.5880 C   0  0  0  0  0  0  0  0  0  0  0  0
  139.2934   66.3143  222.9009 H   0  0  0  0  0  0  0  0  0  0  0  0
  138.1012   66.4370  221.5629 H   0  0  0  0  0  0  0  0  0  0  0  0
  139.5620   67.4824  221.5629 H   0  0  0  0  0  0  0  0  0  0  0  0
  137.7455   68.9011  222.3054 H   0  0  0  0  0  0  0  0  0  0  0  0
  137.1218   67.6368  223.4227 H   0  0  0  0  0  0  0  0  0  0  0  0
  138.9338   68.9984  226.7313 H   0  0  0  0  0  0  0  0  0  0  0  0
  139.8048   69.9004  228.8313 H   0  0  0  0  0  0  0  0  0  0  0  0
  141.3053   71.8727  228.8685 H   0  0  0  0  0  0  0  0  0  0  0  0
  141.9077   72.9308  226.7032 H   0  0  0  0  0  0  0  0  0  0  0  0
  141.0377   72.0343  224.5888 H   0  0  0  0  0  0  0  0  0  0  0  0
  139.0215   70.1385  222.2569 H   0  0  0  0  0  0  0  0  0  0  0  0
  137.4078   71.2437  222.5146 H   0  0  0  0  0  0  0  0  0  0  0  0
  138.0711   72.0429  224.0577 H   0  0  0  0  0  0  0  0  0  0  0  0
  137.7736   73.1082  221.4658 H   0  0  0  0  0  0  0  0  0  0  0  0
  138.3882   73.8371  223.0303 H   0  0  0  0  0  0  0  0  0  0  0  0
  139.4419   75.6073  222.9127 H   0  0  0  0  0  0  0  0  0  0  0  0
  141.9500   76.4410  221.5840 H   0  0  0  0  0  0  0  0  0  0  0  0
  141.8170   76.0080  223.1880 H   0  0  0  0  0  0  0  0  0  0  0  0
  138.9870   75.5587  220.2676 H   0  0  0  0  0  0  0  0  0  0  0  0
  141.2008   76.5588  219.8533 H   0  0  0  0  0  0  0  0  0  0  0  0
  139.6905   77.3139  219.0918 H   0  0  0  0  0  0  0  0  0  0  0  0
  141.7311   78.4462  220.7843 H   0  0  0  0  0  0  0  0  0  0  0  0
  140.4935   79.1681  219.6206 H   0  0  0  0  0  0  0  0  0  0  0  0
  141.2663   80.6727  221.8133 H   0  0  0  0  0  0  0  0  0  0  0  0
  140.0490   81.7054  223.7090 H   0  0  0  0  0  0  0  0  0  0  0  0
  137.1596   78.5426  223.4765 H   0  0  0  0  0  0  0  0  0  0  0  0
  137.6789   76.6147  222.1996 H   0  0  0  0  0  0  0  0  0  0  0  0
  137.5357   77.4356  220.6141 H   0  0  0  0  0  0  0  0  0  0  0  0
  139.7281   71.3256  220.6274 H   0  0  0  0  0  0  0  0  0  0  0  0
  141.3131   72.0421  220.6241 H   0  0  0  0  0  0  0  0  0  0  0  0
  141.3366   70.2764  222.4190 H   0  0  0  0  0  0  0  0  0  0  0  0
  141.2626   71.7931  223.3046 H   0  0  0  0  0  0  0  0  0  0  0  0
  1  2  1  0
  2  3  1  0
  3  4  2  0
  3  5  1  0
  5  6  1  0
  6  7  2  0
  7  8  1  0
  8  9  2  0
  9 10  1  0
 10 11  2  0
  5 12  1  0
 12 13  1  0
 13 14  1  0
 14 15  1  0
 15 16  1  0
 16 17  2  0
 16 18  1  0
 18 19  1  0
 18 20  1  0
 20 21  1  0
 21 22  1  0
 22 23  1  0
 23 24  2  0
 24 25  1  0
 25 26  2  0
 26 27  1  0
 26 28  1  0
 28 29  2  0
 29 30  1  0
 15 31  1  0
 31 32  1  0
 11  6  1  0
 32 12  1  0
 30 20  1  0
 29 23  1  0
  1 33  1  0
  1 34  1  0
  1 35  1  0
  2 36  1  0
  2 37  1  0
  7 38  1  0
  8 39  1  0
  9 40  1  0
 10 41  1  0
 11 42  1  0
 12 43  1  0
 13 44  1  0
 13 45  1  0
 14 46  1  0
 14 47  1  0
 18 48  1  1
 19 49  1  0
 19 50  1  0
 20 51  1  6
 21 52  1  0
 21 53  1  0
 22 54  1  0
 22 55  1  0
 24 56  1  0
 25 57  1  0
 28 58  1  0
 30 59  1  0
 30 60  1  0
 31 61  1  0
 31 62  1  0
 32 63  1  0
 32 64  1  0
M  END
>  <smiles>  (49) 
CCC(=O)N(c1ccccc1)C1CCN(C(=O)[C@@H](N)C2CCc3ccc(Cl)cc3C2)CC1

>  <score_type>  (49) 
oracle

>  <origin>  (49) 
autodockgpu

>  <m_score__min__energy>  (49) 
-8.5199999999999996

>  <m_primary>  (49) 
energy

>  <rmsd>  (49) 
5.661581581855498

>  <m_score__min__rmsd>  (49) 
5.661581581855498

>  <meeko>  (49) 
{"free_energy": -8.52, "intermolecular_energy": -10.61, "internal_energy": -2.15, "cluster_size": 16, "cluster_id": 1, "rank_in_cluster": 2}

>  <energy>  (49) 
-6.41

>  <cluster_rmsd>  (49) 
0.0

>  <cluster>  (49) 
9

$$$$

     RDKit          3D

 64 67  0  0  0  0  0  0  0  0999 V2000
  139.1910   67.4060  221.5940 C   0  0  0  0  0  0  0  0  0  0  0  0
  138.1930   67.8450  222.6940 C   0  0  0  0  0  0  0  0  0  0  0  0
  138.9230   68.3870  223.8340 C   0  0  0  0  0  0  0  0  0  0  0  0
  139.2280   67.4760  224.7180 O   0  0  0  0  0  0  0  0  0  0  0  0
  139.3380   69.7030  224.1230 N   0  0  0  0  0  0  0  0  0  0  0  0
  139.8160   70.2190  225.3380 C   0  0  0  0  0  0  0  0  0  0  0  0
  140.6480   71.3550  225.3500 C   0  0  0  0  0  0  0  0  0  0  0  0
  141.1460   71.8870  226.5220 C   0  0  0  0  0  0  0  0  0  0  0  0
  140.8580   71.3400  227.7470 C   0  0  0  0  0  0  0  0  0  0  0  0
  140.0520   70.2370  227.7700 C   0  0  0  0  0  0  0  0  0  0  0  0
  139.5510   69.7000  226.5860 C   0  0  0  0  0  0  0  0  0  0  0  0
  139.2570   70.6310  222.9870 C   0  0  0  0  0  0  0  0  0  0  0  0
  138.1510   71.6050  223.0190 C   0  0  0  0  0  0  0  0  0  0  0  0
  138.3680   72.9250  222.3470 C   0  0  0  0  0  0  0  0  0  0  0  0
  139.6560   73.0680  221.7390 N   0  0  0  0  0  0  0  0  0  0  0  0
  140.4130   74.2570  221.6470 C   0  0  0  0  0  0  0  0  0  0  0  0
  141.5670   74.2320  221.0830 O   0  0  0  0  0  0  0  0  0  0  0  0
  139.9930   75.5790  222.1570 C   0  0  1  0  0  0  0  0  0  0  0  0
  141.1900   76.4070  222.3030 N   0  0  0  0  0  0  0  0  0  0  0  0
  139.0400   76.2300  221.1650 C   0  0  2  0  0  0  0  0  0  0  0  0
  139.4890   76.1320  219.7490 C   0  0  0  0  0  0  0  0  0  0  0  0
  140.5190   77.1040  219.3070 C   0  0  0  0  0  0  0  0  0  0  0  0
  140.7380   78.2480  220.1910 C   0  0  0  0  0  0  0  0  0  0  0  0
  141.8130   79.0760  219.9360 C   0  0  0  0  0  0  0  0  0  0  0  0
  142.0940   80.1760  220.7190 C   0  0  0  0  0  0  0  0  0  0  0  0
  141.2640   80.4420  221.7820 C   0  0  0  0  0  0  0  0  0  0  0  0
  141.6280   81.8380  222.7670 Cl  0  0  0  0  0  0  0  0  0  0  0  0
  140.1880   79.6200  222.0440 C   0  0  0  0  0  0  0  0  0  0  0  0
  139.9020   78.5070  221.2550 C   0  0  0  0  0  0  0  0  0  0  0  0
  138.7410   77.6690  221.5820 C   0  0  0  0  0  0  0  0  0  0  0  0
  140.2340   71.8370  221.1620 C   0  0  0  0  0  0  0  0  0  0  0  0
  140.5850   71.0420  222.4380 C   0  0  0  0  0  0  0  0  0  0  0  0
  140.1015   67.0055  222.0637 H   0  0  0  0  0  0  0  0  0  0  0  0
  138.7285   66.6282  220.9685 H   0  0  0  0  0  0  0  0  0  0  0  0
  139.4518   68.2725  220.9685 H   0  0  0  0  0  0  0  0  0  0  0  0
  137.5206   68.6164  222.2905 H   0  0  0  0  0  0  0  0  0  0  0  0
  137.6045   66.9745  223.0195 H   0  0  0  0  0  0  0  0  0  0  0  0
  140.9093   71.8337  224.3947 H   0  0  0  0  0  0  0  0  0  0  0  0
  141.7927   72.7755  226.4727 H   0  0  0  0  0  0  0  0  0  0  0  0
  141.2605   71.7728  228.6747 H   0  0  0  0  0  0  0  0  0  0  0  0
  139.7963   69.7687  228.7320 H   0  0  0  0  0  0  0  0  0  0  0  0
  138.9070   68.8107  226.6517 H   0  0  0  0  0  0  0  0  0  0  0  0
  138.8767   70.0329  222.1458 H   0  0  0  0  0  0  0  0  0  0  0  0
  137.2817   71.1311  222.5398 H   0  0  0  0  0  0  0  0  0  0  0  0
  138.0277   71.8515  224.0839 H   0  0  0  0  0  0  0  0  0  0  0  0
  137.6025   73.0448  221.5662 H   0  0  0  0  0  0  0  0  0  0  0  0
  138.3007   73.6940  223.1306 H   0  0  0  0  0  0  0  0  0  0  0  0
  139.4796   75.4720  223.1239 H   0  0  0  0  0  0  0  0  0  0  0  0
  141.7080   76.3620  221.3970 H   0  0  0  0  0  0  0  0  0  0  0  0
  141.8180   76.0040  223.0220 H   0  0  0  0  0  0  0  0  0  0  0  0
  138.1024   75.6558  221.1988 H   0  0  0  0  0  0  0  0  0  0  0  0
  139.8976   75.1219  219.5982 H   0  0  0  0  0  0  0  0  0  0  0  0
  138.5976   76.3621  219.1469 H   0  0  0  0  0  0  0  0  0  0  0  0
  141.4728   76.5644  219.2114 H   0  0  0  0  0  0  0  0  0  0  0  0
  140.1452   77.5250  218.3620 H   0  0  0  0  0  0  0  0  0  0  0  0
  142.4667   78.8510  219.0804 H   0  0  0  0  0  0  0  0  0  0  0  0
  142.9571   80.8216  220.4993 H   0  0  0  0  0  0  0  0  0  0  0  0
  139.5367   79.8493  222.9003 H   0  0  0  0  0  0  0  0  0  0  0  0
  138.5498   77.7082  222.6646 H   0  0  0  0  0  0  0  0  0  0  0  0
  137.8524   78.0362  221.0476 H   0  0  0  0  0  0  0  0  0  0  0  0
  139.5011   71.3002  220.5417 H   0  0  0  0  0  0  0  0  0  0  0  0
  141.0875   72.0115  220.4904 H   0  0  0  0  0  0  0  0  0  0  0  0
  141.1963   70.1608  222.1935 H   0  0  0  0  0  0  0  0  0  0  0  0
  141.1743   71.6324  223.1550 H   0  0  0  0  0  0  0  0  0  0  0  0
  1  2  1  0
  2  3  1  0
  3  4  2  0
  3  5  1  0
  5  6  1  0
  6  7  2  0
  7  8  1  0
  8  9  2  0
  9 10  1  0
 10 11  2  0
  5 12  1  0
 12 13  1  0
 13 14  1  0
 14 15  1  0
 15 16  1  0
 16 17  2  0
 16 18  1  0
 18 19  1  0
 18 20  1  0
 20 21  1  0
 21 22  1  0
 22 23  1  0
 23 24  2  0
 24 25  1  0
 25 26  2  0
 26 27  1  0
 26 28  1  0
 28 29  2  0
 29 30  1  0
 15 31  1  0
 31 32  1  0
 11  6  1  0
 32 12  1  0
 30 20  1  0
 29 23  1  0
  1 33  1  0
  1 34  1  0
  1 35  1  0
  2 36  1  0
  2 37  1  0
  7 38  1  0
  8 39  1  0
  9 40  1  0
 10 41  1  0
 11 42  1  0
 12 43  1  0
 13 44  1  0
 13 45  1  0
 14 46  1  0
 14 47  1  0
 18 48  1  1
 19 49  1  0
 19 50  1  0
 20 51  1  6
 21 52  1  0
 21 53  1  0
 22 54  1  0
 22 55  1  0
 24 56  1  0
 25 57  1  0
 28 58  1  0
 30 59  1  0
 30 60  1  0
 31 61  1  0
 31 62  1  0
 32 63  1  0
 32 64  1  0
M  END
>  <smiles>  (50) 
CCC(=O)N(c1ccccc1)C1CCN(C(=O)[C@@H](N)C2CCc3ccc(Cl)cc3C2)CC1

>  <score_type>  (50) 
oracle

>  <origin>  (50) 
autodockgpu

>  <m_score__min__energy>  (50) 
-8.5199999999999996

>  <m_primary>  (50) 
energy

>  <rmsd>  (50) 
5.683396654422124

>  <m_score__min__rmsd>  (50) 
5.683396654422124

>  <meeko>  (50) 
{"free_energy": -7.88, "intermolecular_energy": -9.96, "internal_energy": -2.07, "cluster_size": 16, "cluster_id": 1, "rank_in_cluster": 12}

>  <energy>  (50) 
-6.34

>  <cluster_rmsd>  (50) 
0.4

>  <cluster>  (50) 
9

$$$$

     RDKit          3D

 64 67  0  0  0  0  0  0  0  0999 V2000
  143.3340   80.4640  223.2200 C   0  0  0  0  0  0  0  0  0  0  0  0
  142.0930   81.1070  223.8500 C   0  0  0  0  0  0  0  0  0  0  0  0
  140.8870   80.8170  223.0840 C   0  0  0  0  0  0  0  0  0  0  0  0
  139.7760   81.2130  223.5870 O   0  0  0  0  0  0  0  0  0  0  0  0
  140.7940   80.1540  221.8480 N   0  0  0  0  0  0  0  0  0  0  0  0
  141.1630   80.9700  220.6940 C   0  0  0  0  0  0  0  0  0  0  0  0
  140.7730   82.2950  220.7950 C   0  0  0  0  0  0  0  0  0  0  0  0
  141.0720   83.1610  219.7560 C   0  0  0  0  0  0  0  0  0  0  0  0
  141.7480   82.6460  218.6710 C   0  0  0  0  0  0  0  0  0  0  0  0
  142.1310   81.3190  218.5830 C   0  0  0  0  0  0  0  0  0  0  0  0
  141.8300   80.4480  219.6300 C   0  0  0  0  0  0  0  0  0  0  0  0
  140.3990   78.8200  221.5970 C   0  0  0  0  0  0  0  0  0  0  0  0
  141.4140   77.7610  222.0200 C   0  0  0  0  0  0  0  0  0  0  0  0
  141.0000   76.5120  221.2180 C   0  0  0  0  0  0  0  0  0  0  0  0
  139.6760   76.0720  221.5490 N   0  0  0  0  0  0  0  0  0  0  0  0
  139.2530   74.7750  221.8850 C   0  0  0  0  0  0  0  0  0  0  0  0
  138.0100   74.6310  222.1390 O   0  0  0  0  0  0  0  0  0  0  0  0
  140.0530   73.5450  221.9870 C   0  0  1  0  0  0  0  0  0  0  0  0
  139.7020   72.6380  223.0140 N   0  0  0  0  0  0  0  0  0  0  0  0
  140.1770   72.8400  220.6330 C   0  0  1  0  0  0  0  0  0  0  0  0
  140.2350   73.8460  219.5330 C   0  0  0  0  0  0  0  0  0  0  0  0
  141.2500   73.4490  218.4460 C   0  0  0  0  0  0  0  0  0  0  0  0
  142.5610   73.4570  219.1970 C   0  0  0  0  0  0  0  0  0  0  0  0
  143.6390   74.1950  218.7590 C   0  0  0  0  0  0  0  0  0  0  0  0
  144.8120   74.1490  219.5160 C   0  0  0  0  0  0  0  0  0  0  0  0
  144.8620   73.3720  220.6730 C   0  0  0  0  0  0  0  0  0  0  0  0
  146.3380   73.3270  221.6050 Cl  0  0  0  0  0  0  0  0  0  0  0  0
  143.7510   72.6430  221.0780 C   0  0  0  0  0  0  0  0  0  0  0  0
  142.5830   72.6800  220.3380 C   0  0  0  0  0  0  0  0  0  0  0  0
  141.3630   71.9210  220.7150 C   0  0  0  0  0  0  0  0  0  0  0  0
  138.6470   77.1190  221.5250 C   0  0  0  0  0  0  0  0  0  0  0  0
  139.1060   78.3700  222.2280 C   0  0  0  0  0  0  0  0  0  0  0  0
  144.0092   80.1142  224.0148 H   0  0  0  0  0  0  0  0  0  0  0  0
  143.0284   79.6108  222.5966 H   0  0  0  0  0  0  0  0  0  0  0  0
  143.8548   81.2057  222.5966 H   0  0  0  0  0  0  0  0  0  0  0  0
  141.9690   80.7170  224.8711 H   0  0  0  0  0  0  0  0  0  0  0  0
  142.2392   82.1972  223.8591 H   0  0  0  0  0  0  0  0  0  0  0  0
  140.2350   82.6536  221.6850 H   0  0  0  0  0  0  0  0  0  0  0  0
  140.7806   84.2210  219.7955 H   0  0  0  0  0  0  0  0  0  0  0  0
  141.9942   83.3201  217.8374 H   0  0  0  0  0  0  0  0  0  0  0  0
  142.6681   80.9543  217.6950 H   0  0  0  0  0  0  0  0  0  0  0  0
  142.1190   79.3872  219.5966 H   0  0  0  0  0  0  0  0  0  0  0  0
  140.2907   78.8808  220.5040 H   0  0  0  0  0  0  0  0  0  0  0  0
  142.4364   78.0724  221.7598 H   0  0  0  0  0  0  0  0  0  0  0  0
  141.4183   77.5864  223.1061 H   0  0  0  0  0  0  0  0  0  0  0  0
  141.0361   76.7516  220.1450 H   0  0  0  0  0  0  0  0  0  0  0  0
  141.6991   75.7009  221.4700 H   0  0  0  0  0  0  0  0  0  0  0  0
  141.0403   73.9133  222.3026 H   0  0  0  0  0  0  0  0  0  0  0  0
  138.7390   72.7200  223.3990 H   0  0  0  0  0  0  0  0  0  0  0  0
  140.4430   72.4650  223.7260 H   0  0  0  0  0  0  0  0  0  0  0  0
  139.2970   72.2240  220.3960 H   0  0  0  0  0  0  0  0  0  0  0  0
  139.2383   73.9305  219.0753 H   0  0  0  0  0  0  0  0  0  0  0  0
  140.5553   74.8057  219.9648 H   0  0  0  0  0  0  0  0  0  0  0  0
  141.0295   72.4493  218.0435 H   0  0  0  0  0  0  0  0  0  0  0  0
  141.2418   74.1206  217.5749 H   0  0  0  0  0  0  0  0  0  0  0  0
  143.5778   74.8008  217.8429 H   0  0  0  0  0  0  0  0  0  0  0  0
  145.6946   74.7245  219.2002 H   0  0  0  0  0  0  0  0  0  0  0  0
  143.8004   72.0331  221.9921 H   0  0  0  0  0  0  0  0  0  0  0  0
  141.2248   71.0763  220.0241 H   0  0  0  0  0  0  0  0  0  0  0  0
  141.4655   71.5331  221.7392 H   0  0  0  0  0  0  0  0  0  0  0  0
  138.4126   77.3641  220.4786 H   0  0  0  0  0  0  0  0  0  0  0  0
  137.7587   76.7378  222.0500 H   0  0  0  0  0  0  0  0  0  0  0  0
  138.3456   79.1575  222.1202 H   0  0  0  0  0  0  0  0  0  0  0  0
  139.2565   78.1694  223.2990 H   0  0  0  0  0  0  0  0  0  0  0  0
  1  2  1  0
  2  3  1  0
  3  4  2  0
  3  5  1  0
  5  6  1  0
  6  7  2  0
  7  8  1  0
  8  9  2  0
  9 10  1  0
 10 11  2  0
  5 12  1  0
 12 13  1  0
 13 14  1  0
 14 15  1  0
 15 16  1  0
 16 17  2  0
 16 18  1  0
 18 19  1  0
 18 20  1  0
 20 21  1  0
 21 22  1  0
 22 23  1  0
 23 24  2  0
 24 25  1  0
 25 26  2  0
 26 27  1  0
 26 28  1  0
 28 29  2  0
 29 30  1  0
 15 31  1  0
 31 32  1  0
 11  6  1  0
 32 12  1  0
 30 20  1  0
 29 23  1  0
  1 33  1  0
  1 34  1  0
  1 35  1  0
  2 36  1  0
  2 37  1  0
  7 38  1  0
  8 39  1  0
  9 40  1  0
 10 41  1  0
 11 42  1  0
 12 43  1  0
 13 44  1  0
 13 45  1  0
 14 46  1  0
 14 47  1  0
 18 48  1  1
 19 49  1  0
 19 50  1  0
 20 51  1  6
 21 52  1  0
 21 53  1  0
 22 54  1  0
 22 55  1  0
 24 56  1  0
 25 57  1  0
 28 58  1  0
 30 59  1  0
 30 60  1  0
 31 61  1  0
 31 62  1  0
 32 63  1  0
 32 64  1  0
M  END
>  <smiles>  (51) 
CCC(=O)N(c1ccccc1)C1CCN(C(=O)[C@@H](N)C2CCc3ccc(Cl)cc3C2)CC1

>  <score_type>  (51) 
oracle

>  <origin>  (51) 
autodockgpu

>  <m_score__min__energy>  (51) 
-7.6799999999999997

>  <m_primary>  (51) 
energy

>  <rmsd>  (51) 
7.535465555615156

>  <m_score__min__rmsd>  (51) 
7.535465555615156

>  <meeko>  (51) 
{"free_energy": -6.81, "intermolecular_energy": -8.89, "internal_energy": -2.39, "cluster_size": 1, "cluster_id": 8, "rank_in_cluster": 1}

>  <energy>  (51) 
-7.68

>  <cluster_rmsd>  (51) 
0.0

>  <cluster>  (51) 
1

$$$$

     RDKit          3D

 64 67  0  0  0  0  0  0  0  0999 V2000
  142.6550   75.2700  220.0730 C   0  0  0  0  0  0  0  0  0  0  0  0
  142.6790   76.7650  219.7380 C   0  0  0  0  0  0  0  0  0  0  0  0
  141.3960   77.4000  220.0090 C   0  0  0  0  0  0  0  0  0  0  0  0
  140.7340   77.8180  218.9940 O   0  0  0  0  0  0  0  0  0  0  0  0
  140.7880   77.6090  221.2600 N   0  0  0  0  0  0  0  0  0  0  0  0
  141.4040   78.6630  222.0620 C   0  0  0  0  0  0  0  0  0  0  0  0
  141.7440   79.7940  221.3400 C   0  0  0  0  0  0  0  0  0  0  0  0
  142.3360   80.8570  222.0010 C   0  0  0  0  0  0  0  0  0  0  0  0
  142.5540   80.7250  223.3560 C   0  0  0  0  0  0  0  0  0  0  0  0
  142.2090   79.5880  224.0650 C   0  0  0  0  0  0  0  0  0  0  0  0
  141.6130   78.5170  223.3980 C   0  0  0  0  0  0  0  0  0  0  0  0
  139.6750   76.9400  221.8160 C   0  0  0  0  0  0  0  0  0  0  0  0
  138.4400   77.8140  222.0230 C   0  0  0  0  0  0  0  0  0  0  0  0
  137.6020   77.0290  223.0510 C   0  0  0  0  0  0  0  0  0  0  0  0
  137.2060   75.7430  222.5570 N   0  0  0  0  0  0  0  0  0  0  0  0
  135.9220   75.1720  222.5580 C   0  0  0  0  0  0  0  0  0  0  0  0
  135.8210   74.0000  222.0590 O   0  0  0  0  0  0  0  0  0  0  0  0
  134.6630   75.7420  223.0600 C   0  0  1  0  0  0  0  0  0  0  0  0
  133.5140   74.9220  222.9800 N   0  0  0  0  0  0  0  0  0  0  0  0
  134.8330   76.3380  224.4610 C   0  0  1  0  0  0  0  0  0  0  0  0
  133.5370   76.8990  224.9420 C   0  0  0  0  0  0  0  0  0  0  0  0
  133.3050   76.6060  226.4350 C   0  0  0  0  0  0  0  0  0  0  0  0
  133.2380   75.0970  226.4710 C   0  0  0  0  0  0  0  0  0  0  0  0
  132.1670   74.4350  227.0310 C   0  0  0  0  0  0  0  0  0  0  0  0
  132.1840   73.0380  227.0180 C   0  0  0  0  0  0  0  0  0  0  0  0
  133.2640   72.3620  226.4510 C   0  0  0  0  0  0  0  0  0  0  0  0
  133.2680   70.6160  226.4460 Cl  0  0  0  0  0  0  0  0  0  0  0  0
  134.3240   73.0700  225.8990 C   0  0  0  0  0  0  0  0  0  0  0  0
  134.3190   74.4530  225.9040 C   0  0  0  0  0  0  0  0  0  0  0  0
  135.4240   75.2670  225.3330 C   0  0  0  0  0  0  0  0  0  0  0  0
  138.2900   74.9340  221.9850 C   0  0  0  0  0  0  0  0  0  0  0  0
  139.1600   75.7420  221.0590 C   0  0  0  0  0  0  0  0  0  0  0  0
  142.6529   75.1390  221.1652 H   0  0  0  0  0  0  0  0  0  0  0  0
  141.7494   74.8133  219.6472 H   0  0  0  0  0  0  0  0  0  0  0  0
  143.5455   74.7845  219.6472 H   0  0  0  0  0  0  0  0  0  0  0  0
  143.4541   77.2540  220.3464 H   0  0  0  0  0  0  0  0  0  0  0  0
  142.8938   76.8718  218.6645 H   0  0  0  0  0  0  0  0  0  0  0  0
  141.5472   79.8474  220.2591 H   0  0  0  0  0  0  0  0  0  0  0  0
  142.6220   81.7737  221.4644 H   0  0  0  0  0  0  0  0  0  0  0  0
  143.0227   81.5602  223.8971 H   0  0  0  0  0  0  0  0  0  0  0  0
  142.4031   79.5288  225.1461 H   0  0  0  0  0  0  0  0  0  0  0  0
  141.3255   77.5971  223.9282 H   0  0  0  0  0  0  0  0  0  0  0  0
  140.1286   76.6253  222.7674 H   0  0  0  0  0  0  0  0  0  0  0  0
  138.7205   78.8015  222.4183 H   0  0  0  0  0  0  0  0  0  0  0  0
  137.8940   78.0072  221.0878 H   0  0  0  0  0  0  0  0  0  0  0  0
  138.2004   76.8893  223.9633 H   0  0  0  0  0  0  0  0  0  0  0  0
  136.6894   77.6080  223.2559 H   0  0  0  0  0  0  0  0  0  0  0  0
  134.4480   76.5468  222.3416 H   0  0  0  0  0  0  0  0  0  0  0  0
  132.8890   74.9140  223.8120 H   0  0  0  0  0  0  0  0  0  0  0  0
  133.6630   73.9900  222.5380 H   0  0  0  0  0  0  0  0  0  0  0  0
  135.5240   77.1937  224.4747 H   0  0  0  0  0  0  0  0  0  0  0  0
  133.5425   77.9884  224.7898 H   0  0  0  0  0  0  0  0  0  0  0  0
  132.7261   76.4235  224.3707 H   0  0  0  0  0  0  0  0  0  0  0  0
  134.1387   76.9807  227.0470 H   0  0  0  0  0  0  0  0  0  0  0  0
  132.4057   77.0926  226.8407 H   0  0  0  0  0  0  0  0  0  0  0  0
  131.3259   74.9885  227.4739 H   0  0  0  0  0  0  0  0  0  0  0  0
  131.3473   72.4725  227.4541 H   0  0  0  0  0  0  0  0  0  0  0  0
  135.1720   72.5277  225.4555 H   0  0  0  0  0  0  0  0  0  0  0  0
  136.0018   75.7294  226.1469 H   0  0  0  0  0  0  0  0  0  0  0  0
  136.0925   74.6267  224.7388 H   0  0  0  0  0  0  0  0  0  0  0  0
  138.9104   74.5398  222.8034 H   0  0  0  0  0  0  0  0  0  0  0  0
  137.8376   74.1169  221.4039 H   0  0  0  0  0  0  0  0  0  0  0  0
  140.0055   75.1288  220.7139 H   0  0  0  0  0  0  0  0  0  0  0  0
  138.5797   76.0685  220.1834 H   0  0  0  0  0  0  0  0  0  0  0  0
  1  2  1  0
  2  3  1  0
  3  4  2  0
  3  5  1  0
  5  6  1  0
  6  7  2  0
  7  8  1  0
  8  9  2  0
  9 10  1  0
 10 11  2  0
  5 12  1  0
 12 13  1  0
 13 14  1  0
 14 15  1  0
 15 16  1  0
 16 17  2  0
 16 18  1  0
 18 19  1  0
 18 20  1  0
 20 21  1  0
 21 22  1  0
 22 23  1  0
 23 24  2  0
 24 25  1  0
 25 26  2  0
 26 27  1  0
 26 28  1  0
 28 29  2  0
 29 30  1  0
 15 31  1  0
 31 32  1  0
 11  6  1  0
 32 12  1  0
 30 20  1  0
 29 23  1  0
  1 33  1  0
  1 34  1  0
  1 35  1  0
  2 36  1  0
  2 37  1  0
  7 38  1  0
  8 39  1  0
  9 40  1  0
 10 41  1  0
 11 42  1  0
 12 43  1  0
 13 44  1  0
 13 45  1  0
 14 46  1  0
 14 47  1  0
 18 48  1  6
 19 49  1  0
 19 50  1  0
 20 51  1  6
 21 52  1  0
 21 53  1  0
 22 54  1  0
 22 55  1  0
 24 56  1  0
 25 57  1  0
 28 58  1  0
 30 59  1  0
 30 60  1  0
 31 61  1  0
 31 62  1  0
 32 63  1  0
 32 64  1  0
M  END
>  <smiles>  (52) 
CCC(=O)N(c1ccccc1)C1CCN(C(=O)[C@@H](N)C2CCc3ccc(Cl)cc3C2)CC1

>  <score_type>  (52) 
oracle

>  <origin>  (52) 
autodockgpu

>  <m_score__min__energy>  (52) 
-7.6799999999999997

>  <m_primary>  (52) 
energy

>  <rmsd>  (52) 
7.808302743682515

>  <m_score__min__rmsd>  (52) 
7.808302743682515

>  <meeko>  (52) 
{"free_energy": -6.79, "intermolecular_energy": -8.88, "internal_energy": -2.44, "cluster_size": 13, "cluster_id": 6, "rank_in_cluster": 8}

>  <energy>  (52) 
-7.66

>  <cluster_rmsd>  (52) 
0.21

>  <cluster>  (52) 
1

$$$$

     RDKit          3D

 64 67  0  0  0  0  0  0  0  0999 V2000
  136.2770   70.0170  224.6220 C   0  0  0  0  0  0  0  0  0  0  0  0
  137.1250   68.9560  223.9120 C   0  0  0  0  0  0  0  0  0  0  0  0
  138.5410   69.1010  224.2220 C   0  0  0  0  0  0  0  0  0  0  0  0
  139.2000   68.0190  224.4210 O   0  0  0  0  0  0  0  0  0  0  0  0
  139.2800   70.2920  224.3280 N   0  0  0  0  0  0  0  0  0  0  0  0
  139.8700   70.5220  225.6440 C   0  0  0  0  0  0  0  0  0  0  0  0
  140.7500   71.5900  225.6870 C   0  0  0  0  0  0  0  0  0  0  0  0
  141.3690   71.9000  226.8860 C   0  0  0  0  0  0  0  0  0  0  0  0
  141.0690   71.1170  227.9800 C   0  0  0  0  0  0  0  0  0  0  0  0
  140.1870   70.0520  227.9230 C   0  0  0  0  0  0  0  0  0  0  0  0
  139.5640   69.7400  226.7140 C   0  0  0  0  0  0  0  0  0  0  0  0
  139.5180   71.2670  223.3320 C   0  0  0  0  0  0  0  0  0  0  0  0
  140.3150   70.7720  222.1280 C   0  0  0  0  0  0  0  0  0  0  0  0
  140.8490   72.0650  221.4830 C   0  0  0  0  0  0  0  0  0  0  0  0
  139.7910   72.9250  221.0410 N   0  0  0  0  0  0  0  0  0  0  0  0
  139.6410   73.5400  219.7870 C   0  0  0  0  0  0  0  0  0  0  0  0
  138.6040   74.2710  219.6320 O   0  0  0  0  0  0  0  0  0  0  0  0
  140.5220   73.4590  218.6120 C   0  0  1  0  0  0  0  0  0  0  0  0
  139.9030   73.2050  217.3660 N   0  0  0  0  0  0  0  0  0  0  0  0
  141.4700   74.6590  218.5340 C   0  0  1  0  0  0  0  0  0  0  0  0
  141.7620   75.1730  219.9040 C   0  0  0  0  0  0  0  0  0  0  0  0
  143.2380   75.5820  220.0600 C   0  0  0  0  0  0  0  0  0  0  0  0
  143.9680   74.2760  219.8520 C   0  0  0  0  0  0  0  0  0  0  0  0
  144.8700   73.7970  220.7770 C   0  0  0  0  0  0  0  0  0  0  0  0
  145.4970   72.5790  220.5080 C   0  0  0  0  0  0  0  0  0  0  0  0
  145.2030   71.8910  219.3300 C   0  0  0  0  0  0  0  0  0  0  0  0
  145.9990   70.3700  219.0100 Cl  0  0  0  0  0  0  0  0  0  0  0  0
  144.2880   72.4110  218.4240 C   0  0  0  0  0  0  0  0  0  0  0  0
  143.6590   73.6160  218.6790 C   0  0  0  0  0  0  0  0  0  0  0  0
  142.6740   74.2270  217.7480 C   0  0  0  0  0  0  0  0  0  0  0  0
  138.7440   73.1870  222.0360 C   0  0  0  0  0  0  0  0  0  0  0  0
  138.3030   71.9250  222.7290 C   0  0  0  0  0  0  0  0  0  0  0  0
  136.3741   69.8955  225.7109 H   0  0  0  0  0  0  0  0  0  0  0  0
  136.6257   71.0192  224.3323 H   0  0  0  0  0  0  0  0  0  0  0  0
  135.2225   69.8977  224.3323 H   0  0  0  0  0  0  0  0  0  0  0  0
  136.7902   67.9587  224.2333 H   0  0  0  0  0  0  0  0  0  0  0  0
  136.9969   69.0847  222.8271 H   0  0  0  0  0  0  0  0  0  0  0  0
  140.9541   72.1827  224.7831 H   0  0  0  0  0  0  0  0  0  0  0  0
  142.0745   72.7405  226.9628 H   0  0  0  0  0  0  0  0  0  0  0  0
  141.5519   71.3488  228.9407 H   0  0  0  0  0  0  0  0  0  0  0  0
  139.9787   69.4561  228.8238 H   0  0  0  0  0  0  0  0  0  0  0  0
  138.8581   68.9005  226.6302 H   0  0  0  0  0  0  0  0  0  0  0  0
  140.0839   71.9897  223.9382 H   0  0  0  0  0  0  0  0  0  0  0  0
  141.1434   70.1223  222.4468 H   0  0  0  0  0  0  0  0  0  0  0  0
  139.7085   70.1704  221.4350 H   0  0  0  0  0  0  0  0  0  0  0  0
  141.4588   72.6045  222.2227 H   0  0  0  0  0  0  0  0  0  0  0  0
  141.4454   71.7827  220.6029 H   0  0  0  0  0  0  0  0  0  0  0  0
  141.1023   72.5430  218.7969 H   0  0  0  0  0  0  0  0  0  0  0  0
  140.4370   73.4790  216.5160 H   0  0  0  0  0  0  0  0  0  0  0  0
  138.8830   73.4140  217.3260 H   0  0  0  0  0  0  0  0  0  0  0  0
  141.0236   75.5161  218.0086 H   0  0  0  0  0  0  0  0  0  0  0  0
  141.1273   76.0503  220.0977 H   0  0  0  0  0  0  0  0  0  0  0  0
  141.5533   74.3668  220.6227 H   0  0  0  0  0  0  0  0  0  0  0  0
  143.5267   76.3232  219.3002 H   0  0  0  0  0  0  0  0  0  0  0  0
  143.4596   76.0568  221.0272 H   0  0  0  0  0  0  0  0  0  0  0  0
  145.0891   74.3566  221.6983 H   0  0  0  0  0  0  0  0  0  0  0  0
  146.2214   72.1624  221.2233 H   0  0  0  0  0  0  0  0  0  0  0  0
  144.0622   71.8614  217.4983 H   0  0  0  0  0  0  0  0  0  0  0  0
  143.1250   75.0996  217.2529 H   0  0  0  0  0  0  0  0  0  0  0  0
  142.3780   73.4942  216.9829 H   0  0  0  0  0  0  0  0  0  0  0  0
  139.1349   73.8882  222.7880 H   0  0  0  0  0  0  0  0  0  0  0  0
  137.8743   73.6120  221.5135 H   0  0  0  0  0  0  0  0  0  0  0  0
  137.5802   72.1689  223.5215 H   0  0  0  0  0  0  0  0  0  0  0  0
  137.8218   71.2459  222.0098 H   0  0  0  0  0  0  0  0  0  0  0  0
  1  2  1  0
  2  3  1  0
  3  4  2  0
  3  5  1  0
  5  6  1  0
  6  7  2  0
  7  8  1  0
  8  9  2  0
  9 10  1  0
 10 11  2  0
  5 12  1  0
 12 13  1  0
 13 14  1  0
 14 15  1  0
 15 16  1  0
 16 17  2  0
 16 18  1  0
 18 19  1  0
 18 20  1  0
 20 21  1  0
 21 22  1  0
 22 23  1  0
 23 24  2  0
 24 25  1  0
 25 26  2  0
 26 27  1  0
 26 28  1  0
 28 29  2  0
 29 30  1  0
 15 31  1  0
 31 32  1  0
 11  6  1  0
 32 12  1  0
 30 20  1  0
 29 23  1  0
  1 33  1  0
  1 34  1  0
  1 35  1  0
  2 36  1  0
  2 37  1  0
  7 38  1  0
  8 39  1  0
  9 40  1  0
 10 41  1  0
 11 42  1  0
 12 43  1  0
 13 44  1  0
 13 45  1  0
 14 46  1  0
 14 47  1  0
 18 48  1  1
 19 49  1  0
 19 50  1  0
 20 51  1  6
 21 52  1  0
 21 53  1  0
 22 54  1  0
 22 55  1  0
 24 56  1  0
 25 57  1  0
 28 58  1  0
 30 59  1  0
 30 60  1  0
 31 61  1  0
 31 62  1  0
 32 63  1  0
 32 64  1  0
M  END
>  <smiles>  (53) 
CCC(=O)N(c1ccccc1)C1CCN(C(=O)[C@@H](N)C2CCc3ccc(Cl)cc3C2)CC1

>  <score_type>  (53) 
oracle

>  <origin>  (53) 
autodockgpu

>  <m_score__min__energy>  (53) 
-7.6799999999999997

>  <m_primary>  (53) 
energy

>  <rmsd>  (53) 
8.300282478740439

>  <m_score__min__rmsd>  (53) 
8.300282478740439

>  <meeko>  (53) 
{"free_energy": -7.03, "intermolecular_energy": -9.12, "internal_energy": -2.28, "cluster_size": 3, "cluster_id": 2, "rank_in_cluster": 2}

>  <energy>  (53) 
-7.06

>  <cluster_rmsd>  (53) 
0.0

>  <cluster>  (53) 
2

$$$$

     RDKit          3D

 64 67  0  0  0  0  0  0  0  0999 V2000
  143.3520   76.1450  218.6590 C   0  0  0  0  0  0  0  0  0  0  0  0
  142.6730   76.0100  220.0260 C   0  0  0  0  0  0  0  0  0  0  0  0
  141.5870   76.9690  220.1870 C   0  0  0  0  0  0  0  0  0  0  0  0
  141.2320   77.6180  219.1390 O   0  0  0  0  0  0  0  0  0  0  0  0
  140.8740   77.2700  221.3600 N   0  0  0  0  0  0  0  0  0  0  0  0
  141.4240   78.3780  222.1350 C   0  0  0  0  0  0  0  0  0  0  0  0
  141.7950   79.4710  221.3690 C   0  0  0  0  0  0  0  0  0  0  0  0
  142.3310   80.5800  222.0010 C   0  0  0  0  0  0  0  0  0  0  0  0
  142.4640   80.5320  223.3730 C   0  0  0  0  0  0  0  0  0  0  0  0
  142.0890   79.4330  224.1260 C   0  0  0  0  0  0  0  0  0  0  0  0
  141.5500   78.3150  223.4880 C   0  0  0  0  0  0  0  0  0  0  0  0
  139.7100   76.6440  221.8630 C   0  0  0  0  0  0  0  0  0  0  0  0
  138.5390   77.5870  222.1270 C   0  0  0  0  0  0  0  0  0  0  0  0
  137.6380   76.7940  223.0930 C   0  0  0  0  0  0  0  0  0  0  0  0
  137.1560   75.5770  222.5070 N   0  0  0  0  0  0  0  0  0  0  0  0
  135.8350   75.1010  222.4620 C   0  0  0  0  0  0  0  0  0  0  0  0
  135.6560   73.9770  221.8810 O   0  0  0  0  0  0  0  0  0  0  0  0
  134.6150   75.7230  222.9980 C   0  0  1  0  0  0  0  0  0  0  0  0
  133.4350   74.9440  222.9680 N   0  0  0  0  0  0  0  0  0  0  0  0
  134.8540   76.3290  224.3840 C   0  0  1  0  0  0  0  0  0  0  0  0
  133.5920   76.9290  224.9070 C   0  0  0  0  0  0  0  0  0  0  0  0
  133.4090   76.6590  226.4110 C   0  0  0  0  0  0  0  0  0  0  0  0
  133.3040   75.1540  226.4680 C   0  0  0  0  0  0  0  0  0  0  0  0
  132.2380   74.5260  227.0750 C   0  0  0  0  0  0  0  0  0  0  0  0
  132.2180   73.1290  227.0780 C   0  0  0  0  0  0  0  0  0  0  0  0
  133.2580   72.4180  226.4790 C   0  0  0  0  0  0  0  0  0  0  0  0
  133.2160   70.6730  226.4950 Cl  0  0  0  0  0  0  0  0  0  0  0  0
  134.3140   73.0910  225.8790 C   0  0  0  0  0  0  0  0  0  0  0  0
  134.3460   74.4740  225.8680 C   0  0  0  0  0  0  0  0  0  0  0  0
  135.4490   75.2520  225.2460 C   0  0  0  0  0  0  0  0  0  0  0  0
  138.1850   74.7360  221.8830 C   0  0  0  0  0  0  0  0  0  0  0  0
  139.1190   75.5430  221.0200 C   0  0  0  0  0  0  0  0  0  0  0  0
  144.4219   76.3577  218.8004 H   0  0  0  0  0  0  0  0  0  0  0  0
  143.2359   75.2062  218.0976 H   0  0  0  0  0  0  0  0  0  0  0  0
  142.8856   76.9680  218.0976 H   0  0  0  0  0  0  0  0  0  0  0  0
  142.2669   74.9923  220.1231 H   0  0  0  0  0  0  0  0  0  0  0  0
  143.4251   76.2108  220.8032 H   0  0  0  0  0  0  0  0  0  0  0  0
  141.6659   79.4580  220.2767 H   0  0  0  0  0  0  0  0  0  0  0  0
  142.6397   81.4677  221.4294 H   0  0  0  0  0  0  0  0  0  0  0  0
  142.8866   81.4053  223.8914 H   0  0  0  0  0  0  0  0  0  0  0  0
  142.2148   79.4407  225.2188 H   0  0  0  0  0  0  0  0  0  0  0  0
  141.2411   77.4234  224.0534 H   0  0  0  0  0  0  0  0  0  0  0  0
  140.1306   76.2310  222.7917 H   0  0  0  0  0  0  0  0  0  0  0  0
  138.8857   78.5213  222.5926 H   0  0  0  0  0  0  0  0  0  0  0  0
  138.0166   77.8842  221.2057 H   0  0  0  0  0  0  0  0  0  0  0  0
  138.2164   76.5479  223.9957 H   0  0  0  0  0  0  0  0  0  0  0  0
  136.7671   77.4210  223.3347 H   0  0  0  0  0  0  0  0  0  0  0  0
  134.4048   76.5262  222.2764 H   0  0  0  0  0  0  0  0  0  0  0  0
  132.8640   74.9290  223.8370 H   0  0  0  0  0  0  0  0  0  0  0  0
  133.5230   74.0230  222.4880 H   0  0  0  0  0  0  0  0  0  0  0  0
  135.5676   77.1658  224.3613 H   0  0  0  0  0  0  0  0  0  0  0  0
  133.6197   78.0161  224.7416 H   0  0  0  0  0  0  0  0  0  0  0  0
  132.7482   76.4682  224.3726 H   0  0  0  0  0  0  0  0  0  0  0  0
  134.2748   77.0182  226.9866 H   0  0  0  0  0  0  0  0  0  0  0  0
  132.5387   77.1739  226.8440 H   0  0  0  0  0  0  0  0  0  0  0  0
  131.4286   75.1062  227.5423 H   0  0  0  0  0  0  0  0  0  0  0  0
  131.3838   72.5908  227.5518 H   0  0  0  0  0  0  0  0  0  0  0  0
  135.1297   72.5213  225.4098 H   0  0  0  0  0  0  0  0  0  0  0  0
  136.0692   75.7077  226.0319 H   0  0  0  0  0  0  0  0  0  0  0  0
  136.0771   74.5875  224.6345 H   0  0  0  0  0  0  0  0  0  0  0  0
  138.7685   74.2416  222.6737 H   0  0  0  0  0  0  0  0  0  0  0  0
  137.6808   73.9969  221.2430 H   0  0  0  0  0  0  0  0  0  0  0  0
  139.9221   74.8969  220.6358 H   0  0  0  0  0  0  0  0  0  0  0  0
  138.5721   75.9709  220.1669 H   0  0  0  0  0  0  0  0  0  0  0  0
  1  2  1  0
  2  3  1  0
  3  4  2  0
  3  5  1  0
  5  6  1  0
  6  7  2  0
  7  8  1  0
  8  9  2  0
  9 10  1  0
 10 11  2  0
  5 12  1  0
 12 13  1  0
 13 14  1  0
 14 15  1  0
 15 16  1  0
 16 17  2  0
 16 18  1  0
 18 19  1  0
 18 20  1  0
 20 21  1  0
 21 22  1  0
 22 23  1  0
 23 24  2  0
 24 25  1  0
 25 26  2  0
 26 27  1  0
 26 28  1  0
 28 29  2  0
 29 30  1  0
 15 31  1  0
 31 32  1  0
 11  6  1  0
 32 12  1  0
 30 20  1  0
 29 23  1  0
  1 33  1  0
  1 34  1  0
  1 35  1  0
  2 36  1  0
  2 37  1  0
  7 38  1  0
  8 39  1  0
  9 40  1  0
 10 41  1  0
 11 42  1  0
 12 43  1  0
 13 44  1  0
 13 45  1  0
 14 46  1  0
 14 47  1  0
 18 48  1  6
 19 49  1  0
 19 50  1  0
 20 51  1  6
 21 52  1  0
 21 53  1  0
 22 54  1  0
 22 55  1  0
 24 56  1  0
 25 57  1  0
 28 58  1  0
 30 59  1  0
 30 60  1  0
 31 61  1  0
 31 62  1  0
 32 63  1  0
 32 64  1  0
M  END
>  <smiles>  (54) 
CCC(=O)N(c1ccccc1)C1CCN(C(=O)[C@@H](N)C2CCc3ccc(Cl)cc3C2)CC1

>  <score_type>  (54) 
oracle

>  <origin>  (54) 
autodockgpu

>  <m_score__min__energy>  (54) 
-7.6799999999999997

>  <m_primary>  (54) 
energy

>  <rmsd>  (54) 
7.801122753222197

>  <m_score__min__rmsd>  (54) 
7.801122753222197

>  <meeko>  (54) 
{"free_energy": -6.82, "intermolecular_energy": -8.91, "internal_energy": -2.31, "cluster_size": 13, "cluster_id": 6, "rank_in_cluster": 4}

>  <energy>  (54) 
-7.03

>  <cluster_rmsd>  (54) 
0.11

>  <cluster>  (54) 
2

$$$$

     RDKit          3D

 64 67  0  0  0  0  0  0  0  0999 V2000
  136.2080   69.5960  224.8920 C   0  0  0  0  0  0  0  0  0  0  0  0
  137.1580   68.9020  223.9090 C   0  0  0  0  0  0  0  0  0  0  0  0
  138.5530   69.0710  224.2950 C   0  0  0  0  0  0  0  0  0  0  0  0
  139.2020   68.0050  224.5890 O   0  0  0  0  0  0  0  0  0  0  0  0
  139.2800   70.2710  224.3830 N   0  0  0  0  0  0  0  0  0  0  0  0
  139.8740   70.5230  225.6930 C   0  0  0  0  0  0  0  0  0  0  0  0
  140.7660   71.5820  225.7130 C   0  0  0  0  0  0  0  0  0  0  0  0
  141.3900   71.9100  226.9040 C   0  0  0  0  0  0  0  0  0  0  0  0
  141.0810   71.1540  228.0150 C   0  0  0  0  0  0  0  0  0  0  0  0
  140.1870   70.0980  227.9820 C   0  0  0  0  0  0  0  0  0  0  0  0
  139.5600   69.7680  226.7800 C   0  0  0  0  0  0  0  0  0  0  0  0
  139.5030   71.2360  223.3750 C   0  0  0  0  0  0  0  0  0  0  0  0
  140.3260   70.7430  222.1870 C   0  0  0  0  0  0  0  0  0  0  0  0
  140.8330   72.0390  221.5260 C   0  0  0  0  0  0  0  0  0  0  0  0
  139.7580   72.8650  221.0600 N   0  0  0  0  0  0  0  0  0  0  0  0
  139.6050   73.4570  219.7960 C   0  0  0  0  0  0  0  0  0  0  0  0
  138.5530   74.1590  219.6200 O   0  0  0  0  0  0  0  0  0  0  0  0
  140.5000   73.3800  218.6310 C   0  0  1  0  0  0  0  0  0  0  0  0
  139.8990   73.1120  217.3790 N   0  0  0  0  0  0  0  0  0  0  0  0
  141.4350   74.5910  218.5570 C   0  0  1  0  0  0  0  0  0  0  0  0
  141.7200   75.1050  219.9280 C   0  0  0  0  0  0  0  0  0  0  0  0
  143.1910   75.5300  220.0870 C   0  0  0  0  0  0  0  0  0  0  0  0
  143.9370   74.2330  219.8760 C   0  0  0  0  0  0  0  0  0  0  0  0
  144.8420   73.7610  220.8010 C   0  0  0  0  0  0  0  0  0  0  0  0
  145.4840   72.5510  220.5290 C   0  0  0  0  0  0  0  0  0  0  0  0
  145.1980   71.8630  219.3490 C   0  0  0  0  0  0  0  0  0  0  0  0
  146.0110   70.3520  219.0260 Cl  0  0  0  0  0  0  0  0  0  0  0  0
  144.2780   72.3750  218.4430 C   0  0  0  0  0  0  0  0  0  0  0  0
  143.6360   73.5730  218.7010 C   0  0  0  0  0  0  0  0  0  0  0  0
  142.6450   74.1750  217.7710 C   0  0  0  0  0  0  0  0  0  0  0  0
  138.6950   73.1160  222.0410 C   0  0  0  0  0  0  0  0  0  0  0  0
  138.2790   71.8540  222.7500 C   0  0  0  0  0  0  0  0  0  0  0  0
  136.5177   69.3697  225.9230 H   0  0  0  0  0  0  0  0  0  0  0  0
  136.2421   70.6833  224.7292 H   0  0  0  0  0  0  0  0  0  0  0  0
  135.1825   69.2329  224.7292 H   0  0  0  0  0  0  0  0  0  0  0  0
  136.9228   67.8277  223.8846 H   0  0  0  0  0  0  0  0  0  0  0  0
  137.0192   69.3593  222.9182 H   0  0  0  0  0  0  0  0  0  0  0  0
  140.9753   72.1535  224.7967 H   0  0  0  0  0  0  0  0  0  0  0  0
  142.1060   72.7430  226.9622 H   0  0  0  0  0  0  0  0  0  0  0  0
  141.5668   71.4013  228.9704 H   0  0  0  0  0  0  0  0  0  0  0  0
  139.9726   69.5238  228.8954 H   0  0  0  0  0  0  0  0  0  0  0  0
  138.8444   68.9352  226.7144 H   0  0  0  0  0  0  0  0  0  0  0  0
  140.0433   71.9824  223.9758 H   0  0  0  0  0  0  0  0  0  0  0  0
  141.1677   70.1206  222.5250 H   0  0  0  0  0  0  0  0  0  0  0  0
  139.7428   70.1146  221.4978 H   0  0  0  0  0  0  0  0  0  0  0  0
  141.4216   72.6056  222.2625 H   0  0  0  0  0  0  0  0  0  0  0  0
  141.4446   71.7577  220.6561 H   0  0  0  0  0  0  0  0  0  0  0  0
  141.0880   72.4714  218.8278 H   0  0  0  0  0  0  0  0  0  0  0  0
  140.4380   73.3880  216.5340 H   0  0  0  0  0  0  0  0  0  0  0  0
  138.8770   73.3090  217.3270 H   0  0  0  0  0  0  0  0  0  0  0  0
  140.9791   75.4441  218.0332 H   0  0  0  0  0  0  0  0  0  0  0  0
  141.0754   75.9748  220.1229 H   0  0  0  0  0  0  0  0  0  0  0  0
  141.5197   74.2947  220.6445 H   0  0  0  0  0  0  0  0  0  0  0  0
  143.4720   76.2768  219.3298 H   0  0  0  0  0  0  0  0  0  0  0  0
  143.4057   76.0040  221.0561 H   0  0  0  0  0  0  0  0  0  0  0  0
  145.0524   74.3196  221.7249 H   0  0  0  0  0  0  0  0  0  0  0  0
  146.2134   72.1412  221.2432 H   0  0  0  0  0  0  0  0  0  0  0  0
  144.0588   71.8252  217.5158 H   0  0  0  0  0  0  0  0  0  0  0  0
  143.0864   75.0541  217.2787 H   0  0  0  0  0  0  0  0  0  0  0  0
  142.3582   73.4409  217.0037 H   0  0  0  0  0  0  0  0  0  0  0  0
  139.0608   73.8386  222.7854 H   0  0  0  0  0  0  0  0  0  0  0  0
  137.8201   73.5107  221.5037 H   0  0  0  0  0  0  0  0  0  0  0  0
  137.5424   72.0921  223.5315 H   0  0  0  0  0  0  0  0  0  0  0  0
  137.8225   71.1519  222.0368 H   0  0  0  0  0  0  0  0  0  0  0  0
  1  2  1  0
  2  3  1  0
  3  4  2  0
  3  5  1  0
  5  6  1  0
  6  7  2  0
  7  8  1  0
  8  9  2  0
  9 10  1  0
 10 11  2  0
  5 12  1  0
 12 13  1  0
 13 14  1  0
 14 15  1  0
 15 16  1  0
 16 17  2  0
 16 18  1  0
 18 19  1  0
 18 20  1  0
 20 21  1  0
 21 22  1  0
 22 23  1  0
 23 24  2  0
 24 25  1  0
 25 26  2  0
 26 27  1  0
 26 28  1  0
 28 29  2  0
 29 30  1  0
 15 31  1  0
 31 32  1  0
 11  6  1  0
 32 12  1  0
 30 20  1  0
 29 23  1  0
  1 33  1  0
  1 34  1  0
  1 35  1  0
  2 36  1  0
  2 37  1  0
  7 38  1  0
  8 39  1  0
  9 40  1  0
 10 41  1  0
 11 42  1  0
 12 43  1  0
 13 44  1  0
 13 45  1  0
 14 46  1  0
 14 47  1  0
 18 48  1  1
 19 49  1  0
 19 50  1  0
 20 51  1  6
 21 52  1  0
 21 53  1  0
 22 54  1  0
 22 55  1  0
 24 56  1  0
 25 57  1  0
 28 58  1  0
 30 59  1  0
 30 60  1  0
 31 61  1  0
 31 62  1  0
 32 63  1  0
 32 64  1  0
M  END
>  <smiles>  (55) 
CCC(=O)N(c1ccccc1)C1CCN(C(=O)[C@@H](N)C2CCc3ccc(Cl)cc3C2)CC1

>  <score_type>  (55) 
oracle

>  <origin>  (55) 
autodockgpu

>  <m_score__min__energy>  (55) 
-7.6799999999999997

>  <m_primary>  (55) 
energy

>  <rmsd>  (55) 
8.339654331451609

>  <m_score__min__rmsd>  (55) 
8.339654331451609

>  <meeko>  (55) 
{"free_energy": -7.06, "intermolecular_energy": -9.15, "internal_energy": -2.26, "cluster_size": 3, "cluster_id": 2, "rank_in_cluster": 1}

>  <energy>  (55) 
-6.86

>  <cluster_rmsd>  (55) 
0.46

>  <cluster>  (55) 
2

$$$$

     RDKit          3D

 64 67  0  0  0  0  0  0  0  0999 V2000
  142.5010   75.0570  220.4490 C   0  0  0  0  0  0  0  0  0  0  0  0
  142.5650   76.4310  219.7730 C   0  0  0  0  0  0  0  0  0  0  0  0
  141.3780   77.2280  220.0570 C   0  0  0  0  0  0  0  0  0  0  0  0
  140.8150   77.7990  219.0560 O   0  0  0  0  0  0  0  0  0  0  0  0
  140.7700   77.4470  221.3050 N   0  0  0  0  0  0  0  0  0  0  0  0
  141.4080   78.4810  222.1150 C   0  0  0  0  0  0  0  0  0  0  0  0
  141.8640   79.5660  221.3860 C   0  0  0  0  0  0  0  0  0  0  0  0
  142.4870   80.6070  222.0540 C   0  0  0  0  0  0  0  0  0  0  0  0
  142.6170   80.5000  223.4220 C   0  0  0  0  0  0  0  0  0  0  0  0
  142.1560   79.4090  224.1390 C   0  0  0  0  0  0  0  0  0  0  0  0
  141.5290   78.3610  223.4650 C   0  0  0  0  0  0  0  0  0  0  0  0
  139.6360   76.8040  221.8520 C   0  0  0  0  0  0  0  0  0  0  0  0
  138.4290   77.7120  222.0740 C   0  0  0  0  0  0  0  0  0  0  0  0
  137.5680   76.9380  223.0900 C   0  0  0  0  0  0  0  0  0  0  0  0
  137.1320   75.6720  222.5770 N   0  0  0  0  0  0  0  0  0  0  0  0
  135.8320   75.1400  222.5710 C   0  0  0  0  0  0  0  0  0  0  0  0
  135.6950   73.9800  222.0550 O   0  0  0  0  0  0  0  0  0  0  0  0
  134.5910   75.7420  223.0820 C   0  0  1  0  0  0  0  0  0  0  0  0
  133.4220   74.9490  223.0130 N   0  0  0  0  0  0  0  0  0  0  0  0
  134.7860   76.3340  224.4810 C   0  0  1  0  0  0  0  0  0  0  0  0
  133.5000   76.8930  224.9870 C   0  0  0  0  0  0  0  0  0  0  0  0
  133.2940   76.5980  226.4840 C   0  0  0  0  0  0  0  0  0  0  0  0
  133.2280   75.0890  226.5170 C   0  0  0  0  0  0  0  0  0  0  0  0
  132.1670   74.4250  227.0950 C   0  0  0  0  0  0  0  0  0  0  0  0
  132.1840   73.0280  227.0780 C   0  0  0  0  0  0  0  0  0  0  0  0
  133.2540   72.3530  226.4900 C   0  0  0  0  0  0  0  0  0  0  0  0
  133.2570   70.6070  226.4810 Cl  0  0  0  0  0  0  0  0  0  0  0  0
  134.3040   73.0620  225.9200 C   0  0  0  0  0  0  0  0  0  0  0  0
  134.2990   74.4450  225.9290 C   0  0  0  0  0  0  0  0  0  0  0  0
  135.3930   75.2610  225.3400 C   0  0  0  0  0  0  0  0  0  0  0  0
  138.1910   74.8390  221.9920 C   0  0  0  0  0  0  0  0  0  0  0  0
  139.0850   75.6340  221.0770 C   0  0  0  0  0  0  0  0  0  0  0  0
  142.5070   75.1852  221.5415 H   0  0  0  0  0  0  0  0  0  0  0  0
  141.5779   74.5416  220.1454 H   0  0  0  0  0  0  0  0  0  0  0  0
  143.3722   74.4580  220.1454 H   0  0  0  0  0  0  0  0  0  0  0  0
  143.4515   76.9683  220.1410 H   0  0  0  0  0  0  0  0  0  0  0  0
  142.6212   76.2755  218.6855 H   0  0  0  0  0  0  0  0  0  0  0  0
  141.7336   79.6007  220.2943 H   0  0  0  0  0  0  0  0  0  0  0  0
  142.8643   81.4871  221.5126 H   0  0  0  0  0  0  0  0  0  0  0  0
  143.1090   81.3180  223.9686 H   0  0  0  0  0  0  0  0  0  0  0  0
  142.2831   79.3690  225.2309 H   0  0  0  0  0  0  0  0  0  0  0  0
  141.1498   77.4780  224.0003 H   0  0  0  0  0  0  0  0  0  0  0  0
  140.0794   76.4613  222.7985 H   0  0  0  0  0  0  0  0  0  0  0  0
  138.7402   78.6840  222.4843 H   0  0  0  0  0  0  0  0  0  0  0  0
  137.8887   77.9363  221.1425 H   0  0  0  0  0  0  0  0  0  0  0  0
  138.1621   76.7661  223.9996 H   0  0  0  0  0  0  0  0  0  0  0  0
  136.6738   77.5417  223.3042 H   0  0  0  0  0  0  0  0  0  0  0  0
  134.3907   76.5513  222.3645 H   0  0  0  0  0  0  0  0  0  0  0  0
  132.7770   74.9970  223.8280 H   0  0  0  0  0  0  0  0  0  0  0  0
  133.5550   73.9940  222.6180 H   0  0  0  0  0  0  0  0  0  0  0  0
  135.4771   77.1898  224.4837 H   0  0  0  0  0  0  0  0  0  0  0  0
  133.5024   77.9827  224.8365 H   0  0  0  0  0  0  0  0  0  0  0  0
  132.6794   76.4171  224.4302 H   0  0  0  0  0  0  0  0  0  0  0  0
  134.1382   76.9716  227.0821 H   0  0  0  0  0  0  0  0  0  0  0  0
  132.4024   77.0841  226.9069 H   0  0  0  0  0  0  0  0  0  0  0  0
  131.3341   74.9772  227.5547 H   0  0  0  0  0  0  0  0  0  0  0  0
  131.3552   72.4614  227.5275 H   0  0  0  0  0  0  0  0  0  0  0  0
  135.1435   72.5207  225.4592 H   0  0  0  0  0  0  0  0  0  0  0  0
  135.9851   75.7218  226.1444 H   0  0  0  0  0  0  0  0  0  0  0  0
  136.0509   74.6224  224.7323 H   0  0  0  0  0  0  0  0  0  0  0  0
  138.7995   74.4142  222.8039 H   0  0  0  0  0  0  0  0  0  0  0  0
  137.7138   74.0447  221.3993 H   0  0  0  0  0  0  0  0  0  0  0  0
  139.9114   75.0007  220.7221 H   0  0  0  0  0  0  0  0  0  0  0  0
  138.5150   75.9909  220.2065 H   0  0  0  0  0  0  0  0  0  0  0  0
  1  2  1  0
  2  3  1  0
  3  4  2  0
  3  5  1  0
  5  6  1  0
  6  7  2  0
  7  8  1  0
  8  9  2  0
  9 10  1  0
 10 11  2  0
  5 12  1  0
 12 13  1  0
 13 14  1  0
 14 15  1  0
 15 16  1  0
 16 17  2  0
 16 18  1  0
 18 19  1  0
 18 20  1  0
 20 21  1  0
 21 22  1  0
 22 23  1  0
 23 24  2  0
 24 25  1  0
 25 26  2  0
 26 27  1  0
 26 28  1  0
 28 29  2  0
 29 30  1  0
 15 31  1  0
 31 32  1  0
 11  6  1  0
 32 12  1  0
 30 20  1  0
 29 23  1  0
  1 33  1  0
  1 34  1  0
  1 35  1  0
  2 36  1  0
  2 37  1  0
  7 38  1  0
  8 39  1  0
  9 40  1  0
 10 41  1  0
 11 42  1  0
 12 43  1  0
 13 44  1  0
 13 45  1  0
 14 46  1  0
 14 47  1  0
 18 48  1  6
 19 49  1  0
 19 50  1  0
 20 51  1  6
 21 52  1  0
 21 53  1  0
 22 54  1  0
 22 55  1  0
 24 56  1  0
 25 57  1  0
 28 58  1  0
 30 59  1  0
 30 60  1  0
 31 61  1  0
 31 62  1  0
 32 63  1  0
 32 64  1  0
M  END
>  <smiles>  (56) 
CCC(=O)N(c1ccccc1)C1CCN(C(=O)[C@@H](N)C2CCc3ccc(Cl)cc3C2)CC1

>  <score_type>  (56) 
oracle

>  <origin>  (56) 
autodockgpu

>  <m_score__min__energy>  (56) 
-7.6799999999999997

>  <m_primary>  (56) 
energy

>  <rmsd>  (56) 
7.8409669774674615

>  <m_score__min__rmsd>  (56) 
7.8409669774674615

>  <meeko>  (56) 
{"free_energy": -6.78, "intermolecular_energy": -8.86, "internal_energy": -2.45, "cluster_size": 13, "cluster_id": 6, "rank_in_cluster": 12}

>  <energy>  (56) 
-7.02

>  <cluster_rmsd>  (56) 
0.0

>  <cluster>  (56) 
3

$$$$

     RDKit          3D

 64 67  0  0  0  0  0  0  0  0999 V2000
  140.7960   71.8320  219.8880 C   0  0  0  0  0  0  0  0  0  0  0  0
  141.3270   72.4410  221.1900 C   0  0  0  0  0  0  0  0  0  0  0  0
  141.4390   73.8920  221.1010 C   0  0  0  0  0  0  0  0  0  0  0  0
  140.7630   74.5750  221.9500 O   0  0  0  0  0  0  0  0  0  0  0  0
  142.2070   74.6390  220.1910 N   0  0  0  0  0  0  0  0  0  0  0  0
  143.5040   74.0500  219.8670 C   0  0  0  0  0  0  0  0  0  0  0  0
  144.4680   74.2420  220.8420 C   0  0  0  0  0  0  0  0  0  0  0  0
  145.7360   73.7250  220.6400 C   0  0  0  0  0  0  0  0  0  0  0  0
  145.9670   73.0410  219.4660 C   0  0  0  0  0  0  0  0  0  0  0  0
  144.9930   72.8560  218.5000 C   0  0  0  0  0  0  0  0  0  0  0  0
  143.7160   73.3780  218.7040 C   0  0  0  0  0  0  0  0  0  0  0  0
  141.8770   75.8620  219.5640 C   0  0  0  0  0  0  0  0  0  0  0  0
  142.5600   77.0910  220.1580 C   0  0  0  0  0  0  0  0  0  0  0  0
  141.6920   78.2670  219.6700 C   0  0  0  0  0  0  0  0  0  0  0  0
  141.6740   78.3690  218.2400 N   0  0  0  0  0  0  0  0  0  0  0  0
  141.9030   79.5070  217.4500 C   0  0  0  0  0  0  0  0  0  0  0  0
  141.8280   79.3450  216.1850 O   0  0  0  0  0  0  0  0  0  0  0  0
  142.2220   80.8770  217.8810 C   0  0  1  0  0  0  0  0  0  0  0  0
  143.0340   81.6460  217.0160 N   0  0  0  0  0  0  0  0  0  0  0  0
  140.9630   81.6430  218.2990 C   0  0  1  0  0  0  0  0  0  0  0  0
  139.8210   80.7000  218.4720 C   0  0  0  0  0  0  0  0  0  0  0  0
  138.9550   81.0650  219.6920 C   0  0  0  0  0  0  0  0  0  0  0  0
  139.9180   80.8960  220.8430 C   0  0  0  0  0  0  0  0  0  0  0  0
  139.6210   80.0910  221.9220 C   0  0  0  0  0  0  0  0  0  0  0  0
  140.5700   79.9880  222.9410 C   0  0  0  0  0  0  0  0  0  0  0  0
  141.7710   80.6910  222.8450 C   0  0  0  0  0  0  0  0  0  0  0  0
  142.9450   80.5520  224.1310 Cl  0  0  0  0  0  0  0  0  0  0  0  0
  142.0300   81.4930  221.7410 C   0  0  0  0  0  0  0  0  0  0  0  0
  141.0990   81.6030  220.7240 C   0  0  0  0  0  0  0  0  0  0  0  0
  141.3130   82.4460  219.5190 C   0  0  0  0  0  0  0  0  0  0  0  0
  141.3730   77.1190  217.5300 C   0  0  0  0  0  0  0  0  0  0  0  0
  142.1570   75.9590  218.0860 C   0  0  0  0  0  0  0  0  0  0  0  0
  140.0898   71.0221  220.1233 H   0  0  0  0  0  0  0  0  0  0  0  0
  140.2815   72.6086  219.3030 H   0  0  0  0  0  0  0  0  0  0  0  0
  141.6355   71.4281  219.3030 H   0  0  0  0  0  0  0  0  0  0  0  0
  140.6386   72.1863  222.0093 H   0  0  0  0  0  0  0  0  0  0  0  0
  142.3305   72.0307  221.3759 H   0  0  0  0  0  0  0  0  0  0  0  0
  144.2302   74.7962  221.7619 H   0  0  0  0  0  0  0  0  0  0  0  0
  146.5306   73.8553  221.3894 H   0  0  0  0  0  0  0  0  0  0  0  0
  146.9693   72.6238  219.2889 H   0  0  0  0  0  0  0  0  0  0  0  0
  145.2245   72.3016  217.5786 H   0  0  0  0  0  0  0  0  0  0  0  0
  142.9171   73.2519  217.9585 H   0  0  0  0  0  0  0  0  0  0  0  0
  140.7926   75.8567  219.7488 H   0  0  0  0  0  0  0  0  0  0  0  0
  142.5698   77.0409  221.2568 H   0  0  0  0  0  0  0  0  0  0  0  0
  143.6121   77.1829  219.8502 H   0  0  0  0  0  0  0  0  0  0  0  0
  140.6623   78.1198  220.0278 H   0  0  0  0  0  0  0  0  0  0  0  0
  142.1254   79.1957  220.0697 H   0  0  0  0  0  0  0  0  0  0  0  0
  142.8668   80.7205  218.7583 H   0  0  0  0  0  0  0  0  0  0  0  0
  142.7790   82.6480  216.9050 H   0  0  0  0  0  0  0  0  0  0  0  0
  143.3210   81.1690  216.1350 H   0  0  0  0  0  0  0  0  0  0  0  0
  140.6222   82.3478  217.5262 H   0  0  0  0  0  0  0  0  0  0  0  0
  139.1941   80.7311  217.5687 H   0  0  0  0  0  0  0  0  0  0  0  0
  140.2321   79.6928  218.6347 H   0  0  0  0  0  0  0  0  0  0  0  0
  138.5932   82.1017  219.6261 H   0  0  0  0  0  0  0  0  0  0  0  0
  138.0493   80.4479  219.7856 H   0  0  0  0  0  0  0  0  0  0  0  0
  138.6666   79.5470  221.9784 H   0  0  0  0  0  0  0  0  0  0  0  0
  140.3710   79.3539  223.8175 H   0  0  0  0  0  0  0  0  0  0  0  0
  142.9801   82.0434  221.6751 H   0  0  0  0  0  0  0  0  0  0  0  0
  140.6703   83.3371  219.5722 H   0  0  0  0  0  0  0  0  0  0  0  0
  142.3644   82.7652  219.4677 H   0  0  0  0  0  0  0  0  0  0  0  0
  140.2989   76.9030  217.6284 H   0  0  0  0  0  0  0  0  0  0  0  0
  141.6544   77.2482  216.4745 H   0  0  0  0  0  0  0  0  0  0  0  0
  141.8482   75.0285  217.5873 H   0  0  0  0  0  0  0  0  0  0  0  0
  143.2326   76.1119  217.9138 H   0  0  0  0  0  0  0  0  0  0  0  0
  1  2  1  0
  2  3  1  0
  3  4  2  0
  3  5  1  0
  5  6  1  0
  6  7  2  0
  7  8  1  0
  8  9  2  0
  9 10  1  0
 10 11  2  0
  5 12  1  0
 12 13  1  0
 13 14  1  0
 14 15  1  0
 15 16  1  0
 16 17  2  0
 16 18  1  0
 18 19  1  0
 18 20  1  0
 20 21  1  0
 21 22  1  0
 22 23  1  0
 23 24  2  0
 24 25  1  0
 25 26  2  0
 26 27  1  0
 26 28  1  0
 28 29  2  0
 29 30  1  0
 15 31  1  0
 31 32  1  0
 11  6  1  0
 32 12  1  0
 30 20  1  0
 29 23  1  0
  1 33  1  0
  1 34  1  0
  1 35  1  0
  2 36  1  0
  2 37  1  0
  7 38  1  0
  8 39  1  0
  9 40  1  0
 10 41  1  0
 11 42  1  0
 12 43  1  0
 13 44  1  0
 13 45  1  0
 14 46  1  0
 14 47  1  0
 18 48  1  1
 19 49  1  0
 19 50  1  0
 20 51  1  6
 21 52  1  0
 21 53  1  0
 22 54  1  0
 22 55  1  0
 24 56  1  0
 25 57  1  0
 28 58  1  0
 30 59  1  0
 30 60  1  0
 31 61  1  0
 31 62  1  0
 32 63  1  0
 32 64  1  0
M  END
>  <smiles>  (57) 
CCC(=O)N(c1ccccc1)C1CCN(C(=O)[C@@H](N)C2CCc3ccc(Cl)cc3C2)CC1

>  <score_type>  (57) 
oracle

>  <origin>  (57) 
autodockgpu

>  <m_score__min__energy>  (57) 
-7.6799999999999997

>  <m_primary>  (57) 
energy

>  <rmsd>  (57) 
3.663690390042515

>  <m_score__min__rmsd>  (57) 
3.663690390042515

>  <meeko>  (57) 
{"free_energy": -6.61, "intermolecular_energy": -8.7, "internal_energy": -2.66, "cluster_size": 9, "cluster_id": 3, "rank_in_cluster": 9}

>  <energy>  (57) 
-7.0

>  <cluster_rmsd>  (57) 
0.38

>  <cluster>  (57) 
3

$$$$

     RDKit          3D

 64 67  0  0  0  0  0  0  0  0999 V2000
  140.6360   71.9340  222.5960 C   0  0  0  0  0  0  0  0  0  0  0  0
  141.1650   72.3650  221.2230 C   0  0  0  0  0  0  0  0  0  0  0  0
  141.3440   73.8090  221.1430 C   0  0  0  0  0  0  0  0  0  0  0  0
  140.6760   74.5200  221.9740 O   0  0  0  0  0  0  0  0  0  0  0  0
  142.1710   74.5240  220.2580 N   0  0  0  0  0  0  0  0  0  0  0  0
  143.4760   73.9120  220.0240 C   0  0  0  0  0  0  0  0  0  0  0  0
  144.4880   74.4220  220.8200 C   0  0  0  0  0  0  0  0  0  0  0  0
  145.7690   73.9150  220.6810 C   0  0  0  0  0  0  0  0  0  0  0  0
  145.9630   72.9190  219.7480 C   0  0  0  0  0  0  0  0  0  0  0  0
  144.9430   72.4180  218.9590 C   0  0  0  0  0  0  0  0  0  0  0  0
  143.6530   72.9310  219.0990 C   0  0  0  0  0  0  0  0  0  0  0  0
  141.8920   75.7330  219.5820 C   0  0  0  0  0  0  0  0  0  0  0  0
  142.4340   76.9870  220.2620 C   0  0  0  0  0  0  0  0  0  0  0  0
  141.6040   78.1290  219.6440 C   0  0  0  0  0  0  0  0  0  0  0  0
  141.7920   78.2290  218.2270 N   0  0  0  0  0  0  0  0  0  0  0  0
  142.0920   79.3740  217.4700 C   0  0  0  0  0  0  0  0  0  0  0  0
  142.2090   79.2080  216.2090 O   0  0  0  0  0  0  0  0  0  0  0  0
  142.2930   80.7550  217.9350 C   0  0  1  0  0  0  0  0  0  0  0  0
  143.0740   81.5980  217.1110 N   0  0  0  0  0  0  0  0  0  0  0  0
  140.9680   81.4180  218.3210 C   0  0  1  0  0  0  0  0  0  0  0  0
  139.9020   80.3860  218.4760 C   0  0  0  0  0  0  0  0  0  0  0  0
  138.9840   80.6840  219.6750 C   0  0  0  0  0  0  0  0  0  0  0  0
  139.9320   80.5990  220.8480 C   0  0  0  0  0  0  0  0  0  0  0  0
  139.6790   79.7760  221.9240 C   0  0  0  0  0  0  0  0  0  0  0  0
  140.6110   79.7560  222.9640 C   0  0  0  0  0  0  0  0  0  0  0  0
  141.7530   80.5530  222.8890 C   0  0  0  0  0  0  0  0  0  0  0  0
  142.9060   80.5150  224.2000 Cl  0  0  0  0  0  0  0  0  0  0  0  0
  141.9690   81.3690  221.7860 C   0  0  0  0  0  0  0  0  0  0  0  0
  141.0540   81.3990  220.7490 C   0  0  0  0  0  0  0  0  0  0  0  0
  141.2260   82.2510  219.5440 C   0  0  0  0  0  0  0  0  0  0  0  0
  141.6450   76.9680  217.4880 C   0  0  0  0  0  0  0  0  0  0  0  0
  142.3810   75.8380  218.1600 C   0  0  0  0  0  0  0  0  0  0  0  0
  141.2295   72.4175  223.3859 H   0  0  0  0  0  0  0  0  0  0  0  0
  139.5822   72.2339  222.6936 H   0  0  0  0  0  0  0  0  0  0  0  0
  140.7168   70.8413  222.6936 H   0  0  0  0  0  0  0  0  0  0  0  0
  142.1337   71.8753  221.0445 H   0  0  0  0  0  0  0  0  0  0  0  0
  140.4272   72.0685  220.4629 H   0  0  0  0  0  0  0  0  0  0  0  0
  144.2776   75.2168  221.5507 H   0  0  0  0  0  0  0  0  0  0  0  0
  146.6013   74.2932  221.2927 H   0  0  0  0  0  0  0  0  0  0  0  0
  146.9743   72.5039  219.6253 H   0  0  0  0  0  0  0  0  0  0  0  0
  145.1472   71.6221  218.2276 H   0  0  0  0  0  0  0  0  0  0  0  0
  142.8170   72.5587  218.4887 H   0  0  0  0  0  0  0  0  0  0  0  0
  140.7932   75.6882  219.6062 H   0  0  0  0  0  0  0  0  0  0  0  0
  142.2839   76.9383  221.3506 H   0  0  0  0  0  0  0  0  0  0  0  0
  143.5158   77.1182  220.1118 H   0  0  0  0  0  0  0  0  0  0  0  0
  140.5391   77.9435  219.8479 H   0  0  0  0  0  0  0  0  0  0  0  0
  141.9395   79.0737  220.0968 H   0  0  0  0  0  0  0  0  0  0  0  0
  142.9169   80.6296  218.8322 H   0  0  0  0  0  0  0  0  0  0  0  0
  142.7830   82.5950  217.0560 H   0  0  0  0  0  0  0  0  0  0  0  0
  143.3730   81.1810  216.2040 H   0  0  0  0  0  0  0  0  0  0  0  0
  140.5882   82.0894  217.5368 H   0  0  0  0  0  0  0  0  0  0  0  0
  139.2938   80.3627  217.5597 H   0  0  0  0  0  0  0  0  0  0  0  0
  140.3899   79.4162  218.6532 H   0  0  0  0  0  0  0  0  0  0  0  0
  138.5405   81.6875  219.5953 H   0  0  0  0  0  0  0  0  0  0  0  0
  138.1301   79.9949  219.7529 H   0  0  0  0  0  0  0  0  0  0  0  0
  138.7721   79.1547  221.9625 H   0  0  0  0  0  0  0  0  0  0  0  0
  140.4446   79.1128  223.8407 H   0  0  0  0  0  0  0  0  0  0  0  0
  142.8724   81.9947  221.7368 H   0  0  0  0  0  0  0  0  0  0  0  0
  140.5131   83.0880  219.5783 H   0  0  0  0  0  0  0  0  0  0  0  0
  142.2496   82.6526  219.5134 H   0  0  0  0  0  0  0  0  0  0  0  0
  140.5768   76.7122  217.4289 H   0  0  0  0  0  0  0  0  0  0  0  0
  142.0737   77.1071  216.4846 H   0  0  0  0  0  0  0  0  0  0  0  0
  142.1819   74.8961  217.6279 H   0  0  0  0  0  0  0  0  0  0  0  0
  143.4641   76.0297  218.1452 H   0  0  0  0  0  0  0  0  0  0  0  0
  1  2  1  0
  2  3  1  0
  3  4  2  0
  3  5  1  0
  5  6  1  0
  6  7  2  0
  7  8  1  0
  8  9  2  0
  9 10  1  0
 10 11  2  0
  5 12  1  0
 12 13  1  0
 13 14  1  0
 14 15  1  0
 15 16  1  0
 16 17  2  0
 16 18  1  0
 18 19  1  0
 18 20  1  0
 20 21  1  0
 21 22  1  0
 22 23  1  0
 23 24  2  0
 24 25  1  0
 25 26  2  0
 26 27  1  0
 26 28  1  0
 28 29  2  0
 29 30  1  0
 15 31  1  0
 31 32  1  0
 11  6  1  0
 32 12  1  0
 30 20  1  0
 29 23  1  0
  1 33  1  0
  1 34  1  0
  1 35  1  0
  2 36  1  0
  2 37  1  0
  7 38  1  0
  8 39  1  0
  9 40  1  0
 10 41  1  0
 11 42  1  0
 12 43  1  0
 13 44  1  0
 13 45  1  0
 14 46  1  0
 14 47  1  0
 18 48  1  1
 19 49  1  0
 19 50  1  0
 20 51  1  6
 21 52  1  0
 21 53  1  0
 22 54  1  0
 22 55  1  0
 24 56  1  0
 25 57  1  0
 28 58  1  0
 30 59  1  0
 30 60  1  0
 31 61  1  0
 31 62  1  0
 32 63  1  0
 32 64  1  0
M  END
>  <smiles>  (58) 
CCC(=O)N(c1ccccc1)C1CCN(C(=O)[C@@H](N)C2CCc3ccc(Cl)cc3C2)CC1

>  <score_type>  (58) 
oracle

>  <origin>  (58) 
autodockgpu

>  <m_score__min__energy>  (58) 
-7.6799999999999997

>  <m_primary>  (58) 
energy

>  <rmsd>  (58) 
3.6208446528121363

>  <m_score__min__rmsd>  (58) 
3.6208446528121363

>  <meeko>  (58) 
{"free_energy": -6.9, "intermolecular_energy": -8.99, "internal_energy": -2.59, "cluster_size": 9, "cluster_id": 3, "rank_in_cluster": 6}

>  <energy>  (58) 
-7.0

>  <cluster_rmsd>  (58) 
0.42

>  <cluster>  (58) 
3

$$$$

     RDKit          3D

 64 67  0  0  0  0  0  0  0  0999 V2000
  136.0820   83.3440  221.6170 C   0  0  0  0  0  0  0  0  0  0  0  0
  136.9570   83.9500  222.7200 C   0  0  0  0  0  0  0  0  0  0  0  0
  136.6180   83.4160  224.0330 C   0  0  0  0  0  0  0  0  0  0  0  0
  136.3160   84.2690  224.9410 O   0  0  0  0  0  0  0  0  0  0  0  0
  136.5780   82.0670  224.4280 N   0  0  0  0  0  0  0  0  0  0  0  0
  136.0870   81.8490  225.7850 C   0  0  0  0  0  0  0  0  0  0  0  0
  134.7180   81.6560  225.8640 C   0  0  0  0  0  0  0  0  0  0  0  0
  134.1430   81.4390  227.1050 C   0  0  0  0  0  0  0  0  0  0  0  0
  134.9770   81.4280  228.2020 C   0  0  0  0  0  0  0  0  0  0  0  0
  136.3440   81.6220  228.1090 C   0  0  0  0  0  0  0  0  0  0  0  0
  136.9230   81.8410  226.8580 C   0  0  0  0  0  0  0  0  0  0  0  0
  136.9440   80.9250  223.6800 C   0  0  0  0  0  0  0  0  0  0  0  0
  138.3220   80.3560  224.0130 C   0  0  0  0  0  0  0  0  0  0  0  0
  138.6720   79.4950  222.7840 C   0  0  0  0  0  0  0  0  0  0  0  0
  137.7400   78.4230  222.5930 N   0  0  0  0  0  0  0  0  0  0  0  0
  138.0170   77.0610  222.3850 C   0  0  0  0  0  0  0  0  0  0  0  0
  137.0070   76.2920  222.2360 O   0  0  0  0  0  0  0  0  0  0  0  0
  139.3230   76.3890  222.3130 C   0  0  1  0  0  0  0  0  0  0  0  0
  139.3500   75.0110  222.6280 N   0  0  0  0  0  0  0  0  0  0  0  0
  140.0330   76.6770  220.9880 C   0  0  1  0  0  0  0  0  0  0  0  0
  139.2650   77.6850  220.2010 C   0  0  0  0  0  0  0  0  0  0  0  0
  140.1930   78.6950  219.5010 C   0  0  0  0  0  0  0  0  0  0  0  0
  140.8720   79.3820  220.6620 C   0  0  0  0  0  0  0  0  0  0  0  0
  140.8610   80.7530  220.7980 C   0  0  0  0  0  0  0  0  0  0  0  0
  141.5100   81.3060  221.9040 C   0  0  0  0  0  0  0  0  0  0  0  0
  142.1430   80.4720  222.8260 C   0  0  0  0  0  0  0  0  0  0  0  0
  142.9510   81.1820  224.2020 Cl  0  0  0  0  0  0  0  0  0  0  0  0
  142.1310   79.0940  222.6500 C   0  0  0  0  0  0  0  0  0  0  0  0
  141.4920   78.5340  221.5590 C   0  0  0  0  0  0  0  0  0  0  0  0
  141.4460   77.0690  221.3130 C   0  0  0  0  0  0  0  0  0  0  0  0
  136.3250   78.8140  222.6170 C   0  0  0  0  0  0  0  0  0  0  0  0
  136.0200   79.7370  223.7680 C   0  0  0  0  0  0  0  0  0  0  0  0
  135.2592   82.7741  222.0733 H   0  0  0  0  0  0  0  0  0  0  0  0
  135.6681   84.1498  220.9931 H   0  0  0  0  0  0  0  0  0  0  0  0
  136.6908   82.6731  220.9931 H   0  0  0  0  0  0  0  0  0  0  0  0
  138.0112   83.7220  222.5040 H   0  0  0  0  0  0  0  0  0  0  0  0
  136.7834   85.0361  222.7368 H   0  0  0  0  0  0  0  0  0  0  0  0
  134.0975   81.6747  224.9559 H   0  0  0  0  0  0  0  0  0  0  0  0
  133.0596   81.2811  227.2113 H   0  0  0  0  0  0  0  0  0  0  0  0
  134.5366   81.2575  229.1955 H   0  0  0  0  0  0  0  0  0  0  0  0
  136.9693   81.6038  229.0138 H   0  0  0  0  0  0  0  0  0  0  0  0
  138.0056   81.9998  226.7450 H   0  0  0  0  0  0  0  0  0  0  0  0
  136.9062   81.3657  222.6728 H   0  0  0  0  0  0  0  0  0  0  0  0
  139.0570   81.1632  224.1479 H   0  0  0  0  0  0  0  0  0  0  0  0
  138.3291   79.7810  224.9507 H   0  0  0  0  0  0  0  0  0  0  0  0
  138.6648   80.1348  221.8892 H   0  0  0  0  0  0  0  0  0  0  0  0
  139.6656   79.0539  222.9516 H   0  0  0  0  0  0  0  0  0  0  0  0
  139.8865   76.8473  223.1391 H   0  0  0  0  0  0  0  0  0  0  0  0
  140.0460   74.4300  222.1180 H   0  0  0  0  0  0  0  0  0  0  0  0
  138.4170   74.5640  222.7510 H   0  0  0  0  0  0  0  0  0  0  0  0
  140.0778   75.7938  220.3338 H   0  0  0  0  0  0  0  0  0  0  0  0
  138.6690   77.1620  219.4386 H   0  0  0  0  0  0  0  0  0  0  0  0
  138.6191   78.2407  220.8967 H   0  0  0  0  0  0  0  0  0  0  0  0
  140.9254   78.1825  218.8599 H   0  0  0  0  0  0  0  0  0  0  0  0
  139.6595   79.3888  218.8346 H   0  0  0  0  0  0  0  0  0  0  0  0
  140.3566   81.3922  220.0584 H   0  0  0  0  0  0  0  0  0  0  0  0
  141.5221   82.3965  222.0479 H   0  0  0  0  0  0  0  0  0  0  0  0
  142.6326   78.4447  223.3826 H   0  0  0  0  0  0  0  0  0  0  0  0
  142.1037   76.8151  220.4686 H   0  0  0  0  0  0  0  0  0  0  0  0
  141.7872   76.5287  222.2084 H   0  0  0  0  0  0  0  0  0  0  0  0
  136.0811   79.3268  221.6749 H   0  0  0  0  0  0  0  0  0  0  0  0
  135.7202   77.9033  222.7390 H   0  0  0  0  0  0  0  0  0  0  0  0
  134.9745   80.0737  223.7078 H   0  0  0  0  0  0  0  0  0  0  0  0
  136.1672   79.2125  224.7236 H   0  0  0  0  0  0  0  0  0  0  0  0
  1  2  1  0
  2  3  1  0
  3  4  2  0
  3  5  1  0
  5  6  1  0
  6  7  2  0
  7  8  1  0
  8  9  2  0
  9 10  1  0
 10 11  2  0
  5 12  1  0
 12 13  1  0
 13 14  1  0
 14 15  1  0
 15 16  1  0
 16 17  2  0
 16 18  1  0
 18 19  1  0
 18 20  1  0
 20 21  1  0
 21 22  1  0
 22 23  1  0
 23 24  2  0
 24 25  1  0
 25 26  2  0
 26 27  1  0
 26 28  1  0
 28 29  2  0
 29 30  1  0
 15 31  1  0
 31 32  1  0
 11  6  1  0
 32 12  1  0
 30 20  1  0
 29 23  1  0
  1 33  1  0
  1 34  1  0
  1 35  1  0
  2 36  1  0
  2 37  1  0
  7 38  1  0
  8 39  1  0
  9 40  1  0
 10 41  1  0
 11 42  1  0
 12 43  1  0
 13 44  1  0
 13 45  1  0
 14 46  1  0
 14 47  1  0
 18 48  1  1
 19 49  1  0
 19 50  1  0
 20 51  1  6
 21 52  1  0
 21 53  1  0
 22 54  1  0
 22 55  1  0
 24 56  1  0
 25 57  1  0
 28 58  1  0
 30 59  1  0
 30 60  1  0
 31 61  1  0
 31 62  1  0
 32 63  1  0
 32 64  1  0
M  END
>  <smiles>  (59) 
CCC(=O)N(c1ccccc1)C1CCN(C(=O)[C@@H](N)C2CCc3ccc(Cl)cc3C2)CC1

>  <score_type>  (59) 
oracle

>  <origin>  (59) 
autodockgpu

>  <m_score__min__energy>  (59) 
-7.6799999999999997

>  <m_primary>  (59) 
energy

>  <rmsd>  (59) 
6.072910373034409

>  <m_score__min__rmsd>  (59) 
6.072910373034409

>  <meeko>  (59) 
{"free_energy": -6.65, "intermolecular_energy": -8.73, "internal_energy": -2.78, "cluster_size": 17, "cluster_id": 4, "rank_in_cluster": 11}

>  <energy>  (59) 
-6.96

>  <cluster_rmsd>  (59) 
0.36

>  <cluster>  (59) 
3

$$$$

     RDKit          3D

 64 67  0  0  0  0  0  0  0  0999 V2000
  137.7470   83.8380  222.1320 C   0  0  0  0  0  0  0  0  0  0  0  0
  136.5060   84.2230  222.9440 C   0  0  0  0  0  0  0  0  0  0  0  0
  136.5280   83.6340  224.2770 C   0  0  0  0  0  0  0  0  0  0  0  0
  136.5480   84.4490  225.2670 O   0  0  0  0  0  0  0  0  0  0  0  0
  136.5280   82.2690  224.6130 N   0  0  0  0  0  0  0  0  0  0  0  0
  136.0350   81.9770  225.9560 C   0  0  0  0  0  0  0  0  0  0  0  0
  134.6770   81.7120  226.0120 C   0  0  0  0  0  0  0  0  0  0  0  0
  134.1020   81.4220  227.2380 C   0  0  0  0  0  0  0  0  0  0  0  0
  134.9260   81.4120  228.3430 C   0  0  0  0  0  0  0  0  0  0  0  0
  136.2820   81.6780  228.2720 C   0  0  0  0  0  0  0  0  0  0  0  0
  136.8610   81.9710  227.0370 C   0  0  0  0  0  0  0  0  0  0  0  0
  136.9350   81.1720  223.8190 C   0  0  0  0  0  0  0  0  0  0  0  0
  138.2310   80.5020  224.2690 C   0  0  0  0  0  0  0  0  0  0  0  0
  138.6960   79.7250  223.0220 C   0  0  0  0  0  0  0  0  0  0  0  0
  137.7480   78.7250  222.6240 N   0  0  0  0  0  0  0  0  0  0  0  0
  137.9870   77.3720  222.3340 C   0  0  0  0  0  0  0  0  0  0  0  0
  136.9710   76.6750  221.9950 O   0  0  0  0  0  0  0  0  0  0  0  0
  139.2600   76.6360  222.3660 C   0  0  1  0  0  0  0  0  0  0  0  0
  139.1970   75.2640  222.7030 N   0  0  0  0  0  0  0  0  0  0  0  0
  140.0750   76.8630  221.0890 C   0  0  1  0  0  0  0  0  0  0  0  0
  139.3550   77.8010  220.1800 C   0  0  0  0  0  0  0  0  0  0  0  0
  140.3160   78.7910  219.4980 C   0  0  0  0  0  0  0  0  0  0  0  0
  140.8780   79.5650  220.6670 C   0  0  0  0  0  0  0  0  0  0  0  0
  140.8240   80.9420  220.7160 C   0  0  0  0  0  0  0  0  0  0  0  0
  141.3640   81.5770  221.8360 C   0  0  0  0  0  0  0  0  0  0  0  0
  141.9340   80.8180  222.8580 C   0  0  0  0  0  0  0  0  0  0  0  0
  142.6050   81.6320  224.2500 Cl  0  0  0  0  0  0  0  0  0  0  0  0
  141.9680   79.4330  222.7680 C   0  0  0  0  0  0  0  0  0  0  0  0
  141.4370   78.7910  221.6650 C   0  0  0  0  0  0  0  0  0  0  0  0
  141.4460   77.3130  221.5070 C   0  0  0  0  0  0  0  0  0  0  0  0
  136.3610   79.1920  222.5080 C   0  0  0  0  0  0  0  0  0  0  0  0
  135.9540   80.0350  223.6880 C   0  0  0  0  0  0  0  0  0  0  0  0
  138.5689   83.5830  222.8172 H   0  0  0  0  0  0  0  0  0  0  0  0
  137.5154   82.9695  221.4979 H   0  0  0  0  0  0  0  0  0  0  0  0
  138.0476   84.6851  221.4979 H   0  0  0  0  0  0  0  0  0  0  0  0
  136.4682   85.3182  223.0391 H   0  0  0  0  0  0  0  0  0  0  0  0
  135.6196   83.8416  222.4159 H   0  0  0  0  0  0  0  0  0  0  0  0
  134.0652   81.7315  225.0980 H   0  0  0  0  0  0  0  0  0  0  0  0
  133.0268   81.2074  227.3268 H   0  0  0  0  0  0  0  0  0  0  0  0
  134.4861   81.1824  229.3247 H   0  0  0  0  0  0  0  0  0  0  0  0
  136.8989   81.6586  229.1825 H   0  0  0  0  0  0  0  0  0  0  0  0
  137.9353   82.1871  226.9417 H   0  0  0  0  0  0  0  0  0  0  0  0
  137.0472   81.6937  222.8571 H   0  0  0  0  0  0  0  0  0  0  0  0
  138.9785   81.2532  224.5638 H   0  0  0  0  0  0  0  0  0  0  0  0
  138.0920   79.8536  225.1466 H   0  0  0  0  0  0  0  0  0  0  0  0
  138.8322   80.4345  222.1925 H   0  0  0  0  0  0  0  0  0  0  0  0
  139.6390   79.2169  223.2720 H   0  0  0  0  0  0  0  0  0  0  0  0
  139.7851   77.0827  223.2232 H   0  0  0  0  0  0  0  0  0  0  0  0
  139.8820   74.6370  222.2350 H   0  0  0  0  0  0  0  0  0  0  0  0
  138.2350   74.8720  222.7890 H   0  0  0  0  0  0  0  0  0  0  0  0
  140.1954   75.9437  220.4971 H   0  0  0  0  0  0  0  0  0  0  0  0
  138.8367   77.2174  219.4049 H   0  0  0  0  0  0  0  0  0  0  0  0
  138.6412   78.3803  220.7841 H   0  0  0  0  0  0  0  0  0  0  0  0
  141.1115   78.2609  218.9538 H   0  0  0  0  0  0  0  0  0  0  0  0
  139.8264   79.4282  218.7469 H   0  0  0  0  0  0  0  0  0  0  0  0
  140.3700   81.5216  219.8988 H   0  0  0  0  0  0  0  0  0  0  0  0
  141.3400   82.6741  221.9123 H   0  0  0  0  0  0  0  0  0  0  0  0
  142.4201   78.8432  223.5790 H   0  0  0  0  0  0  0  0  0  0  0  0
  142.1792   77.0277  220.7382 H   0  0  0  0  0  0  0  0  0  0  0  0
  141.7217   76.8368  222.4595 H   0  0  0  0  0  0  0  0  0  0  0  0
  136.2628   79.7918  221.5912 H   0  0  0  0  0  0  0  0  0  0  0  0
  135.7048   78.3098  222.4756 H   0  0  0  0  0  0  0  0  0  0  0  0
  134.9414   80.4341  223.5283 H   0  0  0  0  0  0  0  0  0  0  0  0
  135.9535   79.4277  224.6051 H   0  0  0  0  0  0  0  0  0  0  0  0
  1  2  1  0
  2  3  1  0
  3  4  2  0
  3  5  1  0
  5  6  1  0
  6  7  2  0
  7  8  1  0
  8  9  2  0
  9 10  1  0
 10 11  2  0
  5 12  1  0
 12 13  1  0
 13 14  1  0
 14 15  1  0
 15 16  1  0
 16 17  2  0
 16 18  1  0
 18 19  1  0
 18 20  1  0
 20 21  1  0
 21 22  1  0
 22 23  1  0
 23 24  2  0
 24 25  1  0
 25 26  2  0
 26 27  1  0
 26 28  1  0
 28 29  2  0
 29 30  1  0
 15 31  1  0
 31 32  1  0
 11  6  1  0
 32 12  1  0
 30 20  1  0
 29 23  1  0
  1 33  1  0
  1 34  1  0
  1 35  1  0
  2 36  1  0
  2 37  1  0
  7 38  1  0
  8 39  1  0
  9 40  1  0
 10 41  1  0
 11 42  1  0
 12 43  1  0
 13 44  1  0
 13 45  1  0
 14 46  1  0
 14 47  1  0
 18 48  1  1
 19 49  1  0
 19 50  1  0
 20 51  1  6
 21 52  1  0
 21 53  1  0
 22 54  1  0
 22 55  1  0
 24 56  1  0
 25 57  1  0
 28 58  1  0
 30 59  1  0
 30 60  1  0
 31 61  1  0
 31 62  1  0
 32 63  1  0
 32 64  1  0
M  END
>  <smiles>  (60) 
CCC(=O)N(c1ccccc1)C1CCN(C(=O)[C@@H](N)C2CCc3ccc(Cl)cc3C2)CC1

>  <score_type>  (60) 
oracle

>  <origin>  (60) 
autodockgpu

>  <m_score__min__energy>  (60) 
-7.6799999999999997

>  <m_primary>  (60) 
energy

>  <rmsd>  (60) 
6.127470452486941

>  <m_score__min__rmsd>  (60) 
6.127470452486941

>  <meeko>  (60) 
{"free_energy": -6.61, "intermolecular_energy": -8.7, "internal_energy": -2.92, "cluster_size": 17, "cluster_id": 4, "rank_in_cluster": 14}

>  <energy>  (60) 
-6.91

>  <cluster_rmsd>  (60) 
0.47

>  <cluster>  (60) 
3

$$$$

     RDKit          3D

 64 67  0  0  0  0  0  0  0  0999 V2000
  142.6060   80.3160  223.4820 C   0  0  0  0  0  0  0  0  0  0  0  0
  141.8470   79.0140  223.7610 C   0  0  0  0  0  0  0  0  0  0  0  0
  140.7520   78.8150  222.8200 C   0  0  0  0  0  0  0  0  0  0  0  0
  139.6380   79.3830  223.1050 O   0  0  0  0  0  0  0  0  0  0  0  0
  140.7680   78.0710  221.6280 N   0  0  0  0  0  0  0  0  0  0  0  0
  141.3790   78.7590  220.4940 C   0  0  0  0  0  0  0  0  0  0  0  0
  141.9960   77.9140  219.5880 C   0  0  0  0  0  0  0  0  0  0  0  0
  142.6090   78.4600  218.4730 C   0  0  0  0  0  0  0  0  0  0  0  0
  142.5660   79.8310  218.3280 C   0  0  0  0  0  0  0  0  0  0  0  0
  141.9450   80.6640  219.2420 C   0  0  0  0  0  0  0  0  0  0  0  0
  141.3290   80.1130  220.3650 C   0  0  0  0  0  0  0  0  0  0  0  0
  140.2790   76.7630  221.4040 C   0  0  0  0  0  0  0  0  0  0  0  0
  141.1600   75.6460  221.9590 C   0  0  0  0  0  0  0  0  0  0  0  0
  140.7050   74.3970  221.1810 C   0  0  0  0  0  0  0  0  0  0  0  0
  139.3250   74.0860  221.4170 N   0  0  0  0  0  0  0  0  0  0  0  0
  138.7640   72.8490  221.7730 C   0  0  0  0  0  0  0  0  0  0  0  0
  137.4960   72.8220  221.9260 O   0  0  0  0  0  0  0  0  0  0  0  0
  139.4420   71.5630  221.9980 C   0  0  1  0  0  0  0  0  0  0  0  0
  140.6800   71.6040  222.6810 N   0  0  0  0  0  0  0  0  0  0  0  0
  138.4960   70.5270  222.6110 C   0  0  1  0  0  0  0  0  0  0  0  0
  139.1230   69.1740  222.5780 C   0  0  0  0  0  0  0  0  0  0  0  0
  138.8430   68.3800  223.8660 C   0  0  0  0  0  0  0  0  0  0  0  0
  139.5200   69.2170  224.9260 C   0  0  0  0  0  0  0  0  0  0  0  0
  140.4500   68.6770  225.7880 C   0  0  0  0  0  0  0  0  0  0  0  0
  141.0310   69.5240  226.7350 C   0  0  0  0  0  0  0  0  0  0  0  0
  140.6620   70.8680  226.7840 C   0  0  0  0  0  0  0  0  0  0  0  0
  141.3990   71.9100  227.9770 Cl  0  0  0  0  0  0  0  0  0  0  0  0
  139.7190   71.3700  225.8970 C   0  0  0  0  0  0  0  0  0  0  0  0
  139.1370   70.5430  224.9540 C   0  0  0  0  0  0  0  0  0  0  0  0
  138.1200   71.0190  223.9790 C   0  0  0  0  0  0  0  0  0  0  0  0
  138.3970   75.2130  221.2590 C   0  0  0  0  0  0  0  0  0  0  0  0
  138.9050   76.4560  221.9420 C   0  0  0  0  0  0  0  0  0  0  0  0
  142.8827   80.7906  224.4350 H   0  0  0  0  0  0  0  0  0  0  0  0
  143.5160   80.0936  222.9054 H   0  0  0  0  0  0  0  0  0  0  0  0
  141.9641   80.9983  222.9054 H   0  0  0  0  0  0  0  0  0  0  0  0
  142.5464   78.1690  223.6777 H   0  0  0  0  0  0  0  0  0  0  0  0
  141.4215   79.0759  224.7735 H   0  0  0  0  0  0  0  0  0  0  0  0
  141.9993   76.8262  219.7511 H   0  0  0  0  0  0  0  0  0  0  0  0
  143.1119   77.8236  217.7300 H   0  0  0  0  0  0  0  0  0  0  0  0
  143.0464   80.2820  217.4472 H   0  0  0  0  0  0  0  0  0  0  0  0
  141.9374   81.7525  219.0838 H   0  0  0  0  0  0  0  0  0  0  0  0
  140.8256   80.7438  221.1125 H   0  0  0  0  0  0  0  0  0  0  0  0
  140.2652   76.7759  220.3042 H   0  0  0  0  0  0  0  0  0  0  0  0
  142.2235   75.8571  221.7735 H   0  0  0  0  0  0  0  0  0  0  0  0
  141.0608   75.5279  223.0481 H   0  0  0  0  0  0  0  0  0  0  0  0
  140.8488   74.5775  220.1055 H   0  0  0  0  0  0  0  0  0  0  0  0
  141.3078   73.5446  221.5274 H   0  0  0  0  0  0  0  0  0  0  0  0
  139.7250   71.2481  220.9827 H   0  0  0  0  0  0  0  0  0  0  0  0
  140.7650   72.3010  223.4480 H   0  0  0  0  0  0  0  0  0  0  0  0
  141.5240   71.5150  222.0770 H   0  0  0  0  0  0  0  0  0  0  0  0
  137.5662   70.4123  222.0345 H   0  0  0  0  0  0  0  0  0  0  0  0
  138.7186   68.6155  221.7210 H   0  0  0  0  0  0  0  0  0  0  0  0
  140.2115   69.3049  222.4882 H   0  0  0  0  0  0  0  0  0  0  0  0
  137.7624   68.2988  224.0549 H   0  0  0  0  0  0  0  0  0  0  0  0
  139.2095   67.3435  223.8282 H   0  0  0  0  0  0  0  0  0  0  0  0
  140.7258   67.6136  225.7321 H   0  0  0  0  0  0  0  0  0  0  0  0
  141.7781   69.1316  227.4406 H   0  0  0  0  0  0  0  0  0  0  0  0
  139.4334   72.4312  225.9448 H   0  0  0  0  0  0  0  0  0  0  0  0
  137.1305   70.6255  224.2547 H   0  0  0  0  0  0  0  0  0  0  0  0
  138.0820   72.1183  223.9842 H   0  0  0  0  0  0  0  0  0  0  0  0
  138.2705   75.4224  220.1866 H   0  0  0  0  0  0  0  0  0  0  0  0
  137.4393   74.9350  221.7232 H   0  0  0  0  0  0  0  0  0  0  0  0
  138.2277   77.2976  221.7347 H   0  0  0  0  0  0  0  0  0  0  0  0
  138.9500   76.2995  223.0299 H   0  0  0  0  0  0  0  0  0  0  0  0
  1  2  1  0
  2  3  1  0
  3  4  2  0
  3  5  1  0
  5  6  1  0
  6  7  2  0
  7  8  1  0
  8  9  2  0
  9 10  1  0
 10 11  2  0
  5 12  1  0
 12 13  1  0
 13 14  1  0
 14 15  1  0
 15 16  1  0
 16 17  2  0
 16 18  1  0
 18 19  1  0
 18 20  1  0
 20 21  1  0
 21 22  1  0
 22 23  1  0
 23 24  2  0
 24 25  1  0
 25 26  2  0
 26 27  1  0
 26 28  1  0
 28 29  2  0
 29 30  1  0
 15 31  1  0
 31 32  1  0
 11  6  1  0
 32 12  1  0
 30 20  1  0
 29 23  1  0
  1 33  1  0
  1 34  1  0
  1 35  1  0
  2 36  1  0
  2 37  1  0
  7 38  1  0
  8 39  1  0
  9 40  1  0
 10 41  1  0
 11 42  1  0
 12 43  1  0
 13 44  1  0
 13 45  1  0
 14 46  1  0
 14 47  1  0
 18 48  1  6
 19 49  1  0
 19 50  1  0
 20 51  1  6
 21 52  1  0
 21 53  1  0
 22 54  1  0
 22 55  1  0
 24 56  1  0
 25 57  1  0
 28 58  1  0
 30 59  1  0
 30 60  1  0
 31 61  1  0
 31 62  1  0
 32 63  1  0
 32 64  1  0
M  END
>  <smiles>  (61) 
CCC(=O)N(c1ccccc1)C1CCN(C(=O)[C@@H](N)C2CCc3ccc(Cl)cc3C2)CC1

>  <score_type>  (61) 
oracle

>  <origin>  (61) 
autodockgpu

>  <m_score__min__energy>  (61) 
-7.6799999999999997

>  <m_primary>  (61) 
energy

>  <rmsd>  (61) 
8.35572950657761

>  <m_score__min__rmsd>  (61) 
8.35572950657761

>  <meeko>  (61) 
{"free_energy": -7.66, "intermolecular_energy": -9.75, "internal_energy": -1.64, "cluster_size": 2, "cluster_id": 1, "rank_in_cluster": 2}

>  <energy>  (61) 
-6.9

>  <cluster_rmsd>  (61) 
0.45

>  <cluster>  (61) 
3

$$$$

     RDKit          3D

 64 67  0  0  0  0  0  0  0  0999 V2000
  134.5710   83.6360  222.4840 C   0  0  0  0  0  0  0  0  0  0  0  0
  135.8920   84.2720  222.9290 C   0  0  0  0  0  0  0  0  0  0  0  0
  136.3890   83.6770  224.1630 C   0  0  0  0  0  0  0  0  0  0  0  0
  136.9410   84.4730  225.0040 O   0  0  0  0  0  0  0  0  0  0  0  0
  136.3350   82.3270  224.5480 N   0  0  0  0  0  0  0  0  0  0  0  0
  135.8650   82.1060  225.9130 C   0  0  0  0  0  0  0  0  0  0  0  0
  136.8810   81.8950  226.8310 C   0  0  0  0  0  0  0  0  0  0  0  0
  136.5490   81.6740  228.1570 C   0  0  0  0  0  0  0  0  0  0  0  0
  135.2110   81.6790  228.4900 C   0  0  0  0  0  0  0  0  0  0  0  0
  134.2060   81.8910  227.5620 C   0  0  0  0  0  0  0  0  0  0  0  0
  134.5410   82.1130  226.2260 C   0  0  0  0  0  0  0  0  0  0  0  0
  136.6690   81.1840  223.7860 C   0  0  0  0  0  0  0  0  0  0  0  0
  138.0270   80.5690  224.1160 C   0  0  0  0  0  0  0  0  0  0  0  0
  138.3560   79.7150  222.8760 C   0  0  0  0  0  0  0  0  0  0  0  0
  137.3920   78.6740  222.6660 N   0  0  0  0  0  0  0  0  0  0  0  0
  137.6280   77.3080  222.4390 C   0  0  0  0  0  0  0  0  0  0  0  0
  136.5960   76.5730  222.2760 O   0  0  0  0  0  0  0  0  0  0  0  0
  138.9130   76.5970  222.3630 C   0  0  1  0  0  0  0  0  0  0  0  0
  138.9040   75.2230  222.6970 N   0  0  0  0  0  0  0  0  0  0  0  0
  139.6160   76.8460  221.0250 C   0  0  1  0  0  0  0  0  0  0  0  0
  138.9130   77.9200  220.2670 C   0  0  0  0  0  0  0  0  0  0  0  0
  139.9030   78.8630  219.5570 C   0  0  0  0  0  0  0  0  0  0  0  0
  140.6580   79.4800  220.7110 C   0  0  0  0  0  0  0  0  0  0  0  0
  140.7560   80.8470  220.8610 C   0  0  0  0  0  0  0  0  0  0  0  0
  141.4700   81.3330  221.9590 C   0  0  0  0  0  0  0  0  0  0  0  0
  142.0540   80.4410  222.8580 C   0  0  0  0  0  0  0  0  0  0  0  0
  142.9440   81.0680  224.2240 Cl  0  0  0  0  0  0  0  0  0  0  0  0
  141.9310   79.0700  222.6680 C   0  0  0  0  0  0  0  0  0  0  0  0
  141.2270   78.5760  221.5850 C   0  0  0  0  0  0  0  0  0  0  0  0
  141.0620   77.1220  221.3240 C   0  0  0  0  0  0  0  0  0  0  0  0
  135.9900   79.1090  222.6900 C   0  0  0  0  0  0  0  0  0  0  0  0
  135.7090   80.0240  223.8530 C   0  0  0  0  0  0  0  0  0  0  0  0
  133.9835   83.3531  223.3699 H   0  0  0  0  0  0  0  0  0  0  0  0
  134.0010   84.3584  221.8813 H   0  0  0  0  0  0  0  0  0  0  0  0
  134.7802   82.7399  221.8813 H   0  0  0  0  0  0  0  0  0  0  0  0
  136.6415   84.1279  222.1369 H   0  0  0  0  0  0  0  0  0  0  0  0
  135.7124   85.3416  223.1126 H   0  0  0  0  0  0  0  0  0  0  0  0
  137.9337   81.9029  226.5118 H   0  0  0  0  0  0  0  0  0  0  0  0
  137.3248   81.5007  228.9174 H   0  0  0  0  0  0  0  0  0  0  0  0
  134.9298   81.5069  229.5394 H   0  0  0  0  0  0  0  0  0  0  0  0
  133.1516   81.8845  227.8754 H   0  0  0  0  0  0  0  0  0  0  0  0
  133.7700   82.2858  225.4607 H   0  0  0  0  0  0  0  0  0  0  0  0
  136.6487   81.6396  222.7850 H   0  0  0  0  0  0  0  0  0  0  0  0
  138.7855   81.3515  224.2652 H   0  0  0  0  0  0  0  0  0  0  0  0
  138.0126   79.9809  225.0455 H   0  0  0  0  0  0  0  0  0  0  0  0
  138.3722   80.3672  221.9904 H   0  0  0  0  0  0  0  0  0  0  0  0
  139.3350   79.2414  223.0412 H   0  0  0  0  0  0  0  0  0  0  0  0
  139.4985   77.0496  223.1769 H   0  0  0  0  0  0  0  0  0  0  0  0
  137.9770   74.7530  222.7100 H   0  0  0  0  0  0  0  0  0  0  0  0
  139.5410   74.9520  223.4760 H   0  0  0  0  0  0  0  0  0  0  0  0
  139.5781   75.9710  220.3595 H   0  0  0  0  0  0  0  0  0  0  0  0
  138.2613   77.4549  219.5127 H   0  0  0  0  0  0  0  0  0  0  0  0
  138.3277   78.5158  220.9828 H   0  0  0  0  0  0  0  0  0  0  0  0
  140.5792   78.3027  218.8946 H   0  0  0  0  0  0  0  0  0  0  0  0
  139.4122   79.6046  218.9096 H   0  0  0  0  0  0  0  0  0  0  0  0
  140.2873   81.5326  220.1397 H   0  0  0  0  0  0  0  0  0  0  0  0
  141.5714   82.4173  222.1142 H   0  0  0  0  0  0  0  0  0  0  0  0
  142.3957   78.3744  223.3823 H   0  0  0  0  0  0  0  0  0  0  0  0
  141.6804   76.8282  220.4630 H   0  0  0  0  0  0  0  0  0  0  0  0
  141.3785   76.5453  222.2056 H   0  0  0  0  0  0  0  0  0  0  0  0
  135.7666   79.6429  221.7546 H   0  0  0  0  0  0  0  0  0  0  0  0
  135.3563   78.2161  222.7960 H   0  0  0  0  0  0  0  0  0  0  0  0
  134.6746   80.3935  223.7939 H   0  0  0  0  0  0  0  0  0  0  0  0
  135.8363   79.4813  224.8013 H   0  0  0  0  0  0  0  0  0  0  0  0
  1  2  1  0
  2  3  1  0
  3  4  2  0
  3  5  1  0
  5  6  1  0
  6  7  2  0
  7  8  1  0
  8  9  2  0
  9 10  1  0
 10 11  2  0
  5 12  1  0
 12 13  1  0
 13 14  1  0
 14 15  1  0
 15 16  1  0
 16 17  2  0
 16 18  1  0
 18 19  1  0
 18 20  1  0
 20 21  1  0
 21 22  1  0
 22 23  1  0
 23 24  2  0
 24 25  1  0
 25 26  2  0
 26 27  1  0
 26 28  1  0
 28 29  2  0
 29 30  1  0
 15 31  1  0
 31 32  1  0
 11  6  1  0
 32 12  1  0
 30 20  1  0
 29 23  1  0
  1 33  1  0
  1 34  1  0
  1 35  1  0
  2 36  1  0
  2 37  1  0
  7 38  1  0
  8 39  1  0
  9 40  1  0
 10 41  1  0
 11 42  1  0
 12 43  1  0
 13 44  1  0
 13 45  1  0
 14 46  1  0
 14 47  1  0
 18 48  1  1
 19 49  1  0
 19 50  1  0
 20 51  1  6
 21 52  1  0
 21 53  1  0
 22 54  1  0
 22 55  1  0
 24 56  1  0
 25 57  1  0
 28 58  1  0
 30 59  1  0
 30 60  1  0
 31 61  1  0
 31 62  1  0
 32 63  1  0
 32 64  1  0
M  END
>  <smiles>  (62) 
CCC(=O)N(c1ccccc1)C1CCN(C(=O)[C@@H](N)C2CCc3ccc(Cl)cc3C2)CC1

>  <score_type>  (62) 
oracle

>  <origin>  (62) 
autodockgpu

>  <m_score__min__energy>  (62) 
-7.6799999999999997

>  <m_primary>  (62) 
energy

>  <rmsd>  (62) 
6.222819459958877

>  <m_score__min__rmsd>  (62) 
6.222819459958877

>  <meeko>  (62) 
{"free_energy": -6.63, "intermolecular_energy": -8.71, "internal_energy": -2.77, "cluster_size": 17, "cluster_id": 4, "rank_in_cluster": 13}

>  <energy>  (62) 
-6.86

>  <cluster_rmsd>  (62) 
0.41

>  <cluster>  (62) 
3

$$$$

     RDKit          3D

 64 67  0  0  0  0  0  0  0  0999 V2000
  136.1820   81.6540  228.0420 C   0  0  0  0  0  0  0  0  0  0  0  0
  136.9100   82.1330  226.7810 C   0  0  0  0  0  0  0  0  0  0  0  0
  136.2260   81.7050  225.5670 C   0  0  0  0  0  0  0  0  0  0  0  0
  135.0110   81.3160  225.6970 O   0  0  0  0  0  0  0  0  0  0  0  0
  136.7400   81.6690  224.2590 N   0  0  0  0  0  0  0  0  0  0  0  0
  136.9430   82.9820  223.6530 C   0  0  0  0  0  0  0  0  0  0  0  0
  137.6930   82.9550  222.4890 C   0  0  0  0  0  0  0  0  0  0  0  0
  137.9470   84.1450  221.8290 C   0  0  0  0  0  0  0  0  0  0  0  0
  137.4320   85.3020  222.3760 C   0  0  0  0  0  0  0  0  0  0  0  0
  136.6850   85.3140  223.5410 C   0  0  0  0  0  0  0  0  0  0  0  0
  136.4290   84.1140  224.2050 C   0  0  0  0  0  0  0  0  0  0  0  0
  137.0810   80.5380  223.4820 C   0  0  0  0  0  0  0  0  0  0  0  0
  138.4020   79.8740  223.8630 C   0  0  0  0  0  0  0  0  0  0  0  0
  138.7690   79.0450  222.6170 C   0  0  0  0  0  0  0  0  0  0  0  0
  137.7890   78.0400  222.3280 N   0  0  0  0  0  0  0  0  0  0  0  0
  137.9970   76.6740  222.0750 C   0  0  0  0  0  0  0  0  0  0  0  0
  136.9540   75.9740  221.8380 O   0  0  0  0  0  0  0  0  0  0  0  0
  139.2640   75.9270  222.0440 C   0  0  1  0  0  0  0  0  0  0  0  0
  139.2030   74.5520  222.3660 N   0  0  0  0  0  0  0  0  0  0  0  0
  140.0260   76.1650  220.7370 C   0  0  1  0  0  0  0  0  0  0  0  0
  139.2760   77.1200  219.8710 C   0  0  0  0  0  0  0  0  0  0  0  0
  140.2160   78.1120  219.1620 C   0  0  0  0  0  0  0  0  0  0  0  0
  140.8330   78.8670  220.3170 C   0  0  0  0  0  0  0  0  0  0  0  0
  140.7920   80.2430  220.3850 C   0  0  0  0  0  0  0  0  0  0  0  0
  141.3830   80.8600  221.4900 C   0  0  0  0  0  0  0  0  0  0  0  0
  141.9890   80.0830  222.4770 C   0  0  0  0  0  0  0  0  0  0  0  0
  142.7240   80.8730  223.8510 Cl  0  0  0  0  0  0  0  0  0  0  0  0
  142.0080   78.6980  222.3690 C   0  0  0  0  0  0  0  0  0  0  0  0
  141.4260   78.0750  221.2800 C   0  0  0  0  0  0  0  0  0  0  0  0
  141.4170   76.5990  221.1030 C   0  0  0  0  0  0  0  0  0  0  0  0
  136.4000   78.5150  222.2940 C   0  0  0  0  0  0  0  0  0  0  0  0
  136.0860   79.4060  223.4670 C   0  0  0  0  0  0  0  0  0  0  0  0
  136.7206   82.0084  228.9333 H   0  0  0  0  0  0  0  0  0  0  0  0
  135.1578   82.0552  228.0488 H   0  0  0  0  0  0  0  0  0  0  0  0
  136.1452   80.5546  228.0488 H   0  0  0  0  0  0  0  0  0  0  0  0
  136.9592   83.2318  226.7937 H   0  0  0  0  0  0  0  0  0  0  0  0
  137.9181   81.6928  226.7795 H   0  0  0  0  0  0  0  0  0  0  0  0
  138.0804   82.0037  222.0955 H   0  0  0  0  0  0  0  0  0  0  0  0
  138.5383   84.1673  220.9017 H   0  0  0  0  0  0  0  0  0  0  0  0
  137.6234   86.2565  221.8640 H   0  0  0  0  0  0  0  0  0  0  0  0
  136.2961   86.2623  223.9403 H   0  0  0  0  0  0  0  0  0  0  0  0
  135.8385   84.0846  225.1326 H   0  0  0  0  0  0  0  0  0  0  0  0
  137.1262   81.0210  222.4947 H   0  0  0  0  0  0  0  0  0  0  0  0
  139.1740   80.6290  224.0728 H   0  0  0  0  0  0  0  0  0  0  0  0
  138.3235   79.2618  224.7735 H   0  0  0  0  0  0  0  0  0  0  0  0
  138.8490   79.7208  221.7528 H   0  0  0  0  0  0  0  0  0  0  0  0
  139.7241   78.5377  222.8180 H   0  0  0  0  0  0  0  0  0  0  0  0
  139.8293   76.3571  222.8839 H   0  0  0  0  0  0  0  0  0  0  0  0
  138.2540   74.1450  222.4950 H   0  0  0  0  0  0  0  0  0  0  0  0
  139.9140   74.2240  223.0530 H   0  0  0  0  0  0  0  0  0  0  0  0
  140.1139   75.2530  220.1283 H   0  0  0  0  0  0  0  0  0  0  0  0
  138.7213   76.5504  219.1108 H   0  0  0  0  0  0  0  0  0  0  0  0
  138.5925   77.6965  220.5117 H   0  0  0  0  0  0  0  0  0  0  0  0
  140.9838   77.5831  218.5783 H   0  0  0  0  0  0  0  0  0  0  0  0
  139.7005   78.7627  218.4403 H   0  0  0  0  0  0  0  0  0  0  0  0
  140.3093   80.8363  219.5944 H   0  0  0  0  0  0  0  0  0  0  0  0
  141.3705   81.9561  221.5816 H   0  0  0  0  0  0  0  0  0  0  0  0
  142.4881   78.0942  223.1532 H   0  0  0  0  0  0  0  0  0  0  0  0
  142.1152   76.3184  220.3007 H   0  0  0  0  0  0  0  0  0  0  0  0
  141.7287   76.1082  222.0368 H   0  0  0  0  0  0  0  0  0  0  0  0
  136.2394   79.0803  221.3641 H   0  0  0  0  0  0  0  0  0  0  0  0
  135.7371   77.6385  222.3426 H   0  0  0  0  0  0  0  0  0  0  0  0
  135.0670   79.8079  223.3664 H   0  0  0  0  0  0  0  0  0  0  0  0
  136.1489   78.8341  224.4045 H   0  0  0  0  0  0  0  0  0  0  0  0
  1  2  1  0
  2  3  1  0
  3  4  2  0
  3  5  1  0
  5  6  1  0
  6  7  2  0
  7  8  1  0
  8  9  2  0
  9 10  1  0
 10 11  2  0
  5 12  1  0
 12 13  1  0
 13 14  1  0
 14 15  1  0
 15 16  1  0
 16 17  2  0
 16 18  1  0
 18 19  1  0
 18 20  1  0
 20 21  1  0
 21 22  1  0
 22 23  1  0
 23 24  2  0
 24 25  1  0
 25 26  2  0
 26 27  1  0
 26 28  1  0
 28 29  2  0
 29 30  1  0
 15 31  1  0
 31 32  1  0
 11  6  1  0
 32 12  1  0
 30 20  1  0
 29 23  1  0
  1 33  1  0
  1 34  1  0
  1 35  1  0
  2 36  1  0
  2 37  1  0
  7 38  1  0
  8 39  1  0
  9 40  1  0
 10 41  1  0
 11 42  1  0
 12 43  1  0
 13 44  1  0
 13 45  1  0
 14 46  1  0
 14 47  1  0
 18 48  1  1
 19 49  1  0
 19 50  1  0
 20 51  1  6
 21 52  1  0
 21 53  1  0
 22 54  1  0
 22 55  1  0
 24 56  1  0
 25 57  1  0
 28 58  1  0
 30 59  1  0
 30 60  1  0
 31 61  1  0
 31 62  1  0
 32 63  1  0
 32 64  1  0
M  END
>  <smiles>  (63) 
CCC(=O)N(c1ccccc1)C1CCN(C(=O)[C@@H](N)C2CCc3ccc(Cl)cc3C2)CC1

>  <score_type>  (63) 
oracle

>  <origin>  (63) 
autodockgpu

>  <m_score__min__energy>  (63) 
-7.6799999999999997

>  <m_primary>  (63) 
energy

>  <rmsd>  (63) 
5.982229926252965

>  <m_score__min__rmsd>  (63) 
5.982229926252965

>  <meeko>  (63) 
{"free_energy": -6.51, "intermolecular_energy": -8.59, "internal_energy": -2.83, "cluster_size": 1, "cluster_id": 9, "rank_in_cluster": 1}

>  <energy>  (63) 
-6.84

>  <cluster_rmsd>  (63) 
0.42

>  <cluster>  (63) 
3

$$$$

     RDKit          3D

 64 67  0  0  0  0  0  0  0  0999 V2000
  137.7530   83.9620  222.1150 C   0  0  0  0  0  0  0  0  0  0  0  0
  136.5060   84.3140  222.9350 C   0  0  0  0  0  0  0  0  0  0  0  0
  136.5420   83.7080  224.2590 C   0  0  0  0  0  0  0  0  0  0  0  0
  136.5650   84.5100  225.2590 O   0  0  0  0  0  0  0  0  0  0  0  0
  136.5510   82.3390  224.5770 N   0  0  0  0  0  0  0  0  0  0  0  0
  136.0550   82.0250  225.9140 C   0  0  0  0  0  0  0  0  0  0  0  0
  134.6890   81.8040  225.9700 C   0  0  0  0  0  0  0  0  0  0  0  0
  134.1100   81.4990  227.1900 C   0  0  0  0  0  0  0  0  0  0  0  0
  134.9370   81.4310  228.2900 C   0  0  0  0  0  0  0  0  0  0  0  0
  136.3010   81.6540  228.2200 C   0  0  0  0  0  0  0  0  0  0  0  0
  136.8840   81.9630  226.9910 C   0  0  0  0  0  0  0  0  0  0  0  0
  136.9710   81.2550  223.7720 C   0  0  0  0  0  0  0  0  0  0  0  0
  138.1550   80.4660  224.3260 C   0  0  0  0  0  0  0  0  0  0  0  0
  138.7070   79.7200  223.0960 C   0  0  0  0  0  0  0  0  0  0  0  0
  137.7460   78.8180  222.5340 N   0  0  0  0  0  0  0  0  0  0  0  0
  137.9210   77.4660  222.1930 C   0  0  0  0  0  0  0  0  0  0  0  0
  136.9060   76.8670  221.7010 O   0  0  0  0  0  0  0  0  0  0  0  0
  139.1270   76.6340  222.3260 C   0  0  1  0  0  0  0  0  0  0  0  0
  138.9320   75.2800  222.6850 N   0  0  0  0  0  0  0  0  0  0  0  0
  140.0400   76.7660  221.1040 C   0  0  1  0  0  0  0  0  0  0  0  0
  139.4290   77.6850  220.1020 C   0  0  0  0  0  0  0  0  0  0  0  0
  140.4790   78.6030  219.4490 C   0  0  0  0  0  0  0  0  0  0  0  0
  140.9880   79.4100  220.6200 C   0  0  0  0  0  0  0  0  0  0  0  0
  140.9910   80.7880  220.6000 C   0  0  0  0  0  0  0  0  0  0  0  0
  141.4750   81.4560  221.7280 C   0  0  0  0  0  0  0  0  0  0  0  0
  141.9370   80.7250  222.8230 C   0  0  0  0  0  0  0  0  0  0  0  0
  142.5400   81.5790  224.2220 Cl  0  0  0  0  0  0  0  0  0  0  0  0
  141.9170   79.3370  222.7990 C   0  0  0  0  0  0  0  0  0  0  0  0
  141.4390   78.6630  221.6900 C   0  0  0  0  0  0  0  0  0  0  0  0
  141.3950   77.1800  221.6020 C   0  0  0  0  0  0  0  0  0  0  0  0
  136.4180   79.3950  222.2880 C   0  0  0  0  0  0  0  0  0  0  0  0
  135.9350   80.2050  223.4630 C   0  0  0  0  0  0  0  0  0  0  0  0
  138.5849   83.7272  222.7953 H   0  0  0  0  0  0  0  0  0  0  0  0
  137.5403   83.0888  221.4808 H   0  0  0  0  0  0  0  0  0  0  0  0
  138.0283   84.8175  221.4808 H   0  0  0  0  0  0  0  0  0  0  0  0
  136.4486   85.4070  223.0449 H   0  0  0  0  0  0  0  0  0  0  0  0
  135.6253   83.9240  222.4036 H   0  0  0  0  0  0  0  0  0  0  0  0
  134.0742   81.8697  225.0602 H   0  0  0  0  0  0  0  0  0  0  0  0
  133.0287   81.3175  227.2780 H   0  0  0  0  0  0  0  0  0  0  0  0
  134.4934   81.1887  229.2670 H   0  0  0  0  0  0  0  0  0  0  0  0
  136.9206   81.5881  229.1265 H   0  0  0  0  0  0  0  0  0  0  0  0
  137.9642   82.1480  226.8969 H   0  0  0  0  0  0  0  0  0  0  0  0
  137.2326   81.8144  222.8617 H   0  0  0  0  0  0  0  0  0  0  0  0
  138.9136   81.1419  224.7475 H   0  0  0  0  0  0  0  0  0  0  0  0
  137.8690   79.7868  225.1426 H   0  0  0  0  0  0  0  0  0  0  0  0
  138.9895   80.4584  222.3311 H   0  0  0  0  0  0  0  0  0  0  0  0
  139.5755   79.1285  223.4214 H   0  0  0  0  0  0  0  0  0  0  0  0
  139.6290   77.0586  223.2079 H   0  0  0  0  0  0  0  0  0  0  0  0
  137.9470   74.9480  222.7330 H   0  0  0  0  0  0  0  0  0  0  0  0
  139.5470   74.9300  223.4490 H   0  0  0  0  0  0  0  0  0  0  0  0
  140.1626   75.8153  220.5644 H   0  0  0  0  0  0  0  0  0  0  0  0
  138.9446   77.0847  219.3178 H   0  0  0  0  0  0  0  0  0  0  0  0
  138.6980   78.3204  220.6235 H   0  0  0  0  0  0  0  0  0  0  0  0
  141.2883   78.0163  218.9898 H   0  0  0  0  0  0  0  0  0  0  0  0
  140.0724   79.2221  218.6358 H   0  0  0  0  0  0  0  0  0  0  0  0
  140.6243   81.3440  219.7246 H   0  0  0  0  0  0  0  0  0  0  0  0
  141.4917   82.5556  221.7526 H   0  0  0  0  0  0  0  0  0  0  0  0
  142.2836   78.7699  223.6673 H   0  0  0  0  0  0  0  0  0  0  0  0
  142.1691   76.8277  220.9044 H   0  0  0  0  0  0  0  0  0  0  0  0
  141.5798   76.7406  222.5934 H   0  0  0  0  0  0  0  0  0  0  0  0
  136.4710   80.0468  221.4035 H   0  0  0  0  0  0  0  0  0  0  0  0
  135.7099   78.5687  222.1274 H   0  0  0  0  0  0  0  0  0  0  0  0
  134.9787   80.6881  223.2138 H   0  0  0  0  0  0  0  0  0  0  0  0
  135.7840   79.5532  224.3361 H   0  0  0  0  0  0  0  0  0  0  0  0
  1  2  1  0
  2  3  1  0
  3  4  2  0
  3  5  1  0
  5  6  1  0
  6  7  2  0
  7  8  1  0
  8  9  2  0
  9 10  1  0
 10 11  2  0
  5 12  1  0
 12 13  1  0
 13 14  1  0
 14 15  1  0
 15 16  1  0
 16 17  2  0
 16 18  1  0
 18 19  1  0
 18 20  1  0
 20 21  1  0
 21 22  1  0
 22 23  1  0
 23 24  2  0
 24 25  1  0
 25 26  2  0
 26 27  1  0
 26 28  1  0
 28 29  2  0
 29 30  1  0
 15 31  1  0
 31 32  1  0
 11  6  1  0
 32 12  1  0
 30 20  1  0
 29 23  1  0
  1 33  1  0
  1 34  1  0
  1 35  1  0
  2 36  1  0
  2 37  1  0
  7 38  1  0
  8 39  1  0
  9 40  1  0
 10 41  1  0
 11 42  1  0
 12 43  1  0
 13 44  1  0
 13 45  1  0
 14 46  1  0
 14 47  1  0
 18 48  1  1
 19 49  1  0
 19 50  1  0
 20 51  1  6
 21 52  1  0
 21 53  1  0
 22 54  1  0
 22 55  1  0
 24 56  1  0
 25 57  1  0
 28 58  1  0
 30 59  1  0
 30 60  1  0
 31 61  1  0
 31 62  1  0
 32 63  1  0
 32 64  1  0
M  END
>  <smiles>  (64) 
CCC(=O)N(c1ccccc1)C1CCN(C(=O)[C@@H](N)C2CCc3ccc(Cl)cc3C2)CC1

>  <score_type>  (64) 
oracle

>  <origin>  (64) 
autodockgpu

>  <m_score__min__energy>  (64) 
-7.6799999999999997

>  <m_primary>  (64) 
energy

>  <rmsd>  (64) 
6.168117462593813

>  <m_score__min__rmsd>  (64) 
6.168117462593813

>  <meeko>  (64) 
{"free_energy": -6.79, "intermolecular_energy": -8.88, "internal_energy": -2.87, "cluster_size": 17, "cluster_id": 4, "rank_in_cluster": 4}

>  <energy>  (64) 
-6.61

>  <cluster_rmsd>  (64) 
0.47

>  <cluster>  (64) 
3

$$$$

     RDKit          3D

 64 67  0  0  0  0  0  0  0  0999 V2000
  137.6890   83.9510  222.2370 C   0  0  0  0  0  0  0  0  0  0  0  0
  136.9630   84.4830  223.4790 C   0  0  0  0  0  0  0  0  0  0  0  0
  135.9530   83.5470  223.9560 C   0  0  0  0  0  0  0  0  0  0  0  0
  134.7420   83.9670  223.9730 O   0  0  0  0  0  0  0  0  0  0  0  0
  136.1470   82.2280  224.4020 N   0  0  0  0  0  0  0  0  0  0  0  0
  135.8950   82.0290  225.8270 C   0  0  0  0  0  0  0  0  0  0  0  0
  134.5510   81.9900  226.1610 C   0  0  0  0  0  0  0  0  0  0  0  0
  134.1960   81.8050  227.4860 C   0  0  0  0  0  0  0  0  0  0  0  0
  135.2140   81.6690  228.4070 C   0  0  0  0  0  0  0  0  0  0  0  0
  136.5530   81.7100  228.0590 C   0  0  0  0  0  0  0  0  0  0  0  0
  136.9090   81.8960  226.7230 C   0  0  0  0  0  0  0  0  0  0  0  0
  136.5420   81.0980  223.6510 C   0  0  0  0  0  0  0  0  0  0  0  0
  137.8890   80.5010  224.0520 C   0  0  0  0  0  0  0  0  0  0  0  0
  138.3010   79.6640  222.8260 C   0  0  0  0  0  0  0  0  0  0  0  0
  137.3680   78.6110  222.5520 N   0  0  0  0  0  0  0  0  0  0  0  0
  137.6380   77.2500  222.3280 C   0  0  0  0  0  0  0  0  0  0  0  0
  136.6290   76.5010  222.1000 O   0  0  0  0  0  0  0  0  0  0  0  0
  138.9370   76.5610  222.3190 C   0  0  1  0  0  0  0  0  0  0  0  0
  138.9390   75.1980  222.6970 N   0  0  0  0  0  0  0  0  0  0  0  0
  139.6820   76.7800  220.9990 C   0  0  1  0  0  0  0  0  0  0  0  0
  139.0090   77.8430  220.1990 C   0  0  0  0  0  0  0  0  0  0  0  0
  140.0240   78.7670  219.5020 C   0  0  0  0  0  0  0  0  0  0  0  0
  140.7470   79.4030  220.6660 C   0  0  0  0  0  0  0  0  0  0  0  0
  140.8480   80.7720  220.7930 C   0  0  0  0  0  0  0  0  0  0  0  0
  141.5290   81.2760  221.9040 C   0  0  0  0  0  0  0  0  0  0  0  0
  142.0810   80.3990  222.8370 C   0  0  0  0  0  0  0  0  0  0  0  0
  142.9310   81.0490  224.2170 Cl  0  0  0  0  0  0  0  0  0  0  0  0
  141.9570   79.0260  222.6700 C   0  0  0  0  0  0  0  0  0  0  0  0
  141.2840   78.5130  221.5760 C   0  0  0  0  0  0  0  0  0  0  0  0
  141.1200   77.0550  221.3380 C   0  0  0  0  0  0  0  0  0  0  0  0
  135.9600   79.0230  222.5010 C   0  0  0  0  0  0  0  0  0  0  0  0
  135.5980   79.9230  223.6530 C   0  0  0  0  0  0  0  0  0  0  0  0
  138.5399   83.3275  222.5487 H   0  0  0  0  0  0  0  0  0  0  0  0
  136.9930   83.3475  221.6358 H   0  0  0  0  0  0  0  0  0  0  0  0
  138.0547   84.7965  221.6358 H   0  0  0  0  0  0  0  0  0  0  0  0
  137.7000   84.6500  224.2784 H   0  0  0  0  0  0  0  0  0  0  0  0
  136.4585   85.4214  223.2053 H   0  0  0  0  0  0  0  0  0  0  0  0
  133.7788   82.1042  225.3860 H   0  0  0  0  0  0  0  0  0  0  0  0
  133.1405   81.7678  227.7934 H   0  0  0  0  0  0  0  0  0  0  0  0
  134.9499   81.5215  229.4646 H   0  0  0  0  0  0  0  0  0  0  0  0
  137.3300   81.5969  228.8294 H   0  0  0  0  0  0  0  0  0  0  0  0
  137.9625   81.9334  226.4087 H   0  0  0  0  0  0  0  0  0  0  0  0
  136.5717   81.5627  222.6544 H   0  0  0  0  0  0  0  0  0  0  0  0
  138.6253   81.2938  224.2504 H   0  0  0  0  0  0  0  0  0  0  0  0
  137.8316   79.9041  224.9742 H   0  0  0  0  0  0  0  0  0  0  0  0
  138.3573   80.3248  221.9484 H   0  0  0  0  0  0  0  0  0  0  0  0
  139.2761   79.2036  223.0432 H   0  0  0  0  0  0  0  0  0  0  0  0
  139.4866   77.0502  223.1367 H   0  0  0  0  0  0  0  0  0  0  0  0
  138.0160   74.7190  222.7180 H   0  0  0  0  0  0  0  0  0  0  0  0
  139.5740   74.9570  223.4870 H   0  0  0  0  0  0  0  0  0  0  0  0
  139.6596   75.8924  220.3496 H   0  0  0  0  0  0  0  0  0  0  0  0
  138.3782   77.3666  219.4341 H   0  0  0  0  0  0  0  0  0  0  0  0
  138.4060   78.4556  220.8854 H   0  0  0  0  0  0  0  0  0  0  0  0
  140.7171   78.1909  218.8713 H   0  0  0  0  0  0  0  0  0  0  0  0
  139.5566   79.4981  218.8260 H   0  0  0  0  0  0  0  0  0  0  0  0
  140.4067   81.4458  220.0438 H   0  0  0  0  0  0  0  0  0  0  0  0
  141.6295   82.3626  222.0424 H   0  0  0  0  0  0  0  0  0  0  0  0
  142.3964   78.3428  223.4117 H   0  0  0  0  0  0  0  0  0  0  0  0
  141.7635   76.7418  220.5026 H   0  0  0  0  0  0  0  0  0  0  0  0
  141.4060   76.4939  222.2399 H   0  0  0  0  0  0  0  0  0  0  0  0
  135.7806   79.5614  221.5587 H   0  0  0  0  0  0  0  0  0  0  0  0
  135.3369   78.1188  222.5649 H   0  0  0  0  0  0  0  0  0  0  0  0
  134.5631   80.2773  223.5372 H   0  0  0  0  0  0  0  0  0  0  0  0
  135.6788   79.3738  224.6027 H   0  0  0  0  0  0  0  0  0  0  0  0
  1  2  1  0
  2  3  1  0
  3  4  2  0
  3  5  1  0
  5  6  1  0
  6  7  2  0
  7  8  1  0
  8  9  2  0
  9 10  1  0
 10 11  2  0
  5 12  1  0
 12 13  1  0
 13 14  1  0
 14 15  1  0
 15 16  1  0
 16 17  2  0
 16 18  1  0
 18 19  1  0
 18 20  1  0
 20 21  1  0
 21 22  1  0
 22 23  1  0
 23 24  2  0
 24 25  1  0
 25 26  2  0
 26 27  1  0
 26 28  1  0
 28 29  2  0
 29 30  1  0
 15 31  1  0
 31 32  1  0
 11  6  1  0
 32 12  1  0
 30 20  1  0
 29 23  1  0
  1 33  1  0
  1 34  1  0
  1 35  1  0
  2 36  1  0
  2 37  1  0
  7 38  1  0
  8 39  1  0
  9 40  1  0
 10 41  1  0
 11 42  1  0
 12 43  1  0
 13 44  1  0
 13 45  1  0
 14 46  1  0
 14 47  1  0
 18 48  1  1
 19 49  1  0
 19 50  1  0
 20 51  1  6
 21 52  1  0
 21 53  1  0
 22 54  1  0
 22 55  1  0
 24 56  1  0
 25 57  1  0
 28 58  1  0
 30 59  1  0
 30 60  1  0
 31 61  1  0
 31 62  1  0
 32 63  1  0
 32 64  1  0
M  END
>  <smiles>  (65) 
CCC(=O)N(c1ccccc1)C1CCN(C(=O)[C@@H](N)C2CCc3ccc(Cl)cc3C2)CC1

>  <score_type>  (65) 
oracle

>  <origin>  (65) 
autodockgpu

>  <m_score__min__energy>  (65) 
-7.6799999999999997

>  <m_primary>  (65) 
energy

>  <rmsd>  (65) 
6.209230642971406

>  <m_score__min__rmsd>  (65) 
6.209230642971406

>  <meeko>  (65) 
{"free_energy": -6.61, "intermolecular_energy": -8.69, "internal_energy": -2.8, "cluster_size": 17, "cluster_id": 4, "rank_in_cluster": 16}

>  <energy>  (65) 
-6.87

>  <cluster_rmsd>  (65) 
0.0

>  <cluster>  (65) 
4

$$$$

     RDKit          3D

 64 67  0  0  0  0  0  0  0  0999 V2000
  142.5630   80.5210  223.5580 C   0  0  0  0  0  0  0  0  0  0  0  0
  142.1130   79.0580  223.6440 C   0  0  0  0  0  0  0  0  0  0  0  0
  140.9450   78.8020  222.8110 C   0  0  0  0  0  0  0  0  0  0  0  0
  139.8430   79.3410  223.1830 O   0  0  0  0  0  0  0  0  0  0  0  0
  140.8790   78.0320  221.6370 N   0  0  0  0  0  0  0  0  0  0  0  0
  141.4560   78.6750  220.4590 C   0  0  0  0  0  0  0  0  0  0  0  0
  141.3180   80.0520  220.4450 C   0  0  0  0  0  0  0  0  0  0  0  0
  141.8290   80.7660  219.3740 C   0  0  0  0  0  0  0  0  0  0  0  0
  142.4530   80.0530  218.3730 C   0  0  0  0  0  0  0  0  0  0  0  0
  142.5840   78.6760  218.3990 C   0  0  0  0  0  0  0  0  0  0  0  0
  142.0690   77.9580  219.4790 C   0  0  0  0  0  0  0  0  0  0  0  0
  140.3390   76.7370  221.4680 C   0  0  0  0  0  0  0  0  0  0  0  0
  141.2540   75.5980  221.9100 C   0  0  0  0  0  0  0  0  0  0  0  0
  140.6820   74.3630  221.1880 C   0  0  0  0  0  0  0  0  0  0  0  0
  139.3330   74.0810  221.5840 N   0  0  0  0  0  0  0  0  0  0  0  0
  138.7910   72.8540  222.0000 C   0  0  0  0  0  0  0  0  0  0  0  0
  137.5500   72.8540  222.3030 O   0  0  0  0  0  0  0  0  0  0  0  0
  139.4620   71.5520  222.1380 C   0  0  1  0  0  0  0  0  0  0  0  0
  140.7020   71.5420  222.8180 N   0  0  0  0  0  0  0  0  0  0  0  0
  138.5110   70.4840  222.6860 C   0  0  1  0  0  0  0  0  0  0  0  0
  139.1400   69.1350  222.5840 C   0  0  0  0  0  0  0  0  0  0  0  0
  138.8500   68.2720  223.8260 C   0  0  0  0  0  0  0  0  0  0  0  0
  139.5180   69.0500  224.9340 C   0  0  0  0  0  0  0  0  0  0  0  0
  140.4410   68.4650  225.7730 C   0  0  0  0  0  0  0  0  0  0  0  0
  141.0140   69.2590  226.7700 C   0  0  0  0  0  0  0  0  0  0  0  0
  140.6430   70.5980  226.8890 C   0  0  0  0  0  0  0  0  0  0  0  0
  141.3700   71.5740  228.1420 Cl  0  0  0  0  0  0  0  0  0  0  0  0
  139.7070   71.1480  226.0230 C   0  0  0  0  0  0  0  0  0  0  0  0
  139.1330   70.3730  225.0320 C   0  0  0  0  0  0  0  0  0  0  0  0
  138.1240   70.9010  224.0760 C   0  0  0  0  0  0  0  0  0  0  0  0
  138.4180   75.2290  221.5420 C   0  0  0  0  0  0  0  0  0  0  0  0
  139.0310   76.4560  222.1640 C   0  0  0  0  0  0  0  0  0  0  0  0
  142.6877   80.9265  224.5729 H   0  0  0  0  0  0  0  0  0  0  0  0
  143.5205   80.5791  223.0197 H   0  0  0  0  0  0  0  0  0  0  0  0
  141.8036   81.1072  223.0197 H   0  0  0  0  0  0  0  0  0  0  0  0
  142.9377   78.4114  223.3095 H   0  0  0  0  0  0  0  0  0  0  0  0
  141.8421   78.8441  224.6884 H   0  0  0  0  0  0  0  0  0  0  0  0
  140.8105   80.5711  221.2714 H   0  0  0  0  0  0  0  0  0  0  0  0
  141.7402   81.8613  219.3240 H   0  0  0  0  0  0  0  0  0  0  0  0
  142.8655   80.6037  217.5147 H   0  0  0  0  0  0  0  0  0  0  0  0
  143.0900   78.1515  217.5751 H   0  0  0  0  0  0  0  0  0  0  0  0
  142.1548   76.8628  219.5353 H   0  0  0  0  0  0  0  0  0  0  0  0
  140.1960   76.7573  220.3775 H   0  0  0  0  0  0  0  0  0  0  0  0
  142.2923   75.7870  221.5997 H   0  0  0  0  0  0  0  0  0  0  0  0
  141.2822   75.4757  223.0028 H   0  0  0  0  0  0  0  0  0  0  0  0
  140.7021   74.5457  220.1035 H   0  0  0  0  0  0  0  0  0  0  0  0
  141.3020   73.4958  221.4592 H   0  0  0  0  0  0  0  0  0  0  0  0
  139.7401   71.3013  221.1037 H   0  0  0  0  0  0  0  0  0  0  0  0
  140.7470   72.0690  223.7130 H   0  0  0  0  0  0  0  0  0  0  0  0
  141.5420   71.6430  222.2100 H   0  0  0  0  0  0  0  0  0  0  0  0
  137.5855   70.4005  222.0973 H   0  0  0  0  0  0  0  0  0  0  0  0
  138.7429   68.6236  221.6947 H   0  0  0  0  0  0  0  0  0  0  0  0
  140.2290   69.2709  222.5094 H   0  0  0  0  0  0  0  0  0  0  0  0
  137.7680   68.1809  224.0019 H   0  0  0  0  0  0  0  0  0  0  0  0
  139.2171   67.2390  223.7352 H   0  0  0  0  0  0  0  0  0  0  0  0
  140.7181   67.4063  225.6616 H   0  0  0  0  0  0  0  0  0  0  0  0
  141.7557   68.8290  227.4591 H   0  0  0  0  0  0  0  0  0  0  0  0
  139.4209   72.2051  226.1258 H   0  0  0  0  0  0  0  0  0  0  0  0
  137.1325   70.4931  224.3220 H   0  0  0  0  0  0  0  0  0  0  0  0
  138.0858   71.9984  224.1404 H   0  0  0  0  0  0  0  0  0  0  0  0
  138.1694   75.4479  220.4931 H   0  0  0  0  0  0  0  0  0  0  0  0
  137.5165   74.9688  222.1161 H   0  0  0  0  0  0  0  0  0  0  0  0
  138.3529   77.3134  222.0415 H   0  0  0  0  0  0  0  0  0  0  0  0
  139.2012   76.2914  223.2382 H   0  0  0  0  0  0  0  0  0  0  0  0
  1  2  1  0
  2  3  1  0
  3  4  2  0
  3  5  1  0
  5  6  1  0
  6  7  2  0
  7  8  1  0
  8  9  2  0
  9 10  1  0
 10 11  2  0
  5 12  1  0
 12 13  1  0
 13 14  1  0
 14 15  1  0
 15 16  1  0
 16 17  2  0
 16 18  1  0
 18 19  1  0
 18 20  1  0
 20 21  1  0
 21 22  1  0
 22 23  1  0
 23 24  2  0
 24 25  1  0
 25 26  2  0
 26 27  1  0
 26 28  1  0
 28 29  2  0
 29 30  1  0
 15 31  1  0
 31 32  1  0
 11  6  1  0
 32 12  1  0
 30 20  1  0
 29 23  1  0
  1 33  1  0
  1 34  1  0
  1 35  1  0
  2 36  1  0
  2 37  1  0
  7 38  1  0
  8 39  1  0
  9 40  1  0
 10 41  1  0
 11 42  1  0
 12 43  1  0
 13 44  1  0
 13 45  1  0
 14 46  1  0
 14 47  1  0
 18 48  1  6
 19 49  1  0
 19 50  1  0
 20 51  1  6
 21 52  1  0
 21 53  1  0
 22 54  1  0
 22 55  1  0
 24 56  1  0
 25 57  1  0
 28 58  1  0
 30 59  1  0
 30 60  1  0
 31 61  1  0
 31 62  1  0
 32 63  1  0
 32 64  1  0
M  END
>  <smiles>  (66) 
CCC(=O)N(c1ccccc1)C1CCN(C(=O)[C@@H](N)C2CCc3ccc(Cl)cc3C2)CC1

>  <score_type>  (66) 
oracle

>  <origin>  (66) 
autodockgpu

>  <m_score__min__energy>  (66) 
-7.6799999999999997

>  <m_primary>  (66) 
energy

>  <rmsd>  (66) 
8.460024706367813

>  <m_score__min__rmsd>  (66) 
8.460024706367813

>  <meeko>  (66) 
{"free_energy": -7.68, "intermolecular_energy": -9.77, "internal_energy": -1.55, "cluster_size": 2, "cluster_id": 1, "rank_in_cluster": 1}

>  <energy>  (66) 
-6.83

>  <cluster_rmsd>  (66) 
0.67

>  <cluster>  (66) 
4

$$$$

     RDKit          3D

 64 67  0  0  0  0  0  0  0  0999 V2000
  142.9470   77.4550  218.1830 C   0  0  0  0  0  0  0  0  0  0  0  0
  141.5820   77.5000  218.8790 C   0  0  0  0  0  0  0  0  0  0  0  0
  141.6320   76.8980  220.2050 C   0  0  0  0  0  0  0  0  0  0  0  0
  142.4440   75.9190  220.3630 O   0  0  0  0  0  0  0  0  0  0  0  0
  140.8930   77.2650  221.3430 N   0  0  0  0  0  0  0  0  0  0  0  0
  141.4120   78.4340  222.0490 C   0  0  0  0  0  0  0  0  0  0  0  0
  141.4640   78.2830  223.4250 C   0  0  0  0  0  0  0  0  0  0  0  0
  141.9400   79.3300  224.1960 C   0  0  0  0  0  0  0  0  0  0  0  0
  142.3400   80.4750  223.5400 C   0  0  0  0  0  0  0  0  0  0  0  0
  142.2830   80.6120  222.1640 C   0  0  0  0  0  0  0  0  0  0  0  0
  141.8030   79.5570  221.3880 C   0  0  0  0  0  0  0  0  0  0  0  0
  139.7320   76.6550  221.8690 C   0  0  0  0  0  0  0  0  0  0  0  0
  138.5510   77.5990  222.0800 C   0  0  0  0  0  0  0  0  0  0  0  0
  137.6510   76.8460  223.0780 C   0  0  0  0  0  0  0  0  0  0  0  0
  137.1830   75.5980  222.5490 N   0  0  0  0  0  0  0  0  0  0  0  0
  135.8660   75.1090  222.5200 C   0  0  0  0  0  0  0  0  0  0  0  0
  135.7000   73.9570  221.9920 O   0  0  0  0  0  0  0  0  0  0  0  0
  134.6380   75.7460  223.0180 C   0  0  1  0  0  0  0  0  0  0  0  0
  133.4480   74.9840  222.9440 N   0  0  0  0  0  0  0  0  0  0  0  0
  134.8380   76.3410  224.4150 C   0  0  1  0  0  0  0  0  0  0  0  0
  133.5570   76.9130  224.9190 C   0  0  0  0  0  0  0  0  0  0  0  0
  133.3490   76.6230  226.4170 C   0  0  0  0  0  0  0  0  0  0  0  0
  133.2700   75.1150  226.4550 C   0  0  0  0  0  0  0  0  0  0  0  0
  132.2030   74.4620  227.0350 C   0  0  0  0  0  0  0  0  0  0  0  0
  132.2080   73.0650  227.0230 C   0  0  0  0  0  0  0  0  0  0  0  0
  133.2730   72.3800  226.4360 C   0  0  0  0  0  0  0  0  0  0  0  0
  133.2610   70.6330  226.4330 Cl  0  0  0  0  0  0  0  0  0  0  0  0
  134.3280   73.0780  225.8640 C   0  0  0  0  0  0  0  0  0  0  0  0
  134.3350   74.4610  225.8690 C   0  0  0  0  0  0  0  0  0  0  0  0
  135.4360   75.2650  225.2770 C   0  0  0  0  0  0  0  0  0  0  0  0
  138.2220   74.7370  221.9720 C   0  0  0  0  0  0  0  0  0  0  0  0
  139.1550   75.5090  221.0770 C   0  0  0  0  0  0  0  0  0  0  0  0
  143.7442   77.4287  218.9405 H   0  0  0  0  0  0  0  0  0  0  0  0
  143.0086   76.5543  217.5545 H   0  0  0  0  0  0  0  0  0  0  0  0
  143.0678   78.3497  217.5545 H   0  0  0  0  0  0  0  0  0  0  0  0
  141.2658   78.5491  218.9757 H   0  0  0  0  0  0  0  0  0  0  0  0
  140.8677   76.9270  218.2695 H   0  0  0  0  0  0  0  0  0  0  0  0
  141.1325   77.3466  223.8975 H   0  0  0  0  0  0  0  0  0  0  0  0
  141.9970   79.2512  225.2917 H   0  0  0  0  0  0  0  0  0  0  0  0
  142.7213   81.3168  224.1367 H   0  0  0  0  0  0  0  0  0  0  0  0
  142.6138   81.5458  221.6859 H   0  0  0  0  0  0  0  0  0  0  0  0
  141.7433   79.6297  220.2920 H   0  0  0  0  0  0  0  0  0  0  0  0
  140.1508   76.2920  222.8192 H   0  0  0  0  0  0  0  0  0  0  0  0
  138.8866   78.5580  222.5016 H   0  0  0  0  0  0  0  0  0  0  0  0
  138.0317   77.8462  221.1423 H   0  0  0  0  0  0  0  0  0  0  0  0
  138.2259   76.6490  223.9949 H   0  0  0  0  0  0  0  0  0  0  0  0
  136.7734   77.4763  223.2840 H   0  0  0  0  0  0  0  0  0  0  0  0
  134.4647   76.5560  222.2943 H   0  0  0  0  0  0  0  0  0  0  0  0
  132.8380   74.9910  223.7860 H   0  0  0  0  0  0  0  0  0  0  0  0
  133.5440   74.0550  222.4820 H   0  0  0  0  0  0  0  0  0  0  0  0
  135.5362   77.1910  224.4155 H   0  0  0  0  0  0  0  0  0  0  0  0
  133.5693   78.0022  224.7659 H   0  0  0  0  0  0  0  0  0  0  0  0
  132.7319   76.4438  224.3630 H   0  0  0  0  0  0  0  0  0  0  0  0
  134.1966   76.9910  227.0138 H   0  0  0  0  0  0  0  0  0  0  0  0
  132.4614   77.1175  226.8384 H   0  0  0  0  0  0  0  0  0  0  0  0
  131.3746   75.0229  227.4924 H   0  0  0  0  0  0  0  0  0  0  0  0
  131.3750   72.5065  227.4749 H   0  0  0  0  0  0  0  0  0  0  0  0
  135.1626   72.5282  225.4044 H   0  0  0  0  0  0  0  0  0  0  0  0
  136.0328   75.7229  226.0796 H   0  0  0  0  0  0  0  0  0  0  0  0
  136.0878   74.6186  224.6709 H   0  0  0  0  0  0  0  0  0  0  0  0
  138.8044   74.2856  222.7888 H   0  0  0  0  0  0  0  0  0  0  0  0
  137.7274   73.9644  221.3650 H   0  0  0  0  0  0  0  0  0  0  0  0
  139.9657   74.8517  220.7296 H   0  0  0  0  0  0  0  0  0  0  0  0
  138.6100   75.8906  220.2010 H   0  0  0  0  0  0  0  0  0  0  0  0
  1  2  1  0
  2  3  1  0
  3  4  2  0
  3  5  1  0
  5  6  1  0
  6  7  2  0
  7  8  1  0
  8  9  2  0
  9 10  1  0
 10 11  2  0
  5 12  1  0
 12 13  1  0
 13 14  1  0
 14 15  1  0
 15 16  1  0
 16 17  2  0
 16 18  1  0
 18 19  1  0
 18 20  1  0
 20 21  1  0
 21 22  1  0
 22 23  1  0
 23 24  2  0
 24 25  1  0
 25 26  2  0
 26 27  1  0
 26 28  1  0
 28 29  2  0
 29 30  1  0
 15 31  1  0
 31 32  1  0
 11  6  1  0
 32 12  1  0
 30 20  1  0
 29 23  1  0
  1 33  1  0
  1 34  1  0
  1 35  1  0
  2 36  1  0
  2 37  1  0
  7 38  1  0
  8 39  1  0
  9 40  1  0
 10 41  1  0
 11 42  1  0
 12 43  1  0
 13 44  1  0
 13 45  1  0
 14 46  1  0
 14 47  1  0
 18 48  1  6
 19 49  1  0
 19 50  1  0
 20 51  1  6
 21 52  1  0
 21 53  1  0
 22 54  1  0
 22 55  1  0
 24 56  1  0
 25 57  1  0
 28 58  1  0
 30 59  1  0
 30 60  1  0
 31 61  1  0
 31 62  1  0
 32 63  1  0
 32 64  1  0
M  END
>  <smiles>  (67) 
CCC(=O)N(c1ccccc1)C1CCN(C(=O)[C@@H](N)C2CCc3ccc(Cl)cc3C2)CC1

>  <score_type>  (67) 
oracle

>  <origin>  (67) 
autodockgpu

>  <m_score__min__energy>  (67) 
-7.6799999999999997

>  <m_primary>  (67) 
energy

>  <rmsd>  (67) 
7.801797255747691

>  <m_score__min__rmsd>  (67) 
7.801797255747691

>  <meeko>  (67) 
{"free_energy": -6.85, "intermolecular_energy": -8.93, "internal_energy": -2.34, "cluster_size": 13, "cluster_id": 6, "rank_in_cluster": 1}

>  <energy>  (67) 
-6.8

>  <cluster_rmsd>  (67) 
0.26

>  <cluster>  (67) 
4

$$$$

     RDKit          3D

 64 67  0  0  0  0  0  0  0  0999 V2000
  142.3000   80.2010  218.5190 C   0  0  0  0  0  0  0  0  0  0  0  0
  140.9970   80.9540  218.8110 C   0  0  0  0  0  0  0  0  0  0  0  0
  140.1670   80.2430  219.7740 C   0  0  0  0  0  0  0  0  0  0  0  0
  138.9050   80.4620  219.7190 O   0  0  0  0  0  0  0  0  0  0  0  0
  140.5850   79.3370  220.7650 N   0  0  0  0  0  0  0  0  0  0  0  0
  141.2220   79.9580  221.9220 C   0  0  0  0  0  0  0  0  0  0  0  0
  142.5710   79.6700  222.0430 C   0  0  0  0  0  0  0  0  0  0  0  0
  143.2780   80.2070  223.1060 C   0  0  0  0  0  0  0  0  0  0  0  0
  142.5870   81.0080  223.9920 C   0  0  0  0  0  0  0  0  0  0  0  0
  141.2390   81.2870  223.8580 C   0  0  0  0  0  0  0  0  0  0  0  0
  140.5280   80.7450  222.7870 C   0  0  0  0  0  0  0  0  0  0  0  0
  140.4580   77.9290  220.7730 C   0  0  0  0  0  0  0  0  0  0  0  0
  141.5340   77.1840  219.9860 C   0  0  0  0  0  0  0  0  0  0  0  0
  140.9130   75.7960  219.7370 C   0  0  0  0  0  0  0  0  0  0  0  0
  140.6390   75.0990  220.9590 N   0  0  0  0  0  0  0  0  0  0  0  0
  140.9880   73.7820  221.3020 C   0  0  0  0  0  0  0  0  0  0  0  0
  140.6260   73.3820  222.4600 O   0  0  0  0  0  0  0  0  0  0  0  0
  141.7220   72.7880  220.5040 C   0  0  1  0  0  0  0  0  0  0  0  0
  141.4740   72.7780  219.1120 N   0  0  0  0  0  0  0  0  0  0  0  0
  143.2220   72.8190  220.8080 C   0  0  1  0  0  0  0  0  0  0  0  0
  143.9250   71.7520  220.0390 C   0  0  0  0  0  0  0  0  0  0  0  0
  145.2780   72.2370  219.4880 C   0  0  0  0  0  0  0  0  0  0  0  0
  144.8740   73.3460  218.5460 C   0  0  0  0  0  0  0  0  0  0  0  0
  145.2790   73.3590  217.2280 C   0  0  0  0  0  0  0  0  0  0  0  0
  144.8560   74.4200  216.4250 C   0  0  0  0  0  0  0  0  0  0  0  0
  144.0500   75.4230  216.9660 C   0  0  0  0  0  0  0  0  0  0  0  0
  143.5330   76.7420  215.9460 Cl  0  0  0  0  0  0  0  0  0  0  0  0
  143.6670   75.3720  218.3000 C   0  0  0  0  0  0  0  0  0  0  0  0
  144.0780   74.3260  219.1060 C   0  0  0  0  0  0  0  0  0  0  0  0
  143.7040   74.2160  220.5400 C   0  0  0  0  0  0  0  0  0  0  0  0
  139.8970   75.8710  221.9640 C   0  0  0  0  0  0  0  0  0  0  0  0
  140.4550   77.2610  222.1240 C   0  0  0  0  0  0  0  0  0  0  0  0
  142.7827   79.9221  219.4673 H   0  0  0  0  0  0  0  0  0  0  0  0
  142.0767   79.2927  217.9401 H   0  0  0  0  0  0  0  0  0  0  0  0
  142.9755   80.8479  217.9401 H   0  0  0  0  0  0  0  0  0  0  0  0
  141.2423   81.9467  219.2164 H   0  0  0  0  0  0  0  0  0  0  0  0
  140.4331   81.0401  217.8705 H   0  0  0  0  0  0  0  0  0  0  0  0
  143.0730   79.0251  221.3067 H   0  0  0  0  0  0  0  0  0  0  0  0
  144.3506   80.0025  223.2390 H   0  0  0  0  0  0  0  0  0  0  0  0
  143.1322   81.4438  224.8422 H   0  0  0  0  0  0  0  0  0  0  0  0
  140.7312   81.9316  224.5906 H   0  0  0  0  0  0  0  0  0  0  0  0
  139.4552   80.9451  222.6486 H   0  0  0  0  0  0  0  0  0  0  0  0
  139.4666   77.8478  220.3033 H   0  0  0  0  0  0  0  0  0  0  0  0
  141.7476   77.6940  219.0350 H   0  0  0  0  0  0  0  0  0  0  0  0
  142.4930   77.1308  220.5222 H   0  0  0  0  0  0  0  0  0  0  0  0
  139.9713   75.9233  219.1829 H   0  0  0  0  0  0  0  0  0  0  0  0
  141.6375   75.1997  219.1629 H   0  0  0  0  0  0  0  0  0  0  0  0
  141.2977   71.8311  220.8420 H   0  0  0  0  0  0  0  0  0  0  0  0
  141.7610   71.9230  218.5940 H   0  0  0  0  0  0  0  0  0  0  0  0
  141.6750   73.6740  218.6190 H   0  0  0  0  0  0  0  0  0  0  0  0
  143.4432   72.5897  221.8608 H   0  0  0  0  0  0  0  0  0  0  0  0
  144.0990   70.8919  220.7022 H   0  0  0  0  0  0  0  0  0  0  0  0
  143.2900   71.4730  219.1853 H   0  0  0  0  0  0  0  0  0  0  0  0
  145.9219   72.6168  220.2950 H   0  0  0  0  0  0  0  0  0  0  0  0
  145.8617   71.4417  219.0014 H   0  0  0  0  0  0  0  0  0  0  0  0
  145.9153   72.5588  216.8220 H   0  0  0  0  0  0  0  0  0  0  0  0
  145.1573   74.4654  215.3681 H   0  0  0  0  0  0  0  0  0  0  0  0
  143.0332   76.1681  218.7179 H   0  0  0  0  0  0  0  0  0  0  0  0
  144.5807   74.4317  221.1684 H   0  0  0  0  0  0  0  0  0  0  0  0
  142.9081   74.9379  220.7754 H   0  0  0  0  0  0  0  0  0  0  0  0
  138.8446   75.9433  221.6521 H   0  0  0  0  0  0  0  0  0  0  0  0
  139.9878   75.3523  222.9298 H   0  0  0  0  0  0  0  0  0  0  0  0
  139.8277   77.8355  222.8214 H   0  0  0  0  0  0  0  0  0  0  0  0
  141.4780   77.2144  222.5256 H   0  0  0  0  0  0  0  0  0  0  0  0
  1  2  1  0
  2  3  1  0
  3  4  2  0
  3  5  1  0
  5  6  1  0
  6  7  2  0
  7  8  1  0
  8  9  2  0
  9 10  1  0
 10 11  2  0
  5 12  1  0
 12 13  1  0
 13 14  1  0
 14 15  1  0
 15 16  1  0
 16 17  2  0
 16 18  1  0
 18 19  1  0
 18 20  1  0
 20 21  1  0
 21 22  1  0
 22 23  1  0
 23 24  2  0
 24 25  1  0
 25 26  2  0
 26 27  1  0
 26 28  1  0
 28 29  2  0
 29 30  1  0
 15 31  1  0
 31 32  1  0
 11  6  1  0
 32 12  1  0
 30 20  1  0
 29 23  1  0
  1 33  1  0
  1 34  1  0
  1 35  1  0
  2 36  1  0
  2 37  1  0
  7 38  1  0
  8 39  1  0
  9 40  1  0
 10 41  1  0
 11 42  1  0
 12 43  1  0
 13 44  1  0
 13 45  1  0
 14 46  1  0
 14 47  1  0
 18 48  1  1
 19 49  1  0
 19 50  1  0
 20 51  1  1
 21 52  1  0
 21 53  1  0
 22 54  1  0
 22 55  1  0
 24 56  1  0
 25 57  1  0
 28 58  1  0
 30 59  1  0
 30 60  1  0
 31 61  1  0
 31 62  1  0
 32 63  1  0
 32 64  1  0
M  END
>  <smiles>  (68) 
CCC(=O)N(c1ccccc1)C1CCN(C(=O)[C@@H](N)C2CCc3ccc(Cl)cc3C2)CC1

>  <score_type>  (68) 
oracle

>  <origin>  (68) 
autodockgpu

>  <m_score__min__energy>  (68) 
-7.6799999999999997

>  <m_primary>  (68) 
energy

>  <rmsd>  (68) 
6.599088278051677

>  <m_score__min__rmsd>  (68) 
6.599088278051677

>  <meeko>  (68) 
{"free_energy": -6.65, "intermolecular_energy": -8.74, "internal_energy": -2.32, "cluster_size": 3, "cluster_id": 5, "rank_in_cluster": 3}

>  <energy>  (68) 
-6.79

>  <cluster_rmsd>  (68) 
0.73

>  <cluster>  (68) 
4

$$$$

     RDKit          3D

 64 67  0  0  0  0  0  0  0  0999 V2000
  137.6820   83.7720  222.0580 C   0  0  0  0  0  0  0  0  0  0  0  0
  136.4130   84.0610  222.8660 C   0  0  0  0  0  0  0  0  0  0  0  0
  136.4850   83.4960  224.2070 C   0  0  0  0  0  0  0  0  0  0  0  0
  136.5820   84.3280  225.1780 O   0  0  0  0  0  0  0  0  0  0  0  0
  136.4600   82.1380  224.5690 N   0  0  0  0  0  0  0  0  0  0  0  0
  135.9550   81.8810  225.9150 C   0  0  0  0  0  0  0  0  0  0  0  0
  134.5980   81.6110  225.9660 C   0  0  0  0  0  0  0  0  0  0  0  0
  134.0120   81.3520  227.1930 C   0  0  0  0  0  0  0  0  0  0  0  0
  134.8250   81.3780  228.3060 C   0  0  0  0  0  0  0  0  0  0  0  0
  136.1810   81.6490  228.2410 C   0  0  0  0  0  0  0  0  0  0  0  0
  136.7700   81.9100  227.0040 C   0  0  0  0  0  0  0  0  0  0  0  0
  136.8500   81.0180  223.7990 C   0  0  0  0  0  0  0  0  0  0  0  0
  138.2110   80.4320  224.1670 C   0  0  0  0  0  0  0  0  0  0  0  0
  138.6060   79.6090  222.9250 C   0  0  0  0  0  0  0  0  0  0  0  0
  137.6780   78.5490  222.6620 N   0  0  0  0  0  0  0  0  0  0  0  0
  137.9570   77.1940  222.4200 C   0  0  0  0  0  0  0  0  0  0  0  0
  136.9510   76.4360  222.2070 O   0  0  0  0  0  0  0  0  0  0  0  0
  139.2620   76.5170  222.3780 C   0  0  1  0  0  0  0  0  0  0  0  0
  139.2780   75.1390  222.6970 N   0  0  0  0  0  0  0  0  0  0  0  0
  140.0010   76.7990  221.0670 C   0  0  1  0  0  0  0  0  0  0  0  0
  139.2100   77.7410  220.2230 C   0  0  0  0  0  0  0  0  0  0  0  0
  140.1080   78.7740  219.5190 C   0  0  0  0  0  0  0  0  0  0  0  0
  140.7130   79.5320  220.6780 C   0  0  0  0  0  0  0  0  0  0  0  0
  140.6270   80.9050  220.7660 C   0  0  0  0  0  0  0  0  0  0  0  0
  141.2100   81.5250  221.8740 C   0  0  0  0  0  0  0  0  0  0  0  0
  141.8520   80.7550  222.8430 C   0  0  0  0  0  0  0  0  0  0  0  0
  142.5760   81.5490  224.2190 Cl  0  0  0  0  0  0  0  0  0  0  0  0
  141.9170   79.3730  222.7140 C   0  0  0  0  0  0  0  0  0  0  0  0
  141.3430   78.7460  221.6220 C   0  0  0  0  0  0  0  0  0  0  0  0
  141.3810   77.2740  221.4240 C   0  0  0  0  0  0  0  0  0  0  0  0
  136.2650   78.9470  222.6430 C   0  0  0  0  0  0  0  0  0  0  0  0
  135.9190   79.8340  223.8110 C   0  0  0  0  0  0  0  0  0  0  0  0
  138.5191   83.5814  222.7457 H   0  0  0  0  0  0  0  0  0  0  0  0
  137.5196   82.8878  221.4241 H   0  0  0  0  0  0  0  0  0  0  0  0
  137.9185   84.6393  221.4241 H   0  0  0  0  0  0  0  0  0  0  0  0
  136.2816   85.1503  222.9451 H   0  0  0  0  0  0  0  0  0  0  0  0
  135.5627   83.5970  222.3447 H   0  0  0  0  0  0  0  0  0  0  0  0
  133.9951   81.6025  225.0460 H   0  0  0  0  0  0  0  0  0  0  0  0
  132.9372   81.1335  227.2769 H   0  0  0  0  0  0  0  0  0  0  0  0
  134.3763   81.1744  229.2895 H   0  0  0  0  0  0  0  0  0  0  0  0
  136.7891   81.6584  229.1576 H   0  0  0  0  0  0  0  0  0  0  0  0
  137.8441   82.1292  226.9130 H   0  0  0  0  0  0  0  0  0  0  0  0
  136.8531   81.4908  222.8058 H   0  0  0  0  0  0  0  0  0  0  0  0
  138.9431   81.2308  224.3567 H   0  0  0  0  0  0  0  0  0  0  0  0
  138.1791   79.8271  225.0852 H   0  0  0  0  0  0  0  0  0  0  0  0
  138.6373   80.2775  222.0520 H   0  0  0  0  0  0  0  0  0  0  0  0
  139.5902   79.1570  223.1177 H   0  0  0  0  0  0  0  0  0  0  0  0
  139.8088   76.9754  223.2152 H   0  0  0  0  0  0  0  0  0  0  0  0
  139.9620   74.5500  222.1810 H   0  0  0  0  0  0  0  0  0  0  0  0
  138.3410   74.7040  222.8310 H   0  0  0  0  0  0  0  0  0  0  0  0
  140.1123   75.8990  220.4445 H   0  0  0  0  0  0  0  0  0  0  0  0
  138.6663   77.1642  219.4604 H   0  0  0  0  0  0  0  0  0  0  0  0
  138.5149   78.2850  220.8794 H   0  0  0  0  0  0  0  0  0  0  0  0
  140.8861   78.2797  218.9188 H   0  0  0  0  0  0  0  0  0  0  0  0
  139.5627   79.4177  218.8131 H   0  0  0  0  0  0  0  0  0  0  0  0
  140.1161   81.4931  219.9894 H   0  0  0  0  0  0  0  0  0  0  0  0
  141.1626   82.6187  221.9817 H   0  0  0  0  0  0  0  0  0  0  0  0
  142.4270   78.7747  223.4833 H   0  0  0  0  0  0  0  0  0  0  0  0
  142.0790   77.0281  220.6101 H   0  0  0  0  0  0  0  0  0  0  0  0
  141.7195   76.7808  222.3471 H   0  0  0  0  0  0  0  0  0  0  0  0
  136.0607   79.4915  221.7093 H   0  0  0  0  0  0  0  0  0  0  0  0
  135.6518   78.0363  222.7111 H   0  0  0  0  0  0  0  0  0  0  0  0
  134.8782   80.1785  223.7207 H   0  0  0  0  0  0  0  0  0  0  0  0
  136.0263   79.2776  224.7538 H   0  0  0  0  0  0  0  0  0  0  0  0
  1  2  1  0
  2  3  1  0
  3  4  2  0
  3  5  1  0
  5  6  1  0
  6  7  2  0
  7  8  1  0
  8  9  2  0
  9 10  1  0
 10 11  2  0
  5 12  1  0
 12 13  1  0
 13 14  1  0
 14 15  1  0
 15 16  1  0
 16 17  2  0
 16 18  1  0
 18 19  1  0
 18 20  1  0
 20 21  1  0
 21 22  1  0
 22 23  1  0
 23 24  2  0
 24 25  1  0
 25 26  2  0
 26 27  1  0
 26 28  1  0
 28 29  2  0
 29 30  1  0
 15 31  1  0
 31 32  1  0
 11  6  1  0
 32 12  1  0
 30 20  1  0
 29 23  1  0
  1 33  1  0
  1 34  1  0
  1 35  1  0
  2 36  1  0
  2 37  1  0
  7 38  1  0
  8 39  1  0
  9 40  1  0
 10 41  1  0
 11 42  1  0
 12 43  1  0
 13 44  1  0
 13 45  1  0
 14 46  1  0
 14 47  1  0
 18 48  1  1
 19 49  1  0
 19 50  1  0
 20 51  1  6
 21 52  1  0
 21 53  1  0
 22 54  1  0
 22 55  1  0
 24 56  1  0
 25 57  1  0
 28 58  1  0
 30 59  1  0
 30 60  1  0
 31 61  1  0
 31 62  1  0
 32 63  1  0
 32 64  1  0
M  END
>  <smiles>  (69) 
CCC(=O)N(c1ccccc1)C1CCN(C(=O)[C@@H](N)C2CCc3ccc(Cl)cc3C2)CC1

>  <score_type>  (69) 
oracle

>  <origin>  (69) 
autodockgpu

>  <m_score__min__energy>  (69) 
-7.6799999999999997

>  <m_primary>  (69) 
energy

>  <rmsd>  (69) 
6.087739945014881

>  <m_score__min__rmsd>  (69) 
6.087739945014881

>  <meeko>  (69) 
{"free_energy": -6.69, "intermolecular_energy": -8.77, "internal_energy": -2.85, "cluster_size": 17, "cluster_id": 4, "rank_in_cluster": 9}

>  <energy>  (69) 
-6.79

>  <cluster_rmsd>  (69) 
0.37

>  <cluster>  (69) 
4

$$$$

     RDKit          3D

 64 67  0  0  0  0  0  0  0  0999 V2000
  143.1900   75.3010  219.7110 C   0  0  0  0  0  0  0  0  0  0  0  0
  142.8640   76.7990  219.7300 C   0  0  0  0  0  0  0  0  0  0  0  0
  141.4430   77.0400  219.9420 C   0  0  0  0  0  0  0  0  0  0  0  0
  140.6830   76.9450  218.9140 O   0  0  0  0  0  0  0  0  0  0  0  0
  140.7970   77.3640  221.1480 N   0  0  0  0  0  0  0  0  0  0  0  0
  141.3920   78.4860  221.8700 C   0  0  0  0  0  0  0  0  0  0  0  0
  141.4640   78.2990  223.2400 C   0  0  0  0  0  0  0  0  0  0  0  0
  142.0100   79.3010  224.0240 C   0  0  0  0  0  0  0  0  0  0  0  0
  142.4570   80.4380  223.3860 C   0  0  0  0  0  0  0  0  0  0  0  0
  142.3790   80.6120  222.0150 C   0  0  0  0  0  0  0  0  0  0  0  0
  141.8280   79.6020  221.2260 C   0  0  0  0  0  0  0  0  0  0  0  0
  139.6640   76.7490  221.7280 C   0  0  0  0  0  0  0  0  0  0  0  0
  138.4760   77.6810  221.9550 C   0  0  0  0  0  0  0  0  0  0  0  0
  137.6220   76.9400  223.0020 C   0  0  0  0  0  0  0  0  0  0  0  0
  137.1560   75.6720  222.5200 N   0  0  0  0  0  0  0  0  0  0  0  0
  135.8480   75.1620  222.5480 C   0  0  0  0  0  0  0  0  0  0  0  0
  135.6820   73.9940  222.0560 O   0  0  0  0  0  0  0  0  0  0  0  0
  134.6260   75.7920  223.0710 C   0  0  1  0  0  0  0  0  0  0  0  0
  133.4360   75.0320  223.0030 N   0  0  0  0  0  0  0  0  0  0  0  0
  134.8460   76.3700  224.4720 C   0  0  1  0  0  0  0  0  0  0  0  0
  133.5740   76.9450  224.9960 C   0  0  0  0  0  0  0  0  0  0  0  0
  133.3800   76.6400  226.4930 C   0  0  0  0  0  0  0  0  0  0  0  0
  133.2910   75.1320  226.5150 C   0  0  0  0  0  0  0  0  0  0  0  0
  132.2270   74.4800  227.0990 C   0  0  0  0  0  0  0  0  0  0  0  0
  132.2210   73.0840  227.0710 C   0  0  0  0  0  0  0  0  0  0  0  0
  133.2740   72.3970  226.4660 C   0  0  0  0  0  0  0  0  0  0  0  0
  133.2510   70.6510  226.4430 Cl  0  0  0  0  0  0  0  0  0  0  0  0
  134.3280   73.0940  225.8900 C   0  0  0  0  0  0  0  0  0  0  0  0
  134.3460   74.4770  225.9100 C   0  0  0  0  0  0  0  0  0  0  0  0
  135.4450   75.2810  225.3150 C   0  0  0  0  0  0  0  0  0  0  0  0
  138.1900   74.8110  221.9310 C   0  0  0  0  0  0  0  0  0  0  0  0
  139.0800   75.5750  220.9850 C   0  0  0  0  0  0  0  0  0  0  0  0
  143.2707   74.9302  220.7435 H   0  0  0  0  0  0  0  0  0  0  0  0
  142.3890   74.7580  219.1879 H   0  0  0  0  0  0  0  0  0  0  0  0
  144.1442   75.1400  219.1879 H   0  0  0  0  0  0  0  0  0  0  0  0
  143.4314   77.2768  220.5423 H   0  0  0  0  0  0  0  0  0  0  0  0
  143.1408   77.2219  218.7530 H   0  0  0  0  0  0  0  0  0  0  0  0
  141.0936   77.3699  223.6978 H   0  0  0  0  0  0  0  0  0  0  0  0
  142.0843   79.1936  225.1162 H   0  0  0  0  0  0  0  0  0  0  0  0
  142.8954   81.2433  223.9936 H   0  0  0  0  0  0  0  0  0  0  0  0
  142.7483   81.5387  221.5516 H   0  0  0  0  0  0  0  0  0  0  0  0
  141.7497   79.7034  220.1335 H   0  0  0  0  0  0  0  0  0  0  0  0
  140.1195   76.4156  222.6721 H   0  0  0  0  0  0  0  0  0  0  0  0
  138.8105   78.6554  222.3407 H   0  0  0  0  0  0  0  0  0  0  0  0
  137.9218   77.8967  221.0296 H   0  0  0  0  0  0  0  0  0  0  0  0
  138.2306   76.7748  223.9033 H   0  0  0  0  0  0  0  0  0  0  0  0
  136.7421   77.5622  223.2225 H   0  0  0  0  0  0  0  0  0  0  0  0
  134.4416   76.6107  222.3599 H   0  0  0  0  0  0  0  0  0  0  0  0
  132.8320   75.0350  223.8510 H   0  0  0  0  0  0  0  0  0  0  0  0
  133.5270   74.1050  222.5370 H   0  0  0  0  0  0  0  0  0  0  0  0
  135.5505   77.2148  224.4744 H   0  0  0  0  0  0  0  0  0  0  0  0
  133.5919   78.0357  224.8547 H   0  0  0  0  0  0  0  0  0  0  0  0
  132.7399   76.4874  224.4438 H   0  0  0  0  0  0  0  0  0  0  0  0
  134.2364   76.9956  227.0846 H   0  0  0  0  0  0  0  0  0  0  0  0
  132.5005   77.1359  226.9294 H   0  0  0  0  0  0  0  0  0  0  0  0
  131.4081   75.0415  227.5724 H   0  0  0  0  0  0  0  0  0  0  0  0
  131.3880   72.5271  227.5249 H   0  0  0  0  0  0  0  0  0  0  0  0
  135.1533   72.5432  225.4151 H   0  0  0  0  0  0  0  0  0  0  0  0
  136.0533   75.7259  226.1163 H   0  0  0  0  0  0  0  0  0  0  0  0
  136.0854   74.6372  224.6942 H   0  0  0  0  0  0  0  0  0  0  0  0
  138.8065   74.3906  222.7392 H   0  0  0  0  0  0  0  0  0  0  0  0
  137.6889   74.0142  221.3618 H   0  0  0  0  0  0  0  0  0  0  0  0
  139.8893   74.9219  220.6266 H   0  0  0  0  0  0  0  0  0  0  0  0
  138.4997   75.9256  220.1188 H   0  0  0  0  0  0  0  0  0  0  0  0
  1  2  1  0
  2  3  1  0
  3  4  2  0
  3  5  1  0
  5  6  1  0
  6  7  2  0
  7  8  1  0
  8  9  2  0
  9 10  1  0
 10 11  2  0
  5 12  1  0
 12 13  1  0
 13 14  1  0
 14 15  1  0
 15 16  1  0
 16 17  2  0
 16 18  1  0
 18 19  1  0
 18 20  1  0
 20 21  1  0
 21 22  1  0
 22 23  1  0
 23 24  2  0
 24 25  1  0
 25 26  2  0
 26 27  1  0
 26 28  1  0
 28 29  2  0
 29 30  1  0
 15 31  1  0
 31 32  1  0
 11  6  1  0
 32 12  1  0
 30 20  1  0
 29 23  1  0
  1 33  1  0
  1 34  1  0
  1 35  1  0
  2 36  1  0
  2 37  1  0
  7 38  1  0
  8 39  1  0
  9 40  1  0
 10 41  1  0
 11 42  1  0
 12 43  1  0
 13 44  1  0
 13 45  1  0
 14 46  1  0
 14 47  1  0
 18 48  1  6
 19 49  1  0
 19 50  1  0
 20 51  1  6
 21 52  1  0
 21 53  1  0
 22 54  1  0
 22 55  1  0
 24 56  1  0
 25 57  1  0
 28 58  1  0
 30 59  1  0
 30 60  1  0
 31 61  1  0
 31 62  1  0
 32 63  1  0
 32 64  1  0
M  END
>  <smiles>  (70) 
CCC(=O)N(c1ccccc1)C1CCN(C(=O)[C@@H](N)C2CCc3ccc(Cl)cc3C2)CC1

>  <score_type>  (70) 
oracle

>  <origin>  (70) 
autodockgpu

>  <m_score__min__energy>  (70) 
-7.6799999999999997

>  <m_primary>  (70) 
energy

>  <rmsd>  (70) 
7.784523484793675

>  <m_score__min__rmsd>  (70) 
7.784523484793675

>  <meeko>  (70) 
{"free_energy": -6.82, "intermolecular_energy": -8.91, "internal_energy": -2.38, "cluster_size": 13, "cluster_id": 6, "rank_in_cluster": 5}

>  <energy>  (70) 
-6.77

>  <cluster_rmsd>  (70) 
0.58

>  <cluster>  (70) 
4

$$$$

     RDKit          3D

 64 67  0  0  0  0  0  0  0  0999 V2000
  143.0190   76.7220  218.1690 C   0  0  0  0  0  0  0  0  0  0  0  0
  142.1850   77.5990  219.1100 C   0  0  0  0  0  0  0  0  0  0  0  0
  141.8090   76.8840  220.3230 C   0  0  0  0  0  0  0  0  0  0  0  0
  142.2970   75.7070  220.4730 O   0  0  0  0  0  0  0  0  0  0  0  0
  140.9700   77.3310  221.3590 N   0  0  0  0  0  0  0  0  0  0  0  0
  141.3670   78.6060  221.9490 C   0  0  0  0  0  0  0  0  0  0  0  0
  141.7880   78.5110  223.2650 C   0  0  0  0  0  0  0  0  0  0  0  0
  142.1880   79.6600  223.9250 C   0  0  0  0  0  0  0  0  0  0  0  0
  142.1440   80.8460  223.2250 C   0  0  0  0  0  0  0  0  0  0  0  0
  141.7220   80.9280  221.9090 C   0  0  0  0  0  0  0  0  0  0  0  0
  141.3180   79.7690  221.2450 C   0  0  0  0  0  0  0  0  0  0  0  0
  139.8120   76.7090  221.8790 C   0  0  0  0  0  0  0  0  0  0  0  0
  138.6180   77.6400  222.0730 C   0  0  0  0  0  0  0  0  0  0  0  0
  137.7190   76.8830  223.0700 C   0  0  0  0  0  0  0  0  0  0  0  0
  137.2720   75.6250  222.5470 N   0  0  0  0  0  0  0  0  0  0  0  0
  135.9620   75.1180  222.5100 C   0  0  0  0  0  0  0  0  0  0  0  0
  135.8150   73.9600  221.9910 O   0  0  0  0  0  0  0  0  0  0  0  0
  134.7210   75.7430  222.9930 C   0  0  1  0  0  0  0  0  0  0  0  0
  133.5410   74.9680  222.9080 N   0  0  0  0  0  0  0  0  0  0  0  0
  134.8990   76.3440  224.3900 C   0  0  1  0  0  0  0  0  0  0  0  0
  133.6180   76.9460  224.8590 C   0  0  0  0  0  0  0  0  0  0  0  0
  133.3670   76.6720  226.3530 C   0  0  0  0  0  0  0  0  0  0  0  0
  133.2560   75.1670  226.4000 C   0  0  0  0  0  0  0  0  0  0  0  0
  132.1620   74.5400  226.9570 C   0  0  0  0  0  0  0  0  0  0  0  0
  132.1390   73.1430  226.9550 C   0  0  0  0  0  0  0  0  0  0  0  0
  133.2030   72.4310  226.4010 C   0  0  0  0  0  0  0  0  0  0  0  0
  133.1550   70.6860  226.4090 Cl  0  0  0  0  0  0  0  0  0  0  0  0
  134.2860   73.1030  225.8500 C   0  0  0  0  0  0  0  0  0  0  0  0
  134.3220   74.4860  225.8450 C   0  0  0  0  0  0  0  0  0  0  0  0
  135.4530   75.2630  225.2750 C   0  0  0  0  0  0  0  0  0  0  0  0
  138.3270   74.7730  221.9860 C   0  0  0  0  0  0  0  0  0  0  0  0
  139.2580   75.5500  221.0920 C   0  0  0  0  0  0  0  0  0  0  0  0
  143.6572   76.0509  218.7627 H   0  0  0  0  0  0  0  0  0  0  0  0
  142.3483   76.1240  217.5346 H   0  0  0  0  0  0  0  0  0  0  0  0
  143.6500   77.3618  217.5346 H   0  0  0  0  0  0  0  0  0  0  0  0
  142.7747   78.4852  219.3871 H   0  0  0  0  0  0  0  0  0  0  0  0
  141.2636   77.8870  218.5828 H   0  0  0  0  0  0  0  0  0  0  0  0
  141.8042   77.5379  223.7776 H   0  0  0  0  0  0  0  0  0  0  0  0
  142.5287   79.6275  224.9704 H   0  0  0  0  0  0  0  0  0  0  0  0
  142.4582   81.7689  223.7345 H   0  0  0  0  0  0  0  0  0  0  0  0
  141.7053   81.8984  221.3912 H   0  0  0  0  0  0  0  0  0  0  0  0
  140.9755   79.7946  220.2000 H   0  0  0  0  0  0  0  0  0  0  0  0
  140.2265   76.3574  222.8353 H   0  0  0  0  0  0  0  0  0  0  0  0
  138.9383   78.6063  222.4898 H   0  0  0  0  0  0  0  0  0  0  0  0
  138.1034   77.8738  221.1293 H   0  0  0  0  0  0  0  0  0  0  0  0
  138.2886   76.7008  223.9933 H   0  0  0  0  0  0  0  0  0  0  0  0
  136.8315   77.5034  223.2638 H   0  0  0  0  0  0  0  0  0  0  0  0
  134.5466   76.5491  222.2652 H   0  0  0  0  0  0  0  0  0  0  0  0
  132.9330   74.9510  223.7520 H   0  0  0  0  0  0  0  0  0  0  0  0
  133.6470   74.0490  222.4290 H   0  0  0  0  0  0  0  0  0  0  0  0
  135.6147   77.1792  224.4006 H   0  0  0  0  0  0  0  0  0  0  0  0
  133.6566   78.0336  224.6986 H   0  0  0  0  0  0  0  0  0  0  0  0
  132.7973   76.4892  224.2864 H   0  0  0  0  0  0  0  0  0  0  0  0
  134.2070   77.0272  226.9681 H   0  0  0  0  0  0  0  0  0  0  0  0
  132.4796   77.1878  226.7485 H   0  0  0  0  0  0  0  0  0  0  0  0
  131.3338   75.1208  227.3891 H   0  0  0  0  0  0  0  0  0  0  0  0
  131.2833   72.6055  227.3896 H   0  0  0  0  0  0  0  0  0  0  0  0
  135.1199   72.5326  225.4151 H   0  0  0  0  0  0  0  0  0  0  0  0
  136.0386   75.7152  226.0890 H   0  0  0  0  0  0  0  0  0  0  0  0
  136.1063   74.5988  224.6902 H   0  0  0  0  0  0  0  0  0  0  0  0
  138.9082   74.3361  222.8114 H   0  0  0  0  0  0  0  0  0  0  0  0
  137.8477   73.9890  221.3813 H   0  0  0  0  0  0  0  0  0  0  0  0
  140.0804   74.9007  220.7573 H   0  0  0  0  0  0  0  0  0  0  0  0
  138.7161   75.9168  220.2078 H   0  0  0  0  0  0  0  0  0  0  0  0
  1  2  1  0
  2  3  1  0
  3  4  2  0
  3  5  1  0
  5  6  1  0
  6  7  2  0
  7  8  1  0
  8  9  2  0
  9 10  1  0
 10 11  2  0
  5 12  1  0
 12 13  1  0
 13 14  1  0
 14 15  1  0
 15 16  1  0
 16 17  2  0
 16 18  1  0
 18 19  1  0
 18 20  1  0
 20 21  1  0
 21 22  1  0
 22 23  1  0
 23 24  2  0
 24 25  1  0
 25 26  2  0
 26 27  1  0
 26 28  1  0
 28 29  2  0
 29 30  1  0
 15 31  1  0
 31 32  1  0
 11  6  1  0
 32 12  1  0
 30 20  1  0
 29 23  1  0
  1 33  1  0
  1 34  1  0
  1 35  1  0
  2 36  1  0
  2 37  1  0
  7 38  1  0
  8 39  1  0
  9 40  1  0
 10 41  1  0
 11 42  1  0
 12 43  1  0
 13 44  1  0
 13 45  1  0
 14 46  1  0
 14 47  1  0
 18 48  1  6
 19 49  1  0
 19 50  1  0
 20 51  1  6
 21 52  1  0
 21 53  1  0
 22 54  1  0
 22 55  1  0
 24 56  1  0
 25 57  1  0
 28 58  1  0
 30 59  1  0
 30 60  1  0
 31 61  1  0
 31 62  1  0
 32 63  1  0
 32 64  1  0
M  END
>  <smiles>  (71) 
CCC(=O)N(c1ccccc1)C1CCN(C(=O)[C@@H](N)C2CCc3ccc(Cl)cc3C2)CC1

>  <score_type>  (71) 
oracle

>  <origin>  (71) 
autodockgpu

>  <m_score__min__energy>  (71) 
-7.6799999999999997

>  <m_primary>  (71) 
energy

>  <rmsd>  (71) 
7.778529636623558

>  <m_score__min__rmsd>  (71) 
7.778529636623558

>  <meeko>  (71) 
{"free_energy": -6.83, "intermolecular_energy": -8.92, "internal_energy": -2.33, "cluster_size": 13, "cluster_id": 6, "rank_in_cluster": 2}

>  <energy>  (71) 
-6.74

>  <cluster_rmsd>  (71) 
0.87

>  <cluster>  (71) 
4

$$$$

     RDKit          3D

 64 67  0  0  0  0  0  0  0  0999 V2000
  140.4410   71.9830  222.5110 C   0  0  0  0  0  0  0  0  0  0  0  0
  141.2670   72.3820  221.2840 C   0  0  0  0  0  0  0  0  0  0  0  0
  141.4240   73.8270  221.1850 C   0  0  0  0  0  0  0  0  0  0  0  0
  140.7030   74.5400  221.9700 O   0  0  0  0  0  0  0  0  0  0  0  0
  142.2780   74.5410  220.3270 N   0  0  0  0  0  0  0  0  0  0  0  0
  143.6000   73.9440  220.1550 C   0  0  0  0  0  0  0  0  0  0  0  0
  143.6260   72.8820  219.2650 C   0  0  0  0  0  0  0  0  0  0  0  0
  144.8280   72.2390  219.0260 C   0  0  0  0  0  0  0  0  0  0  0  0
  145.9430   72.7000  219.6940 C   0  0  0  0  0  0  0  0  0  0  0  0
  145.9020   73.7630  220.5800 C   0  0  0  0  0  0  0  0  0  0  0  0
  144.6900   74.4090  220.8210 C   0  0  0  0  0  0  0  0  0  0  0  0
  142.0130   75.7390  219.6240 C   0  0  0  0  0  0  0  0  0  0  0  0
  142.5670   77.0020  220.2790 C   0  0  0  0  0  0  0  0  0  0  0  0
  141.7500   78.1390  219.6360 C   0  0  0  0  0  0  0  0  0  0  0  0
  141.9430   78.2070  218.2170 N   0  0  0  0  0  0  0  0  0  0  0  0
  142.2570   79.3330  217.4380 C   0  0  0  0  0  0  0  0  0  0  0  0
  142.3760   79.1390  216.1810 O   0  0  0  0  0  0  0  0  0  0  0  0
  142.4710   80.7210  217.8740 C   0  0  1  0  0  0  0  0  0  0  0  0
  143.2780   81.5340  217.0440 N   0  0  0  0  0  0  0  0  0  0  0  0
  141.1500   81.4120  218.2240 C   0  0  1  0  0  0  0  0  0  0  0  0
  140.0620   80.4010  218.3650 C   0  0  0  0  0  0  0  0  0  0  0  0
  139.1230   80.7290  219.5410 C   0  0  0  0  0  0  0  0  0  0  0  0
  140.0440   80.6400  220.7350 C   0  0  0  0  0  0  0  0  0  0  0  0
  139.7520   79.8350  221.8140 C   0  0  0  0  0  0  0  0  0  0  0  0
  140.6600   79.8090  222.8750 C   0  0  0  0  0  0  0  0  0  0  0  0
  141.8170   80.5850  222.8170 C   0  0  0  0  0  0  0  0  0  0  0  0
  142.9400   80.5410  224.1540 Cl  0  0  0  0  0  0  0  0  0  0  0  0
  142.0720   81.3840  221.7100 C   0  0  0  0  0  0  0  0  0  0  0  0
  141.1820   81.4190  220.6530 C   0  0  0  0  0  0  0  0  0  0  0  0
  141.3950   82.2550  219.4430 C   0  0  0  0  0  0  0  0  0  0  0  0
  141.7850   76.9330  217.5050 C   0  0  0  0  0  0  0  0  0  0  0  0
  142.5080   75.8100  218.2020 C   0  0  0  0  0  0  0  0  0  0  0  0
  140.9912   72.2488  223.4257 H   0  0  0  0  0  0  0  0  0  0  0  0
  139.4787   72.5156  222.4942 H   0  0  0  0  0  0  0  0  0  0  0  0
  140.2600   70.8981  222.4942 H   0  0  0  0  0  0  0  0  0  0  0  0
  142.2624   71.9199  221.3591 H   0  0  0  0  0  0  0  0  0  0  0  0
  140.7362   72.0331  220.3859 H   0  0  0  0  0  0  0  0  0  0  0  0
  142.7066   72.5556  218.7570 H   0  0  0  0  0  0  0  0  0  0  0  0
  144.8917   71.3909  218.3284 H   0  0  0  0  0  0  0  0  0  0  0  0
  146.9070   72.2013  219.5150 H   0  0  0  0  0  0  0  0  0  0  0  0
  146.8183   74.0954  221.0898 H   0  0  0  0  0  0  0  0  0  0  0  0
  144.6191   75.2566  221.5185 H   0  0  0  0  0  0  0  0  0  0  0  0
  140.9137   75.7051  219.6455 H   0  0  0  0  0  0  0  0  0  0  0  0
  142.4146   76.9776  221.3681 H   0  0  0  0  0  0  0  0  0  0  0  0
  143.6503   77.1190  220.1281 H   0  0  0  0  0  0  0  0  0  0  0  0
  140.6828   77.9684  219.8409 H   0  0  0  0  0  0  0  0  0  0  0  0
  142.0932   79.0897  220.0701 H   0  0  0  0  0  0  0  0  0  0  0  0
  143.0791   80.6070  218.7835 H   0  0  0  0  0  0  0  0  0  0  0  0
  143.3510   81.2530  216.0450 H   0  0  0  0  0  0  0  0  0  0  0  0
  144.1710   81.8570  217.4720 H   0  0  0  0  0  0  0  0  0  0  0  0
  140.8002   82.0819  217.4247 H   0  0  0  0  0  0  0  0  0  0  0  0
  139.4740   80.3792  217.4356 H   0  0  0  0  0  0  0  0  0  0  0  0
  140.5275   79.4241  218.5623 H   0  0  0  0  0  0  0  0  0  0  0  0
  138.6996   81.7393  219.4409 H   0  0  0  0  0  0  0  0  0  0  0  0
  138.2551   80.0565  219.6077 H   0  0  0  0  0  0  0  0  0  0  0  0
  138.8326   79.2316  221.8392 H   0  0  0  0  0  0  0  0  0  0  0  0
  140.4628   79.1779  223.7541 H   0  0  0  0  0  0  0  0  0  0  0  0
  142.9876   81.9926  221.6742 H   0  0  0  0  0  0  0  0  0  0  0  0
  140.6956   83.1040  219.4522 H   0  0  0  0  0  0  0  0  0  0  0  0
  142.4254   82.6398  219.4308 H   0  0  0  0  0  0  0  0  0  0  0  0
  140.7144   76.6867  217.4488 H   0  0  0  0  0  0  0  0  0  0  0  0
  142.2174   77.0467  216.5000 H   0  0  0  0  0  0  0  0  0  0  0  0
  142.3016   74.8594  217.6884 H   0  0  0  0  0  0  0  0  0  0  0  0
  143.5929   75.9907  218.1869 H   0  0  0  0  0  0  0  0  0  0  0  0
  1  2  1  0
  2  3  1  0
  3  4  2  0
  3  5  1  0
  5  6  1  0
  6  7  2  0
  7  8  1  0
  8  9  2  0
  9 10  1  0
 10 11  2  0
  5 12  1  0
 12 13  1  0
 13 14  1  0
 14 15  1  0
 15 16  1  0
 16 17  2  0
 16 18  1  0
 18 19  1  0
 18 20  1  0
 20 21  1  0
 21 22  1  0
 22 23  1  0
 23 24  2  0
 24 25  1  0
 25 26  2  0
 26 27  1  0
 26 28  1  0
 28 29  2  0
 29 30  1  0
 15 31  1  0
 31 32  1  0
 11  6  1  0
 32 12  1  0
 30 20  1  0
 29 23  1  0
  1 33  1  0
  1 34  1  0
  1 35  1  0
  2 36  1  0
  2 37  1  0
  7 38  1  0
  8 39  1  0
  9 40  1  0
 10 41  1  0
 11 42  1  0
 12 43  1  0
 13 44  1  0
 13 45  1  0
 14 46  1  0
 14 47  1  0
 18 48  1  1
 19 49  1  0
 19 50  1  0
 20 51  1  6
 21 52  1  0
 21 53  1  0
 22 54  1  0
 22 55  1  0
 24 56  1  0
 25 57  1  0
 28 58  1  0
 30 59  1  0
 30 60  1  0
 31 61  1  0
 31 62  1  0
 32 63  1  0
 32 64  1  0
M  END
>  <smiles>  (72) 
CCC(=O)N(c1ccccc1)C1CCN(C(=O)[C@@H](N)C2CCc3ccc(Cl)cc3C2)CC1

>  <score_type>  (72) 
oracle

>  <origin>  (72) 
autodockgpu

>  <m_score__min__energy>  (72) 
-7.6799999999999997

>  <m_primary>  (72) 
energy

>  <rmsd>  (72) 
3.689557402473434

>  <m_score__min__rmsd>  (72) 
3.689557402473434

>  <meeko>  (72) 
{"free_energy": -7.0, "intermolecular_energy": -9.09, "internal_energy": -2.52, "cluster_size": 9, "cluster_id": 3, "rank_in_cluster": 3}

>  <energy>  (72) 
-6.73

>  <cluster_rmsd>  (72) 
0.84

>  <cluster>  (72) 
4

$$$$

     RDKit          3D

 64 67  0  0  0  0  0  0  0  0999 V2000
  140.5120   72.0500  222.5130 C   0  0  0  0  0  0  0  0  0  0  0  0
  141.2190   72.4550  221.2150 C   0  0  0  0  0  0  0  0  0  0  0  0
  141.4140   73.8970  221.1340 C   0  0  0  0  0  0  0  0  0  0  0  0
  140.7780   74.6140  221.9850 O   0  0  0  0  0  0  0  0  0  0  0  0
  142.2250   74.6050  220.2280 N   0  0  0  0  0  0  0  0  0  0  0  0
  143.5140   73.9770  219.9530 C   0  0  0  0  0  0  0  0  0  0  0  0
  144.5130   74.3290  220.8440 C   0  0  0  0  0  0  0  0  0  0  0  0
  145.7790   73.7920  220.6780 C   0  0  0  0  0  0  0  0  0  0  0  0
  145.9710   72.9260  219.6220 C   0  0  0  0  0  0  0  0  0  0  0  0
  144.9620   72.5820  218.7390 C   0  0  0  0  0  0  0  0  0  0  0  0
  143.6880   73.1250  218.9070 C   0  0  0  0  0  0  0  0  0  0  0  0
  141.9420   75.8210  219.5650 C   0  0  0  0  0  0  0  0  0  0  0  0
  142.5470   77.0610  220.2170 C   0  0  0  0  0  0  0  0  0  0  0  0
  141.7160   78.2230  219.6400 C   0  0  0  0  0  0  0  0  0  0  0  0
  141.8380   78.3190  218.2150 N   0  0  0  0  0  0  0  0  0  0  0  0
  142.1290   79.4570  217.4450 C   0  0  0  0  0  0  0  0  0  0  0  0
  142.1810   79.2890  216.1790 O   0  0  0  0  0  0  0  0  0  0  0  0
  142.3860   80.8330  217.8980 C   0  0  1  0  0  0  0  0  0  0  0  0
  143.1970   81.6380  217.0660 N   0  0  0  0  0  0  0  0  0  0  0  0
  141.0890   81.5500  218.2830 C   0  0  1  0  0  0  0  0  0  0  0  0
  139.9780   80.5650  218.4210 C   0  0  0  0  0  0  0  0  0  0  0  0
  139.0660   80.8930  219.6180 C   0  0  0  0  0  0  0  0  0  0  0  0
  140.0020   80.7550  220.7950 C   0  0  0  0  0  0  0  0  0  0  0  0
  139.7050   79.9350  221.8620 C   0  0  0  0  0  0  0  0  0  0  0  0
  140.6290   79.8640  222.9080 C   0  0  0  0  0  0  0  0  0  0  0  0
  141.8060   80.6100  222.8470 C   0  0  0  0  0  0  0  0  0  0  0  0
  142.9480   80.5090  224.1650 Cl  0  0  0  0  0  0  0  0  0  0  0  0
  142.0650   81.4260  221.7530 C   0  0  0  0  0  0  0  0  0  0  0  0
  141.1590   81.5050  220.7110 C   0  0  0  0  0  0  0  0  0  0  0  0
  141.3760   82.3610  219.5150 C   0  0  0  0  0  0  0  0  0  0  0  0
  141.6250   77.0630  217.4850 C   0  0  0  0  0  0  0  0  0  0  0  0
  142.3650   75.9150  218.1210 C   0  0  0  0  0  0  0  0  0  0  0  0
  141.1050   72.3897  223.3749 H   0  0  0  0  0  0  0  0  0  0  0  0
  139.5153   72.5141  222.5479 H   0  0  0  0  0  0  0  0  0  0  0  0
  140.4082   70.9555  222.5479 H   0  0  0  0  0  0  0  0  0  0  0  0
  142.2004   71.9598  221.1743 H   0  0  0  0  0  0  0  0  0  0  0  0
  140.5862   72.1468  220.3696 H   0  0  0  0  0  0  0  0  0  0  0  0
  144.3049   75.0241  221.6707 H   0  0  0  0  0  0  0  0  0  0  0  0
  146.6009   74.0469  221.3632 H   0  0  0  0  0  0  0  0  0  0  0  0
  146.9699   72.4894  219.4749 H   0  0  0  0  0  0  0  0  0  0  0  0
  145.1632   71.8859  217.9113 H   0  0  0  0  0  0  0  0  0  0  0  0
  142.8619   72.8756  218.2248 H   0  0  0  0  0  0  0  0  0  0  0  0
  140.8449   75.8026  219.6420 H   0  0  0  0  0  0  0  0  0  0  0  0
  142.4492   77.0152  221.3117 H   0  0  0  0  0  0  0  0  0  0  0  0
  143.6230   77.1660  220.0139 H   0  0  0  0  0  0  0  0  0  0  0  0
  140.6580   78.0631  219.8952 H   0  0  0  0  0  0  0  0  0  0  0  0
  142.0953   79.1591  220.0758 H   0  0  0  0  0  0  0  0  0  0  0  0
  143.0082   80.6906  218.7939 H   0  0  0  0  0  0  0  0  0  0  0  0
  142.9680   82.6520  217.0320 H   0  0  0  0  0  0  0  0  0  0  0  0
  143.4460   81.2170  216.1460 H   0  0  0  0  0  0  0  0  0  0  0  0
  140.7434   82.2448  217.5034 H   0  0  0  0  0  0  0  0  0  0  0  0
  139.3754   80.5772  217.5008 H   0  0  0  0  0  0  0  0  0  0  0  0
  140.4210   79.5727  218.5914 H   0  0  0  0  0  0  0  0  0  0  0  0
  138.6682   81.9160  219.5452 H   0  0  0  0  0  0  0  0  0  0  0  0
  138.1816   80.2423  219.6845 H   0  0  0  0  0  0  0  0  0  0  0  0
  138.7707   79.3550  221.8895 H   0  0  0  0  0  0  0  0  0  0  0  0
  140.4285   79.2211  223.7777 H   0  0  0  0  0  0  0  0  0  0  0  0
  142.9951   82.0121  221.7153 H   0  0  0  0  0  0  0  0  0  0  0  0
  140.7002   83.2281  219.5530 H   0  0  0  0  0  0  0  0  0  0  0  0
  142.4160   82.7187  219.4941 H   0  0  0  0  0  0  0  0  0  0  0  0
  140.5493   76.8332  217.4778 H   0  0  0  0  0  0  0  0  0  0  0  0
  142.0080   77.1924  216.4620 H   0  0  0  0  0  0  0  0  0  0  0  0
  142.1180   74.9786  217.5993 H   0  0  0  0  0  0  0  0  0  0  0  0
  143.4505   76.0802  218.0541 H   0  0  0  0  0  0  0  0  0  0  0  0
  1  2  1  0
  2  3  1  0
  3  4  2  0
  3  5  1  0
  5  6  1  0
  6  7  2  0
  7  8  1  0
  8  9  2  0
  9 10  1  0
 10 11  2  0
  5 12  1  0
 12 13  1  0
 13 14  1  0
 14 15  1  0
 15 16  1  0
 16 17  2  0
 16 18  1  0
 18 19  1  0
 18 20  1  0
 20 21  1  0
 21 22  1  0
 22 23  1  0
 23 24  2  0
 24 25  1  0
 25 26  2  0
 26 27  1  0
 26 28  1  0
 28 29  2  0
 29 30  1  0
 15 31  1  0
 31 32  1  0
 11  6  1  0
 32 12  1  0
 30 20  1  0
 29 23  1  0
  1 33  1  0
  1 34  1  0
  1 35  1  0
  2 36  1  0
  2 37  1  0
  7 38  1  0
  8 39  1  0
  9 40  1  0
 10 41  1  0
 11 42  1  0
 12 43  1  0
 13 44  1  0
 13 45  1  0
 14 46  1  0
 14 47  1  0
 18 48  1  1
 19 49  1  0
 19 50  1  0
 20 51  1  6
 21 52  1  0
 21 53  1  0
 22 54  1  0
 22 55  1  0
 24 56  1  0
 25 57  1  0
 28 58  1  0
 30 59  1  0
 30 60  1  0
 31 61  1  0
 31 62  1  0
 32 63  1  0
 32 64  1  0
M  END
>  <smiles>  (73) 
CCC(=O)N(c1ccccc1)C1CCN(C(=O)[C@@H](N)C2CCc3ccc(Cl)cc3C2)CC1

>  <score_type>  (73) 
oracle

>  <origin>  (73) 
autodockgpu

>  <m_score__min__energy>  (73) 
-7.6799999999999997

>  <m_primary>  (73) 
energy

>  <rmsd>  (73) 
3.677735004681019

>  <m_score__min__rmsd>  (73) 
3.677735004681019

>  <meeko>  (73) 
{"free_energy": -6.86, "intermolecular_energy": -8.95, "internal_energy": -2.63, "cluster_size": 9, "cluster_id": 3, "rank_in_cluster": 7}

>  <energy>  (73) 
-6.69

>  <cluster_rmsd>  (73) 
0.73

>  <cluster>  (73) 
4

$$$$

     RDKit          3D

 64 67  0  0  0  0  0  0  0  0999 V2000
  140.5350   71.9700  222.4670 C   0  0  0  0  0  0  0  0  0  0  0  0
  141.2650   72.4100  221.1920 C   0  0  0  0  0  0  0  0  0  0  0  0
  141.4190   73.8580  221.1310 C   0  0  0  0  0  0  0  0  0  0  0  0
  140.7200   74.5470  221.9560 O   0  0  0  0  0  0  0  0  0  0  0  0
  142.2490   74.5970  220.2710 N   0  0  0  0  0  0  0  0  0  0  0  0
  143.5760   74.0200  220.0680 C   0  0  0  0  0  0  0  0  0  0  0  0
  143.6250   73.0610  219.0700 C   0  0  0  0  0  0  0  0  0  0  0  0
  144.8340   72.4470  218.7920 C   0  0  0  0  0  0  0  0  0  0  0  0
  145.9310   72.8310  219.5330 C   0  0  0  0  0  0  0  0  0  0  0  0
  145.8670   73.7910  220.5280 C   0  0  0  0  0  0  0  0  0  0  0  0
  144.6480   74.4090  220.8080 C   0  0  0  0  0  0  0  0  0  0  0  0
  141.9570   75.8020  219.5930 C   0  0  0  0  0  0  0  0  0  0  0  0
  142.5400   77.0580  220.2370 C   0  0  0  0  0  0  0  0  0  0  0  0
  141.6990   78.2020  219.6400 C   0  0  0  0  0  0  0  0  0  0  0  0
  141.8320   78.2840  218.2150 N   0  0  0  0  0  0  0  0  0  0  0  0
  142.1150   79.4180  217.4350 C   0  0  0  0  0  0  0  0  0  0  0  0
  142.1810   79.2370  216.1720 O   0  0  0  0  0  0  0  0  0  0  0  0
  142.3500   80.8010  217.8750 C   0  0  1  0  0  0  0  0  0  0  0  0
  143.1430   81.6140  217.0320 N   0  0  0  0  0  0  0  0  0  0  0  0
  141.0430   81.4990  218.2610 C   0  0  1  0  0  0  0  0  0  0  0  0
  139.9500   80.4970  218.4120 C   0  0  0  0  0  0  0  0  0  0  0  0
  139.0380   80.8170  219.6110 C   0  0  0  0  0  0  0  0  0  0  0  0
  139.9820   80.7050  220.7850 C   0  0  0  0  0  0  0  0  0  0  0  0
  139.7040   79.8880  221.8590 C   0  0  0  0  0  0  0  0  0  0  0  0
  140.6340   79.8400  222.9010 C   0  0  0  0  0  0  0  0  0  0  0  0
  141.7970   80.6070  222.8290 C   0  0  0  0  0  0  0  0  0  0  0  0
  142.9470   80.5340  224.1410 Cl  0  0  0  0  0  0  0  0  0  0  0  0
  142.0370   81.4180  221.7270 C   0  0  0  0  0  0  0  0  0  0  0  0
  141.1250   81.4740  220.6890 C   0  0  0  0  0  0  0  0  0  0  0  0
  141.3210   82.3240  219.4850 C   0  0  0  0  0  0  0  0  0  0  0  0
  141.6420   77.0180  217.4970 C   0  0  0  0  0  0  0  0  0  0  0  0
  142.3910   75.8870  218.1520 C   0  0  0  0  0  0  0  0  0  0  0  0
  141.0989   72.3099  223.3482 H   0  0  0  0  0  0  0  0  0  0  0  0
  139.5276   72.4115  222.4836 H   0  0  0  0  0  0  0  0  0  0  0  0
  140.4549   70.8730  222.4836 H   0  0  0  0  0  0  0  0  0  0  0  0
  142.2615   71.9445  221.1732 H   0  0  0  0  0  0  0  0  0  0  0  0
  140.6649   72.0924  220.3266 H   0  0  0  0  0  0  0  0  0  0  0  0
  142.7186   72.7918  218.5079 H   0  0  0  0  0  0  0  0  0  0  0  0
  144.9164   71.6800  218.0078 H   0  0  0  0  0  0  0  0  0  0  0  0
  146.8998   72.3536  219.3244 H   0  0  0  0  0  0  0  0  0  0  0  0
  146.7700   74.0645  221.0934 H   0  0  0  0  0  0  0  0  0  0  0  0
  144.5584   75.1758  221.5916 H   0  0  0  0  0  0  0  0  0  0  0  0
  140.8596   75.7693  219.6613 H   0  0  0  0  0  0  0  0  0  0  0  0
  142.4330   77.0229  221.3312 H   0  0  0  0  0  0  0  0  0  0  0  0
  143.6163   77.1752  220.0423 H   0  0  0  0  0  0  0  0  0  0  0  0
  140.6411   78.0309  219.8880 H   0  0  0  0  0  0  0  0  0  0  0  0
  142.0622   79.1478  220.0684 H   0  0  0  0  0  0  0  0  0  0  0  0
  142.9791   80.6760  218.7687 H   0  0  0  0  0  0  0  0  0  0  0  0
  142.8870   82.6210  216.9790 H   0  0  0  0  0  0  0  0  0  0  0  0
  143.4080   81.1830  216.1210 H   0  0  0  0  0  0  0  0  0  0  0  0
  140.6828   82.1819  217.4775 H   0  0  0  0  0  0  0  0  0  0  0  0
  139.3428   80.4924  217.4948 H   0  0  0  0  0  0  0  0  0  0  0  0
  140.4112   79.5139  218.5878 H   0  0  0  0  0  0  0  0  0  0  0  0
  138.6211   81.8319  219.5326 H   0  0  0  0  0  0  0  0  0  0  0  0
  138.1662   80.1505  219.6866 H   0  0  0  0  0  0  0  0  0  0  0  0
  138.7797   79.2926  221.8951 H   0  0  0  0  0  0  0  0  0  0  0  0
  140.4495   79.1991  223.7757 H   0  0  0  0  0  0  0  0  0  0  0  0
  142.9573   82.0188  221.6798 H   0  0  0  0  0  0  0  0  0  0  0  0
  140.6300   83.1792  219.5195 H   0  0  0  0  0  0  0  0  0  0  0  0
  142.3545   82.6996  219.4563 H   0  0  0  0  0  0  0  0  0  0  0  0
  140.5695   76.7740  217.4827 H   0  0  0  0  0  0  0  0  0  0  0  0
  142.0324   77.1414  216.4760 H   0  0  0  0  0  0  0  0  0  0  0  0
  142.1610   74.9420  217.6381 H   0  0  0  0  0  0  0  0  0  0  0  0
  143.4747   76.0665  218.0931 H   0  0  0  0  0  0  0  0  0  0  0  0
  1  2  1  0
  2  3  1  0
  3  4  2  0
  3  5  1  0
  5  6  1  0
  6  7  2  0
  7  8  1  0
  8  9  2  0
  9 10  1  0
 10 11  2  0
  5 12  1  0
 12 13  1  0
 13 14  1  0
 14 15  1  0
 15 16  1  0
 16 17  2  0
 16 18  1  0
 18 19  1  0
 18 20  1  0
 20 21  1  0
 21 22  1  0
 22 23  1  0
 23 24  2  0
 24 25  1  0
 25 26  2  0
 26 27  1  0
 26 28  1  0
 28 29  2  0
 29 30  1  0
 15 31  1  0
 31 32  1  0
 11  6  1  0
 32 12  1  0
 30 20  1  0
 29 23  1  0
  1 33  1  0
  1 34  1  0
  1 35  1  0
  2 36  1  0
  2 37  1  0
  7 38  1  0
  8 39  1  0
  9 40  1  0
 10 41  1  0
 11 42  1  0
 12 43  1  0
 13 44  1  0
 13 45  1  0
 14 46  1  0
 14 47  1  0
 18 48  1  1
 19 49  1  0
 19 50  1  0
 20 51  1  6
 21 52  1  0
 21 53  1  0
 22 54  1  0
 22 55  1  0
 24 56  1  0
 25 57  1  0
 28 58  1  0
 30 59  1  0
 30 60  1  0
 31 61  1  0
 31 62  1  0
 32 63  1  0
 32 64  1  0
M  END
>  <smiles>  (74) 
CCC(=O)N(c1ccccc1)C1CCN(C(=O)[C@@H](N)C2CCc3ccc(Cl)cc3C2)CC1

>  <score_type>  (74) 
oracle

>  <origin>  (74) 
autodockgpu

>  <m_score__min__energy>  (74) 
-7.6799999999999997

>  <m_primary>  (74) 
energy

>  <rmsd>  (74) 
3.6709884715477794

>  <m_score__min__rmsd>  (74) 
3.6709884715477794

>  <meeko>  (74) 
{"free_energy": -6.84, "intermolecular_energy": -8.93, "internal_energy": -2.61, "cluster_size": 9, "cluster_id": 3, "rank_in_cluster": 8}

>  <energy>  (74) 
-6.66

>  <cluster_rmsd>  (74) 
0.82

>  <cluster>  (74) 
4

$$$$

     RDKit          3D

 64 67  0  0  0  0  0  0  0  0999 V2000
  140.5270   71.9050  222.5590 C   0  0  0  0  0  0  0  0  0  0  0  0
  141.2860   72.3270  221.2950 C   0  0  0  0  0  0  0  0  0  0  0  0
  141.4050   73.7760  221.1960 C   0  0  0  0  0  0  0  0  0  0  0  0
  140.6640   74.4700  221.9790 O   0  0  0  0  0  0  0  0  0  0  0  0
  142.2430   74.5110  220.3400 N   0  0  0  0  0  0  0  0  0  0  0  0
  143.5770   73.9420  220.1640 C   0  0  0  0  0  0  0  0  0  0  0  0
  143.6250   72.8900  219.2650 C   0  0  0  0  0  0  0  0  0  0  0  0
  144.8400   72.2740  219.0200 C   0  0  0  0  0  0  0  0  0  0  0  0
  145.9450   72.7510  219.6940 C   0  0  0  0  0  0  0  0  0  0  0  0
  145.8820   73.8040  220.5890 C   0  0  0  0  0  0  0  0  0  0  0  0
  144.6570   74.4240  220.8350 C   0  0  0  0  0  0  0  0  0  0  0  0
  141.9520   75.7060  219.6430 C   0  0  0  0  0  0  0  0  0  0  0  0
  142.4720   76.9790  220.3080 C   0  0  0  0  0  0  0  0  0  0  0  0
  141.6300   78.0990  219.6670 C   0  0  0  0  0  0  0  0  0  0  0  0
  141.8280   78.1800  218.2500 N   0  0  0  0  0  0  0  0  0  0  0  0
  142.1180   79.3180  217.4790 C   0  0  0  0  0  0  0  0  0  0  0  0
  142.2480   79.1340  216.2210 O   0  0  0  0  0  0  0  0  0  0  0  0
  142.2960   80.7080  217.9230 C   0  0  1  0  0  0  0  0  0  0  0  0
  143.0580   81.5550  217.0850 N   0  0  0  0  0  0  0  0  0  0  0  0
  140.9610   81.3520  218.3080 C   0  0  1  0  0  0  0  0  0  0  0  0
  139.9130   80.3040  218.4740 C   0  0  0  0  0  0  0  0  0  0  0  0
  138.9930   80.5970  219.6730 C   0  0  0  0  0  0  0  0  0  0  0  0
  139.9460   80.5390  220.8440 C   0  0  0  0  0  0  0  0  0  0  0  0
  139.7090   79.7220  221.9290 C   0  0  0  0  0  0  0  0  0  0  0  0
  140.6440   79.7270  222.9670 C   0  0  0  0  0  0  0  0  0  0  0  0
  141.7720   80.5430  222.8810 C   0  0  0  0  0  0  0  0  0  0  0  0
  142.9280   80.5360  224.1900 Cl  0  0  0  0  0  0  0  0  0  0  0  0
  141.9710   81.3520  221.7700 C   0  0  0  0  0  0  0  0  0  0  0  0
  141.0530   81.3570  220.7350 C   0  0  0  0  0  0  0  0  0  0  0  0
  141.2070   82.2010  219.5220 C   0  0  0  0  0  0  0  0  0  0  0  0
  141.7040   76.9060  217.5300 C   0  0  0  0  0  0  0  0  0  0  0  0
  142.4510   75.7980  218.2240 C   0  0  0  0  0  0  0  0  0  0  0  0
  141.0926   72.2195  223.4485 H   0  0  0  0  0  0  0  0  0  0  0  0
  139.5355   72.3814  222.5676 H   0  0  0  0  0  0  0  0  0  0  0  0
  140.4084   70.8114  222.5676 H   0  0  0  0  0  0  0  0  0  0  0  0
  142.2941   71.8875  221.3211 H   0  0  0  0  0  0  0  0  0  0  0  0
  140.7222   71.9688  220.4210 H   0  0  0  0  0  0  0  0  0  0  0  0
  142.7125   72.5494  218.7539 H   0  0  0  0  0  0  0  0  0  0  0  0
  144.9215   71.4347  218.3136 H   0  0  0  0  0  0  0  0  0  0  0  0
  146.9189   72.2732  219.5118 H   0  0  0  0  0  0  0  0  0  0  0  0
  146.7911   74.1497  221.1028 H   0  0  0  0  0  0  0  0  0  0  0  0
  144.5687   75.2642  221.5394 H   0  0  0  0  0  0  0  0  0  0  0  0
  140.8538   75.6445  219.6596 H   0  0  0  0  0  0  0  0  0  0  0  0
  142.3151   76.9448  221.3962 H   0  0  0  0  0  0  0  0  0  0  0  0
  143.5528   77.1235  220.1632 H   0  0  0  0  0  0  0  0  0  0  0  0
  140.5664   77.9007  219.8655 H   0  0  0  0  0  0  0  0  0  0  0  0
  141.9474   79.0554  220.1081 H   0  0  0  0  0  0  0  0  0  0  0  0
  142.9277   80.6053  218.8177 H   0  0  0  0  0  0  0  0  0  0  0  0
  142.7310   82.5380  216.9940 H   0  0  0  0  0  0  0  0  0  0  0  0
  143.3860   81.1210  216.1960 H   0  0  0  0  0  0  0  0  0  0  0  0
  140.5682   82.0104  217.5192 H   0  0  0  0  0  0  0  0  0  0  0  0
  139.3031   80.2630  217.5595 H   0  0  0  0  0  0  0  0  0  0  0  0
  140.4172   79.3438  218.6578 H   0  0  0  0  0  0  0  0  0  0  0  0
  138.5320   81.5919  219.5856 H   0  0  0  0  0  0  0  0  0  0  0  0
  138.1513   79.8942  219.7597 H   0  0  0  0  0  0  0  0  0  0  0  0
  138.8123   79.0865  221.9759 H   0  0  0  0  0  0  0  0  0  0  0  0
  140.4910   79.0890  223.8499 H   0  0  0  0  0  0  0  0  0  0  0  0
  142.8635   81.9924  221.7126 H   0  0  0  0  0  0  0  0  0  0  0  0
  140.4794   83.0255  219.5503 H   0  0  0  0  0  0  0  0  0  0  0  0
  142.2230   82.6209  219.4851 H   0  0  0  0  0  0  0  0  0  0  0  0
  140.6400   76.6339  217.4679 H   0  0  0  0  0  0  0  0  0  0  0  0
  142.1374   77.0356  216.5273 H   0  0  0  0  0  0  0  0  0  0  0  0
  142.2708   74.8456  217.7040 H   0  0  0  0  0  0  0  0  0  0  0  0
  143.5311   76.0062  218.2153 H   0  0  0  0  0  0  0  0  0  0  0  0
  1  2  1  0
  2  3  1  0
  3  4  2  0
  3  5  1  0
  5  6  1  0
  6  7  2  0
  7  8  1  0
  8  9  2  0
  9 10  1  0
 10 11  2  0
  5 12  1  0
 12 13  1  0
 13 14  1  0
 14 15  1  0
 15 16  1  0
 16 17  2  0
 16 18  1  0
 18 19  1  0
 18 20  1  0
 20 21  1  0
 21 22  1  0
 22 23  1  0
 23 24  2  0
 24 25  1  0
 25 26  2  0
 26 27  1  0
 26 28  1  0
 28 29  2  0
 29 30  1  0
 15 31  1  0
 31 32  1  0
 11  6  1  0
 32 12  1  0
 30 20  1  0
 29 23  1  0
  1 33  1  0
  1 34  1  0
  1 35  1  0
  2 36  1  0
  2 37  1  0
  7 38  1  0
  8 39  1  0
  9 40  1  0
 10 41  1  0
 11 42  1  0
 12 43  1  0
 13 44  1  0
 13 45  1  0
 14 46  1  0
 14 47  1  0
 18 48  1  1
 19 49  1  0
 19 50  1  0
 20 51  1  6
 21 52  1  0
 21 53  1  0
 22 54  1  0
 22 55  1  0
 24 56  1  0
 25 57  1  0
 28 58  1  0
 30 59  1  0
 30 60  1  0
 31 61  1  0
 31 62  1  0
 32 63  1  0
 32 64  1  0
M  END
>  <smiles>  (75) 
CCC(=O)N(c1ccccc1)C1CCN(C(=O)[C@@H](N)C2CCc3ccc(Cl)cc3C2)CC1

>  <score_type>  (75) 
oracle

>  <origin>  (75) 
autodockgpu

>  <m_score__min__energy>  (75) 
-7.6799999999999997

>  <m_primary>  (75) 
energy

>  <rmsd>  (75) 
3.6307358423665956

>  <m_score__min__rmsd>  (75) 
3.6307358423665956

>  <meeko>  (75) 
{"free_energy": -6.91, "intermolecular_energy": -9.0, "internal_energy": -2.52, "cluster_size": 9, "cluster_id": 3, "rank_in_cluster": 5}

>  <energy>  (75) 
-6.65

>  <cluster_rmsd>  (75) 
0.79

>  <cluster>  (75) 
4

$$$$

     RDKit          3D

 64 67  0  0  0  0  0  0  0  0999 V2000
  136.8690   83.2900  221.4380 C   0  0  0  0  0  0  0  0  0  0  0  0
  137.2470   83.9400  222.7730 C   0  0  0  0  0  0  0  0  0  0  0  0
  136.5160   83.3510  223.8870 C   0  0  0  0  0  0  0  0  0  0  0  0
  135.7700   84.1410  224.5680 O   0  0  0  0  0  0  0  0  0  0  0  0
  136.5290   82.0100  224.3090 N   0  0  0  0  0  0  0  0  0  0  0  0
  136.0850   81.8060  225.6860 C   0  0  0  0  0  0  0  0  0  0  0  0
  134.7270   81.5640  225.8090 C   0  0  0  0  0  0  0  0  0  0  0  0
  134.1970   81.3560  227.0710 C   0  0  0  0  0  0  0  0  0  0  0  0
  135.0630   81.4010  228.1430 C   0  0  0  0  0  0  0  0  0  0  0  0
  136.4190   81.6430  228.0050 C   0  0  0  0  0  0  0  0  0  0  0  0
  136.9520   81.8530  226.7330 C   0  0  0  0  0  0  0  0  0  0  0  0
  136.9060   80.8640  223.5740 C   0  0  0  0  0  0  0  0  0  0  0  0
  138.2780   80.2970  223.9300 C   0  0  0  0  0  0  0  0  0  0  0  0
  138.6460   79.4290  222.7110 C   0  0  0  0  0  0  0  0  0  0  0  0
  137.7170   78.3560  222.5110 N   0  0  0  0  0  0  0  0  0  0  0  0
  137.9970   76.9930  222.3150 C   0  0  0  0  0  0  0  0  0  0  0  0
  136.9900   76.2240  222.1560 O   0  0  0  0  0  0  0  0  0  0  0  0
  139.3040   76.3210  222.2670 C   0  0  1  0  0  0  0  0  0  0  0  0
  139.3270   74.9450  222.5940 N   0  0  0  0  0  0  0  0  0  0  0  0
  140.0320   76.5970  220.9480 C   0  0  1  0  0  0  0  0  0  0  0  0
  139.2740   77.5980  220.1420 C   0  0  0  0  0  0  0  0  0  0  0  0
  140.2110   78.6020  219.4450 C   0  0  0  0  0  0  0  0  0  0  0  0
  140.8750   79.2990  220.6090 C   0  0  0  0  0  0  0  0  0  0  0  0
  140.8620   80.6710  220.7320 C   0  0  0  0  0  0  0  0  0  0  0  0
  141.4970   81.2340  221.8420 C   0  0  0  0  0  0  0  0  0  0  0  0
  142.1170   80.4080  222.7790 C   0  0  0  0  0  0  0  0  0  0  0  0
  142.9070   81.1300  224.1590 Cl  0  0  0  0  0  0  0  0  0  0  0  0
  142.1080   79.0290  222.6160 C   0  0  0  0  0  0  0  0  0  0  0  0
  141.4830   78.4590  221.5220 C   0  0  0  0  0  0  0  0  0  0  0  0
  141.4400   76.9920  221.2880 C   0  0  0  0  0  0  0  0  0  0  0  0
  136.3020   78.7480  222.5120 C   0  0  0  0  0  0  0  0  0  0  0  0
  135.9810   79.6770  223.6540 C   0  0  0  0  0  0  0  0  0  0  0  0
  136.3243   82.3533  221.6275 H   0  0  0  0  0  0  0  0  0  0  0  0
  136.2293   83.9765  220.8640 H   0  0  0  0  0  0  0  0  0  0  0  0
  137.7821   83.0735  220.8640 H   0  0  0  0  0  0  0  0  0  0  0  0
  138.3253   83.8038  222.9428 H   0  0  0  0  0  0  0  0  0  0  0  0
  136.9872   85.0075  222.7195 H   0  0  0  0  0  0  0  0  0  0  0  0
  134.0806   81.5375  224.9194 H   0  0  0  0  0  0  0  0  0  0  0  0
  133.1237   81.1618  227.2133 H   0  0  0  0  0  0  0  0  0  0  0  0
  134.6584   81.2373  229.1527 H   0  0  0  0  0  0  0  0  0  0  0  0
  137.0707   81.6695  228.8908 H   0  0  0  0  0  0  0  0  0  0  0  0
  138.0243   82.0477  226.5836 H   0  0  0  0  0  0  0  0  0  0  0  0
  136.8834   81.2995  222.5641 H   0  0  0  0  0  0  0  0  0  0  0  0
  139.0111   81.1049  224.0712 H   0  0  0  0  0  0  0  0  0  0  0  0
  138.2712   79.7271  224.8709 H   0  0  0  0  0  0  0  0  0  0  0  0
  138.6527   80.0640  221.8128 H   0  0  0  0  0  0  0  0  0  0  0  0
  139.6366   78.9883  222.8966 H   0  0  0  0  0  0  0  0  0  0  0  0
  139.8558   76.7871  223.0966 H   0  0  0  0  0  0  0  0  0  0  0  0
  140.0010   74.3520  222.0680 H   0  0  0  0  0  0  0  0  0  0  0  0
  138.3940   74.5100  222.7500 H   0  0  0  0  0  0  0  0  0  0  0  0
  140.0857   75.7080  220.3024 H   0  0  0  0  0  0  0  0  0  0  0  0
  138.6879   77.0681  219.3767 H   0  0  0  0  0  0  0  0  0  0  0  0
  138.6191   78.1598  220.8243 H   0  0  0  0  0  0  0  0  0  0  0  0
  140.9516   78.0840  218.8179 H   0  0  0  0  0  0  0  0  0  0  0  0
  139.6863   79.2899  218.7657 H   0  0  0  0  0  0  0  0  0  0  0  0
  140.3673   81.3034  219.9801 H   0  0  0  0  0  0  0  0  0  0  0  0
  141.5078   82.3257  221.9764 H   0  0  0  0  0  0  0  0  0  0  0  0
  142.6006   78.3867  223.3609 H   0  0  0  0  0  0  0  0  0  0  0  0
  142.1087   76.7309  220.4545 H   0  0  0  0  0  0  0  0  0  0  0  0
  141.7693   76.4596  222.1925 H   0  0  0  0  0  0  0  0  0  0  0  0
  136.0724   79.2563  221.5639 H   0  0  0  0  0  0  0  0  0  0  0  0
  135.6947   77.8384  222.6293 H   0  0  0  0  0  0  0  0  0  0  0  0
  134.9366   80.0137  223.5771 H   0  0  0  0  0  0  0  0  0  0  0  0
  136.1146   79.1570  224.6141 H   0  0  0  0  0  0  0  0  0  0  0  0
  1  2  1  0
  2  3  1  0
  3  4  2  0
  3  5  1  0
  5  6  1  0
  6  7  2  0
  7  8  1  0
  8  9  2  0
  9 10  1  0
 10 11  2  0
  5 12  1  0
 12 13  1  0
 13 14  1  0
 14 15  1  0
 15 16  1  0
 16 17  2  0
 16 18  1  0
 18 19  1  0
 18 20  1  0
 20 21  1  0
 21 22  1  0
 22 23  1  0
 23 24  2  0
 24 25  1  0
 25 26  2  0
 26 27  1  0
 26 28  1  0
 28 29  2  0
 29 30  1  0
 15 31  1  0
 31 32  1  0
 11  6  1  0
 32 12  1  0
 30 20  1  0
 29 23  1  0
  1 33  1  0
  1 34  1  0
  1 35  1  0
  2 36  1  0
  2 37  1  0
  7 38  1  0
  8 39  1  0
  9 40  1  0
 10 41  1  0
 11 42  1  0
 12 43  1  0
 13 44  1  0
 13 45  1  0
 14 46  1  0
 14 47  1  0
 18 48  1  1
 19 49  1  0
 19 50  1  0
 20 51  1  6
 21 52  1  0
 21 53  1  0
 22 54  1  0
 22 55  1  0
 24 56  1  0
 25 57  1  0
 28 58  1  0
 30 59  1  0
 30 60  1  0
 31 61  1  0
 31 62  1  0
 32 63  1  0
 32 64  1  0
M  END
>  <smiles>  (76) 
CCC(=O)N(c1ccccc1)C1CCN(C(=O)[C@@H](N)C2CCc3ccc(Cl)cc3C2)CC1

>  <score_type>  (76) 
oracle

>  <origin>  (76) 
autodockgpu

>  <m_score__min__energy>  (76) 
-7.6799999999999997

>  <m_primary>  (76) 
energy

>  <rmsd>  (76) 
6.047308442000042

>  <m_score__min__rmsd>  (76) 
6.047308442000042

>  <meeko>  (76) 
{"free_energy": -6.59, "intermolecular_energy": -8.68, "internal_energy": -2.8, "cluster_size": 17, "cluster_id": 4, "rank_in_cluster": 17}

>  <energy>  (76) 
-6.64

>  <cluster_rmsd>  (76) 
0.73

>  <cluster>  (76) 
4

$$$$

     RDKit          3D

 64 67  0  0  0  0  0  0  0  0999 V2000
  140.4630   71.8630  222.4960 C   0  0  0  0  0  0  0  0  0  0  0  0
  141.4260   72.3100  221.3910 C   0  0  0  0  0  0  0  0  0  0  0  0
  141.4130   73.7560  221.2150 C   0  0  0  0  0  0  0  0  0  0  0  0
  140.6410   74.4240  221.9910 O   0  0  0  0  0  0  0  0  0  0  0  0
  142.1530   74.5160  220.2920 N   0  0  0  0  0  0  0  0  0  0  0  0
  143.4550   73.9500  219.9500 C   0  0  0  0  0  0  0  0  0  0  0  0
  144.4630   74.2760  220.8420 C   0  0  0  0  0  0  0  0  0  0  0  0
  145.7400   73.7930  220.6140 C   0  0  0  0  0  0  0  0  0  0  0  0
  145.9360   73.0050  219.5000 C   0  0  0  0  0  0  0  0  0  0  0  0
  144.9190   72.6880  218.6160 C   0  0  0  0  0  0  0  0  0  0  0  0
  143.6320   73.1750  218.8460 C   0  0  0  0  0  0  0  0  0  0  0  0
  141.7910   75.7320  219.6680 C   0  0  0  0  0  0  0  0  0  0  0  0
  142.6170   76.9420  220.0960 C   0  0  0  0  0  0  0  0  0  0  0  0
  141.7430   78.1460  219.6940 C   0  0  0  0  0  0  0  0  0  0  0  0
  141.5100   78.1960  218.2800 N   0  0  0  0  0  0  0  0  0  0  0  0
  141.6700   79.2890  217.4140 C   0  0  0  0  0  0  0  0  0  0  0  0
  141.3940   79.0850  216.1830 O   0  0  0  0  0  0  0  0  0  0  0  0
  142.1180   80.6540  217.7290 C   0  0  1  0  0  0  0  0  0  0  0  0
  142.9510   81.2890  216.7790 N   0  0  0  0  0  0  0  0  0  0  0  0
  140.9470   81.5520  218.1380 C   0  0  1  0  0  0  0  0  0  0  0  0
  139.7250   80.7280  218.3720 C   0  0  0  0  0  0  0  0  0  0  0  0
  138.9260   81.2220  219.5920 C   0  0  0  0  0  0  0  0  0  0  0  0
  139.8950   81.0110  220.7310 C   0  0  0  0  0  0  0  0  0  0  0  0
  139.5490   80.2820  221.8480 C   0  0  0  0  0  0  0  0  0  0  0  0
  140.5070   80.1320  222.8540 C   0  0  0  0  0  0  0  0  0  0  0  0
  141.7660   80.7140  222.7050 C   0  0  0  0  0  0  0  0  0  0  0  0
  142.9500   80.5170  223.9730 Cl  0  0  0  0  0  0  0  0  0  0  0  0
  142.0720   81.4430  221.5630 C   0  0  0  0  0  0  0  0  0  0  0  0
  141.1330   81.5980  220.5600 C   0  0  0  0  0  0  0  0  0  0  0  0
  141.3980   82.3670  219.3160 C   0  0  0  0  0  0  0  0  0  0  0  0
  141.0420   76.9390  217.6810 C   0  0  0  0  0  0  0  0  0  0  0  0
  141.8440   75.7580  218.1620 C   0  0  0  0  0  0  0  0  0  0  0  0
  140.9109   72.0709  223.4789 H   0  0  0  0  0  0  0  0  0  0  0  0
  139.5153   72.4133  222.4011 H   0  0  0  0  0  0  0  0  0  0  0  0
  140.2715   70.7839  222.4011 H   0  0  0  0  0  0  0  0  0  0  0  0
  142.4451   71.9928  221.6570 H   0  0  0  0  0  0  0  0  0  0  0  0
  141.1019   71.8475  220.4470 H   0  0  0  0  0  0  0  0  0  0  0  0
  144.2523   74.9083  221.7171 H   0  0  0  0  0  0  0  0  0  0  0  0
  146.5689   74.0295  221.2974 H   0  0  0  0  0  0  0  0  0  0  0  0
  146.9444   72.6110  219.3051 H   0  0  0  0  0  0  0  0  0  0  0  0
  145.1241   72.0568  217.7387 H   0  0  0  0  0  0  0  0  0  0  0  0
  142.7989   72.9431  218.1661 H   0  0  0  0  0  0  0  0  0  0  0  0
  140.7491   75.7946  220.0153 H   0  0  0  0  0  0  0  0  0  0  0  0
  142.7937   76.9314  221.1817 H   0  0  0  0  0  0  0  0  0  0  0  0
  143.6122   76.9642  219.6279 H   0  0  0  0  0  0  0  0  0  0  0  0
  140.7748   78.0694  220.2104 H   0  0  0  0  0  0  0  0  0  0  0  0
  142.2776   79.0633  219.9816 H   0  0  0  0  0  0  0  0  0  0  0  0
  142.7861   80.5046  218.5900 H   0  0  0  0  0  0  0  0  0  0  0  0
  142.9500   80.8900  215.8180 H   0  0  0  0  0  0  0  0  0  0  0  0
  143.8900   81.5740  217.1310 H   0  0  0  0  0  0  0  0  0  0  0  0
  140.6567   82.2547  217.3431 H   0  0  0  0  0  0  0  0  0  0  0  0
  139.0830   80.7823  217.4804 H   0  0  0  0  0  0  0  0  0  0  0  0
  140.0432   79.6935  218.5683 H   0  0  0  0  0  0  0  0  0  0  0  0
  138.6606   82.2845  219.4886 H   0  0  0  0  0  0  0  0  0  0  0  0
  137.9696   80.6963  219.7295 H   0  0  0  0  0  0  0  0  0  0  0  0
  138.5498   79.8322  221.9447 H   0  0  0  0  0  0  0  0  0  0  0  0
  140.2691   79.5567  223.7609 H   0  0  0  0  0  0  0  0  0  0  0  0
  143.0670   81.8996  221.4559 H   0  0  0  0  0  0  0  0  0  0  0  0
  140.8431   83.3164  219.3429 H   0  0  0  0  0  0  0  0  0  0  0  0
  142.4734   82.5825  219.2317 H   0  0  0  0  0  0  0  0  0  0  0  0
  139.9867   76.7868  217.9515 H   0  0  0  0  0  0  0  0  0  0  0  0
  141.1635   77.0137  216.5903 H   0  0  0  0  0  0  0  0  0  0  0  0
  141.4159   74.8285  217.7586 H   0  0  0  0  0  0  0  0  0  0  0  0
  142.8863   75.8433  217.8208 H   0  0  0  0  0  0  0  0  0  0  0  0
  1  2  1  0
  2  3  1  0
  3  4  2  0
  3  5  1  0
  5  6  1  0
  6  7  2  0
  7  8  1  0
  8  9  2  0
  9 10  1  0
 10 11  2  0
  5 12  1  0
 12 13  1  0
 13 14  1  0
 14 15  1  0
 15 16  1  0
 16 17  2  0
 16 18  1  0
 18 19  1  0
 18 20  1  0
 20 21  1  0
 21 22  1  0
 22 23  1  0
 23 24  2  0
 24 25  1  0
 25 26  2  0
 26 27  1  0
 26 28  1  0
 28 29  2  0
 29 30  1  0
 15 31  1  0
 31 32  1  0
 11  6  1  0
 32 12  1  0
 30 20  1  0
 29 23  1  0
  1 33  1  0
  1 34  1  0
  1 35  1  0
  2 36  1  0
  2 37  1  0
  7 38  1  0
  8 39  1  0
  9 40  1  0
 10 41  1  0
 11 42  1  0
 12 43  1  0
 13 44  1  0
 13 45  1  0
 14 46  1  0
 14 47  1  0
 18 48  1  1
 19 49  1  0
 19 50  1  0
 20 51  1  6
 21 52  1  0
 21 53  1  0
 22 54  1  0
 22 55  1  0
 24 56  1  0
 25 57  1  0
 28 58  1  0
 30 59  1  0
 30 60  1  0
 31 61  1  0
 31 62  1  0
 32 63  1  0
 32 64  1  0
M  END
>  <smiles>  (77) 
CCC(=O)N(c1ccccc1)C1CCN(C(=O)[C@@H](N)C2CCc3ccc(Cl)cc3C2)CC1

>  <score_type>  (77) 
oracle

>  <origin>  (77) 
autodockgpu

>  <m_score__min__energy>  (77) 
-7.6799999999999997

>  <m_primary>  (77) 
energy

>  <rmsd>  (77) 
3.681790716095114

>  <m_score__min__rmsd>  (77) 
3.681790716095114

>  <meeko>  (77) 
{"free_energy": -7.02, "intermolecular_energy": -9.11, "internal_energy": -2.57, "cluster_size": 9, "cluster_id": 3, "rank_in_cluster": 1}

>  <energy>  (77) 
-6.63

>  <cluster_rmsd>  (77) 
0.63

>  <cluster>  (77) 
4

$$$$

     RDKit          3D

 64 67  0  0  0  0  0  0  0  0999 V2000
  138.1690   83.2840  222.0070 C   0  0  0  0  0  0  0  0  0  0  0  0
  136.8520   83.8300  222.5680 C   0  0  0  0  0  0  0  0  0  0  0  0
  136.5660   83.2940  223.8930 C   0  0  0  0  0  0  0  0  0  0  0  0
  136.3350   84.1470  224.8220 O   0  0  0  0  0  0  0  0  0  0  0  0
  136.5110   81.9440  224.2800 N   0  0  0  0  0  0  0  0  0  0  0  0
  135.9860   81.7210  225.6240 C   0  0  0  0  0  0  0  0  0  0  0  0
  136.9400   81.8160  226.6240 C   0  0  0  0  0  0  0  0  0  0  0  0
  136.5520   81.6220  227.9390 C   0  0  0  0  0  0  0  0  0  0  0  0
  135.2230   81.3440  228.1780 C   0  0  0  0  0  0  0  0  0  0  0  0
  134.2810   81.2520  227.1690 C   0  0  0  0  0  0  0  0  0  0  0  0
  134.6720   81.4470  225.8440 C   0  0  0  0  0  0  0  0  0  0  0  0
  136.8910   80.8030  223.5360 C   0  0  0  0  0  0  0  0  0  0  0  0
  138.2660   80.2390  223.8860 C   0  0  0  0  0  0  0  0  0  0  0  0
  138.6340   79.3800  222.6610 C   0  0  0  0  0  0  0  0  0  0  0  0
  137.7090   78.3050  222.4560 N   0  0  0  0  0  0  0  0  0  0  0  0
  137.9920   76.9450  222.2500 C   0  0  0  0  0  0  0  0  0  0  0  0
  136.9870   76.1730  222.0880 O   0  0  0  0  0  0  0  0  0  0  0  0
  139.3020   76.2770  222.1950 C   0  0  1  0  0  0  0  0  0  0  0  0
  139.3280   74.8960  222.4970 N   0  0  0  0  0  0  0  0  0  0  0  0
  140.0330   76.5790  220.8830 C   0  0  1  0  0  0  0  0  0  0  0  0
  139.2820   77.6020  220.1000 C   0  0  0  0  0  0  0  0  0  0  0  0
  140.2260   78.6160  219.4270 C   0  0  0  0  0  0  0  0  0  0  0  0
  140.8920   79.2830  220.6070 C   0  0  0  0  0  0  0  0  0  0  0  0
  140.8860   80.6530  220.7610 C   0  0  0  0  0  0  0  0  0  0  0  0
  141.5220   81.1860  221.8850 C   0  0  0  0  0  0  0  0  0  0  0  0
  142.1360   80.3360  222.8040 C   0  0  0  0  0  0  0  0  0  0  0  0
  142.9280   81.0230  224.2010 Cl  0  0  0  0  0  0  0  0  0  0  0  0
  142.1200   78.9610  222.6100 C   0  0  0  0  0  0  0  0  0  0  0  0
  141.4930   78.4200  221.5020 C   0  0  0  0  0  0  0  0  0  0  0  0
  141.4430   76.9580  221.2350 C   0  0  0  0  0  0  0  0  0  0  0  0
  136.2920   78.6920  222.4630 C   0  0  0  0  0  0  0  0  0  0  0  0
  135.9700   79.6120  223.6100 C   0  0  0  0  0  0  0  0  0  0  0  0
  138.8350   83.0079  222.8378 H   0  0  0  0  0  0  0  0  0  0  0  0
  137.9648   82.3964  221.3902 H   0  0  0  0  0  0  0  0  0  0  0  0
  138.6528   84.0557  221.3902 H   0  0  0  0  0  0  0  0  0  0  0  0
  136.9200   84.9259  222.6340 H   0  0  0  0  0  0  0  0  0  0  0  0
  136.0393   83.5250  221.8924 H   0  0  0  0  0  0  0  0  0  0  0  0
  137.9880   82.0417  226.3776 H   0  0  0  0  0  0  0  0  0  0  0  0
  137.2778   81.6873  228.7630 H   0  0  0  0  0  0  0  0  0  0  0  0
  134.8972   81.1884  229.2170 H   0  0  0  0  0  0  0  0  0  0  0  0
  133.2315   81.0268  227.4096 H   0  0  0  0  0  0  0  0  0  0  0  0
  133.9511   81.3822  225.0157 H   0  0  0  0  0  0  0  0  0  0  0  0
  136.8649   81.2445  222.5288 H   0  0  0  0  0  0  0  0  0  0  0  0
  138.9964   81.0487  224.0305 H   0  0  0  0  0  0  0  0  0  0  0  0
  138.2636   79.6637  224.8236 H   0  0  0  0  0  0  0  0  0  0  0  0
  138.6363   80.0207  221.7669 H   0  0  0  0  0  0  0  0  0  0  0  0
  139.6265   78.9415  222.8419 H   0  0  0  0  0  0  0  0  0  0  0  0
  139.8497   76.7289  223.0352 H   0  0  0  0  0  0  0  0  0  0  0  0
  139.9370   74.3000  221.9010 H   0  0  0  0  0  0  0  0  0  0  0  0
  138.4040   74.4760  222.7340 H   0  0  0  0  0  0  0  0  0  0  0  0
  140.0825   75.7055  220.2163 H   0  0  0  0  0  0  0  0  0  0  0  0
  138.6935   77.0933  219.3223 H   0  0  0  0  0  0  0  0  0  0  0  0
  138.6296   78.1519  220.7943 H   0  0  0  0  0  0  0  0  0  0  0  0
  140.9646   78.1079  218.7896 H   0  0  0  0  0  0  0  0  0  0  0  0
  139.7063   79.3219  218.7625 H   0  0  0  0  0  0  0  0  0  0  0  0
  140.3964   81.3053  220.0229 H   0  0  0  0  0  0  0  0  0  0  0  0
  141.5383   82.2742  222.0446 H   0  0  0  0  0  0  0  0  0  0  0  0
  142.6080   78.2992  223.3406 H   0  0  0  0  0  0  0  0  0  0  0  0
  142.1122   76.7119  220.3974 H   0  0  0  0  0  0  0  0  0  0  0  0
  141.7676   76.4034  222.1278 H   0  0  0  0  0  0  0  0  0  0  0  0
  136.0583   79.2051  221.5185 H   0  0  0  0  0  0  0  0  0  0  0  0
  135.6886   77.7793  222.5767 H   0  0  0  0  0  0  0  0  0  0  0  0
  134.9244   79.9456  223.5367 H   0  0  0  0  0  0  0  0  0  0  0  0
  136.1070   79.0865  224.5666 H   0  0  0  0  0  0  0  0  0  0  0  0
  1  2  1  0
  2  3  1  0
  3  4  2  0
  3  5  1  0
  5  6  1  0
  6  7  2  0
  7  8  1  0
  8  9  2  0
  9 10  1  0
 10 11  2  0
  5 12  1  0
 12 13  1  0
 13 14  1  0
 14 15  1  0
 15 16  1  0
 16 17  2  0
 16 18  1  0
 18 19  1  0
 18 20  1  0
 20 21  1  0
 21 22  1  0
 22 23  1  0
 23 24  2  0
 24 25  1  0
 25 26  2  0
 26 27  1  0
 26 28  1  0
 28 29  2  0
 29 30  1  0
 15 31  1  0
 31 32  1  0
 11  6  1  0
 32 12  1  0
 30 20  1  0
 29 23  1  0
  1 33  1  0
  1 34  1  0
  1 35  1  0
  2 36  1  0
  2 37  1  0
  7 38  1  0
  8 39  1  0
  9 40  1  0
 10 41  1  0
 11 42  1  0
 12 43  1  0
 13 44  1  0
 13 45  1  0
 14 46  1  0
 14 47  1  0
 18 48  1  1
 19 49  1  0
 19 50  1  0
 20 51  1  6
 21 52  1  0
 21 53  1  0
 22 54  1  0
 22 55  1  0
 24 56  1  0
 25 57  1  0
 28 58  1  0
 30 59  1  0
 30 60  1  0
 31 61  1  0
 31 62  1  0
 32 63  1  0
 32 64  1  0
M  END
>  <smiles>  (78) 
CCC(=O)N(c1ccccc1)C1CCN(C(=O)[C@@H](N)C2CCc3ccc(Cl)cc3C2)CC1

>  <score_type>  (78) 
oracle

>  <origin>  (78) 
autodockgpu

>  <m_score__min__energy>  (78) 
-7.6799999999999997

>  <m_primary>  (78) 
energy

>  <rmsd>  (78) 
6.030553948525147

>  <m_score__min__rmsd>  (78) 
6.030553948525147

>  <meeko>  (78) 
{"free_energy": -6.74, "intermolecular_energy": -8.83, "internal_energy": -2.81, "cluster_size": 17, "cluster_id": 4, "rank_in_cluster": 7}

>  <energy>  (78) 
-6.61

>  <cluster_rmsd>  (78) 
0.74

>  <cluster>  (78) 
4

$$$$

     RDKit          3D

 64 67  0  0  0  0  0  0  0  0999 V2000
  134.7620   85.1440  225.1880 C   0  0  0  0  0  0  0  0  0  0  0  0
  136.2530   84.7950  225.2510 C   0  0  0  0  0  0  0  0  0  0  0  0
  136.5850   83.6830  224.3700 C   0  0  0  0  0  0  0  0  0  0  0  0
  136.9450   83.9820  223.1760 O   0  0  0  0  0  0  0  0  0  0  0  0
  136.5610   82.3100  224.6730 N   0  0  0  0  0  0  0  0  0  0  0  0
  136.0540   81.9940  226.0060 C   0  0  0  0  0  0  0  0  0  0  0  0
  134.6930   81.7410  226.0450 C   0  0  0  0  0  0  0  0  0  0  0  0
  134.1040   81.4310  227.2590 C   0  0  0  0  0  0  0  0  0  0  0  0
  134.9180   81.3900  228.3710 C   0  0  0  0  0  0  0  0  0  0  0  0
  136.2780   81.6450  228.3170 C   0  0  0  0  0  0  0  0  0  0  0  0
  136.8700   81.9580  227.0940 C   0  0  0  0  0  0  0  0  0  0  0  0
  136.9560   81.2260  223.8570 C   0  0  0  0  0  0  0  0  0  0  0  0
  138.1820   80.4640  224.3530 C   0  0  0  0  0  0  0  0  0  0  0  0
  138.6810   79.7140  223.1030 C   0  0  0  0  0  0  0  0  0  0  0  0
  137.7070   78.7890  222.6030 N   0  0  0  0  0  0  0  0  0  0  0  0
  137.8880   77.4370  222.2660 C   0  0  0  0  0  0  0  0  0  0  0  0
  136.8590   76.8150  221.8350 O   0  0  0  0  0  0  0  0  0  0  0  0
  139.1140   76.6280  222.3420 C   0  0  1  0  0  0  0  0  0  0  0  0
  138.9600   75.2650  222.6860 N   0  0  0  0  0  0  0  0  0  0  0  0
  139.9790   76.7970  221.0890 C   0  0  1  0  0  0  0  0  0  0  0  0
  139.3240   77.7370  220.1350 C   0  0  0  0  0  0  0  0  0  0  0  0
  140.3420   78.6770  219.4650 C   0  0  0  0  0  0  0  0  0  0  0  0
  140.8910   79.4590  220.6350 C   0  0  0  0  0  0  0  0  0  0  0  0
  140.8850   80.8370  220.6510 C   0  0  0  0  0  0  0  0  0  0  0  0
  141.4080   81.4800  221.7750 C   0  0  0  0  0  0  0  0  0  0  0  0
  141.9160   80.7250  222.8330 C   0  0  0  0  0  0  0  0  0  0  0  0
  142.5680   81.5480  224.2290 Cl  0  0  0  0  0  0  0  0  0  0  0  0
  141.9040   79.3380  222.7750 C   0  0  0  0  0  0  0  0  0  0  0  0
  141.3880   78.6890  221.6680 C   0  0  0  0  0  0  0  0  0  0  0  0
  141.3500   77.2080  221.5450 C   0  0  0  0  0  0  0  0  0  0  0  0
  136.3580   79.3400  222.4240 C   0  0  0  0  0  0  0  0  0  0  0  0
  135.9240   80.1540  223.6150 C   0  0  0  0  0  0  0  0  0  0  0  0
  134.3638   85.2372  226.2091 H   0  0  0  0  0  0  0  0  0  0  0  0
  134.6307   86.0971  224.6548 H   0  0  0  0  0  0  0  0  0  0  0  0
  134.2213   84.3481  224.6548 H   0  0  0  0  0  0  0  0  0  0  0  0
  136.8382   85.6760  224.9487 H   0  0  0  0  0  0  0  0  0  0  0  0
  136.4917   84.4975  226.2828 H   0  0  0  0  0  0  0  0  0  0  0  0
  134.0897   81.7856  225.1263 H   0  0  0  0  0  0  0  0  0  0  0  0
  133.0261   81.2250  227.3336 H   0  0  0  0  0  0  0  0  0  0  0  0
  134.4673   81.1439  229.3438 H   0  0  0  0  0  0  0  0  0  0  0  0
  136.8868   81.6010  229.2321 H   0  0  0  0  0  0  0  0  0  0  0  0
  137.9470   82.1662  227.0126 H   0  0  0  0  0  0  0  0  0  0  0  0
  137.1573   81.7806  222.9286 H   0  0  0  0  0  0  0  0  0  0  0  0
  138.9499   81.1577  224.7260 H   0  0  0  0  0  0  0  0  0  0  0  0
  137.9523   79.7885  225.1902 H   0  0  0  0  0  0  0  0  0  0  0  0
  138.9089   80.4484  222.3164 H   0  0  0  0  0  0  0  0  0  0  0  0
  139.5764   79.1416  223.3871 H   0  0  0  0  0  0  0  0  0  0  0  0
  139.6388   77.0496  223.2120 H   0  0  0  0  0  0  0  0  0  0  0  0
  137.9880   74.8920  222.6900 H   0  0  0  0  0  0  0  0  0  0  0  0
  139.5560   74.9360  223.4750 H   0  0  0  0  0  0  0  0  0  0  0  0
  140.0867   75.8611  220.5212 H   0  0  0  0  0  0  0  0  0  0  0  0
  138.8123   77.1534  219.3555 H   0  0  0  0  0  0  0  0  0  0  0  0
  138.6108   78.3546  220.7006 H   0  0  0  0  0  0  0  0  0  0  0  0
  141.1364   78.1071  218.9609 H   0  0  0  0  0  0  0  0  0  0  0  0
  139.9008   79.3127  218.6832 H   0  0  0  0  0  0  0  0  0  0  0  0
  140.4809   81.4124  219.8050 H   0  0  0  0  0  0  0  0  0  0  0  0
  141.4195   82.5787  221.8262 H   0  0  0  0  0  0  0  0  0  0  0  0
  142.3071   78.7519  223.6141 H   0  0  0  0  0  0  0  0  0  0  0  0
  142.0988   76.8784  220.8097 H   0  0  0  0  0  0  0  0  0  0  0  0
  141.5757   76.7455  222.5172 H   0  0  0  0  0  0  0  0  0  0  0  0
  136.3515   79.9831  221.5316 H   0  0  0  0  0  0  0  0  0  0  0  0
  135.6575   78.4995  222.3105 H   0  0  0  0  0  0  0  0  0  0  0  0
  134.9469   80.6171  223.4129 H   0  0  0  0  0  0  0  0  0  0  0  0
  135.8321   79.5093  224.5015 H   0  0  0  0  0  0  0  0  0  0  0  0
  1  2  1  0
  2  3  1  0
  3  4  2  0
  3  5  1  0
  5  6  1  0
  6  7  2  0
  7  8  1  0
  8  9  2  0
  9 10  1  0
 10 11  2  0
  5 12  1  0
 12 13  1  0
 13 14  1  0
 14 15  1  0
 15 16  1  0
 16 17  2  0
 16 18  1  0
 18 19  1  0
 18 20  1  0
 20 21  1  0
 21 22  1  0
 22 23  1  0
 23 24  2  0
 24 25  1  0
 25 26  2  0
 26 27  1  0
 26 28  1  0
 28 29  2  0
 29 30  1  0
 15 31  1  0
 31 32  1  0
 11  6  1  0
 32 12  1  0
 30 20  1  0
 29 23  1  0
  1 33  1  0
  1 34  1  0
  1 35  1  0
  2 36  1  0
  2 37  1  0
  7 38  1  0
  8 39  1  0
  9 40  1  0
 10 41  1  0
 11 42  1  0
 12 43  1  0
 13 44  1  0
 13 45  1  0
 14 46  1  0
 14 47  1  0
 18 48  1  1
 19 49  1  0
 19 50  1  0
 20 51  1  6
 21 52  1  0
 21 53  1  0
 22 54  1  0
 22 55  1  0
 24 56  1  0
 25 57  1  0
 28 58  1  0
 30 59  1  0
 30 60  1  0
 31 61  1  0
 31 62  1  0
 32 63  1  0
 32 64  1  0
M  END
>  <smiles>  (79) 
CCC(=O)N(c1ccccc1)C1CCN(C(=O)[C@@H](N)C2CCc3ccc(Cl)cc3C2)CC1

>  <score_type>  (79) 
oracle

>  <origin>  (79) 
autodockgpu

>  <m_score__min__energy>  (79) 
-7.6799999999999997

>  <m_primary>  (79) 
energy

>  <rmsd>  (79) 
6.176000897208333

>  <m_score__min__rmsd>  (79) 
6.176000897208333

>  <meeko>  (79) 
{"free_energy": -6.79, "intermolecular_energy": -8.87, "internal_energy": -2.79, "cluster_size": 17, "cluster_id": 4, "rank_in_cluster": 5}

>  <energy>  (79) 
-6.61

>  <cluster_rmsd>  (79) 
0.7

>  <cluster>  (79) 
4

$$$$

     RDKit          3D

 64 67  0  0  0  0  0  0  0  0999 V2000
  142.7740   75.2270  220.1000 C   0  0  0  0  0  0  0  0  0  0  0  0
  142.7030   76.7220  219.7680 C   0  0  0  0  0  0  0  0  0  0  0  0
  141.3700   77.2630  219.9970 C   0  0  0  0  0  0  0  0  0  0  0  0
  140.6730   77.5380  218.9570 O   0  0  0  0  0  0  0  0  0  0  0  0
  140.7480   77.5210  221.2320 N   0  0  0  0  0  0  0  0  0  0  0  0
  141.3540   78.6070  221.9980 C   0  0  0  0  0  0  0  0  0  0  0  0
  141.6470   79.7320  221.2450 C   0  0  0  0  0  0  0  0  0  0  0  0
  142.2250   80.8230  221.8700 C   0  0  0  0  0  0  0  0  0  0  0  0
  142.4760   80.7260  223.2230 C   0  0  0  0  0  0  0  0  0  0  0  0
  142.1770   79.5950  223.9630 C   0  0  0  0  0  0  0  0  0  0  0  0
  141.5960   78.4950  223.3320 C   0  0  0  0  0  0  0  0  0  0  0  0
  139.6300   76.8720  221.8020 C   0  0  0  0  0  0  0  0  0  0  0  0
  138.4110   77.7660  222.0170 C   0  0  0  0  0  0  0  0  0  0  0  0
  137.5710   76.9990  223.0560 C   0  0  0  0  0  0  0  0  0  0  0  0
  137.1500   75.7170  222.5730 N   0  0  0  0  0  0  0  0  0  0  0  0
  135.8580   75.1660  222.5890 C   0  0  0  0  0  0  0  0  0  0  0  0
  135.7340   73.9930  222.0980 O   0  0  0  0  0  0  0  0  0  0  0  0
  134.6130   75.7580  223.1000 C   0  0  1  0  0  0  0  0  0  0  0  0
  133.4460   74.9630  223.0180 N   0  0  0  0  0  0  0  0  0  0  0  0
  134.7990   76.3380  224.5050 C   0  0  1  0  0  0  0  0  0  0  0  0
  133.5090   76.8900  225.0090 C   0  0  0  0  0  0  0  0  0  0  0  0
  133.2970   76.5800  226.5020 C   0  0  0  0  0  0  0  0  0  0  0  0
  133.2350   75.0700  226.5220 C   0  0  0  0  0  0  0  0  0  0  0  0
  132.1730   74.3980  227.0880 C   0  0  0  0  0  0  0  0  0  0  0  0
  132.1940   73.0020  227.0600 C   0  0  0  0  0  0  0  0  0  0  0  0
  133.2690   72.3350  226.4710 C   0  0  0  0  0  0  0  0  0  0  0  0
  133.2780   70.5890  226.4460 Cl  0  0  0  0  0  0  0  0  0  0  0  0
  134.3200   73.0530  225.9120 C   0  0  0  0  0  0  0  0  0  0  0  0
  134.3110   74.4350  225.9340 C   0  0  0  0  0  0  0  0  0  0  0  0
  135.4050   75.2600  225.3570 C   0  0  0  0  0  0  0  0  0  0  0  0
  138.2160   74.8890  221.9950 C   0  0  0  0  0  0  0  0  0  0  0  0
  139.0900   75.6780  221.0560 C   0  0  0  0  0  0  0  0  0  0  0  0
  142.7803   75.0938  221.1919 H   0  0  0  0  0  0  0  0  0  0  0  0
  141.8992   74.7147  219.6732 H   0  0  0  0  0  0  0  0  0  0  0  0
  143.6934   74.7999  219.6732 H   0  0  0  0  0  0  0  0  0  0  0  0
  143.4207   77.2624  220.4027 H   0  0  0  0  0  0  0  0  0  0  0  0
  142.9454   76.8481  218.7025 H   0  0  0  0  0  0  0  0  0  0  0  0
  141.4240   79.7578  220.1682 H   0  0  0  0  0  0  0  0  0  0  0  0
  142.4754   81.7349  221.3081 H   0  0  0  0  0  0  0  0  0  0  0  0
  142.9336   81.5847  223.7361 H   0  0  0  0  0  0  0  0  0  0  0  0
  142.3959   79.5639  225.0405 H   0  0  0  0  0  0  0  0  0  0  0  0
  141.3451   77.5793  223.8874 H   0  0  0  0  0  0  0  0  0  0  0  0
  140.0874   76.5550  222.7508 H   0  0  0  0  0  0  0  0  0  0  0  0
  138.7108   78.7506  222.4052 H   0  0  0  0  0  0  0  0  0  0  0  0
  137.8591   77.9637  221.0862 H   0  0  0  0  0  0  0  0  0  0  0  0
  138.1759   76.8544  223.9633 H   0  0  0  0  0  0  0  0  0  0  0  0
  136.6694   77.5932  223.2659 H   0  0  0  0  0  0  0  0  0  0  0  0
  134.4139   76.5727  222.3882 H   0  0  0  0  0  0  0  0  0  0  0  0
  133.5530   74.0220  222.5860 H   0  0  0  0  0  0  0  0  0  0  0  0
  132.5800   75.4720  222.7430 H   0  0  0  0  0  0  0  0  0  0  0  0
  135.4876   77.1957  224.5193 H   0  0  0  0  0  0  0  0  0  0  0  0
  133.5099   77.9810  224.8688 H   0  0  0  0  0  0  0  0  0  0  0  0
  132.6919   76.4186  224.4433 H   0  0  0  0  0  0  0  0  0  0  0  0
  134.1374   76.9506  227.1073 H   0  0  0  0  0  0  0  0  0  0  0  0
  132.4017   77.0594  226.9246 H   0  0  0  0  0  0  0  0  0  0  0  0
  131.3356   74.9439  227.5471 H   0  0  0  0  0  0  0  0  0  0  0  0
  131.3650   72.4293  227.5013 H   0  0  0  0  0  0  0  0  0  0  0  0
  135.1631   72.5186  225.4498 H   0  0  0  0  0  0  0  0  0  0  0  0
  135.9918   75.7157  226.1681 H   0  0  0  0  0  0  0  0  0  0  0  0
  136.0676   74.6288  224.7466 H   0  0  0  0  0  0  0  0  0  0  0  0
  138.8381   74.4898  222.8096 H   0  0  0  0  0  0  0  0  0  0  0  0
  137.7453   74.0763  221.4224 H   0  0  0  0  0  0  0  0  0  0  0  0
  139.9228   75.0498  220.7069 H   0  0  0  0  0  0  0  0  0  0  0  0
  138.5072   76.0083  220.1835 H   0  0  0  0  0  0  0  0  0  0  0  0
  1  2  1  0
  2  3  1  0
  3  4  2  0
  3  5  1  0
  5  6  1  0
  6  7  2  0
  7  8  1  0
  8  9  2  0
  9 10  1  0
 10 11  2  0
  5 12  1  0
 12 13  1  0
 13 14  1  0
 14 15  1  0
 15 16  1  0
 16 17  2  0
 16 18  1  0
 18 19  1  0
 18 20  1  0
 20 21  1  0
 21 22  1  0
 22 23  1  0
 23 24  2  0
 24 25  1  0
 25 26  2  0
 26 27  1  0
 26 28  1  0
 28 29  2  0
 29 30  1  0
 15 31  1  0
 31 32  1  0
 11  6  1  0
 32 12  1  0
 30 20  1  0
 29 23  1  0
  1 33  1  0
  1 34  1  0
  1 35  1  0
  2 36  1  0
  2 37  1  0
  7 38  1  0
  8 39  1  0
  9 40  1  0
 10 41  1  0
 11 42  1  0
 12 43  1  0
 13 44  1  0
 13 45  1  0
 14 46  1  0
 14 47  1  0
 18 48  1  6
 19 49  1  0
 19 50  1  0
 20 51  1  6
 21 52  1  0
 21 53  1  0
 22 54  1  0
 22 55  1  0
 24 56  1  0
 25 57  1  0
 28 58  1  0
 30 59  1  0
 30 60  1  0
 31 61  1  0
 31 62  1  0
 32 63  1  0
 32 64  1  0
M  END
>  <smiles>  (80) 
CCC(=O)N(c1ccccc1)C1CCN(C(=O)[C@@H](N)C2CCc3ccc(Cl)cc3C2)CC1

>  <score_type>  (80) 
oracle

>  <origin>  (80) 
autodockgpu

>  <m_score__min__energy>  (80) 
-7.6799999999999997

>  <m_primary>  (80) 
energy

>  <rmsd>  (80) 
7.831172658075975

>  <m_score__min__rmsd>  (80) 
7.831172658075975

>  <meeko>  (80) 
{"free_energy": -6.78, "intermolecular_energy": -8.87, "internal_energy": -2.4, "cluster_size": 13, "cluster_id": 6, "rank_in_cluster": 11}

>  <energy>  (80) 
-6.61

>  <cluster_rmsd>  (80) 
0.68

>  <cluster>  (80) 
4

$$$$

     RDKit          3D

 64 67  0  0  0  0  0  0  0  0999 V2000
  142.5950   78.1960  218.2100 C   0  0  0  0  0  0  0  0  0  0  0  0
  141.3540   77.4750  218.7480 C   0  0  0  0  0  0  0  0  0  0  0  0
  141.5690   76.9620  220.0950 C   0  0  0  0  0  0  0  0  0  0  0  0
  142.5040   76.0960  220.2390 O   0  0  0  0  0  0  0  0  0  0  0  0
  140.8710   77.3050  221.2660 N   0  0  0  0  0  0  0  0  0  0  0  0
  141.4230   78.4510  221.9840 C   0  0  0  0  0  0  0  0  0  0  0  0
  141.4740   78.2820  223.3580 C   0  0  0  0  0  0  0  0  0  0  0  0
  141.9800   79.3060  224.1400 C   0  0  0  0  0  0  0  0  0  0  0  0
  142.4100   80.4480  223.4960 C   0  0  0  0  0  0  0  0  0  0  0  0
  142.3530   80.6030  222.1220 C   0  0  0  0  0  0  0  0  0  0  0  0
  141.8420   79.5700  221.3350 C   0  0  0  0  0  0  0  0  0  0  0  0
  139.7220   76.6900  221.8140 C   0  0  0  0  0  0  0  0  0  0  0  0
  138.5310   77.6240  222.0170 C   0  0  0  0  0  0  0  0  0  0  0  0
  137.6490   76.8790  223.0380 C   0  0  0  0  0  0  0  0  0  0  0  0
  137.1930   75.6150  222.5370 N   0  0  0  0  0  0  0  0  0  0  0  0
  135.8830   75.1090  222.5290 C   0  0  0  0  0  0  0  0  0  0  0  0
  135.7260   73.9450  222.0250 O   0  0  0  0  0  0  0  0  0  0  0  0
  134.6500   75.7400  223.0260 C   0  0  1  0  0  0  0  0  0  0  0  0
  133.4650   74.9710  222.9530 N   0  0  0  0  0  0  0  0  0  0  0  0
  134.8470   76.3390  224.4210 C   0  0  1  0  0  0  0  0  0  0  0  0
  133.5650   76.9150  224.9190 C   0  0  0  0  0  0  0  0  0  0  0  0
  133.3520   76.6310  226.4170 C   0  0  0  0  0  0  0  0  0  0  0  0
  133.2710   75.1230  226.4610 C   0  0  0  0  0  0  0  0  0  0  0  0
  132.2020   74.4730  227.0390 C   0  0  0  0  0  0  0  0  0  0  0  0
  132.2050   73.0760  227.0320 C   0  0  0  0  0  0  0  0  0  0  0  0
  133.2700   72.3870  226.4520 C   0  0  0  0  0  0  0  0  0  0  0  0
  133.2560   70.6410  226.4540 Cl  0  0  0  0  0  0  0  0  0  0  0  0
  134.3280   73.0820  225.8800 C   0  0  0  0  0  0  0  0  0  0  0  0
  134.3370   74.4650  225.8800 C   0  0  0  0  0  0  0  0  0  0  0  0
  135.4400   75.2660  225.2890 C   0  0  0  0  0  0  0  0  0  0  0  0
  138.2380   74.7560  221.9680 C   0  0  0  0  0  0  0  0  0  0  0  0
  139.1530   75.5220  221.0490 C   0  0  0  0  0  0  0  0  0  0  0  0
  143.2066   78.5513  219.0524 H   0  0  0  0  0  0  0  0  0  0  0  0
  143.1857   77.5005  217.5958 H   0  0  0  0  0  0  0  0  0  0  0  0
  142.2833   79.0536  217.5958 H   0  0  0  0  0  0  0  0  0  0  0  0
  140.5113   78.1817  218.7662 H   0  0  0  0  0  0  0  0  0  0  0  0
  141.1399   76.6223  218.0869 H   0  0  0  0  0  0  0  0  0  0  0  0
  141.1182   77.3493  223.8201 H   0  0  0  0  0  0  0  0  0  0  0  0
  142.0372   79.2127  225.2345 H   0  0  0  0  0  0  0  0  0  0  0  0
  142.8161   81.2717  224.1015 H   0  0  0  0  0  0  0  0  0  0  0  0
  142.7077   81.5331  221.6539 H   0  0  0  0  0  0  0  0  0  0  0  0
  141.7810   79.6570  220.2402 H   0  0  0  0  0  0  0  0  0  0  0  0
  140.1530   76.3499  222.7672 H   0  0  0  0  0  0  0  0  0  0  0  0
  138.8583   78.5951  222.4169 H   0  0  0  0  0  0  0  0  0  0  0  0
  138.0006   77.8468  221.0794 H   0  0  0  0  0  0  0  0  0  0  0  0
  138.2342   76.7073  223.9535 H   0  0  0  0  0  0  0  0  0  0  0  0
  136.7651   77.5019  223.2398 H   0  0  0  0  0  0  0  0  0  0  0  0
  134.4710   76.5475  222.3008 H   0  0  0  0  0  0  0  0  0  0  0  0
  133.5480   74.0260  222.5260 H   0  0  0  0  0  0  0  0  0  0  0  0
  132.6090   75.4990  222.6810 H   0  0  0  0  0  0  0  0  0  0  0  0
  135.5472   77.1873  224.4203 H   0  0  0  0  0  0  0  0  0  0  0  0
  133.5794   78.0036  224.7619 H   0  0  0  0  0  0  0  0  0  0  0  0
  132.7409   76.4450  224.3622 H   0  0  0  0  0  0  0  0  0  0  0  0
  134.1982   77.0004  227.0150 H   0  0  0  0  0  0  0  0  0  0  0  0
  132.4635   77.1282  226.8335 H   0  0  0  0  0  0  0  0  0  0  0  0
  131.3726   75.0364  227.4915 H   0  0  0  0  0  0  0  0  0  0  0  0
  131.3693   72.5207  227.4829 H   0  0  0  0  0  0  0  0  0  0  0  0
  135.1631   72.5295  225.4246 H   0  0  0  0  0  0  0  0  0  0  0  0
  136.0342   75.7264  226.0921 H   0  0  0  0  0  0  0  0  0  0  0  0
  136.0930   74.6166  224.6874 H   0  0  0  0  0  0  0  0  0  0  0  0
  138.8335   74.3288  222.7883 H   0  0  0  0  0  0  0  0  0  0  0  0
  137.7483   73.9649  221.3812 H   0  0  0  0  0  0  0  0  0  0  0  0
  139.9689   74.8684  220.7068 H   0  0  0  0  0  0  0  0  0  0  0  0
  138.5957   75.8794  220.1705 H   0  0  0  0  0  0  0  0  0  0  0  0
  1  2  1  0
  2  3  1  0
  3  4  2  0
  3  5  1  0
  5  6  1  0
  6  7  2  0
  7  8  1  0
  8  9  2  0
  9 10  1  0
 10 11  2  0
  5 12  1  0
 12 13  1  0
 13 14  1  0
 14 15  1  0
 15 16  1  0
 16 17  2  0
 16 18  1  0
 18 19  1  0
 18 20  1  0
 20 21  1  0
 21 22  1  0
 22 23  1  0
 23 24  2  0
 24 25  1  0
 25 26  2  0
 26 27  1  0
 26 28  1  0
 28 29  2  0
 29 30  1  0
 15 31  1  0
 31 32  1  0
 11  6  1  0
 32 12  1  0
 30 20  1  0
 29 23  1  0
  1 33  1  0
  1 34  1  0
  1 35  1  0
  2 36  1  0
  2 37  1  0
  7 38  1  0
  8 39  1  0
  9 40  1  0
 10 41  1  0
 11 42  1  0
 12 43  1  0
 13 44  1  0
 13 45  1  0
 14 46  1  0
 14 47  1  0
 18 48  1  6
 19 49  1  0
 19 50  1  0
 20 51  1  6
 21 52  1  0
 21 53  1  0
 22 54  1  0
 22 55  1  0
 24 56  1  0
 25 57  1  0
 28 58  1  0
 30 59  1  0
 30 60  1  0
 31 61  1  0
 31 62  1  0
 32 63  1  0
 32 64  1  0
M  END
>  <smiles>  (81) 
CCC(=O)N(c1ccccc1)C1CCN(C(=O)[C@@H](N)C2CCc3ccc(Cl)cc3C2)CC1

>  <score_type>  (81) 
oracle

>  <origin>  (81) 
autodockgpu

>  <m_score__min__energy>  (81) 
-7.6799999999999997

>  <m_primary>  (81) 
energy

>  <rmsd>  (81) 
7.7921672970954585

>  <m_score__min__rmsd>  (81) 
7.7921672970954585

>  <meeko>  (81) 
{"free_energy": -6.81, "intermolecular_energy": -8.89, "internal_energy": -2.34, "cluster_size": 13, "cluster_id": 6, "rank_in_cluster": 6}

>  <energy>  (81) 
-6.59

>  <cluster_rmsd>  (81) 
0.85

>  <cluster>  (81) 
4

$$$$

     RDKit          3D

 64 67  0  0  0  0  0  0  0  0999 V2000
  142.1290   79.1070  217.2940 C   0  0  0  0  0  0  0  0  0  0  0  0
  142.5790   80.0780  218.3910 C   0  0  0  0  0  0  0  0  0  0  0  0
  141.5970   80.1730  219.4630 C   0  0  0  0  0  0  0  0  0  0  0  0
  140.7500   81.1330  219.3860 O   0  0  0  0  0  0  0  0  0  0  0  0
  141.4610   79.3310  220.5810 N   0  0  0  0  0  0  0  0  0  0  0  0
  141.6590   79.9960  221.8660 C   0  0  0  0  0  0  0  0  0  0  0  0
  142.9580   79.9240  222.3430 C   0  0  0  0  0  0  0  0  0  0  0  0
  143.2600   80.5210  223.5550 C   0  0  0  0  0  0  0  0  0  0  0  0
  142.2370   81.1610  224.2230 C   0  0  0  0  0  0  0  0  0  0  0  0
  140.9440   81.2250  223.7350 C   0  0  0  0  0  0  0  0  0  0  0  0
  140.6410   80.6230  222.5140 C   0  0  0  0  0  0  0  0  0  0  0  0
  141.1580   77.9510  220.6070 C   0  0  0  0  0  0  0  0  0  0  0  0
  142.1650   77.0600  219.8840 C   0  0  0  0  0  0  0  0  0  0  0  0
  141.3860   75.7550  219.6270 C   0  0  0  0  0  0  0  0  0  0  0  0
  140.9710   75.1250  220.8460 N   0  0  0  0  0  0  0  0  0  0  0  0
  141.1360   73.7830  221.2270 C   0  0  0  0  0  0  0  0  0  0  0  0
  140.6740   73.4570  222.3730 O   0  0  0  0  0  0  0  0  0  0  0  0
  141.7740   72.6870  220.4810 C   0  0  1  0  0  0  0  0  0  0  0  0
  141.5520   72.6510  219.0850 N   0  0  0  0  0  0  0  0  0  0  0  0
  143.2630   72.5700  220.8170 C   0  0  1  0  0  0  0  0  0  0  0  0
  143.8520   71.3800  220.1370 C   0  0  0  0  0  0  0  0  0  0  0  0
  145.2590   71.6720  219.5860 C   0  0  0  0  0  0  0  0  0  0  0  0
  144.9990   72.7520  218.5630 C   0  0  0  0  0  0  0  0  0  0  0  0
  145.4220   72.6280  217.2580 C   0  0  0  0  0  0  0  0  0  0  0  0
  145.1350   73.6720  216.3750 C   0  0  0  0  0  0  0  0  0  0  0  0
  144.4410   74.7930  216.8300 C   0  0  0  0  0  0  0  0  0  0  0  0
  144.0930   76.0890  215.7120 Cl  0  0  0  0  0  0  0  0  0  0  0  0
  144.0330   74.8780  218.1550 C   0  0  0  0  0  0  0  0  0  0  0  0
  144.3110   73.8510  219.0380 C   0  0  0  0  0  0  0  0  0  0  0  0
  143.9050   73.8820  220.4680 C   0  0  0  0  0  0  0  0  0  0  0  0
  140.2880   76.0060  221.8020 C   0  0  0  0  0  0  0  0  0  0  0  0
  141.0100   77.3180  221.9660 C   0  0  0  0  0  0  0  0  0  0  0  0
  141.7092   78.2012  217.7558 H   0  0  0  0  0  0  0  0  0  0  0  0
  141.3625   79.5891  216.6694 H   0  0  0  0  0  0  0  0  0  0  0  0
  142.9923   78.8338  216.6694 H   0  0  0  0  0  0  0  0  0  0  0  0
  143.5321   79.7243  218.8111 H   0  0  0  0  0  0  0  0  0  0  0  0
  142.6924   81.0752  217.9407 H   0  0  0  0  0  0  0  0  0  0  0  0
  143.7365   79.4011  221.7681 H   0  0  0  0  0  0  0  0  0  0  0  0
  144.2782   80.4862  223.9699 H   0  0  0  0  0  0  0  0  0  0  0  0
  142.4591   81.6421  225.1870 H   0  0  0  0  0  0  0  0  0  0  0  0
  140.1613   81.7465  224.3054 H   0  0  0  0  0  0  0  0  0  0  0  0
  139.6247   80.6539  222.0942 H   0  0  0  0  0  0  0  0  0  0  0  0
  140.1860   77.9851  220.0931 H   0  0  0  0  0  0  0  0  0  0  0  0
  142.4841   77.5186  218.9365 H   0  0  0  0  0  0  0  0  0  0  0  0
  143.0840   76.8983  220.4665 H   0  0  0  0  0  0  0  0  0  0  0  0
  140.4942   75.9869  219.0262 H   0  0  0  0  0  0  0  0  0  0  0  0
  142.0547   75.0603  219.0976 H   0  0  0  0  0  0  0  0  0  0  0  0
  141.2435   71.7940  220.8431 H   0  0  0  0  0  0  0  0  0  0  0  0
  140.6790   73.0990  218.7400 H   0  0  0  0  0  0  0  0  0  0  0  0
  141.7920   71.7500  218.6200 H   0  0  0  0  0  0  0  0  0  0  0  0
  143.4403   72.3903  221.8876 H   0  0  0  0  0  0  0  0  0  0  0  0
  143.9176   70.5535  220.8599 H   0  0  0  0  0  0  0  0  0  0  0  0
  143.2023   71.1151  219.2898 H   0  0  0  0  0  0  0  0  0  0  0  0
  145.9291   72.0318  220.3807 H   0  0  0  0  0  0  0  0  0  0  0  0
  145.7557   70.7847  219.1665 H   0  0  0  0  0  0  0  0  0  0  0  0
  145.9688   71.7348  216.9215 H   0  0  0  0  0  0  0  0  0  0  0  0
  145.4553   73.6101  215.3245 H   0  0  0  0  0  0  0  0  0  0  0  0
  143.4862   75.7666  218.5035 H   0  0  0  0  0  0  0  0  0  0  0  0
  144.7909   74.0400  221.1006 H   0  0  0  0  0  0  0  0  0  0  0  0
  143.1930   74.7033  220.6368 H   0  0  0  0  0  0  0  0  0  0  0  0
  139.2685   76.2033  221.4392 H   0  0  0  0  0  0  0  0  0  0  0  0
  140.2684   75.5013  222.7792 H   0  0  0  0  0  0  0  0  0  0  0  0
  140.4300   77.9818  222.6241 H   0  0  0  0  0  0  0  0  0  0  0  0
  141.9999   77.1516  222.4158 H   0  0  0  0  0  0  0  0  0  0  0  0
  1  2  1  0
  2  3  1  0
  3  4  2  0
  3  5  1  0
  5  6  1  0
  6  7  2  0
  7  8  1  0
  8  9  2  0
  9 10  1  0
 10 11  2  0
  5 12  1  0
 12 13  1  0
 13 14  1  0
 14 15  1  0
 15 16  1  0
 16 17  2  0
 16 18  1  0
 18 19  1  0
 18 20  1  0
 20 21  1  0
 21 22  1  0
 22 23  1  0
 23 24  2  0
 24 25  1  0
 25 26  2  0
 26 27  1  0
 26 28  1  0
 28 29  2  0
 29 30  1  0
 15 31  1  0
 31 32  1  0
 11  6  1  0
 32 12  1  0
 30 20  1  0
 29 23  1  0
  1 33  1  0
  1 34  1  0
  1 35  1  0
  2 36  1  0
  2 37  1  0
  7 38  1  0
  8 39  1  0
  9 40  1  0
 10 41  1  0
 11 42  1  0
 12 43  1  0
 13 44  1  0
 13 45  1  0
 14 46  1  0
 14 47  1  0
 18 48  1  1
 19 49  1  0
 19 50  1  0
 20 51  1  1
 21 52  1  0
 21 53  1  0
 22 54  1  0
 22 55  1  0
 24 56  1  0
 25 57  1  0
 28 58  1  0
 30 59  1  0
 30 60  1  0
 31 61  1  0
 31 62  1  0
 32 63  1  0
 32 64  1  0
M  END
>  <smiles>  (82) 
CCC(=O)N(c1ccccc1)C1CCN(C(=O)[C@@H](N)C2CCc3ccc(Cl)cc3C2)CC1

>  <score_type>  (82) 
oracle

>  <origin>  (82) 
autodockgpu

>  <m_score__min__energy>  (82) 
-7.6799999999999997

>  <m_primary>  (82) 
energy

>  <rmsd>  (82) 
6.901505345852258

>  <m_score__min__rmsd>  (82) 
6.901505345852258

>  <meeko>  (82) 
{"free_energy": -6.87, "intermolecular_energy": -8.96, "internal_energy": -2.24, "cluster_size": 3, "cluster_id": 5, "rank_in_cluster": 1}

>  <energy>  (82) 
-6.87

>  <cluster_rmsd>  (82) 
0.0

>  <cluster>  (82) 
5

$$$$

     RDKit          3D

 64 67  0  0  0  0  0  0  0  0999 V2000
  142.5600   74.8990  220.4270 C   0  0  0  0  0  0  0  0  0  0  0  0
  142.6700   76.3280  219.8850 C   0  0  0  0  0  0  0  0  0  0  0  0
  141.4360   77.0780  220.0840 C   0  0  0  0  0  0  0  0  0  0  0  0
  140.8720   77.5490  219.0340 O   0  0  0  0  0  0  0  0  0  0  0  0
  140.7820   77.3480  221.2990 N   0  0  0  0  0  0  0  0  0  0  0  0
  141.3850   78.4220  222.0840 C   0  0  0  0  0  0  0  0  0  0  0  0
  141.7950   79.5090  221.3290 C   0  0  0  0  0  0  0  0  0  0  0  0
  142.3810   80.5860  221.9710 C   0  0  0  0  0  0  0  0  0  0  0  0
  142.5220   80.5140  223.3410 C   0  0  0  0  0  0  0  0  0  0  0  0
  142.1070   79.4220  224.0830 C   0  0  0  0  0  0  0  0  0  0  0  0
  141.5170   78.3360  223.4350 C   0  0  0  0  0  0  0  0  0  0  0  0
  139.6350   76.7200  221.8350 C   0  0  0  0  0  0  0  0  0  0  0  0
  138.4470   77.6500  222.0700 C   0  0  0  0  0  0  0  0  0  0  0  0
  137.5680   76.8790  223.0740 C   0  0  0  0  0  0  0  0  0  0  0  0
  137.1060   75.6310  222.5400 N   0  0  0  0  0  0  0  0  0  0  0  0
  135.7950   75.1270  222.5240 C   0  0  0  0  0  0  0  0  0  0  0  0
  135.6340   73.9790  221.9890 O   0  0  0  0  0  0  0  0  0  0  0  0
  134.5660   75.7470  223.0440 C   0  0  1  0  0  0  0  0  0  0  0  0
  133.3860   74.9700  222.9860 N   0  0  0  0  0  0  0  0  0  0  0  0
  134.7810   76.3410  224.4390 C   0  0  1  0  0  0  0  0  0  0  0  0
  133.5020   76.8980  224.9630 C   0  0  0  0  0  0  0  0  0  0  0  0
  133.3190   76.6030  226.4630 C   0  0  0  0  0  0  0  0  0  0  0  0
  133.2560   75.0940  226.4990 C   0  0  0  0  0  0  0  0  0  0  0  0
  132.2050   74.4290  227.0930 C   0  0  0  0  0  0  0  0  0  0  0  0
  132.2240   73.0320  227.0770 C   0  0  0  0  0  0  0  0  0  0  0  0
  133.2860   72.3590  226.4740 C   0  0  0  0  0  0  0  0  0  0  0  0
  133.2930   70.6130  226.4660 Cl  0  0  0  0  0  0  0  0  0  0  0  0
  134.3260   73.0690  225.8880 C   0  0  0  0  0  0  0  0  0  0  0  0
  134.3190   74.4520  225.8960 C   0  0  0  0  0  0  0  0  0  0  0  0
  135.4020   75.2700  225.2900 C   0  0  0  0  0  0  0  0  0  0  0  0
  138.1470   74.7850  221.9430 C   0  0  0  0  0  0  0  0  0  0  0  0
  139.0600   75.5750  221.0410 C   0  0  0  0  0  0  0  0  0  0  0  0
  142.5618   74.9228  221.5267 H   0  0  0  0  0  0  0  0  0  0  0  0
  141.6241   74.4431  220.0717 H   0  0  0  0  0  0  0  0  0  0  0  0
  143.4151   74.3052  220.0717 H   0  0  0  0  0  0  0  0  0  0  0  0
  143.4890   76.8448  220.4067 H   0  0  0  0  0  0  0  0  0  0  0  0
  142.8648   76.2700  218.8039 H   0  0  0  0  0  0  0  0  0  0  0  0
  141.6571   79.5159  220.2377 H   0  0  0  0  0  0  0  0  0  0  0  0
  142.7220   81.4678  221.4087 H   0  0  0  0  0  0  0  0  0  0  0  0
  142.9847   81.3619  223.8672 H   0  0  0  0  0  0  0  0  0  0  0  0
  142.2411   79.4102  225.1747 H   0  0  0  0  0  0  0  0  0  0  0  0
  141.1744   77.4510  223.9913 H   0  0  0  0  0  0  0  0  0  0  0  0
  140.0702   76.3524  222.7760 H   0  0  0  0  0  0  0  0  0  0  0  0
  138.7783   78.6089  222.4952 H   0  0  0  0  0  0  0  0  0  0  0  0
  137.9126   77.8996  221.1415 H   0  0  0  0  0  0  0  0  0  0  0  0
  138.1572   76.6800  223.9813 H   0  0  0  0  0  0  0  0  0  0  0  0
  136.6869   77.4983  223.2977 H   0  0  0  0  0  0  0  0  0  0  0  0
  134.3699   76.5571  222.3262 H   0  0  0  0  0  0  0  0  0  0  0  0
  132.8130   74.9280  223.8540 H   0  0  0  0  0  0  0  0  0  0  0  0
  133.4740   74.0640  222.4790 H   0  0  0  0  0  0  0  0  0  0  0  0
  135.4708   77.1978  224.4306 H   0  0  0  0  0  0  0  0  0  0  0  0
  133.5004   77.9876  224.8121 H   0  0  0  0  0  0  0  0  0  0  0  0
  132.6739   76.4209  224.4183 H   0  0  0  0  0  0  0  0  0  0  0  0
  134.1714   76.9785  227.0481 H   0  0  0  0  0  0  0  0  0  0  0  0
  132.4326   77.0876  226.8984 H   0  0  0  0  0  0  0  0  0  0  0  0
  131.3780   74.9802  227.5644 H   0  0  0  0  0  0  0  0  0  0  0  0
  131.4029   72.4643  227.5391 H   0  0  0  0  0  0  0  0  0  0  0  0
  135.1594   72.5287  225.4152 H   0  0  0  0  0  0  0  0  0  0  0  0
  136.0049   75.7328  226.0852 H   0  0  0  0  0  0  0  0  0  0  0  0
  136.0517   74.6320  224.6729 H   0  0  0  0  0  0  0  0  0  0  0  0
  138.7451   74.3342  222.7486 H   0  0  0  0  0  0  0  0  0  0  0  0
  137.6532   74.0110  221.3371 H   0  0  0  0  0  0  0  0  0  0  0  0
  139.8729   74.9295  220.6770 H   0  0  0  0  0  0  0  0  0  0  0  0
  138.4993   75.9578  220.1755 H   0  0  0  0  0  0  0  0  0  0  0  0
  1  2  1  0
  2  3  1  0
  3  4  2  0
  3  5  1  0
  5  6  1  0
  6  7  2  0
  7  8  1  0
  8  9  2  0
  9 10  1  0
 10 11  2  0
  5 12  1  0
 12 13  1  0
 13 14  1  0
 14 15  1  0
 15 16  1  0
 16 17  2  0
 16 18  1  0
 18 19  1  0
 18 20  1  0
 20 21  1  0
 21 22  1  0
 22 23  1  0
 23 24  2  0
 24 25  1  0
 25 26  2  0
 26 27  1  0
 26 28  1  0
 28 29  2  0
 29 30  1  0
 15 31  1  0
 31 32  1  0
 11  6  1  0
 32 12  1  0
 30 20  1  0
 29 23  1  0
  1 33  1  0
  1 34  1  0
  1 35  1  0
  2 36  1  0
  2 37  1  0
  7 38  1  0
  8 39  1  0
  9 40  1  0
 10 41  1  0
 11 42  1  0
 12 43  1  0
 13 44  1  0
 13 45  1  0
 14 46  1  0
 14 47  1  0
 18 48  1  6
 19 49  1  0
 19 50  1  0
 20 51  1  6
 21 52  1  0
 21 53  1  0
 22 54  1  0
 22 55  1  0
 24 56  1  0
 25 57  1  0
 28 58  1  0
 30 59  1  0
 30 60  1  0
 31 61  1  0
 31 62  1  0
 32 63  1  0
 32 64  1  0
M  END
>  <smiles>  (83) 
CCC(=O)N(c1ccccc1)C1CCN(C(=O)[C@@H](N)C2CCc3ccc(Cl)cc3C2)CC1

>  <score_type>  (83) 
oracle

>  <origin>  (83) 
autodockgpu

>  <m_score__min__energy>  (83) 
-7.6799999999999997

>  <m_primary>  (83) 
energy

>  <rmsd>  (83) 
7.8239199281018985

>  <m_score__min__rmsd>  (83) 
7.8239199281018985

>  <meeko>  (83) 
{"free_energy": -6.79, "intermolecular_energy": -8.88, "internal_energy": -2.44, "cluster_size": 13, "cluster_id": 6, "rank_in_cluster": 9}

>  <energy>  (83) 
-6.76

>  <cluster_rmsd>  (83) 
0.64

>  <cluster>  (83) 
5

$$$$

     RDKit          3D

 64 67  0  0  0  0  0  0  0  0999 V2000
  136.3410   85.1210  225.5950 C   0  0  0  0  0  0  0  0  0  0  0  0
  135.6590   84.3560  224.4550 C   0  0  0  0  0  0  0  0  0  0  0  0
  136.4930   83.2680  223.9600 C   0  0  0  0  0  0  0  0  0  0  0  0
  137.3560   83.5690  223.0600 O   0  0  0  0  0  0  0  0  0  0  0  0
  136.4680   81.9190  224.3530 N   0  0  0  0  0  0  0  0  0  0  0  0
  135.9650   81.6930  225.7050 C   0  0  0  0  0  0  0  0  0  0  0  0
  136.9260   81.8320  226.6930 C   0  0  0  0  0  0  0  0  0  0  0  0
  136.5590   81.6390  228.0140 C   0  0  0  0  0  0  0  0  0  0  0  0
  135.2440   81.3180  228.2720 C   0  0  0  0  0  0  0  0  0  0  0  0
  134.2940   81.1820  227.2740 C   0  0  0  0  0  0  0  0  0  0  0  0
  134.6640   81.3760  225.9430 C   0  0  0  0  0  0  0  0  0  0  0  0
  136.8570   80.7820  223.6090 C   0  0  0  0  0  0  0  0  0  0  0  0
  138.2510   80.2510  223.9340 C   0  0  0  0  0  0  0  0  0  0  0  0
  138.6140   79.3920  222.7070 C   0  0  0  0  0  0  0  0  0  0  0  0
  137.7080   78.2950  222.5280 N   0  0  0  0  0  0  0  0  0  0  0  0
  138.0180   76.9400  222.3250 C   0  0  0  0  0  0  0  0  0  0  0  0
  137.0270   76.1450  222.1880 O   0  0  0  0  0  0  0  0  0  0  0  0
  139.3400   76.3020  222.2470 C   0  0  1  0  0  0  0  0  0  0  0  0
  139.4030   74.9230  222.5570 N   0  0  0  0  0  0  0  0  0  0  0  0
  140.0380   76.6110  220.9190 C   0  0  1  0  0  0  0  0  0  0  0  0
  139.2570   77.6230  220.1510 C   0  0  0  0  0  0  0  0  0  0  0  0
  140.1710   78.6480  219.4560 C   0  0  0  0  0  0  0  0  0  0  0  0
  140.8540   79.3260  220.6210 C   0  0  0  0  0  0  0  0  0  0  0  0
  140.8330   80.6960  220.7730 C   0  0  0  0  0  0  0  0  0  0  0  0
  141.4870   81.2400  221.8820 C   0  0  0  0  0  0  0  0  0  0  0  0
  142.1330   80.3990  222.7880 C   0  0  0  0  0  0  0  0  0  0  0  0
  142.9450   81.0990  224.1670 Cl  0  0  0  0  0  0  0  0  0  0  0  0
  142.1300   79.0240  222.5960 C   0  0  0  0  0  0  0  0  0  0  0  0
  141.4870   78.4720  221.5030 C   0  0  0  0  0  0  0  0  0  0  0  0
  141.4510   77.0100  221.2390 C   0  0  0  0  0  0  0  0  0  0  0  0
  136.2840   78.6510  222.5610 C   0  0  0  0  0  0  0  0  0  0  0  0
  135.9650   79.5720  223.7090 C   0  0  0  0  0  0  0  0  0  0  0  0
  135.9909   84.7283  226.5610 H   0  0  0  0  0  0  0  0  0  0  0  0
  137.4312   84.9941  225.5210 H   0  0  0  0  0  0  0  0  0  0  0  0
  136.0903   86.1895  225.5210 H   0  0  0  0  0  0  0  0  0  0  0  0
  134.7104   83.9385  224.8236 H   0  0  0  0  0  0  0  0  0  0  0  0
  135.4856   85.0587  223.6267 H   0  0  0  0  0  0  0  0  0  0  0  0
  137.9628   82.0912  226.4325 H   0  0  0  0  0  0  0  0  0  0  0  0
  137.2913   81.7384  228.8288 H   0  0  0  0  0  0  0  0  0  0  0  0
  134.9356   81.1630  229.3164 H   0  0  0  0  0  0  0  0  0  0  0  0
  133.2557   80.9230  227.5286 H   0  0  0  0  0  0  0  0  0  0  0  0
  133.9369   81.2771  225.1236 H   0  0  0  0  0  0  0  0  0  0  0  0
  136.7996   81.2160  222.5999 H   0  0  0  0  0  0  0  0  0  0  0  0
  138.9658   81.0778  224.0586 H   0  0  0  0  0  0  0  0  0  0  0  0
  138.2801   79.6817  224.8748 H   0  0  0  0  0  0  0  0  0  0  0  0
  138.5843   80.0264  221.8089 H   0  0  0  0  0  0  0  0  0  0  0  0
  139.6195   78.9770  222.8702 H   0  0  0  0  0  0  0  0  0  0  0  0
  139.8940   76.7725  223.0727 H   0  0  0  0  0  0  0  0  0  0  0  0
  140.0330   74.3410  221.9680 H   0  0  0  0  0  0  0  0  0  0  0  0
  138.4900   74.4780  222.7900 H   0  0  0  0  0  0  0  0  0  0  0  0
  140.0841   75.7364  220.2535 H   0  0  0  0  0  0  0  0  0  0  0  0
  138.6584   77.1051  219.3872 H   0  0  0  0  0  0  0  0  0  0  0  0
  138.6135   78.1656  220.8592 H   0  0  0  0  0  0  0  0  0  0  0  0
  140.9022   78.1491  218.8029 H   0  0  0  0  0  0  0  0  0  0  0  0
  139.6272   79.3456  218.8020 H   0  0  0  0  0  0  0  0  0  0  0  0
  140.3182   81.3402  220.0450 H   0  0  0  0  0  0  0  0  0  0  0  0
  141.4922   82.3286  222.0399 H   0  0  0  0  0  0  0  0  0  0  0  0
  142.6419   78.3699  223.3172 H   0  0  0  0  0  0  0  0  0  0  0  0
  142.1045   76.7719  220.3868 H   0  0  0  0  0  0  0  0  0  0  0  0
  141.8031   76.4612  222.1249 H   0  0  0  0  0  0  0  0  0  0  0  0
  136.0203   79.1525  221.6182 H   0  0  0  0  0  0  0  0  0  0  0  0
  135.7030   77.7263  222.6925 H   0  0  0  0  0  0  0  0  0  0  0  0
  134.9109   79.8819  223.6550 H   0  0  0  0  0  0  0  0  0  0  0  0
  136.1332   79.0561  224.6658 H   0  0  0  0  0  0  0  0  0  0  0  0
  1  2  1  0
  2  3  1  0
  3  4  2  0
  3  5  1  0
  5  6  1  0
  6  7  2  0
  7  8  1  0
  8  9  2  0
  9 10  1  0
 10 11  2  0
  5 12  1  0
 12 13  1  0
 13 14  1  0
 14 15  1  0
 15 16  1  0
 16 17  2  0
 16 18  1  0
 18 19  1  0
 18 20  1  0
 20 21  1  0
 21 22  1  0
 22 23  1  0
 23 24  2  0
 24 25  1  0
 25 26  2  0
 26 27  1  0
 26 28  1  0
 28 29  2  0
 29 30  1  0
 15 31  1  0
 31 32  1  0
 11  6  1  0
 32 12  1  0
 30 20  1  0
 29 23  1  0
  1 33  1  0
  1 34  1  0
  1 35  1  0
  2 36  1  0
  2 37  1  0
  7 38  1  0
  8 39  1  0
  9 40  1  0
 10 41  1  0
 11 42  1  0
 12 43  1  0
 13 44  1  0
 13 45  1  0
 14 46  1  0
 14 47  1  0
 18 48  1  1
 19 49  1  0
 19 50  1  0
 20 51  1  6
 21 52  1  0
 21 53  1  0
 22 54  1  0
 22 55  1  0
 24 56  1  0
 25 57  1  0
 28 58  1  0
 30 59  1  0
 30 60  1  0
 31 61  1  0
 31 62  1  0
 32 63  1  0
 32 64  1  0
M  END
>  <smiles>  (84) 
CCC(=O)N(c1ccccc1)C1CCN(C(=O)[C@@H](N)C2CCc3ccc(Cl)cc3C2)CC1

>  <score_type>  (84) 
oracle

>  <origin>  (84) 
autodockgpu

>  <m_score__min__energy>  (84) 
-7.6799999999999997

>  <m_primary>  (84) 
energy

>  <rmsd>  (84) 
6.041388821129971

>  <m_score__min__rmsd>  (84) 
6.041388821129971

>  <meeko>  (84) 
{"free_energy": -6.77, "intermolecular_energy": -8.86, "internal_energy": -2.71, "cluster_size": 17, "cluster_id": 4, "rank_in_cluster": 6}

>  <energy>  (84) 
-6.65

>  <cluster_rmsd>  (84) 
0.71

>  <cluster>  (84) 
5

$$$$

     RDKit          3D

 64 67  0  0  0  0  0  0  0  0999 V2000
  137.7440   83.8190  222.1380 C   0  0  0  0  0  0  0  0  0  0  0  0
  136.4980   84.1940  222.9470 C   0  0  0  0  0  0  0  0  0  0  0  0
  136.5250   83.6100  224.2820 C   0  0  0  0  0  0  0  0  0  0  0  0
  136.5590   84.4280  225.2680 O   0  0  0  0  0  0  0  0  0  0  0  0
  136.5140   82.2460  224.6220 N   0  0  0  0  0  0  0  0  0  0  0  0
  136.0160   81.9620  225.9660 C   0  0  0  0  0  0  0  0  0  0  0  0
  134.6540   81.7230  226.0220 C   0  0  0  0  0  0  0  0  0  0  0  0
  134.0730   81.4430  227.2470 C   0  0  0  0  0  0  0  0  0  0  0  0
  134.8970   81.4180  228.3530 C   0  0  0  0  0  0  0  0  0  0  0  0
  136.2580   81.6590  228.2820 C   0  0  0  0  0  0  0  0  0  0  0  0
  136.8420   81.9420  227.0470 C   0  0  0  0  0  0  0  0  0  0  0  0
  136.9150   81.1430  223.8350 C   0  0  0  0  0  0  0  0  0  0  0  0
  138.2310   80.4960  224.2600 C   0  0  0  0  0  0  0  0  0  0  0  0
  138.6740   79.7070  223.0130 C   0  0  0  0  0  0  0  0  0  0  0  0
  137.7300   78.6900  222.6530 N   0  0  0  0  0  0  0  0  0  0  0  0
  137.9790   77.3360  222.3750 C   0  0  0  0  0  0  0  0  0  0  0  0
  136.9640   76.6220  222.0730 O   0  0  0  0  0  0  0  0  0  0  0  0
  139.2620   76.6160  222.3850 C   0  0  1  0  0  0  0  0  0  0  0  0
  139.2210   75.2430  222.7200 N   0  0  0  0  0  0  0  0  0  0  0  0
  140.0530   76.8580  221.0970 C   0  0  1  0  0  0  0  0  0  0  0  0
  139.3110   77.7960  220.2060 C   0  0  0  0  0  0  0  0  0  0  0  0
  140.2540   78.7980  219.5150 C   0  0  0  0  0  0  0  0  0  0  0  0
  140.8290   79.5690  220.6800 C   0  0  0  0  0  0  0  0  0  0  0  0
  140.7650   80.9440  220.7380 C   0  0  0  0  0  0  0  0  0  0  0  0
  141.3190   81.5770  221.8530 C   0  0  0  0  0  0  0  0  0  0  0  0
  141.9110   80.8160  222.8610 C   0  0  0  0  0  0  0  0  0  0  0  0
  142.5990   81.6260  224.2470 Cl  0  0  0  0  0  0  0  0  0  0  0  0
  141.9540   79.4310  222.7620 C   0  0  0  0  0  0  0  0  0  0  0  0
  141.4100   78.7920  221.6630 C   0  0  0  0  0  0  0  0  0  0  0  0
  141.4270   77.3150  221.4960 C   0  0  0  0  0  0  0  0  0  0  0  0
  136.3340   79.1380  222.5650 C   0  0  0  0  0  0  0  0  0  0  0  0
  135.9460   79.9920  223.7440 C   0  0  0  0  0  0  0  0  0  0  0  0
  138.5665   83.5715  222.8251 H   0  0  0  0  0  0  0  0  0  0  0  0
  137.5212   82.9481  221.5040 H   0  0  0  0  0  0  0  0  0  0  0  0
  138.0388   84.6682  221.5040 H   0  0  0  0  0  0  0  0  0  0  0  0
  136.4486   85.2891  223.0381 H   0  0  0  0  0  0  0  0  0  0  0  0
  135.6162   83.8016  222.4193 H   0  0  0  0  0  0  0  0  0  0  0  0
  134.0429   81.7550  225.1079 H   0  0  0  0  0  0  0  0  0  0  0  0
  132.9941   81.2477  227.3351 H   0  0  0  0  0  0  0  0  0  0  0  0
  134.4528   81.1968  229.3347 H   0  0  0  0  0  0  0  0  0  0  0  0
  136.8746   81.6276  229.1924 H   0  0  0  0  0  0  0  0  0  0  0  0
  137.9199   82.1397  226.9517 H   0  0  0  0  0  0  0  0  0  0  0  0
  136.9961   81.6529  222.8637 H   0  0  0  0  0  0  0  0  0  0  0  0
  138.9760   81.2609  224.5245 H   0  0  0  0  0  0  0  0  0  0  0  0
  138.1230   79.8584  225.1499 H   0  0  0  0  0  0  0  0  0  0  0  0
  138.7802   80.4062  222.1705 H   0  0  0  0  0  0  0  0  0  0  0  0
  139.6293   79.2141  223.2466 H   0  0  0  0  0  0  0  0  0  0  0  0
  139.7963   77.0659  223.2348 H   0  0  0  0  0  0  0  0  0  0  0  0
  139.8980   74.6240  222.2290 H   0  0  0  0  0  0  0  0  0  0  0  0
  138.2660   74.8410  222.8330 H   0  0  0  0  0  0  0  0  0  0  0  0
  140.1703   75.9441  220.4961 H   0  0  0  0  0  0  0  0  0  0  0  0
  138.7848   77.2134  219.4355 H   0  0  0  0  0  0  0  0  0  0  0  0
  138.6024   78.3658  220.8251 H   0  0  0  0  0  0  0  0  0  0  0  0
  141.0446   78.2774  218.9547 H   0  0  0  0  0  0  0  0  0  0  0  0
  139.7476   79.4363  218.7760 H   0  0  0  0  0  0  0  0  0  0  0  0
  140.2927   81.5247  219.9320 H   0  0  0  0  0  0  0  0  0  0  0  0
  141.2885   82.6734  221.9360 H   0  0  0  0  0  0  0  0  0  0  0  0
  142.4232   78.8396  223.5620 H   0  0  0  0  0  0  0  0  0  0  0  0
  142.1500   77.0395  220.7141 H   0  0  0  0  0  0  0  0  0  0  0  0
  141.7211   76.8350  222.4410 H   0  0  0  0  0  0  0  0  0  0  0  0
  136.2054   79.7240  221.6430 H   0  0  0  0  0  0  0  0  0  0  0  0
  135.6884   78.2474  222.5602 H   0  0  0  0  0  0  0  0  0  0  0  0
  134.9246   80.3760  223.6049 H   0  0  0  0  0  0  0  0  0  0  0  0
  135.9767   79.3972  224.6688 H   0  0  0  0  0  0  0  0  0  0  0  0
  1  2  1  0
  2  3  1  0
  3  4  2  0
  3  5  1  0
  5  6  1  0
  6  7  2  0
  7  8  1  0
  8  9  2  0
  9 10  1  0
 10 11  2  0
  5 12  1  0
 12 13  1  0
 13 14  1  0
 14 15  1  0
 15 16  1  0
 16 17  2  0
 16 18  1  0
 18 19  1  0
 18 20  1  0
 20 21  1  0
 21 22  1  0
 22 23  1  0
 23 24  2  0
 24 25  1  0
 25 26  2  0
 26 27  1  0
 26 28  1  0
 28 29  2  0
 29 30  1  0
 15 31  1  0
 31 32  1  0
 11  6  1  0
 32 12  1  0
 30 20  1  0
 29 23  1  0
  1 33  1  0
  1 34  1  0
  1 35  1  0
  2 36  1  0
  2 37  1  0
  7 38  1  0
  8 39  1  0
  9 40  1  0
 10 41  1  0
 11 42  1  0
 12 43  1  0
 13 44  1  0
 13 45  1  0
 14 46  1  0
 14 47  1  0
 18 48  1  1
 19 49  1  0
 19 50  1  0
 20 51  1  6
 21 52  1  0
 21 53  1  0
 22 54  1  0
 22 55  1  0
 24 56  1  0
 25 57  1  0
 28 58  1  0
 30 59  1  0
 30 60  1  0
 31 61  1  0
 31 62  1  0
 32 63  1  0
 32 64  1  0
M  END
>  <smiles>  (85) 
CCC(=O)N(c1ccccc1)C1CCN(C(=O)[C@@H](N)C2CCc3ccc(Cl)cc3C2)CC1

>  <score_type>  (85) 
oracle

>  <origin>  (85) 
autodockgpu

>  <m_score__min__energy>  (85) 
-7.6799999999999997

>  <m_primary>  (85) 
energy

>  <rmsd>  (85) 
6.124137366837102

>  <m_score__min__rmsd>  (85) 
6.124137366837102

>  <meeko>  (85) 
{"free_energy": -6.64, "intermolecular_energy": -8.73, "internal_energy": -2.92, "cluster_size": 17, "cluster_id": 4, "rank_in_cluster": 12}

>  <energy>  (85) 
-6.85

>  <cluster_rmsd>  (85) 
0.0

>  <cluster>  (85) 
6

$$$$

     RDKit          3D

 64 67  0  0  0  0  0  0  0  0999 V2000
  138.2400   83.4180  221.9980 C   0  0  0  0  0  0  0  0  0  0  0  0
  136.9200   83.9510  222.5670 C   0  0  0  0  0  0  0  0  0  0  0  0
  136.6320   83.3900  223.8810 C   0  0  0  0  0  0  0  0  0  0  0  0
  136.4030   84.2250  224.8260 O   0  0  0  0  0  0  0  0  0  0  0  0
  136.5720   82.0320  224.2400 N   0  0  0  0  0  0  0  0  0  0  0  0
  136.0320   81.7830  225.5740 C   0  0  0  0  0  0  0  0  0  0  0  0
  136.9730   81.8650  226.5870 C   0  0  0  0  0  0  0  0  0  0  0  0
  136.5700   81.6470  227.8930 C   0  0  0  0  0  0  0  0  0  0  0  0
  135.2400   81.3580  228.1120 C   0  0  0  0  0  0  0  0  0  0  0  0
  134.3100   81.2800  227.0900 C   0  0  0  0  0  0  0  0  0  0  0  0
  134.7170   81.4990  225.7730 C   0  0  0  0  0  0  0  0  0  0  0  0
  136.9600   80.9060  223.4790 C   0  0  0  0  0  0  0  0  0  0  0  0
  138.2360   80.2180  223.9560 C   0  0  0  0  0  0  0  0  0  0  0  0
  138.6930   79.3990  222.7340 C   0  0  0  0  0  0  0  0  0  0  0  0
  137.7250   78.4120  222.3530 N   0  0  0  0  0  0  0  0  0  0  0  0
  137.9350   77.0460  222.0980 C   0  0  0  0  0  0  0  0  0  0  0  0
  136.9060   76.3650  221.7680 O   0  0  0  0  0  0  0  0  0  0  0  0
  139.1900   76.2810  222.1610 C   0  0  1  0  0  0  0  0  0  0  0  0
  139.0860   74.9080  222.4830 N   0  0  0  0  0  0  0  0  0  0  0  0
  140.0460   76.5020  220.9100 C   0  0  1  0  0  0  0  0  0  0  0  0
  139.3810   77.4740  219.9960 C   0  0  0  0  0  0  0  0  0  0  0  0
  140.3900   78.4440  219.3560 C   0  0  0  0  0  0  0  0  0  0  0  0
  140.9420   79.1840  220.5520 C   0  0  0  0  0  0  0  0  0  0  0  0
  140.9290   80.5600  220.6190 C   0  0  0  0  0  0  0  0  0  0  0  0
  141.4560   81.1630  221.7640 C   0  0  0  0  0  0  0  0  0  0  0  0
  141.9740   80.3720  222.7890 C   0  0  0  0  0  0  0  0  0  0  0  0
  142.6300   81.1450  224.2120 Cl  0  0  0  0  0  0  0  0  0  0  0  0
  141.9690   78.9880  222.6800 C   0  0  0  0  0  0  0  0  0  0  0  0
  141.4490   78.3780  221.5520 C   0  0  0  0  0  0  0  0  0  0  0  0
  141.4180   76.9030  221.3730 C   0  0  0  0  0  0  0  0  0  0  0  0
  136.3510   78.9080  222.2120 C   0  0  0  0  0  0  0  0  0  0  0  0
  135.9540   79.7890  223.3670 C   0  0  0  0  0  0  0  0  0  0  0  0
  138.9126   83.1464  222.8249 H   0  0  0  0  0  0  0  0  0  0  0  0
  138.0410   82.5298  221.3804 H   0  0  0  0  0  0  0  0  0  0  0  0
  138.7135   84.1954  221.3804 H   0  0  0  0  0  0  0  0  0  0  0  0
  136.9857   85.0456  222.6537 H   0  0  0  0  0  0  0  0  0  0  0  0
  136.1094   83.6567  221.8841 H   0  0  0  0  0  0  0  0  0  0  0  0
  138.0229   82.0994  226.3574 H   0  0  0  0  0  0  0  0  0  0  0  0
  137.2856   81.7024  228.7266 H   0  0  0  0  0  0  0  0  0  0  0  0
  134.9032   81.1817  229.1442 H   0  0  0  0  0  0  0  0  0  0  0  0
  133.2585   81.0473  227.3139 H   0  0  0  0  0  0  0  0  0  0  0  0
  134.0069   81.4444  224.9347 H   0  0  0  0  0  0  0  0  0  0  0  0
  137.0926   81.4011  222.5057 H   0  0  0  0  0  0  0  0  0  0  0  0
  138.9984   80.9591  224.2380 H   0  0  0  0  0  0  0  0  0  0  0  0
  138.0746   79.5953  224.8483 H   0  0  0  0  0  0  0  0  0  0  0  0
  138.8532   80.0836  221.8881 H   0  0  0  0  0  0  0  0  0  0  0  0
  139.6216   78.8754  223.0054 H   0  0  0  0  0  0  0  0  0  0  0  0
  139.7004   76.7065  223.0376 H   0  0  0  0  0  0  0  0  0  0  0  0
  138.1350   74.5540  222.7130 H   0  0  0  0  0  0  0  0  0  0  0  0
  139.8480   74.5350  223.0880 H   0  0  0  0  0  0  0  0  0  0  0  0
  140.1542   75.5886  220.3066 H   0  0  0  0  0  0  0  0  0  0  0  0
  138.8676   76.9176  219.1980 H   0  0  0  0  0  0  0  0  0  0  0  0
  138.6683   78.0662  220.5888 H   0  0  0  0  0  0  0  0  0  0  0  0
  141.1842   77.8978  218.8260 H   0  0  0  0  0  0  0  0  0  0  0  0
  139.9410   79.1065  218.6013 H   0  0  0  0  0  0  0  0  0  0  0  0
  140.5170   81.1645  219.7975 H   0  0  0  0  0  0  0  0  0  0  0  0
  141.4622   82.2591  221.8567 H   0  0  0  0  0  0  0  0  0  0  0  0
  142.3804   78.3733  223.4942 H   0  0  0  0  0  0  0  0  0  0  0  0
  142.1638   76.6057  220.6211 H   0  0  0  0  0  0  0  0  0  0  0  0
  141.6522   76.4051  222.3255 H   0  0  0  0  0  0  0  0  0  0  0  0
  136.2752   79.4871  221.2798 H   0  0  0  0  0  0  0  0  0  0  0  0
  135.6743   78.0410  222.1945 H   0  0  0  0  0  0  0  0  0  0  0  0
  134.9524   80.2072  223.1885 H   0  0  0  0  0  0  0  0  0  0  0  0
  135.9317   79.2047  224.2987 H   0  0  0  0  0  0  0  0  0  0  0  0
  1  2  1  0
  2  3  1  0
  3  4  2  0
  3  5  1  0
  5  6  1  0
  6  7  2  0
  7  8  1  0
  8  9  2  0
  9 10  1  0
 10 11  2  0
  5 12  1  0
 12 13  1  0
 13 14  1  0
 14 15  1  0
 15 16  1  0
 16 17  2  0
 16 18  1  0
 18 19  1  0
 18 20  1  0
 20 21  1  0
 21 22  1  0
 22 23  1  0
 23 24  2  0
 24 25  1  0
 25 26  2  0
 26 27  1  0
 26 28  1  0
 28 29  2  0
 29 30  1  0
 15 31  1  0
 31 32  1  0
 11  6  1  0
 32 12  1  0
 30 20  1  0
 29 23  1  0
  1 33  1  0
  1 34  1  0
  1 35  1  0
  2 36  1  0
  2 37  1  0
  7 38  1  0
  8 39  1  0
  9 40  1  0
 10 41  1  0
 11 42  1  0
 12 43  1  0
 13 44  1  0
 13 45  1  0
 14 46  1  0
 14 47  1  0
 18 48  1  1
 19 49  1  0
 19 50  1  0
 20 51  1  6
 21 52  1  0
 21 53  1  0
 22 54  1  0
 22 55  1  0
 24 56  1  0
 25 57  1  0
 28 58  1  0
 30 59  1  0
 30 60  1  0
 31 61  1  0
 31 62  1  0
 32 63  1  0
 32 64  1  0
M  END
>  <smiles>  (86) 
CCC(=O)N(c1ccccc1)C1CCN(C(=O)[C@@H](N)C2CCc3ccc(Cl)cc3C2)CC1

>  <score_type>  (86) 
oracle

>  <origin>  (86) 
autodockgpu

>  <m_score__min__energy>  (86) 
-7.6799999999999997

>  <m_primary>  (86) 
energy

>  <rmsd>  (86) 
6.034283529916348

>  <m_score__min__rmsd>  (86) 
6.034283529916348

>  <meeko>  (86) 
{"free_energy": -6.73, "intermolecular_energy": -8.82, "internal_energy": -2.84, "cluster_size": 17, "cluster_id": 4, "rank_in_cluster": 8}

>  <energy>  (86) 
-6.83

>  <cluster_rmsd>  (86) 
0.29

>  <cluster>  (86) 
6

$$$$

     RDKit          3D

 64 67  0  0  0  0  0  0  0  0999 V2000
  142.9430   77.1660  218.1410 C   0  0  0  0  0  0  0  0  0  0  0  0
  141.6900   77.5120  218.9530 C   0  0  0  0  0  0  0  0  0  0  0  0
  141.7150   76.8980  220.2740 C   0  0  0  0  0  0  0  0  0  0  0  0
  142.5210   75.9140  220.4360 O   0  0  0  0  0  0  0  0  0  0  0  0
  140.9590   77.2580  221.4030 N   0  0  0  0  0  0  0  0  0  0  0  0
  141.4610   78.4270  222.1200 C   0  0  0  0  0  0  0  0  0  0  0  0
  141.6840   79.5300  221.3120 C   0  0  0  0  0  0  0  0  0  0  0  0
  142.1610   80.6950  221.8870 C   0  0  0  0  0  0  0  0  0  0  0  0
  142.3890   80.6890  223.2470 C   0  0  0  0  0  0  0  0  0  0  0  0
  142.1620   79.5790  224.0420 C   0  0  0  0  0  0  0  0  0  0  0  0
  141.6810   78.4050  223.4620 C   0  0  0  0  0  0  0  0  0  0  0  0
  139.7940   76.6390  221.9110 C   0  0  0  0  0  0  0  0  0  0  0  0
  138.6050   77.5760  222.1100 C   0  0  0  0  0  0  0  0  0  0  0  0
  137.6960   76.8140  223.0930 C   0  0  0  0  0  0  0  0  0  0  0  0
  137.2420   75.5660  222.5530 N   0  0  0  0  0  0  0  0  0  0  0  0
  135.9290   75.0690  222.5040 C   0  0  0  0  0  0  0  0  0  0  0  0
  135.7760   73.9190  221.9700 O   0  0  0  0  0  0  0  0  0  0  0  0
  134.6900   75.6980  222.9880 C   0  0  1  0  0  0  0  0  0  0  0  0
  133.5100   74.9220  222.9160 N   0  0  0  0  0  0  0  0  0  0  0  0
  134.8760   76.3100  224.3790 C   0  0  1  0  0  0  0  0  0  0  0  0
  133.5930   76.9030  224.8550 C   0  0  0  0  0  0  0  0  0  0  0  0
  133.3590   76.6380  226.3540 C   0  0  0  0  0  0  0  0  0  0  0  0
  133.2630   75.1310  226.4120 C   0  0  0  0  0  0  0  0  0  0  0  0
  132.1810   74.4980  226.9850 C   0  0  0  0  0  0  0  0  0  0  0  0
  132.1710   73.1010  226.9930 C   0  0  0  0  0  0  0  0  0  0  0  0
  133.2370   72.3960  226.4330 C   0  0  0  0  0  0  0  0  0  0  0  0
  133.2070   70.6500  226.4540 Cl  0  0  0  0  0  0  0  0  0  0  0  0
  134.3080   73.0740  225.8670 C   0  0  0  0  0  0  0  0  0  0  0  0
  134.3300   74.4570  225.8520 C   0  0  0  0  0  0  0  0  0  0  0  0
  135.4480   75.2420  225.2660 C   0  0  0  0  0  0  0  0  0  0  0  0
  138.2940   74.7120  221.9870 C   0  0  0  0  0  0  0  0  0  0  0  0
  139.2340   75.4930  221.1070 C   0  0  0  0  0  0  0  0  0  0  0  0
  143.7724   76.9370  218.8263 H   0  0  0  0  0  0  0  0  0  0  0  0
  142.7389   76.2906  217.5070 H   0  0  0  0  0  0  0  0  0  0  0  0
  143.2170   78.0221  217.5070 H   0  0  0  0  0  0  0  0  0  0  0  0
  141.6313   78.6043  219.0691 H   0  0  0  0  0  0  0  0  0  0  0  0
  140.8141   77.1243  218.4122 H   0  0  0  0  0  0  0  0  0  0  0  0
  141.4852   79.4807  220.2312 H   0  0  0  0  0  0  0  0  0  0  0  0
  142.3513   81.5932  221.2811 H   0  0  0  0  0  0  0  0  0  0  0  0
  142.7679   81.6066  223.7208 H   0  0  0  0  0  0  0  0  0  0  0  0
  142.3594   79.6222  225.1233 H   0  0  0  0  0  0  0  0  0  0  0  0
  141.4886   77.5034  224.0621 H   0  0  0  0  0  0  0  0  0  0  0  0
  140.2021   76.2742  222.8651 H   0  0  0  0  0  0  0  0  0  0  0  0
  138.9297   78.5351  222.5398 H   0  0  0  0  0  0  0  0  0  0  0  0
  138.0969   77.8243  221.1665 H   0  0  0  0  0  0  0  0  0  0  0  0
  138.2598   76.6164  224.0166 H   0  0  0  0  0  0  0  0  0  0  0  0
  136.8123   77.4387  223.2899 H   0  0  0  0  0  0  0  0  0  0  0  0
  134.5109   76.4979  222.2545 H   0  0  0  0  0  0  0  0  0  0  0  0
  132.8950   74.9300  223.7540 H   0  0  0  0  0  0  0  0  0  0  0  0
  133.6190   73.9890  222.4650 H   0  0  0  0  0  0  0  0  0  0  0  0
  135.5846   77.1514  224.3774 H   0  0  0  0  0  0  0  0  0  0  0  0
  133.6191   77.9896  224.6858 H   0  0  0  0  0  0  0  0  0  0  0  0
  132.7716   76.4338  224.2936 H   0  0  0  0  0  0  0  0  0  0  0  0
  134.2014   77.0057  226.9584 H   0  0  0  0  0  0  0  0  0  0  0  0
  132.4709   77.1484  226.7548 H   0  0  0  0  0  0  0  0  0  0  0  0
  131.3521   75.0742  227.4219 H   0  0  0  0  0  0  0  0  0  0  0  0
  131.3249   72.5582  227.4396 H   0  0  0  0  0  0  0  0  0  0  0  0
  135.1434   72.5086  225.4282 H   0  0  0  0  0  0  0  0  0  0  0  0
  136.0360   75.7061  226.0715 H   0  0  0  0  0  0  0  0  0  0  0  0
  136.1026   74.5802  224.6800 H   0  0  0  0  0  0  0  0  0  0  0  0
  138.8682   74.2613  222.8100 H   0  0  0  0  0  0  0  0  0  0  0  0
  137.8123   73.9381  221.3714 H   0  0  0  0  0  0  0  0  0  0  0  0
  140.0529   74.8418  220.7675 H   0  0  0  0  0  0  0  0  0  0  0  0
  138.6982   75.8750  220.2255 H   0  0  0  0  0  0  0  0  0  0  0  0
  1  2  1  0
  2  3  1  0
  3  4  2  0
  3  5  1  0
  5  6  1  0
  6  7  2  0
  7  8  1  0
  8  9  2  0
  9 10  1  0
 10 11  2  0
  5 12  1  0
 12 13  1  0
 13 14  1  0
 14 15  1  0
 15 16  1  0
 16 17  2  0
 16 18  1  0
 18 19  1  0
 18 20  1  0
 20 21  1  0
 21 22  1  0
 22 23  1  0
 23 24  2  0
 24 25  1  0
 25 26  2  0
 26 27  1  0
 26 28  1  0
 28 29  2  0
 29 30  1  0
 15 31  1  0
 31 32  1  0
 11  6  1  0
 32 12  1  0
 30 20  1  0
 29 23  1  0
  1 33  1  0
  1 34  1  0
  1 35  1  0
  2 36  1  0
  2 37  1  0
  7 38  1  0
  8 39  1  0
  9 40  1  0
 10 41  1  0
 11 42  1  0
 12 43  1  0
 13 44  1  0
 13 45  1  0
 14 46  1  0
 14 47  1  0
 18 48  1  6
 19 49  1  0
 19 50  1  0
 20 51  1  6
 21 52  1  0
 21 53  1  0
 22 54  1  0
 22 55  1  0
 24 56  1  0
 25 57  1  0
 28 58  1  0
 30 59  1  0
 30 60  1  0
 31 61  1  0
 31 62  1  0
 32 63  1  0
 32 64  1  0
M  END
>  <smiles>  (87) 
CCC(=O)N(c1ccccc1)C1CCN(C(=O)[C@@H](N)C2CCc3ccc(Cl)cc3C2)CC1

>  <score_type>  (87) 
oracle

>  <origin>  (87) 
autodockgpu

>  <m_score__min__energy>  (87) 
-7.6799999999999997

>  <m_primary>  (87) 
energy

>  <rmsd>  (87) 
7.800700277604581

>  <m_score__min__rmsd>  (87) 
7.800700277604581

>  <meeko>  (87) 
{"free_energy": -6.83, "intermolecular_energy": -8.92, "internal_energy": -2.29, "cluster_size": 13, "cluster_id": 6, "rank_in_cluster": 3}

>  <energy>  (87) 
-6.83

>  <cluster_rmsd>  (87) 
0.14

>  <cluster>  (87) 
6

$$$$

     RDKit          3D

 64 67  0  0  0  0  0  0  0  0999 V2000
  137.9130   83.6930  222.0470 C   0  0  0  0  0  0  0  0  0  0  0  0
  136.6860   84.2260  222.7950 C   0  0  0  0  0  0  0  0  0  0  0  0
  136.5890   83.6700  224.1390 C   0  0  0  0  0  0  0  0  0  0  0  0
  136.5980   84.5080  225.1100 O   0  0  0  0  0  0  0  0  0  0  0  0
  136.4850   82.3170  224.5040 N   0  0  0  0  0  0  0  0  0  0  0  0
  135.9550   82.0910  225.8460 C   0  0  0  0  0  0  0  0  0  0  0  0
  136.9260   81.8300  226.7980 C   0  0  0  0  0  0  0  0  0  0  0  0
  136.5350   81.6010  228.1060 C   0  0  0  0  0  0  0  0  0  0  0  0
  135.1860   81.6480  228.3880 C   0  0  0  0  0  0  0  0  0  0  0  0
  134.2270   81.9100  227.4260 C   0  0  0  0  0  0  0  0  0  0  0  0
  134.6210   82.1410  226.1070 C   0  0  0  0  0  0  0  0  0  0  0  0
  136.8200   81.1750  223.7400 C   0  0  0  0  0  0  0  0  0  0  0  0
  138.1400   80.5130  224.1240 C   0  0  0  0  0  0  0  0  0  0  0  0
  138.5010   79.6670  222.8880 C   0  0  0  0  0  0  0  0  0  0  0  0
  137.5170   78.6610  222.6150 N   0  0  0  0  0  0  0  0  0  0  0  0
  137.7210   77.2910  222.3780 C   0  0  0  0  0  0  0  0  0  0  0  0
  136.6760   76.5910  222.1550 O   0  0  0  0  0  0  0  0  0  0  0  0
  138.9860   76.5410  222.3520 C   0  0  1  0  0  0  0  0  0  0  0  0
  138.9240   75.1720  222.7000 N   0  0  0  0  0  0  0  0  0  0  0  0
  139.7390   76.7530  221.0350 C   0  0  1  0  0  0  0  0  0  0  0  0
  139.0610   77.8000  220.2170 C   0  0  0  0  0  0  0  0  0  0  0  0
  140.0720   78.7260  219.5180 C   0  0  0  0  0  0  0  0  0  0  0  0
  140.7790   79.3830  220.6810 C   0  0  0  0  0  0  0  0  0  0  0  0
  140.8640   80.7540  220.7930 C   0  0  0  0  0  0  0  0  0  0  0  0
  141.5320   81.2790  221.9020 C   0  0  0  0  0  0  0  0  0  0  0  0
  142.0860   80.4180  222.8500 C   0  0  0  0  0  0  0  0  0  0  0  0
  142.9180   81.0920  224.2290 Cl  0  0  0  0  0  0  0  0  0  0  0  0
  141.9770   79.0420  222.6980 C   0  0  0  0  0  0  0  0  0  0  0  0
  141.3180   78.5100  221.6040 C   0  0  0  0  0  0  0  0  0  0  0  0
  141.1710   77.0470  221.3820 C   0  0  0  0  0  0  0  0  0  0  0  0
  136.1300   79.1390  222.5800 C   0  0  0  0  0  0  0  0  0  0  0  0
  135.8220   80.0460  223.7430 C   0  0  0  0  0  0  0  0  0  0  0  0
  138.6708   83.3638  222.7733 H   0  0  0  0  0  0  0  0  0  0  0  0
  137.6166   82.8425  221.4155 H   0  0  0  0  0  0  0  0  0  0  0  0
  138.3323   84.4901  221.4155 H   0  0  0  0  0  0  0  0  0  0  0  0
  136.7606   85.3211  222.8670 H   0  0  0  0  0  0  0  0  0  0  0  0
  135.7874   83.9275  222.2353 H   0  0  0  0  0  0  0  0  0  0  0  0
  137.9899   81.8051  226.5197 H   0  0  0  0  0  0  0  0  0  0  0  0
  137.2742   81.3890  228.8926 H   0  0  0  0  0  0  0  0  0  0  0  0
  134.8582   81.4694  229.4227 H   0  0  0  0  0  0  0  0  0  0  0  0
  133.1616   81.9361  227.6986 H   0  0  0  0  0  0  0  0  0  0  0  0
  133.8871   82.3535  225.3157 H   0  0  0  0  0  0  0  0  0  0  0  0
  136.8626   81.6451  222.7464 H   0  0  0  0  0  0  0  0  0  0  0  0
  138.9145   81.2688  224.3212 H   0  0  0  0  0  0  0  0  0  0  0  0
  138.0630   79.9125  225.0424 H   0  0  0  0  0  0  0  0  0  0  0  0
  138.5804   80.3312  222.0148 H   0  0  0  0  0  0  0  0  0  0  0  0
  139.4553   79.1596  223.0927 H   0  0  0  0  0  0  0  0  0  0  0  0
  139.5585   76.9853  223.1796 H   0  0  0  0  0  0  0  0  0  0  0  0
  137.9770   74.7430  222.7380 H   0  0  0  0  0  0  0  0  0  0  0  0
  139.5670   74.8790  223.4670 H   0  0  0  0  0  0  0  0  0  0  0  0
  139.7308   75.8579  220.3956 H   0  0  0  0  0  0  0  0  0  0  0  0
  138.4415   77.3083  219.4525 H   0  0  0  0  0  0  0  0  0  0  0  0
  138.4458   78.4140  220.8911 H   0  0  0  0  0  0  0  0  0  0  0  0
  140.7762   78.1499  218.8998 H   0  0  0  0  0  0  0  0  0  0  0  0
  139.6029   79.4445  218.8297 H   0  0  0  0  0  0  0  0  0  0  0  0
  140.4199   81.4140  220.0333 H   0  0  0  0  0  0  0  0  0  0  0  0
  141.6210   82.3682  222.0275 H   0  0  0  0  0  0  0  0  0  0  0  0
  142.4168   78.3717  223.4511 H   0  0  0  0  0  0  0  0  0  0  0  0
  141.8244   76.7307  220.5556 H   0  0  0  0  0  0  0  0  0  0  0  0
  141.4555   76.4996  222.2927 H   0  0  0  0  0  0  0  0  0  0  0  0
  135.9677   79.6929  221.6436 H   0  0  0  0  0  0  0  0  0  0  0  0
  135.4651   78.2649  222.6422 H   0  0  0  0  0  0  0  0  0  0  0  0
  134.8038   80.4494  223.6406 H   0  0  0  0  0  0  0  0  0  0  0  0
  135.8862   79.4860  224.6876 H   0  0  0  0  0  0  0  0  0  0  0  0
  1  2  1  0
  2  3  1  0
  3  4  2  0
  3  5  1  0
  5  6  1  0
  6  7  2  0
  7  8  1  0
  8  9  2  0
  9 10  1  0
 10 11  2  0
  5 12  1  0
 12 13  1  0
 13 14  1  0
 14 15  1  0
 15 16  1  0
 16 17  2  0
 16 18  1  0
 18 19  1  0
 18 20  1  0
 20 21  1  0
 21 22  1  0
 22 23  1  0
 23 24  2  0
 24 25  1  0
 25 26  2  0
 26 27  1  0
 26 28  1  0
 28 29  2  0
 29 30  1  0
 15 31  1  0
 31 32  1  0
 11  6  1  0
 32 12  1  0
 30 20  1  0
 29 23  1  0
  1 33  1  0
  1 34  1  0
  1 35  1  0
  2 36  1  0
  2 37  1  0
  7 38  1  0
  8 39  1  0
  9 40  1  0
 10 41  1  0
 11 42  1  0
 12 43  1  0
 13 44  1  0
 13 45  1  0
 14 46  1  0
 14 47  1  0
 18 48  1  1
 19 49  1  0
 19 50  1  0
 20 51  1  6
 21 52  1  0
 21 53  1  0
 22 54  1  0
 22 55  1  0
 24 56  1  0
 25 57  1  0
 28 58  1  0
 30 59  1  0
 30 60  1  0
 31 61  1  0
 31 62  1  0
 32 63  1  0
 32 64  1  0
M  END
>  <smiles>  (88) 
CCC(=O)N(c1ccccc1)C1CCN(C(=O)[C@@H](N)C2CCc3ccc(Cl)cc3C2)CC1

>  <score_type>  (88) 
oracle

>  <origin>  (88) 
autodockgpu

>  <m_score__min__energy>  (88) 
-7.6799999999999997

>  <m_primary>  (88) 
energy

>  <rmsd>  (88) 
6.195942847410576

>  <m_score__min__rmsd>  (88) 
6.195942847410576

>  <meeko>  (88) 
{"free_energy": -6.83, "intermolecular_energy": -8.92, "internal_energy": -2.9, "cluster_size": 17, "cluster_id": 4, "rank_in_cluster": 2}

>  <energy>  (88) 
-6.82

>  <cluster_rmsd>  (88) 
0.55

>  <cluster>  (88) 
6

$$$$

     RDKit          3D

 64 67  0  0  0  0  0  0  0  0999 V2000
  138.0880   83.4070  221.9980 C   0  0  0  0  0  0  0  0  0  0  0  0
  136.7740   83.8990  222.6170 C   0  0  0  0  0  0  0  0  0  0  0  0
  136.5760   83.3660  223.9580 C   0  0  0  0  0  0  0  0  0  0  0  0
  136.4350   84.2210  224.9030 O   0  0  0  0  0  0  0  0  0  0  0  0
  136.5170   82.0160  224.3460 N   0  0  0  0  0  0  0  0  0  0  0  0
  135.9800   81.7940  225.6850 C   0  0  0  0  0  0  0  0  0  0  0  0
  136.9330   81.8380  226.6890 C   0  0  0  0  0  0  0  0  0  0  0  0
  136.5350   81.6400  228.0000 C   0  0  0  0  0  0  0  0  0  0  0  0
  135.1950   81.4100  228.2320 C   0  0  0  0  0  0  0  0  0  0  0  0
  134.2530   81.3700  227.2190 C   0  0  0  0  0  0  0  0  0  0  0  0
  134.6560   81.5680  225.8990 C   0  0  0  0  0  0  0  0  0  0  0  0
  136.9030   80.8740  223.6060 C   0  0  0  0  0  0  0  0  0  0  0  0
  138.2540   80.2820  224.0020 C   0  0  0  0  0  0  0  0  0  0  0  0
  138.6520   79.4270  222.7830 C   0  0  0  0  0  0  0  0  0  0  0  0
  137.7150   78.3700  222.5350 N   0  0  0  0  0  0  0  0  0  0  0  0
  137.9820   77.0070  222.3280 C   0  0  0  0  0  0  0  0  0  0  0  0
  136.9700   76.2550  222.1220 O   0  0  0  0  0  0  0  0  0  0  0  0
  139.2800   76.3160  222.3150 C   0  0  1  0  0  0  0  0  0  0  0  0
  139.2760   74.9430  222.6540 N   0  0  0  0  0  0  0  0  0  0  0  0
  140.0410   76.5710  221.0100 C   0  0  1  0  0  0  0  0  0  0  0  0
  139.3040   77.5580  220.1700 C   0  0  0  0  0  0  0  0  0  0  0  0
  140.2590   78.5500  219.4800 C   0  0  0  0  0  0  0  0  0  0  0  0
  140.8930   79.2670  220.6490 C   0  0  0  0  0  0  0  0  0  0  0  0
  140.8770   80.6410  220.7490 C   0  0  0  0  0  0  0  0  0  0  0  0
  141.4840   81.2220  221.8660 C   0  0  0  0  0  0  0  0  0  0  0  0
  142.0800   80.4110  222.8320 C   0  0  0  0  0  0  0  0  0  0  0  0
  142.8350   81.1560  224.2200 Cl  0  0  0  0  0  0  0  0  0  0  0  0
  142.0750   79.0300  222.6910 C   0  0  0  0  0  0  0  0  0  0  0  0
  141.4770   78.4420  221.5910 C   0  0  0  0  0  0  0  0  0  0  0  0
  141.4400   76.9710  221.3800 C   0  0  0  0  0  0  0  0  0  0  0  0
  136.3070   78.7830  222.4930 C   0  0  0  0  0  0  0  0  0  0  0  0
  135.9590   79.7000  223.6360 C   0  0  0  0  0  0  0  0  0  0  0  0
  138.7942   83.1426  222.7989 H   0  0  0  0  0  0  0  0  0  0  0  0
  137.8912   82.5216  221.3756 H   0  0  0  0  0  0  0  0  0  0  0  0
  138.5211   84.2039  221.3756 H   0  0  0  0  0  0  0  0  0  0  0  0
  136.7944   84.9975  222.6697 H   0  0  0  0  0  0  0  0  0  0  0  0
  135.9452   83.5494  221.9838 H   0  0  0  0  0  0  0  0  0  0  0  0
  137.9895   82.0273  226.4484 H   0  0  0  0  0  0  0  0  0  0  0  0
  137.2607   81.6652  228.8263 H   0  0  0  0  0  0  0  0  0  0  0  0
  134.8604   81.2514  229.2678 H   0  0  0  0  0  0  0  0  0  0  0  0
  133.1946   81.1835  227.4534 H   0  0  0  0  0  0  0  0  0  0  0  0
  133.9356   81.5426  225.0681 H   0  0  0  0  0  0  0  0  0  0  0  0
  136.9215   81.3236  222.6023 H   0  0  0  0  0  0  0  0  0  0  0  0
  138.9929   81.0770  224.1812 H   0  0  0  0  0  0  0  0  0  0  0  0
  138.2064   79.6988  224.9335 H   0  0  0  0  0  0  0  0  0  0  0  0
  138.6984   80.0751  221.8954 H   0  0  0  0  0  0  0  0  0  0  0  0
  139.6295   78.9695  222.9954 H   0  0  0  0  0  0  0  0  0  0  0  0
  139.8201   76.7807  223.1531 H   0  0  0  0  0  0  0  0  0  0  0  0
  139.9660   74.3390  222.1620 H   0  0  0  0  0  0  0  0  0  0  0  0
  138.3330   74.5170  222.7730 H   0  0  0  0  0  0  0  0  0  0  0  0
  140.1108   75.6725  220.3793 H   0  0  0  0  0  0  0  0  0  0  0  0
  138.7365   77.0158  219.3993 H   0  0  0  0  0  0  0  0  0  0  0  0
  138.6327   78.1310  220.8265 H   0  0  0  0  0  0  0  0  0  0  0  0
  141.0153   78.0215  218.8812 H   0  0  0  0  0  0  0  0  0  0  0  0
  139.7523   79.2260  218.7755 H   0  0  0  0  0  0  0  0  0  0  0  0
  140.4017   81.2610  219.9745 H   0  0  0  0  0  0  0  0  0  0  0  0
  141.4917   82.3157  221.9830 H   0  0  0  0  0  0  0  0  0  0  0  0
  142.5491   78.4000  223.4580 H   0  0  0  0  0  0  0  0  0  0  0  0
  142.1300   76.6963  220.5686 H   0  0  0  0  0  0  0  0  0  0  0  0
  141.7458   76.4532  222.3011 H   0  0  0  0  0  0  0  0  0  0  0  0
  136.1180   79.3080  221.5450 H   0  0  0  0  0  0  0  0  0  0  0  0
  135.6833   77.8807  222.5763 H   0  0  0  0  0  0  0  0  0  0  0  0
  134.9229   80.0531  223.5272 H   0  0  0  0  0  0  0  0  0  0  0  0
  136.0509   79.1646  224.5925 H   0  0  0  0  0  0  0  0  0  0  0  0
  1  2  1  0
  2  3  1  0
  3  4  2  0
  3  5  1  0
  5  6  1  0
  6  7  2  0
  7  8  1  0
  8  9  2  0
  9 10  1  0
 10 11  2  0
  5 12  1  0
 12 13  1  0
 13 14  1  0
 14 15  1  0
 15 16  1  0
 16 17  2  0
 16 18  1  0
 18 19  1  0
 18 20  1  0
 20 21  1  0
 21 22  1  0
 22 23  1  0
 23 24  2  0
 24 25  1  0
 25 26  2  0
 26 27  1  0
 26 28  1  0
 28 29  2  0
 29 30  1  0
 15 31  1  0
 31 32  1  0
 11  6  1  0
 32 12  1  0
 30 20  1  0
 29 23  1  0
  1 33  1  0
  1 34  1  0
  1 35  1  0
  2 36  1  0
  2 37  1  0
  7 38  1  0
  8 39  1  0
  9 40  1  0
 10 41  1  0
 11 42  1  0
 12 43  1  0
 13 44  1  0
 13 45  1  0
 14 46  1  0
 14 47  1  0
 18 48  1  1
 19 49  1  0
 19 50  1  0
 20 51  1  6
 21 52  1  0
 21 53  1  0
 22 54  1  0
 22 55  1  0
 24 56  1  0
 25 57  1  0
 28 58  1  0
 30 59  1  0
 30 60  1  0
 31 61  1  0
 31 62  1  0
 32 63  1  0
 32 64  1  0
M  END
>  <smiles>  (89) 
CCC(=O)N(c1ccccc1)C1CCN(C(=O)[C@@H](N)C2CCc3ccc(Cl)cc3C2)CC1

>  <score_type>  (89) 
oracle

>  <origin>  (89) 
autodockgpu

>  <m_score__min__energy>  (89) 
-7.6799999999999997

>  <m_primary>  (89) 
energy

>  <rmsd>  (89) 
6.071301283536025

>  <m_score__min__rmsd>  (89) 
6.071301283536025

>  <meeko>  (89) 
{"free_energy": -6.66, "intermolecular_energy": -8.75, "internal_energy": -2.9, "cluster_size": 17, "cluster_id": 4, "rank_in_cluster": 10}

>  <energy>  (89) 
-6.82

>  <cluster_rmsd>  (89) 
0.64

>  <cluster>  (89) 
6

$$$$

     RDKit          3D

 64 67  0  0  0  0  0  0  0  0999 V2000
  142.5220   74.8570  220.4480 C   0  0  0  0  0  0  0  0  0  0  0  0
  142.6810   76.2740  219.8870 C   0  0  0  0  0  0  0  0  0  0  0  0
  141.4690   77.0640  220.0640 C   0  0  0  0  0  0  0  0  0  0  0  0
  140.9330   77.5430  219.0020 O   0  0  0  0  0  0  0  0  0  0  0  0
  140.8080   77.3650  221.2680 N   0  0  0  0  0  0  0  0  0  0  0  0
  141.3910   78.4750  222.0160 C   0  0  0  0  0  0  0  0  0  0  0  0
  141.4400   78.2680  223.3840 C   0  0  0  0  0  0  0  0  0  0  0  0
  141.9740   79.2570  224.1920 C   0  0  0  0  0  0  0  0  0  0  0  0
  142.4330   80.4040  223.5790 C   0  0  0  0  0  0  0  0  0  0  0  0
  142.3790   80.5970  222.2100 C   0  0  0  0  0  0  0  0  0  0  0  0
  141.8400   79.6000  221.3960 C   0  0  0  0  0  0  0  0  0  0  0  0
  139.6700   76.7380  221.8230 C   0  0  0  0  0  0  0  0  0  0  0  0
  138.4770   77.6630  222.0530 C   0  0  0  0  0  0  0  0  0  0  0  0
  137.6120   76.9010  223.0760 C   0  0  0  0  0  0  0  0  0  0  0  0
  137.1550   75.6420  222.5660 N   0  0  0  0  0  0  0  0  0  0  0  0
  135.8480   75.1280  222.5690 C   0  0  0  0  0  0  0  0  0  0  0  0
  135.6910   73.9700  222.0550 O   0  0  0  0  0  0  0  0  0  0  0  0
  134.6190   75.7470  223.0890 C   0  0  1  0  0  0  0  0  0  0  0  0
  133.4350   74.9760  223.0160 N   0  0  0  0  0  0  0  0  0  0  0  0
  134.8280   76.3240  224.4920 C   0  0  1  0  0  0  0  0  0  0  0  0
  133.5510   76.8950  225.0100 C   0  0  0  0  0  0  0  0  0  0  0  0
  133.3490   76.5880  226.5050 C   0  0  0  0  0  0  0  0  0  0  0  0
  133.2650   75.0790  226.5250 C   0  0  0  0  0  0  0  0  0  0  0  0
  132.1990   74.4230  227.1020 C   0  0  0  0  0  0  0  0  0  0  0  0
  132.1990   73.0260  227.0730 C   0  0  0  0  0  0  0  0  0  0  0  0
  133.2580   72.3440  226.4730 C   0  0  0  0  0  0  0  0  0  0  0  0
  133.2400   70.5980  226.4480 Cl  0  0  0  0  0  0  0  0  0  0  0  0
  134.3130   73.0460  225.9040 C   0  0  0  0  0  0  0  0  0  0  0  0
  134.3250   74.4280  225.9260 C   0  0  0  0  0  0  0  0  0  0  0  0
  135.4260   75.2360  225.3380 C   0  0  0  0  0  0  0  0  0  0  0  0
  138.1980   74.7940  221.9740 C   0  0  0  0  0  0  0  0  0  0  0  0
  139.0970   75.5760  221.0530 C   0  0  0  0  0  0  0  0  0  0  0  0
  142.5263   74.8953  221.5473 H   0  0  0  0  0  0  0  0  0  0  0  0
  141.5702   74.4294  220.0997 H   0  0  0  0  0  0  0  0  0  0  0  0
  143.3553   74.2291  220.0997 H   0  0  0  0  0  0  0  0  0  0  0  0
  143.5109   76.7728  220.4090 H   0  0  0  0  0  0  0  0  0  0  0  0
  142.8837   76.1947  218.8087 H   0  0  0  0  0  0  0  0  0  0  0  0
  141.0608   77.3328  223.8217 H   0  0  0  0  0  0  0  0  0  0  0  0
  142.0302   79.1326  225.2835 H   0  0  0  0  0  0  0  0  0  0  0  0
  142.8608   81.2002  224.2059 H   0  0  0  0  0  0  0  0  0  0  0  0
  142.7582   81.5295  221.7666 H   0  0  0  0  0  0  0  0  0  0  0  0
  141.7808   79.7180  220.3039 H   0  0  0  0  0  0  0  0  0  0  0  0
  140.1158   76.3892  222.7662 H   0  0  0  0  0  0  0  0  0  0  0  0
  138.8045   78.6308  222.4606 H   0  0  0  0  0  0  0  0  0  0  0  0
  137.9334   77.8944  221.1251 H   0  0  0  0  0  0  0  0  0  0  0  0
  138.2101   76.7206  223.9814 H   0  0  0  0  0  0  0  0  0  0  0  0
  136.7280   77.5173  223.2970 H   0  0  0  0  0  0  0  0  0  0  0  0
  134.4313   76.5656  222.3786 H   0  0  0  0  0  0  0  0  0  0  0  0
  132.8370   74.9600  223.8670 H   0  0  0  0  0  0  0  0  0  0  0  0
  133.5330   74.0570  222.5340 H   0  0  0  0  0  0  0  0  0  0  0  0
  135.5294   77.1713  224.4989 H   0  0  0  0  0  0  0  0  0  0  0  0
  133.5667   77.9859  224.8700 H   0  0  0  0  0  0  0  0  0  0  0  0
  132.7214   76.4354  224.4527 H   0  0  0  0  0  0  0  0  0  0  0  0
  134.2006   76.9460  227.1022 H   0  0  0  0  0  0  0  0  0  0  0  0
  132.4652   77.0805  226.9366 H   0  0  0  0  0  0  0  0  0  0  0  0
  131.3749   74.9812  227.5702 H   0  0  0  0  0  0  0  0  0  0  0  0
  131.3660   72.4653  227.5221 H   0  0  0  0  0  0  0  0  0  0  0  0
  135.1434   72.4991  225.4334 H   0  0  0  0  0  0  0  0  0  0  0  0
  136.0281   75.6822  226.1432 H   0  0  0  0  0  0  0  0  0  0  0  0
  136.0724   74.5947  224.7209 H   0  0  0  0  0  0  0  0  0  0  0  0
  138.8058   74.3606  222.7819 H   0  0  0  0  0  0  0  0  0  0  0  0
  137.7055   74.0066  221.3846 H   0  0  0  0  0  0  0  0  0  0  0  0
  139.9118   74.9308  220.6927 H   0  0  0  0  0  0  0  0  0  0  0  0
  138.5259   75.9409  220.1866 H   0  0  0  0  0  0  0  0  0  0  0  0
  1  2  1  0
  2  3  1  0
  3  4  2  0
  3  5  1  0
  5  6  1  0
  6  7  2  0
  7  8  1  0
  8  9  2  0
  9 10  1  0
 10 11  2  0
  5 12  1  0
 12 13  1  0
 13 14  1  0
 14 15  1  0
 15 16  1  0
 16 17  2  0
 16 18  1  0
 18 19  1  0
 18 20  1  0
 20 21  1  0
 21 22  1  0
 22 23  1  0
 23 24  2  0
 24 25  1  0
 25 26  2  0
 26 27  1  0
 26 28  1  0
 28 29  2  0
 29 30  1  0
 15 31  1  0
 31 32  1  0
 11  6  1  0
 32 12  1  0
 30 20  1  0
 29 23  1  0
  1 33  1  0
  1 34  1  0
  1 35  1  0
  2 36  1  0
  2 37  1  0
  7 38  1  0
  8 39  1  0
  9 40  1  0
 10 41  1  0
 11 42  1  0
 12 43  1  0
 13 44  1  0
 13 45  1  0
 14 46  1  0
 14 47  1  0
 18 48  1  6
 19 49  1  0
 19 50  1  0
 20 51  1  6
 21 52  1  0
 21 53  1  0
 22 54  1  0
 22 55  1  0
 24 56  1  0
 25 57  1  0
 28 58  1  0
 30 59  1  0
 30 60  1  0
 31 61  1  0
 31 62  1  0
 32 63  1  0
 32 64  1  0
M  END
>  <smiles>  (90) 
CCC(=O)N(c1ccccc1)C1CCN(C(=O)[C@@H](N)C2CCc3ccc(Cl)cc3C2)CC1

>  <score_type>  (90) 
oracle

>  <origin>  (90) 
autodockgpu

>  <m_score__min__energy>  (90) 
-7.6799999999999997

>  <m_primary>  (90) 
energy

>  <rmsd>  (90) 
7.831921821685728

>  <m_score__min__rmsd>  (90) 
7.831921821685728

>  <meeko>  (90) 
{"free_energy": -6.8, "intermolecular_energy": -8.89, "internal_energy": -2.45, "cluster_size": 13, "cluster_id": 6, "rank_in_cluster": 7}

>  <energy>  (90) 
-6.81

>  <cluster_rmsd>  (90) 
0.27

>  <cluster>  (90) 
6

$$$$

     RDKit          3D

 64 67  0  0  0  0  0  0  0  0999 V2000
  142.4480   74.8500  220.4670 C   0  0  0  0  0  0  0  0  0  0  0  0
  142.6320   76.2460  219.8630 C   0  0  0  0  0  0  0  0  0  0  0  0
  141.4640   77.0890  220.0870 C   0  0  0  0  0  0  0  0  0  0  0  0
  140.9610   77.6620  219.0560 O   0  0  0  0  0  0  0  0  0  0  0  0
  140.8160   77.3520  221.3060 N   0  0  0  0  0  0  0  0  0  0  0  0
  141.4230   78.4180  222.0970 C   0  0  0  0  0  0  0  0  0  0  0  0
  141.8340   79.5090  221.3500 C   0  0  0  0  0  0  0  0  0  0  0  0
  142.4250   80.5800  221.9980 C   0  0  0  0  0  0  0  0  0  0  0  0
  142.5700   80.4980  223.3660 C   0  0  0  0  0  0  0  0  0  0  0  0
  142.1540   79.4010  224.1010 C   0  0  0  0  0  0  0  0  0  0  0  0
  141.5590   78.3220  223.4470 C   0  0  0  0  0  0  0  0  0  0  0  0
  139.6680   76.7220  221.8410 C   0  0  0  0  0  0  0  0  0  0  0  0
  138.4760   77.6490  222.0670 C   0  0  0  0  0  0  0  0  0  0  0  0
  137.5970   76.8800  223.0710 C   0  0  0  0  0  0  0  0  0  0  0  0
  137.1420   75.6270  222.5430 N   0  0  0  0  0  0  0  0  0  0  0  0
  135.8320   75.1180  222.5250 C   0  0  0  0  0  0  0  0  0  0  0  0
  135.6770   73.9660  221.9960 O   0  0  0  0  0  0  0  0  0  0  0  0
  134.5990   75.7360  223.0370 C   0  0  1  0  0  0  0  0  0  0  0  0
  133.4190   74.9600  222.9650 N   0  0  0  0  0  0  0  0  0  0  0  0
  134.8020   76.3230  224.4360 C   0  0  1  0  0  0  0  0  0  0  0  0
  133.5190   76.8800  224.9520 C   0  0  0  0  0  0  0  0  0  0  0  0
  133.3220   76.5790  226.4490 C   0  0  0  0  0  0  0  0  0  0  0  0
  133.2560   75.0700  226.4770 C   0  0  0  0  0  0  0  0  0  0  0  0
  132.1990   74.4030  227.0580 C   0  0  0  0  0  0  0  0  0  0  0  0
  132.2160   73.0070  227.0360 C   0  0  0  0  0  0  0  0  0  0  0  0
  133.2830   72.3340  226.4400 C   0  0  0  0  0  0  0  0  0  0  0  0
  133.2870   70.5880  226.4240 Cl  0  0  0  0  0  0  0  0  0  0  0  0
  134.3290   73.0460  225.8660 C   0  0  0  0  0  0  0  0  0  0  0  0
  134.3240   74.4290  225.8810 C   0  0  0  0  0  0  0  0  0  0  0  0
  135.4140   75.2470  225.2880 C   0  0  0  0  0  0  0  0  0  0  0  0
  138.1880   74.7820  221.9540 C   0  0  0  0  0  0  0  0  0  0  0  0
  139.1010   75.5710  221.0520 C   0  0  0  0  0  0  0  0  0  0  0  0
  142.4574   74.9212  221.5646 H   0  0  0  0  0  0  0  0  0  0  0  0
  141.4868   74.4306  220.1350 H   0  0  0  0  0  0  0  0  0  0  0  0
  143.2677   74.1959  220.1350 H   0  0  0  0  0  0  0  0  0  0  0  0
  143.5091   76.7219  220.3259 H   0  0  0  0  0  0  0  0  0  0  0  0
  142.7709   76.1342  218.7776 H   0  0  0  0  0  0  0  0  0  0  0  0
  141.6931   79.5244  220.2592 H   0  0  0  0  0  0  0  0  0  0  0  0
  142.7667   81.4648  221.4409 H   0  0  0  0  0  0  0  0  0  0  0  0
  143.0366   81.3408  223.8970 H   0  0  0  0  0  0  0  0  0  0  0  0
  142.2916   79.3804  225.1922 H   0  0  0  0  0  0  0  0  0  0  0  0
  141.2155   77.4340  223.9979 H   0  0  0  0  0  0  0  0  0  0  0  0
  140.1009   76.3608  222.7855 H   0  0  0  0  0  0  0  0  0  0  0  0
  138.8023   78.6111  222.4887 H   0  0  0  0  0  0  0  0  0  0  0  0
  137.9440   77.8924  221.1355 H   0  0  0  0  0  0  0  0  0  0  0  0
  138.1836   76.6887  223.9816 H   0  0  0  0  0  0  0  0  0  0  0  0
  136.7123   77.4968  223.2872 H   0  0  0  0  0  0  0  0  0  0  0  0
  134.4096   76.5495  222.3212 H   0  0  0  0  0  0  0  0  0  0  0  0
  132.8230   74.9390  223.8180 H   0  0  0  0  0  0  0  0  0  0  0  0
  133.5190   74.0430  222.4810 H   0  0  0  0  0  0  0  0  0  0  0  0
  135.4929   77.1789  224.4371 H   0  0  0  0  0  0  0  0  0  0  0  0
  133.5205   77.9702  224.8059 H   0  0  0  0  0  0  0  0  0  0  0  0
  132.6950   76.4063  224.3982 H   0  0  0  0  0  0  0  0  0  0  0  0
  134.1698   76.9503  227.0434 H   0  0  0  0  0  0  0  0  0  0  0  0
  132.4329   77.0634  226.8789 H   0  0  0  0  0  0  0  0  0  0  0  0
  131.3683   74.9531  227.5243 H   0  0  0  0  0  0  0  0  0  0  0  0
  131.3896   72.4388  227.4878 H   0  0  0  0  0  0  0  0  0  0  0  0
  135.1654   72.5069  225.3972 H   0  0  0  0  0  0  0  0  0  0  0  0
  136.0109   75.7052  226.0903 H   0  0  0  0  0  0  0  0  0  0  0  0
  136.0680   74.6103  224.6740 H   0  0  0  0  0  0  0  0  0  0  0  0
  138.7847   74.3371  222.7639 H   0  0  0  0  0  0  0  0  0  0  0  0
  137.6994   74.0032  221.3501 H   0  0  0  0  0  0  0  0  0  0  0  0
  139.9180   74.9269  220.6947 H   0  0  0  0  0  0  0  0  0  0  0  0
  138.5417   75.9471  220.1826 H   0  0  0  0  0  0  0  0  0  0  0  0
  1  2  1  0
  2  3  1  0
  3  4  2  0
  3  5  1  0
  5  6  1  0
  6  7  2  0
  7  8  1  0
  8  9  2  0
  9 10  1  0
 10 11  2  0
  5 12  1  0
 12 13  1  0
 13 14  1  0
 14 15  1  0
 15 16  1  0
 16 17  2  0
 16 18  1  0
 18 19  1  0
 18 20  1  0
 20 21  1  0
 21 22  1  0
 22 23  1  0
 23 24  2  0
 24 25  1  0
 25 26  2  0
 26 27  1  0
 26 28  1  0
 28 29  2  0
 29 30  1  0
 15 31  1  0
 31 32  1  0
 11  6  1  0
 32 12  1  0
 30 20  1  0
 29 23  1  0
  1 33  1  0
  1 34  1  0
  1 35  1  0
  2 36  1  0
  2 37  1  0
  7 38  1  0
  8 39  1  0
  9 40  1  0
 10 41  1  0
 11 42  1  0
 12 43  1  0
 13 44  1  0
 13 45  1  0
 14 46  1  0
 14 47  1  0
 18 48  1  6
 19 49  1  0
 19 50  1  0
 20 51  1  6
 21 52  1  0
 21 53  1  0
 22 54  1  0
 22 55  1  0
 24 56  1  0
 25 57  1  0
 28 58  1  0
 30 59  1  0
 30 60  1  0
 31 61  1  0
 31 62  1  0
 32 63  1  0
 32 64  1  0
M  END
>  <smiles>  (91) 
CCC(=O)N(c1ccccc1)C1CCN(C(=O)[C@@H](N)C2CCc3ccc(Cl)cc3C2)CC1

>  <score_type>  (91) 
oracle

>  <origin>  (91) 
autodockgpu

>  <m_score__min__energy>  (91) 
-7.6799999999999997

>  <m_primary>  (91) 
energy

>  <rmsd>  (91) 
7.823251324623725

>  <m_score__min__rmsd>  (91) 
7.823251324623725

>  <meeko>  (91) 
{"free_energy": -6.78, "intermolecular_energy": -8.87, "internal_energy": -2.44, "cluster_size": 13, "cluster_id": 6, "rank_in_cluster": 10}

>  <energy>  (91) 
-6.8

>  <cluster_rmsd>  (91) 
0.63

>  <cluster>  (91) 
6

$$$$

     RDKit          3D

 64 67  0  0  0  0  0  0  0  0999 V2000
  134.8280   85.2380  225.1330 C   0  0  0  0  0  0  0  0  0  0  0  0
  136.2940   84.8050  225.2370 C   0  0  0  0  0  0  0  0  0  0  0  0
  136.5850   83.6690  224.3710 C   0  0  0  0  0  0  0  0  0  0  0  0
  136.9580   83.9380  223.1740 O   0  0  0  0  0  0  0  0  0  0  0  0
  136.5080   82.3030  224.6920 N   0  0  0  0  0  0  0  0  0  0  0  0
  136.0020   82.0240  226.0330 C   0  0  0  0  0  0  0  0  0  0  0  0
  134.6250   81.8940  226.1000 C   0  0  0  0  0  0  0  0  0  0  0  0
  134.0360   81.6290  227.3240 C   0  0  0  0  0  0  0  0  0  0  0  0
  134.8660   81.5080  228.4190 C   0  0  0  0  0  0  0  0  0  0  0  0
  136.2410   81.6410  228.3380 C   0  0  0  0  0  0  0  0  0  0  0  0
  136.8330   81.9080  227.1040 C   0  0  0  0  0  0  0  0  0  0  0  0
  136.8500   81.1930  223.8860 C   0  0  0  0  0  0  0  0  0  0  0  0
  138.1430   80.4860  224.2850 C   0  0  0  0  0  0  0  0  0  0  0  0
  138.5340   79.6930  223.0220 C   0  0  0  0  0  0  0  0  0  0  0  0
  137.5420   78.7220  222.6660 N   0  0  0  0  0  0  0  0  0  0  0  0
  137.7290   77.3610  222.3690 C   0  0  0  0  0  0  0  0  0  0  0  0
  136.6810   76.6940  222.0740 O   0  0  0  0  0  0  0  0  0  0  0  0
  138.9810   76.5880  222.3520 C   0  0  1  0  0  0  0  0  0  0  0  0
  138.8910   75.2210  222.7020 N   0  0  0  0  0  0  0  0  0  0  0  0
  139.7450   76.7830  221.0400 C   0  0  1  0  0  0  0  0  0  0  0  0
  139.0780   77.8230  220.2050 C   0  0  0  0  0  0  0  0  0  0  0  0
  140.0980   78.7390  219.5050 C   0  0  0  0  0  0  0  0  0  0  0  0
  140.7970   79.4060  220.6660 C   0  0  0  0  0  0  0  0  0  0  0  0
  140.8870   80.7780  220.7650 C   0  0  0  0  0  0  0  0  0  0  0  0
  141.5470   81.3120  221.8740 C   0  0  0  0  0  0  0  0  0  0  0  0
  142.0890   80.4590  222.8360 C   0  0  0  0  0  0  0  0  0  0  0  0
  142.9120   81.1450  224.2150 Cl  0  0  0  0  0  0  0  0  0  0  0  0
  141.9770   79.0820  222.6970 C   0  0  0  0  0  0  0  0  0  0  0  0
  141.3260   78.5400  221.6030 C   0  0  0  0  0  0  0  0  0  0  0  0
  141.1750   77.0760  221.3950 C   0  0  0  0  0  0  0  0  0  0  0  0
  136.1660   79.2290  222.6040 C   0  0  0  0  0  0  0  0  0  0  0  0
  135.8320   80.0850  223.7970 C   0  0  0  0  0  0  0  0  0  0  0  0
  134.4097   85.3616  226.1428 H   0  0  0  0  0  0  0  0  0  0  0  0
  134.7653   86.1930  224.5908 H   0  0  0  0  0  0  0  0  0  0  0  0
  134.2565   84.4703  224.5908 H   0  0  0  0  0  0  0  0  0  0  0  0
  136.9363   85.6490  224.9452 H   0  0  0  0  0  0  0  0  0  0  0  0
  136.4883   84.5016  226.2763 H   0  0  0  0  0  0  0  0  0  0  0  0
  134.0091   81.9997  225.1947 H   0  0  0  0  0  0  0  0  0  0  0  0
  132.9457   81.5189  227.4201 H   0  0  0  0  0  0  0  0  0  0  0  0
  134.4151   81.2965  229.3998 H   0  0  0  0  0  0  0  0  0  0  0  0
  136.8621   81.5369  229.2399 H   0  0  0  0  0  0  0  0  0  0  0  0
  137.9225   82.0198  227.0012 H   0  0  0  0  0  0  0  0  0  0  0  0
  136.9381   81.7100  222.9191 H   0  0  0  0  0  0  0  0  0  0  0  0
  138.9236   81.2154  224.5469 H   0  0  0  0  0  0  0  0  0  0  0  0
  138.0208   79.8436  225.1695 H   0  0  0  0  0  0  0  0  0  0  0  0
  138.6576   80.3967  222.1856 H   0  0  0  0  0  0  0  0  0  0  0  0
  139.4709   79.1574  223.2351 H   0  0  0  0  0  0  0  0  0  0  0  0
  139.5572   77.0237  223.1816 H   0  0  0  0  0  0  0  0  0  0  0  0
  137.9350   74.8140  222.7540 H   0  0  0  0  0  0  0  0  0  0  0  0
  139.5370   74.9140  223.4610 H   0  0  0  0  0  0  0  0  0  0  0  0
  139.7385   75.8807  220.4108 H   0  0  0  0  0  0  0  0  0  0  0  0
  138.4639   77.3249  219.4402 H   0  0  0  0  0  0  0  0  0  0  0  0
  138.4589   78.4460  220.8672 H   0  0  0  0  0  0  0  0  0  0  0  0
  140.8056   78.1543  218.8988 H   0  0  0  0  0  0  0  0  0  0  0  0
  139.6367   79.4516  218.8055 H   0  0  0  0  0  0  0  0  0  0  0  0
  140.4525   81.4319  219.9945 H   0  0  0  0  0  0  0  0  0  0  0  0
  141.6393   82.4021  221.9887 H   0  0  0  0  0  0  0  0  0  0  0  0
  142.4082   78.4183  223.4609 H   0  0  0  0  0  0  0  0  0  0  0  0
  141.8336   76.7488  220.5770 H   0  0  0  0  0  0  0  0  0  0  0  0
  141.4502   76.5374  222.3138 H   0  0  0  0  0  0  0  0  0  0  0  0
  136.0487   79.8301  221.6903 H   0  0  0  0  0  0  0  0  0  0  0  0
  135.4833   78.3665  222.5997 H   0  0  0  0  0  0  0  0  0  0  0  0
  134.8259   80.5133  223.6772 H   0  0  0  0  0  0  0  0  0  0  0  0
  135.8510   79.4790  224.7148 H   0  0  0  0  0  0  0  0  0  0  0  0
  1  2  1  0
  2  3  1  0
  3  4  2  0
  3  5  1  0
  5  6  1  0
  6  7  2  0
  7  8  1  0
  8  9  2  0
  9 10  1  0
 10 11  2  0
  5 12  1  0
 12 13  1  0
 13 14  1  0
 14 15  1  0
 15 16  1  0
 16 17  2  0
 16 18  1  0
 18 19  1  0
 18 20  1  0
 20 21  1  0
 21 22  1  0
 22 23  1  0
 23 24  2  0
 24 25  1  0
 25 26  2  0
 26 27  1  0
 26 28  1  0
 28 29  2  0
 29 30  1  0
 15 31  1  0
 31 32  1  0
 11  6  1  0
 32 12  1  0
 30 20  1  0
 29 23  1  0
  1 33  1  0
  1 34  1  0
  1 35  1  0
  2 36  1  0
  2 37  1  0
  7 38  1  0
  8 39  1  0
  9 40  1  0
 10 41  1  0
 11 42  1  0
 12 43  1  0
 13 44  1  0
 13 45  1  0
 14 46  1  0
 14 47  1  0
 18 48  1  1
 19 49  1  0
 19 50  1  0
 20 51  1  6
 21 52  1  0
 21 53  1  0
 22 54  1  0
 22 55  1  0
 24 56  1  0
 25 57  1  0
 28 58  1  0
 30 59  1  0
 30 60  1  0
 31 61  1  0
 31 62  1  0
 32 63  1  0
 32 64  1  0
M  END
>  <smiles>  (92) 
CCC(=O)N(c1ccccc1)C1CCN(C(=O)[C@@H](N)C2CCc3ccc(Cl)cc3C2)CC1

>  <score_type>  (92) 
oracle

>  <origin>  (92) 
autodockgpu

>  <m_score__min__energy>  (92) 
-7.6799999999999997

>  <m_primary>  (92) 
energy

>  <rmsd>  (92) 
6.236271730100464

>  <m_score__min__rmsd>  (92) 
6.236271730100464

>  <meeko>  (92) 
{"free_energy": -6.8, "intermolecular_energy": -8.89, "internal_energy": -2.78, "cluster_size": 17, "cluster_id": 4, "rank_in_cluster": 3}

>  <energy>  (92) 
-6.79

>  <cluster_rmsd>  (92) 
0.66

>  <cluster>  (92) 
6

$$$$

     RDKit          3D

 64 67  0  0  0  0  0  0  0  0999 V2000
  137.0550   84.1910  222.0990 C   0  0  0  0  0  0  0  0  0  0  0  0
  136.0370   84.3660  223.2310 C   0  0  0  0  0  0  0  0  0  0  0  0
  136.4410   83.6550  224.4360 C   0  0  0  0  0  0  0  0  0  0  0  0
  136.8980   84.3670  225.4000 O   0  0  0  0  0  0  0  0  0  0  0  0
  136.3890   82.2700  224.6750 N   0  0  0  0  0  0  0  0  0  0  0  0
  135.7720   81.8980  225.9450 C   0  0  0  0  0  0  0  0  0  0  0  0
  136.6280   81.9780  227.0310 C   0  0  0  0  0  0  0  0  0  0  0  0
  136.1480   81.6480  228.2870 C   0  0  0  0  0  0  0  0  0  0  0  0
  134.8300   81.2550  228.3840 C   0  0  0  0  0  0  0  0  0  0  0  0
  133.9860   81.1790  227.2900 C   0  0  0  0  0  0  0  0  0  0  0  0
  134.4710   81.5120  226.0240 C   0  0  0  0  0  0  0  0  0  0  0  0
  136.8480   81.2210  223.8460 C   0  0  0  0  0  0  0  0  0  0  0  0
  138.0190   80.4220  224.4140 C   0  0  0  0  0  0  0  0  0  0  0  0
  138.6230   79.7260  223.1790 C   0  0  0  0  0  0  0  0  0  0  0  0
  137.6920   78.8370  222.5500 N   0  0  0  0  0  0  0  0  0  0  0  0
  137.8930   77.5000  222.1670 C   0  0  0  0  0  0  0  0  0  0  0  0
  136.9020   76.9120  221.6150 O   0  0  0  0  0  0  0  0  0  0  0  0
  139.1010   76.6740  222.3140 C   0  0  1  0  0  0  0  0  0  0  0  0
  138.9090   75.3220  222.6820 N   0  0  0  0  0  0  0  0  0  0  0  0
  140.0210   76.8000  221.0960 C   0  0  1  0  0  0  0  0  0  0  0  0
  139.4240   77.7290  220.0940 C   0  0  0  0  0  0  0  0  0  0  0  0
  140.4870   78.6360  219.4480 C   0  0  0  0  0  0  0  0  0  0  0  0
  140.9990   79.4350  220.6230 C   0  0  0  0  0  0  0  0  0  0  0  0
  141.0160   80.8130  220.6080 C   0  0  0  0  0  0  0  0  0  0  0  0
  141.5020   81.4730  221.7390 C   0  0  0  0  0  0  0  0  0  0  0  0
  141.9510   80.7350  222.8340 C   0  0  0  0  0  0  0  0  0  0  0  0
  142.5570   81.5780  224.2380 Cl  0  0  0  0  0  0  0  0  0  0  0  0
  141.9180   79.3460  222.8070 C   0  0  0  0  0  0  0  0  0  0  0  0
  141.4380   78.6810  221.6930 C   0  0  0  0  0  0  0  0  0  0  0  0
  141.3790   77.1990  221.6010 C   0  0  0  0  0  0  0  0  0  0  0  0
  136.3690   79.4110  222.2760 C   0  0  0  0  0  0  0  0  0  0  0  0
  135.8350   80.1740  223.4610 C   0  0  0  0  0  0  0  0  0  0  0  0
  138.0536   84.0193  222.5272 H   0  0  0  0  0  0  0  0  0  0  0  0
  136.7689   83.3289  221.4786 H   0  0  0  0  0  0  0  0  0  0  0  0
  137.0732   85.0992  221.4786 H   0  0  0  0  0  0  0  0  0  0  0  0
  135.9439   85.4370  223.4638 H   0  0  0  0  0  0  0  0  0  0  0  0
  135.0761   83.9498  222.8942 H   0  0  0  0  0  0  0  0  0  0  0  0
  137.6718   82.2984  226.8978 H   0  0  0  0  0  0  0  0  0  0  0  0
  136.7948   81.6976  229.1754 H   0  0  0  0  0  0  0  0  0  0  0  0
  134.4318   80.9902  229.3746 H   0  0  0  0  0  0  0  0  0  0  0  0
  132.9413   80.8588  227.4169 H   0  0  0  0  0  0  0  0  0  0  0  0
  133.8299   81.4642  225.1314 H   0  0  0  0  0  0  0  0  0  0  0  0
  137.1359   81.8163  222.9669 H   0  0  0  0  0  0  0  0  0  0  0  0
  138.7551   81.0884  224.8873 H   0  0  0  0  0  0  0  0  0  0  0  0
  137.7099   79.7108  225.1942 H   0  0  0  0  0  0  0  0  0  0  0  0
  138.9259   80.4941  222.4522 H   0  0  0  0  0  0  0  0  0  0  0  0
  139.4849   79.1306  223.5145 H   0  0  0  0  0  0  0  0  0  0  0  0
  139.5959   77.1073  223.1957 H   0  0  0  0  0  0  0  0  0  0  0  0
  137.9260   74.9840  222.7170 H   0  0  0  0  0  0  0  0  0  0  0  0
  139.5150   74.9840  223.4600 H   0  0  0  0  0  0  0  0  0  0  0  0
  140.1358   75.8494  220.5545 H   0  0  0  0  0  0  0  0  0  0  0  0
  138.9357   77.1365  219.3063 H   0  0  0  0  0  0  0  0  0  0  0  0
  138.6982   78.3713  220.6143 H   0  0  0  0  0  0  0  0  0  0  0  0
  141.2919   78.0411  218.9917 H   0  0  0  0  0  0  0  0  0  0  0  0
  140.0915   79.2611  218.6338 H   0  0  0  0  0  0  0  0  0  0  0  0
  140.6581   81.3753  219.7329 H   0  0  0  0  0  0  0  0  0  0  0  0
  141.5305   82.5723  221.7660 H   0  0  0  0  0  0  0  0  0  0  0  0
  142.2751   78.7728  223.6753 H   0  0  0  0  0  0  0  0  0  0  0  0
  142.1523   76.8405  220.9057 H   0  0  0  0  0  0  0  0  0  0  0  0
  141.5550   76.7552  222.5920 H   0  0  0  0  0  0  0  0  0  0  0  0
  136.4481   80.0949  221.4181 H   0  0  0  0  0  0  0  0  0  0  0  0
  135.6755   78.5850  222.0597 H   0  0  0  0  0  0  0  0  0  0  0  0
  134.8837   80.6575  223.1939 H   0  0  0  0  0  0  0  0  0  0  0  0
  135.6587   79.4896  224.3039 H   0  0  0  0  0  0  0  0  0  0  0  0
  1  2  1  0
  2  3  1  0
  3  4  2  0
  3  5  1  0
  5  6  1  0
  6  7  2  0
  7  8  1  0
  8  9  2  0
  9 10  1  0
 10 11  2  0
  5 12  1  0
 12 13  1  0
 13 14  1  0
 14 15  1  0
 15 16  1  0
 16 17  2  0
 16 18  1  0
 18 19  1  0
 18 20  1  0
 20 21  1  0
 21 22  1  0
 22 23  1  0
 23 24  2  0
 24 25  1  0
 25 26  2  0
 26 27  1  0
 26 28  1  0
 28 29  2  0
 29 30  1  0
 15 31  1  0
 31 32  1  0
 11  6  1  0
 32 12  1  0
 30 20  1  0
 29 23  1  0
  1 33  1  0
  1 34  1  0
  1 35  1  0
  2 36  1  0
  2 37  1  0
  7 38  1  0
  8 39  1  0
  9 40  1  0
 10 41  1  0
 11 42  1  0
 12 43  1  0
 13 44  1  0
 13 45  1  0
 14 46  1  0
 14 47  1  0
 18 48  1  1
 19 49  1  0
 19 50  1  0
 20 51  1  6
 21 52  1  0
 21 53  1  0
 22 54  1  0
 22 55  1  0
 24 56  1  0
 25 57  1  0
 28 58  1  0
 30 59  1  0
 30 60  1  0
 31 61  1  0
 31 62  1  0
 32 63  1  0
 32 64  1  0
M  END
>  <smiles>  (93) 
CCC(=O)N(c1ccccc1)C1CCN(C(=O)[C@@H](N)C2CCc3ccc(Cl)cc3C2)CC1

>  <score_type>  (93) 
oracle

>  <origin>  (93) 
autodockgpu

>  <m_score__min__energy>  (93) 
-7.6799999999999997

>  <m_primary>  (93) 
energy

>  <rmsd>  (93) 
6.208052509744963

>  <m_score__min__rmsd>  (93) 
6.208052509744963

>  <meeko>  (93) 
{"free_energy": -6.61, "intermolecular_energy": -8.7, "internal_energy": -2.75, "cluster_size": 17, "cluster_id": 4, "rank_in_cluster": 15}

>  <energy>  (93) 
-6.79

>  <cluster_rmsd>  (93) 
0.64

>  <cluster>  (93) 
6

$$$$

     RDKit          3D

 64 67  0  0  0  0  0  0  0  0999 V2000
  142.3970   74.6520  220.5120 C   0  0  0  0  0  0  0  0  0  0  0  0
  142.6890   76.0740  220.0190 C   0  0  0  0  0  0  0  0  0  0  0  0
  141.5190   76.9360  220.1310 C   0  0  0  0  0  0  0  0  0  0  0  0
  141.0650   77.4340  219.0410 O   0  0  0  0  0  0  0  0  0  0  0  0
  140.8210   77.2880  221.2990 N   0  0  0  0  0  0  0  0  0  0  0  0
  141.3760   78.4340  222.0130 C   0  0  0  0  0  0  0  0  0  0  0  0
  141.4240   78.2720  223.3880 C   0  0  0  0  0  0  0  0  0  0  0  0
  141.9330   79.2980  224.1650 C   0  0  0  0  0  0  0  0  0  0  0  0
  142.3680   80.4350  223.5170 C   0  0  0  0  0  0  0  0  0  0  0  0
  142.3130   80.5840  222.1420 C   0  0  0  0  0  0  0  0  0  0  0  0
  141.8000   79.5490  221.3600 C   0  0  0  0  0  0  0  0  0  0  0  0
  139.6690   76.6800  221.8480 C   0  0  0  0  0  0  0  0  0  0  0  0
  138.4900   77.6250  222.0690 C   0  0  0  0  0  0  0  0  0  0  0  0
  137.6060   76.8790  223.0870 C   0  0  0  0  0  0  0  0  0  0  0  0
  137.1320   75.6260  222.5760 N   0  0  0  0  0  0  0  0  0  0  0  0
  135.8160   75.1350  222.5710 C   0  0  0  0  0  0  0  0  0  0  0  0
  135.6430   73.9780  222.0560 O   0  0  0  0  0  0  0  0  0  0  0  0
  134.5940   75.7740  223.0820 C   0  0  1  0  0  0  0  0  0  0  0  0
  133.3980   75.0220  223.0030 N   0  0  0  0  0  0  0  0  0  0  0  0
  134.8040   76.3500  224.4850 C   0  0  1  0  0  0  0  0  0  0  0  0
  133.5270   76.9200  225.0040 C   0  0  0  0  0  0  0  0  0  0  0  0
  133.3270   76.6120  226.4990 C   0  0  0  0  0  0  0  0  0  0  0  0
  133.2430   75.1040  226.5190 C   0  0  0  0  0  0  0  0  0  0  0  0
  132.1770   74.4470  227.0960 C   0  0  0  0  0  0  0  0  0  0  0  0
  132.1770   73.0500  227.0650 C   0  0  0  0  0  0  0  0  0  0  0  0
  133.2360   72.3680  226.4640 C   0  0  0  0  0  0  0  0  0  0  0  0
  133.2180   70.6220  226.4380 Cl  0  0  0  0  0  0  0  0  0  0  0  0
  134.2900   73.0700  225.8950 C   0  0  0  0  0  0  0  0  0  0  0  0
  134.3030   74.4530  225.9180 C   0  0  0  0  0  0  0  0  0  0  0  0
  135.4030   75.2620  225.3300 C   0  0  0  0  0  0  0  0  0  0  0  0
  138.1640   74.7610  221.9910 C   0  0  0  0  0  0  0  0  0  0  0  0
  139.0820   75.5270  221.0750 C   0  0  0  0  0  0  0  0  0  0  0  0
  142.3942   74.6386  221.6119 H   0  0  0  0  0  0  0  0  0  0  0  0
  141.4138   74.3292  220.1389 H   0  0  0  0  0  0  0  0  0  0  0  0
  143.1734   73.9679  220.1389 H   0  0  0  0  0  0  0  0  0  0  0  0
  143.5042   76.4998  220.6224 H   0  0  0  0  0  0  0  0  0  0  0  0
  142.9716   76.0169  218.9574 H   0  0  0  0  0  0  0  0  0  0  0  0
  141.0635   77.3433  223.8545 H   0  0  0  0  0  0  0  0  0  0  0  0
  141.9886   79.2097  225.2600 H   0  0  0  0  0  0  0  0  0  0  0  0
  142.7766   81.2597  224.1193 H   0  0  0  0  0  0  0  0  0  0  0  0
  142.6708   81.5108  221.6698 H   0  0  0  0  0  0  0  0  0  0  0  0
  141.7411   79.6310  220.2646 H   0  0  0  0  0  0  0  0  0  0  0  0
  140.1026   76.3248  222.7945 H   0  0  0  0  0  0  0  0  0  0  0  0
  138.8308   78.5878  222.4775 H   0  0  0  0  0  0  0  0  0  0  0  0
  137.9564   77.8641  221.1373 H   0  0  0  0  0  0  0  0  0  0  0  0
  138.1949   76.6907  223.9968 H   0  0  0  0  0  0  0  0  0  0  0  0
  136.7305   77.5098  223.3006 H   0  0  0  0  0  0  0  0  0  0  0  0
  134.4232   76.5939  222.3688 H   0  0  0  0  0  0  0  0  0  0  0  0
  132.7980   75.0110  223.8530 H   0  0  0  0  0  0  0  0  0  0  0  0
  133.4820   74.1050  222.5170 H   0  0  0  0  0  0  0  0  0  0  0  0
  135.5053   77.1974  224.4919 H   0  0  0  0  0  0  0  0  0  0  0  0
  133.5418   78.0110  224.8645 H   0  0  0  0  0  0  0  0  0  0  0  0
  132.6971   76.4604  224.4471 H   0  0  0  0  0  0  0  0  0  0  0  0
  134.1794   76.9697  227.0952 H   0  0  0  0  0  0  0  0  0  0  0  0
  132.4435   77.1042  226.9317 H   0  0  0  0  0  0  0  0  0  0  0  0
  131.3532   75.0045  227.5655 H   0  0  0  0  0  0  0  0  0  0  0  0
  131.3439   72.4889  227.5134 H   0  0  0  0  0  0  0  0  0  0  0  0
  135.1196   72.5232  225.4231 H   0  0  0  0  0  0  0  0  0  0  0  0
  136.0052   75.7082  226.1352 H   0  0  0  0  0  0  0  0  0  0  0  0
  136.0495   74.6215  224.7122 H   0  0  0  0  0  0  0  0  0  0  0  0
  138.7595   74.3179  222.8028 H   0  0  0  0  0  0  0  0  0  0  0  0
  137.6618   73.9819  221.3987 H   0  0  0  0  0  0  0  0  0  0  0  0
  139.8884   74.8680  220.7207 H   0  0  0  0  0  0  0  0  0  0  0  0
  138.5229   75.9004  220.2043 H   0  0  0  0  0  0  0  0  0  0  0  0
  1  2  1  0
  2  3  1  0
  3  4  2  0
  3  5  1  0
  5  6  1  0
  6  7  2  0
  7  8  1  0
  8  9  2  0
  9 10  1  0
 10 11  2  0
  5 12  1  0
 12 13  1  0
 13 14  1  0
 14 15  1  0
 15 16  1  0
 16 17  2  0
 16 18  1  0
 18 19  1  0
 18 20  1  0
 20 21  1  0
 21 22  1  0
 22 23  1  0
 23 24  2  0
 24 25  1  0
 25 26  2  0
 26 27  1  0
 26 28  1  0
 28 29  2  0
 29 30  1  0
 15 31  1  0
 31 32  1  0
 11  6  1  0
 32 12  1  0
 30 20  1  0
 29 23  1  0
  1 33  1  0
  1 34  1  0
  1 35  1  0
  2 36  1  0
  2 37  1  0
  7 38  1  0
  8 39  1  0
  9 40  1  0
 10 41  1  0
 11 42  1  0
 12 43  1  0
 13 44  1  0
 13 45  1  0
 14 46  1  0
 14 47  1  0
 18 48  1  6
 19 49  1  0
 19 50  1  0
 20 51  1  6
 21 52  1  0
 21 53  1  0
 22 54  1  0
 22 55  1  0
 24 56  1  0
 25 57  1  0
 28 58  1  0
 30 59  1  0
 30 60  1  0
 31 61  1  0
 31 62  1  0
 32 63  1  0
 32 64  1  0
M  END
>  <smiles>  (94) 
CCC(=O)N(c1ccccc1)C1CCN(C(=O)[C@@H](N)C2CCc3ccc(Cl)cc3C2)CC1

>  <score_type>  (94) 
oracle

>  <origin>  (94) 
autodockgpu

>  <m_score__min__energy>  (94) 
-7.6799999999999997

>  <m_primary>  (94) 
energy

>  <rmsd>  (94) 
7.831955053339002

>  <m_score__min__rmsd>  (94) 
7.831955053339002

>  <meeko>  (94) 
{"free_energy": -6.78, "intermolecular_energy": -8.86, "internal_energy": -2.44, "cluster_size": 13, "cluster_id": 6, "rank_in_cluster": 13}

>  <energy>  (94) 
-6.78

>  <cluster_rmsd>  (94) 
0.64

>  <cluster>  (94) 
6

$$$$

     RDKit          3D

 64 67  0  0  0  0  0  0  0  0999 V2000
  137.6910   80.9500  224.9380 C   0  0  0  0  0  0  0  0  0  0  0  0
  138.3650   81.0360  223.5640 C   0  0  0  0  0  0  0  0  0  0  0  0
  138.2810   79.7740  222.8410 C   0  0  0  0  0  0  0  0  0  0  0  0
  137.1160   79.4130  222.4460 O   0  0  0  0  0  0  0  0  0  0  0  0
  139.3320   78.8970  222.5190 N   0  0  0  0  0  0  0  0  0  0  0  0
  140.6640   79.4840  222.6300 C   0  0  0  0  0  0  0  0  0  0  0  0
  141.2130   79.4000  223.8990 C   0  0  0  0  0  0  0  0  0  0  0  0
  142.4750   79.9250  224.1180 C   0  0  0  0  0  0  0  0  0  0  0  0
  143.1190   80.5070  223.0470 C   0  0  0  0  0  0  0  0  0  0  0  0
  142.5590   80.5840  221.7840 C   0  0  0  0  0  0  0  0  0  0  0  0
  141.2870   80.0550  221.5640 C   0  0  0  0  0  0  0  0  0  0  0  0
  139.2520   77.5440  222.1160 C   0  0  0  0  0  0  0  0  0  0  0  0
  140.5150   76.7250  222.3680 C   0  0  0  0  0  0  0  0  0  0  0  0
  140.3610   75.5130  221.4290 C   0  0  0  0  0  0  0  0  0  0  0  0
  139.2050   74.7270  221.7470 N   0  0  0  0  0  0  0  0  0  0  0  0
  139.1260   73.3370  221.9310 C   0  0  0  0  0  0  0  0  0  0  0  0
  137.9710   72.8650  222.2070 O   0  0  0  0  0  0  0  0  0  0  0  0
  140.2010   72.3360  221.8500 C   0  0  1  0  0  0  0  0  0  0  0  0
  140.0910   71.2100  222.6980 N   0  0  0  0  0  0  0  0  0  0  0  0
  140.4780   71.9230  220.4010 C   0  0  1  0  0  0  0  0  0  0  0  0
  140.3520   73.1030  219.4970 C   0  0  0  0  0  0  0  0  0  0  0  0
  141.4390   73.1090  218.4070 C   0  0  0  0  0  0  0  0  0  0  0  0
  142.7130   73.2300  219.2090 C   0  0  0  0  0  0  0  0  0  0  0  0
  143.6330   74.2260  218.9580 C   0  0  0  0  0  0  0  0  0  0  0  0
  144.7820   74.2680  219.7510 C   0  0  0  0  0  0  0  0  0  0  0  0
  144.9670   73.3190  220.7570 C   0  0  0  0  0  0  0  0  0  0  0  0
  146.4120   73.3870  221.7360 Cl  0  0  0  0  0  0  0  0  0  0  0  0
  144.0150   72.3320  220.9750 C   0  0  0  0  0  0  0  0  0  0  0  0
  142.8730   72.2790  220.1970 C   0  0  0  0  0  0  0  0  0  0  0  0
  141.8190   71.2470  220.3780 C   0  0  0  0  0  0  0  0  0  0  0  0
  137.9560   75.4860  221.8900 C   0  0  0  0  0  0  0  0  0  0  0  0
  138.1470   76.7220  222.7290 C   0  0  0  0  0  0  0  0  0  0  0  0
  138.4519   81.0471  225.7264 H   0  0  0  0  0  0  0  0  0  0  0  0
  136.9550   81.7615  225.0368 H   0  0  0  0  0  0  0  0  0  0  0  0
  137.1824   79.9797  225.0368 H   0  0  0  0  0  0  0  0  0  0  0  0
  137.8687   81.8193  222.9722 H   0  0  0  0  0  0  0  0  0  0  0  0
  139.4283   81.2718  223.7185 H   0  0  0  0  0  0  0  0  0  0  0  0
  140.6554   78.9240  224.7191 H   0  0  0  0  0  0  0  0  0  0  0  0
  142.9469   79.8794  225.1106 H   0  0  0  0  0  0  0  0  0  0  0  0
  144.1227   80.9290  223.2034 H   0  0  0  0  0  0  0  0  0  0  0  0
  143.1123   81.0585  220.9601 H   0  0  0  0  0  0  0  0  0  0  0  0
  140.8097   80.0977  220.5739 H   0  0  0  0  0  0  0  0  0  0  0  0
  139.0629   77.7005  221.0437 H   0  0  0  0  0  0  0  0  0  0  0  0
  141.4149   77.3048  222.1150 H   0  0  0  0  0  0  0  0  0  0  0  0
  140.6298   76.4340  223.4226 H   0  0  0  0  0  0  0  0  0  0  0  0
  140.2697   75.8754  220.3944 H   0  0  0  0  0  0  0  0  0  0  0  0
  141.2484   74.8748  221.5519 H   0  0  0  0  0  0  0  0  0  0  0  0
  141.0728   72.8714  222.2542 H   0  0  0  0  0  0  0  0  0  0  0  0
  140.5230   70.3270  222.3590 H   0  0  0  0  0  0  0  0  0  0  0  0
  139.1650   71.0920  223.1620 H   0  0  0  0  0  0  0  0  0  0  0  0
  139.7387   71.2038  220.0187 H   0  0  0  0  0  0  0  0  0  0  0  0
  139.3640   73.0772  219.0140 H   0  0  0  0  0  0  0  0  0  0  0  0
  140.4727   74.0123  220.1041 H   0  0  0  0  0  0  0  0  0  0  0  0
  141.4233   72.1751  217.8260 H   0  0  0  0  0  0  0  0  0  0  0  0
  141.3109   73.9130  217.6673 H   0  0  0  0  0  0  0  0  0  0  0  0
  143.4673   74.9637  218.1590 H   0  0  0  0  0  0  0  0  0  0  0  0
  145.5395   75.0477  219.5828 H   0  0  0  0  0  0  0  0  0  0  0  0
  144.1700   71.5884  221.7707 H   0  0  0  0  0  0  0  0  0  0  0  0
  141.8571   70.5297  219.5449 H   0  0  0  0  0  0  0  0  0  0  0  0
  141.9820   70.7083  221.3231 H   0  0  0  0  0  0  0  0  0  0  0  0
  137.6039   75.7841  220.8914 H   0  0  0  0  0  0  0  0  0  0  0  0
  137.2193   74.8417  222.3922 H   0  0  0  0  0  0  0  0  0  0  0  0
  137.2153   77.3064  222.7479 H   0  0  0  0  0  0  0  0  0  0  0  0
  138.4094   76.4433  223.7602 H   0  0  0  0  0  0  0  0  0  0  0  0
  1  2  1  0
  2  3  1  0
  3  4  2  0
  3  5  1  0
  5  6  1  0
  6  7  2  0
  7  8  1  0
  8  9  2  0
  9 10  1  0
 10 11  2  0
  5 12  1  0
 12 13  1  0
 13 14  1  0
 14 15  1  0
 15 16  1  0
 16 17  2  0
 16 18  1  0
 18 19  1  0
 18 20  1  0
 20 21  1  0
 21 22  1  0
 22 23  1  0
 23 24  2  0
 24 25  1  0
 25 26  2  0
 26 27  1  0
 26 28  1  0
 28 29  2  0
 29 30  1  0
 15 31  1  0
 31 32  1  0
 11  6  1  0
 32 12  1  0
 30 20  1  0
 29 23  1  0
  1 33  1  0
  1 34  1  0
  1 35  1  0
  2 36  1  0
  2 37  1  0
  7 38  1  0
  8 39  1  0
  9 40  1  0
 10 41  1  0
 11 42  1  0
 12 43  1  0
 13 44  1  0
 13 45  1  0
 14 46  1  0
 14 47  1  0
 18 48  1  1
 19 49  1  0
 19 50  1  0
 20 51  1  6
 21 52  1  0
 21 53  1  0
 22 54  1  0
 22 55  1  0
 24 56  1  0
 25 57  1  0
 28 58  1  0
 30 59  1  0
 30 60  1  0
 31 61  1  0
 31 62  1  0
 32 63  1  0
 32 64  1  0
M  END
>  <smiles>  (95) 
CCC(=O)N(c1ccccc1)C1CCN(C(=O)[C@@H](N)C2CCc3ccc(Cl)cc3C2)CC1

>  <score_type>  (95) 
oracle

>  <origin>  (95) 
autodockgpu

>  <m_score__min__energy>  (95) 
-7.6799999999999997

>  <m_primary>  (95) 
energy

>  <rmsd>  (95) 
7.970318364211344

>  <m_score__min__rmsd>  (95) 
7.970318364211344

>  <meeko>  (95) 
{"free_energy": -6.81, "intermolecular_energy": -8.89, "internal_energy": -2.27, "cluster_size": 1, "cluster_id": 7, "rank_in_cluster": 1}

>  <energy>  (95) 
-6.78

>  <cluster_rmsd>  (95) 
0.69

>  <cluster>  (95) 
6

$$$$

     RDKit          3D

 64 67  0  0  0  0  0  0  0  0999 V2000
  140.6130   71.9180  222.5490 C   0  0  0  0  0  0  0  0  0  0  0  0
  141.2030   72.3780  221.2110 C   0  0  0  0  0  0  0  0  0  0  0  0
  141.3810   73.8240  221.1680 C   0  0  0  0  0  0  0  0  0  0  0  0
  140.6890   74.5150  221.9980 O   0  0  0  0  0  0  0  0  0  0  0  0
  142.2290   74.5600  220.3220 N   0  0  0  0  0  0  0  0  0  0  0  0
  143.5530   73.9730  220.1330 C   0  0  0  0  0  0  0  0  0  0  0  0
  143.5860   72.9480  219.2020 C   0  0  0  0  0  0  0  0  0  0  0  0
  144.7920   72.3180  218.9440 C   0  0  0  0  0  0  0  0  0  0  0  0
  145.9010   72.7540  219.6360 C   0  0  0  0  0  0  0  0  0  0  0  0
  145.8530   73.7800  220.5640 C   0  0  0  0  0  0  0  0  0  0  0  0
  144.6380   74.4130  220.8250 C   0  0  0  0  0  0  0  0  0  0  0  0
  141.9550   75.7700  219.6450 C   0  0  0  0  0  0  0  0  0  0  0  0
  142.5830   77.0120  220.2740 C   0  0  0  0  0  0  0  0  0  0  0  0
  141.7610   78.1770  219.6890 C   0  0  0  0  0  0  0  0  0  0  0  0
  141.8690   78.2510  218.2610 N   0  0  0  0  0  0  0  0  0  0  0  0
  142.1670   79.3740  217.4720 C   0  0  0  0  0  0  0  0  0  0  0  0
  142.2040   79.1870  216.2080 O   0  0  0  0  0  0  0  0  0  0  0  0
  142.4460   80.7520  217.9030 C   0  0  1  0  0  0  0  0  0  0  0  0
  143.2810   81.5270  217.0650 N   0  0  0  0  0  0  0  0  0  0  0  0
  141.1590   81.5020  218.2620 C   0  0  1  0  0  0  0  0  0  0  0  0
  140.0270   80.5410  218.4040 C   0  0  0  0  0  0  0  0  0  0  0  0
  139.1100   80.9060  219.5850 C   0  0  0  0  0  0  0  0  0  0  0  0
  140.0300   80.7690  220.7750 C   0  0  0  0  0  0  0  0  0  0  0  0
  139.7060   79.9730  221.8510 C   0  0  0  0  0  0  0  0  0  0  0  0
  140.6160   79.9000  222.9080 C   0  0  0  0  0  0  0  0  0  0  0  0
  141.8080   80.6220  222.8480 C   0  0  0  0  0  0  0  0  0  0  0  0
  142.9330   80.5190  224.1800 Cl  0  0  0  0  0  0  0  0  0  0  0  0
  142.0950   81.4140  221.7440 C   0  0  0  0  0  0  0  0  0  0  0  0
  141.2020   81.4950  220.6910 C   0  0  0  0  0  0  0  0  0  0  0  0
  141.4490   82.3260  219.4840 C   0  0  0  0  0  0  0  0  0  0  0  0
  141.6320   76.9870  217.5510 C   0  0  0  0  0  0  0  0  0  0  0  0
  142.3640   75.8390  218.1960 C   0  0  0  0  0  0  0  0  0  0  0  0
  141.1858   72.3646  223.3752 H   0  0  0  0  0  0  0  0  0  0  0  0
  139.5627   72.2380  222.6160 H   0  0  0  0  0  0  0  0  0  0  0  0
  140.6672   70.8214  222.6160 H   0  0  0  0  0  0  0  0  0  0  0  0
  142.1804   71.8943  221.0675 H   0  0  0  0  0  0  0  0  0  0  0  0
  140.5016   72.0953  220.4121 H   0  0  0  0  0  0  0  0  0  0  0  0
  142.6701   72.6397  218.6766 H   0  0  0  0  0  0  0  0  0  0  0  0
  144.8621   71.4990  218.2130 H   0  0  0  0  0  0  0  0  0  0  0  0
  146.8672   72.2651  219.4424 H   0  0  0  0  0  0  0  0  0  0  0  0
  146.7660   74.0936  221.0914 H   0  0  0  0  0  0  0  0  0  0  0  0
  144.5608   75.2305  221.5569 H   0  0  0  0  0  0  0  0  0  0  0  0
  140.8586   75.7664  219.7332 H   0  0  0  0  0  0  0  0  0  0  0  0
  142.4958   76.9827  221.3701 H   0  0  0  0  0  0  0  0  0  0  0  0
  143.6581   77.1001  220.0587 H   0  0  0  0  0  0  0  0  0  0  0  0
  140.7038   78.0350  219.9577 H   0  0  0  0  0  0  0  0  0  0  0  0
  142.1572   79.1141  220.1072 H   0  0  0  0  0  0  0  0  0  0  0  0
  143.0561   80.6125  218.8076 H   0  0  0  0  0  0  0  0  0  0  0  0
  143.3420   81.2340  216.0680 H   0  0  0  0  0  0  0  0  0  0  0  0
  144.1860   81.8210  217.4890 H   0  0  0  0  0  0  0  0  0  0  0  0
  140.8361   82.1911  217.4677 H   0  0  0  0  0  0  0  0  0  0  0  0
  139.4343   80.5500  217.4774 H   0  0  0  0  0  0  0  0  0  0  0  0
  140.4485   79.5431  218.5950 H   0  0  0  0  0  0  0  0  0  0  0  0
  138.7334   81.9353  219.4913 H   0  0  0  0  0  0  0  0  0  0  0  0
  138.2125   80.2735  219.6523 H   0  0  0  0  0  0  0  0  0  0  0  0
  138.7601   79.4122  221.8772 H   0  0  0  0  0  0  0  0  0  0  0  0
  140.3933   79.2749  223.7853 H   0  0  0  0  0  0  0  0  0  0  0  0
  143.0375   81.9799  221.7068 H   0  0  0  0  0  0  0  0  0  0  0  0
  140.7907   83.2071  219.5006 H   0  0  0  0  0  0  0  0  0  0  0  0
  142.4965   82.6615  219.4689 H   0  0  0  0  0  0  0  0  0  0  0  0
  140.5534   76.7710  217.5583 H   0  0  0  0  0  0  0  0  0  0  0  0
  142.0055   77.0967  216.5222 H   0  0  0  0  0  0  0  0  0  0  0  0
  142.1001   74.8986  217.6900 H   0  0  0  0  0  0  0  0  0  0  0  0
  143.4506   75.9902  218.1161 H   0  0  0  0  0  0  0  0  0  0  0  0
  1  2  1  0
  2  3  1  0
  3  4  2  0
  3  5  1  0
  5  6  1  0
  6  7  2  0
  7  8  1  0
  8  9  2  0
  9 10  1  0
 10 11  2  0
  5 12  1  0
 12 13  1  0
 13 14  1  0
 14 15  1  0
 15 16  1  0
 16 17  2  0
 16 18  1  0
 18 19  1  0
 18 20  1  0
 20 21  1  0
 21 22  1  0
 22 23  1  0
 23 24  2  0
 24 25  1  0
 25 26  2  0
 26 27  1  0
 26 28  1  0
 28 29  2  0
 29 30  1  0
 15 31  1  0
 31 32  1  0
 11  6  1  0
 32 12  1  0
 30 20  1  0
 29 23  1  0
  1 33  1  0
  1 34  1  0
  1 35  1  0
  2 36  1  0
  2 37  1  0
  7 38  1  0
  8 39  1  0
  9 40  1  0
 10 41  1  0
 11 42  1  0
 12 43  1  0
 13 44  1  0
 13 45  1  0
 14 46  1  0
 14 47  1  0
 18 48  1  1
 19 49  1  0
 19 50  1  0
 20 51  1  6
 21 52  1  0
 21 53  1  0
 22 54  1  0
 22 55  1  0
 24 56  1  0
 25 57  1  0
 28 58  1  0
 30 59  1  0
 30 60  1  0
 31 61  1  0
 31 62  1  0
 32 63  1  0
 32 64  1  0
M  END
>  <smiles>  (96) 
CCC(=O)N(c1ccccc1)C1CCN(C(=O)[C@@H](N)C2CCc3ccc(Cl)cc3C2)CC1

>  <score_type>  (96) 
oracle

>  <origin>  (96) 
autodockgpu

>  <m_score__min__energy>  (96) 
-7.6799999999999997

>  <m_primary>  (96) 
energy

>  <rmsd>  (96) 
3.6907108498492542

>  <m_score__min__rmsd>  (96) 
3.6907108498492542

>  <meeko>  (96) 
{"free_energy": -6.96, "intermolecular_energy": -9.05, "internal_energy": -2.57, "cluster_size": 9, "cluster_id": 3, "rank_in_cluster": 4}

>  <energy>  (96) 
-6.78

>  <cluster_rmsd>  (96) 
0.64

>  <cluster>  (96) 
6

$$$$

     RDKit          3D

 64 67  0  0  0  0  0  0  0  0999 V2000
  140.6600   71.8960  222.5540 C   0  0  0  0  0  0  0  0  0  0  0  0
  141.0950   72.3540  221.1580 C   0  0  0  0  0  0  0  0  0  0  0  0
  141.3230   73.7930  221.1080 C   0  0  0  0  0  0  0  0  0  0  0  0
  140.6810   74.5070  221.9570 O   0  0  0  0  0  0  0  0  0  0  0  0
  142.1710   74.4980  220.2370 N   0  0  0  0  0  0  0  0  0  0  0  0
  143.4710   73.8690  220.0170 C   0  0  0  0  0  0  0  0  0  0  0  0
  144.4890   74.3920  220.7960 C   0  0  0  0  0  0  0  0  0  0  0  0
  145.7650   73.8690  220.6690 C   0  0  0  0  0  0  0  0  0  0  0  0
  145.9480   72.8450  219.7640 C   0  0  0  0  0  0  0  0  0  0  0  0
  144.9210   72.3320  218.9910 C   0  0  0  0  0  0  0  0  0  0  0  0
  143.6360   72.8600  219.1200 C   0  0  0  0  0  0  0  0  0  0  0  0
  141.9180   75.7140  219.5620 C   0  0  0  0  0  0  0  0  0  0  0  0
  142.5110   76.9530  220.2290 C   0  0  0  0  0  0  0  0  0  0  0  0
  141.7060   78.1180  219.6220 C   0  0  0  0  0  0  0  0  0  0  0  0
  141.8730   78.2080  218.2010 N   0  0  0  0  0  0  0  0  0  0  0  0
  142.1960   79.3420  217.4370 C   0  0  0  0  0  0  0  0  0  0  0  0
  142.2880   79.1690  216.1740 O   0  0  0  0  0  0  0  0  0  0  0  0
  142.4480   80.7170  217.8930 C   0  0  1  0  0  0  0  0  0  0  0  0
  143.2840   81.5170  217.0810 N   0  0  0  0  0  0  0  0  0  0  0  0
  141.1450   81.4410  218.2440 C   0  0  1  0  0  0  0  0  0  0  0  0
  140.0320   80.4580  218.3880 C   0  0  0  0  0  0  0  0  0  0  0  0
  139.1030   80.8100  219.5640 C   0  0  0  0  0  0  0  0  0  0  0  0
  140.0220   80.6990  220.7570 C   0  0  0  0  0  0  0  0  0  0  0  0
  139.7110   79.9020  221.8370 C   0  0  0  0  0  0  0  0  0  0  0  0
  140.6200   79.8540  222.8970 C   0  0  0  0  0  0  0  0  0  0  0  0
  141.7960   80.6010  222.8380 C   0  0  0  0  0  0  0  0  0  0  0  0
  142.9190   80.5290  224.1730 Cl  0  0  0  0  0  0  0  0  0  0  0  0
  142.0700   81.3930  221.7300 C   0  0  0  0  0  0  0  0  0  0  0  0
  141.1790   81.4490  220.6730 C   0  0  0  0  0  0  0  0  0  0  0  0
  141.4130   82.2780  219.4620 C   0  0  0  0  0  0  0  0  0  0  0  0
  141.6750   76.9510  217.4690 C   0  0  0  0  0  0  0  0  0  0  0  0
  142.3870   75.8010  218.1320 C   0  0  0  0  0  0  0  0  0  0  0  0
  141.2066   72.4715  223.3156 H   0  0  0  0  0  0  0  0  0  0  0  0
  139.5793   72.0624  222.6743 H   0  0  0  0  0  0  0  0  0  0  0  0
  140.8818   70.8253  222.6743 H   0  0  0  0  0  0  0  0  0  0  0  0
  142.0269   71.8360  220.8875 H   0  0  0  0  0  0  0  0  0  0  0  0
  140.2883   72.1104  220.4510 H   0  0  0  0  0  0  0  0  0  0  0  0
  144.2877   75.2094  221.5041 H   0  0  0  0  0  0  0  0  0  0  0  0
  146.6021   74.2564  221.2683 H   0  0  0  0  0  0  0  0  0  0  0  0
  146.9549   72.4168  219.6514 H   0  0  0  0  0  0  0  0  0  0  0  0
  145.1162   71.5149  218.2809 H   0  0  0  0  0  0  0  0  0  0  0  0
  142.7946   72.4776  218.5234 H   0  0  0  0  0  0  0  0  0  0  0  0
  140.8189   75.7028  219.6049 H   0  0  0  0  0  0  0  0  0  0  0  0
  142.3786   76.9119  221.3202 H   0  0  0  0  0  0  0  0  0  0  0  0
  143.5935   77.0503  220.0597 H   0  0  0  0  0  0  0  0  0  0  0  0
  140.6396   77.9658  219.8446 H   0  0  0  0  0  0  0  0  0  0  0  0
  142.0776   79.0533  220.0660 H   0  0  0  0  0  0  0  0  0  0  0  0
  143.0471   80.5730  218.8043 H   0  0  0  0  0  0  0  0  0  0  0  0
  143.3620   81.2430  216.0800 H   0  0  0  0  0  0  0  0  0  0  0  0
  144.1790   81.8150  217.5220 H   0  0  0  0  0  0  0  0  0  0  0  0
  140.8110   82.1183  217.4442 H   0  0  0  0  0  0  0  0  0  0  0  0
  139.4425   80.4499  217.4593 H   0  0  0  0  0  0  0  0  0  0  0  0
  140.4735   79.4702  218.5865 H   0  0  0  0  0  0  0  0  0  0  0  0
  138.7049   81.8305  219.4634 H   0  0  0  0  0  0  0  0  0  0  0  0
  138.2187   80.1593  219.6319 H   0  0  0  0  0  0  0  0  0  0  0  0
  138.7768   79.3219  221.8639 H   0  0  0  0  0  0  0  0  0  0  0  0
  140.4083   79.2281  223.7765 H   0  0  0  0  0  0  0  0  0  0  0  0
  143.0004   81.9787  221.6928 H   0  0  0  0  0  0  0  0  0  0  0  0
  140.7363   83.1451  219.4710 H   0  0  0  0  0  0  0  0  0  0  0  0
  142.4532   82.6354  219.4487 H   0  0  0  0  0  0  0  0  0  0  0  0
  140.5986   76.7280  217.4286 H   0  0  0  0  0  0  0  0  0  0  0  0
  142.0908   77.0742  216.4581 H   0  0  0  0  0  0  0  0  0  0  0  0
  142.1509   74.8644  217.6057 H   0  0  0  0  0  0  0  0  0  0  0  0
  143.4750   75.9598  218.0993 H   0  0  0  0  0  0  0  0  0  0  0  0
  1  2  1  0
  2  3  1  0
  3  4  2  0
  3  5  1  0
  5  6  1  0
  6  7  2  0
  7  8  1  0
  8  9  2  0
  9 10  1  0
 10 11  2  0
  5 12  1  0
 12 13  1  0
 13 14  1  0
 14 15  1  0
 15 16  1  0
 16 17  2  0
 16 18  1  0
 18 19  1  0
 18 20  1  0
 20 21  1  0
 21 22  1  0
 22 23  1  0
 23 24  2  0
 24 25  1  0
 25 26  2  0
 26 27  1  0
 26 28  1  0
 28 29  2  0
 29 30  1  0
 15 31  1  0
 31 32  1  0
 11  6  1  0
 32 12  1  0
 30 20  1  0
 29 23  1  0
  1 33  1  0
  1 34  1  0
  1 35  1  0
  2 36  1  0
  2 37  1  0
  7 38  1  0
  8 39  1  0
  9 40  1  0
 10 41  1  0
 11 42  1  0
 12 43  1  0
 13 44  1  0
 13 45  1  0
 14 46  1  0
 14 47  1  0
 18 48  1  1
 19 49  1  0
 19 50  1  0
 20 51  1  6
 21 52  1  0
 21 53  1  0
 22 54  1  0
 22 55  1  0
 24 56  1  0
 25 57  1  0
 28 58  1  0
 30 59  1  0
 30 60  1  0
 31 61  1  0
 31 62  1  0
 32 63  1  0
 32 64  1  0
M  END
>  <smiles>  (97) 
CCC(=O)N(c1ccccc1)C1CCN(C(=O)[C@@H](N)C2CCc3ccc(Cl)cc3C2)CC1

>  <score_type>  (97) 
oracle

>  <origin>  (97) 
autodockgpu

>  <m_score__min__energy>  (97) 
-7.6799999999999997

>  <m_primary>  (97) 
energy

>  <rmsd>  (97) 
3.6685219981017867

>  <m_score__min__rmsd>  (97) 
3.6685219981017867

>  <meeko>  (97) 
{"free_energy": -7.0, "intermolecular_energy": -9.09, "internal_energy": -2.57, "cluster_size": 9, "cluster_id": 3, "rank_in_cluster": 2}

>  <energy>  (97) 
-6.78

>  <cluster_rmsd>  (97) 
0.63

>  <cluster>  (97) 
6

$$$$

     RDKit          3D

 64 67  0  0  0  0  0  0  0  0999 V2000
  142.0400   79.9680  217.5170 C   0  0  0  0  0  0  0  0  0  0  0  0
  140.7700   80.4050  218.2550 C   0  0  0  0  0  0  0  0  0  0  0  0
  141.0290   80.6760  219.6630 C   0  0  0  0  0  0  0  0  0  0  0  0
  141.1570   81.9070  219.9990 O   0  0  0  0  0  0  0  0  0  0  0  0
  141.1550   79.7440  220.7080 N   0  0  0  0  0  0  0  0  0  0  0  0
  141.6340   80.3080  221.9670 C   0  0  0  0  0  0  0  0  0  0  0  0
  142.9110   79.9030  222.3160 C   0  0  0  0  0  0  0  0  0  0  0  0
  143.4660   80.3770  223.4920 C   0  0  0  0  0  0  0  0  0  0  0  0
  142.7040   81.2360  224.2560 C   0  0  0  0  0  0  0  0  0  0  0  0
  141.4280   81.6320  223.8960 C   0  0  0  0  0  0  0  0  0  0  0  0
  140.8700   81.1530  222.7100 C   0  0  0  0  0  0  0  0  0  0  0  0
  140.8740   78.3580  220.6850 C   0  0  0  0  0  0  0  0  0  0  0  0
  141.9430   77.4990  220.0140 C   0  0  0  0  0  0  0  0  0  0  0  0
  141.2060   76.1890  219.6780 C   0  0  0  0  0  0  0  0  0  0  0  0
  140.7200   75.5260  220.8530 N   0  0  0  0  0  0  0  0  0  0  0  0
  140.8810   74.1790  221.2170 C   0  0  0  0  0  0  0  0  0  0  0  0
  140.3490   73.8200  222.3220 O   0  0  0  0  0  0  0  0  0  0  0  0
  141.5870   73.1090  220.4940 C   0  0  1  0  0  0  0  0  0  0  0  0
  141.3740   73.0340  219.0980 N   0  0  0  0  0  0  0  0  0  0  0  0
  143.0790   73.0870  220.8370 C   0  0  1  0  0  0  0  0  0  0  0  0
  143.7400   71.9220  220.1830 C   0  0  0  0  0  0  0  0  0  0  0  0
  145.1310   72.2850  219.6310 C   0  0  0  0  0  0  0  0  0  0  0  0
  144.8110   73.3270  218.5850 C   0  0  0  0  0  0  0  0  0  0  0  0
  145.2470   73.2020  217.2840 C   0  0  0  0  0  0  0  0  0  0  0  0
  144.9020   74.2100  216.3800 C   0  0  0  0  0  0  0  0  0  0  0  0
  144.1400   75.2970  216.8100 C   0  0  0  0  0  0  0  0  0  0  0  0
  143.7210   76.5480  215.6650 Cl  0  0  0  0  0  0  0  0  0  0  0  0
  143.7220   75.3840  218.1310 C   0  0  0  0  0  0  0  0  0  0  0  0
  144.0570   74.3930  219.0360 C   0  0  0  0  0  0  0  0  0  0  0  0
  143.6430   74.4280  220.4630 C   0  0  0  0  0  0  0  0  0  0  0  0
  139.9590   76.3750  221.7790 C   0  0  0  0  0  0  0  0  0  0  0  0
  140.6450   77.6940  222.0180 C   0  0  0  0  0  0  0  0  0  0  0  0
  142.8161   79.7009  218.2493 H   0  0  0  0  0  0  0  0  0  0  0  0
  141.8155   79.0954  216.8860 H   0  0  0  0  0  0  0  0  0  0  0  0
  142.4000   80.7940  216.8860 H   0  0  0  0  0  0  0  0  0  0  0  0
  140.3800   81.3185  217.7824 H   0  0  0  0  0  0  0  0  0  0  0  0
  140.0392   79.5852  218.1932 H   0  0  0  0  0  0  0  0  0  0  0  0
  143.4755   79.2155  221.6690 H   0  0  0  0  0  0  0  0  0  0  0  0
  144.4775   80.0796  223.8057 H   0  0  0  0  0  0  0  0  0  0  0  0
  143.1296   81.6236  225.1933 H   0  0  0  0  0  0  0  0  0  0  0  0
  140.8582   82.3187  224.5393 H   0  0  0  0  0  0  0  0  0  0  0  0
  139.8588   81.4454  222.3908 H   0  0  0  0  0  0  0  0  0  0  0  0
  139.9385   78.3873  220.1070 H   0  0  0  0  0  0  0  0  0  0  0  0
  142.3177   77.9831  219.1001 H   0  0  0  0  0  0  0  0  0  0  0  0
  142.8232   77.3392  220.6541 H   0  0  0  0  0  0  0  0  0  0  0  0
  140.3531   76.4200  219.0229 H   0  0  0  0  0  0  0  0  0  0  0  0
  141.9207   75.5165  219.1811 H   0  0  0  0  0  0  0  0  0  0  0  0
  141.1091   72.1930  220.8716 H   0  0  0  0  0  0  0  0  0  0  0  0
  141.6700   72.1540  218.6280 H   0  0  0  0  0  0  0  0  0  0  0  0
  141.5900   73.9050  218.5680 H   0  0  0  0  0  0  0  0  0  0  0  0
  143.2623   72.9390  221.9115 H   0  0  0  0  0  0  0  0  0  0  0  0
  143.8505   71.1149  220.9222 H   0  0  0  0  0  0  0  0  0  0  0  0
  143.1111   71.6036  219.3385 H   0  0  0  0  0  0  0  0  0  0  0  0
  145.7752   72.6999  220.4203 H   0  0  0  0  0  0  0  0  0  0  0  0
  145.6818   71.4204  219.2320 H   0  0  0  0  0  0  0  0  0  0  0  0
  145.8474   72.3365  216.9672 H   0  0  0  0  0  0  0  0  0  0  0  0
  145.2302   74.1468  215.3320 H   0  0  0  0  0  0  0  0  0  0  0  0
  143.1215   76.2451  218.4596 H   0  0  0  0  0  0  0  0  0  0  0  0
  144.5148   74.6517  221.0954 H   0  0  0  0  0  0  0  0  0  0  0  0
  142.8819   75.2081  220.6121 H   0  0  0  0  0  0  0  0  0  0  0  0
  138.9627   76.5636  221.3526 H   0  0  0  0  0  0  0  0  0  0  0  0
  139.8828   75.8490  222.7421 H   0  0  0  0  0  0  0  0  0  0  0  0
  140.0102   78.3343  222.6481 H   0  0  0  0  0  0  0  0  0  0  0  0
  141.6048   77.5339  222.5309 H   0  0  0  0  0  0  0  0  0  0  0  0
  1  2  1  0
  2  3  1  0
  3  4  2  0
  3  5  1  0
  5  6  1  0
  6  7  2  0
  7  8  1  0
  8  9  2  0
  9 10  1  0
 10 11  2  0
  5 12  1  0
 12 13  1  0
 13 14  1  0
 14 15  1  0
 15 16  1  0
 16 17  2  0
 16 18  1  0
 18 19  1  0
 18 20  1  0
 20 21  1  0
 21 22  1  0
 22 23  1  0
 23 24  2  0
 24 25  1  0
 25 26  2  0
 26 27  1  0
 26 28  1  0
 28 29  2  0
 29 30  1  0
 15 31  1  0
 31 32  1  0
 11  6  1  0
 32 12  1  0
 30 20  1  0
 29 23  1  0
  1 33  1  0
  1 34  1  0
  1 35  1  0
  2 36  1  0
  2 37  1  0
  7 38  1  0
  8 39  1  0
  9 40  1  0
 10 41  1  0
 11 42  1  0
 12 43  1  0
 13 44  1  0
 13 45  1  0
 14 46  1  0
 14 47  1  0
 18 48  1  1
 19 49  1  0
 19 50  1  0
 20 51  1  1
 21 52  1  0
 21 53  1  0
 22 54  1  0
 22 55  1  0
 24 56  1  0
 25 57  1  0
 28 58  1  0
 30 59  1  0
 30 60  1  0
 31 61  1  0
 31 62  1  0
 32 63  1  0
 32 64  1  0
M  END
>  <smiles>  (98) 
CCC(=O)N(c1ccccc1)C1CCN(C(=O)[C@@H](N)C2CCc3ccc(Cl)cc3C2)CC1

>  <score_type>  (98) 
oracle

>  <origin>  (98) 
autodockgpu

>  <m_score__min__energy>  (98) 
-7.6799999999999997

>  <m_primary>  (98) 
energy

>  <rmsd>  (98) 
6.576336267285349

>  <m_score__min__rmsd>  (98) 
6.576336267285349

>  <meeko>  (98) 
{"free_energy": -6.76, "intermolecular_energy": -8.85, "internal_energy": -2.12, "cluster_size": 3, "cluster_id": 5, "rank_in_cluster": 2}

>  <energy>  (98) 
-6.81

>  <cluster_rmsd>  (98) 
0.0

>  <cluster>  (98) 
7

$$$$

     RDKit          3D

 64 67  0  0  0  0  0  0  0  0999 V2000
  136.3340   70.2170  224.3710 C   0  0  0  0  0  0  0  0  0  0  0  0
  137.1060   69.1020  223.6580 C   0  0  0  0  0  0  0  0  0  0  0  0
  138.5340   69.1680  223.9400 C   0  0  0  0  0  0  0  0  0  0  0  0
  139.1550   68.0500  224.0330 O   0  0  0  0  0  0  0  0  0  0  0  0
  139.3210   70.3190  224.1210 N   0  0  0  0  0  0  0  0  0  0  0  0
  139.8500   70.4830  225.4720 C   0  0  0  0  0  0  0  0  0  0  0  0
  139.3910   69.5370  226.3740 C   0  0  0  0  0  0  0  0  0  0  0  0
  139.8280   69.5980  227.6870 C   0  0  0  0  0  0  0  0  0  0  0  0
  140.7060   70.6070  228.0210 C   0  0  0  0  0  0  0  0  0  0  0  0
  141.1560   71.5450  227.1090 C   0  0  0  0  0  0  0  0  0  0  0  0
  140.7150   71.4840  225.7870 C   0  0  0  0  0  0  0  0  0  0  0  0
  139.6570   71.3090  223.1700 C   0  0  0  0  0  0  0  0  0  0  0  0
  140.3210   70.7790  221.9010 C   0  0  0  0  0  0  0  0  0  0  0  0
  141.0120   72.0190  221.3010 C   0  0  0  0  0  0  0  0  0  0  0  0
  140.0740   73.0490  220.9620 N   0  0  0  0  0  0  0  0  0  0  0  0
  139.9630   73.7560  219.7530 C   0  0  0  0  0  0  0  0  0  0  0  0
  139.0400   74.6370  219.6920 O   0  0  0  0  0  0  0  0  0  0  0  0
  140.7710   73.6210  218.5320 C   0  0  1  0  0  0  0  0  0  0  0  0
  140.0690   73.4420  217.3170 N   0  0  0  0  0  0  0  0  0  0  0  0
  141.8140   74.7370  218.4200 C   0  0  1  0  0  0  0  0  0  0  0  0
  142.1600   75.2560  219.7740 C   0  0  0  0  0  0  0  0  0  0  0  0
  143.6660   75.5460  219.9100 C   0  0  0  0  0  0  0  0  0  0  0  0
  144.2850   74.1800  219.7270 C   0  0  0  0  0  0  0  0  0  0  0  0
  145.1520   73.6490  220.6570 C   0  0  0  0  0  0  0  0  0  0  0  0
  145.6760   72.3780  220.4110 C   0  0  0  0  0  0  0  0  0  0  0  0
  145.3150   71.6910  219.2510 C   0  0  0  0  0  0  0  0  0  0  0  0
  145.9810   70.1030  218.9610 Cl  0  0  0  0  0  0  0  0  0  0  0  0
  144.4370   72.2640  218.3400 C   0  0  0  0  0  0  0  0  0  0  0  0
  143.9120   73.5220  218.5720 C   0  0  0  0  0  0  0  0  0  0  0  0
  142.9720   74.1900  217.6340 C   0  0  0  0  0  0  0  0  0  0  0  0
  139.1210   73.3980  222.0220 C   0  0  0  0  0  0  0  0  0  0  0  0
  138.5290   72.1720  222.6670 C   0  0  0  0  0  0  0  0  0  0  0  0
  136.4240   70.0870  225.4596 H   0  0  0  0  0  0  0  0  0  0  0  0
  136.7503   71.1935  224.0827 H   0  0  0  0  0  0  0  0  0  0  0  0
  135.2735   70.1710  224.0827 H   0  0  0  0  0  0  0  0  0  0  0  0
  136.7206   68.1290  223.9968 H   0  0  0  0  0  0  0  0  0  0  0  0
  136.9650   69.2270  222.5743 H   0  0  0  0  0  0  0  0  0  0  0  0
  138.6916   68.7510  226.0530 H   0  0  0  0  0  0  0  0  0  0  0  0
  139.4869   68.8680  228.4358 H   0  0  0  0  0  0  0  0  0  0  0  0
  141.0648   70.6691  229.0590 H   0  0  0  0  0  0  0  0  0  0  0  0
  141.8562   72.3328  227.4239 H   0  0  0  0  0  0  0  0  0  0  0  0
  141.0514   72.2120  225.0341 H   0  0  0  0  0  0  0  0  0  0  0  0
  140.3477   71.9035  223.7860 H   0  0  0  0  0  0  0  0  0  0  0  0
  141.0575   69.9980  222.1412 H   0  0  0  0  0  0  0  0  0  0  0  0
  139.6037   70.3152  221.2079 H   0  0  0  0  0  0  0  0  0  0  0  0
  141.7259   72.4178  222.0367 H   0  0  0  0  0  0  0  0  0  0  0  0
  141.5219   71.7083  220.3772 H   0  0  0  0  0  0  0  0  0  0  0  0
  141.2786   72.6554  218.6734 H   0  0  0  0  0  0  0  0  0  0  0  0
  139.0780   73.7590  217.3010 H   0  0  0  0  0  0  0  0  0  0  0  0
  140.2460   72.5380  216.8310 H   0  0  0  0  0  0  0  0  0  0  0  0
  141.4341   75.6161  217.8788 H   0  0  0  0  0  0  0  0  0  0  0  0
  141.6012   76.1867  219.9517 H   0  0  0  0  0  0  0  0  0  0  0  0
  141.8930   74.4860  220.5128 H   0  0  0  0  0  0  0  0  0  0  0  0
  144.0075   76.2438  219.1313 H   0  0  0  0  0  0  0  0  0  0  0  0
  143.9344   76.0226  220.8644 H   0  0  0  0  0  0  0  0  0  0  0  0
  145.4229   74.2085  221.5645 H   0  0  0  0  0  0  0  0  0  0  0  0
  146.3714   71.9196  221.1296 H   0  0  0  0  0  0  0  0  0  0  0  0
  144.1578   71.7141  217.4291 H   0  0  0  0  0  0  0  0  0  0  0  0
  143.4881   75.0113  217.1152 H   0  0  0  0  0  0  0  0  0  0  0  0
  142.6103   73.4671  216.8879 H   0  0  0  0  0  0  0  0  0  0  0  0
  139.6428   73.9878  222.7900 H   0  0  0  0  0  0  0  0  0  0  0  0
  138.3018   73.9758  221.5691 H   0  0  0  0  0  0  0  0  0  0  0  0
  137.8846   72.4687  223.5077 H   0  0  0  0  0  0  0  0  0  0  0  0
  137.9232   71.6153  221.9368 H   0  0  0  0  0  0  0  0  0  0  0  0
  1  2  1  0
  2  3  1  0
  3  4  2  0
  3  5  1  0
  5  6  1  0
  6  7  2  0
  7  8  1  0
  8  9  2  0
  9 10  1  0
 10 11  2  0
  5 12  1  0
 12 13  1  0
 13 14  1  0
 14 15  1  0
 15 16  1  0
 16 17  2  0
 16 18  1  0
 18 19  1  0
 18 20  1  0
 20 21  1  0
 21 22  1  0
 22 23  1  0
 23 24  2  0
 24 25  1  0
 25 26  2  0
 26 27  1  0
 26 28  1  0
 28 29  2  0
 29 30  1  0
 15 31  1  0
 31 32  1  0
 11  6  1  0
 32 12  1  0
 30 20  1  0
 29 23  1  0
  1 33  1  0
  1 34  1  0
  1 35  1  0
  2 36  1  0
  2 37  1  0
  7 38  1  0
  8 39  1  0
  9 40  1  0
 10 41  1  0
 11 42  1  0
 12 43  1  0
 13 44  1  0
 13 45  1  0
 14 46  1  0
 14 47  1  0
 18 48  1  1
 19 49  1  0
 19 50  1  0
 20 51  1  6
 21 52  1  0
 21 53  1  0
 22 54  1  0
 22 55  1  0
 24 56  1  0
 25 57  1  0
 28 58  1  0
 30 59  1  0
 30 60  1  0
 31 61  1  0
 31 62  1  0
 32 63  1  0
 32 64  1  0
M  END
>  <smiles>  (99) 
CCC(=O)N(c1ccccc1)C1CCN(C(=O)[C@@H](N)C2CCc3ccc(Cl)cc3C2)CC1

>  <score_type>  (99) 
oracle

>  <origin>  (99) 
autodockgpu

>  <m_score__min__energy>  (99) 
-7.6799999999999997

>  <m_primary>  (99) 
energy

>  <rmsd>  (99) 
8.316830462010381

>  <m_score__min__rmsd>  (99) 
8.316830462010381

>  <meeko>  (99) 
{"free_energy": -6.86, "intermolecular_energy": -8.95, "internal_energy": -2.18, "cluster_size": 3, "cluster_id": 2, "rank_in_cluster": 3}

>  <energy>  (99) 
-6.81

>  <cluster_rmsd>  (99) 
0.0

>  <cluster>  (99) 
8

$$$$

     RDKit          3D

 64 67  0  0  0  0  0  0  0  0999 V2000
  136.5800   85.0930  226.3920 C   0  0  0  0  0  0  0  0  0  0  0  0
  135.8760   84.8110  225.0600 C   0  0  0  0  0  0  0  0  0  0  0  0
  136.4700   83.6770  224.3640 C   0  0  0  0  0  0  0  0  0  0  0  0
  137.1930   83.9450  223.3400 O   0  0  0  0  0  0  0  0  0  0  0  0
  136.3480   82.3140  224.6840 N   0  0  0  0  0  0  0  0  0  0  0  0
  135.7930   82.0510  226.0090 C   0  0  0  0  0  0  0  0  0  0  0  0
  136.7480   81.8720  226.9950 C   0  0  0  0  0  0  0  0  0  0  0  0
  136.3340   81.6160  228.2900 C   0  0  0  0  0  0  0  0  0  0  0  0
  134.9760   81.5550  228.5260 C   0  0  0  0  0  0  0  0  0  0  0  0
  134.0320   81.7360  227.5310 C   0  0  0  0  0  0  0  0  0  0  0  0
  134.4510   81.9930  226.2250 C   0  0  0  0  0  0  0  0  0  0  0  0
  136.6870   81.1940  223.8900 C   0  0  0  0  0  0  0  0  0  0  0  0
  138.0350   80.5580  224.2220 C   0  0  0  0  0  0  0  0  0  0  0  0
  138.3780   79.7430  222.9610 C   0  0  0  0  0  0  0  0  0  0  0  0
  137.4110   78.7170  222.7000 N   0  0  0  0  0  0  0  0  0  0  0  0
  137.6410   77.3570  222.4330 C   0  0  0  0  0  0  0  0  0  0  0  0
  136.6070   76.6360  222.2290 O   0  0  0  0  0  0  0  0  0  0  0  0
  138.9230   76.6400  222.3550 C   0  0  1  0  0  0  0  0  0  0  0  0
  138.9050   75.2640  222.6830 N   0  0  0  0  0  0  0  0  0  0  0  0
  139.6290   76.8910  221.0200 C   0  0  1  0  0  0  0  0  0  0  0  0
  138.9260   77.9650  220.2600 C   0  0  0  0  0  0  0  0  0  0  0  0
  139.9150   78.9100  219.5550 C   0  0  0  0  0  0  0  0  0  0  0  0
  140.6660   79.5280  220.7110 C   0  0  0  0  0  0  0  0  0  0  0  0
  140.7610   80.8940  220.8630 C   0  0  0  0  0  0  0  0  0  0  0  0
  141.4700   81.3810  221.9640 C   0  0  0  0  0  0  0  0  0  0  0  0
  142.0540   80.4890  222.8630 C   0  0  0  0  0  0  0  0  0  0  0  0
  142.9380   81.1170  224.2320 Cl  0  0  0  0  0  0  0  0  0  0  0  0
  141.9340   79.1190  222.6710 C   0  0  0  0  0  0  0  0  0  0  0  0
  141.2340   78.6240  221.5860 C   0  0  0  0  0  0  0  0  0  0  0  0
  141.0730   77.1700  221.3230 C   0  0  0  0  0  0  0  0  0  0  0  0
  136.0120   79.1610  222.7160 C   0  0  0  0  0  0  0  0  0  0  0  0
  135.7180   80.0400  223.9030 C   0  0  0  0  0  0  0  0  0  0  0  0
  135.9118   84.8253  227.2238 H   0  0  0  0  0  0  0  0  0  0  0  0
  137.5007   84.4943  226.4541 H   0  0  0  0  0  0  0  0  0  0  0  0
  136.8327   86.1618  226.4541 H   0  0  0  0  0  0  0  0  0  0  0  0
  134.8160   84.5927  225.2566 H   0  0  0  0  0  0  0  0  0  0  0  0
  135.9844   85.6997  224.4209 H   0  0  0  0  0  0  0  0  0  0  0  0
  137.8193   81.9324  226.7526 H   0  0  0  0  0  0  0  0  0  0  0  0
  137.0610   81.4665  229.1019 H   0  0  0  0  0  0  0  0  0  0  0  0
  134.6287   81.3536  229.5501 H   0  0  0  0  0  0  0  0  0  0  0  0
  132.9593   81.6778  227.7676 H   0  0  0  0  0  0  0  0  0  0  0  0
  133.7297   82.1418  225.4080 H   0  0  0  0  0  0  0  0  0  0  0  0
  136.6870   81.6824  222.9044 H   0  0  0  0  0  0  0  0  0  0  0  0
  138.7966   81.3293  224.4091 H   0  0  0  0  0  0  0  0  0  0  0  0
  138.0011   79.9400  225.1314 H   0  0  0  0  0  0  0  0  0  0  0  0
  138.4138   80.4240  222.0979 H   0  0  0  0  0  0  0  0  0  0  0  0
  139.3504   79.2564  223.1274 H   0  0  0  0  0  0  0  0  0  0  0  0
  139.5108   77.0863  223.1707 H   0  0  0  0  0  0  0  0  0  0  0  0
  137.9740   74.8000  222.6960 H   0  0  0  0  0  0  0  0  0  0  0  0
  139.5430   74.9840  223.4580 H   0  0  0  0  0  0  0  0  0  0  0  0
  139.5945   76.0160  220.3543 H   0  0  0  0  0  0  0  0  0  0  0  0
  138.2780   77.4992  219.5030 H   0  0  0  0  0  0  0  0  0  0  0  0
  138.3372   78.5589  220.9745 H   0  0  0  0  0  0  0  0  0  0  0  0
  140.5942   78.3518  218.8939 H   0  0  0  0  0  0  0  0  0  0  0  0
  139.4240   79.6513  218.9075 H   0  0  0  0  0  0  0  0  0  0  0  0
  140.2936   81.5793  220.1406 H   0  0  0  0  0  0  0  0  0  0  0  0
  141.5673   82.4653  222.1214 H   0  0  0  0  0  0  0  0  0  0  0  0
  142.3983   78.4237  223.3859 H   0  0  0  0  0  0  0  0  0  0  0  0
  141.6943   76.8786  220.4633 H   0  0  0  0  0  0  0  0  0  0  0  0
  141.3885   76.5931  222.2048 H   0  0  0  0  0  0  0  0  0  0  0  0
  135.8072   79.7263  221.7949 H   0  0  0  0  0  0  0  0  0  0  0  0
  135.3710   78.2696  222.7834 H   0  0  0  0  0  0  0  0  0  0  0  0
  134.6874   80.4192  223.8387 H   0  0  0  0  0  0  0  0  0  0  0  0
  135.8255   79.4659  224.8351 H   0  0  0  0  0  0  0  0  0  0  0  0
  1  2  1  0
  2  3  1  0
  3  4  2  0
  3  5  1  0
  5  6  1  0
  6  7  2  0
  7  8  1  0
  8  9  2  0
  9 10  1  0
 10 11  2  0
  5 12  1  0
 12 13  1  0
 13 14  1  0
 14 15  1  0
 15 16  1  0
 16 17  2  0
 16 18  1  0
 18 19  1  0
 18 20  1  0
 20 21  1  0
 21 22  1  0
 22 23  1  0
 23 24  2  0
 24 25  1  0
 25 26  2  0
 26 27  1  0
 26 28  1  0
 28 29  2  0
 29 30  1  0
 15 31  1  0
 31 32  1  0
 11  6  1  0
 32 12  1  0
 30 20  1  0
 29 23  1  0
  1 33  1  0
  1 34  1  0
  1 35  1  0
  2 36  1  0
  2 37  1  0
  7 38  1  0
  8 39  1  0
  9 40  1  0
 10 41  1  0
 11 42  1  0
 12 43  1  0
 13 44  1  0
 13 45  1  0
 14 46  1  0
 14 47  1  0
 18 48  1  1
 19 49  1  0
 19 50  1  0
 20 51  1  6
 21 52  1  0
 21 53  1  0
 22 54  1  0
 22 55  1  0
 24 56  1  0
 25 57  1  0
 28 58  1  0
 30 59  1  0
 30 60  1  0
 31 61  1  0
 31 62  1  0
 32 63  1  0
 32 64  1  0
M  END
>  <smiles>  (100) 
CCC(=O)N(c1ccccc1)C1CCN(C(=O)[C@@H](N)C2CCc3ccc(Cl)cc3C2)CC1

>  <score_type>  (100) 
oracle

>  <origin>  (100) 
autodockgpu

>  <m_score__min__energy>  (100) 
-7.6799999999999997

>  <m_primary>  (100) 
energy

>  <rmsd>  (100) 
6.243934439173453

>  <m_score__min__rmsd>  (100) 
6.243934439173453

>  <meeko>  (100) 
{"free_energy": -6.87, "intermolecular_energy": -8.96, "internal_energy": -2.71, "cluster_size": 17, "cluster_id": 4, "rank_in_cluster": 1}

>  <energy>  (100) 
-6.51

>  <cluster_rmsd>  (100) 
0.0

>  <cluster>  (100) 
9

$$$$
