
     RDKit          3D

 51 54  0  0  0  0  0  0  0  0999 V2000
  138.9660   71.3510  221.1730 O   0  0  0  0  0  0  0  0  0  0  0  0
  139.2560   71.9130  222.2600 C   0  0  0  0  0  0  0  0  0  0  0  0
  139.3520   73.3240  222.4050 N   0  0  0  0  0  0  0  0  0  0  0  0
  139.1090   74.1580  221.2600 C   0  0  0  0  0  0  0  0  0  0  0  0
  140.1000   75.2430  221.1270 C   0  0  0  0  0  0  0  0  0  0  0  0
  141.0660   75.0750  220.3230 O   0  0  0  0  0  0  0  0  0  0  0  0
  139.9640   76.4390  221.8840 N   0  0  0  0  0  0  0  0  0  0  0  0
  138.7540   76.6480  222.6540 C   0  0  0  0  0  0  0  0  0  0  0  0
  138.2360   78.0190  222.3670 C   0  0  0  0  0  0  0  0  0  0  0  0
  138.8080   79.0700  223.2930 C   0  0  0  0  0  0  0  0  0  0  0  0
  140.2230   79.4430  222.9420 C   0  0  0  0  0  0  0  0  0  0  0  0
  141.1880   78.3140  222.9280 C   0  0  0  0  0  0  0  0  0  0  0  0
  141.0790   77.3490  221.8070 C   0  0  2  0  0  0  0  0  0  0  0  0
  141.0160   78.0190  220.4540 C   0  0  0  0  0  0  0  0  0  0  0  0
  142.1770   77.9130  219.5190 C   0  0  0  0  0  0  0  0  0  0  0  0
  141.8290   79.2230  220.1370 C   0  0  0  0  0  0  0  0  0  0  0  0
  139.5130   71.1110  223.4530 C   0  0  0  0  0  0  0  0  0  0  0  0
  139.1900   69.7580  223.4530 C   0  0  0  0  0  0  0  0  0  0  0  0
  139.4110   68.9500  224.5560 C   0  0  0  0  0  0  0  0  0  0  0  0
  139.9710   69.4960  225.7000 C   0  0  0  0  0  0  0  0  0  0  0  0
  140.2080   68.7410  226.8100 C   0  0  0  0  0  0  0  0  0  0  0  0
  140.7680   69.3400  227.9180 C   0  0  0  0  0  0  0  0  0  0  0  0
  141.0380   68.6640  229.0680 F   0  0  0  0  0  0  0  0  0  0  0  0
  141.0660   70.6820  227.8610 C   0  0  0  0  0  0  0  0  0  0  0  0
  140.8360   71.4570  226.7540 C   0  0  0  0  0  0  0  0  0  0  0  0
  140.2740   70.8410  225.6490 C   0  0  0  0  0  0  0  0  0  0  0  0
  140.0530   71.6100  224.5750 N   0  0  0  0  0  0  0  0  0  0  0  0
  139.5930   73.8010  223.3040 H   0  0  0  0  0  0  0  0  0  0  0  0
  139.1468   73.5336  220.3551 H   0  0  0  0  0  0  0  0  0  0  0  0
  138.1211   74.6237  221.3910 H   0  0  0  0  0  0  0  0  0  0  0  0
  137.9997   75.8999  222.3688 H   0  0  0  0  0  0  0  0  0  0  0  0
  138.9701   76.5456  223.7277 H   0  0  0  0  0  0  0  0  0  0  0  0
  138.4974   78.2835  221.3318 H   0  0  0  0  0  0  0  0  0  0  0  0
  137.1471   77.9997  222.5219 H   0  0  0  0  0  0  0  0  0  0  0  0
  138.1808   79.9716  223.2326 H   0  0  0  0  0  0  0  0  0  0  0  0
  138.8170   78.6490  224.3092 H   0  0  0  0  0  0  0  0  0  0  0  0
  140.2169   79.8983  221.9407 H   0  0  0  0  0  0  0  0  0  0  0  0
  140.5642   80.1273  223.7328 H   0  0  0  0  0  0  0  0  0  0  0  0
  142.2004   78.7432  222.8992 H   0  0  0  0  0  0  0  0  0  0  0  0
  140.9575   77.7299  223.8312 H   0  0  0  0  0  0  0  0  0  0  0  0
  142.0079   76.7697  221.9149 H   0  0  0  0  0  0  0  0  0  0  0  0
  139.9418   77.7866  220.4095 H   0  0  0  0  0  0  0  0  0  0  0  0
  143.0884   77.3819  219.8308 H   0  0  0  0  0  0  0  0  0  0  0  0
  142.3184   77.5498  218.4904 H   0  0  0  0  0  0  0  0  0  0  0  0
  142.4853   79.6601  220.9040 H   0  0  0  0  0  0  0  0  0  0  0  0
  141.6082   80.2291  219.7510 H   0  0  0  0  0  0  0  0  0  0  0  0
  138.7453   69.3162  222.5491 H   0  0  0  0  0  0  0  0  0  0  0  0
  139.1441   67.8833  224.5242 H   0  0  0  0  0  0  0  0  0  0  0  0
  139.9562   67.6703  226.8213 H   0  0  0  0  0  0  0  0  0  0  0  0
  141.5110   71.1567  228.7480 H   0  0  0  0  0  0  0  0  0  0  0  0
  141.0884   72.5276  226.7441 H   0  0  0  0  0  0  0  0  0  0  0  0
  1  2  2  0
  2  3  1  0
  3  4  1  0
  4  5  1  0
  5  6  2  0
  5  7  1  0
  7  8  1  0
  8  9  1  0
  9 10  1  0
 10 11  1  0
 11 12  1  0
 12 13  1  0
 13 14  1  0
 14 15  1  0
 15 16  1  0
  2 17  1  0
 17 18  2  0
 18 19  1  0
 19 20  2  0
 20 21  1  0
 21 22  2  0
 22 23  1  0
 22 24  1  0
 24 25  2  0
 25 26  1  0
 26 27  2  0
 13  7  1  0
 16 14  1  0
 27 17  1  0
 26 20  1  0
  3 28  1  0
  4 29  1  0
  4 30  1  0
  8 31  1  0
  8 32  1  0
  9 33  1  0
  9 34  1  0
 10 35  1  0
 10 36  1  0
 11 37  1  0
 11 38  1  0
 12 39  1  0
 12 40  1  0
 13 41  1  6
 14 42  1  0
 15 43  1  0
 15 44  1  0
 16 45  1  0
 16 46  1  0
 18 47  1  0
 19 48  1  0
 21 49  1  0
 24 50  1  0
 25 51  1  0
M  END
>  <smiles>  (1) 
O=C(NCC(=O)N1CCCCCC1C1CC1)c1ccc2cc(F)ccc2n1

>  <score_type>  (1) 
oracle

>  <origin>  (1) 
autodockgpu

>  <m_score__min__energy>  (1) 
-6.0099999999999998

>  <m_primary>  (1) 
energy

>  <rmsd>  (1) 
2.824017337930671

>  <m_score__min__rmsd>  (1) 
2.824017337930671

>  <meeko>  (1) 
{"free_energy": -5.22, "intermolecular_energy": -8.5, "internal_energy": -1.42, "cluster_size": 22, "cluster_id": 2, "rank_in_cluster": 13}

>  <energy>  (1) 
-6.01

>  <cluster_rmsd>  (1) 
0.0

>  <cluster>  (1) 
1

$$$$

     RDKit          3D

 51 54  0  0  0  0  0  0  0  0999 V2000
  141.9740   71.6950  221.0600 O   0  0  0  0  0  0  0  0  0  0  0  0
  141.3430   72.5880  221.6810 C   0  0  0  0  0  0  0  0  0  0  0  0
  140.4890   72.3130  222.7840 N   0  0  0  0  0  0  0  0  0  0  0  0
  140.3320   70.9520  223.2190 C   0  0  0  0  0  0  0  0  0  0  0  0
  139.2850   70.8020  224.2470 C   0  0  0  0  0  0  0  0  0  0  0  0
  138.1290   71.2580  223.9940 O   0  0  0  0  0  0  0  0  0  0  0  0
  139.5750   70.1600  225.4820 N   0  0  0  0  0  0  0  0  0  0  0  0
  138.6110   69.2260  226.0300 C   0  0  0  0  0  0  0  0  0  0  0  0
  139.0010   67.8440  225.6210 C   0  0  0  0  0  0  0  0  0  0  0  0
  140.1860   67.3130  226.3980 C   0  0  0  0  0  0  0  0  0  0  0  0
  141.4580   68.0580  226.0960 C   0  0  0  0  0  0  0  0  0  0  0  0
  141.5680   69.3970  226.7250 C   0  0  0  0  0  0  0  0  0  0  0  0
  140.8360   70.5140  226.0810 C   0  0  2  0  0  0  0  0  0  0  0  0
  140.5770   71.6690  227.0210 C   0  0  0  0  0  0  0  0  0  0  0  0
  141.4950   71.9070  228.1760 C   0  0  0  0  0  0  0  0  0  0  0  0
  140.0950   71.4570  228.4110 C   0  0  0  0  0  0  0  0  0  0  0  0
  141.4670   73.9870  221.2800 C   0  0  0  0  0  0  0  0  0  0  0  0
  142.1900   74.3110  220.1360 C   0  0  0  0  0  0  0  0  0  0  0  0
  142.3410   75.6190  219.7080 C   0  0  0  0  0  0  0  0  0  0  0  0
  141.7580   76.6460  220.4350 C   0  0  0  0  0  0  0  0  0  0  0  0
  141.8790   77.9490  220.0530 C   0  0  0  0  0  0  0  0  0  0  0  0
  141.2760   78.9260  220.8170 C   0  0  0  0  0  0  0  0  0  0  0  0
  141.3450   80.2510  220.5120 F   0  0  0  0  0  0  0  0  0  0  0  0
  140.5740   78.5470  221.9380 C   0  0  0  0  0  0  0  0  0  0  0  0
  140.4420   77.2420  222.3360 C   0  0  0  0  0  0  0  0  0  0  0  0
  141.0520   76.2720  221.5600 C   0  0  0  0  0  0  0  0  0  0  0  0
  140.9160   75.0010  221.9620 N   0  0  0  0  0  0  0  0  0  0  0  0
  139.9590   73.0480  223.3070 H   0  0  0  0  0  0  0  0  0  0  0  0
  140.0637   70.3332  222.3500 H   0  0  0  0  0  0  0  0  0  0  0  0
  141.2853   70.6330  223.6656 H   0  0  0  0  0  0  0  0  0  0  0  0
  138.6058   69.3001  227.1275 H   0  0  0  0  0  0  0  0  0  0  0  0
  137.6047   69.4598  225.6523 H   0  0  0  0  0  0  0  0  0  0  0  0
  138.1443   67.1741  225.7860 H   0  0  0  0  0  0  0  0  0  0  0  0
  139.2917   67.8828  224.5608 H   0  0  0  0  0  0  0  0  0  0  0  0
  139.9715   67.4039  227.4730 H   0  0  0  0  0  0  0  0  0  0  0  0
  140.3359   66.2646  226.1009 H   0  0  0  0  0  0  0  0  0  0  0  0
  142.3024   67.4465  226.4466 H   0  0  0  0  0  0  0  0  0  0  0  0
  141.4620   68.2289  225.0094 H   0  0  0  0  0  0  0  0  0  0  0  0
  141.1954   69.3090  227.7562 H   0  0  0  0  0  0  0  0  0  0  0  0
  142.6306   69.6657  226.6323 H   0  0  0  0  0  0  0  0  0  0  0  0
  141.5289   70.8084  225.2790 H   0  0  0  0  0  0  0  0  0  0  0  0
  140.2137   72.2576  226.1657 H   0  0  0  0  0  0  0  0  0  0  0  0
  142.3332   71.2199  228.3639 H   0  0  0  0  0  0  0  0  0  0  0  0
  142.1106   72.7508  228.5211 H   0  0  0  0  0  0  0  0  0  0  0  0
  139.8996   70.4375  228.7750 H   0  0  0  0  0  0  0  0  0  0  0  0
  139.2484   71.8325  229.0046 H   0  0  0  0  0  0  0  0  0  0  0  0
  142.6561   73.5026  219.5535 H   0  0  0  0  0  0  0  0  0  0  0  0
  142.9187   75.8418  218.7988 H   0  0  0  0  0  0  0  0  0  0  0  0
  142.4481   78.2166  219.1505 H   0  0  0  0  0  0  0  0  0  0  0  0
  140.0952   79.3297  222.5447 H   0  0  0  0  0  0  0  0  0  0  0  0
  139.8724   76.9757  223.2386 H   0  0  0  0  0  0  0  0  0  0  0  0
  1  2  2  0
  2  3  1  0
  3  4  1  0
  4  5  1  0
  5  6  2  0
  5  7  1  0
  7  8  1  0
  8  9  1  0
  9 10  1  0
 10 11  1  0
 11 12  1  0
 12 13  1  0
 13 14  1  0
 14 15  1  0
 15 16  1  0
  2 17  1  0
 17 18  2  0
 18 19  1  0
 19 20  2  0
 20 21  1  0
 21 22  2  0
 22 23  1  0
 22 24  1  0
 24 25  2  0
 25 26  1  0
 26 27  2  0
 13  7  1  0
 16 14  1  0
 27 17  1  0
 26 20  1  0
  3 28  1  0
  4 29  1  0
  4 30  1  0
  8 31  1  0
  8 32  1  0
  9 33  1  0
  9 34  1  0
 10 35  1  0
 10 36  1  0
 11 37  1  0
 11 38  1  0
 12 39  1  0
 12 40  1  0
 13 41  1  6
 14 42  1  0
 15 43  1  0
 15 44  1  0
 16 45  1  0
 16 46  1  0
 18 47  1  0
 19 48  1  0
 21 49  1  0
 24 50  1  0
 25 51  1  0
M  END
>  <smiles>  (2) 
O=C(NCC(=O)N1CCCCCC1C1CC1)c1ccc2cc(F)ccc2n1

>  <score_type>  (2) 
oracle

>  <origin>  (2) 
autodockgpu

>  <m_score__min__energy>  (2) 
-6.0099999999999998

>  <m_primary>  (2) 
energy

>  <rmsd>  (2) 
8.84497649464098

>  <m_score__min__rmsd>  (2) 
8.84497649464098

>  <meeko>  (2) 
{"free_energy": -4.89, "intermolecular_energy": -8.17, "internal_energy": -1.7, "cluster_size": 8, "cluster_id": 1, "rank_in_cluster": 7}

>  <energy>  (2) 
-5.84

>  <cluster_rmsd>  (2) 
1.41

>  <cluster>  (2) 
1

$$$$

     RDKit          3D

 51 54  0  0  0  0  0  0  0  0999 V2000
  139.6930   71.5130  221.4960 O   0  0  0  0  0  0  0  0  0  0  0  0
  139.0730   71.7480  222.5650 C   0  0  0  0  0  0  0  0  0  0  0  0
  137.8890   72.5330  222.6210 N   0  0  0  0  0  0  0  0  0  0  0  0
  137.3670   73.0900  221.4030 C   0  0  0  0  0  0  0  0  0  0  0  0
  138.1000   74.2950  220.9700 C   0  0  0  0  0  0  0  0  0  0  0  0
  138.2310   74.4990  219.7250 O   0  0  0  0  0  0  0  0  0  0  0  0
  138.6390   75.1950  221.9290 N   0  0  0  0  0  0  0  0  0  0  0  0
  137.7330   76.0380  222.6850 C   0  0  0  0  0  0  0  0  0  0  0  0
  137.6720   77.3790  222.0320 C   0  0  0  0  0  0  0  0  0  0  0  0
  138.8850   78.2340  222.3280 C   0  0  0  0  0  0  0  0  0  0  0  0
  140.1450   77.6840  221.7170 C   0  0  0  0  0  0  0  0  0  0  0  0
  140.6980   76.4800  222.3870 C   0  0  0  0  0  0  0  0  0  0  0  0
  140.0730   75.1760  222.0570 C   0  0  2  0  0  0  0  0  0  0  0  0
  140.6270   74.5590  220.7930 C   0  0  0  0  0  0  0  0  0  0  0  0
  141.8010   73.6370  220.8700 C   0  0  0  0  0  0  0  0  0  0  0  0
  141.9370   74.9730  220.2260 C   0  0  0  0  0  0  0  0  0  0  0  0
  139.5630   71.2070  223.8300 C   0  0  0  0  0  0  0  0  0  0  0  0
  140.5140   71.9160  224.5570 C   0  0  0  0  0  0  0  0  0  0  0  0
  141.0130   71.4500  225.7620 C   0  0  0  0  0  0  0  0  0  0  0  0
  140.5590   70.2420  226.2680 C   0  0  0  0  0  0  0  0  0  0  0  0
  141.0210   69.7430  227.4490 C   0  0  0  0  0  0  0  0  0  0  0  0
  140.5310   68.5360  227.9020 C   0  0  0  0  0  0  0  0  0  0  0  0
  140.9360   67.9630  229.0680 F   0  0  0  0  0  0  0  0  0  0  0  0
  139.5920   67.8790  227.1400 C   0  0  0  0  0  0  0  0  0  0  0  0
  139.1160   68.3660  225.9500 C   0  0  0  0  0  0  0  0  0  0  0  0
  139.6170   69.5790  225.5090 C   0  0  0  0  0  0  0  0  0  0  0  0
  139.1430   70.0420  224.3440 N   0  0  0  0  0  0  0  0  0  0  0  0
  137.3670   72.7350  223.5040 H   0  0  0  0  0  0  0  0  0  0  0  0
  137.4374   72.3309  220.6100 H   0  0  0  0  0  0  0  0  0  0  0  0
  136.3240   73.3844  221.5916 H   0  0  0  0  0  0  0  0  0  0  0  0
  136.7302   75.5862  222.6975 H   0  0  0  0  0  0  0  0  0  0  0  0
  138.0911   76.1404  223.7200 H   0  0  0  0  0  0  0  0  0  0  0  0
  137.6002   77.2364  220.9436 H   0  0  0  0  0  0  0  0  0  0  0  0
  136.7927   77.9027  222.4352 H   0  0  0  0  0  0  0  0  0  0  0  0
  138.7107   79.2433  221.9269 H   0  0  0  0  0  0  0  0  0  0  0  0
  139.0234   78.2487  223.4192 H   0  0  0  0  0  0  0  0  0  0  0  0
  139.9299   77.4227  220.6704 H   0  0  0  0  0  0  0  0  0  0  0  0
  140.9060   78.4708  221.8254 H   0  0  0  0  0  0  0  0  0  0  0  0
  141.7635   76.4133  222.1219 H   0  0  0  0  0  0  0  0  0  0  0  0
  140.4935   76.6308  223.4572 H   0  0  0  0  0  0  0  0  0  0  0  0
  140.3336   74.5695  222.9369 H   0  0  0  0  0  0  0  0  0  0  0  0
  139.6032   74.5040  220.3945 H   0  0  0  0  0  0  0  0  0  0  0  0
  142.2845   73.4406  221.8384 H   0  0  0  0  0  0  0  0  0  0  0  0
  141.9988   72.5997  220.5621 H   0  0  0  0  0  0  0  0  0  0  0  0
  142.5235   75.7627  220.7182 H   0  0  0  0  0  0  0  0  0  0  0  0
  142.2794   75.3295  219.2433 H   0  0  0  0  0  0  0  0  0  0  0  0
  140.8806   72.8754  224.1630 H   0  0  0  0  0  0  0  0  0  0  0  0
  141.7642   72.0343  226.3136 H   0  0  0  0  0  0  0  0  0  0  0  0
  141.7732   70.2945  228.0321 H   0  0  0  0  0  0  0  0  0  0  0  0
  139.2043   66.9159  227.5035 H   0  0  0  0  0  0  0  0  0  0  0  0
  138.3641   67.8136  225.3674 H   0  0  0  0  0  0  0  0  0  0  0  0
  1  2  2  0
  2  3  1  0
  3  4  1  0
  4  5  1  0
  5  6  2  0
  5  7  1  0
  7  8  1  0
  8  9  1  0
  9 10  1  0
 10 11  1  0
 11 12  1  0
 12 13  1  0
 13 14  1  0
 14 15  1  0
 15 16  1  0
  2 17  1  0
 17 18  2  0
 18 19  1  0
 19 20  2  0
 20 21  1  0
 21 22  2  0
 22 23  1  0
 22 24  1  0
 24 25  2  0
 25 26  1  0
 26 27  2  0
 13  7  1  0
 16 14  1  0
 27 17  1  0
 26 20  1  0
  3 28  1  0
  4 29  1  0
  4 30  1  0
  8 31  1  0
  8 32  1  0
  9 33  1  0
  9 34  1  0
 10 35  1  0
 10 36  1  0
 11 37  1  0
 11 38  1  0
 12 39  1  0
 12 40  1  0
 13 41  1  1
 14 42  1  0
 15 43  1  0
 15 44  1  0
 16 45  1  0
 16 46  1  0
 18 47  1  0
 19 48  1  0
 21 49  1  0
 24 50  1  0
 25 51  1  0
M  END
>  <smiles>  (3) 
O=C(NCC(=O)N1CCCCCC1C1CC1)c1ccc2cc(F)ccc2n1

>  <score_type>  (3) 
oracle

>  <origin>  (3) 
autodockgpu

>  <m_score__min__energy>  (3) 
-6.0099999999999998

>  <m_primary>  (3) 
energy

>  <rmsd>  (3) 
3.539589115772015

>  <m_score__min__rmsd>  (3) 
3.539589115772015

>  <meeko>  (3) 
{"free_energy": -4.7, "intermolecular_energy": -7.98, "internal_energy": -1.68, "cluster_size": 1, "cluster_id": 7, "rank_in_cluster": 1}

>  <energy>  (3) 
-5.38

>  <cluster_rmsd>  (3) 
1.37

>  <cluster>  (3) 
1

$$$$

     RDKit          3D

 51 54  0  0  0  0  0  0  0  0999 V2000
  141.2430   72.0250  221.3200 O   0  0  0  0  0  0  0  0  0  0  0  0
  140.5320   72.4420  222.2710 C   0  0  0  0  0  0  0  0  0  0  0  0
  139.9470   73.7370  222.2950 N   0  0  0  0  0  0  0  0  0  0  0  0
  140.1720   74.6220  221.1860 C   0  0  0  0  0  0  0  0  0  0  0  0
  140.4430   76.0080  221.6120 C   0  0  0  0  0  0  0  0  0  0  0  0
  139.9170   76.4150  222.6920 O   0  0  0  0  0  0  0  0  0  0  0  0
  141.2720   76.8550  220.8260 N   0  0  0  0  0  0  0  0  0  0  0  0
  142.2470   76.2520  219.9380 C   0  0  0  0  0  0  0  0  0  0  0  0
  141.6820   76.2280  218.5560 C   0  0  0  0  0  0  0  0  0  0  0  0
  141.8030   77.5600  217.8470 C   0  0  0  0  0  0  0  0  0  0  0  0
  142.1990   78.6760  218.7750 C   0  0  0  0  0  0  0  0  0  0  0  0
  141.1660   79.0820  219.7630 C   0  0  0  0  0  0  0  0  0  0  0  0
  141.0510   78.2680  220.9970 C   0  0  2  0  0  0  0  0  0  0  0  0
  141.9730   78.7350  222.1000 C   0  0  0  0  0  0  0  0  0  0  0  0
  141.4330   78.9510  223.4770 C   0  0  0  0  0  0  0  0  0  0  0  0
  141.8930   80.1090  222.6600 C   0  0  0  0  0  0  0  0  0  0  0  0
  140.2730   71.5820  223.4230 C   0  0  0  0  0  0  0  0  0  0  0  0
  139.5500   70.4050  223.2510 C   0  0  0  0  0  0  0  0  0  0  0  0
  139.2740   69.5520  224.3070 C   0  0  0  0  0  0  0  0  0  0  0  0
  139.7260   69.8710  225.5780 C   0  0  0  0  0  0  0  0  0  0  0  0
  139.4800   69.0630  226.6480 C   0  0  0  0  0  0  0  0  0  0  0  0
  139.9560   69.4340  227.8880 C   0  0  0  0  0  0  0  0  0  0  0  0
  139.7570   68.6900  229.0100 F   0  0  0  0  0  0  0  0  0  0  0  0
  140.6640   70.6090  227.9970 C   0  0  0  0  0  0  0  0  0  0  0  0
  140.9220   71.4330  226.9320 C   0  0  0  0  0  0  0  0  0  0  0  0
  140.4380   71.0480  225.6940 C   0  0  0  0  0  0  0  0  0  0  0  0
  140.6960   71.8630  224.6630 N   0  0  0  0  0  0  0  0  0  0  0  0
  139.3550   74.0930  223.0810 H   0  0  0  0  0  0  0  0  0  0  0  0
  141.0354   74.2548  220.6118 H   0  0  0  0  0  0  0  0  0  0  0  0
  139.2555   74.6336  220.5779 H   0  0  0  0  0  0  0  0  0  0  0  0
  143.1742   76.8437  219.9491 H   0  0  0  0  0  0  0  0  0  0  0  0
  142.4740   75.2278  220.2690 H   0  0  0  0  0  0  0  0  0  0  0  0
  142.2200   75.4683  217.9700 H   0  0  0  0  0  0  0  0  0  0  0  0
  140.6102   75.9957  218.6415 H   0  0  0  0  0  0  0  0  0  0  0  0
  142.5643   77.4711  217.0580 H   0  0  0  0  0  0  0  0  0  0  0  0
  140.8148   77.8071  217.4317 H   0  0  0  0  0  0  0  0  0  0  0  0
  143.0919   78.3540  219.3309 H   0  0  0  0  0  0  0  0  0  0  0  0
  142.3683   79.5551  218.1359 H   0  0  0  0  0  0  0  0  0  0  0  0
  141.3878   80.1154  220.0678 H   0  0  0  0  0  0  0  0  0  0  0  0
  140.2067   78.9447  219.2426 H   0  0  0  0  0  0  0  0  0  0  0  0
  139.9977   78.4221  221.2741 H   0  0  0  0  0  0  0  0  0  0  0  0
  142.7801   78.1364  221.6525 H   0  0  0  0  0  0  0  0  0  0  0  0
  140.3606   78.8091  223.6766 H   0  0  0  0  0  0  0  0  0  0  0  0
  141.6698   78.5598  224.4774 H   0  0  0  0  0  0  0  0  0  0  0  0
  141.1595   80.8238  222.2586 H   0  0  0  0  0  0  0  0  0  0  0  0
  142.6110   80.9286  222.8107 H   0  0  0  0  0  0  0  0  0  0  0  0
  139.1868   70.1443  222.2460 H   0  0  0  0  0  0  0  0  0  0  0  0
  138.7006   68.6286  224.1383 H   0  0  0  0  0  0  0  0  0  0  0  0
  138.9108   68.1299  226.5243 H   0  0  0  0  0  0  0  0  0  0  0  0
  141.0417   70.9017  228.9878 H   0  0  0  0  0  0  0  0  0  0  0  0
  141.4924   72.3652  227.0569 H   0  0  0  0  0  0  0  0  0  0  0  0
  1  2  2  0
  2  3  1  0
  3  4  1  0
  4  5  1  0
  5  6  2  0
  5  7  1  0
  7  8  1  0
  8  9  1  0
  9 10  1  0
 10 11  1  0
 11 12  1  0
 12 13  1  0
 13 14  1  0
 14 15  1  0
 15 16  1  0
  2 17  1  0
 17 18  2  0
 18 19  1  0
 19 20  2  0
 20 21  1  0
 21 22  2  0
 22 23  1  0
 22 24  1  0
 24 25  2  0
 25 26  1  0
 26 27  2  0
 13  7  1  0
 16 14  1  0
 27 17  1  0
 26 20  1  0
  3 28  1  0
  4 29  1  0
  4 30  1  0
  8 31  1  0
  8 32  1  0
  9 33  1  0
  9 34  1  0
 10 35  1  0
 10 36  1  0
 11 37  1  0
 11 38  1  0
 12 39  1  0
 12 40  1  0
 13 41  1  1
 14 42  1  0
 15 43  1  0
 15 44  1  0
 16 45  1  0
 16 46  1  0
 18 47  1  0
 19 48  1  0
 21 49  1  0
 24 50  1  0
 25 51  1  0
M  END
>  <smiles>  (4) 
O=C(NCC(=O)N1CCCCCC1C1CC1)c1ccc2cc(F)ccc2n1

>  <score_type>  (4) 
oracle

>  <origin>  (4) 
autodockgpu

>  <m_score__min__energy>  (4) 
-6.0099999999999998

>  <m_primary>  (4) 
energy

>  <rmsd>  (4) 
2.132397039691961

>  <m_score__min__rmsd>  (4) 
2.132397039691961

>  <meeko>  (4) 
{"free_energy": -5.67, "intermolecular_energy": -8.95, "internal_energy": -1.6, "cluster_size": 22, "cluster_id": 2, "rank_in_cluster": 4}

>  <energy>  (4) 
-5.19

>  <cluster_rmsd>  (4) 
0.7

>  <cluster>  (4) 
1

$$$$

     RDKit          3D

 51 54  0  0  0  0  0  0  0  0999 V2000
  137.6900   70.0550  222.0910 O   0  0  0  0  0  0  0  0  0  0  0  0
  137.8090   70.5820  223.2270 C   0  0  0  0  0  0  0  0  0  0  0  0
  137.2670   71.8540  223.5560 N   0  0  0  0  0  0  0  0  0  0  0  0
  136.5470   72.5840  222.5490 C   0  0  0  0  0  0  0  0  0  0  0  0
  135.0840   72.4530  222.6900 C   0  0  0  0  0  0  0  0  0  0  0  0
  134.3450   73.0990  221.8860 O   0  0  0  0  0  0  0  0  0  0  0  0
  134.5290   71.6220  223.7020 N   0  0  0  0  0  0  0  0  0  0  0  0
  134.0100   70.3200  223.3320 C   0  0  0  0  0  0  0  0  0  0  0  0
  134.8830   69.2700  223.9360 C   0  0  0  0  0  0  0  0  0  0  0  0
  134.4810   68.9120  225.3500 C   0  0  0  0  0  0  0  0  0  0  0  0
  134.7700   70.0150  226.3320 C   0  0  0  0  0  0  0  0  0  0  0  0
  134.0300   71.2800  226.0960 C   0  0  0  0  0  0  0  0  0  0  0  0
  134.5410   72.1760  225.0320 C   0  0  2  0  0  0  0  0  0  0  0  0
  133.8130   73.4990  224.9720 C   0  0  0  0  0  0  0  0  0  0  0  0
  134.3870   74.6940  225.6620 C   0  0  0  0  0  0  0  0  0  0  0  0
  133.1280   74.0720  226.1610 C   0  0  0  0  0  0  0  0  0  0  0  0
  138.5320   69.8830  224.2860 C   0  0  0  0  0  0  0  0  0  0  0  0
  138.6440   68.4960  224.2400 C   0  0  0  0  0  0  0  0  0  0  0  0
  139.3180   67.7820  225.2160 C   0  0  0  0  0  0  0  0  0  0  0  0
  139.9020   68.4580  226.2760 C   0  0  0  0  0  0  0  0  0  0  0  0
  140.5760   67.7980  227.2610 C   0  0  0  0  0  0  0  0  0  0  0  0
  141.1360   68.5250  228.2890 C   0  0  0  0  0  0  0  0  0  0  0  0
  141.8240   67.9510  229.3130 F   0  0  0  0  0  0  0  0  0  0  0  0
  140.9920   69.8940  228.2830 C   0  0  0  0  0  0  0  0  0  0  0  0
  140.3190   70.5740  227.3010 C   0  0  0  0  0  0  0  0  0  0  0  0
  139.7620   69.8310  226.2750 C   0  0  0  0  0  0  0  0  0  0  0  0
  139.1070   70.5080  225.3230 N   0  0  0  0  0  0  0  0  0  0  0  0
  137.3610   72.3010  224.4970 H   0  0  0  0  0  0  0  0  0  0  0  0
  136.8145   73.6482  222.6265 H   0  0  0  0  0  0  0  0  0  0  0  0
  136.8261   72.1656  221.5707 H   0  0  0  0  0  0  0  0  0  0  0  0
  132.9826   70.2098  223.7092 H   0  0  0  0  0  0  0  0  0  0  0  0
  134.0005   70.2166  222.2369 H   0  0  0  0  0  0  0  0  0  0  0  0
  134.8241   68.3644  223.3144 H   0  0  0  0  0  0  0  0  0  0  0  0
  135.9055   69.6735  223.9756 H   0  0  0  0  0  0  0  0  0  0  0  0
  133.4017   68.7001  225.3662 H   0  0  0  0  0  0  0  0  0  0  0  0
  135.0720   68.0347  225.6518 H   0  0  0  0  0  0  0  0  0  0  0  0
  134.5116   69.6519  227.3377 H   0  0  0  0  0  0  0  0  0  0  0  0
  135.8363   70.2580  226.2137 H   0  0  0  0  0  0  0  0  0  0  0  0
  132.9949   71.0140  225.8356 H   0  0  0  0  0  0  0  0  0  0  0  0
  134.1444   71.8531  227.0279 H   0  0  0  0  0  0  0  0  0  0  0  0
  135.5877   72.3186  225.3389 H   0  0  0  0  0  0  0  0  0  0  0  0
  133.4941   73.2554  223.9478 H   0  0  0  0  0  0  0  0  0  0  0  0
  135.3157   74.6005  226.2441 H   0  0  0  0  0  0  0  0  0  0  0  0
  134.6858   75.7055  225.3495 H   0  0  0  0  0  0  0  0  0  0  0  0
  133.1274   73.5211  227.1131 H   0  0  0  0  0  0  0  0  0  0  0  0
  132.1117   74.4371  226.3704 H   0  0  0  0  0  0  0  0  0  0  0  0
  138.1831   67.9511  223.4030 H   0  0  0  0  0  0  0  0  0  0  0  0
  139.3896   66.6863  225.1508 H   0  0  0  0  0  0  0  0  0  0  0  0
  140.6711   66.7024  227.2352 H   0  0  0  0  0  0  0  0  0  0  0  0
  141.4388   70.4706  229.1064 H   0  0  0  0  0  0  0  0  0  0  0  0
  140.2253   71.6697  227.3277 H   0  0  0  0  0  0  0  0  0  0  0  0
  1  2  2  0
  2  3  1  0
  3  4  1  0
  4  5  1  0
  5  6  2  0
  5  7  1  0
  7  8  1  0
  8  9  1  0
  9 10  1  0
 10 11  1  0
 11 12  1  0
 12 13  1  0
 13 14  1  0
 14 15  1  0
 15 16  1  0
  2 17  1  0
 17 18  2  0
 18 19  1  0
 19 20  2  0
 20 21  1  0
 21 22  2  0
 22 23  1  0
 22 24  1  0
 24 25  2  0
 25 26  1  0
 26 27  2  0
 13  7  1  0
 16 14  1  0
 27 17  1  0
 26 20  1  0
  3 28  1  0
  4 29  1  0
  4 30  1  0
  8 31  1  0
  8 32  1  0
  9 33  1  0
  9 34  1  0
 10 35  1  0
 10 36  1  0
 11 37  1  0
 11 38  1  0
 12 39  1  0
 12 40  1  0
 13 41  1  1
 14 42  1  0
 15 43  1  0
 15 44  1  0
 16 45  1  0
 16 46  1  0
 18 47  1  0
 19 48  1  0
 21 49  1  0
 24 50  1  0
 25 51  1  0
M  END
>  <smiles>  (5) 
O=C(NCC(=O)N1CCCCCC1C1CC1)c1ccc2cc(F)ccc2n1

>  <score_type>  (5) 
oracle

>  <origin>  (5) 
autodockgpu

>  <m_score__min__energy>  (5) 
-6.0099999999999998

>  <m_primary>  (5) 
energy

>  <rmsd>  (5) 
6.277594907810475

>  <m_score__min__rmsd>  (5) 
6.277594907810475

>  <meeko>  (5) 
{"free_energy": -4.31, "intermolecular_energy": -7.59, "internal_energy": -2.26, "cluster_size": 1, "cluster_id": 9, "rank_in_cluster": 1}

>  <energy>  (5) 
-5.18

>  <cluster_rmsd>  (5) 
1.57

>  <cluster>  (5) 
1

$$$$

     RDKit          3D

 51 54  0  0  0  0  0  0  0  0999 V2000
  141.1250   71.4180  221.3090 O   0  0  0  0  0  0  0  0  0  0  0  0
  140.3620   72.1650  221.9740 C   0  0  0  0  0  0  0  0  0  0  0  0
  139.4200   71.6720  222.9180 N   0  0  0  0  0  0  0  0  0  0  0  0
  139.3270   70.2540  223.1310 C   0  0  0  0  0  0  0  0  0  0  0  0
  138.9080   69.9120  224.5030 C   0  0  0  0  0  0  0  0  0  0  0  0
  137.7470   69.4310  224.6720 O   0  0  0  0  0  0  0  0  0  0  0  0
  139.7910   70.1200  225.5990 N   0  0  0  0  0  0  0  0  0  0  0  0
  141.1360   70.5930  225.3350 C   0  0  0  0  0  0  0  0  0  0  0  0
  141.2320   72.0200  225.7640 C   0  0  0  0  0  0  0  0  0  0  0  0
  141.6120   72.1710  227.2210 C   0  0  0  0  0  0  0  0  0  0  0  0
  141.1480   71.0150  228.0650 C   0  0  0  0  0  0  0  0  0  0  0  0
  139.6950   70.7250  227.9910 C   0  0  0  0  0  0  0  0  0  0  0  0
  139.2410   69.8310  226.8990 C   0  0  2  0  0  0  0  0  0  0  0  0
  139.5060   68.3700  227.1820 C   0  0  0  0  0  0  0  0  0  0  0  0
  140.9130   67.8740  227.2690 C   0  0  0  0  0  0  0  0  0  0  0  0
  140.0380   67.4520  226.1400 C   0  0  0  0  0  0  0  0  0  0  0  0
  140.4160   73.6130  221.7940 C   0  0  0  0  0  0  0  0  0  0  0  0
  141.4760   74.1780  221.0920 C   0  0  0  0  0  0  0  0  0  0  0  0
  141.5780   75.5450  220.8910 C   0  0  0  0  0  0  0  0  0  0  0  0
  140.6010   76.3850  221.4030 C   0  0  0  0  0  0  0  0  0  0  0  0
  140.6590   77.7360  221.2320 C   0  0  0  0  0  0  0  0  0  0  0  0
  139.6570   78.5200  221.7630 C   0  0  0  0  0  0  0  0  0  0  0  0
  139.6340   79.8750  221.6420 F   0  0  0  0  0  0  0  0  0  0  0  0
  138.6340   77.9060  222.4500 C   0  0  0  0  0  0  0  0  0  0  0  0
  138.5600   76.5490  222.6310 C   0  0  0  0  0  0  0  0  0  0  0  0
  139.5730   75.7750  222.0910 C   0  0  0  0  0  0  0  0  0  0  0  0
  139.4870   74.4510  222.2770 N   0  0  0  0  0  0  0  0  0  0  0  0
  138.7810   72.2840  223.4750 H   0  0  0  0  0  0  0  0  0  0  0  0
  138.5926   69.8393  222.4248 H   0  0  0  0  0  0  0  0  0  0  0  0
  140.3285   69.8273  222.9728 H   0  0  0  0  0  0  0  0  0  0  0  0
  141.8595   69.9868  225.8998 H   0  0  0  0  0  0  0  0  0  0  0  0
  141.3605   70.5074  224.2616 H   0  0  0  0  0  0  0  0  0  0  0  0
  141.9935   72.5214  225.1486 H   0  0  0  0  0  0  0  0  0  0  0  0
  140.2380   72.4724  225.6328 H   0  0  0  0  0  0  0  0  0  0  0  0
  142.7073   72.2423  227.2934 H   0  0  0  0  0  0  0  0  0  0  0  0
  141.1193   73.0783  227.6005 H   0  0  0  0  0  0  0  0  0  0  0  0
  141.6919   70.1158  227.7400 H   0  0  0  0  0  0  0  0  0  0  0  0
  141.3513   71.2967  229.1087 H   0  0  0  0  0  0  0  0  0  0  0  0
  139.4005   70.2608  228.9438 H   0  0  0  0  0  0  0  0  0  0  0  0
  139.2208   71.6951  227.7812 H   0  0  0  0  0  0  0  0  0  0  0  0
  138.1604   70.0350  226.8720 H   0  0  0  0  0  0  0  0  0  0  0  0
  138.6211   68.3564  227.8353 H   0  0  0  0  0  0  0  0  0  0  0  0
  141.7517   68.5624  227.0881 H   0  0  0  0  0  0  0  0  0  0  0  0
  141.5086   67.3500  228.0310 H   0  0  0  0  0  0  0  0  0  0  0  0
  140.2323   67.8275  225.1245 H   0  0  0  0  0  0  0  0  0  0  0  0
  139.7215   66.4846  225.7229 H   0  0  0  0  0  0  0  0  0  0  0  0
  142.2569   73.5193  220.6841 H   0  0  0  0  0  0  0  0  0  0  0  0
  142.4276   75.9607  220.3295 H   0  0  0  0  0  0  0  0  0  0  0  0
  141.4924   78.1937  220.6789 H   0  0  0  0  0  0  0  0  0  0  0  0
  137.8373   78.5347  222.8743 H   0  0  0  0  0  0  0  0  0  0  0  0
  137.7266   76.0921  223.1848 H   0  0  0  0  0  0  0  0  0  0  0  0
  1  2  2  0
  2  3  1  0
  3  4  1  0
  4  5  1  0
  5  6  2  0
  5  7  1  0
  7  8  1  0
  8  9  1  0
  9 10  1  0
 10 11  1  0
 11 12  1  0
 12 13  1  0
 13 14  1  0
 14 15  1  0
 15 16  1  0
  2 17  1  0
 17 18  2  0
 18 19  1  0
 19 20  2  0
 20 21  1  0
 21 22  2  0
 22 23  1  0
 22 24  1  0
 24 25  2  0
 25 26  1  0
 26 27  2  0
 13  7  1  0
 16 14  1  0
 27 17  1  0
 26 20  1  0
  3 28  1  0
  4 29  1  0
  4 30  1  0
  8 31  1  0
  8 32  1  0
  9 33  1  0
  9 34  1  0
 10 35  1  0
 10 36  1  0
 11 37  1  0
 11 38  1  0
 12 39  1  0
 12 40  1  0
 13 41  1  6
 14 42  1  0
 15 43  1  0
 15 44  1  0
 16 45  1  0
 16 46  1  0
 18 47  1  0
 19 48  1  0
 21 49  1  0
 24 50  1  0
 25 51  1  0
M  END
>  <smiles>  (6) 
O=C(NCC(=O)N1CCCCCC1C1CC1)c1ccc2cc(F)ccc2n1

>  <score_type>  (6) 
oracle

>  <origin>  (6) 
autodockgpu

>  <m_score__min__energy>  (6) 
-6.0099999999999998

>  <m_primary>  (6) 
energy

>  <rmsd>  (6) 
8.417591237068402

>  <m_score__min__rmsd>  (6) 
8.417591237068402

>  <meeko>  (6) 
{"free_energy": -5.19, "intermolecular_energy": -8.47, "internal_energy": -1.69, "cluster_size": 8, "cluster_id": 1, "rank_in_cluster": 4}

>  <energy>  (6) 
-5.0

>  <cluster_rmsd>  (6) 
1.33

>  <cluster>  (6) 
1

$$$$

     RDKit          3D

 51 54  0  0  0  0  0  0  0  0999 V2000
  140.3700   73.6880  222.2540 O   0  0  0  0  0  0  0  0  0  0  0  0
  140.4840   72.4390  222.1660 C   0  0  0  0  0  0  0  0  0  0  0  0
  140.7810   71.7680  220.9490 N   0  0  0  0  0  0  0  0  0  0  0  0
  140.9620   72.5450  219.7540 C   0  0  0  0  0  0  0  0  0  0  0  0
  142.1570   72.1400  218.9890 C   0  0  0  0  0  0  0  0  0  0  0  0
  142.1470   71.0060  218.4200 O   0  0  0  0  0  0  0  0  0  0  0  0
  143.2820   73.0050  218.8970 N   0  0  0  0  0  0  0  0  0  0  0  0
  143.8420   73.2900  217.5910 C   0  0  0  0  0  0  0  0  0  0  0  0
  143.9090   74.7710  217.4130 C   0  0  0  0  0  0  0  0  0  0  0  0
  142.7390   75.4930  218.0470 C   0  0  0  0  0  0  0  0  0  0  0  0
  142.9870   75.8440  219.4880 C   0  0  0  0  0  0  0  0  0  0  0  0
  143.9830   74.9930  220.1840 C   0  0  0  0  0  0  0  0  0  0  0  0
  143.7630   73.5270  220.1510 C   0  0  2  0  0  0  0  0  0  0  0  0
  144.9980   72.7360  220.5200 C   0  0  0  0  0  0  0  0  0  0  0  0
  146.0140   73.3330  221.4380 C   0  0  0  0  0  0  0  0  0  0  0  0
  146.3440   73.0970  220.0050 C   0  0  0  0  0  0  0  0  0  0  0  0
  140.3080   71.6020  223.3510 C   0  0  0  0  0  0  0  0  0  0  0  0
  139.6270   70.3930  223.2420 C   0  0  0  0  0  0  0  0  0  0  0  0
  139.4320   69.5610  224.3310 C   0  0  0  0  0  0  0  0  0  0  0  0
  139.9230   69.9340  225.5720 C   0  0  0  0  0  0  0  0  0  0  0  0
  139.7550   69.1480  226.6730 C   0  0  0  0  0  0  0  0  0  0  0  0
  140.2670   69.5720  227.8810 C   0  0  0  0  0  0  0  0  0  0  0  0
  140.1450   68.8530  229.0300 F   0  0  0  0  0  0  0  0  0  0  0  0
  140.9300   70.7770  227.9290 C   0  0  0  0  0  0  0  0  0  0  0  0
  141.1080   71.5800  226.8320 C   0  0  0  0  0  0  0  0  0  0  0  0
  140.5890   71.1410  225.6260 C   0  0  0  0  0  0  0  0  0  0  0  0
  140.7710   71.9360  224.5640 N   0  0  0  0  0  0  0  0  0  0  0  0
  140.8760   70.7300  220.8650 H   0  0  0  0  0  0  0  0  0  0  0  0
  140.0755   72.4199  219.1149 H   0  0  0  0  0  0  0  0  0  0  0  0
  141.0997   73.5936  220.0563 H   0  0  0  0  0  0  0  0  0  0  0  0
  144.8530   72.8623  217.5202 H   0  0  0  0  0  0  0  0  0  0  0  0
  143.2110   72.8459  216.8070 H   0  0  0  0  0  0  0  0  0  0  0  0
  144.8388   75.1382  217.8720 H   0  0  0  0  0  0  0  0  0  0  0  0
  143.8778   74.9759  216.3327 H   0  0  0  0  0  0  0  0  0  0  0  0
  142.5516   76.4204  217.4859 H   0  0  0  0  0  0  0  0  0  0  0  0
  141.8726   74.8160  218.0138 H   0  0  0  0  0  0  0  0  0  0  0  0
  143.3413   76.8846  219.5285 H   0  0  0  0  0  0  0  0  0  0  0  0
  142.0318   75.6839  220.0095 H   0  0  0  0  0  0  0  0  0  0  0  0
  144.9640   75.1907  219.7272 H   0  0  0  0  0  0  0  0  0  0  0  0
  143.8987   75.2685  221.2456 H   0  0  0  0  0  0  0  0  0  0  0  0
  142.9738   73.3977  220.9062 H   0  0  0  0  0  0  0  0  0  0  0  0
  144.3921   71.8181  220.5012 H   0  0  0  0  0  0  0  0  0  0  0  0
  145.8833   74.3595  221.8112 H   0  0  0  0  0  0  0  0  0  0  0  0
  146.4625   73.0417  222.3992 H   0  0  0  0  0  0  0  0  0  0  0  0
  146.4594   73.9501  219.3203 H   0  0  0  0  0  0  0  0  0  0  0  0
  147.1405   72.5587  219.4704 H   0  0  0  0  0  0  0  0  0  0  0  0
  139.2320   70.0896  222.2612 H   0  0  0  0  0  0  0  0  0  0  0  0
  138.8912   68.6105  224.2121 H   0  0  0  0  0  0  0  0  0  0  0  0
  139.2192   68.1902  226.5989 H   0  0  0  0  0  0  0  0  0  0  0  0
  141.3369   71.1122  228.8944 H   0  0  0  0  0  0  0  0  0  0  0  0
  141.6435   72.5379  226.9074 H   0  0  0  0  0  0  0  0  0  0  0  0
  1  2  2  0
  2  3  1  0
  3  4  1  0
  4  5  1  0
  5  6  2  0
  5  7  1  0
  7  8  1  0
  8  9  1  0
  9 10  1  0
 10 11  1  0
 11 12  1  0
 12 13  1  0
 13 14  1  0
 14 15  1  0
 15 16  1  0
  2 17  1  0
 17 18  2  0
 18 19  1  0
 19 20  2  0
 20 21  1  0
 21 22  2  0
 22 23  1  0
 22 24  1  0
 24 25  2  0
 25 26  1  0
 26 27  2  0
 13  7  1  0
 16 14  1  0
 27 17  1  0
 26 20  1  0
  3 28  1  0
  4 29  1  0
  4 30  1  0
  8 31  1  0
  8 32  1  0
  9 33  1  0
  9 34  1  0
 10 35  1  0
 10 36  1  0
 11 37  1  0
 11 38  1  0
 12 39  1  0
 12 40  1  0
 13 41  1  1
 14 42  1  0
 15 43  1  0
 15 44  1  0
 16 45  1  0
 16 46  1  0
 18 47  1  0
 19 48  1  0
 21 49  1  0
 24 50  1  0
 25 51  1  0
M  END
>  <smiles>  (7) 
O=C(NCC(=O)N1CCCCCC1C1CC1)c1ccc2cc(F)ccc2n1

>  <score_type>  (7) 
oracle

>  <origin>  (7) 
autodockgpu

>  <m_score__min__energy>  (7) 
-6.0099999999999998

>  <m_primary>  (7) 
energy

>  <rmsd>  (7) 
3.33062012994028

>  <m_score__min__rmsd>  (7) 
3.33062012994028

>  <meeko>  (7) 
{"free_energy": -5.45, "intermolecular_energy": -8.74, "internal_energy": -1.61, "cluster_size": 8, "cluster_id": 3, "rank_in_cluster": 1}

>  <energy>  (7) 
-4.89

>  <cluster_rmsd>  (7) 
1.5

>  <cluster>  (7) 
1

$$$$

     RDKit          3D

 51 54  0  0  0  0  0  0  0  0999 V2000
  136.1720   77.5410  222.6440 O   0  0  0  0  0  0  0  0  0  0  0  0
  136.4240   76.3740  223.0390 C   0  0  0  0  0  0  0  0  0  0  0  0
  137.5490   75.6270  222.5940 N   0  0  0  0  0  0  0  0  0  0  0  0
  138.4470   76.2240  221.6440 C   0  0  0  0  0  0  0  0  0  0  0  0
  139.8330   75.7400  221.7910 C   0  0  0  0  0  0  0  0  0  0  0  0
  140.0170   74.6150  222.3490 O   0  0  0  0  0  0  0  0  0  0  0  0
  140.9230   76.5190  221.3170 N   0  0  0  0  0  0  0  0  0  0  0  0
  141.9930   75.8600  220.5940 C   0  0  0  0  0  0  0  0  0  0  0  0
  141.7510   76.0240  219.1300 C   0  0  0  0  0  0  0  0  0  0  0  0
  142.1310   77.3980  218.6210 C   0  0  0  0  0  0  0  0  0  0  0  0
  141.2480   78.4840  219.1720 C   0  0  0  0  0  0  0  0  0  0  0  0
  141.4710   78.8190  220.6020 C   0  0  0  0  0  0  0  0  0  0  0  0
  140.8500   77.9280  221.6110 C   0  0  2  0  0  0  0  0  0  0  0  0
  141.4130   78.1250  223.0000 C   0  0  0  0  0  0  0  0  0  0  0  0
  140.8900   79.2270  223.8630 C   0  0  0  0  0  0  0  0  0  0  0  0
  142.2830   79.2820  223.3370 C   0  0  0  0  0  0  0  0  0  0  0  0
  135.5420   75.7210  224.0030 C   0  0  0  0  0  0  0  0  0  0  0  0
  134.6970   76.4940  224.7930 C   0  0  0  0  0  0  0  0  0  0  0  0
  133.8400   75.9290  225.7230 C   0  0  0  0  0  0  0  0  0  0  0  0
  133.8160   74.5520  225.8800 C   0  0  0  0  0  0  0  0  0  0  0  0
  132.9900   73.9500  226.7820 C   0  0  0  0  0  0  0  0  0  0  0  0
  133.0110   72.5760  226.8930 C   0  0  0  0  0  0  0  0  0  0  0  0
  132.2230   71.8910  227.7660 F   0  0  0  0  0  0  0  0  0  0  0  0
  133.8680   71.8620  226.0870 C   0  0  0  0  0  0  0  0  0  0  0  0
  134.7050   72.4510  225.1740 C   0  0  0  0  0  0  0  0  0  0  0  0
  134.6730   73.8310  225.0740 C   0  0  0  0  0  0  0  0  0  0  0  0
  135.4960   74.3920  224.1790 N   0  0  0  0  0  0  0  0  0  0  0  0
  137.7670   74.6560  222.9160 H   0  0  0  0  0  0  0  0  0  0  0  0
  138.0962   75.9848  220.6292 H   0  0  0  0  0  0  0  0  0  0  0  0
  138.4520   77.3087  221.8267 H   0  0  0  0  0  0  0  0  0  0  0  0
  142.9574   76.3153  220.8634 H   0  0  0  0  0  0  0  0  0  0  0  0
  142.0185   74.7912  220.8530 H   0  0  0  0  0  0  0  0  0  0  0  0
  142.3454   75.2726  218.5896 H   0  0  0  0  0  0  0  0  0  0  0  0
  140.6725   75.8942  218.9569 H   0  0  0  0  0  0  0  0  0  0  0  0
  143.1706   77.6069  218.9136 H   0  0  0  0  0  0  0  0  0  0  0  0
  142.0102   77.3932  217.5277 H   0  0  0  0  0  0  0  0  0  0  0  0
  141.4189   79.3946  218.5790 H   0  0  0  0  0  0  0  0  0  0  0  0
  140.2186   78.1019  219.1060 H   0  0  0  0  0  0  0  0  0  0  0  0
  142.5568   78.8123  220.7781 H   0  0  0  0  0  0  0  0  0  0  0  0
  140.9816   79.7937  220.7447 H   0  0  0  0  0  0  0  0  0  0  0  0
  139.7951   78.2366  221.5681 H   0  0  0  0  0  0  0  0  0  0  0  0
  141.5209   77.0340  223.0902 H   0  0  0  0  0  0  0  0  0  0  0  0
  140.1266   79.9165  223.4734 H   0  0  0  0  0  0  0  0  0  0  0  0
  140.4310   79.2843  224.8610 H   0  0  0  0  0  0  0  0  0  0  0  0
  142.5483   80.0143  222.5603 H   0  0  0  0  0  0  0  0  0  0  0  0
  143.2792   79.3985  223.7886 H   0  0  0  0  0  0  0  0  0  0  0  0
  134.7099   77.5876  224.6754 H   0  0  0  0  0  0  0  0  0  0  0  0
  133.1837   76.5680  226.3321 H   0  0  0  0  0  0  0  0  0  0  0  0
  132.3173   74.5511  227.4114 H   0  0  0  0  0  0  0  0  0  0  0  0
  133.8824   70.7660  226.1795 H   0  0  0  0  0  0  0  0  0  0  0  0
  135.3768   71.8489  224.5446 H   0  0  0  0  0  0  0  0  0  0  0  0
  1  2  2  0
  2  3  1  0
  3  4  1  0
  4  5  1  0
  5  6  2  0
  5  7  1  0
  7  8  1  0
  8  9  1  0
  9 10  1  0
 10 11  1  0
 11 12  1  0
 12 13  1  0
 13 14  1  0
 14 15  1  0
 15 16  1  0
  2 17  1  0
 17 18  2  0
 18 19  1  0
 19 20  2  0
 20 21  1  0
 21 22  2  0
 22 23  1  0
 22 24  1  0
 24 25  2  0
 25 26  1  0
 26 27  2  0
 13  7  1  0
 16 14  1  0
 27 17  1  0
 26 20  1  0
  3 28  1  0
  4 29  1  0
  4 30  1  0
  8 31  1  0
  8 32  1  0
  9 33  1  0
  9 34  1  0
 10 35  1  0
 10 36  1  0
 11 37  1  0
 11 38  1  0
 12 39  1  0
 12 40  1  0
 13 41  1  1
 14 42  1  0
 15 43  1  0
 15 44  1  0
 16 45  1  0
 16 46  1  0
 18 47  1  0
 19 48  1  0
 21 49  1  0
 24 50  1  0
 25 51  1  0
M  END
>  <smiles>  (8) 
O=C(NCC(=O)N1CCCCCC1C1CC1)c1ccc2cc(F)ccc2n1

>  <score_type>  (8) 
oracle

>  <origin>  (8) 
autodockgpu

>  <m_score__min__energy>  (8) 
-6.0099999999999998

>  <m_primary>  (8) 
energy

>  <rmsd>  (8) 
5.9450801735028325

>  <m_score__min__rmsd>  (8) 
5.9450801735028325

>  <meeko>  (8) 
{"free_energy": -4.61, "intermolecular_energy": -7.89, "internal_energy": -1.95, "cluster_size": 2, "cluster_id": 6, "rank_in_cluster": 2}

>  <energy>  (8) 
-4.37

>  <cluster_rmsd>  (8) 
0.79

>  <cluster>  (8) 
1

$$$$

     RDKit          3D

 51 54  0  0  0  0  0  0  0  0999 V2000
  141.1540   74.2310  220.9770 O   0  0  0  0  0  0  0  0  0  0  0  0
  140.2640   74.1420  221.8610 C   0  0  0  0  0  0  0  0  0  0  0  0
  139.5240   75.2590  222.3360 N   0  0  0  0  0  0  0  0  0  0  0  0
  139.7980   76.5590  221.7860 C   0  0  0  0  0  0  0  0  0  0  0  0
  139.1110   77.6410  222.5160 C   0  0  0  0  0  0  0  0  0  0  0  0
  137.8800   77.4930  222.7840 O   0  0  0  0  0  0  0  0  0  0  0  0
  139.8180   78.8120  222.9040 N   0  0  0  0  0  0  0  0  0  0  0  0
  141.1790   78.6800  223.3860 C   0  0  0  0  0  0  0  0  0  0  0  0
  142.1110   79.1350  222.3120 C   0  0  0  0  0  0  0  0  0  0  0  0
  142.3460   80.6300  222.3300 C   0  0  0  0  0  0  0  0  0  0  0  0
  141.2250   81.3850  222.9920 C   0  0  0  0  0  0  0  0  0  0  0  0
  139.8950   81.2190  222.3580 C   0  0  0  0  0  0  0  0  0  0  0  0
  139.0880   80.0470  222.7720 C   0  0  2  0  0  0  0  0  0  0  0  0
  138.3470   80.2680  224.0710 C   0  0  0  0  0  0  0  0  0  0  0  0
  136.8530   80.3020  224.0760 C   0  0  0  0  0  0  0  0  0  0  0  0
  137.6320   81.5400  224.3590 C   0  0  0  0  0  0  0  0  0  0  0  0
  139.9470   72.8450  222.4530 C   0  0  0  0  0  0  0  0  0  0  0  0
  139.1240   71.9600  221.7640 C   0  0  0  0  0  0  0  0  0  0  0  0
  138.7900   70.7170  222.2770 C   0  0  0  0  0  0  0  0  0  0  0  0
  139.2840   70.3340  223.5140 C   0  0  0  0  0  0  0  0  0  0  0  0
  138.9840   69.1220  224.0590 C   0  0  0  0  0  0  0  0  0  0  0  0
  139.5060   68.7970  225.2930 C   0  0  0  0  0  0  0  0  0  0  0  0
  139.2580   67.6110  225.9130 F   0  0  0  0  0  0  0  0  0  0  0  0
  140.3130   69.7130  225.9290 C   0  0  0  0  0  0  0  0  0  0  0  0
  140.6260   70.9360  225.3950 C   0  0  0  0  0  0  0  0  0  0  0  0
  140.0950   71.2480  224.1560 C   0  0  0  0  0  0  0  0  0  0  0  0
  140.4090   72.4470  223.6470 N   0  0  0  0  0  0  0  0  0  0  0  0
  138.7830   75.1960  223.0710 H   0  0  0  0  0  0  0  0  0  0  0  0
  140.8824   76.7383  221.8294 H   0  0  0  0  0  0  0  0  0  0  0  0
  139.4260   76.5675  220.7509 H   0  0  0  0  0  0  0  0  0  0  0  0
  141.3162   79.3012  224.2834 H   0  0  0  0  0  0  0  0  0  0  0  0
  141.3863   77.6309  223.6438 H   0  0  0  0  0  0  0  0  0  0  0  0
  143.0769   78.6263  222.4469 H   0  0  0  0  0  0  0  0  0  0  0  0
  141.6480   78.8854  221.3459 H   0  0  0  0  0  0  0  0  0  0  0  0
  143.2786   80.8333  222.8768 H   0  0  0  0  0  0  0  0  0  0  0  0
  142.4051   80.9702  221.2856 H   0  0  0  0  0  0  0  0  0  0  0  0
  141.1511   81.0409  224.0342 H   0  0  0  0  0  0  0  0  0  0  0  0
  141.4775   82.4517  222.8999 H   0  0  0  0  0  0  0  0  0  0  0  0
  139.3069   82.1212  222.5819 H   0  0  0  0  0  0  0  0  0  0  0  0
  140.1083   81.0535  221.2917 H   0  0  0  0  0  0  0  0  0  0  0  0
  138.3856   79.9471  221.9314 H   0  0  0  0  0  0  0  0  0  0  0  0
  139.1261   79.6923  224.5921 H   0  0  0  0  0  0  0  0  0  0  0  0
  136.2969   80.2052  223.1319 H   0  0  0  0  0  0  0  0  0  0  0  0
  136.0627   79.7424  224.5979 H   0  0  0  0  0  0  0  0  0  0  0  0
  137.6491   82.3583  223.6240 H   0  0  0  0  0  0  0  0  0  0  0  0
  137.6527   82.2739  225.1781 H   0  0  0  0  0  0  0  0  0  0  0  0
  138.7263   72.2560  220.7821 H   0  0  0  0  0  0  0  0  0  0  0  0
  138.1377   70.0393  221.7068 H   0  0  0  0  0  0  0  0  0  0  0  0
  138.3353   68.4137  223.5228 H   0  0  0  0  0  0  0  0  0  0  0  0
  140.7269   69.4507  226.9138 H   0  0  0  0  0  0  0  0  0  0  0  0
  141.2754   71.6433  225.9317 H   0  0  0  0  0  0  0  0  0  0  0  0
  1  2  2  0
  2  3  1  0
  3  4  1  0
  4  5  1  0
  5  6  2  0
  5  7  1  0
  7  8  1  0
  8  9  1  0
  9 10  1  0
 10 11  1  0
 11 12  1  0
 12 13  1  0
 13 14  1  0
 14 15  1  0
 15 16  1  0
  2 17  1  0
 17 18  2  0
 18 19  1  0
 19 20  2  0
 20 21  1  0
 21 22  2  0
 22 23  1  0
 22 24  1  0
 24 25  2  0
 25 26  1  0
 26 27  2  0
 13  7  1  0
 16 14  1  0
 27 17  1  0
 26 20  1  0
  3 28  1  0
  4 29  1  0
  4 30  1  0
  8 31  1  0
  8 32  1  0
  9 33  1  0
  9 34  1  0
 10 35  1  0
 10 36  1  0
 11 37  1  0
 11 38  1  0
 12 39  1  0
 12 40  1  0
 13 41  1  6
 14 42  1  0
 15 43  1  0
 15 44  1  0
 16 45  1  0
 16 46  1  0
 18 47  1  0
 19 48  1  0
 21 49  1  0
 24 50  1  0
 25 51  1  0
M  END
>  <smiles>  (9) 
O=C(NCC(=O)N1CCCCCC1C1CC1)c1ccc2cc(F)ccc2n1

>  <score_type>  (9) 
oracle

>  <origin>  (9) 
autodockgpu

>  <m_score__min__energy>  (9) 
-6.0099999999999998

>  <m_primary>  (9) 
energy

>  <rmsd>  (9) 
4.318612604942911

>  <m_score__min__rmsd>  (9) 
4.318612604942911

>  <meeko>  (9) 
{"free_energy": -5.01, "intermolecular_energy": -8.29, "internal_energy": -1.48, "cluster_size": 1, "cluster_id": 4, "rank_in_cluster": 1}

>  <energy>  (9) 
-5.95

>  <cluster_rmsd>  (9) 
0.0

>  <cluster>  (9) 
2

$$$$

     RDKit          3D

 51 54  0  0  0  0  0  0  0  0999 V2000
  140.8420   72.0200  221.2380 O   0  0  0  0  0  0  0  0  0  0  0  0
  140.1450   72.3670  222.2260 C   0  0  0  0  0  0  0  0  0  0  0  0
  139.3810   73.5650  222.2560 N   0  0  0  0  0  0  0  0  0  0  0  0
  139.3990   74.4300  221.1090 C   0  0  0  0  0  0  0  0  0  0  0  0
  140.4610   75.4520  221.1850 C   0  0  0  0  0  0  0  0  0  0  0  0
  141.4180   75.2600  221.9940 O   0  0  0  0  0  0  0  0  0  0  0  0
  140.4020   76.6150  220.3680 N   0  0  0  0  0  0  0  0  0  0  0  0
  140.9010   76.5420  219.0090 C   0  0  0  0  0  0  0  0  0  0  0  0
  142.2610   77.1570  218.9660 C   0  0  0  0  0  0  0  0  0  0  0  0
  142.2210   78.6680  218.8930 C   0  0  0  0  0  0  0  0  0  0  0  0
  141.6830   79.2960  220.1500 C   0  0  0  0  0  0  0  0  0  0  0  0
  140.2310   79.0780  220.3960 C   0  0  0  0  0  0  0  0  0  0  0  0
  139.8340   77.7810  220.9940 C   0  0  2  0  0  0  0  0  0  0  0  0
  140.1430   77.6920  222.4710 C   0  0  0  0  0  0  0  0  0  0  0  0
  140.0880   78.9230  223.3160 C   0  0  0  0  0  0  0  0  0  0  0  0
  141.3920   78.2560  223.0470 C   0  0  0  0  0  0  0  0  0  0  0  0
  140.0920   71.5240  223.4180 C   0  0  0  0  0  0  0  0  0  0  0  0
  139.5220   70.2570  223.3370 C   0  0  0  0  0  0  0  0  0  0  0  0
  139.4450   69.4160  224.4340 C   0  0  0  0  0  0  0  0  0  0  0  0
  139.9470   69.8390  225.6550 C   0  0  0  0  0  0  0  0  0  0  0  0
  139.8940   69.0460  226.7630 C   0  0  0  0  0  0  0  0  0  0  0  0
  140.4110   69.5210  227.9490 C   0  0  0  0  0  0  0  0  0  0  0  0
  140.4000   68.8000  229.1030 F   0  0  0  0  0  0  0  0  0  0  0  0
  140.9630   70.7820  227.9700 C   0  0  0  0  0  0  0  0  0  0  0  0
  141.0250   71.5920  226.8650 C   0  0  0  0  0  0  0  0  0  0  0  0
  140.5020   71.1020  225.6820 C   0  0  0  0  0  0  0  0  0  0  0  0
  140.5690   71.9050  224.6120 N   0  0  0  0  0  0  0  0  0  0  0  0
  138.7990   73.8630  223.0720 H   0  0  0  0  0  0  0  0  0  0  0  0
  139.5623   73.8186  220.2093 H   0  0  0  0  0  0  0  0  0  0  0  0
  138.4333   74.9554  221.0730 H   0  0  0  0  0  0  0  0  0  0  0  0
  140.9599   75.4903  218.6921 H   0  0  0  0  0  0  0  0  0  0  0  0
  140.2235   77.0816  218.3309 H   0  0  0  0  0  0  0  0  0  0  0  0
  142.8079   76.8637  219.8742 H   0  0  0  0  0  0  0  0  0  0  0  0
  142.7587   76.7951  218.0542 H   0  0  0  0  0  0  0  0  0  0  0  0
  143.2425   79.0393  218.7235 H   0  0  0  0  0  0  0  0  0  0  0  0
  141.5462   78.9431  218.0690 H   0  0  0  0  0  0  0  0  0  0  0  0
  142.2389   78.8800  221.0031 H   0  0  0  0  0  0  0  0  0  0  0  0
  141.8125   80.3816  220.0285 H   0  0  0  0  0  0  0  0  0  0  0  0
  139.8865   79.8740  221.0726 H   0  0  0  0  0  0  0  0  0  0  0  0
  139.7695   79.0838  219.3975 H   0  0  0  0  0  0  0  0  0  0  0  0
  138.7479   77.7729  220.8198 H   0  0  0  0  0  0  0  0  0  0  0  0
  139.6715   76.6984  222.4900 H   0  0  0  0  0  0  0  0  0  0  0  0
  139.8624   79.8966  222.8565 H   0  0  0  0  0  0  0  0  0  0  0  0
  139.5384   79.2234  224.2203 H   0  0  0  0  0  0  0  0  0  0  0  0
  142.1306   78.7387  222.3902 H   0  0  0  0  0  0  0  0  0  0  0  0
  142.2055   77.8608  223.6732 H   0  0  0  0  0  0  0  0  0  0  0  0
  139.1205   69.9134  222.3722 H   0  0  0  0  0  0  0  0  0  0  0  0
  138.9889   68.4197  224.3375 H   0  0  0  0  0  0  0  0  0  0  0  0
  139.4456   68.0429  226.7111 H   0  0  0  0  0  0  0  0  0  0  0  0
  141.3741   71.1579  228.9185 H   0  0  0  0  0  0  0  0  0  0  0  0
  141.4742   72.5947  226.9176 H   0  0  0  0  0  0  0  0  0  0  0  0
  1  2  2  0
  2  3  1  0
  3  4  1  0
  4  5  1  0
  5  6  2  0
  5  7  1  0
  7  8  1  0
  8  9  1  0
  9 10  1  0
 10 11  1  0
 11 12  1  0
 12 13  1  0
 13 14  1  0
 14 15  1  0
 15 16  1  0
  2 17  1  0
 17 18  2  0
 18 19  1  0
 19 20  2  0
 20 21  1  0
 21 22  2  0
 22 23  1  0
 22 24  1  0
 24 25  2  0
 25 26  1  0
 26 27  2  0
 13  7  1  0
 16 14  1  0
 27 17  1  0
 26 20  1  0
  3 28  1  0
  4 29  1  0
  4 30  1  0
  8 31  1  0
  8 32  1  0
  9 33  1  0
  9 34  1  0
 10 35  1  0
 10 36  1  0
 11 37  1  0
 11 38  1  0
 12 39  1  0
 12 40  1  0
 13 41  1  1
 14 42  1  0
 15 43  1  0
 15 44  1  0
 16 45  1  0
 16 46  1  0
 18 47  1  0
 19 48  1  0
 21 49  1  0
 24 50  1  0
 25 51  1  0
M  END
>  <smiles>  (10) 
O=C(NCC(=O)N1CCCCCC1C1CC1)c1ccc2cc(F)ccc2n1

>  <score_type>  (10) 
oracle

>  <origin>  (10) 
autodockgpu

>  <m_score__min__energy>  (10) 
-6.0099999999999998

>  <m_primary>  (10) 
energy

>  <rmsd>  (10) 
1.915910917566471

>  <m_score__min__rmsd>  (10) 
1.915910917566471

>  <meeko>  (10) 
{"free_energy": -5.39, "intermolecular_energy": -8.68, "internal_energy": -1.26, "cluster_size": 22, "cluster_id": 2, "rank_in_cluster": 10}

>  <energy>  (10) 
-5.83

>  <cluster_rmsd>  (10) 
0.57

>  <cluster>  (10) 
2

$$$$

     RDKit          3D

 51 54  0  0  0  0  0  0  0  0999 V2000
  140.9140   71.6030  221.3300 O   0  0  0  0  0  0  0  0  0  0  0  0
  140.1490   72.4450  221.8670 C   0  0  0  0  0  0  0  0  0  0  0  0
  139.0180   72.0820  222.6480 N   0  0  0  0  0  0  0  0  0  0  0  0
  138.7240   70.6880  222.8380 C   0  0  0  0  0  0  0  0  0  0  0  0
  138.4120   70.3600  224.2420 C   0  0  0  0  0  0  0  0  0  0  0  0
  137.2430   69.9510  224.5150 O   0  0  0  0  0  0  0  0  0  0  0  0
  139.4030   70.5010  225.2530 N   0  0  0  0  0  0  0  0  0  0  0  0
  140.3690   71.5760  225.1410 C   0  0  0  0  0  0  0  0  0  0  0  0
  141.4950   71.3060  226.0840 C   0  0  0  0  0  0  0  0  0  0  0  0
  141.1800   71.7130  227.5070 C   0  0  0  0  0  0  0  0  0  0  0  0
  140.5020   70.6190  228.2870 C   0  0  0  0  0  0  0  0  0  0  0  0
  139.2500   70.0970  227.6840 C   0  0  0  0  0  0  0  0  0  0  0  0
  139.3420   69.5320  226.3170 C   0  0  2  0  0  0  0  0  0  0  0  0
  140.5190   68.6000  226.1420 C   0  0  0  0  0  0  0  0  0  0  0  0
  140.3110   67.1220  226.2040 C   0  0  0  0  0  0  0  0  0  0  0  0
  141.0770   67.8180  227.2760 C   0  0  0  0  0  0  0  0  0  0  0  0
  140.4020   73.8740  221.7040 C   0  0  0  0  0  0  0  0  0  0  0  0
  141.5110   74.2950  220.9750 C   0  0  0  0  0  0  0  0  0  0  0  0
  141.8000   75.6370  220.7880 C   0  0  0  0  0  0  0  0  0  0  0  0
  140.9670   76.5970  221.3400 C   0  0  0  0  0  0  0  0  0  0  0  0
  141.2110   77.9290  221.1840 C   0  0  0  0  0  0  0  0  0  0  0  0
  140.3460   78.8380  221.7560 C   0  0  0  0  0  0  0  0  0  0  0  0
  140.5120   80.1850  221.6520 F   0  0  0  0  0  0  0  0  0  0  0  0
  139.2670   78.3640  222.4670 C   0  0  0  0  0  0  0  0  0  0  0  0
  139.0070   77.0280  222.6340 C   0  0  0  0  0  0  0  0  0  0  0  0
  139.8830   76.1280  222.0540 C   0  0  0  0  0  0  0  0  0  0  0  0
  139.6160   74.8270  222.2260 N   0  0  0  0  0  0  0  0  0  0  0  0
  138.3760   72.7730  223.0980 H   0  0  0  0  0  0  0  0  0  0  0  0
  137.8584   70.4223  222.2134 H   0  0  0  0  0  0  0  0  0  0  0  0
  139.6201   70.1169  222.5538 H   0  0  0  0  0  0  0  0  0  0  0  0
  140.7519   71.6241  224.1109 H   0  0  0  0  0  0  0  0  0  0  0  0
  139.8930   72.5359  225.3898 H   0  0  0  0  0  0  0  0  0  0  0  0
  141.7162   70.2286  226.0676 H   0  0  0  0  0  0  0  0  0  0  0  0
  142.3556   71.9050  225.7515 H   0  0  0  0  0  0  0  0  0  0  0  0
  142.1200   71.9762  228.0141 H   0  0  0  0  0  0  0  0  0  0  0  0
  140.4886   72.5674  227.4631 H   0  0  0  0  0  0  0  0  0  0  0  0
  141.2085   69.7814  228.3834 H   0  0  0  0  0  0  0  0  0  0  0  0
  140.2147   71.0639  229.2511 H   0  0  0  0  0  0  0  0  0  0  0  0
  138.8696   69.3043  228.3450 H   0  0  0  0  0  0  0  0  0  0  0  0
  138.5950   70.9751  227.5848 H   0  0  0  0  0  0  0  0  0  0  0  0
  138.3918   68.9844  226.2320 H   0  0  0  0  0  0  0  0  0  0  0  0
  140.9464   69.3082  225.4169 H   0  0  0  0  0  0  0  0  0  0  0  0
  139.3115   66.7150  226.4170 H   0  0  0  0  0  0  0  0  0  0  0  0
  140.5094   66.2780  225.5270 H   0  0  0  0  0  0  0  0  0  0  0  0
  140.6433   67.9226  228.2815 H   0  0  0  0  0  0  0  0  0  0  0  0
  142.0768   67.6979  227.7187 H   0  0  0  0  0  0  0  0  0  0  0  0
  142.1778   73.5393  220.5343 H   0  0  0  0  0  0  0  0  0  0  0  0
  142.6836   75.9380  220.2060 H   0  0  0  0  0  0  0  0  0  0  0  0
  142.0843   78.2735  220.6108 H   0  0  0  0  0  0  0  0  0  0  0  0
  138.5801   79.0920  222.9233 H   0  0  0  0  0  0  0  0  0  0  0  0
  138.1339   76.6845  223.2081 H   0  0  0  0  0  0  0  0  0  0  0  0
  1  2  2  0
  2  3  1  0
  3  4  1  0
  4  5  1  0
  5  6  2  0
  5  7  1  0
  7  8  1  0
  8  9  1  0
  9 10  1  0
 10 11  1  0
 11 12  1  0
 12 13  1  0
 13 14  1  0
 14 15  1  0
 15 16  1  0
  2 17  1  0
 17 18  2  0
 18 19  1  0
 19 20  2  0
 20 21  1  0
 21 22  2  0
 22 23  1  0
 22 24  1  0
 24 25  2  0
 25 26  1  0
 26 27  2  0
 13  7  1  0
 16 14  1  0
 27 17  1  0
 26 20  1  0
  3 28  1  0
  4 29  1  0
  4 30  1  0
  8 31  1  0
  8 32  1  0
  9 33  1  0
  9 34  1  0
 10 35  1  0
 10 36  1  0
 11 37  1  0
 11 38  1  0
 12 39  1  0
 12 40  1  0
 13 41  1  6
 14 42  1  0
 15 43  1  0
 15 44  1  0
 16 45  1  0
 16 46  1  0
 18 47  1  0
 19 48  1  0
 21 49  1  0
 24 50  1  0
 25 51  1  0
M  END
>  <smiles>  (11) 
O=C(NCC(=O)N1CCCCCC1C1CC1)c1ccc2cc(F)ccc2n1

>  <score_type>  (11) 
oracle

>  <origin>  (11) 
autodockgpu

>  <m_score__min__energy>  (11) 
-6.0099999999999998

>  <m_primary>  (11) 
energy

>  <rmsd>  (11) 
8.44995243323704

>  <m_score__min__rmsd>  (11) 
8.44995243323704

>  <meeko>  (11) 
{"free_energy": -6.01, "intermolecular_energy": -9.29, "internal_energy": -1.23, "cluster_size": 8, "cluster_id": 1, "rank_in_cluster": 1}

>  <energy>  (11) 
-5.74

>  <cluster_rmsd>  (11) 
0.45

>  <cluster>  (11) 
2

$$$$

     RDKit          3D

 51 54  0  0  0  0  0  0  0  0999 V2000
  135.3510   77.5270  223.3520 O   0  0  0  0  0  0  0  0  0  0  0  0
  135.8330   76.3870  223.5750 C   0  0  0  0  0  0  0  0  0  0  0  0
  137.0900   75.9600  223.0680 N   0  0  0  0  0  0  0  0  0  0  0  0
  137.8570   76.8670  222.2590 C   0  0  0  0  0  0  0  0  0  0  0  0
  139.2990   76.8220  222.5670 C   0  0  0  0  0  0  0  0  0  0  0  0
  139.8580   75.6870  222.6460 O   0  0  0  0  0  0  0  0  0  0  0  0
  140.0310   78.0250  222.7660 N   0  0  0  0  0  0  0  0  0  0  0  0
  139.3880   79.1320  223.4460 C   0  0  0  0  0  0  0  0  0  0  0  0
  139.5770   80.3680  222.6290 C   0  0  0  0  0  0  0  0  0  0  0  0
  140.8480   81.1120  222.9740 C   0  0  0  0  0  0  0  0  0  0  0  0
  142.0790   80.4470  222.4190 C   0  0  0  0  0  0  0  0  0  0  0  0
  142.2820   79.0390  222.8420 C   0  0  0  0  0  0  0  0  0  0  0  0
  141.3790   78.0190  222.2570 C   0  0  2  0  0  0  0  0  0  0  0  0
  141.2890   78.1050  220.7510 C   0  0  0  0  0  0  0  0  0  0  0  0
  140.9640   76.8820  219.9560 C   0  0  0  0  0  0  0  0  0  0  0  0
  142.3180   77.4970  219.8670 C   0  0  0  0  0  0  0  0  0  0  0  0
  135.0930   75.4260  224.3910 C   0  0  0  0  0  0  0  0  0  0  0  0
  135.3580   74.0660  224.2580 C   0  0  0  0  0  0  0  0  0  0  0  0
  134.6890   73.1120  225.0050 C   0  0  0  0  0  0  0  0  0  0  0  0
  133.7220   73.5120  225.9140 C   0  0  0  0  0  0  0  0  0  0  0  0
  133.0370   72.6090  226.6720 C   0  0  0  0  0  0  0  0  0  0  0  0
  132.0870   73.0680  227.5600 C   0  0  0  0  0  0  0  0  0  0  0  0
  131.3550   72.2390  228.3550 F   0  0  0  0  0  0  0  0  0  0  0  0
  131.8670   74.4230  227.6480 C   0  0  0  0  0  0  0  0  0  0  0  0
  132.5480   75.3450  226.8950 C   0  0  0  0  0  0  0  0  0  0  0  0
  133.4980   74.8700  226.0080 C   0  0  0  0  0  0  0  0  0  0  0  0
  134.1530   75.7820  225.2780 N   0  0  0  0  0  0  0  0  0  0  0  0
  137.4990   75.0140  223.2470 H   0  0  0  0  0  0  0  0  0  0  0  0
  137.7144   76.6020  221.2010 H   0  0  0  0  0  0  0  0  0  0  0  0
  137.5023   77.8859  222.4737 H   0  0  0  0  0  0  0  0  0  0  0  0
  138.3139   78.9236  223.5596 H   0  0  0  0  0  0  0  0  0  0  0  0
  139.8318   79.2693  224.4431 H   0  0  0  0  0  0  0  0  0  0  0  0
  139.6133   80.0846  221.5667 H   0  0  0  0  0  0  0  0  0  0  0  0
  138.7324   81.0390  222.8446 H   0  0  0  0  0  0  0  0  0  0  0  0
  140.7824   82.1302  222.5630 H   0  0  0  0  0  0  0  0  0  0  0  0
  140.9407   81.1211  224.0700 H   0  0  0  0  0  0  0  0  0  0  0  0
  142.0104   80.4660  221.3213 H   0  0  0  0  0  0  0  0  0  0  0  0
  142.9358   81.0113  222.8157 H   0  0  0  0  0  0  0  0  0  0  0  0
  143.3125   78.7593  222.5777 H   0  0  0  0  0  0  0  0  0  0  0  0
  142.0584   79.0314  223.9190 H   0  0  0  0  0  0  0  0  0  0  0  0
  141.8622   77.0812  222.5685 H   0  0  0  0  0  0  0  0  0  0  0  0
  140.8683   79.1162  220.8534 H   0  0  0  0  0  0  0  0  0  0  0  0
  140.8307   75.9150  220.4630 H   0  0  0  0  0  0  0  0  0  0  0  0
  140.1832   76.6085  219.2311 H   0  0  0  0  0  0  0  0  0  0  0  0
  143.1850   76.9822  220.3067 H   0  0  0  0  0  0  0  0  0  0  0  0
  142.9511   77.8645  219.0460 H   0  0  0  0  0  0  0  0  0  0  0  0
  136.1223   73.7395  223.5374 H   0  0  0  0  0  0  0  0  0  0  0  0
  134.9229   72.0446  224.8783 H   0  0  0  0  0  0  0  0  0  0  0  0
  133.2389   71.5319  226.5767 H   0  0  0  0  0  0  0  0  0  0  0  0
  131.1077   74.7847  228.3570 H   0  0  0  0  0  0  0  0  0  0  0  0
  132.3466   76.4220  226.9925 H   0  0  0  0  0  0  0  0  0  0  0  0
  1  2  2  0
  2  3  1  0
  3  4  1  0
  4  5  1  0
  5  6  2  0
  5  7  1  0
  7  8  1  0
  8  9  1  0
  9 10  1  0
 10 11  1  0
 11 12  1  0
 12 13  1  0
 13 14  1  0
 14 15  1  0
 15 16  1  0
  2 17  1  0
 17 18  2  0
 18 19  1  0
 19 20  2  0
 20 21  1  0
 21 22  2  0
 22 23  1  0
 22 24  1  0
 24 25  2  0
 25 26  1  0
 26 27  2  0
 13  7  1  0
 16 14  1  0
 27 17  1  0
 26 20  1  0
  3 28  1  0
  4 29  1  0
  4 30  1  0
  8 31  1  0
  8 32  1  0
  9 33  1  0
  9 34  1  0
 10 35  1  0
 10 36  1  0
 11 37  1  0
 11 38  1  0
 12 39  1  0
 12 40  1  0
 13 41  1  6
 14 42  1  0
 15 43  1  0
 15 44  1  0
 16 45  1  0
 16 46  1  0
 18 47  1  0
 19 48  1  0
 21 49  1  0
 24 50  1  0
 25 51  1  0
M  END
>  <smiles>  (12) 
O=C(NCC(=O)N1CCCCCC1C1CC1)c1ccc2cc(F)ccc2n1

>  <score_type>  (12) 
oracle

>  <origin>  (12) 
autodockgpu

>  <m_score__min__energy>  (12) 
-6.0099999999999998

>  <m_primary>  (12) 
energy

>  <rmsd>  (12) 
6.613392609877545

>  <m_score__min__rmsd>  (12) 
6.613392609877545

>  <meeko>  (12) 
{"free_energy": -4.74, "intermolecular_energy": -8.03, "internal_energy": -1.41, "cluster_size": 2, "cluster_id": 6, "rank_in_cluster": 1}

>  <energy>  (12) 
-5.67

>  <cluster_rmsd>  (12) 
0.55

>  <cluster>  (12) 
2

$$$$

     RDKit          3D

 51 54  0  0  0  0  0  0  0  0999 V2000
  141.1810   72.1350  221.2020 O   0  0  0  0  0  0  0  0  0  0  0  0
  140.5050   72.5330  222.1850 C   0  0  0  0  0  0  0  0  0  0  0  0
  139.9040   73.8200  222.2480 N   0  0  0  0  0  0  0  0  0  0  0  0
  140.0710   74.7180  221.1390 C   0  0  0  0  0  0  0  0  0  0  0  0
  139.4590   76.0390  221.3820 C   0  0  0  0  0  0  0  0  0  0  0  0
  138.6740   76.1610  222.3710 O   0  0  0  0  0  0  0  0  0  0  0  0
  139.7490   77.1360  220.5250 N   0  0  0  0  0  0  0  0  0  0  0  0
  139.8650   76.9000  219.0990 C   0  0  0  0  0  0  0  0  0  0  0  0
  141.3060   76.9820  218.7180 C   0  0  0  0  0  0  0  0  0  0  0  0
  141.7690   78.4020  218.4700 C   0  0  0  0  0  0  0  0  0  0  0  0
  141.8030   79.2280  219.7270 C   0  0  0  0  0  0  0  0  0  0  0  0
  140.4800   79.4880  220.3460 C   0  0  0  0  0  0  0  0  0  0  0  0
  139.9010   78.4090  221.1820 C   0  0  2  0  0  0  0  0  0  0  0  0
  140.6790   78.1660  222.4540 C   0  0  0  0  0  0  0  0  0  0  0  0
  140.5510   79.1210  223.5970 C   0  0  0  0  0  0  0  0  0  0  0  0
  141.8320   79.0190  222.8440 C   0  0  0  0  0  0  0  0  0  0  0  0
  140.3060   71.6580  223.3390 C   0  0  0  0  0  0  0  0  0  0  0  0
  139.6460   70.4440  223.1730 C   0  0  0  0  0  0  0  0  0  0  0  0
  139.4300   69.5760  224.2300 C   0  0  0  0  0  0  0  0  0  0  0  0
  139.8790   69.9180  225.4960 C   0  0  0  0  0  0  0  0  0  0  0  0
  139.6890   69.0960  226.5670 C   0  0  0  0  0  0  0  0  0  0  0  0
  140.1590   69.4900  227.8020 C   0  0  0  0  0  0  0  0  0  0  0  0
  140.0140   68.7340  228.9250 F   0  0  0  0  0  0  0  0  0  0  0  0
  140.8040   70.7020  227.9060 C   0  0  0  0  0  0  0  0  0  0  0  0
  141.0040   71.5400  226.8400 C   0  0  0  0  0  0  0  0  0  0  0  0
  140.5270   71.1310  225.6070 C   0  0  0  0  0  0  0  0  0  0  0  0
  140.7280   71.9610  224.5750 N   0  0  0  0  0  0  0  0  0  0  0  0
  139.3420   74.1590  223.0610 H   0  0  0  0  0  0  0  0  0  0  0  0
  141.1469   74.8563  220.9564 H   0  0  0  0  0  0  0  0  0  0  0  0
  139.5663   74.2716  220.2695 H   0  0  0  0  0  0  0  0  0  0  0  0
  139.4737   75.9012  218.8557 H   0  0  0  0  0  0  0  0  0  0  0  0
  139.2865   77.6541  218.5452 H   0  0  0  0  0  0  0  0  0  0  0  0
  141.9093   76.5530  219.5316 H   0  0  0  0  0  0  0  0  0  0  0  0
  141.4316   76.4245  217.7781 H   0  0  0  0  0  0  0  0  0  0  0  0
  142.7813   78.3724  218.0405 H   0  0  0  0  0  0  0  0  0  0  0  0
  141.0498   78.8714  217.7826 H   0  0  0  0  0  0  0  0  0  0  0  0
  142.4263   78.7008  220.4643 H   0  0  0  0  0  0  0  0  0  0  0  0
  142.2035   80.2105  219.4368 H   0  0  0  0  0  0  0  0  0  0  0  0
  140.5809   80.3807  220.9807 H   0  0  0  0  0  0  0  0  0  0  0  0
  139.7861   79.5949  219.4992 H   0  0  0  0  0  0  0  0  0  0  0  0
  138.8995   78.8056  221.4048 H   0  0  0  0  0  0  0  0  0  0  0  0
  140.5411   77.0844  222.3083 H   0  0  0  0  0  0  0  0  0  0  0  0
  139.9233   80.0188  223.4969 H   0  0  0  0  0  0  0  0  0  0  0  0
  140.2596   79.0364  224.6543 H   0  0  0  0  0  0  0  0  0  0  0  0
  142.1514   79.8434  222.1895 H   0  0  0  0  0  0  0  0  0  0  0  0
  142.8802   78.8289  223.1181 H   0  0  0  0  0  0  0  0  0  0  0  0
  139.2850   70.1656  222.1719 H   0  0  0  0  0  0  0  0  0  0  0  0
  138.9062   68.6226  224.0663 H   0  0  0  0  0  0  0  0  0  0  0  0
  139.1691   68.1340  226.4478 H   0  0  0  0  0  0  0  0  0  0  0  0
  141.1771   71.0130  228.8930 H   0  0  0  0  0  0  0  0  0  0  0  0
  141.5242   72.5017  226.9601 H   0  0  0  0  0  0  0  0  0  0  0  0
  1  2  2  0
  2  3  1  0
  3  4  1  0
  4  5  1  0
  5  6  2  0
  5  7  1  0
  7  8  1  0
  8  9  1  0
  9 10  1  0
 10 11  1  0
 11 12  1  0
 12 13  1  0
 13 14  1  0
 14 15  1  0
 15 16  1  0
  2 17  1  0
 17 18  2  0
 18 19  1  0
 19 20  2  0
 20 21  1  0
 21 22  2  0
 22 23  1  0
 22 24  1  0
 24 25  2  0
 25 26  1  0
 26 27  2  0
 13  7  1  0
 16 14  1  0
 27 17  1  0
 26 20  1  0
  3 28  1  0
  4 29  1  0
  4 30  1  0
  8 31  1  0
  8 32  1  0
  9 33  1  0
  9 34  1  0
 10 35  1  0
 10 36  1  0
 11 37  1  0
 11 38  1  0
 12 39  1  0
 12 40  1  0
 13 41  1  1
 14 42  1  0
 15 43  1  0
 15 44  1  0
 16 45  1  0
 16 46  1  0
 18 47  1  0
 19 48  1  0
 21 49  1  0
 24 50  1  0
 25 51  1  0
M  END
>  <smiles>  (13) 
O=C(NCC(=O)N1CCCCCC1C1CC1)c1ccc2cc(F)ccc2n1

>  <score_type>  (13) 
oracle

>  <origin>  (13) 
autodockgpu

>  <m_score__min__energy>  (13) 
-6.0099999999999998

>  <m_primary>  (13) 
energy

>  <rmsd>  (13) 
2.0946866590925026

>  <m_score__min__rmsd>  (13) 
2.0946866590925026

>  <meeko>  (13) 
{"free_energy": -5.3, "intermolecular_energy": -8.58, "internal_energy": -1.75, "cluster_size": 22, "cluster_id": 2, "rank_in_cluster": 11}

>  <energy>  (13) 
-5.65

>  <cluster_rmsd>  (13) 
0.32

>  <cluster>  (13) 
2

$$$$

     RDKit          3D

 51 54  0  0  0  0  0  0  0  0999 V2000
  138.3460   71.1250  221.3800 O   0  0  0  0  0  0  0  0  0  0  0  0
  138.8680   71.7190  222.3580 C   0  0  0  0  0  0  0  0  0  0  0  0
  139.0880   73.1230  222.3890 N   0  0  0  0  0  0  0  0  0  0  0  0
  138.6980   73.9120  221.2530 C   0  0  0  0  0  0  0  0  0  0  0  0
  139.6930   73.8700  220.1640 C   0  0  0  0  0  0  0  0  0  0  0  0
  139.3860   73.2550  219.0980 O   0  0  0  0  0  0  0  0  0  0  0  0
  140.9560   74.5040  220.3170 N   0  0  0  0  0  0  0  0  0  0  0  0
  141.0740   75.9140  219.9990 C   0  0  0  0  0  0  0  0  0  0  0  0
  141.9110   76.0580  218.7710 C   0  0  0  0  0  0  0  0  0  0  0  0
  143.3940   76.0950  219.0710 C   0  0  0  0  0  0  0  0  0  0  0  0
  143.9240   74.7690  219.5430 C   0  0  0  0  0  0  0  0  0  0  0  0
  143.3620   74.2870  220.8300 C   0  0  0  0  0  0  0  0  0  0  0  0
  142.0210   73.6560  220.7870 C   0  0  2  0  0  0  0  0  0  0  0  0
  141.9880   72.3940  219.9570 C   0  0  0  0  0  0  0  0  0  0  0  0
  141.6290   71.0930  220.5980 C   0  0  0  0  0  0  0  0  0  0  0  0
  143.0150   71.3290  220.1060 C   0  0  0  0  0  0  0  0  0  0  0  0
  139.2830   70.9630  223.5370 C   0  0  0  0  0  0  0  0  0  0  0  0
  139.1370   69.5790  223.5510 C   0  0  0  0  0  0  0  0  0  0  0  0
  139.5130   68.8120  224.6410 C   0  0  0  0  0  0  0  0  0  0  0  0
  140.0500   69.4320  225.7590 C   0  0  0  0  0  0  0  0  0  0  0  0
  140.4350   68.7190  226.8550 C   0  0  0  0  0  0  0  0  0  0  0  0
  140.9630   69.3920  227.9370 C   0  0  0  0  0  0  0  0  0  0  0  0
  141.3720   68.7630  229.0720 F   0  0  0  0  0  0  0  0  0  0  0  0
  141.0830   70.7610  227.8670 C   0  0  0  0  0  0  0  0  0  0  0  0
  140.7020   71.4930  226.7720 C   0  0  0  0  0  0  0  0  0  0  0  0
  140.1730   70.8050  225.6940 C   0  0  0  0  0  0  0  0  0  0  0  0
  139.8050   71.5330  224.6320 N   0  0  0  0  0  0  0  0  0  0  0  0
  139.5220   73.6260  223.1970 H   0  0  0  0  0  0  0  0  0  0  0  0
  137.7405   73.5291  220.8702 H   0  0  0  0  0  0  0  0  0  0  0  0
  138.6132   74.9568  221.5865 H   0  0  0  0  0  0  0  0  0  0  0  0
  140.0751   76.3378  219.8182 H   0  0  0  0  0  0  0  0  0  0  0  0
  141.5425   76.4500  220.8376 H   0  0  0  0  0  0  0  0  0  0  0  0
  141.7084   75.2055  218.1060 H   0  0  0  0  0  0  0  0  0  0  0  0
  141.6451   77.0160  218.3003 H   0  0  0  0  0  0  0  0  0  0  0  0
  143.9312   76.3829  218.1553 H   0  0  0  0  0  0  0  0  0  0  0  0
  143.5511   76.8228  219.8807 H   0  0  0  0  0  0  0  0  0  0  0  0
  143.6997   74.0182  218.7710 H   0  0  0  0  0  0  0  0  0  0  0  0
  145.0009   74.9135  219.7145 H   0  0  0  0  0  0  0  0  0  0  0  0
  144.0637   73.5465  221.2414 H   0  0  0  0  0  0  0  0  0  0  0  0
  143.2310   75.1927  221.4404 H   0  0  0  0  0  0  0  0  0  0  0  0
  141.8415   73.4314  221.8488 H   0  0  0  0  0  0  0  0  0  0  0  0
  141.6162   72.9859  219.1077 H   0  0  0  0  0  0  0  0  0  0  0  0
  141.4285   71.0485  221.6787 H   0  0  0  0  0  0  0  0  0  0  0  0
  140.8610   70.3248  220.4247 H   0  0  0  0  0  0  0  0  0  0  0  0
  143.8385   71.4566  220.8241 H   0  0  0  0  0  0  0  0  0  0  0  0
  143.6946   70.8042  219.4184 H   0  0  0  0  0  0  0  0  0  0  0  0
  138.7098   69.0790  222.6692 H   0  0  0  0  0  0  0  0  0  0  0  0
  139.3867   67.7195  224.6201 H   0  0  0  0  0  0  0  0  0  0  0  0
  140.3264   67.6246  226.8763 H   0  0  0  0  0  0  0  0  0  0  0  0
  141.5051   71.2941  228.7316 H   0  0  0  0  0  0  0  0  0  0  0  0
  140.8128   72.5872  226.7511 H   0  0  0  0  0  0  0  0  0  0  0  0
  1  2  2  0
  2  3  1  0
  3  4  1  0
  4  5  1  0
  5  6  2  0
  5  7  1  0
  7  8  1  0
  8  9  1  0
  9 10  1  0
 10 11  1  0
 11 12  1  0
 12 13  1  0
 13 14  1  0
 14 15  1  0
 15 16  1  0
  2 17  1  0
 17 18  2  0
 18 19  1  0
 19 20  2  0
 20 21  1  0
 21 22  2  0
 22 23  1  0
 22 24  1  0
 24 25  2  0
 25 26  1  0
 26 27  2  0
 13  7  1  0
 16 14  1  0
 27 17  1  0
 26 20  1  0
  3 28  1  0
  4 29  1  0
  4 30  1  0
  8 31  1  0
  8 32  1  0
  9 33  1  0
  9 34  1  0
 10 35  1  0
 10 36  1  0
 11 37  1  0
 11 38  1  0
 12 39  1  0
 12 40  1  0
 13 41  1  1
 14 42  1  0
 15 43  1  0
 15 44  1  0
 16 45  1  0
 16 46  1  0
 18 47  1  0
 19 48  1  0
 21 49  1  0
 24 50  1  0
 25 51  1  0
M  END
>  <smiles>  (14) 
O=C(NCC(=O)N1CCCCCC1C1CC1)c1ccc2cc(F)ccc2n1

>  <score_type>  (14) 
oracle

>  <origin>  (14) 
autodockgpu

>  <m_score__min__energy>  (14) 
-6.0099999999999998

>  <m_primary>  (14) 
energy

>  <rmsd>  (14) 
2.350619389136239

>  <m_score__min__rmsd>  (14) 
2.350619389136239

>  <meeko>  (14) 
{"free_energy": -4.15, "intermolecular_energy": -7.43, "internal_energy": -1.97, "cluster_size": 8, "cluster_id": 3, "rank_in_cluster": 8}

>  <energy>  (14) 
-5.62

>  <cluster_rmsd>  (14) 
0.88

>  <cluster>  (14) 
2

$$$$

     RDKit          3D

 51 54  0  0  0  0  0  0  0  0999 V2000
  140.4310   71.3520  221.0560 O   0  0  0  0  0  0  0  0  0  0  0  0
  140.1070   71.9450  222.1170 C   0  0  0  0  0  0  0  0  0  0  0  0
  139.8520   73.3420  222.1820 N   0  0  0  0  0  0  0  0  0  0  0  0
  139.9670   74.1250  220.9830 C   0  0  0  0  0  0  0  0  0  0  0  0
  140.5640   75.4520  221.2260 C   0  0  0  0  0  0  0  0  0  0  0  0
  140.5420   75.9100  222.4080 O   0  0  0  0  0  0  0  0  0  0  0  0
  141.1470   76.1870  220.1570 N   0  0  0  0  0  0  0  0  0  0  0  0
  140.2810   76.9460  219.2760 C   0  0  0  0  0  0  0  0  0  0  0  0
  140.1430   76.2050  217.9870 C   0  0  0  0  0  0  0  0  0  0  0  0
  141.2980   76.4520  217.0400 C   0  0  0  0  0  0  0  0  0  0  0  0
  142.5910   75.8650  217.5370 C   0  0  0  0  0  0  0  0  0  0  0  0
  143.1510   76.5080  218.7510 C   0  0  0  0  0  0  0  0  0  0  0  0
  142.5810   76.1010  220.0570 C   0  0  2  0  0  0  0  0  0  0  0  0
  142.9740   74.6980  220.4620 C   0  0  0  0  0  0  0  0  0  0  0  0
  144.4110   74.2900  220.4230 C   0  0  0  0  0  0  0  0  0  0  0  0
  143.4360   73.6950  219.4670 C   0  0  0  0  0  0  0  0  0  0  0  0
  139.9780   71.1950  223.3650 C   0  0  0  0  0  0  0  0  0  0  0  0
  139.3810   69.9380  223.3500 C   0  0  0  0  0  0  0  0  0  0  0  0
  139.2310   69.1830  224.5010 C   0  0  0  0  0  0  0  0  0  0  0  0
  139.6860   69.6860  225.7110 C   0  0  0  0  0  0  0  0  0  0  0  0
  139.5610   68.9800  226.8700 C   0  0  0  0  0  0  0  0  0  0  0  0
  140.0330   69.5320  228.0420 C   0  0  0  0  0  0  0  0  0  0  0  0
  139.9490   68.9000  229.2450 F   0  0  0  0  0  0  0  0  0  0  0  0
  140.6130   70.7800  227.9960 C   0  0  0  0  0  0  0  0  0  0  0  0
  140.7480   71.5030  226.8390 C   0  0  0  0  0  0  0  0  0  0  0  0
  140.2700   70.9360  225.6710 C   0  0  0  0  0  0  0  0  0  0  0  0
  140.4070   71.6540  224.5490 N   0  0  0  0  0  0  0  0  0  0  0  0
  139.5830   73.8440  223.0590 H   0  0  0  0  0  0  0  0  0  0  0  0
  140.5991   73.5805  220.2661 H   0  0  0  0  0  0  0  0  0  0  0  0
  138.9517   74.2837  220.5906 H   0  0  0  0  0  0  0  0  0  0  0  0
  139.2918   77.0658  219.7420 H   0  0  0  0  0  0  0  0  0  0  0  0
  140.7119   77.9413  219.0924 H   0  0  0  0  0  0  0  0  0  0  0  0
  140.0916   75.1280  218.2048 H   0  0  0  0  0  0  0  0  0  0  0  0
  139.2284   76.5665  217.4942 H   0  0  0  0  0  0  0  0  0  0  0  0
  141.0576   76.0004  216.0662 H   0  0  0  0  0  0  0  0  0  0  0  0
  141.4358   77.5404  216.9602 H   0  0  0  0  0  0  0  0  0  0  0  0
  142.4176   74.8027  217.7638 H   0  0  0  0  0  0  0  0  0  0  0  0
  143.3281   76.0288  216.7371 H   0  0  0  0  0  0  0  0  0  0  0  0
  144.2280   76.2858  218.7763 H   0  0  0  0  0  0  0  0  0  0  0  0
  142.8969   77.5735  218.6504 H   0  0  0  0  0  0  0  0  0  0  0  0
  143.0209   76.8442  220.7383 H   0  0  0  0  0  0  0  0  0  0  0  0
  142.1771   74.7138  221.2201 H   0  0  0  0  0  0  0  0  0  0  0  0
  145.1742   74.9957  220.0633 H   0  0  0  0  0  0  0  0  0  0  0  0
  145.1276   73.8898  221.1554 H   0  0  0  0  0  0  0  0  0  0  0  0
  143.4811   73.9600  218.4003 H   0  0  0  0  0  0  0  0  0  0  0  0
  143.1363   72.6706  219.2010 H   0  0  0  0  0  0  0  0  0  0  0  0
  139.0172   69.5318  222.3947 H   0  0  0  0  0  0  0  0  0  0  0  0
  138.7549   68.1924  224.4562 H   0  0  0  0  0  0  0  0  0  0  0  0
  139.0910   67.9855  226.8704 H   0  0  0  0  0  0  0  0  0  0  0  0
  140.9863   71.2183  228.9333 H   0  0  0  0  0  0  0  0  0  0  0  0
  141.2189   72.4971  226.8393 H   0  0  0  0  0  0  0  0  0  0  0  0
  1  2  2  0
  2  3  1  0
  3  4  1  0
  4  5  1  0
  5  6  2  0
  5  7  1  0
  7  8  1  0
  8  9  1  0
  9 10  1  0
 10 11  1  0
 11 12  1  0
 12 13  1  0
 13 14  1  0
 14 15  1  0
 15 16  1  0
  2 17  1  0
 17 18  2  0
 18 19  1  0
 19 20  2  0
 20 21  1  0
 21 22  2  0
 22 23  1  0
 22 24  1  0
 24 25  2  0
 25 26  1  0
 26 27  2  0
 13  7  1  0
 16 14  1  0
 27 17  1  0
 26 20  1  0
  3 28  1  0
  4 29  1  0
  4 30  1  0
  8 31  1  0
  8 32  1  0
  9 33  1  0
  9 34  1  0
 10 35  1  0
 10 36  1  0
 11 37  1  0
 11 38  1  0
 12 39  1  0
 12 40  1  0
 13 41  1  1
 14 42  1  0
 15 43  1  0
 15 44  1  0
 16 45  1  0
 16 46  1  0
 18 47  1  0
 19 48  1  0
 21 49  1  0
 24 50  1  0
 25 51  1  0
M  END
>  <smiles>  (15) 
O=C(NCC(=O)N1CCCCCC1C1CC1)c1ccc2cc(F)ccc2n1

>  <score_type>  (15) 
oracle

>  <origin>  (15) 
autodockgpu

>  <m_score__min__energy>  (15) 
-6.0099999999999998

>  <m_primary>  (15) 
energy

>  <rmsd>  (15) 
1.7462994904322007

>  <m_score__min__rmsd>  (15) 
1.7462994904322007

>  <meeko>  (15) 
{"free_energy": -5.09, "intermolecular_energy": -8.38, "internal_energy": -1.78, "cluster_size": 22, "cluster_id": 2, "rank_in_cluster": 16}

>  <energy>  (15) 
-5.54

>  <cluster_rmsd>  (15) 
0.88

>  <cluster>  (15) 
2

$$$$

     RDKit          3D

 51 54  0  0  0  0  0  0  0  0999 V2000
  138.7560   74.8770  221.9890 O   0  0  0  0  0  0  0  0  0  0  0  0
  139.9470   75.2810  221.9440 C   0  0  0  0  0  0  0  0  0  0  0  0
  140.3310   76.6090  222.2730 N   0  0  0  0  0  0  0  0  0  0  0  0
  139.3180   77.5450  222.6770 C   0  0  0  0  0  0  0  0  0  0  0  0
  139.3350   78.7820  221.8720 C   0  0  0  0  0  0  0  0  0  0  0  0
  138.2380   79.1940  221.3870 O   0  0  0  0  0  0  0  0  0  0  0  0
  140.5520   79.4840  221.6540 N   0  0  0  0  0  0  0  0  0  0  0  0
  141.3630   79.1380  220.5030 C   0  0  0  0  0  0  0  0  0  0  0  0
  140.9880   80.0330  219.3690 C   0  0  0  0  0  0  0  0  0  0  0  0
  141.3990   81.4720  219.5940 C   0  0  0  0  0  0  0  0  0  0  0  0
  140.6250   82.1290  220.7040 C   0  0  0  0  0  0  0  0  0  0  0  0
  141.1270   81.8480  222.0740 C   0  0  0  0  0  0  0  0  0  0  0  0
  140.8640   80.4980  222.6270 C   0  0  2  0  0  0  0  0  0  0  0  0
  142.0030   79.9740  223.4710 C   0  0  0  0  0  0  0  0  0  0  0  0
  142.8680   80.9300  224.2270 C   0  0  0  0  0  0  0  0  0  0  0  0
  143.4240   80.1630  223.0770 C   0  0  0  0  0  0  0  0  0  0  0  0
  141.0140   74.3690  221.5400 C   0  0  0  0  0  0  0  0  0  0  0  0
  140.7750   72.9990  221.5200 C   0  0  0  0  0  0  0  0  0  0  0  0
  141.7490   72.0890  221.1450 C   0  0  0  0  0  0  0  0  0  0  0  0
  143.0050   72.5460  220.7780 C   0  0  0  0  0  0  0  0  0  0  0  0
  143.9960   71.6890  220.4010 C   0  0  0  0  0  0  0  0  0  0  0  0
  145.2250   72.2040  220.0460 C   0  0  0  0  0  0  0  0  0  0  0  0
  146.2710   71.4240  219.6590 F   0  0  0  0  0  0  0  0  0  0  0  0
  145.4040   73.5680  220.0860 C   0  0  0  0  0  0  0  0  0  0  0  0
  144.4190   74.4440  220.4610 C   0  0  0  0  0  0  0  0  0  0  0  0
  143.1910   73.9130  220.8150 C   0  0  0  0  0  0  0  0  0  0  0  0
  142.2380   74.7810  221.1800 N   0  0  0  0  0  0  0  0  0  0  0  0
  141.3180   76.9540  222.2390 H   0  0  0  0  0  0  0  0  0  0  0  0
  138.3332   77.0672  222.5680 H   0  0  0  0  0  0  0  0  0  0  0  0
  139.5199   77.8244  223.7216 H   0  0  0  0  0  0  0  0  0  0  0  0
  142.4273   79.2735  220.7456 H   0  0  0  0  0  0  0  0  0  0  0  0
  141.1915   78.0876  220.2249 H   0  0  0  0  0  0  0  0  0  0  0  0
  141.4789   79.6665  218.4554 H   0  0  0  0  0  0  0  0  0  0  0  0
  139.8917   80.0126  219.2809 H   0  0  0  0  0  0  0  0  0  0  0  0
  142.4690   81.4970  219.8481 H   0  0  0  0  0  0  0  0  0  0  0  0
  141.1883   82.0269  218.6678 H   0  0  0  0  0  0  0  0  0  0  0  0
  140.6584   83.2170  220.5452 H   0  0  0  0  0  0  0  0  0  0  0  0
  139.6086   81.7108  220.6582 H   0  0  0  0  0  0  0  0  0  0  0  0
  142.2171   81.9951  222.0639 H   0  0  0  0  0  0  0  0  0  0  0  0
  140.5702   82.5360  222.7272 H   0  0  0  0  0  0  0  0  0  0  0  0
  139.9689   80.6739  223.2417 H   0  0  0  0  0  0  0  0  0  0  0  0
  141.3879   79.0970  223.7211 H   0  0  0  0  0  0  0  0  0  0  0  0
  142.7007   82.0135  224.1370 H   0  0  0  0  0  0  0  0  0  0  0  0
  143.1459   81.0616  225.2832 H   0  0  0  0  0  0  0  0  0  0  0  0
  143.6694   80.6814  222.1383 H   0  0  0  0  0  0  0  0  0  0  0  0
  144.2854   79.4940  222.9340 H   0  0  0  0  0  0  0  0  0  0  0  0
  139.7816   72.6269  221.8111 H   0  0  0  0  0  0  0  0  0  0  0  0
  141.5276   71.0115  221.1384 H   0  0  0  0  0  0  0  0  0  0  0  0
  143.8180   70.6037  220.3803 H   0  0  0  0  0  0  0  0  0  0  0  0
  146.3860   73.9751  219.8031 H   0  0  0  0  0  0  0  0  0  0  0  0
  144.5979   75.5292  220.4799 H   0  0  0  0  0  0  0  0  0  0  0  0
  1  2  2  0
  2  3  1  0
  3  4  1  0
  4  5  1  0
  5  6  2  0
  5  7  1  0
  7  8  1  0
  8  9  1  0
  9 10  1  0
 10 11  1  0
 11 12  1  0
 12 13  1  0
 13 14  1  0
 14 15  1  0
 15 16  1  0
  2 17  1  0
 17 18  2  0
 18 19  1  0
 19 20  2  0
 20 21  1  0
 21 22  2  0
 22 23  1  0
 22 24  1  0
 24 25  2  0
 25 26  1  0
 26 27  2  0
 13  7  1  0
 16 14  1  0
 27 17  1  0
 26 20  1  0
  3 28  1  0
  4 29  1  0
  4 30  1  0
  8 31  1  0
  8 32  1  0
  9 33  1  0
  9 34  1  0
 10 35  1  0
 10 36  1  0
 11 37  1  0
 11 38  1  0
 12 39  1  0
 12 40  1  0
 13 41  1  1
 14 42  1  0
 15 43  1  0
 15 44  1  0
 16 45  1  0
 16 46  1  0
 18 47  1  0
 19 48  1  0
 21 49  1  0
 24 50  1  0
 25 51  1  0
M  END
>  <smiles>  (16) 
O=C(NCC(=O)N1CCCCCC1C1CC1)c1ccc2cc(F)ccc2n1

>  <score_type>  (16) 
oracle

>  <origin>  (16) 
autodockgpu

>  <m_score__min__energy>  (16) 
-6.0099999999999998

>  <m_primary>  (16) 
energy

>  <rmsd>  (16) 
6.221008941684509

>  <m_score__min__rmsd>  (16) 
6.221008941684509

>  <meeko>  (16) 
{"free_energy": -4.17, "intermolecular_energy": -7.45, "internal_energy": -1.72, "cluster_size": 4, "cluster_id": 8, "rank_in_cluster": 4}

>  <energy>  (16) 
-5.53

>  <cluster_rmsd>  (16) 
1.14

>  <cluster>  (16) 
2

$$$$

     RDKit          3D

 51 54  0  0  0  0  0  0  0  0999 V2000
  139.6770   74.2170  222.0890 O   0  0  0  0  0  0  0  0  0  0  0  0
  140.7890   74.5240  221.5860 C   0  0  0  0  0  0  0  0  0  0  0  0
  141.2440   75.8650  221.4640 N   0  0  0  0  0  0  0  0  0  0  0  0
  140.4020   76.9300  221.9330 C   0  0  0  0  0  0  0  0  0  0  0  0
  140.9330   78.2640  221.5950 C   0  0  0  0  0  0  0  0  0  0  0  0
  142.0800   78.3330  221.0600 O   0  0  0  0  0  0  0  0  0  0  0  0
  140.1690   79.4330  221.8650 N   0  0  0  0  0  0  0  0  0  0  0  0
  139.3980   80.0300  220.7920 C   0  0  0  0  0  0  0  0  0  0  0  0
  138.1160   80.5460  221.3560 C   0  0  0  0  0  0  0  0  0  0  0  0
  137.3160   79.4800  222.0720 C   0  0  0  0  0  0  0  0  0  0  0  0
  137.8220   79.2120  223.4640 C   0  0  0  0  0  0  0  0  0  0  0  0
  138.9360   80.0810  223.9050 C   0  0  0  0  0  0  0  0  0  0  0  0
  140.2410   79.9190  223.2200 C   0  0  2  0  0  0  0  0  0  0  0  0
  141.0570   81.1910  223.1960 C   0  0  0  0  0  0  0  0  0  0  0  0
  142.4970   81.1410  222.7960 C   0  0  0  0  0  0  0  0  0  0  0  0
  142.1180   81.4610  224.2010 C   0  0  0  0  0  0  0  0  0  0  0  0
  141.6830   73.4790  221.0930 C   0  0  0  0  0  0  0  0  0  0  0  0
  141.1890   72.1930  220.8900 C   0  0  0  0  0  0  0  0  0  0  0  0
  141.9900   71.1650  220.4240 C   0  0  0  0  0  0  0  0  0  0  0  0
  143.3260   71.4110  220.1490 C   0  0  0  0  0  0  0  0  0  0  0  0
  144.1540   70.4300  219.6890 C   0  0  0  0  0  0  0  0  0  0  0  0
  145.4740   70.7360  219.4330 C   0  0  0  0  0  0  0  0  0  0  0  0
  146.3700   69.8210  218.9730 F   0  0  0  0  0  0  0  0  0  0  0  0
  145.9060   72.0250  219.6530 C   0  0  0  0  0  0  0  0  0  0  0  0
  145.0870   73.0230  220.1140 C   0  0  0  0  0  0  0  0  0  0  0  0
  143.7660   72.7010  220.3670 C   0  0  0  0  0  0  0  0  0  0  0  0
  142.9780   73.6860  220.8180 N   0  0  0  0  0  0  0  0  0  0  0  0
  142.1660   76.1300  221.0470 H   0  0  0  0  0  0  0  0  0  0  0  0
  139.4076   76.8204  221.4755 H   0  0  0  0  0  0  0  0  0  0  0  0
  140.3543   76.8586  223.0296 H   0  0  0  0  0  0  0  0  0  0  0  0
  139.9660   80.8589  220.3444 H   0  0  0  0  0  0  0  0  0  0  0  0
  139.1912   79.2790  220.0153 H   0  0  0  0  0  0  0  0  0  0  0  0
  138.3454   81.3511  222.0695 H   0  0  0  0  0  0  0  0  0  0  0  0
  137.5065   80.9062  220.5141 H   0  0  0  0  0  0  0  0  0  0  0  0
  136.2683   79.8092  222.1355 H   0  0  0  0  0  0  0  0  0  0  0  0
  137.4147   78.5475  221.4969 H   0  0  0  0  0  0  0  0  0  0  0  0
  136.9845   79.3502  224.1636 H   0  0  0  0  0  0  0  0  0  0  0  0
  138.2192   78.1863  223.4535 H   0  0  0  0  0  0  0  0  0  0  0  0
  138.6165   81.1240  223.7636 H   0  0  0  0  0  0  0  0  0  0  0  0
  139.1272   79.7856  224.9472 H   0  0  0  0  0  0  0  0  0  0  0  0
  140.7292   79.1512  223.8381 H   0  0  0  0  0  0  0  0  0  0  0  0
  140.1622   81.7366  222.8618 H   0  0  0  0  0  0  0  0  0  0  0  0
  142.9697   80.1764  222.5591 H   0  0  0  0  0  0  0  0  0  0  0  0
  143.1087   81.6293  222.0231 H   0  0  0  0  0  0  0  0  0  0  0  0
  142.3137   80.7329  225.0020 H   0  0  0  0  0  0  0  0  0  0  0  0
  142.3374   82.2856  224.8952 H   0  0  0  0  0  0  0  0  0  0  0  0
  140.1302   71.9880  221.1065 H   0  0  0  0  0  0  0  0  0  0  0  0
  141.5693   70.1599  220.2730 H   0  0  0  0  0  0  0  0  0  0  0  0
  143.7749   69.4105  219.5247 H   0  0  0  0  0  0  0  0  0  0  0  0
  146.9598   72.2655  219.4488 H   0  0  0  0  0  0  0  0  0  0  0  0
  145.4666   74.0425  220.2767 H   0  0  0  0  0  0  0  0  0  0  0  0
  1  2  2  0
  2  3  1  0
  3  4  1  0
  4  5  1  0
  5  6  2  0
  5  7  1  0
  7  8  1  0
  8  9  1  0
  9 10  1  0
 10 11  1  0
 11 12  1  0
 12 13  1  0
 13 14  1  0
 14 15  1  0
 15 16  1  0
  2 17  1  0
 17 18  2  0
 18 19  1  0
 19 20  2  0
 20 21  1  0
 21 22  2  0
 22 23  1  0
 22 24  1  0
 24 25  2  0
 25 26  1  0
 26 27  2  0
 13  7  1  0
 16 14  1  0
 27 17  1  0
 26 20  1  0
  3 28  1  0
  4 29  1  0
  4 30  1  0
  8 31  1  0
  8 32  1  0
  9 33  1  0
  9 34  1  0
 10 35  1  0
 10 36  1  0
 11 37  1  0
 11 38  1  0
 12 39  1  0
 12 40  1  0
 13 41  1  1
 14 42  1  0
 15 43  1  0
 15 44  1  0
 16 45  1  0
 16 46  1  0
 18 47  1  0
 19 48  1  0
 21 49  1  0
 24 50  1  0
 25 51  1  0
M  END
>  <smiles>  (17) 
O=C(NCC(=O)N1CCCCCC1C1CC1)c1ccc2cc(F)ccc2n1

>  <score_type>  (17) 
oracle

>  <origin>  (17) 
autodockgpu

>  <m_score__min__energy>  (17) 
-6.0099999999999998

>  <m_primary>  (17) 
energy

>  <rmsd>  (17) 
6.460918887211837

>  <m_score__min__rmsd>  (17) 
6.460918887211837

>  <meeko>  (17) 
{"free_energy": -3.62, "intermolecular_energy": -6.9, "internal_energy": -2.05, "cluster_size": 1, "cluster_id": 11, "rank_in_cluster": 1}

>  <energy>  (17) 
-5.47

>  <cluster_rmsd>  (17) 
1.94

>  <cluster>  (17) 
2

$$$$

     RDKit          3D

 51 54  0  0  0  0  0  0  0  0999 V2000
  142.0900   77.7310  218.4360 O   0  0  0  0  0  0  0  0  0  0  0  0
  142.2700   76.9870  219.4340 C   0  0  0  0  0  0  0  0  0  0  0  0
  141.7870   77.2980  220.7340 N   0  0  0  0  0  0  0  0  0  0  0  0
  141.0570   78.5200  220.9290 C   0  0  0  0  0  0  0  0  0  0  0  0
  140.3470   78.5570  222.2220 C   0  0  0  0  0  0  0  0  0  0  0  0
  140.3560   77.5110  222.9390 O   0  0  0  0  0  0  0  0  0  0  0  0
  139.6760   79.7390  222.6430 N   0  0  0  0  0  0  0  0  0  0  0  0
  138.2290   79.7880  222.5640 C   0  0  0  0  0  0  0  0  0  0  0  0
  137.7910   81.2060  222.7230 C   0  0  0  0  0  0  0  0  0  0  0  0
  138.2700   82.0990  221.5990 C   0  0  0  0  0  0  0  0  0  0  0  0
  139.5520   82.8120  221.9310 C   0  0  0  0  0  0  0  0  0  0  0  0
  140.7210   81.9280  222.1810 C   0  0  0  0  0  0  0  0  0  0  0  0
  140.5280   80.7970  223.1200 C   0  0  2  0  0  0  0  0  0  0  0  0
  141.8290   80.1620  223.5540 C   0  0  0  0  0  0  0  0  0  0  0  0
  142.8950   81.0040  224.1770 C   0  0  0  0  0  0  0  0  0  0  0  0
  143.1030   80.4060  222.8280 C   0  0  0  0  0  0  0  0  0  0  0  0
  143.0060   75.7330  219.2890 C   0  0  0  0  0  0  0  0  0  0  0  0
  142.7820   74.9310  218.1740 C   0  0  0  0  0  0  0  0  0  0  0  0
  143.4520   73.7340  217.9860 C   0  0  0  0  0  0  0  0  0  0  0  0
  144.3730   73.3110  218.9310 C   0  0  0  0  0  0  0  0  0  0  0  0
  145.0560   72.1400  218.7890 C   0  0  0  0  0  0  0  0  0  0  0  0
  145.9610   71.7720  219.7620 C   0  0  0  0  0  0  0  0  0  0  0  0
  146.6860   70.6210  219.7030 F   0  0  0  0  0  0  0  0  0  0  0  0
  146.1400   72.6050  220.8430 C   0  0  0  0  0  0  0  0  0  0  0  0
  145.4630   73.7860  221.0020 C   0  0  0  0  0  0  0  0  0  0  0  0
  144.5580   74.1420  220.0170 C   0  0  0  0  0  0  0  0  0  0  0  0
  143.9030   75.2980  220.1860 N   0  0  0  0  0  0  0  0  0  0  0  0
  141.9320   76.6870  221.5700 H   0  0  0  0  0  0  0  0  0  0  0  0
  141.7635   79.3623  220.8909 H   0  0  0  0  0  0  0  0  0  0  0  0
  140.3016   78.5875  220.1322 H   0  0  0  0  0  0  0  0  0  0  0  0
  137.8981   79.4053  221.5873 H   0  0  0  0  0  0  0  0  0  0  0  0
  137.7881   79.1673  223.3580 H   0  0  0  0  0  0  0  0  0  0  0  0
  136.6916   81.2331  222.7489 H   0  0  0  0  0  0  0  0  0  0  0  0
  138.2315   81.5852  223.6569 H   0  0  0  0  0  0  0  0  0  0  0  0
  138.4325   81.4812  220.7035 H   0  0  0  0  0  0  0  0  0  0  0  0
  137.4980   82.8642  221.4303 H   0  0  0  0  0  0  0  0  0  0  0  0
  139.8005   83.4751  221.0893 H   0  0  0  0  0  0  0  0  0  0  0  0
  139.3678   83.3487  222.8733 H   0  0  0  0  0  0  0  0  0  0  0  0
  141.0290   81.5055  221.2132 H   0  0  0  0  0  0  0  0  0  0  0  0
  141.4664   82.5750  222.6666 H   0  0  0  0  0  0  0  0  0  0  0  0
  140.0283   81.2879  223.9681 H   0  0  0  0  0  0  0  0  0  0  0  0
  141.2700   79.2578  223.8366 H   0  0  0  0  0  0  0  0  0  0  0  0
  142.7487   82.0892  224.2817 H   0  0  0  0  0  0  0  0  0  0  0  0
  143.4440   80.9870  225.1301 H   0  0  0  0  0  0  0  0  0  0  0  0
  143.1125   81.0508  221.9369 H   0  0  0  0  0  0  0  0  0  0  0  0
  143.8725   79.7647  222.3735 H   0  0  0  0  0  0  0  0  0  0  0  0
  142.0510   75.2577  217.4197 H   0  0  0  0  0  0  0  0  0  0  0  0
  143.2546   73.1231  217.0928 H   0  0  0  0  0  0  0  0  0  0  0  0
  144.8878   71.4983  217.9115 H   0  0  0  0  0  0  0  0  0  0  0  0
  146.8622   72.3081  221.6177 H   0  0  0  0  0  0  0  0  0  0  0  0
  145.6325   74.4271  221.8797 H   0  0  0  0  0  0  0  0  0  0  0  0
  1  2  2  0
  2  3  1  0
  3  4  1  0
  4  5  1  0
  5  6  2  0
  5  7  1  0
  7  8  1  0
  8  9  1  0
  9 10  1  0
 10 11  1  0
 11 12  1  0
 12 13  1  0
 13 14  1  0
 14 15  1  0
 15 16  1  0
  2 17  1  0
 17 18  2  0
 18 19  1  0
 19 20  2  0
 20 21  1  0
 21 22  2  0
 22 23  1  0
 22 24  1  0
 24 25  2  0
 25 26  1  0
 26 27  2  0
 13  7  1  0
 16 14  1  0
 27 17  1  0
 26 20  1  0
  3 28  1  0
  4 29  1  0
  4 30  1  0
  8 31  1  0
  8 32  1  0
  9 33  1  0
  9 34  1  0
 10 35  1  0
 10 36  1  0
 11 37  1  0
 11 38  1  0
 12 39  1  0
 12 40  1  0
 13 41  1  1
 14 42  1  0
 15 43  1  0
 15 44  1  0
 16 45  1  0
 16 46  1  0
 18 47  1  0
 19 48  1  0
 21 49  1  0
 24 50  1  0
 25 51  1  0
M  END
>  <smiles>  (18) 
O=C(NCC(=O)N1CCCCCC1C1CC1)c1ccc2cc(F)ccc2n1

>  <score_type>  (18) 
oracle

>  <origin>  (18) 
autodockgpu

>  <m_score__min__energy>  (18) 
-6.0099999999999998

>  <m_primary>  (18) 
energy

>  <rmsd>  (18) 
7.56722598933923

>  <m_score__min__rmsd>  (18) 
7.56722598933923

>  <meeko>  (18) 
{"free_energy": -4.45, "intermolecular_energy": -7.73, "internal_energy": -1.91, "cluster_size": 4, "cluster_id": 8, "rank_in_cluster": 2}

>  <energy>  (18) 
-5.39

>  <cluster_rmsd>  (18) 
0.86

>  <cluster>  (18) 
2

$$$$

     RDKit          3D

 51 54  0  0  0  0  0  0  0  0999 V2000
  141.1490   72.0950  221.3230 O   0  0  0  0  0  0  0  0  0  0  0  0
  140.4490   72.4820  222.2930 C   0  0  0  0  0  0  0  0  0  0  0  0
  139.8140   73.7530  222.3370 N   0  0  0  0  0  0  0  0  0  0  0  0
  139.9740   74.6480  221.2240 C   0  0  0  0  0  0  0  0  0  0  0  0
  141.2300   75.4200  221.2910 C   0  0  0  0  0  0  0  0  0  0  0  0
  142.3240   74.7940  221.1470 O   0  0  0  0  0  0  0  0  0  0  0  0
  141.2030   76.8240  221.5120 N   0  0  0  0  0  0  0  0  0  0  0  0
  140.5250   77.3350  222.6870 C   0  0  0  0  0  0  0  0  0  0  0  0
  141.4560   78.2490  223.4140 C   0  0  0  0  0  0  0  0  0  0  0  0
  141.3620   79.6830  222.9400 C   0  0  0  0  0  0  0  0  0  0  0  0
  142.0230   79.8970  221.6050 C   0  0  0  0  0  0  0  0  0  0  0  0
  141.5040   79.0550  220.4960 C   0  0  0  0  0  0  0  0  0  0  0  0
  141.8720   77.6190  220.5150 C   0  0  2  0  0  0  0  0  0  0  0  0
  141.6590   76.9380  219.1820 C   0  0  0  0  0  0  0  0  0  0  0  0
  142.8310   76.3870  218.4350 C   0  0  0  0  0  0  0  0  0  0  0  0
  142.0880   77.5640  217.9040 C   0  0  0  0  0  0  0  0  0  0  0  0
  140.2560   71.6110  223.4500 C   0  0  0  0  0  0  0  0  0  0  0  0
  139.5760   70.4070  223.2950 C   0  0  0  0  0  0  0  0  0  0  0  0
  139.3640   69.5430  224.3560 C   0  0  0  0  0  0  0  0  0  0  0  0
  139.8370   69.8780  225.6150 C   0  0  0  0  0  0  0  0  0  0  0  0
  139.6520   69.0600  226.6890 C   0  0  0  0  0  0  0  0  0  0  0  0
  140.1460   69.4470  227.9170 C   0  0  0  0  0  0  0  0  0  0  0  0
  140.0070   68.6950  229.0420 F   0  0  0  0  0  0  0  0  0  0  0  0
  140.8090   70.6500  228.0100 C   0  0  0  0  0  0  0  0  0  0  0  0
  141.0040   71.4850  226.9400 C   0  0  0  0  0  0  0  0  0  0  0  0
  140.5030   71.0820  225.7150 C   0  0  0  0  0  0  0  0  0  0  0  0
  140.7010   71.9080  224.6790 N   0  0  0  0  0  0  0  0  0  0  0  0
  139.2310   74.0850  223.1390 H   0  0  0  0  0  0  0  0  0  0  0  0
  139.9721   74.0587  220.2952 H   0  0  0  0  0  0  0  0  0  0  0  0
  139.1407   75.3655  221.2517 H   0  0  0  0  0  0  0  0  0  0  0  0
  139.6240   77.8883  222.3837 H   0  0  0  0  0  0  0  0  0  0  0  0
  140.2280   76.5024  223.3416 H   0  0  0  0  0  0  0  0  0  0  0  0
  141.2132   78.2171  224.4864 H   0  0  0  0  0  0  0  0  0  0  0  0
  142.4810   77.9022  223.2162 H   0  0  0  0  0  0  0  0  0  0  0  0
  140.3000   79.9568  222.8550 H   0  0  0  0  0  0  0  0  0  0  0  0
  141.8860   80.3114  223.6752 H   0  0  0  0  0  0  0  0  0  0  0  0
  141.8862   80.9515  221.3234 H   0  0  0  0  0  0  0  0  0  0  0  0
  143.0762   79.6087  221.7379 H   0  0  0  0  0  0  0  0  0  0  0  0
  140.4060   79.1169  220.5177 H   0  0  0  0  0  0  0  0  0  0  0  0
  141.9721   79.4589  219.5862 H   0  0  0  0  0  0  0  0  0  0  0  0
  142.9416   77.6615  220.7682 H   0  0  0  0  0  0  0  0  0  0  0  0
  140.7041   76.5421  219.5581 H   0  0  0  0  0  0  0  0  0  0  0  0
  143.8478   76.5125  218.8355 H   0  0  0  0  0  0  0  0  0  0  0  0
  143.1093   75.3984  218.0409 H   0  0  0  0  0  0  0  0  0  0  0  0
  142.5580   78.5585  217.9103 H   0  0  0  0  0  0  0  0  0  0  0  0
  141.5915   77.8033  216.9521 H   0  0  0  0  0  0  0  0  0  0  0  0
  139.1955   70.1334  222.2998 H   0  0  0  0  0  0  0  0  0  0  0  0
  138.8240   68.5973  224.2008 H   0  0  0  0  0  0  0  0  0  0  0  0
  139.1167   68.1054  226.5781 H   0  0  0  0  0  0  0  0  0  0  0  0
  141.2016   70.9564  228.9908 H   0  0  0  0  0  0  0  0  0  0  0  0
  141.5388   72.4397  227.0515 H   0  0  0  0  0  0  0  0  0  0  0  0
  1  2  2  0
  2  3  1  0
  3  4  1  0
  4  5  1  0
  5  6  2  0
  5  7  1  0
  7  8  1  0
  8  9  1  0
  9 10  1  0
 10 11  1  0
 11 12  1  0
 12 13  1  0
 13 14  1  0
 14 15  1  0
 15 16  1  0
  2 17  1  0
 17 18  2  0
 18 19  1  0
 19 20  2  0
 20 21  1  0
 21 22  2  0
 22 23  1  0
 22 24  1  0
 24 25  2  0
 25 26  1  0
 26 27  2  0
 13  7  1  0
 16 14  1  0
 27 17  1  0
 26 20  1  0
  3 28  1  0
  4 29  1  0
  4 30  1  0
  8 31  1  0
  8 32  1  0
  9 33  1  0
  9 34  1  0
 10 35  1  0
 10 36  1  0
 11 37  1  0
 11 38  1  0
 12 39  1  0
 12 40  1  0
 13 41  1  1
 14 42  1  0
 15 43  1  0
 15 44  1  0
 16 45  1  0
 16 46  1  0
 18 47  1  0
 19 48  1  0
 21 49  1  0
 24 50  1  0
 25 51  1  0
M  END
>  <smiles>  (19) 
O=C(NCC(=O)N1CCCCCC1C1CC1)c1ccc2cc(F)ccc2n1

>  <score_type>  (19) 
oracle

>  <origin>  (19) 
autodockgpu

>  <m_score__min__energy>  (19) 
-6.0099999999999998

>  <m_primary>  (19) 
energy

>  <rmsd>  (19) 
2.974518995862066

>  <m_score__min__rmsd>  (19) 
2.974518995862066

>  <meeko>  (19) 
{"free_energy": -5.54, "intermolecular_energy": -8.82, "internal_energy": -1.25, "cluster_size": 22, "cluster_id": 2, "rank_in_cluster": 7}

>  <energy>  (19) 
-5.3

>  <cluster_rmsd>  (19) 
0.69

>  <cluster>  (19) 
2

$$$$

     RDKit          3D

 51 54  0  0  0  0  0  0  0  0999 V2000
  138.4240   70.6990  221.6410 O   0  0  0  0  0  0  0  0  0  0  0  0
  138.9350   71.2520  222.6480 C   0  0  0  0  0  0  0  0  0  0  0  0
  139.2450   72.6380  222.7020 N   0  0  0  0  0  0  0  0  0  0  0  0
  138.9670   73.4570  221.5540 C   0  0  0  0  0  0  0  0  0  0  0  0
  139.9100   73.2190  220.4450 C   0  0  0  0  0  0  0  0  0  0  0  0
  139.7840   72.1520  219.7710 O   0  0  0  0  0  0  0  0  0  0  0  0
  140.9280   74.1670  220.1490 N   0  0  0  0  0  0  0  0  0  0  0  0
  142.2460   73.6870  219.7810 C   0  0  0  0  0  0  0  0  0  0  0  0
  143.2690   74.5150  220.4850 C   0  0  0  0  0  0  0  0  0  0  0  0
  143.6720   75.7450  219.7000 C   0  0  0  0  0  0  0  0  0  0  0  0
  142.6570   76.8520  219.7950 C   0  0  0  0  0  0  0  0  0  0  0  0
  141.2820   76.4850  219.3740 C   0  0  0  0  0  0  0  0  0  0  0  0
  140.5330   75.5480  220.2460 C   0  0  2  0  0  0  0  0  0  0  0  0
  140.5920   75.9280  221.7080 C   0  0  0  0  0  0  0  0  0  0  0  0
  139.4020   76.5540  222.3610 C   0  0  0  0  0  0  0  0  0  0  0  0
  140.6460   77.3470  222.1490 C   0  0  0  0  0  0  0  0  0  0  0  0
  139.2380   70.4650  223.8410 C   0  0  0  0  0  0  0  0  0  0  0  0
  138.9270   69.1080  223.8650 C   0  0  0  0  0  0  0  0  0  0  0  0
  139.1920   68.3140  224.9670 C   0  0  0  0  0  0  0  0  0  0  0  0
  139.7820   68.8770  226.0880 C   0  0  0  0  0  0  0  0  0  0  0  0
  140.0620   68.1350  227.1970 C   0  0  0  0  0  0  0  0  0  0  0  0
  140.6510   68.7510  228.2810 C   0  0  0  0  0  0  0  0  0  0  0  0
  140.9640   68.0900  229.4290 F   0  0  0  0  0  0  0  0  0  0  0  0
  140.9340   70.0960  228.2020 C   0  0  0  0  0  0  0  0  0  0  0  0
  140.6600   70.8560  227.0940 C   0  0  0  0  0  0  0  0  0  0  0  0
  140.0700   70.2250  226.0140 C   0  0  0  0  0  0  0  0  0  0  0  0
  139.8070   70.9800  224.9400 N   0  0  0  0  0  0  0  0  0  0  0  0
  139.6690   73.1070  223.5340 H   0  0  0  0  0  0  0  0  0  0  0  0
  137.9479   73.2373  221.2031 H   0  0  0  0  0  0  0  0  0  0  0  0
  139.0728   74.5079  221.8613 H   0  0  0  0  0  0  0  0  0  0  0  0
  142.3531   72.6336  220.0790 H   0  0  0  0  0  0  0  0  0  0  0  0
  142.3838   73.7656  218.6925 H   0  0  0  0  0  0  0  0  0  0  0  0
  142.8557   74.8358  221.4526 H   0  0  0  0  0  0  0  0  0  0  0  0
  144.1680   73.8936  220.6101 H   0  0  0  0  0  0  0  0  0  0  0  0
  144.6321   76.1131  220.0908 H   0  0  0  0  0  0  0  0  0  0  0  0
  143.7487   75.4540  218.6420 H   0  0  0  0  0  0  0  0  0  0  0  0
  142.6147   77.1862  220.8421 H   0  0  0  0  0  0  0  0  0  0  0  0
  142.9916   77.6343  219.0978 H   0  0  0  0  0  0  0  0  0  0  0  0
  140.6972   77.4143  219.3077 H   0  0  0  0  0  0  0  0  0  0  0  0
  141.4110   75.9460  218.4238 H   0  0  0  0  0  0  0  0  0  0  0  0
  139.5089   75.6432  219.8559 H   0  0  0  0  0  0  0  0  0  0  0  0
  141.2211   75.0446  221.8920 H   0  0  0  0  0  0  0  0  0  0  0  0
  138.5012   76.7739  221.7692 H   0  0  0  0  0  0  0  0  0  0  0  0
  138.7713   76.3107  223.2288 H   0  0  0  0  0  0  0  0  0  0  0  0
  140.6622   78.1541  221.4018 H   0  0  0  0  0  0  0  0  0  0  0  0
  141.3129   77.9332  222.7983 H   0  0  0  0  0  0  0  0  0  0  0  0
  138.4563   68.6532  222.9810 H   0  0  0  0  0  0  0  0  0  0  0  0
  138.9364   67.2442  224.9535 H   0  0  0  0  0  0  0  0  0  0  0  0
  139.8218   67.0619  227.2266 H   0  0  0  0  0  0  0  0  0  0  0  0
  141.4024   70.5844  229.0692 H   0  0  0  0  0  0  0  0  0  0  0  0
  140.9008   71.9289  227.0652 H   0  0  0  0  0  0  0  0  0  0  0  0
  1  2  2  0
  2  3  1  0
  3  4  1  0
  4  5  1  0
  5  6  2  0
  5  7  1  0
  7  8  1  0
  8  9  1  0
  9 10  1  0
 10 11  1  0
 11 12  1  0
 12 13  1  0
 13 14  1  0
 14 15  1  0
 15 16  1  0
  2 17  1  0
 17 18  2  0
 18 19  1  0
 19 20  2  0
 20 21  1  0
 21 22  2  0
 22 23  1  0
 22 24  1  0
 24 25  2  0
 25 26  1  0
 26 27  2  0
 13  7  1  0
 16 14  1  0
 27 17  1  0
 26 20  1  0
  3 28  1  0
  4 29  1  0
  4 30  1  0
  8 31  1  0
  8 32  1  0
  9 33  1  0
  9 34  1  0
 10 35  1  0
 10 36  1  0
 11 37  1  0
 11 38  1  0
 12 39  1  0
 12 40  1  0
 13 41  1  6
 14 42  1  0
 15 43  1  0
 15 44  1  0
 16 45  1  0
 16 46  1  0
 18 47  1  0
 19 48  1  0
 21 49  1  0
 24 50  1  0
 25 51  1  0
M  END
>  <smiles>  (20) 
O=C(NCC(=O)N1CCCCCC1C1CC1)c1ccc2cc(F)ccc2n1

>  <score_type>  (20) 
oracle

>  <origin>  (20) 
autodockgpu

>  <m_score__min__energy>  (20) 
-6.0099999999999998

>  <m_primary>  (20) 
energy

>  <rmsd>  (20) 
2.0283969651271283

>  <m_score__min__rmsd>  (20) 
2.0283969651271283

>  <meeko>  (20) 
{"free_energy": -4.93, "intermolecular_energy": -8.21, "internal_energy": -1.29, "cluster_size": 22, "cluster_id": 2, "rank_in_cluster": 19}

>  <energy>  (20) 
-5.24

>  <cluster_rmsd>  (20) 
1.44

>  <cluster>  (20) 
2

$$$$

     RDKit          3D

 51 54  0  0  0  0  0  0  0  0999 V2000
  141.2060   72.0210  221.3570 O   0  0  0  0  0  0  0  0  0  0  0  0
  140.5010   72.4580  222.3030 C   0  0  0  0  0  0  0  0  0  0  0  0
  139.9240   73.7570  222.3070 N   0  0  0  0  0  0  0  0  0  0  0  0
  140.1510   74.6210  221.1810 C   0  0  0  0  0  0  0  0  0  0  0  0
  139.4630   75.9200  221.3150 C   0  0  0  0  0  0  0  0  0  0  0  0
  138.6270   76.0590  222.2580 O   0  0  0  0  0  0  0  0  0  0  0  0
  139.7400   76.9790  220.4070 N   0  0  0  0  0  0  0  0  0  0  0  0
  139.2660   76.8710  219.0410 C   0  0  0  0  0  0  0  0  0  0  0  0
  140.2570   77.5310  218.1400 C   0  0  0  0  0  0  0  0  0  0  0  0
  141.6330   76.9080  218.2220 C   0  0  0  0  0  0  0  0  0  0  0  0
  142.3790   77.3110  219.4660 C   0  0  0  0  0  0  0  0  0  0  0  0
  141.7560   78.3980  220.2620 C   0  0  0  0  0  0  0  0  0  0  0  0
  140.4830   78.0840  220.9550 C   0  0  2  0  0  0  0  0  0  0  0  0
  140.6660   77.8130  222.4310 C   0  0  0  0  0  0  0  0  0  0  0  0
  140.2590   78.8460  223.4310 C   0  0  0  0  0  0  0  0  0  0  0  0
  141.6990   78.5160  223.2360 C   0  0  0  0  0  0  0  0  0  0  0  0
  140.2410   71.6200  223.4710 C   0  0  0  0  0  0  0  0  0  0  0  0
  139.4790   70.4640  223.3290 C   0  0  0  0  0  0  0  0  0  0  0  0
  139.2010   69.6330  224.4010 C   0  0  0  0  0  0  0  0  0  0  0  0
  139.6910   69.9520  225.6580 C   0  0  0  0  0  0  0  0  0  0  0  0
  139.4430   69.1650  226.7430 C   0  0  0  0  0  0  0  0  0  0  0  0
  139.9580   69.5350  227.9670 C   0  0  0  0  0  0  0  0  0  0  0  0
  139.7600   68.8110  229.1030 F   0  0  0  0  0  0  0  0  0  0  0  0
  140.7030   70.6890  228.0480 C   0  0  0  0  0  0  0  0  0  0  0  0
  140.9620   71.4920  226.9670 C   0  0  0  0  0  0  0  0  0  0  0  0
  140.4400   71.1080  225.7440 C   0  0  0  0  0  0  0  0  0  0  0  0
  140.7000   71.9030  224.6980 N   0  0  0  0  0  0  0  0  0  0  0  0
  139.3370   74.1300  223.0880 H   0  0  0  0  0  0  0  0  0  0  0  0
  141.2319   74.8027  221.0885 H   0  0  0  0  0  0  0  0  0  0  0  0
  139.7463   74.1198  220.2894 H   0  0  0  0  0  0  0  0  0  0  0  0
  139.1643   75.8106  218.7667 H   0  0  0  0  0  0  0  0  0  0  0  0
  138.2853   77.3596  218.9435 H   0  0  0  0  0  0  0  0  0  0  0  0
  139.8968   77.4513  217.1037 H   0  0  0  0  0  0  0  0  0  0  0  0
  140.3492   78.5788  218.4618 H   0  0  0  0  0  0  0  0  0  0  0  0
  141.5248   75.8133  218.2154 H   0  0  0  0  0  0  0  0  0  0  0  0
  142.2116   77.2643  217.3570 H   0  0  0  0  0  0  0  0  0  0  0  0
  142.4645   76.4246  220.1118 H   0  0  0  0  0  0  0  0  0  0  0  0
  143.3469   77.7053  219.1228 H   0  0  0  0  0  0  0  0  0  0  0  0
  142.4829   78.7061  221.0279 H   0  0  0  0  0  0  0  0  0  0  0  0
  141.4960   79.1749  219.5279 H   0  0  0  0  0  0  0  0  0  0  0  0
  139.9026   79.0045  220.7941 H   0  0  0  0  0  0  0  0  0  0  0  0
  140.4285   76.7549  222.2463 H   0  0  0  0  0  0  0  0  0  0  0  0
  139.8654   79.8156  223.0921 H   0  0  0  0  0  0  0  0  0  0  0  0
  139.5747   78.8703  224.2919 H   0  0  0  0  0  0  0  0  0  0  0  0
  142.3690   79.2437  222.7549 H   0  0  0  0  0  0  0  0  0  0  0  0
  142.5185   78.1966  223.8966 H   0  0  0  0  0  0  0  0  0  0  0  0
  139.0859   70.2028  222.3354 H   0  0  0  0  0  0  0  0  0  0  0  0
  138.5956   68.7261  224.2563 H   0  0  0  0  0  0  0  0  0  0  0  0
  138.8416   68.2494  226.6435 H   0  0  0  0  0  0  0  0  0  0  0  0
  141.1104   70.9815  229.0270 H   0  0  0  0  0  0  0  0  0  0  0  0
  141.5627   72.4079  227.0681 H   0  0  0  0  0  0  0  0  0  0  0  0
  1  2  2  0
  2  3  1  0
  3  4  1  0
  4  5  1  0
  5  6  2  0
  5  7  1  0
  7  8  1  0
  8  9  1  0
  9 10  1  0
 10 11  1  0
 11 12  1  0
 12 13  1  0
 13 14  1  0
 14 15  1  0
 15 16  1  0
  2 17  1  0
 17 18  2  0
 18 19  1  0
 19 20  2  0
 20 21  1  0
 21 22  2  0
 22 23  1  0
 22 24  1  0
 24 25  2  0
 25 26  1  0
 26 27  2  0
 13  7  1  0
 16 14  1  0
 27 17  1  0
 26 20  1  0
  3 28  1  0
  4 29  1  0
  4 30  1  0
  8 31  1  0
  8 32  1  0
  9 33  1  0
  9 34  1  0
 10 35  1  0
 10 36  1  0
 11 37  1  0
 11 38  1  0
 12 39  1  0
 12 40  1  0
 13 41  1  1
 14 42  1  0
 15 43  1  0
 15 44  1  0
 16 45  1  0
 16 46  1  0
 18 47  1  0
 19 48  1  0
 21 49  1  0
 24 50  1  0
 25 51  1  0
M  END
>  <smiles>  (21) 
O=C(NCC(=O)N1CCCCCC1C1CC1)c1ccc2cc(F)ccc2n1

>  <score_type>  (21) 
oracle

>  <origin>  (21) 
autodockgpu

>  <m_score__min__energy>  (21) 
-6.0099999999999998

>  <m_primary>  (21) 
energy

>  <rmsd>  (21) 
1.8451790863977462

>  <m_score__min__rmsd>  (21) 
1.8451790863977462

>  <meeko>  (21) 
{"free_energy": -4.67, "intermolecular_energy": -7.95, "internal_energy": -1.76, "cluster_size": 22, "cluster_id": 2, "rank_in_cluster": 21}

>  <energy>  (21) 
-5.22

>  <cluster_rmsd>  (21) 
1.64

>  <cluster>  (21) 
2

$$$$

     RDKit          3D

 51 54  0  0  0  0  0  0  0  0999 V2000
  141.1980   71.9430  221.3300 O   0  0  0  0  0  0  0  0  0  0  0  0
  140.5160   72.3870  222.2890 C   0  0  0  0  0  0  0  0  0  0  0  0
  139.9780   73.7020  222.3180 N   0  0  0  0  0  0  0  0  0  0  0  0
  140.2200   74.5760  221.2030 C   0  0  0  0  0  0  0  0  0  0  0  0
  140.1780   76.0020  221.5790 C   0  0  0  0  0  0  0  0  0  0  0  0
  139.3510   76.3600  222.4720 O   0  0  0  0  0  0  0  0  0  0  0  0
  141.0450   76.9390  220.9530 N   0  0  0  0  0  0  0  0  0  0  0  0
  141.9670   76.4700  219.9380 C   0  0  0  0  0  0  0  0  0  0  0  0
  141.4520   76.8830  218.5980 C   0  0  0  0  0  0  0  0  0  0  0  0
  140.7520   78.2240  218.6250 C   0  0  0  0  0  0  0  0  0  0  0  0
  141.6110   79.3150  219.2070 C   0  0  0  0  0  0  0  0  0  0  0  0
  141.7410   79.2920  220.6770 C   0  0  0  0  0  0  0  0  0  0  0  0
  140.9140   78.3000  221.4050 C   0  0  2  0  0  0  0  0  0  0  0  0
  141.1640   78.3030  222.8960 C   0  0  0  0  0  0  0  0  0  0  0  0
  140.6180   79.4110  223.7380 C   0  0  0  0  0  0  0  0  0  0  0  0
  142.0870   79.2770  223.5350 C   0  0  0  0  0  0  0  0  0  0  0  0
  140.2420   71.5400  223.4470 C   0  0  0  0  0  0  0  0  0  0  0  0
  139.5240   70.3590  223.2780 C   0  0  0  0  0  0  0  0  0  0  0  0
  139.2350   69.5180  224.3400 C   0  0  0  0  0  0  0  0  0  0  0  0
  139.6680   69.8530  225.6130 C   0  0  0  0  0  0  0  0  0  0  0  0
  139.4070   69.0570  226.6890 C   0  0  0  0  0  0  0  0  0  0  0  0
  139.8640   69.4430  227.9310 C   0  0  0  0  0  0  0  0  0  0  0  0
  139.6500   68.7110  229.0590 F   0  0  0  0  0  0  0  0  0  0  0  0
  140.5670   70.6210  228.0380 C   0  0  0  0  0  0  0  0  0  0  0  0
  140.8380   71.4330  226.9670 C   0  0  0  0  0  0  0  0  0  0  0  0
  140.3740   71.0330  225.7270 C   0  0  0  0  0  0  0  0  0  0  0  0
  140.6460   71.8370  224.6900 N   0  0  0  0  0  0  0  0  0  0  0  0
  139.4100   74.0810  223.1100 H   0  0  0  0  0  0  0  0  0  0  0  0
  141.2134   74.3504  220.7879 H   0  0  0  0  0  0  0  0  0  0  0  0
  139.4226   74.4028  220.4653 H   0  0  0  0  0  0  0  0  0  0  0  0
  142.9597   76.9131  220.1060 H   0  0  0  0  0  0  0  0  0  0  0  0
  142.0528   75.3744  219.9860 H   0  0  0  0  0  0  0  0  0  0  0  0
  142.2995   76.9433  217.8994 H   0  0  0  0  0  0  0  0  0  0  0  0
  140.7139   76.1313  218.2816 H   0  0  0  0  0  0  0  0  0  0  0  0
  140.4811   78.5006  217.5954 H   0  0  0  0  0  0  0  0  0  0  0  0
  139.8635   78.1227  219.2655 H   0  0  0  0  0  0  0  0  0  0  0  0
  142.6181   79.2232  218.7743 H   0  0  0  0  0  0  0  0  0  0  0  0
  141.1123   80.2634  218.9582 H   0  0  0  0  0  0  0  0  0  0  0  0
  142.7949   79.0855  220.9148 H   0  0  0  0  0  0  0  0  0  0  0  0
  141.3767   80.2737  221.0139 H   0  0  0  0  0  0  0  0  0  0  0  0
  139.8939   78.6433  221.1778 H   0  0  0  0  0  0  0  0  0  0  0  0
  141.0928   77.2053  222.8905 H   0  0  0  0  0  0  0  0  0  0  0  0
  140.0706   80.2414  223.2681 H   0  0  0  0  0  0  0  0  0  0  0  0
  139.9544   79.4703  224.6133 H   0  0  0  0  0  0  0  0  0  0  0  0
  142.6251   80.0106  222.9167 H   0  0  0  0  0  0  0  0  0  0  0  0
  142.9584   79.1978  224.2017 H   0  0  0  0  0  0  0  0  0  0  0  0
  139.1759   70.0857  222.2710 H   0  0  0  0  0  0  0  0  0  0  0  0
  138.6661   68.5913  224.1741 H   0  0  0  0  0  0  0  0  0  0  0  0
  138.8408   68.1217  226.5678 H   0  0  0  0  0  0  0  0  0  0  0  0
  140.9291   70.9260  229.0309 H   0  0  0  0  0  0  0  0  0  0  0  0
  141.4038   72.3684  227.0895 H   0  0  0  0  0  0  0  0  0  0  0  0
  1  2  2  0
  2  3  1  0
  3  4  1  0
  4  5  1  0
  5  6  2  0
  5  7  1  0
  7  8  1  0
  8  9  1  0
  9 10  1  0
 10 11  1  0
 11 12  1  0
 12 13  1  0
 13 14  1  0
 14 15  1  0
 15 16  1  0
  2 17  1  0
 17 18  2  0
 18 19  1  0
 19 20  2  0
 20 21  1  0
 21 22  2  0
 22 23  1  0
 22 24  1  0
 24 25  2  0
 25 26  1  0
 26 27  2  0
 13  7  1  0
 16 14  1  0
 27 17  1  0
 26 20  1  0
  3 28  1  0
  4 29  1  0
  4 30  1  0
  8 31  1  0
  8 32  1  0
  9 33  1  0
  9 34  1  0
 10 35  1  0
 10 36  1  0
 11 37  1  0
 11 38  1  0
 12 39  1  0
 12 40  1  0
 13 41  1  1
 14 42  1  0
 15 43  1  0
 15 44  1  0
 16 45  1  0
 16 46  1  0
 18 47  1  0
 19 48  1  0
 21 49  1  0
 24 50  1  0
 25 51  1  0
M  END
>  <smiles>  (22) 
O=C(NCC(=O)N1CCCCCC1C1CC1)c1ccc2cc(F)ccc2n1

>  <score_type>  (22) 
oracle

>  <origin>  (22) 
autodockgpu

>  <m_score__min__energy>  (22) 
-6.0099999999999998

>  <m_primary>  (22) 
energy

>  <rmsd>  (22) 
2.2924627754426568

>  <m_score__min__rmsd>  (22) 
2.2924627754426568

>  <meeko>  (22) 
{"free_energy": -4.98, "intermolecular_energy": -8.27, "internal_energy": -1.53, "cluster_size": 22, "cluster_id": 2, "rank_in_cluster": 17}

>  <energy>  (22) 
-5.21

>  <cluster_rmsd>  (22) 
1.96

>  <cluster>  (22) 
2

$$$$

     RDKit          3D

 51 54  0  0  0  0  0  0  0  0999 V2000
  138.5070   71.2110  221.3000 O   0  0  0  0  0  0  0  0  0  0  0  0
  139.0340   71.7340  222.3140 C   0  0  0  0  0  0  0  0  0  0  0  0
  139.4140   73.1030  222.3760 N   0  0  0  0  0  0  0  0  0  0  0  0
  139.1910   73.9370  221.2270 C   0  0  0  0  0  0  0  0  0  0  0  0
  140.2160   73.7520  220.1830 C   0  0  0  0  0  0  0  0  0  0  0  0
  139.8370   73.7120  218.9730 O   0  0  0  0  0  0  0  0  0  0  0  0
  141.5880   73.6250  220.5340 N   0  0  0  0  0  0  0  0  0  0  0  0
  142.3520   74.8230  220.8220 C   0  0  0  0  0  0  0  0  0  0  0  0
  143.5500   74.8520  219.9320 C   0  0  0  0  0  0  0  0  0  0  0  0
  144.7650   74.2050  220.5590 C   0  0  0  0  0  0  0  0  0  0  0  0
  144.5750   72.7330  220.8080 C   0  0  0  0  0  0  0  0  0  0  0  0
  143.4690   72.1010  220.0430 C   0  0  0  0  0  0  0  0  0  0  0  0
  142.0950   72.2770  220.5700 C   0  0  2  0  0  0  0  0  0  0  0  0
  141.0790   71.3990  219.8750 C   0  0  0  0  0  0  0  0  0  0  0  0
  141.1540   69.9140  220.0270 C   0  0  0  0  0  0  0  0  0  0  0  0
  141.4430   70.5490  218.7110 C   0  0  0  0  0  0  0  0  0  0  0  0
  139.2830   70.9290  223.5080 C   0  0  0  0  0  0  0  0  0  0  0  0
  138.8940   69.5930  223.5280 C   0  0  0  0  0  0  0  0  0  0  0  0
  139.1050   68.7840  224.6310 C   0  0  0  0  0  0  0  0  0  0  0  0
  139.7210   69.3100  225.7560 C   0  0  0  0  0  0  0  0  0  0  0  0
  139.9490   68.5530  226.8660 C   0  0  0  0  0  0  0  0  0  0  0  0
  140.5660   69.1320  227.9540 C   0  0  0  0  0  0  0  0  0  0  0  0
  140.8330   68.4530  229.1030 F   0  0  0  0  0  0  0  0  0  0  0  0
  140.9280   70.4580  227.8780 C   0  0  0  0  0  0  0  0  0  0  0  0
  140.7060   71.2340  226.7700 C   0  0  0  0  0  0  0  0  0  0  0  0
  140.0860   70.6390  225.6850 C   0  0  0  0  0  0  0  0  0  0  0  0
  139.8750   71.4100  224.6110 N   0  0  0  0  0  0  0  0  0  0  0  0
  139.8530   73.5470  223.2140 H   0  0  0  0  0  0  0  0  0  0  0  0
  138.2065   73.6935  220.8009 H   0  0  0  0  0  0  0  0  0  0  0  0
  139.2415   74.9839  221.5610 H   0  0  0  0  0  0  0  0  0  0  0  0
  141.7310   75.7117  220.6359 H   0  0  0  0  0  0  0  0  0  0  0  0
  142.6678   74.8219  221.8757 H   0  0  0  0  0  0  0  0  0  0  0  0
  143.3088   74.3176  219.0013 H   0  0  0  0  0  0  0  0  0  0  0  0
  143.7973   75.9075  219.7457 H   0  0  0  0  0  0  0  0  0  0  0  0
  145.6233   74.3400  219.8844 H   0  0  0  0  0  0  0  0  0  0  0  0
  144.9335   74.6879  221.5329 H   0  0  0  0  0  0  0  0  0  0  0  0
  145.5104   72.2190  220.5418 H   0  0  0  0  0  0  0  0  0  0  0  0
  144.3074   72.6345  221.8704 H   0  0  0  0  0  0  0  0  0  0  0  0
  143.4893   72.5186  219.0255 H   0  0  0  0  0  0  0  0  0  0  0  0
  143.6612   71.0198  220.1068 H   0  0  0  0  0  0  0  0  0  0  0  0
  142.2163   71.9811  221.6225 H   0  0  0  0  0  0  0  0  0  0  0  0
  140.3180   72.1739  220.0494 H   0  0  0  0  0  0  0  0  0  0  0  0
  141.9689   69.4606  220.6104 H   0  0  0  0  0  0  0  0  0  0  0  0
  140.4668   69.1311  220.3803 H   0  0  0  0  0  0  0  0  0  0  0  0
  142.4717   70.5622  218.3217 H   0  0  0  0  0  0  0  0  0  0  0  0
  141.0564   70.4263  217.6885 H   0  0  0  0  0  0  0  0  0  0  0  0
  138.4039   69.1670  222.6401 H   0  0  0  0  0  0  0  0  0  0  0  0
  138.7862   67.7313  224.6151 H   0  0  0  0  0  0  0  0  0  0  0  0
  139.6453   67.4961  226.8932 H   0  0  0  0  0  0  0  0  0  0  0  0
  141.4192   70.9171  228.7486 H   0  0  0  0  0  0  0  0  0  0  0  0
  141.0095   72.2910  226.7442 H   0  0  0  0  0  0  0  0  0  0  0  0
  1  2  2  0
  2  3  1  0
  3  4  1  0
  4  5  1  0
  5  6  2  0
  5  7  1  0
  7  8  1  0
  8  9  1  0
  9 10  1  0
 10 11  1  0
 11 12  1  0
 12 13  1  0
 13 14  1  0
 14 15  1  0
 15 16  1  0
  2 17  1  0
 17 18  2  0
 18 19  1  0
 19 20  2  0
 20 21  1  0
 21 22  2  0
 22 23  1  0
 22 24  1  0
 24 25  2  0
 25 26  1  0
 26 27  2  0
 13  7  1  0
 16 14  1  0
 27 17  1  0
 26 20  1  0
  3 28  1  0
  4 29  1  0
  4 30  1  0
  8 31  1  0
  8 32  1  0
  9 33  1  0
  9 34  1  0
 10 35  1  0
 10 36  1  0
 11 37  1  0
 11 38  1  0
 12 39  1  0
 12 40  1  0
 13 41  1  1
 14 42  1  0
 15 43  1  0
 15 44  1  0
 16 45  1  0
 16 46  1  0
 18 47  1  0
 19 48  1  0
 21 49  1  0
 24 50  1  0
 25 51  1  0
M  END
>  <smiles>  (23) 
O=C(NCC(=O)N1CCCCCC1C1CC1)c1ccc2cc(F)ccc2n1

>  <score_type>  (23) 
oracle

>  <origin>  (23) 
autodockgpu

>  <m_score__min__energy>  (23) 
-6.0099999999999998

>  <m_primary>  (23) 
energy

>  <rmsd>  (23) 
3.0466723507532163

>  <m_score__min__rmsd>  (23) 
3.0466723507532163

>  <meeko>  (23) 
{"free_energy": -4.39, "intermolecular_energy": -7.67, "internal_energy": -2.0, "cluster_size": 8, "cluster_id": 3, "rank_in_cluster": 6}

>  <energy>  (23) 
-5.18

>  <cluster_rmsd>  (23) 
1.87

>  <cluster>  (23) 
2

$$$$

     RDKit          3D

 51 54  0  0  0  0  0  0  0  0999 V2000
  141.2870   71.9750  221.3450 O   0  0  0  0  0  0  0  0  0  0  0  0
  140.5850   72.4000  222.2980 C   0  0  0  0  0  0  0  0  0  0  0  0
  140.0470   73.7150  222.3430 N   0  0  0  0  0  0  0  0  0  0  0  0
  140.3120   74.6110  221.2510 C   0  0  0  0  0  0  0  0  0  0  0  0
  140.2960   76.0280  221.6620 C   0  0  0  0  0  0  0  0  0  0  0  0
  139.5350   76.3640  222.6200 O   0  0  0  0  0  0  0  0  0  0  0  0
  141.1150   76.9810  220.9960 N   0  0  0  0  0  0  0  0  0  0  0  0
  142.0120   76.5260  219.9520 C   0  0  0  0  0  0  0  0  0  0  0  0
  141.4550   76.9420  218.6300 C   0  0  0  0  0  0  0  0  0  0  0  0
  141.8210   78.3630  218.2590 C   0  0  0  0  0  0  0  0  0  0  0  0
  141.1490   79.3830  219.1380 C   0  0  0  0  0  0  0  0  0  0  0  0
  141.5760   79.3680  220.5610 C   0  0  0  0  0  0  0  0  0  0  0  0
  140.9630   78.3430  221.4400 C   0  0  2  0  0  0  0  0  0  0  0  0
  141.4660   78.4080  222.8640 C   0  0  0  0  0  0  0  0  0  0  0  0
  140.7890   79.3040  223.8490 C   0  0  0  0  0  0  0  0  0  0  0  0
  142.1750   79.6040  223.3910 C   0  0  0  0  0  0  0  0  0  0  0  0
  140.2880   71.5300  223.4330 C   0  0  0  0  0  0  0  0  0  0  0  0
  139.5250   70.3830  223.2360 C   0  0  0  0  0  0  0  0  0  0  0  0
  139.2120   69.5220  224.2750 C   0  0  0  0  0  0  0  0  0  0  0  0
  139.6670   69.8030  225.5540 C   0  0  0  0  0  0  0  0  0  0  0  0
  139.3840   68.9860  226.6080 C   0  0  0  0  0  0  0  0  0  0  0  0
  139.8650   69.3180  227.8580 C   0  0  0  0  0  0  0  0  0  0  0  0
  139.6310   68.5620  228.9650 F   0  0  0  0  0  0  0  0  0  0  0  0
  140.6130   70.4660  227.9930 C   0  0  0  0  0  0  0  0  0  0  0  0
  140.9060   71.2980  226.9440 C   0  0  0  0  0  0  0  0  0  0  0  0
  140.4180   70.9520  225.6960 C   0  0  0  0  0  0  0  0  0  0  0  0
  140.7120   71.7750  224.6810 N   0  0  0  0  0  0  0  0  0  0  0  0
  139.4640   74.0790  223.1310 H   0  0  0  0  0  0  0  0  0  0  0  0
  141.3029   74.3761  220.8353 H   0  0  0  0  0  0  0  0  0  0  0  0
  139.5153   74.4717  220.5054 H   0  0  0  0  0  0  0  0  0  0  0  0
  143.0051   76.9771  220.0942 H   0  0  0  0  0  0  0  0  0  0  0  0
  142.1090   75.4310  219.9910 H   0  0  0  0  0  0  0  0  0  0  0  0
  141.8454   76.2652  217.8557 H   0  0  0  0  0  0  0  0  0  0  0  0
  140.3586   76.8911  218.7023 H   0  0  0  0  0  0  0  0  0  0  0  0
  142.9107   78.4816  218.3516 H   0  0  0  0  0  0  0  0  0  0  0  0
  141.4798   78.5360  217.2277 H   0  0  0  0  0  0  0  0  0  0  0  0
  141.3643   80.3808  218.7281 H   0  0  0  0  0  0  0  0  0  0  0  0
  140.0784   79.1306  219.1368 H   0  0  0  0  0  0  0  0  0  0  0  0
  142.6646   79.2112  220.5785 H   0  0  0  0  0  0  0  0  0  0  0  0
  141.2380   80.3318  220.9695 H   0  0  0  0  0  0  0  0  0  0  0  0
  139.8965   78.6075  221.3886 H   0  0  0  0  0  0  0  0  0  0  0  0
  141.7093   77.3367  222.8075 H   0  0  0  0  0  0  0  0  0  0  0  0
  139.9528   79.9427  223.5283 H   0  0  0  0  0  0  0  0  0  0  0  0
  140.3049   79.1625  224.8266 H   0  0  0  0  0  0  0  0  0  0  0  0
  142.3619   80.4659  222.7336 H   0  0  0  0  0  0  0  0  0  0  0  0
  143.1383   79.7770  223.8931 H   0  0  0  0  0  0  0  0  0  0  0  0
  139.1593   70.1531  222.2244 H   0  0  0  0  0  0  0  0  0  0  0  0
  138.6073   68.6226  224.0867 H   0  0  0  0  0  0  0  0  0  0  0  0
  138.7819   68.0767  226.4643 H   0  0  0  0  0  0  0  0  0  0  0  0
  140.9939   70.7281  228.9911 H   0  0  0  0  0  0  0  0  0  0  0  0
  141.5072   72.2077  227.0888 H   0  0  0  0  0  0  0  0  0  0  0  0
  1  2  2  0
  2  3  1  0
  3  4  1  0
  4  5  1  0
  5  6  2  0
  5  7  1  0
  7  8  1  0
  8  9  1  0
  9 10  1  0
 10 11  1  0
 11 12  1  0
 12 13  1  0
 13 14  1  0
 14 15  1  0
 15 16  1  0
  2 17  1  0
 17 18  2  0
 18 19  1  0
 19 20  2  0
 20 21  1  0
 21 22  2  0
 22 23  1  0
 22 24  1  0
 24 25  2  0
 25 26  1  0
 26 27  2  0
 13  7  1  0
 16 14  1  0
 27 17  1  0
 26 20  1  0
  3 28  1  0
  4 29  1  0
  4 30  1  0
  8 31  1  0
  8 32  1  0
  9 33  1  0
  9 34  1  0
 10 35  1  0
 10 36  1  0
 11 37  1  0
 11 38  1  0
 12 39  1  0
 12 40  1  0
 13 41  1  1
 14 42  1  0
 15 43  1  0
 15 44  1  0
 16 45  1  0
 16 46  1  0
 18 47  1  0
 19 48  1  0
 21 49  1  0
 24 50  1  0
 25 51  1  0
M  END
>  <smiles>  (24) 
O=C(NCC(=O)N1CCCCCC1C1CC1)c1ccc2cc(F)ccc2n1

>  <score_type>  (24) 
oracle

>  <origin>  (24) 
autodockgpu

>  <m_score__min__energy>  (24) 
-6.0099999999999998

>  <m_primary>  (24) 
energy

>  <rmsd>  (24) 
2.2953043859895597

>  <m_score__min__rmsd>  (24) 
2.2953043859895597

>  <meeko>  (24) 
{"free_energy": -5.95, "intermolecular_energy": -9.23, "internal_energy": -1.6, "cluster_size": 22, "cluster_id": 2, "rank_in_cluster": 1}

>  <energy>  (24) 
-5.09

>  <cluster_rmsd>  (24) 
1.82

>  <cluster>  (24) 
2

$$$$

     RDKit          3D

 51 54  0  0  0  0  0  0  0  0999 V2000
  139.3800   74.8060  222.1800 O   0  0  0  0  0  0  0  0  0  0  0  0
  140.5620   75.1480  221.9200 C   0  0  0  0  0  0  0  0  0  0  0  0
  141.0520   76.4680  222.1170 N   0  0  0  0  0  0  0  0  0  0  0  0
  140.1610   77.4690  222.6360 C   0  0  0  0  0  0  0  0  0  0  0  0
  140.1630   78.7040  221.8300 C   0  0  0  0  0  0  0  0  0  0  0  0
  139.1330   78.9680  221.1380 O   0  0  0  0  0  0  0  0  0  0  0  0
  141.2930   79.5680  221.8370 N   0  0  0  0  0  0  0  0  0  0  0  0
  141.7280   80.1410  223.0960 C   0  0  0  0  0  0  0  0  0  0  0  0
  141.7080   81.6290  222.9750 C   0  0  0  0  0  0  0  0  0  0  0  0
  140.7110   82.1230  221.9490 C   0  0  0  0  0  0  0  0  0  0  0  0
  141.3090   82.2500  220.5740 C   0  0  0  0  0  0  0  0  0  0  0  0
  141.4190   80.9780  219.8140 C   0  0  0  0  0  0  0  0  0  0  0  0
  141.9080   79.7910  220.5550 C   0  0  2  0  0  0  0  0  0  0  0  0
  141.7770   78.5070  219.7670 C   0  0  0  0  0  0  0  0  0  0  0  0
  142.5570   78.3290  218.5040 C   0  0  0  0  0  0  0  0  0  0  0  0
  141.0730   78.4590  218.4580 C   0  0  0  0  0  0  0  0  0  0  0  0
  141.5070   74.1690  221.3890 C   0  0  0  0  0  0  0  0  0  0  0  0
  141.1260   72.8350  221.2820 C   0  0  0  0  0  0  0  0  0  0  0  0
  141.9800   71.8650  220.7860 C   0  0  0  0  0  0  0  0  0  0  0  0
  143.2570   72.2220  220.3820 C   0  0  0  0  0  0  0  0  0  0  0  0
  144.1330   71.3020  219.8870 C   0  0  0  0  0  0  0  0  0  0  0  0
  145.3900   71.7180  219.5010 C   0  0  0  0  0  0  0  0  0  0  0  0
  146.3280   70.8700  218.9980 F   0  0  0  0  0  0  0  0  0  0  0  0
  145.7130   73.0500  219.6310 C   0  0  0  0  0  0  0  0  0  0  0  0
  144.8440   73.9880  220.1250 C   0  0  0  0  0  0  0  0  0  0  0  0
  143.5860   73.5560  220.5080 C   0  0  0  0  0  0  0  0  0  0  0  0
  142.7480   74.4830  220.9900 N   0  0  0  0  0  0  0  0  0  0  0  0
  142.0320   76.7620  221.9030 H   0  0  0  0  0  0  0  0  0  0  0  0
  139.1403   77.0590  222.6496 H   0  0  0  0  0  0  0  0  0  0  0  0
  140.5070   77.7307  223.6468 H   0  0  0  0  0  0  0  0  0  0  0  0
  141.0481   79.8256  223.9011 H   0  0  0  0  0  0  0  0  0  0  0  0
  142.7456   79.7972  223.3334 H   0  0  0  0  0  0  0  0  0  0  0  0
  141.4459   82.0573  223.9537 H   0  0  0  0  0  0  0  0  0  0  0  0
  142.7076   81.9468  222.6437 H   0  0  0  0  0  0  0  0  0  0  0  0
  139.8715   81.4136  221.9037 H   0  0  0  0  0  0  0  0  0  0  0  0
  140.3802   83.1244  222.2618 H   0  0  0  0  0  0  0  0  0  0  0  0
  140.6816   82.9413  219.9922 H   0  0  0  0  0  0  0  0  0  0  0  0
  142.3384   82.6094  220.7199 H   0  0  0  0  0  0  0  0  0  0  0  0
  140.4191   80.7369  219.4241 H   0  0  0  0  0  0  0  0  0  0  0  0
  142.1827   81.1696  219.0458 H   0  0  0  0  0  0  0  0  0  0  0  0
  142.9656   80.0457  220.7182 H   0  0  0  0  0  0  0  0  0  0  0  0
  141.6708   77.9580  220.7143 H   0  0  0  0  0  0  0  0  0  0  0  0
  143.1931   79.1448  218.1300 H   0  0  0  0  0  0  0  0  0  0  0  0
  143.2866   77.5926  218.1359 H   0  0  0  0  0  0  0  0  0  0  0  0
  140.6140   79.3705  218.0475 H   0  0  0  0  0  0  0  0  0  0  0  0
  140.2537   77.8564  218.0390 H   0  0  0  0  0  0  0  0  0  0  0  0
  140.1150   72.5422  221.6014 H   0  0  0  0  0  0  0  0  0  0  0  0
  141.6478   70.8189  220.7130 H   0  0  0  0  0  0  0  0  0  0  0  0
  143.8419   70.2450  219.7969 H   0  0  0  0  0  0  0  0  0  0  0  0
  146.7171   73.3774  219.3235 H   0  0  0  0  0  0  0  0  0  0  0  0
  145.1356   75.0449  220.2138 H   0  0  0  0  0  0  0  0  0  0  0  0
  1  2  2  0
  2  3  1  0
  3  4  1  0
  4  5  1  0
  5  6  2  0
  5  7  1  0
  7  8  1  0
  8  9  1  0
  9 10  1  0
 10 11  1  0
 11 12  1  0
 12 13  1  0
 13 14  1  0
 14 15  1  0
 15 16  1  0
  2 17  1  0
 17 18  2  0
 18 19  1  0
 19 20  2  0
 20 21  1  0
 21 22  2  0
 22 23  1  0
 22 24  1  0
 24 25  2  0
 25 26  1  0
 26 27  2  0
 13  7  1  0
 16 14  1  0
 27 17  1  0
 26 20  1  0
  3 28  1  0
  4 29  1  0
  4 30  1  0
  8 31  1  0
  8 32  1  0
  9 33  1  0
  9 34  1  0
 10 35  1  0
 10 36  1  0
 11 37  1  0
 11 38  1  0
 12 39  1  0
 12 40  1  0
 13 41  1  1
 14 42  1  0
 15 43  1  0
 15 44  1  0
 16 45  1  0
 16 46  1  0
 18 47  1  0
 19 48  1  0
 21 49  1  0
 24 50  1  0
 25 51  1  0
M  END
>  <smiles>  (25) 
O=C(NCC(=O)N1CCCCCC1C1CC1)c1ccc2cc(F)ccc2n1

>  <score_type>  (25) 
oracle

>  <origin>  (25) 
autodockgpu

>  <m_score__min__energy>  (25) 
-6.0099999999999998

>  <m_primary>  (25) 
energy

>  <rmsd>  (25) 
6.6334135631586015

>  <m_score__min__rmsd>  (25) 
6.6334135631586015

>  <meeko>  (25) 
{"free_energy": -4.21, "intermolecular_energy": -7.49, "internal_energy": -1.87, "cluster_size": 4, "cluster_id": 8, "rank_in_cluster": 3}

>  <energy>  (25) 
-4.98

>  <cluster_rmsd>  (25) 
0.28

>  <cluster>  (25) 
2

$$$$

     RDKit          3D

 51 54  0  0  0  0  0  0  0  0999 V2000
  140.7640   72.4910  221.4880 O   0  0  0  0  0  0  0  0  0  0  0  0
  139.8300   72.4330  222.3280 C   0  0  0  0  0  0  0  0  0  0  0  0
  138.6590   73.2350  222.2460 N   0  0  0  0  0  0  0  0  0  0  0  0
  138.5260   74.1620  221.1550 C   0  0  0  0  0  0  0  0  0  0  0  0
  138.6740   75.5660  221.5820 C   0  0  0  0  0  0  0  0  0  0  0  0
  137.6890   76.1230  222.1560 O   0  0  0  0  0  0  0  0  0  0  0  0
  139.8910   76.2650  221.3530 N   0  0  0  0  0  0  0  0  0  0  0  0
  141.1160   75.5060  221.1970 C   0  0  0  0  0  0  0  0  0  0  0  0
  141.5350   75.5660  219.7650 C   0  0  0  0  0  0  0  0  0  0  0  0
  142.4160   76.7580  219.4590 C   0  0  0  0  0  0  0  0  0  0  0  0
  142.1050   77.9470  220.3280 C   0  0  0  0  0  0  0  0  0  0  0  0
  140.6820   78.3700  220.3320 C   0  0  0  0  0  0  0  0  0  0  0  0
  139.7780   77.7000  221.2970 C   0  0  2  0  0  0  0  0  0  0  0  0
  139.9340   78.2170  222.7090 C   0  0  0  0  0  0  0  0  0  0  0  0
  140.2270   79.6640  222.9420 C   0  0  0  0  0  0  0  0  0  0  0  0
  141.2550   78.6300  223.2520 C   0  0  0  0  0  0  0  0  0  0  0  0
  139.9150   71.5090  223.4560 C   0  0  0  0  0  0  0  0  0  0  0  0
  139.4760   70.1970  223.3020 C   0  0  0  0  0  0  0  0  0  0  0  0
  139.5330   69.2780  224.3360 C   0  0  0  0  0  0  0  0  0  0  0  0
  140.0400   69.6660  225.5670 C   0  0  0  0  0  0  0  0  0  0  0  0
  140.1170   68.7980  226.6140 C   0  0  0  0  0  0  0  0  0  0  0  0
  140.6310   69.2420  227.8140 C   0  0  0  0  0  0  0  0  0  0  0  0
  140.7440   68.4450  228.9120 F   0  0  0  0  0  0  0  0  0  0  0  0
  141.0490   70.5500  227.9080 C   0  0  0  0  0  0  0  0  0  0  0  0
  140.9800   71.4370  226.8640 C   0  0  0  0  0  0  0  0  0  0  0  0
  140.4620   70.9770  225.6670 C   0  0  0  0  0  0  0  0  0  0  0  0
  140.4000   71.8540  224.6570 N   0  0  0  0  0  0  0  0  0  0  0  0
  137.8770   73.1950  222.9390 H   0  0  0  0  0  0  0  0  0  0  0  0
  139.3001   73.9381  220.4062 H   0  0  0  0  0  0  0  0  0  0  0  0
  137.5140   74.0450  220.7401 H   0  0  0  0  0  0  0  0  0  0  0  0
  141.9033   75.9386  221.8318 H   0  0  0  0  0  0  0  0  0  0  0  0
  140.9508   74.4605  221.4966 H   0  0  0  0  0  0  0  0  0  0  0  0
  142.0902   74.6478  219.5229 H   0  0  0  0  0  0  0  0  0  0  0  0
  140.6230   75.6648  219.1579 H   0  0  0  0  0  0  0  0  0  0  0  0
  143.4657   76.4703  219.6184 H   0  0  0  0  0  0  0  0  0  0  0  0
  142.2291   77.0507  218.4153 H   0  0  0  0  0  0  0  0  0  0  0  0
  142.3891   77.6975  221.3610 H   0  0  0  0  0  0  0  0  0  0  0  0
  142.6736   78.7899  219.9082 H   0  0  0  0  0  0  0  0  0  0  0  0
  140.6580   79.4479  220.5499 H   0  0  0  0  0  0  0  0  0  0  0  0
  140.2992   78.0854  219.3408 H   0  0  0  0  0  0  0  0  0  0  0  0
  138.7864   77.9533  220.8937 H   0  0  0  0  0  0  0  0  0  0  0  0
  139.1611   77.5051  223.0342 H   0  0  0  0  0  0  0  0  0  0  0  0
  140.3681   80.3419  222.0873 H   0  0  0  0  0  0  0  0  0  0  0  0
  139.7440   80.4761  223.5051 H   0  0  0  0  0  0  0  0  0  0  0  0
  142.1562   78.5467  222.6268 H   0  0  0  0  0  0  0  0  0  0  0  0
  141.8460   78.3651  224.1411 H   0  0  0  0  0  0  0  0  0  0  0  0
  139.0715   69.8807  222.3292 H   0  0  0  0  0  0  0  0  0  0  0  0
  139.1788   68.2480  224.1822 H   0  0  0  0  0  0  0  0  0  0  0  0
  139.7743   67.7586  226.5038 H   0  0  0  0  0  0  0  0  0  0  0  0
  141.4582   70.9010  228.8668 H   0  0  0  0  0  0  0  0  0  0  0  0
  141.3240   72.4759  226.9747 H   0  0  0  0  0  0  0  0  0  0  0  0
  1  2  2  0
  2  3  1  0
  3  4  1  0
  4  5  1  0
  5  6  2  0
  5  7  1  0
  7  8  1  0
  8  9  1  0
  9 10  1  0
 10 11  1  0
 11 12  1  0
 12 13  1  0
 13 14  1  0
 14 15  1  0
 15 16  1  0
  2 17  1  0
 17 18  2  0
 18 19  1  0
 19 20  2  0
 20 21  1  0
 21 22  2  0
 22 23  1  0
 22 24  1  0
 24 25  2  0
 25 26  1  0
 26 27  2  0
 13  7  1  0
 16 14  1  0
 27 17  1  0
 26 20  1  0
  3 28  1  0
  4 29  1  0
  4 30  1  0
  8 31  1  0
  8 32  1  0
  9 33  1  0
  9 34  1  0
 10 35  1  0
 10 36  1  0
 11 37  1  0
 11 38  1  0
 12 39  1  0
 12 40  1  0
 13 41  1  6
 14 42  1  0
 15 43  1  0
 15 44  1  0
 16 45  1  0
 16 46  1  0
 18 47  1  0
 19 48  1  0
 21 49  1  0
 24 50  1  0
 25 51  1  0
M  END
>  <smiles>  (26) 
O=C(NCC(=O)N1CCCCCC1C1CC1)c1ccc2cc(F)ccc2n1

>  <score_type>  (26) 
oracle

>  <origin>  (26) 
autodockgpu

>  <m_score__min__energy>  (26) 
-6.0099999999999998

>  <m_primary>  (26) 
energy

>  <rmsd>  (26) 
1.9918097869287879

>  <m_score__min__rmsd>  (26) 
1.9918097869287879

>  <meeko>  (26) 
{"free_energy": -5.53, "intermolecular_energy": -8.82, "internal_energy": -1.39, "cluster_size": 22, "cluster_id": 2, "rank_in_cluster": 8}

>  <energy>  (26) 
-4.97

>  <cluster_rmsd>  (26) 
0.94

>  <cluster>  (26) 
2

$$$$

     RDKit          3D

 51 54  0  0  0  0  0  0  0  0999 V2000
  141.3790   72.3040  221.3670 O   0  0  0  0  0  0  0  0  0  0  0  0
  140.5710   72.6240  222.2750 C   0  0  0  0  0  0  0  0  0  0  0  0
  139.8760   73.8640  222.2970 N   0  0  0  0  0  0  0  0  0  0  0  0
  140.1000   74.8050  221.2340 C   0  0  0  0  0  0  0  0  0  0  0  0
  139.9730   76.2050  221.6800 C   0  0  0  0  0  0  0  0  0  0  0  0
  139.0540   76.4880  222.5070 O   0  0  0  0  0  0  0  0  0  0  0  0
  140.8610   77.2020  221.1890 N   0  0  0  0  0  0  0  0  0  0  0  0
  141.9240   76.8080  220.2850 C   0  0  0  0  0  0  0  0  0  0  0  0
  141.4380   76.9610  218.8820 C   0  0  0  0  0  0  0  0  0  0  0  0
  141.2600   78.4080  218.4760 C   0  0  0  0  0  0  0  0  0  0  0  0
  141.7190   79.3700  219.5380 C   0  0  0  0  0  0  0  0  0  0  0  0
  140.7460   79.6040  220.6310 C   0  0  0  0  0  0  0  0  0  0  0  0
  140.6060   78.5410  221.6540 C   0  0  2  0  0  0  0  0  0  0  0  0
  141.4800   78.7680  222.8660 C   0  0  0  0  0  0  0  0  0  0  0  0
  141.6090   80.1410  223.4410 C   0  0  0  0  0  0  0  0  0  0  0  0
  142.7740   79.4940  222.7750 C   0  0  0  0  0  0  0  0  0  0  0  0
  140.3080   71.7040  223.3790 C   0  0  0  0  0  0  0  0  0  0  0  0
  139.6090   70.5260  223.1370 C   0  0  0  0  0  0  0  0  0  0  0  0
  139.3310   69.6170  224.1450 C   0  0  0  0  0  0  0  0  0  0  0  0
  139.7560   69.8810  225.4380 C   0  0  0  0  0  0  0  0  0  0  0  0
  139.5070   69.0170  226.4620 C   0  0  0  0  0  0  0  0  0  0  0  0
  139.9560   69.3330  227.7270 C   0  0  0  0  0  0  0  0  0  0  0  0
  139.7510   68.5320  228.8070 F   0  0  0  0  0  0  0  0  0  0  0  0
  140.6410   70.5130  227.9070 C   0  0  0  0  0  0  0  0  0  0  0  0
  140.9020   71.3930  226.8880 C   0  0  0  0  0  0  0  0  0  0  0  0
  140.4450   71.0620  225.6240 C   0  0  0  0  0  0  0  0  0  0  0  0
  140.7060   71.9310  224.6390 N   0  0  0  0  0  0  0  0  0  0  0  0
  139.2030   74.1400  223.0480 H   0  0  0  0  0  0  0  0  0  0  0  0
  141.1142   74.6525  220.8364 H   0  0  0  0  0  0  0  0  0  0  0  0
  139.3325   74.6290  220.4659 H   0  0  0  0  0  0  0  0  0  0  0  0
  142.8030   77.4498  220.4447 H   0  0  0  0  0  0  0  0  0  0  0  0
  142.2076   75.7618  220.4722 H   0  0  0  0  0  0  0  0  0  0  0  0
  142.1677   76.4934  218.2046 H   0  0  0  0  0  0  0  0  0  0  0  0
  140.4526   76.4763  218.8188 H   0  0  0  0  0  0  0  0  0  0  0  0
  141.8418   78.5907  217.5605 H   0  0  0  0  0  0  0  0  0  0  0  0
  140.1851   78.5782  218.3158 H   0  0  0  0  0  0  0  0  0  0  0  0
  142.6432   78.9725  219.9827 H   0  0  0  0  0  0  0  0  0  0  0  0
  141.8586   80.3391  219.0367 H   0  0  0  0  0  0  0  0  0  0  0  0
  141.0478   80.5253  221.1507 H   0  0  0  0  0  0  0  0  0  0  0  0
  139.7662   79.6481  220.1329 H   0  0  0  0  0  0  0  0  0  0  0  0
  139.5412   78.6190  221.9188 H   0  0  0  0  0  0  0  0  0  0  0  0
  141.1820   77.7783  223.2425 H   0  0  0  0  0  0  0  0  0  0  0  0
  141.1009   80.9896  222.9596 H   0  0  0  0  0  0  0  0  0  0  0  0
  141.4274   80.5930  224.4273 H   0  0  0  0  0  0  0  0  0  0  0  0
  143.1274   79.8669  221.8023 H   0  0  0  0  0  0  0  0  0  0  0  0
  143.8108   79.2721  223.0678 H   0  0  0  0  0  0  0  0  0  0  0  0
  139.2665   70.3096  222.1143 H   0  0  0  0  0  0  0  0  0  0  0  0
  138.7775   68.6931  223.9212 H   0  0  0  0  0  0  0  0  0  0  0  0
  138.9563   68.0819  226.2823 H   0  0  0  0  0  0  0  0  0  0  0  0
  140.9966   70.7625  228.9176 H   0  0  0  0  0  0  0  0  0  0  0  0
  141.4540   72.3272  227.0685 H   0  0  0  0  0  0  0  0  0  0  0  0
  1  2  2  0
  2  3  1  0
  3  4  1  0
  4  5  1  0
  5  6  2  0
  5  7  1  0
  7  8  1  0
  8  9  1  0
  9 10  1  0
 10 11  1  0
 11 12  1  0
 12 13  1  0
 13 14  1  0
 14 15  1  0
 15 16  1  0
  2 17  1  0
 17 18  2  0
 18 19  1  0
 19 20  2  0
 20 21  1  0
 21 22  2  0
 22 23  1  0
 22 24  1  0
 24 25  2  0
 25 26  1  0
 26 27  2  0
 13  7  1  0
 16 14  1  0
 27 17  1  0
 26 20  1  0
  3 28  1  0
  4 29  1  0
  4 30  1  0
  8 31  1  0
  8 32  1  0
  9 33  1  0
  9 34  1  0
 10 35  1  0
 10 36  1  0
 11 37  1  0
 11 38  1  0
 12 39  1  0
 12 40  1  0
 13 41  1  1
 14 42  1  0
 15 43  1  0
 15 44  1  0
 16 45  1  0
 16 46  1  0
 18 47  1  0
 19 48  1  0
 21 49  1  0
 24 50  1  0
 25 51  1  0
M  END
>  <smiles>  (27) 
O=C(NCC(=O)N1CCCCCC1C1CC1)c1ccc2cc(F)ccc2n1

>  <score_type>  (27) 
oracle

>  <origin>  (27) 
autodockgpu

>  <m_score__min__energy>  (27) 
-6.0099999999999998

>  <m_primary>  (27) 
energy

>  <rmsd>  (27) 
2.403949497218478

>  <m_score__min__rmsd>  (27) 
2.403949497218478

>  <meeko>  (27) 
{"free_energy": -5.74, "intermolecular_energy": -9.02, "internal_energy": -1.61, "cluster_size": 22, "cluster_id": 2, "rank_in_cluster": 3}

>  <energy>  (27) 
-4.93

>  <cluster_rmsd>  (27) 
1.82

>  <cluster>  (27) 
2

$$$$

     RDKit          3D

 51 54  0  0  0  0  0  0  0  0999 V2000
  141.4450   71.6680  221.4870 O   0  0  0  0  0  0  0  0  0  0  0  0
  140.7700   72.6630  221.8560 C   0  0  0  0  0  0  0  0  0  0  0  0
  139.6730   72.5680  222.7560 N   0  0  0  0  0  0  0  0  0  0  0  0
  139.3100   71.2780  223.2750 C   0  0  0  0  0  0  0  0  0  0  0  0
  140.2370   70.8050  224.3200 C   0  0  0  0  0  0  0  0  0  0  0  0
  141.4370   71.2150  224.2850 O   0  0  0  0  0  0  0  0  0  0  0  0
  139.7860   69.9160  225.3340 N   0  0  0  0  0  0  0  0  0  0  0  0
  138.7530   68.9510  225.0110 C   0  0  0  0  0  0  0  0  0  0  0  0
  139.3670   67.5910  224.9670 C   0  0  0  0  0  0  0  0  0  0  0  0
  140.3060   67.3320  226.1250 C   0  0  0  0  0  0  0  0  0  0  0  0
  139.7380   67.7790  227.4440 C   0  0  0  0  0  0  0  0  0  0  0  0
  139.8630   69.2330  227.7060 C   0  0  0  0  0  0  0  0  0  0  0  0
  140.4230   70.0680  226.6170 C   0  0  2  0  0  0  0  0  0  0  0  0
  140.4230   71.5440  226.9450 C   0  0  0  0  0  0  0  0  0  0  0  0
  141.4940   72.1100  227.8190 C   0  0  0  0  0  0  0  0  0  0  0  0
  140.0870   72.0460  228.3030 C   0  0  0  0  0  0  0  0  0  0  0  0
  141.0970   73.9960  221.3580 C   0  0  0  0  0  0  0  0  0  0  0  0
  141.8270   74.1280  220.1800 C   0  0  0  0  0  0  0  0  0  0  0  0
  142.1660   75.3670  219.6620 C   0  0  0  0  0  0  0  0  0  0  0  0
  141.7720   76.5160  220.3280 C   0  0  0  0  0  0  0  0  0  0  0  0
  142.0820   77.7570  219.8560 C   0  0  0  0  0  0  0  0  0  0  0  0
  141.6620   78.8640  220.5630 C   0  0  0  0  0  0  0  0  0  0  0  0
  141.9270   80.1390  220.1670 F   0  0  0  0  0  0  0  0  0  0  0  0
  140.9440   78.6730  221.7220 C   0  0  0  0  0  0  0  0  0  0  0  0
  140.6230   77.4330  222.2100 C   0  0  0  0  0  0  0  0  0  0  0  0
  141.0510   76.3310  221.4900 C   0  0  0  0  0  0  0  0  0  0  0  0
  140.7310   75.1260  221.9800 N   0  0  0  0  0  0  0  0  0  0  0  0
  139.1050   73.3890  223.0680 H   0  0  0  0  0  0  0  0  0  0  0  0
  138.2992   71.3427  223.7040 H   0  0  0  0  0  0  0  0  0  0  0  0
  139.3527   70.5603  222.4425 H   0  0  0  0  0  0  0  0  0  0  0  0
  137.9674   68.9779  225.7804 H   0  0  0  0  0  0  0  0  0  0  0  0
  138.3056   69.1925  224.0355 H   0  0  0  0  0  0  0  0  0  0  0  0
  138.5623   66.8414  224.9930 H   0  0  0  0  0  0  0  0  0  0  0  0
  139.9577   67.5249  224.0414 H   0  0  0  0  0  0  0  0  0  0  0  0
  140.5105   66.2525  226.1776 H   0  0  0  0  0  0  0  0  0  0  0  0
  141.2235   67.9115  225.9448 H   0  0  0  0  0  0  0  0  0  0  0  0
  138.6699   67.5167  227.4648 H   0  0  0  0  0  0  0  0  0  0  0  0
  140.3213   67.2691  228.2248 H   0  0  0  0  0  0  0  0  0  0  0  0
  138.8577   69.6165  227.9345 H   0  0  0  0  0  0  0  0  0  0  0  0
  140.5885   69.3133  228.5289 H   0  0  0  0  0  0  0  0  0  0  0  0
  141.4506   69.6830  226.5406 H   0  0  0  0  0  0  0  0  0  0  0  0
  140.0364   71.7483  225.9356 H   0  0  0  0  0  0  0  0  0  0  0  0
  142.2567   71.4477  228.2544 H   0  0  0  0  0  0  0  0  0  0  0  0
  142.2463   72.9056  227.7136 H   0  0  0  0  0  0  0  0  0  0  0  0
  139.8113   71.3374  229.0979 H   0  0  0  0  0  0  0  0  0  0  0  0
  139.3703   72.7773  228.7049 H   0  0  0  0  0  0  0  0  0  0  0  0
  142.1441   73.2210  219.6445 H   0  0  0  0  0  0  0  0  0  0  0  0
  142.7438   75.4381  218.7287 H   0  0  0  0  0  0  0  0  0  0  0  0
  142.6579   77.8734  218.9261 H   0  0  0  0  0  0  0  0  0  0  0  0
  140.6118   79.5585  222.2837 H   0  0  0  0  0  0  0  0  0  0  0  0
  140.0464   77.3179  223.1397 H   0  0  0  0  0  0  0  0  0  0  0  0
  1  2  2  0
  2  3  1  0
  3  4  1  0
  4  5  1  0
  5  6  2  0
  5  7  1  0
  7  8  1  0
  8  9  1  0
  9 10  1  0
 10 11  1  0
 11 12  1  0
 12 13  1  0
 13 14  1  0
 14 15  1  0
 15 16  1  0
  2 17  1  0
 17 18  2  0
 18 19  1  0
 19 20  2  0
 20 21  1  0
 21 22  2  0
 22 23  1  0
 22 24  1  0
 24 25  2  0
 25 26  1  0
 26 27  2  0
 13  7  1  0
 16 14  1  0
 27 17  1  0
 26 20  1  0
  3 28  1  0
  4 29  1  0
  4 30  1  0
  8 31  1  0
  8 32  1  0
  9 33  1  0
  9 34  1  0
 10 35  1  0
 10 36  1  0
 11 37  1  0
 11 38  1  0
 12 39  1  0
 12 40  1  0
 13 41  1  6
 14 42  1  0
 15 43  1  0
 15 44  1  0
 16 45  1  0
 16 46  1  0
 18 47  1  0
 19 48  1  0
 21 49  1  0
 24 50  1  0
 25 51  1  0
M  END
>  <smiles>  (28) 
O=C(NCC(=O)N1CCCCCC1C1CC1)c1ccc2cc(F)ccc2n1

>  <score_type>  (28) 
oracle

>  <origin>  (28) 
autodockgpu

>  <m_score__min__energy>  (28) 
-6.0099999999999998

>  <m_primary>  (28) 
energy

>  <rmsd>  (28) 
8.853246506335125

>  <m_score__min__rmsd>  (28) 
8.853246506335125

>  <meeko>  (28) 
{"free_energy": -5.0, "intermolecular_energy": -8.29, "internal_energy": -1.44, "cluster_size": 8, "cluster_id": 1, "rank_in_cluster": 6}

>  <energy>  (28) 
-4.83

>  <cluster_rmsd>  (28) 
0.57

>  <cluster>  (28) 
2

$$$$

     RDKit          3D

 51 54  0  0  0  0  0  0  0  0999 V2000
  141.2980   73.5280  221.1100 O   0  0  0  0  0  0  0  0  0  0  0  0
  140.3990   73.6010  221.9860 C   0  0  0  0  0  0  0  0  0  0  0  0
  139.7700   74.8210  222.3560 N   0  0  0  0  0  0  0  0  0  0  0  0
  140.1750   76.0360  221.7050 C   0  0  0  0  0  0  0  0  0  0  0  0
  139.3920   77.2060  222.1470 C   0  0  0  0  0  0  0  0  0  0  0  0
  138.1310   77.0900  222.2150 O   0  0  0  0  0  0  0  0  0  0  0  0
  140.0440   78.4230  222.4870 N   0  0  0  0  0  0  0  0  0  0  0  0
  141.4350   78.3820  222.8940 C   0  0  0  0  0  0  0  0  0  0  0  0
  142.2000   79.3700  222.0760 C   0  0  0  0  0  0  0  0  0  0  0  0
  142.2390   80.7470  222.7010 C   0  0  0  0  0  0  0  0  0  0  0  0
  140.9290   81.4770  222.5780 C   0  0  0  0  0  0  0  0  0  0  0  0
  139.8940   80.7820  221.7720 C   0  0  0  0  0  0  0  0  0  0  0  0
  139.2310   79.6080  222.3890 C   0  0  2  0  0  0  0  0  0  0  0  0
  138.6890   79.8940  223.7700 C   0  0  0  0  0  0  0  0  0  0  0  0
  137.2330   80.1810  223.9510 C   0  0  0  0  0  0  0  0  0  0  0  0
  138.2430   81.2540  224.1710 C   0  0  0  0  0  0  0  0  0  0  0  0
  139.9520   72.3950  222.6790 C   0  0  0  0  0  0  0  0  0  0  0  0
  138.8530   71.6930  222.1930 C   0  0  0  0  0  0  0  0  0  0  0  0
  138.3850   70.5440  222.8090 C   0  0  0  0  0  0  0  0  0  0  0  0
  139.0230   70.0710  223.9460 C   0  0  0  0  0  0  0  0  0  0  0  0
  138.5990   68.9450  224.5870 C   0  0  0  0  0  0  0  0  0  0  0  0
  139.2750   68.5240  225.7120 C   0  0  0  0  0  0  0  0  0  0  0  0
  138.9210   67.4130  226.4150 F   0  0  0  0  0  0  0  0  0  0  0  0
  140.3540   69.2590  226.1470 C   0  0  0  0  0  0  0  0  0  0  0  0
  140.7940   70.3930  225.5150 C   0  0  0  0  0  0  0  0  0  0  0  0
  140.1060   70.8040  224.3860 C   0  0  0  0  0  0  0  0  0  0  0  0
  140.5470   71.9140  223.7800 N   0  0  0  0  0  0  0  0  0  0  0  0
  139.0220   74.8920  223.0840 H   0  0  0  0  0  0  0  0  0  0  0  0
  141.2366   76.2181  221.9282 H   0  0  0  0  0  0  0  0  0  0  0  0
  140.0027   75.9087  220.6261 H   0  0  0  0  0  0  0  0  0  0  0  0
  141.5170   78.6408  223.9600 H   0  0  0  0  0  0  0  0  0  0  0  0
  141.8419   77.3716  222.7404 H   0  0  0  0  0  0  0  0  0  0  0  0
  143.2321   79.0070  221.9619 H   0  0  0  0  0  0  0  0  0  0  0  0
  141.6889   79.4620  221.1063 H   0  0  0  0  0  0  0  0  0  0  0  0
  142.4849   80.6425  223.7680 H   0  0  0  0  0  0  0  0  0  0  0  0
  142.9987   81.3344  222.1645 H   0  0  0  0  0  0  0  0  0  0  0  0
  140.5272   81.6289  223.5907 H   0  0  0  0  0  0  0  0  0  0  0  0
  141.1500   82.4158  222.0490 H   0  0  0  0  0  0  0  0  0  0  0  0
  139.1111   81.5170  221.5337 H   0  0  0  0  0  0  0  0  0  0  0  0
  140.4344   80.3786  220.9030 H   0  0  0  0  0  0  0  0  0  0  0  0
  138.4135   79.4097  221.6803 H   0  0  0  0  0  0  0  0  0  0  0  0
  139.4093   79.1718  224.1818 H   0  0  0  0  0  0  0  0  0  0  0  0
  136.5670   80.2225  223.0765 H   0  0  0  0  0  0  0  0  0  0  0  0
  136.4203   79.7414  224.5478 H   0  0  0  0  0  0  0  0  0  0  0  0
  138.3206   82.0894  223.4596 H   0  0  0  0  0  0  0  0  0  0  0  0
  138.4824   81.9362  225.0000 H   0  0  0  0  0  0  0  0  0  0  0  0
  138.3404   72.0618  221.2923 H   0  0  0  0  0  0  0  0  0  0  0  0
  137.5142   70.0109  222.3997 H   0  0  0  0  0  0  0  0  0  0  0  0
  137.7316   68.3817  224.2125 H   0  0  0  0  0  0  0  0  0  0  0  0
  140.8897   68.9199  227.0459 H   0  0  0  0  0  0  0  0  0  0  0  0
  141.6614   70.9555  225.8908 H   0  0  0  0  0  0  0  0  0  0  0  0
  1  2  2  0
  2  3  1  0
  3  4  1  0
  4  5  1  0
  5  6  2  0
  5  7  1  0
  7  8  1  0
  8  9  1  0
  9 10  1  0
 10 11  1  0
 11 12  1  0
 12 13  1  0
 13 14  1  0
 14 15  1  0
 15 16  1  0
  2 17  1  0
 17 18  2  0
 18 19  1  0
 19 20  2  0
 20 21  1  0
 21 22  2  0
 22 23  1  0
 22 24  1  0
 24 25  2  0
 25 26  1  0
 26 27  2  0
 13  7  1  0
 16 14  1  0
 27 17  1  0
 26 20  1  0
  3 28  1  0
  4 29  1  0
  4 30  1  0
  8 31  1  0
  8 32  1  0
  9 33  1  0
  9 34  1  0
 10 35  1  0
 10 36  1  0
 11 37  1  0
 11 38  1  0
 12 39  1  0
 12 40  1  0
 13 41  1  6
 14 42  1  0
 15 43  1  0
 15 44  1  0
 16 45  1  0
 16 46  1  0
 18 47  1  0
 19 48  1  0
 21 49  1  0
 24 50  1  0
 25 51  1  0
M  END
>  <smiles>  (29) 
O=C(NCC(=O)N1CCCCCC1C1CC1)c1ccc2cc(F)ccc2n1

>  <score_type>  (29) 
oracle

>  <origin>  (29) 
autodockgpu

>  <m_score__min__energy>  (29) 
-6.0099999999999998

>  <m_primary>  (29) 
energy

>  <rmsd>  (29) 
3.9910970531097765

>  <m_score__min__rmsd>  (29) 
3.9910970531097765

>  <meeko>  (29) 
{"free_energy": -5.18, "intermolecular_energy": -8.46, "internal_energy": -1.35, "cluster_size": 22, "cluster_id": 2, "rank_in_cluster": 15}

>  <energy>  (29) 
-4.67

>  <cluster_rmsd>  (29) 
0.97

>  <cluster>  (29) 
2

$$$$

     RDKit          3D

 51 54  0  0  0  0  0  0  0  0999 V2000
  138.0920   71.6070  222.3260 O   0  0  0  0  0  0  0  0  0  0  0  0
  139.3210   71.4920  222.5680 C   0  0  0  0  0  0  0  0  0  0  0  0
  140.3340   71.8140  221.6240 N   0  0  0  0  0  0  0  0  0  0  0  0
  139.9460   72.2960  220.3260 C   0  0  0  0  0  0  0  0  0  0  0  0
  141.0860   72.4010  219.3950 C   0  0  0  0  0  0  0  0  0  0  0  0
  140.8720   72.1920  218.1630 O   0  0  0  0  0  0  0  0  0  0  0  0
  142.3830   72.7280  219.8780 N   0  0  0  0  0  0  0  0  0  0  0  0
  143.2020   71.6780  220.4510 C   0  0  0  0  0  0  0  0  0  0  0  0
  144.5200   71.6650  219.7490 C   0  0  0  0  0  0  0  0  0  0  0  0
  145.5370   72.5830  220.3910 C   0  0  0  0  0  0  0  0  0  0  0  0
  145.2660   74.0360  220.1080 C   0  0  0  0  0  0  0  0  0  0  0  0
  143.9360   74.5280  220.5450 C   0  0  0  0  0  0  0  0  0  0  0  0
  142.7620   74.1110  219.7420 C   0  0  2  0  0  0  0  0  0  0  0  0
  141.5300   74.9420  220.0210 C   0  0  0  0  0  0  0  0  0  0  0  0
  141.6770   76.3660  220.4470 C   0  0  0  0  0  0  0  0  0  0  0  0
  141.1540   75.3480  221.4000 C   0  0  0  0  0  0  0  0  0  0  0  0
  139.7690   71.0060  223.8710 C   0  0  0  0  0  0  0  0  0  0  0  0
  140.5740   71.8170  224.6650 C   0  0  0  0  0  0  0  0  0  0  0  0
  141.0280   71.4080  225.9080 C   0  0  0  0  0  0  0  0  0  0  0  0
  140.6750   70.1560  226.3850 C   0  0  0  0  0  0  0  0  0  0  0  0
  141.0970   69.7100  227.6020 C   0  0  0  0  0  0  0  0  0  0  0  0
  140.7140   68.4540  228.0230 C   0  0  0  0  0  0  0  0  0  0  0  0
  141.0880   67.9280  229.2210 F   0  0  0  0  0  0  0  0  0  0  0  0
  139.9170   67.6970  227.1950 C   0  0  0  0  0  0  0  0  0  0  0  0
  139.4830   68.1290  225.9690 C   0  0  0  0  0  0  0  0  0  0  0  0
  139.8760   69.3920  225.5600 C   0  0  0  0  0  0  0  0  0  0  0  0
  139.4450   69.8000  224.3590 N   0  0  0  0  0  0  0  0  0  0  0  0
  141.3580   71.7220  221.8150 H   0  0  0  0  0  0  0  0  0  0  0  0
  139.2058   71.6029  219.8997 H   0  0  0  0  0  0  0  0  0  0  0  0
  139.5289   73.3054  220.4567 H   0  0  0  0  0  0  0  0  0  0  0  0
  143.3551   71.8708  221.5231 H   0  0  0  0  0  0  0  0  0  0  0  0
  142.7031   70.7049  220.3316 H   0  0  0  0  0  0  0  0  0  0  0  0
  144.9152   70.6386  219.7630 H   0  0  0  0  0  0  0  0  0  0  0  0
  144.3516   72.0243  218.7231 H   0  0  0  0  0  0  0  0  0  0  0  0
  145.5153   72.4262  221.4796 H   0  0  0  0  0  0  0  0  0  0  0  0
  146.5214   72.3389  219.9652 H   0  0  0  0  0  0  0  0  0  0  0  0
  146.0348   74.6318  220.6218 H   0  0  0  0  0  0  0  0  0  0  0  0
  145.2860   74.1424  219.0133 H   0  0  0  0  0  0  0  0  0  0  0  0
  143.7748   74.1757  221.5745 H   0  0  0  0  0  0  0  0  0  0  0  0
  143.9856   75.6207  220.4283 H   0  0  0  0  0  0  0  0  0  0  0  0
  143.1199   74.2728  218.7145 H   0  0  0  0  0  0  0  0  0  0  0  0
  141.0103   74.4090  219.2111 H   0  0  0  0  0  0  0  0  0  0  0  0
  142.6786   76.7958  220.5953 H   0  0  0  0  0  0  0  0  0  0  0  0
  141.3189   77.3341  220.0668 H   0  0  0  0  0  0  0  0  0  0  0  0
  141.7691   75.0277  222.2538 H   0  0  0  0  0  0  0  0  0  0  0  0
  140.2479   75.2552  222.0167 H   0  0  0  0  0  0  0  0  0  0  0  0
  140.8584   72.8129  224.2944 H   0  0  0  0  0  0  0  0  0  0  0  0
  141.6639   72.0721  226.5118 H   0  0  0  0  0  0  0  0  0  0  0  0
  141.7333   70.3424  228.2385 H   0  0  0  0  0  0  0  0  0  0  0  0
  139.6133   66.6956  227.5340 H   0  0  0  0  0  0  0  0  0  0  0  0
  138.8462   67.4959  225.3336 H   0  0  0  0  0  0  0  0  0  0  0  0
  1  2  2  0
  2  3  1  0
  3  4  1  0
  4  5  1  0
  5  6  2  0
  5  7  1  0
  7  8  1  0
  8  9  1  0
  9 10  1  0
 10 11  1  0
 11 12  1  0
 12 13  1  0
 13 14  1  0
 14 15  1  0
 15 16  1  0
  2 17  1  0
 17 18  2  0
 18 19  1  0
 19 20  2  0
 20 21  1  0
 21 22  2  0
 22 23  1  0
 22 24  1  0
 24 25  2  0
 25 26  1  0
 26 27  2  0
 13  7  1  0
 16 14  1  0
 27 17  1  0
 26 20  1  0
  3 28  1  0
  4 29  1  0
  4 30  1  0
  8 31  1  0
  8 32  1  0
  9 33  1  0
  9 34  1  0
 10 35  1  0
 10 36  1  0
 11 37  1  0
 11 38  1  0
 12 39  1  0
 12 40  1  0
 13 41  1  6
 14 42  1  0
 15 43  1  0
 15 44  1  0
 16 45  1  0
 16 46  1  0
 18 47  1  0
 19 48  1  0
 21 49  1  0
 24 50  1  0
 25 51  1  0
M  END
>  <smiles>  (30) 
O=C(NCC(=O)N1CCCCCC1C1CC1)c1ccc2cc(F)ccc2n1

>  <score_type>  (30) 
oracle

>  <origin>  (30) 
autodockgpu

>  <m_score__min__energy>  (30) 
-6.0099999999999998

>  <m_primary>  (30) 
energy

>  <rmsd>  (30) 
3.9673861525074043

>  <m_score__min__rmsd>  (30) 
3.9673861525074043

>  <meeko>  (30) 
{"free_energy": -4.71, "intermolecular_energy": -7.99, "internal_energy": -1.38, "cluster_size": 8, "cluster_id": 3, "rank_in_cluster": 3}

>  <energy>  (30) 
-4.66

>  <cluster_rmsd>  (30) 
1.06

>  <cluster>  (30) 
2

$$$$

     RDKit          3D

 51 54  0  0  0  0  0  0  0  0999 V2000
  140.9270   71.9310  221.2220 O   0  0  0  0  0  0  0  0  0  0  0  0
  140.3310   72.3720  222.2380 C   0  0  0  0  0  0  0  0  0  0  0  0
  139.8070   73.6910  222.3230 N   0  0  0  0  0  0  0  0  0  0  0  0
  139.9620   74.5730  221.1980 C   0  0  0  0  0  0  0  0  0  0  0  0
  141.2710   75.2540  221.1870 C   0  0  0  0  0  0  0  0  0  0  0  0
  142.3070   74.5530  220.9760 O   0  0  0  0  0  0  0  0  0  0  0  0
  141.3560   76.6560  221.4050 N   0  0  0  0  0  0  0  0  0  0  0  0
  140.8710   77.2000  222.6590 C   0  0  0  0  0  0  0  0  0  0  0  0
  139.7000   78.0810  222.3760 C   0  0  0  0  0  0  0  0  0  0  0  0
  140.0910   79.5260  222.1530 C   0  0  0  0  0  0  0  0  0  0  0  0
  141.2980   79.6710  221.2680 C   0  0  0  0  0  0  0  0  0  0  0  0
  141.3400   78.7570  220.1060 C   0  0  0  0  0  0  0  0  0  0  0  0
  141.9330   77.4160  220.3260 C   0  0  2  0  0  0  0  0  0  0  0  0
  141.8940   76.5430  219.0930 C   0  0  0  0  0  0  0  0  0  0  0  0
  143.1710   76.0720  218.4760 C   0  0  0  0  0  0  0  0  0  0  0  0
  142.3070   77.0510  217.7590 C   0  0  0  0  0  0  0  0  0  0  0  0
  140.1470   71.5170  223.4080 C   0  0  0  0  0  0  0  0  0  0  0  0
  139.4990   70.2940  223.2690 C   0  0  0  0  0  0  0  0  0  0  0  0
  139.2970   69.4430  224.3430 C   0  0  0  0  0  0  0  0  0  0  0  0
  139.7510   69.8120  225.5990 C   0  0  0  0  0  0  0  0  0  0  0  0
  139.5760   69.0080  226.6860 C   0  0  0  0  0  0  0  0  0  0  0  0
  140.0500   69.4280  227.9110 C   0  0  0  0  0  0  0  0  0  0  0  0
  139.9190   68.6920  229.0480 F   0  0  0  0  0  0  0  0  0  0  0  0
  140.6830   70.6480  227.9890 C   0  0  0  0  0  0  0  0  0  0  0  0
  140.8680   71.4690  226.9060 C   0  0  0  0  0  0  0  0  0  0  0  0
  140.3870   71.0330  225.6840 C   0  0  0  0  0  0  0  0  0  0  0  0
  140.5740   71.8460  224.6360 N   0  0  0  0  0  0  0  0  0  0  0  0
  139.3110   74.0670  223.1630 H   0  0  0  0  0  0  0  0  0  0  0  0
  139.8628   73.9854  220.2734 H   0  0  0  0  0  0  0  0  0  0  0  0
  139.1842   75.3473  221.2721 H   0  0  0  0  0  0  0  0  0  0  0  0
  140.5649   76.3797  223.3249 H   0  0  0  0  0  0  0  0  0  0  0  0
  141.6669   77.7797  223.1494 H   0  0  0  0  0  0  0  0  0  0  0  0
  139.1926   77.7112  221.4728 H   0  0  0  0  0  0  0  0  0  0  0  0
  139.0421   78.0490  223.2570 H   0  0  0  0  0  0  0  0  0  0  0  0
  139.2457   80.0509  221.6840 H   0  0  0  0  0  0  0  0  0  0  0  0
  140.3442   79.9566  223.1331 H   0  0  0  0  0  0  0  0  0  0  0  0
  141.3206   80.7037  220.8897 H   0  0  0  0  0  0  0  0  0  0  0  0
  142.1666   79.4124  221.8914 H   0  0  0  0  0  0  0  0  0  0  0  0
  140.3056   78.6101  219.7617 H   0  0  0  0  0  0  0  0  0  0  0  0
  142.0048   79.2479  219.3801 H   0  0  0  0  0  0  0  0  0  0  0  0
  142.9692   77.6679  220.5958 H   0  0  0  0  0  0  0  0  0  0  0  0
  140.9820   76.0671  219.4825 H   0  0  0  0  0  0  0  0  0  0  0  0
  144.1362   76.3927  218.8950 H   0  0  0  0  0  0  0  0  0  0  0  0
  143.6037   75.0902  218.2333 H   0  0  0  0  0  0  0  0  0  0  0  0
  142.6360   78.0946  217.6465 H   0  0  0  0  0  0  0  0  0  0  0  0
  141.8387   77.0902  216.7644 H   0  0  0  0  0  0  0  0  0  0  0  0
  139.1357   69.9934  222.2752 H   0  0  0  0  0  0  0  0  0  0  0  0
  138.7805   68.4824  224.2000 H   0  0  0  0  0  0  0  0  0  0  0  0
  139.0646   68.0391  226.5874 H   0  0  0  0  0  0  0  0  0  0  0  0
  141.0588   70.9807  228.9678 H   0  0  0  0  0  0  0  0  0  0  0  0
  141.3796   72.4377  227.0051 H   0  0  0  0  0  0  0  0  0  0  0  0
  1  2  2  0
  2  3  1  0
  3  4  1  0
  4  5  1  0
  5  6  2  0
  5  7  1  0
  7  8  1  0
  8  9  1  0
  9 10  1  0
 10 11  1  0
 11 12  1  0
 12 13  1  0
 13 14  1  0
 14 15  1  0
 15 16  1  0
  2 17  1  0
 17 18  2  0
 18 19  1  0
 19 20  2  0
 20 21  1  0
 21 22  2  0
 22 23  1  0
 22 24  1  0
 24 25  2  0
 25 26  1  0
 26 27  2  0
 13  7  1  0
 16 14  1  0
 27 17  1  0
 26 20  1  0
  3 28  1  0
  4 29  1  0
  4 30  1  0
  8 31  1  0
  8 32  1  0
  9 33  1  0
  9 34  1  0
 10 35  1  0
 10 36  1  0
 11 37  1  0
 11 38  1  0
 12 39  1  0
 12 40  1  0
 13 41  1  1
 14 42  1  0
 15 43  1  0
 15 44  1  0
 16 45  1  0
 16 46  1  0
 18 47  1  0
 19 48  1  0
 21 49  1  0
 24 50  1  0
 25 51  1  0
M  END
>  <smiles>  (31) 
O=C(NCC(=O)N1CCCCCC1C1CC1)c1ccc2cc(F)ccc2n1

>  <score_type>  (31) 
oracle

>  <origin>  (31) 
autodockgpu

>  <m_score__min__energy>  (31) 
-6.0099999999999998

>  <m_primary>  (31) 
energy

>  <rmsd>  (31) 
2.67306788559417

>  <m_score__min__rmsd>  (31) 
2.67306788559417

>  <meeko>  (31) 
{"free_energy": -4.97, "intermolecular_energy": -8.26, "internal_energy": -1.21, "cluster_size": 22, "cluster_id": 2, "rank_in_cluster": 18}

>  <energy>  (31) 
-5.45

>  <cluster_rmsd>  (31) 
0.0

>  <cluster>  (31) 
3

$$$$

     RDKit          3D

 51 54  0  0  0  0  0  0  0  0999 V2000
  139.5790   73.0040  222.6580 O   0  0  0  0  0  0  0  0  0  0  0  0
  139.7590   71.7610  222.7220 C   0  0  0  0  0  0  0  0  0  0  0  0
  139.6490   70.8990  221.5960 N   0  0  0  0  0  0  0  0  0  0  0  0
  139.3160   71.4660  220.3180 C   0  0  0  0  0  0  0  0  0  0  0  0
  140.5060   71.9020  219.5630 C   0  0  0  0  0  0  0  0  0  0  0  0
  140.4100   72.0030  218.3020 O   0  0  0  0  0  0  0  0  0  0  0  0
  141.7210   72.1990  220.2390 N   0  0  0  0  0  0  0  0  0  0  0  0
  141.9060   73.5250  220.7950 C   0  0  0  0  0  0  0  0  0  0  0  0
  142.9230   74.2480  219.9750 C   0  0  0  0  0  0  0  0  0  0  0  0
  144.3390   74.0200  220.4580 C   0  0  0  0  0  0  0  0  0  0  0  0
  144.5320   72.6580  221.0660 C   0  0  0  0  0  0  0  0  0  0  0  0
  144.0950   71.5200  220.2180 C   0  0  0  0  0  0  0  0  0  0  0  0
  142.6710   71.1190  220.3070 C   0  0  2  0  0  0  0  0  0  0  0  0
  142.2750   70.1080  219.2550 C   0  0  0  0  0  0  0  0  0  0  0  0
  141.7850   68.7580  219.6690 C   0  0  0  0  0  0  0  0  0  0  0  0
  143.0970   68.9010  218.9770 C   0  0  0  0  0  0  0  0  0  0  0  0
  140.0990   71.1340  223.9970 C   0  0  0  0  0  0  0  0  0  0  0  0
  140.7000   71.8950  224.9960 C   0  0  0  0  0  0  0  0  0  0  0  0
  141.0440   71.3540  226.2230 C   0  0  0  0  0  0  0  0  0  0  0  0
  140.7880   70.0150  226.4750 C   0  0  0  0  0  0  0  0  0  0  0  0
  141.1080   69.4390  227.6680 C   0  0  0  0  0  0  0  0  0  0  0  0
  140.8280   68.1020  227.8600 C   0  0  0  0  0  0  0  0  0  0  0  0
  141.1140   67.4450  229.0170 F   0  0  0  0  0  0  0  0  0  0  0  0
  140.2340   67.4000  226.8360 C   0  0  0  0  0  0  0  0  0  0  0  0
  139.9040   67.9640  225.6310 C   0  0  0  0  0  0  0  0  0  0  0  0
  140.1910   69.3060  225.4530 C   0  0  0  0  0  0  0  0  0  0  0  0
  139.8640   69.8430  224.2700 N   0  0  0  0  0  0  0  0  0  0  0  0
  139.7970   69.8650  221.6390 H   0  0  0  0  0  0  0  0  0  0  0  0
  138.7808   70.7093  219.7256 H   0  0  0  0  0  0  0  0  0  0  0  0
  138.6931   72.3542  220.4999 H   0  0  0  0  0  0  0  0  0  0  0  0
  140.9527   74.0733  220.7708 H   0  0  0  0  0  0  0  0  0  0  0  0
  142.2480   73.4507  221.8378 H   0  0  0  0  0  0  0  0  0  0  0  0
  142.8468   73.8999  218.9343 H   0  0  0  0  0  0  0  0  0  0  0  0
  142.7135   75.3243  220.0629 H   0  0  0  0  0  0  0  0  0  0  0  0
  145.0235   74.1242  219.6033 H   0  0  0  0  0  0  0  0  0  0  0  0
  144.5479   74.7656  221.2393 H   0  0  0  0  0  0  0  0  0  0  0  0
  145.6030   72.5302  221.2817 H   0  0  0  0  0  0  0  0  0  0  0  0
  143.8970   72.6315  221.9638 H   0  0  0  0  0  0  0  0  0  0  0  0
  144.2984   71.7897  219.1712 H   0  0  0  0  0  0  0  0  0  0  0  0
  144.6586   70.6530  220.5931 H   0  0  0  0  0  0  0  0  0  0  0  0
  142.6219   70.6780  221.3136 H   0  0  0  0  0  0  0  0  0  0  0  0
  141.8913   70.9324  218.6360 H   0  0  0  0  0  0  0  0  0  0  0  0
  141.7511   68.4874  220.7347 H   0  0  0  0  0  0  0  0  0  0  0  0
  140.8704   68.1729  219.4923 H   0  0  0  0  0  0  0  0  0  0  0  0
  144.0318   68.7334  219.5320 H   0  0  0  0  0  0  0  0  0  0  0  0
  143.5515   68.4620  218.0766 H   0  0  0  0  0  0  0  0  0  0  0  0
  140.9078   72.9581  224.8046 H   0  0  0  0  0  0  0  0  0  0  0  0
  141.5170   71.9820  226.9924 H   0  0  0  0  0  0  0  0  0  0  0  0
  141.5820   70.0308  228.4650 H   0  0  0  0  0  0  0  0  0  0  0  0
  140.0132   66.3338  226.9923 H   0  0  0  0  0  0  0  0  0  0  0  0
  139.4287   67.3718  224.8351 H   0  0  0  0  0  0  0  0  0  0  0  0
  1  2  2  0
  2  3  1  0
  3  4  1  0
  4  5  1  0
  5  6  2  0
  5  7  1  0
  7  8  1  0
  8  9  1  0
  9 10  1  0
 10 11  1  0
 11 12  1  0
 12 13  1  0
 13 14  1  0
 14 15  1  0
 15 16  1  0
  2 17  1  0
 17 18  2  0
 18 19  1  0
 19 20  2  0
 20 21  1  0
 21 22  2  0
 22 23  1  0
 22 24  1  0
 24 25  2  0
 25 26  1  0
 26 27  2  0
 13  7  1  0
 16 14  1  0
 27 17  1  0
 26 20  1  0
  3 28  1  0
  4 29  1  0
  4 30  1  0
  8 31  1  0
  8 32  1  0
  9 33  1  0
  9 34  1  0
 10 35  1  0
 10 36  1  0
 11 37  1  0
 11 38  1  0
 12 39  1  0
 12 40  1  0
 13 41  1  1
 14 42  1  0
 15 43  1  0
 15 44  1  0
 16 45  1  0
 16 46  1  0
 18 47  1  0
 19 48  1  0
 21 49  1  0
 24 50  1  0
 25 51  1  0
M  END
>  <smiles>  (32) 
O=C(NCC(=O)N1CCCCCC1C1CC1)c1ccc2cc(F)ccc2n1

>  <score_type>  (32) 
oracle

>  <origin>  (32) 
autodockgpu

>  <m_score__min__energy>  (32) 
-6.0099999999999998

>  <m_primary>  (32) 
energy

>  <rmsd>  (32) 
4.2313801516208045

>  <m_score__min__rmsd>  (32) 
4.2313801516208045

>  <meeko>  (32) 
{"free_energy": -4.32, "intermolecular_energy": -7.6, "internal_energy": -1.91, "cluster_size": 8, "cluster_id": 3, "rank_in_cluster": 7}

>  <energy>  (32) 
-4.88

>  <cluster_rmsd>  (32) 
1.76

>  <cluster>  (32) 
3

$$$$

     RDKit          3D

 51 54  0  0  0  0  0  0  0  0999 V2000
  141.8370   71.8730  221.1210 O   0  0  0  0  0  0  0  0  0  0  0  0
  141.1350   72.7540  221.6800 C   0  0  0  0  0  0  0  0  0  0  0  0
  140.1660   72.4610  222.6770 N   0  0  0  0  0  0  0  0  0  0  0  0
  139.9690   71.0930  223.0730 C   0  0  0  0  0  0  0  0  0  0  0  0
  139.0570   70.9620  224.2250 C   0  0  0  0  0  0  0  0  0  0  0  0
  137.9200   71.5190  224.1550 O   0  0  0  0  0  0  0  0  0  0  0  0
  139.4530   70.2270  225.3770 N   0  0  0  0  0  0  0  0  0  0  0  0
  138.6020   69.1510  225.8470 C   0  0  0  0  0  0  0  0  0  0  0  0
  139.1750   67.8520  225.3840 C   0  0  0  0  0  0  0  0  0  0  0  0
  140.3200   67.3730  226.2500 C   0  0  0  0  0  0  0  0  0  0  0  0
  141.5350   68.2540  226.1450 C   0  0  0  0  0  0  0  0  0  0  0  0
  141.3950   69.5960  226.7650 C   0  0  0  0  0  0  0  0  0  0  0  0
  140.6970   70.6380  225.9750 C   0  0  2  0  0  0  0  0  0  0  0  0
  140.4180   71.8930  226.7700 C   0  0  0  0  0  0  0  0  0  0  0  0
  141.5280   72.5630  227.5130 C   0  0  0  0  0  0  0  0  0  0  0  0
  140.4210   71.8980  228.2560 C   0  0  0  0  0  0  0  0  0  0  0  0
  141.2960   74.1590  221.3130 C   0  0  0  0  0  0  0  0  0  0  0  0
  142.1450   74.5020  220.2660 C   0  0  0  0  0  0  0  0  0  0  0  0
  142.3350   75.8170  219.8750 C   0  0  0  0  0  0  0  0  0  0  0  0
  141.6650   76.8310  220.5420 C   0  0  0  0  0  0  0  0  0  0  0  0
  141.8200   78.1390  220.1940 C   0  0  0  0  0  0  0  0  0  0  0  0
  141.1260   79.1030  220.8940 C   0  0  0  0  0  0  0  0  0  0  0  0
  141.2210   80.4320  220.6160 F   0  0  0  0  0  0  0  0  0  0  0  0
  140.3010   78.7060  221.9210 C   0  0  0  0  0  0  0  0  0  0  0  0
  140.1320   77.3940  222.2840 C   0  0  0  0  0  0  0  0  0  0  0  0
  140.8350   76.4380  221.5720 C   0  0  0  0  0  0  0  0  0  0  0  0
  140.6620   75.1610  221.9390 N   0  0  0  0  0  0  0  0  0  0  0  0
  139.5770   73.1860  223.1470 H   0  0  0  0  0  0  0  0  0  0  0  0
  139.5453   70.5377  222.2232 H   0  0  0  0  0  0  0  0  0  0  0  0
  140.9468   70.6891  223.3743 H   0  0  0  0  0  0  0  0  0  0  0  0
  138.5589   69.1660  226.9461 H   0  0  0  0  0  0  0  0  0  0  0  0
  137.5845   69.2758  225.4482 H   0  0  0  0  0  0  0  0  0  0  0  0
  138.3802   67.0917  225.4005 H   0  0  0  0  0  0  0  0  0  0  0  0
  139.5704   68.0078  224.3694 H   0  0  0  0  0  0  0  0  0  0  0  0
  139.9861   67.3574  227.2980 H   0  0  0  0  0  0  0  0  0  0  0  0
  140.6052   66.3702  225.8991 H   0  0  0  0  0  0  0  0  0  0  0  0
  142.3736   67.7379  226.6352 H   0  0  0  0  0  0  0  0  0  0  0  0
  141.6956   68.4279  225.0708 H   0  0  0  0  0  0  0  0  0  0  0  0
  140.8417   69.4691  227.7072 H   0  0  0  0  0  0  0  0  0  0  0  0
  142.4250   69.9662  226.8750 H   0  0  0  0  0  0  0  0  0  0  0  0
  141.4196   70.8359  225.1696 H   0  0  0  0  0  0  0  0  0  0  0  0
  139.6860   72.1911  226.0050 H   0  0  0  0  0  0  0  0  0  0  0  0
  142.5354   72.1212  227.5141 H   0  0  0  0  0  0  0  0  0  0  0  0
  141.9708   73.5700  227.5111 H   0  0  0  0  0  0  0  0  0  0  0  0
  140.6122   70.9659  228.8080 H   0  0  0  0  0  0  0  0  0  0  0  0
  139.7084   72.2130  229.0325 H   0  0  0  0  0  0  0  0  0  0  0  0
  142.6821   73.7042  219.7321 H   0  0  0  0  0  0  0  0  0  0  0  0
  143.0123   76.0550  219.0416 H   0  0  0  0  0  0  0  0  0  0  0  0
  142.4885   78.4216  219.3674 H   0  0  0  0  0  0  0  0  0  0  0  0
  139.7502   79.4782  222.4781 H   0  0  0  0  0  0  0  0  0  0  0  0
  139.4627   77.1123  223.1102 H   0  0  0  0  0  0  0  0  0  0  0  0
  1  2  2  0
  2  3  1  0
  3  4  1  0
  4  5  1  0
  5  6  2  0
  5  7  1  0
  7  8  1  0
  8  9  1  0
  9 10  1  0
 10 11  1  0
 11 12  1  0
 12 13  1  0
 13 14  1  0
 14 15  1  0
 15 16  1  0
  2 17  1  0
 17 18  2  0
 18 19  1  0
 19 20  2  0
 20 21  1  0
 21 22  2  0
 22 23  1  0
 22 24  1  0
 24 25  2  0
 25 26  1  0
 26 27  2  0
 13  7  1  0
 16 14  1  0
 27 17  1  0
 26 20  1  0
  3 28  1  0
  4 29  1  0
  4 30  1  0
  8 31  1  0
  8 32  1  0
  9 33  1  0
  9 34  1  0
 10 35  1  0
 10 36  1  0
 11 37  1  0
 11 38  1  0
 12 39  1  0
 12 40  1  0
 13 41  1  6
 14 42  1  0
 15 43  1  0
 15 44  1  0
 16 45  1  0
 16 46  1  0
 18 47  1  0
 19 48  1  0
 21 49  1  0
 24 50  1  0
 25 51  1  0
M  END
>  <smiles>  (33) 
O=C(NCC(=O)N1CCCCCC1C1CC1)c1ccc2cc(F)ccc2n1

>  <score_type>  (33) 
oracle

>  <origin>  (33) 
autodockgpu

>  <m_score__min__energy>  (33) 
-6.0099999999999998

>  <m_primary>  (33) 
energy

>  <rmsd>  (33) 
8.81110701580366

>  <m_score__min__rmsd>  (33) 
8.81110701580366

>  <meeko>  (33) 
{"free_energy": -5.84, "intermolecular_energy": -9.12, "internal_energy": -1.76, "cluster_size": 8, "cluster_id": 1, "rank_in_cluster": 2}

>  <energy>  (33) 
-4.71

>  <cluster_rmsd>  (33) 
1.59

>  <cluster>  (33) 
3

$$$$

     RDKit          3D

 51 54  0  0  0  0  0  0  0  0999 V2000
  139.1530   70.9840  221.3810 O   0  0  0  0  0  0  0  0  0  0  0  0
  139.4660   71.5160  222.4770 C   0  0  0  0  0  0  0  0  0  0  0  0
  139.6750   72.9140  222.6320 N   0  0  0  0  0  0  0  0  0  0  0  0
  139.5250   73.7700  221.4870 C   0  0  0  0  0  0  0  0  0  0  0  0
  140.3940   73.3710  220.3640 C   0  0  0  0  0  0  0  0  0  0  0  0
  139.8430   73.0290  219.2740 O   0  0  0  0  0  0  0  0  0  0  0  0
  141.8090   73.3760  220.5090 N   0  0  0  0  0  0  0  0  0  0  0  0
  142.4850   74.6390  220.7360 C   0  0  0  0  0  0  0  0  0  0  0  0
  143.6650   74.7190  219.8250 C   0  0  0  0  0  0  0  0  0  0  0  0
  144.9180   74.1260  220.4310 C   0  0  0  0  0  0  0  0  0  0  0  0
  144.9180   72.6210  220.4090 C   0  0  0  0  0  0  0  0  0  0  0  0
  143.7630   71.9810  221.0840 C   0  0  0  0  0  0  0  0  0  0  0  0
  142.4440   72.0870  220.4160 C   0  0  2  0  0  0  0  0  0  0  0  0
  142.4940   71.7180  218.9510 C   0  0  0  0  0  0  0  0  0  0  0  0
  141.6750   70.5740  218.4460 C   0  0  0  0  0  0  0  0  0  0  0  0
  143.1620   70.4780  218.4760 C   0  0  0  0  0  0  0  0  0  0  0  0
  139.6300   70.6910  223.6710 C   0  0  0  0  0  0  0  0  0  0  0  0
  139.1960   69.3690  223.6560 C   0  0  0  0  0  0  0  0  0  0  0  0
  139.3270   68.5410  224.7590 C   0  0  0  0  0  0  0  0  0  0  0  0
  139.9060   69.0340  225.9180 C   0  0  0  0  0  0  0  0  0  0  0  0
  140.0560   68.2580  227.0280 C   0  0  0  0  0  0  0  0  0  0  0  0
  140.6400   68.8040  228.1510 C   0  0  0  0  0  0  0  0  0  0  0  0
  140.8280   68.1040  229.3030 F   0  0  0  0  0  0  0  0  0  0  0  0
  141.0490   70.1180  228.1080 C   0  0  0  0  0  0  0  0  0  0  0  0
  140.9060   70.9130  227.0000 C   0  0  0  0  0  0  0  0  0  0  0  0
  140.3190   70.3500  225.8800 C   0  0  0  0  0  0  0  0  0  0  0  0
  140.1860   71.1390  224.8060 N   0  0  0  0  0  0  0  0  0  0  0  0
  139.9350   73.3660  223.5390 H   0  0  0  0  0  0  0  0  0  0  0  0
  138.4776   73.7317  221.1531 H   0  0  0  0  0  0  0  0  0  0  0  0
  139.8168   74.7864  221.7898 H   0  0  0  0  0  0  0  0  0  0  0  0
  141.7968   75.4707  220.5247 H   0  0  0  0  0  0  0  0  0  0  0  0
  142.8141   74.7057  221.7835 H   0  0  0  0  0  0  0  0  0  0  0  0
  143.4310   74.1736  218.8989 H   0  0  0  0  0  0  0  0  0  0  0  0
  143.8629   75.7841  219.6340 H   0  0  0  0  0  0  0  0  0  0  0  0
  145.7882   74.4862  219.8627 H   0  0  0  0  0  0  0  0  0  0  0  0
  144.9599   74.4428  221.4836 H   0  0  0  0  0  0  0  0  0  0  0  0
  144.9214   72.2958  219.3582 H   0  0  0  0  0  0  0  0  0  0  0  0
  145.8116   72.3069  220.9683 H   0  0  0  0  0  0  0  0  0  0  0  0
  143.9942   70.9110  221.1920 H   0  0  0  0  0  0  0  0  0  0  0  0
  143.6469   72.5309  222.0296 H   0  0  0  0  0  0  0  0  0  0  0  0
  141.8415   71.3625  220.9835 H   0  0  0  0  0  0  0  0  0  0  0  0
  142.5976   72.7852  218.7055 H   0  0  0  0  0  0  0  0  0  0  0  0
  141.0704   69.9783  219.1457 H   0  0  0  0  0  0  0  0  0  0  0  0
  140.9014   70.4502  217.6739 H   0  0  0  0  0  0  0  0  0  0  0  0
  143.6547   69.8090  219.1968 H   0  0  0  0  0  0  0  0  0  0  0  0
  143.9403   70.2518  217.7323 H   0  0  0  0  0  0  0  0  0  0  0  0
  138.7350   68.9693  222.7407 H   0  0  0  0  0  0  0  0  0  0  0  0
  138.9741   67.5000  224.7154 H   0  0  0  0  0  0  0  0  0  0  0  0
  139.7162   67.2118  227.0280 H   0  0  0  0  0  0  0  0  0  0  0  0
  141.5131   70.5511  229.0063 H   0  0  0  0  0  0  0  0  0  0  0  0
  141.2452   71.9594  227.0011 H   0  0  0  0  0  0  0  0  0  0  0  0
  1  2  2  0
  2  3  1  0
  3  4  1  0
  4  5  1  0
  5  6  2  0
  5  7  1  0
  7  8  1  0
  8  9  1  0
  9 10  1  0
 10 11  1  0
 11 12  1  0
 12 13  1  0
 13 14  1  0
 14 15  1  0
 15 16  1  0
  2 17  1  0
 17 18  2  0
 18 19  1  0
 19 20  2  0
 20 21  1  0
 21 22  2  0
 22 23  1  0
 22 24  1  0
 24 25  2  0
 25 26  1  0
 26 27  2  0
 13  7  1  0
 16 14  1  0
 27 17  1  0
 26 20  1  0
  3 28  1  0
  4 29  1  0
  4 30  1  0
  8 31  1  0
  8 32  1  0
  9 33  1  0
  9 34  1  0
 10 35  1  0
 10 36  1  0
 11 37  1  0
 11 38  1  0
 12 39  1  0
 12 40  1  0
 13 41  1  1
 14 42  1  0
 15 43  1  0
 15 44  1  0
 16 45  1  0
 16 46  1  0
 18 47  1  0
 19 48  1  0
 21 49  1  0
 24 50  1  0
 25 51  1  0
M  END
>  <smiles>  (34) 
O=C(NCC(=O)N1CCCCCC1C1CC1)c1ccc2cc(F)ccc2n1

>  <score_type>  (34) 
oracle

>  <origin>  (34) 
autodockgpu

>  <m_score__min__energy>  (34) 
-6.0099999999999998

>  <m_primary>  (34) 
energy

>  <rmsd>  (34) 
3.272634298768912

>  <m_score__min__rmsd>  (34) 
3.272634298768912

>  <meeko>  (34) 
{"free_energy": -4.47, "intermolecular_energy": -7.75, "internal_energy": -1.85, "cluster_size": 8, "cluster_id": 3, "rank_in_cluster": 5}

>  <energy>  (34) 
-4.65

>  <cluster_rmsd>  (34) 
1.88

>  <cluster>  (34) 
3

$$$$

     RDKit          3D

 51 54  0  0  0  0  0  0  0  0999 V2000
  141.3370   73.4370  221.3520 O   0  0  0  0  0  0  0  0  0  0  0  0
  140.3450   73.3600  222.1210 C   0  0  0  0  0  0  0  0  0  0  0  0
  139.4510   74.4420  222.3500 N   0  0  0  0  0  0  0  0  0  0  0  0
  139.6840   75.6890  221.6760 C   0  0  0  0  0  0  0  0  0  0  0  0
  139.1560   76.8460  222.4240 C   0  0  0  0  0  0  0  0  0  0  0  0
  138.0710   76.6990  223.0640 O   0  0  0  0  0  0  0  0  0  0  0  0
  139.8520   78.0860  222.4210 N   0  0  0  0  0  0  0  0  0  0  0  0
  139.1930   79.2600  222.9570 C   0  0  0  0  0  0  0  0  0  0  0  0
  139.4460   80.4110  222.0390 C   0  0  0  0  0  0  0  0  0  0  0  0
  140.7140   81.1650  222.3770 C   0  0  0  0  0  0  0  0  0  0  0  0
  141.9540   80.4570  221.9020 C   0  0  0  0  0  0  0  0  0  0  0  0
  142.1180   79.0670  222.3970 C   0  0  0  0  0  0  0  0  0  0  0  0
  141.1820   78.0460  221.8690 C   0  0  2  0  0  0  0  0  0  0  0  0
  141.0440   78.0930  220.3640 C   0  0  0  0  0  0  0  0  0  0  0  0
  141.6920   77.0390  219.5270 C   0  0  0  0  0  0  0  0  0  0  0  0
  142.1880   78.4430  219.4820 C   0  0  0  0  0  0  0  0  0  0  0  0
  140.0640   72.1150  222.8310 C   0  0  0  0  0  0  0  0  0  0  0  0
  139.4150   71.0780  222.1670 C   0  0  0  0  0  0  0  0  0  0  0  0
  139.1240   69.8760  222.7900 C   0  0  0  0  0  0  0  0  0  0  0  0
  139.4830   69.6900  224.1160 C   0  0  0  0  0  0  0  0  0  0  0  0
  139.2170   68.5250  224.7720 C   0  0  0  0  0  0  0  0  0  0  0  0
  139.6000   68.3980  226.0900 C   0  0  0  0  0  0  0  0  0  0  0  0
  139.3750   67.2730  226.8220 F   0  0  0  0  0  0  0  0  0  0  0  0
  140.2370   69.4570  226.6960 C   0  0  0  0  0  0  0  0  0  0  0  0
  140.5130   70.6360  226.0510 C   0  0  0  0  0  0  0  0  0  0  0  0
  140.1240   70.7480  224.7280 C   0  0  0  0  0  0  0  0  0  0  0  0
  140.3990   71.9050  224.1130 N   0  0  0  0  0  0  0  0  0  0  0  0
  138.6240   74.3880  222.9880 H   0  0  0  0  0  0  0  0  0  0  0  0
  140.7680   75.8204  221.5431 H   0  0  0  0  0  0  0  0  0  0  0  0
  139.1586   75.6489  220.7104 H   0  0  0  0  0  0  0  0  0  0  0  0
  138.1110   79.0761  223.0308 H   0  0  0  0  0  0  0  0  0  0  0  0
  139.5858   79.4861  223.9593 H   0  0  0  0  0  0  0  0  0  0  0  0
  139.5283   80.0287  221.0109 H   0  0  0  0  0  0  0  0  0  0  0  0
  138.6054   81.1121  222.1485 H   0  0  0  0  0  0  0  0  0  0  0  0
  140.6711   82.1565  221.9025 H   0  0  0  0  0  0  0  0  0  0  0  0
  140.7736   81.2411  223.4727 H   0  0  0  0  0  0  0  0  0  0  0  0
  141.9278   80.4257  220.8027 H   0  0  0  0  0  0  0  0  0  0  0  0
  142.8040   81.0267  222.3057 H   0  0  0  0  0  0  0  0  0  0  0  0
  143.1383   78.7435  222.1435 H   0  0  0  0  0  0  0  0  0  0  0  0
  141.9007   79.1216  223.4739 H   0  0  0  0  0  0  0  0  0  0  0  0
  141.6619   77.1095  222.1896 H   0  0  0  0  0  0  0  0  0  0  0  0
  140.0248   78.4875  220.4887 H   0  0  0  0  0  0  0  0  0  0  0  0
  142.3001   76.2551  220.0021 H   0  0  0  0  0  0  0  0  0  0  0  0
  141.3409   76.3123  218.7796 H   0  0  0  0  0  0  0  0  0  0  0  0
  143.1640   78.6951  219.9223 H   0  0  0  0  0  0  0  0  0  0  0  0
  142.3557   79.1819  218.6846 H   0  0  0  0  0  0  0  0  0  0  0  0
  139.1244   71.2176  221.1153 H   0  0  0  0  0  0  0  0  0  0  0  0
  138.6119   69.0749  222.2369 H   0  0  0  0  0  0  0  0  0  0  0  0
  138.7045   67.6989  224.2574 H   0  0  0  0  0  0  0  0  0  0  0  0
  140.5394   69.3530  227.7485 H   0  0  0  0  0  0  0  0  0  0  0  0
  141.0248   71.4619  226.5667 H   0  0  0  0  0  0  0  0  0  0  0  0
  1  2  2  0
  2  3  1  0
  3  4  1  0
  4  5  1  0
  5  6  2  0
  5  7  1  0
  7  8  1  0
  8  9  1  0
  9 10  1  0
 10 11  1  0
 11 12  1  0
 12 13  1  0
 13 14  1  0
 14 15  1  0
 15 16  1  0
  2 17  1  0
 17 18  2  0
 18 19  1  0
 19 20  2  0
 20 21  1  0
 21 22  2  0
 22 23  1  0
 22 24  1  0
 24 25  2  0
 25 26  1  0
 26 27  2  0
 13  7  1  0
 16 14  1  0
 27 17  1  0
 26 20  1  0
  3 28  1  0
  4 29  1  0
  4 30  1  0
  8 31  1  0
  8 32  1  0
  9 33  1  0
  9 34  1  0
 10 35  1  0
 10 36  1  0
 11 37  1  0
 11 38  1  0
 12 39  1  0
 12 40  1  0
 13 41  1  6
 14 42  1  0
 15 43  1  0
 15 44  1  0
 16 45  1  0
 16 46  1  0
 18 47  1  0
 19 48  1  0
 21 49  1  0
 24 50  1  0
 25 51  1  0
M  END
>  <smiles>  (35) 
O=C(NCC(=O)N1CCCCCC1C1CC1)c1ccc2cc(F)ccc2n1

>  <score_type>  (35) 
oracle

>  <origin>  (35) 
autodockgpu

>  <m_score__min__energy>  (35) 
-6.0099999999999998

>  <m_primary>  (35) 
energy

>  <rmsd>  (35) 
3.6710631941156113

>  <m_score__min__rmsd>  (35) 
3.6710631941156113

>  <meeko>  (35) 
{"free_energy": -5.24, "intermolecular_energy": -8.52, "internal_energy": -1.5, "cluster_size": 22, "cluster_id": 2, "rank_in_cluster": 12}

>  <energy>  (35) 
-4.47

>  <cluster_rmsd>  (35) 
1.89

>  <cluster>  (35) 
3

$$$$

     RDKit          3D

 51 54  0  0  0  0  0  0  0  0999 V2000
  142.0400   72.4250  221.3920 O   0  0  0  0  0  0  0  0  0  0  0  0
  141.1330   73.1270  221.9090 C   0  0  0  0  0  0  0  0  0  0  0  0
  140.1960   72.6190  222.8490 N   0  0  0  0  0  0  0  0  0  0  0  0
  140.2780   71.2370  223.2350 C   0  0  0  0  0  0  0  0  0  0  0  0
  139.2750   70.8700  224.2520 C   0  0  0  0  0  0  0  0  0  0  0  0
  138.1350   71.4220  224.1940 O   0  0  0  0  0  0  0  0  0  0  0  0
  139.5880   69.9210  225.2640 N   0  0  0  0  0  0  0  0  0  0  0  0
  138.7440   68.7510  225.4130 C   0  0  0  0  0  0  0  0  0  0  0  0
  139.5670   67.5330  225.1480 C   0  0  0  0  0  0  0  0  0  0  0  0
  140.2680   67.0170  226.3850 C   0  0  0  0  0  0  0  0  0  0  0  0
  141.4040   67.9030  226.8210 C   0  0  0  0  0  0  0  0  0  0  0  0
  141.0150   69.2910  227.1790 C   0  0  0  0  0  0  0  0  0  0  0  0
  140.7480   70.2280  226.0610 C   0  0  2  0  0  0  0  0  0  0  0  0
  140.6140   71.6640  226.5130 C   0  0  0  0  0  0  0  0  0  0  0  0
  141.7170   72.3030  227.2930 C   0  0  0  0  0  0  0  0  0  0  0  0
  140.4050   72.0210  227.9400 C   0  0  0  0  0  0  0  0  0  0  0  0
  141.0050   74.5380  221.5510 C   0  0  0  0  0  0  0  0  0  0  0  0
  141.6900   75.0290  220.4440 C   0  0  0  0  0  0  0  0  0  0  0  0
  141.6050   76.3560  220.0580 C   0  0  0  0  0  0  0  0  0  0  0  0
  140.8180   77.2310  220.7910 C   0  0  0  0  0  0  0  0  0  0  0  0
  140.7040   78.5460  220.4500 C   0  0  0  0  0  0  0  0  0  0  0  0
  139.9050   79.3670  221.2170 C   0  0  0  0  0  0  0  0  0  0  0  0
  139.7340   80.6910  220.9520 F   0  0  0  0  0  0  0  0  0  0  0  0
  139.2520   78.8260  222.3020 C   0  0  0  0  0  0  0  0  0  0  0  0
  139.3560   77.5060  222.6580 C   0  0  0  0  0  0  0  0  0  0  0  0
  140.1600   76.6940  221.8790 C   0  0  0  0  0  0  0  0  0  0  0  0
  140.2520   75.4070  222.2400 N   0  0  0  0  0  0  0  0  0  0  0  0
  139.4380   73.1930  223.2840 H   0  0  0  0  0  0  0  0  0  0  0  0
  140.1199   70.6125  222.3433 H   0  0  0  0  0  0  0  0  0  0  0  0
  141.2728   71.0732  223.6750 H   0  0  0  0  0  0  0  0  0  0  0  0
  138.3425   68.7115  226.4363 H   0  0  0  0  0  0  0  0  0  0  0  0
  137.9053   68.7997  224.7029 H   0  0  0  0  0  0  0  0  0  0  0  0
  138.9083   66.7413  224.7616 H   0  0  0  0  0  0  0  0  0  0  0  0
  140.3432   67.8106  224.4197 H   0  0  0  0  0  0  0  0  0  0  0  0
  139.5362   66.9544  227.2039 H   0  0  0  0  0  0  0  0  0  0  0  0
  140.6904   66.0311  226.1407 H   0  0  0  0  0  0  0  0  0  0  0  0
  141.8770   67.4432  227.7013 H   0  0  0  0  0  0  0  0  0  0  0  0
  142.0789   67.9859  225.9563 H   0  0  0  0  0  0  0  0  0  0  0  0
  140.1005   69.2322  227.7875 H   0  0  0  0  0  0  0  0  0  0  0  0
  141.8920   69.7077  227.6959 H   0  0  0  0  0  0  0  0  0  0  0  0
  141.6427   70.0962  225.4348 H   0  0  0  0  0  0  0  0  0  0  0  0
  140.0737   71.8863  225.5810 H   0  0  0  0  0  0  0  0  0  0  0  0
  142.6056   71.7174  227.5714 H   0  0  0  0  0  0  0  0  0  0  0  0
  142.3469   73.1956  227.1645 H   0  0  0  0  0  0  0  0  0  0  0  0
  140.3258   71.2283  228.6985 H   0  0  0  0  0  0  0  0  0  0  0  0
  139.6655   72.6221  228.4893 H   0  0  0  0  0  0  0  0  0  0  0  0
  142.3181   74.3422  219.8577 H   0  0  0  0  0  0  0  0  0  0  0  0
  142.1576   76.7133  219.1765 H   0  0  0  0  0  0  0  0  0  0  0  0
  141.2408   78.9455  219.5770 H   0  0  0  0  0  0  0  0  0  0  0  0
  138.6165   79.4844  222.9124 H   0  0  0  0  0  0  0  0  0  0  0  0
  138.8194   77.1073  223.5316 H   0  0  0  0  0  0  0  0  0  0  0  0
  1  2  2  0
  2  3  1  0
  3  4  1  0
  4  5  1  0
  5  6  2  0
  5  7  1  0
  7  8  1  0
  8  9  1  0
  9 10  1  0
 10 11  1  0
 11 12  1  0
 12 13  1  0
 13 14  1  0
 14 15  1  0
 15 16  1  0
  2 17  1  0
 17 18  2  0
 18 19  1  0
 19 20  2  0
 20 21  1  0
 21 22  2  0
 22 23  1  0
 22 24  1  0
 24 25  2  0
 25 26  1  0
 26 27  2  0
 13  7  1  0
 16 14  1  0
 27 17  1  0
 26 20  1  0
  3 28  1  0
  4 29  1  0
  4 30  1  0
  8 31  1  0
  8 32  1  0
  9 33  1  0
  9 34  1  0
 10 35  1  0
 10 36  1  0
 11 37  1  0
 11 38  1  0
 12 39  1  0
 12 40  1  0
 13 41  1  6
 14 42  1  0
 15 43  1  0
 15 44  1  0
 16 45  1  0
 16 46  1  0
 18 47  1  0
 19 48  1  0
 21 49  1  0
 24 50  1  0
 25 51  1  0
M  END
>  <smiles>  (36) 
O=C(NCC(=O)N1CCCCCC1C1CC1)c1ccc2cc(F)ccc2n1

>  <score_type>  (36) 
oracle

>  <origin>  (36) 
autodockgpu

>  <m_score__min__energy>  (36) 
-6.0099999999999998

>  <m_primary>  (36) 
energy

>  <rmsd>  (36) 
8.926834317204865

>  <m_score__min__rmsd>  (36) 
8.926834317204865

>  <meeko>  (36) 
{"free_energy": -5.38, "intermolecular_energy": -8.66, "internal_energy": -1.89, "cluster_size": 8, "cluster_id": 1, "rank_in_cluster": 3}

>  <energy>  (36) 
-4.39

>  <cluster_rmsd>  (36) 
1.93

>  <cluster>  (36) 
3

$$$$

     RDKit          3D

 51 54  0  0  0  0  0  0  0  0999 V2000
  141.1310   72.0980  221.3130 O   0  0  0  0  0  0  0  0  0  0  0  0
  140.4340   72.5010  222.2790 C   0  0  0  0  0  0  0  0  0  0  0  0
  139.8060   73.7760  222.3080 N   0  0  0  0  0  0  0  0  0  0  0  0
  139.9700   74.6560  221.1840 C   0  0  0  0  0  0  0  0  0  0  0  0
  141.1750   75.5000  221.2940 C   0  0  0  0  0  0  0  0  0  0  0  0
  142.3080   74.9360  221.2270 O   0  0  0  0  0  0  0  0  0  0  0  0
  141.0560   76.9070  221.4690 N   0  0  0  0  0  0  0  0  0  0  0  0
  140.4060   77.4110  222.6620 C   0  0  0  0  0  0  0  0  0  0  0  0
  141.4140   78.1520  223.4780 C   0  0  0  0  0  0  0  0  0  0  0  0
  141.5420   79.6050  223.0770 C   0  0  0  0  0  0  0  0  0  0  0  0
  142.2030   79.7810  221.7370 C   0  0  0  0  0  0  0  0  0  0  0  0
  141.4800   79.1750  220.5910 C   0  0  0  0  0  0  0  0  0  0  0  0
  141.6120   77.7100  220.4110 C   0  0  2  0  0  0  0  0  0  0  0  0
  141.0130   77.2180  219.1130 C   0  0  0  0  0  0  0  0  0  0  0  0
  141.9100   76.7530  218.0110 C   0  0  0  0  0  0  0  0  0  0  0  0
  141.1140   78.0030  217.8550 C   0  0  0  0  0  0  0  0  0  0  0  0
  140.2370   71.6460  223.4470 C   0  0  0  0  0  0  0  0  0  0  0  0
  139.5210   70.4600  223.3160 C   0  0  0  0  0  0  0  0  0  0  0  0
  139.3040   69.6110  224.3880 C   0  0  0  0  0  0  0  0  0  0  0  0
  139.8100   69.9430  225.6350 C   0  0  0  0  0  0  0  0  0  0  0  0
  139.6210   69.1400  226.7200 C   0  0  0  0  0  0  0  0  0  0  0  0
  140.1490   69.5230  227.9340 C   0  0  0  0  0  0  0  0  0  0  0  0
  140.0100   68.7840  229.0690 F   0  0  0  0  0  0  0  0  0  0  0  0
  140.8480   70.7070  228.0050 C   0  0  0  0  0  0  0  0  0  0  0  0
  141.0470   71.5270  226.9240 C   0  0  0  0  0  0  0  0  0  0  0  0
  140.5120   71.1290  225.7120 C   0  0  0  0  0  0  0  0  0  0  0  0
  140.7140   71.9400  224.6650 N   0  0  0  0  0  0  0  0  0  0  0  0
  139.2260   74.1200  223.1070 H   0  0  0  0  0  0  0  0  0  0  0  0
  140.0475   74.0490  220.2699 H   0  0  0  0  0  0  0  0  0  0  0  0
  139.0970   75.3246  221.1548 H   0  0  0  0  0  0  0  0  0  0  0  0
  139.5874   78.0892  222.3794 H   0  0  0  0  0  0  0  0  0  0  0  0
  139.9917   76.5754  223.2453 H   0  0  0  0  0  0  0  0  0  0  0  0
  141.1133   78.1047  224.5350 H   0  0  0  0  0  0  0  0  0  0  0  0
  142.3908   77.6753  223.3088 H   0  0  0  0  0  0  0  0  0  0  0  0
  140.5362   80.0483  223.0343 H   0  0  0  0  0  0  0  0  0  0  0  0
  142.1740   80.1025  223.8273 H   0  0  0  0  0  0  0  0  0  0  0  0
  142.3015   80.8597  221.5452 H   0  0  0  0  0  0  0  0  0  0  0  0
  143.1676   79.2562  221.8012 H   0  0  0  0  0  0  0  0  0  0  0  0
  140.4105   79.3987  220.7177 H   0  0  0  0  0  0  0  0  0  0  0  0
  141.9431   79.6157  219.6958 H   0  0  0  0  0  0  0  0  0  0  0  0
  142.7040   77.5778  220.4139 H   0  0  0  0  0  0  0  0  0  0  0  0
  140.1753   76.7909  219.6837 H   0  0  0  0  0  0  0  0  0  0  0  0
  143.0022   76.8068  218.1301 H   0  0  0  0  0  0  0  0  0  0  0  0
  142.0197   75.8219  217.4357 H   0  0  0  0  0  0  0  0  0  0  0  0
  141.6197   78.9799  217.8564 H   0  0  0  0  0  0  0  0  0  0  0  0
  140.3926   78.3761  217.1131 H   0  0  0  0  0  0  0  0  0  0  0  0
  139.1149   70.1886  222.3304 H   0  0  0  0  0  0  0  0  0  0  0  0
  138.7343   68.6800  224.2511 H   0  0  0  0  0  0  0  0  0  0  0  0
  139.0558   68.2008  226.6281 H   0  0  0  0  0  0  0  0  0  0  0  0
  141.2672   71.0099  228.9759 H   0  0  0  0  0  0  0  0  0  0  0  0
  141.6113   72.4666  227.0172 H   0  0  0  0  0  0  0  0  0  0  0  0
  1  2  2  0
  2  3  1  0
  3  4  1  0
  4  5  1  0
  5  6  2  0
  5  7  1  0
  7  8  1  0
  8  9  1  0
  9 10  1  0
 10 11  1  0
 11 12  1  0
 12 13  1  0
 13 14  1  0
 14 15  1  0
 15 16  1  0
  2 17  1  0
 17 18  2  0
 18 19  1  0
 19 20  2  0
 20 21  1  0
 21 22  2  0
 22 23  1  0
 22 24  1  0
 24 25  2  0
 25 26  1  0
 26 27  2  0
 13  7  1  0
 16 14  1  0
 27 17  1  0
 26 20  1  0
  3 28  1  0
  4 29  1  0
  4 30  1  0
  8 31  1  0
  8 32  1  0
  9 33  1  0
  9 34  1  0
 10 35  1  0
 10 36  1  0
 11 37  1  0
 11 38  1  0
 12 39  1  0
 12 40  1  0
 13 41  1  6
 14 42  1  0
 15 43  1  0
 15 44  1  0
 16 45  1  0
 16 46  1  0
 18 47  1  0
 19 48  1  0
 21 49  1  0
 24 50  1  0
 25 51  1  0
M  END
>  <smiles>  (37) 
O=C(NCC(=O)N1CCCCCC1C1CC1)c1ccc2cc(F)ccc2n1

>  <score_type>  (37) 
oracle

>  <origin>  (37) 
autodockgpu

>  <m_score__min__energy>  (37) 
-6.0099999999999998

>  <m_primary>  (37) 
energy

>  <rmsd>  (37) 
2.986183972076562

>  <m_score__min__rmsd>  (37) 
2.986183972076562

>  <meeko>  (37) 
{"free_energy": -5.62, "intermolecular_energy": -8.9, "internal_energy": -1.28, "cluster_size": 22, "cluster_id": 2, "rank_in_cluster": 6}

>  <energy>  (37) 
-4.32

>  <cluster_rmsd>  (37) 
1.93

>  <cluster>  (37) 
3

$$$$

     RDKit          3D

 51 54  0  0  0  0  0  0  0  0999 V2000
  138.0460   80.0520  221.1790 O   0  0  0  0  0  0  0  0  0  0  0  0
  138.0890   79.8550  222.4200 C   0  0  0  0  0  0  0  0  0  0  0  0
  138.5690   78.6490  223.0010 N   0  0  0  0  0  0  0  0  0  0  0  0
  139.0280   77.5970  222.1370 C   0  0  0  0  0  0  0  0  0  0  0  0
  140.4380   77.2370  222.3800 C   0  0  0  0  0  0  0  0  0  0  0  0
  140.7460   76.0070  222.4000 O   0  0  0  0  0  0  0  0  0  0  0  0
  141.4150   78.2490  222.5850 N   0  0  0  0  0  0  0  0  0  0  0  0
  141.6540   78.7310  223.9320 C   0  0  0  0  0  0  0  0  0  0  0  0
  142.3020   80.0740  223.8510 C   0  0  0  0  0  0  0  0  0  0  0  0
  141.3690   81.1460  223.3310 C   0  0  0  0  0  0  0  0  0  0  0  0
  140.9450   80.9060  221.9080 C   0  0  0  0  0  0  0  0  0  0  0  0
  141.9150   80.1440  221.0810 C   0  0  0  0  0  0  0  0  0  0  0  0
  142.0900   78.7060  221.3970 C   0  0  2  0  0  0  0  0  0  0  0  0
  141.6680   77.7970  220.2660 C   0  0  0  0  0  0  0  0  0  0  0  0
  142.6240   76.7770  219.7380 C   0  0  0  0  0  0  0  0  0  0  0  0
  142.2260   77.9390  218.8950 C   0  0  0  0  0  0  0  0  0  0  0  0
  137.6330   80.8920  223.3420 C   0  0  0  0  0  0  0  0  0  0  0  0
  137.4210   82.1840  222.8700 C   0  0  0  0  0  0  0  0  0  0  0  0
  136.9890   83.2060  223.6990 C   0  0  0  0  0  0  0  0  0  0  0  0
  136.7600   82.9460  225.0410 C   0  0  0  0  0  0  0  0  0  0  0  0
  136.3350   83.9200  225.8950 C   0  0  0  0  0  0  0  0  0  0  0  0
  136.1230   83.6000  227.2200 C   0  0  0  0  0  0  0  0  0  0  0  0
  135.7000   84.5070  228.1420 F   0  0  0  0  0  0  0  0  0  0  0  0
  136.3510   82.3060  227.6300 C   0  0  0  0  0  0  0  0  0  0  0  0
  136.7770   81.3150  226.7840 C   0  0  0  0  0  0  0  0  0  0  0  0
  136.9850   81.6500  225.4580 C   0  0  0  0  0  0  0  0  0  0  0  0
  137.4030   80.6720  224.6440 N   0  0  0  0  0  0  0  0  0  0  0  0
  138.6080   78.4760  224.0310 H   0  0  0  0  0  0  0  0  0  0  0  0
  138.4035   76.7069  222.3035 H   0  0  0  0  0  0  0  0  0  0  0  0
  138.9507   77.9593  221.1013 H   0  0  0  0  0  0  0  0  0  0  0  0
  140.6986   78.8127  224.4711 H   0  0  0  0  0  0  0  0  0  0  0  0
  142.3090   78.0303  224.4706 H   0  0  0  0  0  0  0  0  0  0  0  0
  142.6414   80.3615  224.8571 H   0  0  0  0  0  0  0  0  0  0  0  0
  143.1409   79.9943  223.1440 H   0  0  0  0  0  0  0  0  0  0  0  0
  140.4714   81.1698  223.9664 H   0  0  0  0  0  0  0  0  0  0  0  0
  141.9127   82.1018  223.3590 H   0  0  0  0  0  0  0  0  0  0  0  0
  139.9980   80.3466  221.9245 H   0  0  0  0  0  0  0  0  0  0  0  0
  140.8596   81.8990  221.4425 H   0  0  0  0  0  0  0  0  0  0  0  0
  141.5854   80.2153  220.0340 H   0  0  0  0  0  0  0  0  0  0  0  0
  142.8919   80.6027  221.2938 H   0  0  0  0  0  0  0  0  0  0  0  0
  143.1746   78.6419  221.5687 H   0  0  0  0  0  0  0  0  0  0  0  0
  140.6492   77.7856  220.6807 H   0  0  0  0  0  0  0  0  0  0  0  0
  143.6441   76.7157  220.1450 H   0  0  0  0  0  0  0  0  0  0  0  0
  142.6081   75.6839  219.6157 H   0  0  0  0  0  0  0  0  0  0  0  0
  142.9536   78.7349  218.6779 H   0  0  0  0  0  0  0  0  0  0  0  0
  141.7950   78.0574  217.8899 H   0  0  0  0  0  0  0  0  0  0  0  0
  137.6020   82.4000  221.8067 H   0  0  0  0  0  0  0  0  0  0  0  0
  136.8288   84.2166  223.2953 H   0  0  0  0  0  0  0  0  0  0  0  0
  136.1639   84.9446  225.5333 H   0  0  0  0  0  0  0  0  0  0  0  0
  136.1833   82.0549  228.6877 H   0  0  0  0  0  0  0  0  0  0  0  0
  136.9473   80.2905  227.1464 H   0  0  0  0  0  0  0  0  0  0  0  0
  1  2  2  0
  2  3  1  0
  3  4  1  0
  4  5  1  0
  5  6  2  0
  5  7  1  0
  7  8  1  0
  8  9  1  0
  9 10  1  0
 10 11  1  0
 11 12  1  0
 12 13  1  0
 13 14  1  0
 14 15  1  0
 15 16  1  0
  2 17  1  0
 17 18  2  0
 18 19  1  0
 19 20  2  0
 20 21  1  0
 21 22  2  0
 22 23  1  0
 22 24  1  0
 24 25  2  0
 25 26  1  0
 26 27  2  0
 13  7  1  0
 16 14  1  0
 27 17  1  0
 26 20  1  0
  3 28  1  0
  4 29  1  0
  4 30  1  0
  8 31  1  0
  8 32  1  0
  9 33  1  0
  9 34  1  0
 10 35  1  0
 10 36  1  0
 11 37  1  0
 11 38  1  0
 12 39  1  0
 12 40  1  0
 13 41  1  1
 14 42  1  0
 15 43  1  0
 15 44  1  0
 16 45  1  0
 16 46  1  0
 18 47  1  0
 19 48  1  0
 21 49  1  0
 24 50  1  0
 25 51  1  0
M  END
>  <smiles>  (38) 
O=C(NCC(=O)N1CCCCCC1C1CC1)c1ccc2cc(F)ccc2n1

>  <score_type>  (38) 
oracle

>  <origin>  (38) 
autodockgpu

>  <m_score__min__energy>  (38) 
-6.0099999999999998

>  <m_primary>  (38) 
energy

>  <rmsd>  (38) 
9.95565192751335

>  <m_score__min__rmsd>  (38) 
9.95565192751335

>  <meeko>  (38) 
{"free_energy": -4.07, "intermolecular_energy": -7.35, "internal_energy": -2.17, "cluster_size": 1, "cluster_id": 10, "rank_in_cluster": 1}

>  <energy>  (38) 
-4.15

>  <cluster_rmsd>  (38) 
1.79

>  <cluster>  (38) 
3

$$$$

     RDKit          3D

 51 54  0  0  0  0  0  0  0  0999 V2000
  139.4480   70.7110  221.3110 O   0  0  0  0  0  0  0  0  0  0  0  0
  139.6210   71.2530  222.4330 C   0  0  0  0  0  0  0  0  0  0  0  0
  139.7160   72.6610  222.6110 N   0  0  0  0  0  0  0  0  0  0  0  0
  139.6110   73.5150  221.4590 C   0  0  0  0  0  0  0  0  0  0  0  0
  140.8570   74.2570  221.1880 C   0  0  0  0  0  0  0  0  0  0  0  0
  141.1330   75.2510  221.9260 O   0  0  0  0  0  0  0  0  0  0  0  0
  141.7170   73.8590  220.1280 N   0  0  0  0  0  0  0  0  0  0  0  0
  142.4400   74.8790  219.3930 C   0  0  0  0  0  0  0  0  0  0  0  0
  143.7870   75.0490  220.0150 C   0  0  0  0  0  0  0  0  0  0  0  0
  144.6550   73.8160  219.8850 C   0  0  0  0  0  0  0  0  0  0  0  0
  144.1630   72.6690  220.7240 C   0  0  0  0  0  0  0  0  0  0  0  0
  143.1160   71.8250  220.0910 C   0  0  0  0  0  0  0  0  0  0  0  0
  141.7840   72.4410  219.8850 C   0  0  2  0  0  0  0  0  0  0  0  0
  141.2280   72.1970  218.5010 C   0  0  0  0  0  0  0  0  0  0  0  0
  139.8230   72.5960  218.1840 C   0  0  0  0  0  0  0  0  0  0  0  0
  140.2000   71.1560  218.2400 C   0  0  0  0  0  0  0  0  0  0  0  0
  139.7350   70.4310  223.6340 C   0  0  0  0  0  0  0  0  0  0  0  0
  139.2220   69.1370  223.6300 C   0  0  0  0  0  0  0  0  0  0  0  0
  139.3010   68.3130  224.7400 C   0  0  0  0  0  0  0  0  0  0  0  0
  139.9070   68.7810  225.8960 C   0  0  0  0  0  0  0  0  0  0  0  0
  140.0090   68.0060  227.0130 C   0  0  0  0  0  0  0  0  0  0  0  0
  140.6230   68.5270  228.1330 C   0  0  0  0  0  0  0  0  0  0  0  0
  140.7680   67.8270  229.2910 F   0  0  0  0  0  0  0  0  0  0  0  0
  141.1110   69.8130  228.0790 C   0  0  0  0  0  0  0  0  0  0  0  0
  141.0170   70.6050  226.9630 C   0  0  0  0  0  0  0  0  0  0  0  0
  140.3990   70.0690  225.8480 C   0  0  0  0  0  0  0  0  0  0  0  0
  140.3140   70.8550  224.7660 N   0  0  0  0  0  0  0  0  0  0  0  0
  139.8600   73.1210  223.5380 H   0  0  0  0  0  0  0  0  0  0  0  0
  139.3717   72.8958  220.5819 H   0  0  0  0  0  0  0  0  0  0  0  0
  138.8209   74.2530  221.6620 H   0  0  0  0  0  0  0  0  0  0  0  0
  142.5527   74.5698  218.3434 H   0  0  0  0  0  0  0  0  0  0  0  0
  141.8875   75.8296  219.4268 H   0  0  0  0  0  0  0  0  0  0  0  0
  144.2969   75.8907  219.5236 H   0  0  0  0  0  0  0  0  0  0  0  0
  143.6342   75.2337  221.0886 H   0  0  0  0  0  0  0  0  0  0  0  0
  144.6648   73.5021  218.8308 H   0  0  0  0  0  0  0  0  0  0  0  0
  145.6621   74.0796  220.2403 H   0  0  0  0  0  0  0  0  0  0  0  0
  145.0235   72.0251  220.9582 H   0  0  0  0  0  0  0  0  0  0  0  0
  143.6961   73.1191  221.6125 H   0  0  0  0  0  0  0  0  0  0  0  0
  143.4928   71.5135  219.1056 H   0  0  0  0  0  0  0  0  0  0  0  0
  142.9427   71.0053  220.8038 H   0  0  0  0  0  0  0  0  0  0  0  0
  141.1769   71.9304  220.6470 H   0  0  0  0  0  0  0  0  0  0  0  0
  142.2235   72.4113  218.0851 H   0  0  0  0  0  0  0  0  0  0  0  0
  139.1833   73.0287  218.9673 H   0  0  0  0  0  0  0  0  0  0  0  0
  139.3479   73.2488  217.4369 H   0  0  0  0  0  0  0  0  0  0  0  0
  139.8361   70.5247  219.0641 H   0  0  0  0  0  0  0  0  0  0  0  0
  140.1160   70.3043  217.5489 H   0  0  0  0  0  0  0  0  0  0  0  0
  138.7392   68.7575  222.7174 H   0  0  0  0  0  0  0  0  0  0  0  0
  138.8861   67.2948  224.7050 H   0  0  0  0  0  0  0  0  0  0  0  0
  139.6081   66.9817  227.0210 H   0  0  0  0  0  0  0  0  0  0  0  0
  141.5999   70.2254  228.9739 H   0  0  0  0  0  0  0  0  0  0  0  0
  141.4185   71.6291  226.9552 H   0  0  0  0  0  0  0  0  0  0  0  0
  1  2  2  0
  2  3  1  0
  3  4  1  0
  4  5  1  0
  5  6  2  0
  5  7  1  0
  7  8  1  0
  8  9  1  0
  9 10  1  0
 10 11  1  0
 11 12  1  0
 12 13  1  0
 13 14  1  0
 14 15  1  0
 15 16  1  0
  2 17  1  0
 17 18  2  0
 18 19  1  0
 19 20  2  0
 20 21  1  0
 21 22  2  0
 22 23  1  0
 22 24  1  0
 24 25  2  0
 25 26  1  0
 26 27  2  0
 13  7  1  0
 16 14  1  0
 27 17  1  0
 26 20  1  0
  3 28  1  0
  4 29  1  0
  4 30  1  0
  8 31  1  0
  8 32  1  0
  9 33  1  0
  9 34  1  0
 10 35  1  0
 10 36  1  0
 11 37  1  0
 11 38  1  0
 12 39  1  0
 12 40  1  0
 13 41  1  1
 14 42  1  0
 15 43  1  0
 15 44  1  0
 16 45  1  0
 16 46  1  0
 18 47  1  0
 19 48  1  0
 21 49  1  0
 24 50  1  0
 25 51  1  0
M  END
>  <smiles>  (39) 
O=C(NCC(=O)N1CCCCCC1C1CC1)c1ccc2cc(F)ccc2n1

>  <score_type>  (39) 
oracle

>  <origin>  (39) 
autodockgpu

>  <m_score__min__energy>  (39) 
-6.0099999999999998

>  <m_primary>  (39) 
energy

>  <rmsd>  (39) 
2.968173195660245

>  <m_score__min__rmsd>  (39) 
2.968173195660245

>  <meeko>  (39) 
{"free_energy": -4.65, "intermolecular_energy": -7.93, "internal_energy": -1.97, "cluster_size": 8, "cluster_id": 3, "rank_in_cluster": 4}

>  <energy>  (39) 
-5.01

>  <cluster_rmsd>  (39) 
0.0

>  <cluster>  (39) 
4

$$$$

     RDKit          3D

 51 54  0  0  0  0  0  0  0  0999 V2000
  141.0810   71.9740  221.2230 O   0  0  0  0  0  0  0  0  0  0  0  0
  140.5020   72.4330  222.2410 C   0  0  0  0  0  0  0  0  0  0  0  0
  140.0310   73.7710  222.3310 N   0  0  0  0  0  0  0  0  0  0  0  0
  140.2210   74.6510  221.2110 C   0  0  0  0  0  0  0  0  0  0  0  0
  140.0800   76.0740  221.5760 C   0  0  0  0  0  0  0  0  0  0  0  0
  139.4440   76.3590  222.6360 O   0  0  0  0  0  0  0  0  0  0  0  0
  140.6480   77.0880  220.7560 N   0  0  0  0  0  0  0  0  0  0  0  0
  141.1970   76.7190  219.4660 C   0  0  0  0  0  0  0  0  0  0  0  0
  142.4800   77.4560  219.2660 C   0  0  0  0  0  0  0  0  0  0  0  0
  142.2850   78.8140  218.6260 C   0  0  0  0  0  0  0  0  0  0  0  0
  141.8110   79.8540  219.6050 C   0  0  0  0  0  0  0  0  0  0  0  0
  140.5510   79.5150  220.3130 C   0  0  0  0  0  0  0  0  0  0  0  0
  140.6160   78.4180  221.3080 C   0  0  2  0  0  0  0  0  0  0  0  0
  141.7940   78.5410  222.2470 C   0  0  0  0  0  0  0  0  0  0  0  0
  141.5600   78.7660  223.7060 C   0  0  0  0  0  0  0  0  0  0  0  0
  142.1700   79.8370  222.8690 C   0  0  0  0  0  0  0  0  0  0  0  0
  140.2850   71.5800  223.4070 C   0  0  0  0  0  0  0  0  0  0  0  0
  139.5910   70.3830  223.2620 C   0  0  0  0  0  0  0  0  0  0  0  0
  139.3560   69.5360  224.3320 C   0  0  0  0  0  0  0  0  0  0  0  0
  139.8200   69.8830  225.5910 C   0  0  0  0  0  0  0  0  0  0  0  0
  139.6130   69.0810  226.6740 C   0  0  0  0  0  0  0  0  0  0  0  0
  140.1000   69.4790  227.9020 C   0  0  0  0  0  0  0  0  0  0  0  0
  139.9390   68.7440  229.0360 F   0  0  0  0  0  0  0  0  0  0  0  0
  140.7780   70.6740  227.9860 C   0  0  0  0  0  0  0  0  0  0  0  0
  140.9960   71.4910  226.9070 C   0  0  0  0  0  0  0  0  0  0  0  0
  140.5020   71.0790  225.6820 C   0  0  0  0  0  0  0  0  0  0  0  0
  140.7210   71.8880  224.6370 N   0  0  0  0  0  0  0  0  0  0  0  0
  139.5490   74.1630  223.1730 H   0  0  0  0  0  0  0  0  0  0  0  0
  141.2302   74.4902  220.8040 H   0  0  0  0  0  0  0  0  0  0  0  0
  139.4423   74.4189  220.4695 H   0  0  0  0  0  0  0  0  0  0  0  0
  141.3840   75.6354  219.4391 H   0  0  0  0  0  0  0  0  0  0  0  0
  140.4864   76.9778  218.6672 H   0  0  0  0  0  0  0  0  0  0  0  0
  142.9613   77.5952  220.2453 H   0  0  0  0  0  0  0  0  0  0  0  0
  143.1028   76.8565  218.5857 H   0  0  0  0  0  0  0  0  0  0  0  0
  143.2441   79.1432  218.1995 H   0  0  0  0  0  0  0  0  0  0  0  0
  141.5107   78.7087  217.8518 H   0  0  0  0  0  0  0  0  0  0  0  0
  142.5989   79.9983  220.3590 H   0  0  0  0  0  0  0  0  0  0  0  0
  141.6014   80.7597  219.0169 H   0  0  0  0  0  0  0  0  0  0  0  0
  140.2106   80.4199  220.8376 H   0  0  0  0  0  0  0  0  0  0  0  0
  139.8700   79.1518  219.5292 H   0  0  0  0  0  0  0  0  0  0  0  0
  139.6675   78.5457  221.8502 H   0  0  0  0  0  0  0  0  0  0  0  0
  142.3318   77.7996  221.6378 H   0  0  0  0  0  0  0  0  0  0  0  0
  140.5350   78.8821  224.0879 H   0  0  0  0  0  0  0  0  0  0  0  0
  141.8441   78.2426  224.6308 H   0  0  0  0  0  0  0  0  0  0  0  0
  141.5955   80.7455  222.6353 H   0  0  0  0  0  0  0  0  0  0  0  0
  143.0929   80.4331  222.9230 H   0  0  0  0  0  0  0  0  0  0  0  0
  139.2174   70.1007  222.2666 H   0  0  0  0  0  0  0  0  0  0  0  0
  138.8054   68.5953  224.1839 H   0  0  0  0  0  0  0  0  0  0  0  0
  139.0666   68.1320  226.5704 H   0  0  0  0  0  0  0  0  0  0  0  0
  141.1637   70.9888  228.9669 H   0  0  0  0  0  0  0  0  0  0  0  0
  141.5436   72.4393  227.0113 H   0  0  0  0  0  0  0  0  0  0  0  0
  1  2  2  0
  2  3  1  0
  3  4  1  0
  4  5  1  0
  5  6  2  0
  5  7  1  0
  7  8  1  0
  8  9  1  0
  9 10  1  0
 10 11  1  0
 11 12  1  0
 12 13  1  0
 13 14  1  0
 14 15  1  0
 15 16  1  0
  2 17  1  0
 17 18  2  0
 18 19  1  0
 19 20  2  0
 20 21  1  0
 21 22  2  0
 22 23  1  0
 22 24  1  0
 24 25  2  0
 25 26  1  0
 26 27  2  0
 13  7  1  0
 16 14  1  0
 27 17  1  0
 26 20  1  0
  3 28  1  0
  4 29  1  0
  4 30  1  0
  8 31  1  0
  8 32  1  0
  9 33  1  0
  9 34  1  0
 10 35  1  0
 10 36  1  0
 11 37  1  0
 11 38  1  0
 12 39  1  0
 12 40  1  0
 13 41  1  1
 14 42  1  0
 15 43  1  0
 15 44  1  0
 16 45  1  0
 16 46  1  0
 18 47  1  0
 19 48  1  0
 21 49  1  0
 24 50  1  0
 25 51  1  0
M  END
>  <smiles>  (40) 
O=C(NCC(=O)N1CCCCCC1C1CC1)c1ccc2cc(F)ccc2n1

>  <score_type>  (40) 
oracle

>  <origin>  (40) 
autodockgpu

>  <m_score__min__energy>  (40) 
-6.0099999999999998

>  <m_primary>  (40) 
energy

>  <rmsd>  (40) 
2.227910020752834

>  <m_score__min__rmsd>  (40) 
2.227910020752834

>  <meeko>  (40) 
{"free_energy": -4.83, "intermolecular_energy": -8.11, "internal_energy": -1.76, "cluster_size": 22, "cluster_id": 2, "rank_in_cluster": 20}

>  <energy>  (40) 
-4.89

>  <cluster_rmsd>  (40) 
0.0

>  <cluster>  (40) 
5

$$$$

     RDKit          3D

 51 54  0  0  0  0  0  0  0  0999 V2000
  139.0290   71.0470  221.3550 O   0  0  0  0  0  0  0  0  0  0  0  0
  139.3620   71.5700  222.4500 C   0  0  0  0  0  0  0  0  0  0  0  0
  139.6030   72.9630  222.6060 N   0  0  0  0  0  0  0  0  0  0  0  0
  139.4630   73.8240  221.4640 C   0  0  0  0  0  0  0  0  0  0  0  0
  140.2460   73.3600  220.3030 C   0  0  0  0  0  0  0  0  0  0  0  0
  139.6160   73.0070  219.2600 O   0  0  0  0  0  0  0  0  0  0  0  0
  141.6660   73.3140  220.3620 N   0  0  0  0  0  0  0  0  0  0  0  0
  142.3050   72.1620  220.9680 C   0  0  0  0  0  0  0  0  0  0  0  0
  143.5370   71.8370  220.1910 C   0  0  0  0  0  0  0  0  0  0  0  0
  144.7560   72.5900  220.6790 C   0  0  0  0  0  0  0  0  0  0  0  0
  144.8090   74.0030  220.1640 C   0  0  0  0  0  0  0  0  0  0  0  0
  143.6140   74.8290  220.4640 C   0  0  0  0  0  0  0  0  0  0  0  0
  142.3450   74.4510  219.7970 C   0  0  2  0  0  0  0  0  0  0  0  0
  141.3470   75.5860  219.7400 C   0  0  0  0  0  0  0  0  0  0  0  0
  141.8210   76.9780  219.4750 C   0  0  0  0  0  0  0  0  0  0  0  0
  141.2680   76.6150  220.8100 C   0  0  0  0  0  0  0  0  0  0  0  0
  139.5200   70.7390  223.6410 C   0  0  0  0  0  0  0  0  0  0  0  0
  139.0690   69.4220  223.6220 C   0  0  0  0  0  0  0  0  0  0  0  0
  139.1920   68.5890  224.7210 C   0  0  0  0  0  0  0  0  0  0  0  0
  139.7790   69.0720  225.8810 C   0  0  0  0  0  0  0  0  0  0  0  0
  139.9220   68.2900  226.9880 C   0  0  0  0  0  0  0  0  0  0  0  0
  140.5140   68.8250  228.1120 C   0  0  0  0  0  0  0  0  0  0  0  0
  140.6960   68.1190  229.2610 F   0  0  0  0  0  0  0  0  0  0  0  0
  140.9390   70.1340  228.0730 C   0  0  0  0  0  0  0  0  0  0  0  0
  140.8040   70.9340  226.9680 C   0  0  0  0  0  0  0  0  0  0  0  0
  140.2080   70.3830  225.8470 C   0  0  0  0  0  0  0  0  0  0  0  0
  140.0820   71.1770  224.7760 N   0  0  0  0  0  0  0  0  0  0  0  0
  139.8810   73.4070  223.5110 H   0  0  0  0  0  0  0  0  0  0  0  0
  138.4010   73.8622  221.1799 H   0  0  0  0  0  0  0  0  0  0  0  0
  139.8438   74.8164  221.7469 H   0  0  0  0  0  0  0  0  0  0  0  0
  142.5738   72.3925  222.0094 H   0  0  0  0  0  0  0  0  0  0  0  0
  141.6177   71.3032  220.9590 H   0  0  0  0  0  0  0  0  0  0  0  0
  143.7326   70.7580  220.2781 H   0  0  0  0  0  0  0  0  0  0  0  0
  143.3587   72.1374  219.1479 H   0  0  0  0  0  0  0  0  0  0  0  0
  144.7367   72.6164  221.7785 H   0  0  0  0  0  0  0  0  0  0  0  0
  145.6452   72.0644  220.3009 H   0  0  0  0  0  0  0  0  0  0  0  0
  145.6846   74.4959  220.6116 H   0  0  0  0  0  0  0  0  0  0  0  0
  144.8606   73.9270  219.0678 H   0  0  0  0  0  0  0  0  0  0  0  0
  143.4438   74.7829  221.5498 H   0  0  0  0  0  0  0  0  0  0  0  0
  143.8540   75.8283  220.0719 H   0  0  0  0  0  0  0  0  0  0  0  0
  142.6904   74.1806  218.7883 H   0  0  0  0  0  0  0  0  0  0  0  0
  140.6197   74.8985  219.2834 H   0  0  0  0  0  0  0  0  0  0  0  0
  142.8960   77.1813  219.3610 H   0  0  0  0  0  0  0  0  0  0  0  0
  141.5966   77.7474  218.7216 H   0  0  0  0  0  0  0  0  0  0  0  0
  141.9351   76.5526  221.6824 H   0  0  0  0  0  0  0  0  0  0  0  0
  140.4652   77.0085  221.4508 H   0  0  0  0  0  0  0  0  0  0  0  0
  138.6009   69.0315  222.7063 H   0  0  0  0  0  0  0  0  0  0  0  0
  138.8271   67.5523  224.6745 H   0  0  0  0  0  0  0  0  0  0  0  0
  139.5703   67.2477  226.9846 H   0  0  0  0  0  0  0  0  0  0  0  0
  141.4097   70.5585  228.9721 H   0  0  0  0  0  0  0  0  0  0  0  0
  141.1566   71.9760  226.9721 H   0  0  0  0  0  0  0  0  0  0  0  0
  1  2  2  0
  2  3  1  0
  3  4  1  0
  4  5  1  0
  5  6  2  0
  5  7  1  0
  7  8  1  0
  8  9  1  0
  9 10  1  0
 10 11  1  0
 11 12  1  0
 12 13  1  0
 13 14  1  0
 14 15  1  0
 15 16  1  0
  2 17  1  0
 17 18  2  0
 18 19  1  0
 19 20  2  0
 20 21  1  0
 21 22  2  0
 22 23  1  0
 22 24  1  0
 24 25  2  0
 25 26  1  0
 26 27  2  0
 13  7  1  0
 16 14  1  0
 27 17  1  0
 26 20  1  0
  3 28  1  0
  4 29  1  0
  4 30  1  0
  8 31  1  0
  8 32  1  0
  9 33  1  0
  9 34  1  0
 10 35  1  0
 10 36  1  0
 11 37  1  0
 11 38  1  0
 12 39  1  0
 12 40  1  0
 13 41  1  6
 14 42  1  0
 15 43  1  0
 15 44  1  0
 16 45  1  0
 16 46  1  0
 18 47  1  0
 19 48  1  0
 21 49  1  0
 24 50  1  0
 25 51  1  0
M  END
>  <smiles>  (41) 
O=C(NCC(=O)N1CCCCCC1C1CC1)c1ccc2cc(F)ccc2n1

>  <score_type>  (41) 
oracle

>  <origin>  (41) 
autodockgpu

>  <m_score__min__energy>  (41) 
-6.0099999999999998

>  <m_primary>  (41) 
energy

>  <rmsd>  (41) 
2.887912477126644

>  <m_score__min__rmsd>  (41) 
2.887912477126644

>  <meeko>  (41) 
{"free_energy": -4.88, "intermolecular_energy": -8.16, "internal_energy": -1.6, "cluster_size": 8, "cluster_id": 3, "rank_in_cluster": 2}

>  <energy>  (41) 
-4.74

>  <cluster_rmsd>  (41) 
0.0

>  <cluster>  (41) 
6

$$$$

     RDKit          3D

 51 54  0  0  0  0  0  0  0  0999 V2000
  142.2920   72.8730  220.9170 O   0  0  0  0  0  0  0  0  0  0  0  0
  141.4480   73.5330  221.5760 C   0  0  0  0  0  0  0  0  0  0  0  0
  140.5920   72.9490  222.5490 N   0  0  0  0  0  0  0  0  0  0  0  0
  140.6880   71.5370  222.8000 C   0  0  0  0  0  0  0  0  0  0  0  0
  139.5880   71.0350  223.6450 C   0  0  0  0  0  0  0  0  0  0  0  0
  138.4520   71.5890  223.5390 O   0  0  0  0  0  0  0  0  0  0  0  0
  139.8060   69.9580  224.5480 N   0  0  0  0  0  0  0  0  0  0  0  0
  138.9800   68.7720  224.4360 C   0  0  0  0  0  0  0  0  0  0  0  0
  138.5040   68.3910  225.8000 C   0  0  0  0  0  0  0  0  0  0  0  0
  139.4590   67.4620  226.5170 C   0  0  0  0  0  0  0  0  0  0  0  0
  140.6620   68.1770  227.0670 C   0  0  0  0  0  0  0  0  0  0  0  0
  141.4590   68.9260  226.0640 C   0  0  0  0  0  0  0  0  0  0  0  0
  140.8580   70.1620  225.5100 C   0  0  2  0  0  0  0  0  0  0  0  0
  140.3150   71.0850  226.5780 C   0  0  0  0  0  0  0  0  0  0  0  0
  141.1350   72.2450  227.0430 C   0  0  0  0  0  0  0  0  0  0  0  0
  140.8690   71.0990  227.9580 C   0  0  0  0  0  0  0  0  0  0  0  0
  141.3100   74.9710  221.3580 C   0  0  0  0  0  0  0  0  0  0  0  0
  142.0230   75.5800  220.3300 C   0  0  0  0  0  0  0  0  0  0  0  0
  141.9310   76.9390  220.0780 C   0  0  0  0  0  0  0  0  0  0  0  0
  141.1070   77.7250  220.8690 C   0  0  0  0  0  0  0  0  0  0  0  0
  140.9840   79.0660  220.6590 C   0  0  0  0  0  0  0  0  0  0  0  0
  140.1490   79.7960  221.4780 C   0  0  0  0  0  0  0  0  0  0  0  0
  139.9660   81.1380  221.3430 F   0  0  0  0  0  0  0  0  0  0  0  0
  139.4700   79.1400  222.4800 C   0  0  0  0  0  0  0  0  0  0  0  0
  139.5810   77.7920  222.7040 C   0  0  0  0  0  0  0  0  0  0  0  0
  140.4230   77.0720  221.8740 C   0  0  0  0  0  0  0  0  0  0  0  0
  140.5220   75.7570  222.1060 N   0  0  0  0  0  0  0  0  0  0  0  0
  139.8870   73.4880  223.1020 H   0  0  0  0  0  0  0  0  0  0  0  0
  140.6634   71.0055  221.8372 H   0  0  0  0  0  0  0  0  0  0  0  0
  141.6303   71.3576  223.3385 H   0  0  0  0  0  0  0  0  0  0  0  0
  138.1166   68.9818  223.7876 H   0  0  0  0  0  0  0  0  0  0  0  0
  139.5631   67.9484  223.9982 H   0  0  0  0  0  0  0  0  0  0  0  0
  138.3872   69.3058  226.3996 H   0  0  0  0  0  0  0  0  0  0  0  0
  137.5501   67.8566  225.6801 H   0  0  0  0  0  0  0  0  0  0  0  0
  138.9241   66.9818  227.3496 H   0  0  0  0  0  0  0  0  0  0  0  0
  139.8176   66.7243  225.7840 H   0  0  0  0  0  0  0  0  0  0  0  0
  140.3160   68.8902  227.8296 H   0  0  0  0  0  0  0  0  0  0  0  0
  141.3265   67.3974  227.4678 H   0  0  0  0  0  0  0  0  0  0  0  0
  142.4113   69.2047  226.5387 H   0  0  0  0  0  0  0  0  0  0  0  0
  141.5490   68.2441  225.2056 H   0  0  0  0  0  0  0  0  0  0  0  0
  141.7148   70.6198  224.9939 H   0  0  0  0  0  0  0  0  0  0  0  0
  139.3075   70.9471  226.1586 H   0  0  0  0  0  0  0  0  0  0  0  0
  142.1453   72.4029  226.6375 H   0  0  0  0  0  0  0  0  0  0  0  0
  140.9863   73.3337  227.0941 H   0  0  0  0  0  0  0  0  0  0  0  0
  141.6843   70.4123  228.2296 H   0  0  0  0  0  0  0  0  0  0  0  0
  140.4429   70.9937  228.9666 H   0  0  0  0  0  0  0  0  0  0  0  0
  142.6796   74.9636  219.6983 H   0  0  0  0  0  0  0  0  0  0  0  0
  142.5070   77.3909  219.2570 H   0  0  0  0  0  0  0  0  0  0  0  0
  141.5421   79.5581  219.8489 H   0  0  0  0  0  0  0  0  0  0  0  0
  138.8061   79.7259  223.1326 H   0  0  0  0  0  0  0  0  0  0  0  0
  139.0215   77.3006  223.5136 H   0  0  0  0  0  0  0  0  0  0  0  0
  1  2  2  0
  2  3  1  0
  3  4  1  0
  4  5  1  0
  5  6  2  0
  5  7  1  0
  7  8  1  0
  8  9  1  0
  9 10  1  0
 10 11  1  0
 11 12  1  0
 12 13  1  0
 13 14  1  0
 14 15  1  0
 15 16  1  0
  2 17  1  0
 17 18  2  0
 18 19  1  0
 19 20  2  0
 20 21  1  0
 21 22  2  0
 22 23  1  0
 22 24  1  0
 24 25  2  0
 25 26  1  0
 26 27  2  0
 13  7  1  0
 16 14  1  0
 27 17  1  0
 26 20  1  0
  3 28  1  0
  4 29  1  0
  4 30  1  0
  8 31  1  0
  8 32  1  0
  9 33  1  0
  9 34  1  0
 10 35  1  0
 10 36  1  0
 11 37  1  0
 11 38  1  0
 12 39  1  0
 12 40  1  0
 13 41  1  6
 14 42  1  0
 15 43  1  0
 15 44  1  0
 16 45  1  0
 16 46  1  0
 18 47  1  0
 19 48  1  0
 21 49  1  0
 24 50  1  0
 25 51  1  0
M  END
>  <smiles>  (42) 
O=C(NCC(=O)N1CCCCCC1C1CC1)c1ccc2cc(F)ccc2n1

>  <score_type>  (42) 
oracle

>  <origin>  (42) 
autodockgpu

>  <m_score__min__energy>  (42) 
-6.0099999999999998

>  <m_primary>  (42) 
energy

>  <rmsd>  (42) 
8.897336394762235

>  <m_score__min__rmsd>  (42) 
8.897336394762235

>  <meeko>  (42) 
{"free_energy": -5.18, "intermolecular_energy": -8.46, "internal_energy": -1.74, "cluster_size": 8, "cluster_id": 1, "rank_in_cluster": 5}

>  <energy>  (42) 
-4.61

>  <cluster_rmsd>  (42) 
1.64

>  <cluster>  (42) 
6

$$$$

     RDKit          3D

 51 54  0  0  0  0  0  0  0  0999 V2000
  141.7120   72.4570  221.5290 O   0  0  0  0  0  0  0  0  0  0  0  0
  140.7780   73.1810  221.9580 C   0  0  0  0  0  0  0  0  0  0  0  0
  139.6500   72.6660  222.6530 N   0  0  0  0  0  0  0  0  0  0  0  0
  139.5620   71.2490  222.8800 C   0  0  0  0  0  0  0  0  0  0  0  0
  139.0270   70.9200  224.2150 C   0  0  0  0  0  0  0  0  0  0  0  0
  137.7990   71.1450  224.4380 O   0  0  0  0  0  0  0  0  0  0  0  0
  139.8730   70.3670  225.2140 N   0  0  0  0  0  0  0  0  0  0  0  0
  141.2870   70.6860  225.1890 C   0  0  0  0  0  0  0  0  0  0  0  0
  141.5040   71.9520  225.9500 C   0  0  0  0  0  0  0  0  0  0  0  0
  140.9180   71.9090  227.3440 C   0  0  0  0  0  0  0  0  0  0  0  0
  140.8190   70.5100  227.8890 C   0  0  0  0  0  0  0  0  0  0  0  0
  139.5460   69.8060  227.5970 C   0  0  0  0  0  0  0  0  0  0  0  0
  139.2190   69.5220  226.1790 C   0  0  2  0  0  0  0  0  0  0  0  0
  139.5000   68.0900  225.7840 C   0  0  0  0  0  0  0  0  0  0  0  0
  139.3440   66.9980  226.7920 C   0  0  0  0  0  0  0  0  0  0  0  0
  140.6960   67.3590  226.2810 C   0  0  0  0  0  0  0  0  0  0  0  0
  140.8180   74.6270  221.7530 C   0  0  0  0  0  0  0  0  0  0  0  0
  141.7620   75.1710  220.8870 C   0  0  0  0  0  0  0  0  0  0  0  0
  141.8460   76.5330  220.6550 C   0  0  0  0  0  0  0  0  0  0  0  0
  140.9690   77.3910  221.3000 C   0  0  0  0  0  0  0  0  0  0  0  0
  141.0140   78.7390  221.1040 C   0  0  0  0  0  0  0  0  0  0  0  0
  140.1150   79.5420  221.7740 C   0  0  0  0  0  0  0  0  0  0  0  0
  140.0870   80.8960  221.6390 F   0  0  0  0  0  0  0  0  0  0  0  0
  139.2040   78.9480  222.6190 C   0  0  0  0  0  0  0  0  0  0  0  0
  139.1450   77.5950  222.8270 C   0  0  0  0  0  0  0  0  0  0  0  0
  140.0540   76.8020  222.1480 C   0  0  0  0  0  0  0  0  0  0  0  0
  139.9840   75.4820  222.3630 N   0  0  0  0  0  0  0  0  0  0  0  0
  138.8680   73.2590  223.0130 H   0  0  0  0  0  0  0  0  0  0  0  0
  138.9010   70.8106  222.1178 H   0  0  0  0  0  0  0  0  0  0  0  0
  140.5805   70.8381  222.8190 H   0  0  0  0  0  0  0  0  0  0  0  0
  141.8590   69.8705  225.6557 H   0  0  0  0  0  0  0  0  0  0  0  0
  141.6256   70.8099  224.1498 H   0  0  0  0  0  0  0  0  0  0  0  0
  142.5862   72.1325  226.0296 H   0  0  0  0  0  0  0  0  0  0  0  0
  140.9937   72.7579  225.4022 H   0  0  0  0  0  0  0  0  0  0  0  0
  141.5578   72.5030  228.0132 H   0  0  0  0  0  0  0  0  0  0  0  0
  139.8980   72.3171  227.2885 H   0  0  0  0  0  0  0  0  0  0  0  0
  141.6410   69.9186  227.4594 H   0  0  0  0  0  0  0  0  0  0  0  0
  140.8707   70.6049  228.9837 H   0  0  0  0  0  0  0  0  0  0  0  0
  139.5764   68.8418  228.1255 H   0  0  0  0  0  0  0  0  0  0  0  0
  138.7629   70.5051  227.9257 H   0  0  0  0  0  0  0  0  0  0  0  0
  138.1400   69.7336  226.1478 H   0  0  0  0  0  0  0  0  0  0  0  0
  139.0955   68.3065  224.7843 H   0  0  0  0  0  0  0  0  0  0  0  0
  139.0640   67.2406  227.8277 H   0  0  0  0  0  0  0  0  0  0  0  0
  138.7555   66.0705  226.8511 H   0  0  0  0  0  0  0  0  0  0  0  0
  141.4151   67.8666  226.9408 H   0  0  0  0  0  0  0  0  0  0  0  0
  141.5200   66.8055  225.8070 H   0  0  0  0  0  0  0  0  0  0  0  0
  142.4627   74.4980  220.3712 H   0  0  0  0  0  0  0  0  0  0  0  0
  142.6032   76.9316  219.9638 H   0  0  0  0  0  0  0  0  0  0  0  0
  141.7560   79.1797  220.4219 H   0  0  0  0  0  0  0  0  0  0  0  0
  138.4889   79.5911  223.1529 H   0  0  0  0  0  0  0  0  0  0  0  0
  138.4023   77.1549  223.5087 H   0  0  0  0  0  0  0  0  0  0  0  0
  1  2  2  0
  2  3  1  0
  3  4  1  0
  4  5  1  0
  5  6  2  0
  5  7  1  0
  7  8  1  0
  8  9  1  0
  9 10  1  0
 10 11  1  0
 11 12  1  0
 12 13  1  0
 13 14  1  0
 14 15  1  0
 15 16  1  0
  2 17  1  0
 17 18  2  0
 18 19  1  0
 19 20  2  0
 20 21  1  0
 21 22  2  0
 22 23  1  0
 22 24  1  0
 24 25  2  0
 25 26  1  0
 26 27  2  0
 13  7  1  0
 16 14  1  0
 27 17  1  0
 26 20  1  0
  3 28  1  0
  4 29  1  0
  4 30  1  0
  8 31  1  0
  8 32  1  0
  9 33  1  0
  9 34  1  0
 10 35  1  0
 10 36  1  0
 11 37  1  0
 11 38  1  0
 12 39  1  0
 12 40  1  0
 13 41  1  1
 14 42  1  0
 15 43  1  0
 15 44  1  0
 16 45  1  0
 16 46  1  0
 18 47  1  0
 19 48  1  0
 21 49  1  0
 24 50  1  0
 25 51  1  0
M  END
>  <smiles>  (43) 
O=C(NCC(=O)N1CCCCCC1C1CC1)c1ccc2cc(F)ccc2n1

>  <score_type>  (43) 
oracle

>  <origin>  (43) 
autodockgpu

>  <m_score__min__energy>  (43) 
-6.0099999999999998

>  <m_primary>  (43) 
energy

>  <rmsd>  (43) 
8.759062506111157

>  <m_score__min__rmsd>  (43) 
8.759062506111157

>  <meeko>  (43) 
{"free_energy": -4.37, "intermolecular_energy": -7.65, "internal_energy": -1.76, "cluster_size": 8, "cluster_id": 1, "rank_in_cluster": 8}

>  <energy>  (43) 
-4.7

>  <cluster_rmsd>  (43) 
0.0

>  <cluster>  (43) 
7

$$$$

     RDKit          3D

 51 54  0  0  0  0  0  0  0  0999 V2000
  139.4150   75.5600  220.7420 O   0  0  0  0  0  0  0  0  0  0  0  0
  140.5740   75.6280  221.2260 C   0  0  0  0  0  0  0  0  0  0  0  0
  140.9860   76.6560  222.1160 N   0  0  0  0  0  0  0  0  0  0  0  0
  140.0410   77.6730  222.4880 C   0  0  0  0  0  0  0  0  0  0  0  0
  139.8680   78.6970  221.4400 C   0  0  0  0  0  0  0  0  0  0  0  0
  138.7010   78.8920  220.9820 O   0  0  0  0  0  0  0  0  0  0  0  0
  140.9840   79.4380  220.9640 N   0  0  0  0  0  0  0  0  0  0  0  0
  141.7700   78.8970  219.8720 C   0  0  0  0  0  0  0  0  0  0  0  0
  141.2450   79.4480  218.5880 C   0  0  0  0  0  0  0  0  0  0  0  0
  141.5570   80.9170  218.4060 C   0  0  0  0  0  0  0  0  0  0  0  0
  140.8280   81.7910  219.3890 C   0  0  0  0  0  0  0  0  0  0  0  0
  141.4310   81.8570  220.7440 C   0  0  0  0  0  0  0  0  0  0  0  0
  141.2260   80.6900  221.6350 C   0  0  2  0  0  0  0  0  0  0  0  0
  142.3740   80.4690  222.5930 C   0  0  0  0  0  0  0  0  0  0  0  0
  142.1300   79.7790  223.8960 C   0  0  0  0  0  0  0  0  0  0  0  0
  142.4890   81.2250  223.8670 C   0  0  0  0  0  0  0  0  0  0  0  0
  141.5720   74.6190  220.8800 C   0  0  0  0  0  0  0  0  0  0  0  0
  141.1690   73.3090  220.6410 C   0  0  0  0  0  0  0  0  0  0  0  0
  142.0720   72.3120  220.3100 C   0  0  0  0  0  0  0  0  0  0  0  0
  143.4200   72.6180  220.2110 C   0  0  0  0  0  0  0  0  0  0  0  0
  144.3460   71.6710  219.8880 C   0  0  0  0  0  0  0  0  0  0  0  0
  145.6730   72.0350  219.8040 C   0  0  0  0  0  0  0  0  0  0  0  0
  146.6630   71.1570  219.4890 F   0  0  0  0  0  0  0  0  0  0  0  0
  146.0130   73.3460  220.0510 C   0  0  0  0  0  0  0  0  0  0  0  0
  145.0950   74.3110  220.3770 C   0  0  0  0  0  0  0  0  0  0  0  0
  143.7670   73.9300  220.4570 C   0  0  0  0  0  0  0  0  0  0  0  0
  142.8820   74.8840  220.7770 N   0  0  0  0  0  0  0  0  0  0  0  0
  141.9470   76.7220  222.5240 H   0  0  0  0  0  0  0  0  0  0  0  0
  139.0680   77.1969  222.6795 H   0  0  0  0  0  0  0  0  0  0  0  0
  140.4295   78.1768  223.3854 H   0  0  0  0  0  0  0  0  0  0  0  0
  142.8242   79.1859  219.9956 H   0  0  0  0  0  0  0  0  0  0  0  0
  141.6995   77.7993  219.8663 H   0  0  0  0  0  0  0  0  0  0  0  0
  141.6956   78.8878  217.7554 H   0  0  0  0  0  0  0  0  0  0  0  0
  140.1502   79.3432  218.6072 H   0  0  0  0  0  0  0  0  0  0  0  0
  142.6389   81.0659  218.5375 H   0  0  0  0  0  0  0  0  0  0  0  0
  141.2266   81.2044  217.3969 H   0  0  0  0  0  0  0  0  0  0  0  0
  140.7977   82.8116  218.9798 H   0  0  0  0  0  0  0  0  0  0  0  0
  139.8330   81.3403  219.5191 H   0  0  0  0  0  0  0  0  0  0  0  0
  142.5156   81.9900  220.6173 H   0  0  0  0  0  0  0  0  0  0  0  0
  140.9140   82.6893  221.2439 H   0  0  0  0  0  0  0  0  0  0  0  0
  140.3123   80.9753  222.1769 H   0  0  0  0  0  0  0  0  0  0  0  0
  143.0396   80.3168  221.7305 H   0  0  0  0  0  0  0  0  0  0  0  0
  141.1114   79.4698  224.1733 H   0  0  0  0  0  0  0  0  0  0  0  0
  142.5353   78.8850  224.3925 H   0  0  0  0  0  0  0  0  0  0  0  0
  141.7353   81.9833  224.1256 H   0  0  0  0  0  0  0  0  0  0  0  0
  143.2707   81.8402  224.3366 H   0  0  0  0  0  0  0  0  0  0  0  0
  140.1009   73.0573  220.7172 H   0  0  0  0  0  0  0  0  0  0  0  0
  141.7218   71.2854  220.1272 H   0  0  0  0  0  0  0  0  0  0  0  0
  144.0389   70.6321  219.6973 H   0  0  0  0  0  0  0  0  0  0  0  0
  147.0727   73.6334  219.9835 H   0  0  0  0  0  0  0  0  0  0  0  0
  145.4028   75.3497  220.5679 H   0  0  0  0  0  0  0  0  0  0  0  0
  1  2  2  0
  2  3  1  0
  3  4  1  0
  4  5  1  0
  5  6  2  0
  5  7  1  0
  7  8  1  0
  8  9  1  0
  9 10  1  0
 10 11  1  0
 11 12  1  0
 12 13  1  0
 13 14  1  0
 14 15  1  0
 15 16  1  0
  2 17  1  0
 17 18  2  0
 18 19  1  0
 19 20  2  0
 20 21  1  0
 21 22  2  0
 22 23  1  0
 22 24  1  0
 24 25  2  0
 25 26  1  0
 26 27  2  0
 13  7  1  0
 16 14  1  0
 27 17  1  0
 26 20  1  0
  3 28  1  0
  4 29  1  0
  4 30  1  0
  8 31  1  0
  8 32  1  0
  9 33  1  0
  9 34  1  0
 10 35  1  0
 10 36  1  0
 11 37  1  0
 11 38  1  0
 12 39  1  0
 12 40  1  0
 13 41  1  1
 14 42  1  0
 15 43  1  0
 15 44  1  0
 16 45  1  0
 16 46  1  0
 18 47  1  0
 19 48  1  0
 21 49  1  0
 24 50  1  0
 25 51  1  0
M  END
>  <smiles>  (44) 
O=C(NCC(=O)N1CCCCCC1C1CC1)c1ccc2cc(F)ccc2n1

>  <score_type>  (44) 
oracle

>  <origin>  (44) 
autodockgpu

>  <m_score__min__energy>  (44) 
-6.0099999999999998

>  <m_primary>  (44) 
energy

>  <rmsd>  (44) 
6.379413040441368

>  <m_score__min__rmsd>  (44) 
6.379413040441368

>  <meeko>  (44) 
{"free_energy": -4.63, "intermolecular_energy": -7.91, "internal_energy": -1.73, "cluster_size": 4, "cluster_id": 8, "rank_in_cluster": 1}

>  <energy>  (44) 
-4.63

>  <cluster_rmsd>  (44) 
0.0

>  <cluster>  (44) 
8

$$$$

     RDKit          3D

 51 54  0  0  0  0  0  0  0  0999 V2000
  135.3120   69.8390  224.2710 O   0  0  0  0  0  0  0  0  0  0  0  0
  135.5730   71.0520  224.4770 C   0  0  0  0  0  0  0  0  0  0  0  0
  136.7250   71.7000  223.9550 N   0  0  0  0  0  0  0  0  0  0  0  0
  137.6440   70.9410  223.1520 C   0  0  0  0  0  0  0  0  0  0  0  0
  139.0270   70.9990  223.6640 C   0  0  0  0  0  0  0  0  0  0  0  0
  139.8180   71.8510  223.1570 O   0  0  0  0  0  0  0  0  0  0  0  0
  139.4490   70.1190  224.6990 N   0  0  0  0  0  0  0  0  0  0  0  0
  140.3360   70.6240  225.7290 C   0  0  0  0  0  0  0  0  0  0  0  0
  139.7200   70.3550  227.0620 C   0  0  0  0  0  0  0  0  0  0  0  0
  140.1030   69.0030  227.6250 C   0  0  0  0  0  0  0  0  0  0  0  0
  139.3980   67.8670  226.9350 C   0  0  0  0  0  0  0  0  0  0  0  0
  139.6260   67.7800  225.4700 C   0  0  0  0  0  0  0  0  0  0  0  0
  138.9360   68.7760  224.6160 C   0  0  2  0  0  0  0  0  0  0  0  0
  138.9220   68.3920  223.1530 C   0  0  0  0  0  0  0  0  0  0  0  0
  137.6560   67.9060  222.5260 C   0  0  0  0  0  0  0  0  0  0  0  0
  138.8050   66.9760  222.7150 C   0  0  0  0  0  0  0  0  0  0  0  0
  134.6710   71.8670  225.2870 C   0  0  0  0  0  0  0  0  0  0  0  0
  133.7000   71.2470  226.0670 C   0  0  0  0  0  0  0  0  0  0  0  0
  132.8190   71.9690  226.8550 C   0  0  0  0  0  0  0  0  0  0  0  0
  132.8980   73.3530  226.8730 C   0  0  0  0  0  0  0  0  0  0  0  0
  132.0520   74.1060  227.6320 C   0  0  0  0  0  0  0  0  0  0  0  0
  132.1800   75.4790  227.6100 C   0  0  0  0  0  0  0  0  0  0  0  0
  131.3800   76.3090  228.3340 F   0  0  0  0  0  0  0  0  0  0  0  0
  133.1580   76.0380  226.8190 C   0  0  0  0  0  0  0  0  0  0  0  0
  134.0170   75.2950  226.0500 C   0  0  0  0  0  0  0  0  0  0  0  0
  133.8770   73.9180  226.0830 C   0  0  0  0  0  0  0  0  0  0  0  0
  134.7220   73.2060  225.3260 N   0  0  0  0  0  0  0  0  0  0  0  0
  136.9510   72.7070  224.1220 H   0  0  0  0  0  0  0  0  0  0  0  0
  137.3167   69.8909  223.1395 H   0  0  0  0  0  0  0  0  0  0  0  0
  137.6439   71.3781  222.1426 H   0  0  0  0  0  0  0  0  0  0  0  0
  141.3094   70.1162  225.6614 H   0  0  0  0  0  0  0  0  0  0  0  0
  140.4882   71.7054  225.5967 H   0  0  0  0  0  0  0  0  0  0  0  0
  140.0497   71.1343  227.7649 H   0  0  0  0  0  0  0  0  0  0  0  0
  138.6281   70.3601  226.9285 H   0  0  0  0  0  0  0  0  0  0  0  0
  141.1882   68.8672  227.5074 H   0  0  0  0  0  0  0  0  0  0  0  0
  139.8038   68.9865  228.6834 H   0  0  0  0  0  0  0  0  0  0  0  0
  139.7419   66.9263  227.3897 H   0  0  0  0  0  0  0  0  0  0  0  0
  138.3213   68.0498  227.0668 H   0  0  0  0  0  0  0  0  0  0  0  0
  140.7069   67.8877  225.2965 H   0  0  0  0  0  0  0  0  0  0  0  0
  139.2002   66.8099  225.1742 H   0  0  0  0  0  0  0  0  0  0  0  0
  137.9184   68.7674  225.0336 H   0  0  0  0  0  0  0  0  0  0  0  0
  139.6437   69.1979  222.9539 H   0  0  0  0  0  0  0  0  0  0  0  0
  136.7481   67.7908  223.1363 H   0  0  0  0  0  0  0  0  0  0  0  0
  137.0399   68.2195  221.6704 H   0  0  0  0  0  0  0  0  0  0  0  0
  138.7440   66.1726  223.4639 H   0  0  0  0  0  0  0  0  0  0  0  0
  139.3873   66.3171  222.0541 H   0  0  0  0  0  0  0  0  0  0  0  0
  133.6298   70.1493  226.0576 H   0  0  0  0  0  0  0  0  0  0  0  0
  132.0630   71.4487  227.4614 H   0  0  0  0  0  0  0  0  0  0  0  0
  131.2801   73.6263  228.2517 H   0  0  0  0  0  0  0  0  0  0  0  0
  133.2554   77.1336  226.8028 H   0  0  0  0  0  0  0  0  0  0  0  0
  134.7884   75.7753  225.4301 H   0  0  0  0  0  0  0  0  0  0  0  0
  1  2  2  0
  2  3  1  0
  3  4  1  0
  4  5  1  0
  5  6  2  0
  5  7  1  0
  7  8  1  0
  8  9  1  0
  9 10  1  0
 10 11  1  0
 11 12  1  0
 12 13  1  0
 13 14  1  0
 14 15  1  0
 15 16  1  0
  2 17  1  0
 17 18  2  0
 18 19  1  0
 19 20  2  0
 20 21  1  0
 21 22  2  0
 22 23  1  0
 22 24  1  0
 24 25  2  0
 25 26  1  0
 26 27  2  0
 13  7  1  0
 16 14  1  0
 27 17  1  0
 26 20  1  0
  3 28  1  0
  4 29  1  0
  4 30  1  0
  8 31  1  0
  8 32  1  0
  9 33  1  0
  9 34  1  0
 10 35  1  0
 10 36  1  0
 11 37  1  0
 11 38  1  0
 12 39  1  0
 12 40  1  0
 13 41  1  1
 14 42  1  0
 15 43  1  0
 15 44  1  0
 16 45  1  0
 16 46  1  0
 18 47  1  0
 19 48  1  0
 21 49  1  0
 24 50  1  0
 25 51  1  0
M  END
>  <smiles>  (45) 
O=C(NCC(=O)N1CCCCCC1C1CC1)c1ccc2cc(F)ccc2n1

>  <score_type>  (45) 
oracle

>  <origin>  (45) 
autodockgpu

>  <m_score__min__energy>  (45) 
-6.0099999999999998

>  <m_primary>  (45) 
energy

>  <rmsd>  (45) 
8.41487369235691

>  <m_score__min__rmsd>  (45) 
8.41487369235691

>  <meeko>  (45) 
{"free_energy": -4.89, "intermolecular_energy": -8.18, "internal_energy": -1.41, "cluster_size": 1, "cluster_id": 5, "rank_in_cluster": 1}

>  <energy>  (45) 
-4.45

>  <cluster_rmsd>  (45) 
1.98

>  <cluster>  (45) 
8

$$$$

     RDKit          3D

 51 54  0  0  0  0  0  0  0  0999 V2000
  141.2730   72.0860  221.4510 O   0  0  0  0  0  0  0  0  0  0  0  0
  140.3780   72.3840  222.2830 C   0  0  0  0  0  0  0  0  0  0  0  0
  139.5260   73.5130  222.1380 N   0  0  0  0  0  0  0  0  0  0  0  0
  139.6870   74.3620  220.9900 C   0  0  0  0  0  0  0  0  0  0  0  0
  140.7290   75.3870  221.1840 C   0  0  0  0  0  0  0  0  0  0  0  0
  141.0950   75.6520  222.3690 O   0  0  0  0  0  0  0  0  0  0  0  0
  141.3020   76.0540  220.0660 N   0  0  0  0  0  0  0  0  0  0  0  0
  140.4370   76.8190  219.1880 C   0  0  0  0  0  0  0  0  0  0  0  0
  140.2200   76.0390  217.9340 C   0  0  0  0  0  0  0  0  0  0  0  0
  141.3460   76.2030  216.9360 C   0  0  0  0  0  0  0  0  0  0  0  0
  142.6320   75.5800  217.4050 C   0  0  0  0  0  0  0  0  0  0  0  0
  143.2630   76.2380  218.5770 C   0  0  0  0  0  0  0  0  0  0  0  0
  142.7260   75.8980  219.9150 C   0  0  2  0  0  0  0  0  0  0  0  0
  143.0690   74.4910  220.3490 C   0  0  0  0  0  0  0  0  0  0  0  0
  144.4790   74.1490  220.7080 C   0  0  0  0  0  0  0  0  0  0  0  0
  143.8550   73.5730  219.4840 C   0  0  0  0  0  0  0  0  0  0  0  0
  140.1730   71.5540  223.4680 C   0  0  0  0  0  0  0  0  0  0  0  0
  139.4940   70.3460  223.3500 C   0  0  0  0  0  0  0  0  0  0  0  0
  139.2720   69.5190  224.4380 C   0  0  0  0  0  0  0  0  0  0  0  0
  139.7340   69.8990  225.6890 C   0  0  0  0  0  0  0  0  0  0  0  0
  139.5390   69.1190  226.7900 C   0  0  0  0  0  0  0  0  0  0  0  0
  140.0220   69.5500  228.0070 C   0  0  0  0  0  0  0  0  0  0  0  0
  139.8730   68.8380  229.1570 F   0  0  0  0  0  0  0  0  0  0  0  0
  140.6850   70.7550  228.0640 C   0  0  0  0  0  0  0  0  0  0  0  0
  140.8910   71.5510  226.9670 C   0  0  0  0  0  0  0  0  0  0  0  0
  140.4000   71.1060  225.7520 C   0  0  0  0  0  0  0  0  0  0  0  0
  140.6080   71.8950  224.6900 N   0  0  0  0  0  0  0  0  0  0  0  0
  138.7800   73.7700  222.8240 H   0  0  0  0  0  0  0  0  0  0  0  0
  139.9626   73.7385  220.1267 H   0  0  0  0  0  0  0  0  0  0  0  0
  138.7329   74.8841  220.8255 H   0  0  0  0  0  0  0  0  0  0  0  0
  139.4718   76.9992  219.6839 H   0  0  0  0  0  0  0  0  0  0  0  0
  140.9030   77.7871  218.9521 H   0  0  0  0  0  0  0  0  0  0  0  0
  140.1337   74.9736  218.1938 H   0  0  0  0  0  0  0  0  0  0  0  0
  139.3026   76.4210  217.4623 H   0  0  0  0  0  0  0  0  0  0  0  0
  141.0493   75.7277  215.9894 H   0  0  0  0  0  0  0  0  0  0  0  0
  141.5251   77.2811  216.8110 H   0  0  0  0  0  0  0  0  0  0  0  0
  142.4252   74.5334  217.6729 H   0  0  0  0  0  0  0  0  0  0  0  0
  143.3445   75.6885  216.5740 H   0  0  0  0  0  0  0  0  0  0  0  0
  144.3302   75.9714  218.5713 H   0  0  0  0  0  0  0  0  0  0  0  0
  143.0491   77.3095  218.4497 H   0  0  0  0  0  0  0  0  0  0  0  0
  143.2256   76.6401  220.5551 H   0  0  0  0  0  0  0  0  0  0  0  0
  142.0889   74.4248  220.8440 H   0  0  0  0  0  0  0  0  0  0  0  0
  145.2699   74.9082  220.6178 H   0  0  0  0  0  0  0  0  0  0  0  0
  144.9787   73.7355  221.5964 H   0  0  0  0  0  0  0  0  0  0  0  0
  144.1875   73.9056  218.4896 H   0  0  0  0  0  0  0  0  0  0  0  0
  143.7052   72.5551  219.0948 H   0  0  0  0  0  0  0  0  0  0  0  0
  139.1218   70.0381  222.3617 H   0  0  0  0  0  0  0  0  0  0  0  0
  138.7335   68.5682  224.3111 H   0  0  0  0  0  0  0  0  0  0  0  0
  139.0047   68.1609  226.7085 H   0  0  0  0  0  0  0  0  0  0  0  0
  141.0682   71.0958  229.0371 H   0  0  0  0  0  0  0  0  0  0  0  0
  141.4268   72.5081  227.0495 H   0  0  0  0  0  0  0  0  0  0  0  0
  1  2  2  0
  2  3  1  0
  3  4  1  0
  4  5  1  0
  5  6  2  0
  5  7  1  0
  7  8  1  0
  8  9  1  0
  9 10  1  0
 10 11  1  0
 11 12  1  0
 12 13  1  0
 13 14  1  0
 14 15  1  0
 15 16  1  0
  2 17  1  0
 17 18  2  0
 18 19  1  0
 19 20  2  0
 20 21  1  0
 21 22  2  0
 22 23  1  0
 22 24  1  0
 24 25  2  0
 25 26  1  0
 26 27  2  0
 13  7  1  0
 16 14  1  0
 27 17  1  0
 26 20  1  0
  3 28  1  0
  4 29  1  0
  4 30  1  0
  8 31  1  0
  8 32  1  0
  9 33  1  0
  9 34  1  0
 10 35  1  0
 10 36  1  0
 11 37  1  0
 11 38  1  0
 12 39  1  0
 12 40  1  0
 13 41  1  1
 14 42  1  0
 15 43  1  0
 15 44  1  0
 16 45  1  0
 16 46  1  0
 18 47  1  0
 19 48  1  0
 21 49  1  0
 24 50  1  0
 25 51  1  0
M  END
>  <smiles>  (46) 
O=C(NCC(=O)N1CCCCCC1C1CC1)c1ccc2cc(F)ccc2n1

>  <score_type>  (46) 
oracle

>  <origin>  (46) 
autodockgpu

>  <m_score__min__energy>  (46) 
-6.0099999999999998

>  <m_primary>  (46) 
energy

>  <rmsd>  (46) 
1.8360407222455122

>  <m_score__min__rmsd>  (46) 
1.8360407222455122

>  <meeko>  (46) 
{"free_energy": -5.21, "intermolecular_energy": -8.49, "internal_energy": -1.56, "cluster_size": 22, "cluster_id": 2, "rank_in_cluster": 14}

>  <energy>  (46) 
-4.21

>  <cluster_rmsd>  (46) 
0.85

>  <cluster>  (46) 
8

$$$$

     RDKit          3D

 51 54  0  0  0  0  0  0  0  0999 V2000
  141.6170   72.4500  221.6620 O   0  0  0  0  0  0  0  0  0  0  0  0
  140.6400   72.6370  222.4310 C   0  0  0  0  0  0  0  0  0  0  0  0
  139.7460   73.7350  222.3010 N   0  0  0  0  0  0  0  0  0  0  0  0
  139.9600   74.6840  221.2440 C   0  0  0  0  0  0  0  0  0  0  0  0
  140.1650   76.0560  221.7450 C   0  0  0  0  0  0  0  0  0  0  0  0
  139.5340   76.4130  222.7860 O   0  0  0  0  0  0  0  0  0  0  0  0
  141.0490   76.9450  221.0730 N   0  0  0  0  0  0  0  0  0  0  0  0
  141.9730   76.4060  220.0940 C   0  0  0  0  0  0  0  0  0  0  0  0
  141.4170   76.6480  218.7300 C   0  0  0  0  0  0  0  0  0  0  0  0
  141.6570   78.0590  218.2380 C   0  0  0  0  0  0  0  0  0  0  0  0
  140.8920   79.0860  219.0270 C   0  0  0  0  0  0  0  0  0  0  0  0
  141.3770   79.3030  220.4160 C   0  0  0  0  0  0  0  0  0  0  0  0
  140.9310   78.3320  221.4440 C   0  0  2  0  0  0  0  0  0  0  0  0
  141.6410   78.5030  222.7670 C   0  0  0  0  0  0  0  0  0  0  0  0
  141.2370   79.6080  223.6880 C   0  0  0  0  0  0  0  0  0  0  0  0
  142.5670   79.6390  223.0190 C   0  0  0  0  0  0  0  0  0  0  0  0
  140.3770   71.7020  223.5230 C   0  0  0  0  0  0  0  0  0  0  0  0
  139.6050   70.5700  223.2850 C   0  0  0  0  0  0  0  0  0  0  0  0
  139.3240   69.6500  224.2810 C   0  0  0  0  0  0  0  0  0  0  0  0
  139.8230   69.8550  225.5590 C   0  0  0  0  0  0  0  0  0  0  0  0
  139.5730   68.9780  226.5720 C   0  0  0  0  0  0  0  0  0  0  0  0
  140.0970   69.2350  227.8210 C   0  0  0  0  0  0  0  0  0  0  0  0
  139.8980   68.4160  228.8900 F   0  0  0  0  0  0  0  0  0  0  0  0
  140.8530   70.3710  227.9980 C   0  0  0  0  0  0  0  0  0  0  0  0
  141.1140   71.2640  226.9900 C   0  0  0  0  0  0  0  0  0  0  0  0
  140.5820   70.9920  225.7420 C   0  0  0  0  0  0  0  0  0  0  0  0
  140.8450   71.8730  224.7670 N   0  0  0  0  0  0  0  0  0  0  0  0
  138.9310   73.9000  222.9360 H   0  0  0  0  0  0  0  0  0  0  0  0
  140.8503   74.3808  220.6735 H   0  0  0  0  0  0  0  0  0  0  0  0
  139.0574   74.6908  220.6153 H   0  0  0  0  0  0  0  0  0  0  0  0
  142.9482   76.9056  220.1906 H   0  0  0  0  0  0  0  0  0  0  0  0
  142.1075   75.3268  220.2588 H   0  0  0  0  0  0  0  0  0  0  0  0
  141.8911   75.9462  218.0281 H   0  0  0  0  0  0  0  0  0  0  0  0
  140.3286   76.4985  218.7859 H   0  0  0  0  0  0  0  0  0  0  0  0
  142.7312   78.2819  218.3182 H   0  0  0  0  0  0  0  0  0  0  0  0
  141.3077   78.1119  217.1963 H   0  0  0  0  0  0  0  0  0  0  0  0
  140.9547   80.0442  218.4904 H   0  0  0  0  0  0  0  0  0  0  0  0
  139.8654   78.7012  219.1172 H   0  0  0  0  0  0  0  0  0  0  0  0
  142.4764   79.2785  220.3912 H   0  0  0  0  0  0  0  0  0  0  0  0
  140.9415   80.2651  220.7237 H   0  0  0  0  0  0  0  0  0  0  0  0
  139.8626   78.5761  221.5385 H   0  0  0  0  0  0  0  0  0  0  0  0
  141.7335   77.4092  222.8375 H   0  0  0  0  0  0  0  0  0  0  0  0
  140.4522   80.3172  223.3861 H   0  0  0  0  0  0  0  0  0  0  0  0
  140.8873   79.6655  224.7293 H   0  0  0  0  0  0  0  0  0  0  0  0
  142.7650   80.3730  222.2240 H   0  0  0  0  0  0  0  0  0  0  0  0
  143.6075   79.7305  223.3640 H   0  0  0  0  0  0  0  0  0  0  0  0
  139.2053   70.4002  222.2744 H   0  0  0  0  0  0  0  0  0  0  0  0
  138.7103   68.7641  224.0607 H   0  0  0  0  0  0  0  0  0  0  0  0
  138.9630   68.0797  226.3958 H   0  0  0  0  0  0  0  0  0  0  0  0
  141.2683   70.5729  228.9964 H   0  0  0  0  0  0  0  0  0  0  0  0
  141.7233   72.1625  227.1672 H   0  0  0  0  0  0  0  0  0  0  0  0
  1  2  2  0
  2  3  1  0
  3  4  1  0
  4  5  1  0
  5  6  2  0
  5  7  1  0
  7  8  1  0
  8  9  1  0
  9 10  1  0
 10 11  1  0
 11 12  1  0
 12 13  1  0
 13 14  1  0
 14 15  1  0
 15 16  1  0
  2 17  1  0
 17 18  2  0
 18 19  1  0
 19 20  2  0
 20 21  1  0
 21 22  2  0
 22 23  1  0
 22 24  1  0
 24 25  2  0
 25 26  1  0
 26 27  2  0
 13  7  1  0
 16 14  1  0
 27 17  1  0
 26 20  1  0
  3 28  1  0
  4 29  1  0
  4 30  1  0
  8 31  1  0
  8 32  1  0
  9 33  1  0
  9 34  1  0
 10 35  1  0
 10 36  1  0
 11 37  1  0
 11 38  1  0
 12 39  1  0
 12 40  1  0
 13 41  1  1
 14 42  1  0
 15 43  1  0
 15 44  1  0
 16 45  1  0
 16 46  1  0
 18 47  1  0
 19 48  1  0
 21 49  1  0
 24 50  1  0
 25 51  1  0
M  END
>  <smiles>  (47) 
O=C(NCC(=O)N1CCCCCC1C1CC1)c1ccc2cc(F)ccc2n1

>  <score_type>  (47) 
oracle

>  <origin>  (47) 
autodockgpu

>  <m_score__min__energy>  (47) 
-6.0099999999999998

>  <m_primary>  (47) 
energy

>  <rmsd>  (47) 
2.2636423304699185

>  <m_score__min__rmsd>  (47) 
2.2636423304699185

>  <meeko>  (47) 
{"free_energy": -5.65, "intermolecular_energy": -8.93, "internal_energy": -1.43, "cluster_size": 22, "cluster_id": 2, "rank_in_cluster": 5}

>  <energy>  (47) 
-4.17

>  <cluster_rmsd>  (47) 
0.9

>  <cluster>  (47) 
8

$$$$

     RDKit          3D

 51 54  0  0  0  0  0  0  0  0999 V2000
  141.2380   72.1960  221.8520 O   0  0  0  0  0  0  0  0  0  0  0  0
  140.2160   72.2680  222.5820 C   0  0  0  0  0  0  0  0  0  0  0  0
  139.1440   73.1680  222.3340 N   0  0  0  0  0  0  0  0  0  0  0  0
  139.2210   74.0430  221.1970 C   0  0  0  0  0  0  0  0  0  0  0  0
  140.4780   74.8160  221.1600 C   0  0  0  0  0  0  0  0  0  0  0  0
  140.8290   75.4360  222.2090 O   0  0  0  0  0  0  0  0  0  0  0  0
  141.2650   74.8560  219.9760 N   0  0  0  0  0  0  0  0  0  0  0  0
  141.7090   73.6070  219.3890 C   0  0  0  0  0  0  0  0  0  0  0  0
  143.0670   73.2870  219.9190 C   0  0  0  0  0  0  0  0  0  0  0  0
  144.1370   74.2220  219.3990 C   0  0  0  0  0  0  0  0  0  0  0  0
  143.9800   75.6270  219.9130 C   0  0  0  0  0  0  0  0  0  0  0  0
  142.9770   76.4540  219.1940 C   0  0  0  0  0  0  0  0  0  0  0  0
  141.5470   76.1720  219.4660 C   0  0  2  0  0  0  0  0  0  0  0  0
  140.9210   77.1650  220.4180 C   0  0  0  0  0  0  0  0  0  0  0  0
  140.8180   78.6040  220.0280 C   0  0  0  0  0  0  0  0  0  0  0  0
  141.7310   78.1880  221.1300 C   0  0  0  0  0  0  0  0  0  0  0  0
  140.0890   71.4000  223.7510 C   0  0  0  0  0  0  0  0  0  0  0  0
  139.3610   70.2180  223.6510 C   0  0  0  0  0  0  0  0  0  0  0  0
  139.2070   69.3580  224.7250 C   0  0  0  0  0  0  0  0  0  0  0  0
  139.7900   69.6760  225.9420 C   0  0  0  0  0  0  0  0  0  0  0  0
  139.6660   68.8610  227.0280 C   0  0  0  0  0  0  0  0  0  0  0  0
  140.2690   69.2290  228.2120 C   0  0  0  0  0  0  0  0  0  0  0  0
  140.1970   68.4790  229.3450 F   0  0  0  0  0  0  0  0  0  0  0  0
  140.9750   70.4100  228.2520 C   0  0  0  0  0  0  0  0  0  0  0  0
  141.1100   71.2410  227.1700 C   0  0  0  0  0  0  0  0  0  0  0  0
  140.5000   70.8580  225.9880 C   0  0  0  0  0  0  0  0  0  0  0  0
  140.6400   71.6800  224.9400 N   0  0  0  0  0  0  0  0  0  0  0  0
  138.2910   73.2350  222.9350 H   0  0  0  0  0  0  0  0  0  0  0  0
  139.1526   73.4375  220.2812 H   0  0  0  0  0  0  0  0  0  0  0  0
  138.3906   74.7605  221.2718 H   0  0  0  0  0  0  0  0  0  0  0  0
  141.0081   72.8024  219.6560 H   0  0  0  0  0  0  0  0  0  0  0  0
  141.7457   73.6991  218.2935 H   0  0  0  0  0  0  0  0  0  0  0  0
  143.0414   73.3585  221.0164 H   0  0  0  0  0  0  0  0  0  0  0  0
  143.3227   72.2719  219.5810 H   0  0  0  0  0  0  0  0  0  0  0  0
  145.1201   73.8406  219.7121 H   0  0  0  0  0  0  0  0  0  0  0  0
  144.0441   74.2567  218.3035 H   0  0  0  0  0  0  0  0  0  0  0  0
  143.6808   75.5714  220.9701 H   0  0  0  0  0  0  0  0  0  0  0  0
  144.9510   76.1199  219.7571 H   0  0  0  0  0  0  0  0  0  0  0  0
  143.1634   77.5052  219.4591 H   0  0  0  0  0  0  0  0  0  0  0  0
  143.1173   76.2097  218.1307 H   0  0  0  0  0  0  0  0  0  0  0  0
  141.1032   76.2561  218.4630 H   0  0  0  0  0  0  0  0  0  0  0  0
  140.2198   76.3820  220.7424 H   0  0  0  0  0  0  0  0  0  0  0  0
  141.2330   78.9456  219.0683 H   0  0  0  0  0  0  0  0  0  0  0  0
  139.9955   79.3276  219.9286 H   0  0  0  0  0  0  0  0  0  0  0  0
  142.8206   78.2250  220.9840 H   0  0  0  0  0  0  0  0  0  0  0  0
  141.8610   78.4805  222.1824 H   0  0  0  0  0  0  0  0  0  0  0  0
  138.8937   69.9592  222.6894 H   0  0  0  0  0  0  0  0  0  0  0  0
  138.6269   68.4301  224.6136 H   0  0  0  0  0  0  0  0  0  0  0  0
  139.0936   67.9241  226.9605 H   0  0  0  0  0  0  0  0  0  0  0  0
  141.4543   70.7012  229.1983 H   0  0  0  0  0  0  0  0  0  0  0  0
  141.6822   72.1779  227.2387 H   0  0  0  0  0  0  0  0  0  0  0  0
  1  2  2  0
  2  3  1  0
  3  4  1  0
  4  5  1  0
  5  6  2  0
  5  7  1  0
  7  8  1  0
  8  9  1  0
  9 10  1  0
 10 11  1  0
 11 12  1  0
 12 13  1  0
 13 14  1  0
 14 15  1  0
 15 16  1  0
  2 17  1  0
 17 18  2  0
 18 19  1  0
 19 20  2  0
 20 21  1  0
 21 22  2  0
 22 23  1  0
 22 24  1  0
 24 25  2  0
 25 26  1  0
 26 27  2  0
 13  7  1  0
 16 14  1  0
 27 17  1  0
 26 20  1  0
  3 28  1  0
  4 29  1  0
  4 30  1  0
  8 31  1  0
  8 32  1  0
  9 33  1  0
  9 34  1  0
 10 35  1  0
 10 36  1  0
 11 37  1  0
 11 38  1  0
 12 39  1  0
 12 40  1  0
 13 41  1  6
 14 42  1  0
 15 43  1  0
 15 44  1  0
 16 45  1  0
 16 46  1  0
 18 47  1  0
 19 48  1  0
 21 49  1  0
 24 50  1  0
 25 51  1  0
M  END
>  <smiles>  (48) 
O=C(NCC(=O)N1CCCCCC1C1CC1)c1ccc2cc(F)ccc2n1

>  <score_type>  (48) 
oracle

>  <origin>  (48) 
autodockgpu

>  <m_score__min__energy>  (48) 
-6.0099999999999998

>  <m_primary>  (48) 
energy

>  <rmsd>  (48) 
2.000489378764833

>  <m_score__min__rmsd>  (48) 
2.000489378764833

>  <meeko>  (48) 
{"free_energy": -5.47, "intermolecular_energy": -8.75, "internal_energy": -0.93, "cluster_size": 22, "cluster_id": 2, "rank_in_cluster": 9}

>  <energy>  (48) 
-4.31

>  <cluster_rmsd>  (48) 
0.0

>  <cluster>  (48) 
9

$$$$

     RDKit          3D

 51 54  0  0  0  0  0  0  0  0999 V2000
  140.6600   71.5780  221.2160 O   0  0  0  0  0  0  0  0  0  0  0  0
  140.2510   72.0350  222.3140 C   0  0  0  0  0  0  0  0  0  0  0  0
  139.8550   73.3880  222.4950 N   0  0  0  0  0  0  0  0  0  0  0  0
  139.9220   74.2870  221.3760 C   0  0  0  0  0  0  0  0  0  0  0  0
  139.6110   75.6810  221.7470 C   0  0  0  0  0  0  0  0  0  0  0  0
  138.9770   75.8840  222.8260 O   0  0  0  0  0  0  0  0  0  0  0  0
  140.0170   76.7570  220.9110 N   0  0  0  0  0  0  0  0  0  0  0  0
  139.0070   77.4890  220.1720 C   0  0  0  0  0  0  0  0  0  0  0  0
  139.0710   78.9260  220.5720 C   0  0  0  0  0  0  0  0  0  0  0  0
  139.5860   79.1220  221.9810 C   0  0  0  0  0  0  0  0  0  0  0  0
  141.0840   79.2460  222.0400 C   0  0  0  0  0  0  0  0  0  0  0  0
  141.8170   78.4430  221.0340 C   0  0  0  0  0  0  0  0  0  0  0  0
  141.4330   77.0190  220.8840 C   0  0  2  0  0  0  0  0  0  0  0  0
  141.9810   76.3880  219.6250 C   0  0  0  0  0  0  0  0  0  0  0  0
  143.4130   75.9640  219.5690 C   0  0  0  0  0  0  0  0  0  0  0  0
  142.9350   77.1060  218.7390 C   0  0  0  0  0  0  0  0  0  0  0  0
  140.1650   71.1640  223.4840 C   0  0  0  0  0  0  0  0  0  0  0  0
  139.5770   69.9080  223.3620 C   0  0  0  0  0  0  0  0  0  0  0  0
  139.4690   69.0410  224.4360 C   0  0  0  0  0  0  0  0  0  0  0  0
  139.9560   69.4260  225.6750 C   0  0  0  0  0  0  0  0  0  0  0  0
  139.8720   68.6070  226.7620 C   0  0  0  0  0  0  0  0  0  0  0  0
  140.3760   69.0450  227.9680 C   0  0  0  0  0  0  0  0  0  0  0  0
  140.3340   68.2950  229.1040 F   0  0  0  0  0  0  0  0  0  0  0  0
  140.9450   70.2960  228.0300 C   0  0  0  0  0  0  0  0  0  0  0  0
  141.0390   71.1320  226.9470 C   0  0  0  0  0  0  0  0  0  0  0  0
  140.5300   70.6790  225.7430 C   0  0  0  0  0  0  0  0  0  0  0  0
  140.6270   71.5070  224.6950 N   0  0  0  0  0  0  0  0  0  0  0  0
  139.5150   73.7780  223.4040 H   0  0  0  0  0  0  0  0  0  0  0  0
  140.9385   74.2526  220.9571 H   0  0  0  0  0  0  0  0  0  0  0  0
  139.1691   73.9621  220.6428 H   0  0  0  0  0  0  0  0  0  0  0  0
  139.1976   77.3961  219.0926 H   0  0  0  0  0  0  0  0  0  0  0  0
  138.0098   77.0814  220.3944 H   0  0  0  0  0  0  0  0  0  0  0  0
  139.7401   79.4544  219.8770 H   0  0  0  0  0  0  0  0  0  0  0  0
  138.0464   79.3248  220.5363 H   0  0  0  0  0  0  0  0  0  0  0  0
  139.1405   80.0390  222.3941 H   0  0  0  0  0  0  0  0  0  0  0  0
  139.3031   78.2335  222.5646 H   0  0  0  0  0  0  0  0  0  0  0  0
  141.3454   80.3038  221.8891 H   0  0  0  0  0  0  0  0  0  0  0  0
  141.3868   78.8584  223.0239 H   0  0  0  0  0  0  0  0  0  0  0  0
  141.6734   78.9278  220.0571 H   0  0  0  0  0  0  0  0  0  0  0  0
  142.8547   78.4169  221.3979 H   0  0  0  0  0  0  0  0  0  0  0  0
  141.8862   76.5663  221.7782 H   0  0  0  0  0  0  0  0  0  0  0  0
  141.0067   75.9023  219.4677 H   0  0  0  0  0  0  0  0  0  0  0  0
  144.0754   76.1468  220.4279 H   0  0  0  0  0  0  0  0  0  0  0  0
  143.9386   75.0193  219.3659 H   0  0  0  0  0  0  0  0  0  0  0  0
  143.2469   78.1319  218.9845 H   0  0  0  0  0  0  0  0  0  0  0  0
  142.9641   77.3525  217.6674 H   0  0  0  0  0  0  0  0  0  0  0  0
  139.1863   69.5949  222.3825 H   0  0  0  0  0  0  0  0  0  0  0  0
  139.0003   68.0543  224.3069 H   0  0  0  0  0  0  0  0  0  0  0  0
  139.4094   67.6126  226.6779 H   0  0  0  0  0  0  0  0  0  0  0  0
  141.3438   70.6424  228.9948 H   0  0  0  0  0  0  0  0  0  0  0  0
  141.5020   72.1261  227.0325 H   0  0  0  0  0  0  0  0  0  0  0  0
  1  2  2  0
  2  3  1  0
  3  4  1  0
  4  5  1  0
  5  6  2  0
  5  7  1  0
  7  8  1  0
  8  9  1  0
  9 10  1  0
 10 11  1  0
 11 12  1  0
 12 13  1  0
 13 14  1  0
 14 15  1  0
 15 16  1  0
  2 17  1  0
 17 18  2  0
 18 19  1  0
 19 20  2  0
 20 21  1  0
 21 22  2  0
 22 23  1  0
 22 24  1  0
 24 25  2  0
 25 26  1  0
 26 27  2  0
 13  7  1  0
 16 14  1  0
 27 17  1  0
 26 20  1  0
  3 28  1  0
  4 29  1  0
  4 30  1  0
  8 31  1  0
  8 32  1  0
  9 33  1  0
  9 34  1  0
 10 35  1  0
 10 36  1  0
 11 37  1  0
 11 38  1  0
 12 39  1  0
 12 40  1  0
 13 41  1  1
 14 42  1  0
 15 43  1  0
 15 44  1  0
 16 45  1  0
 16 46  1  0
 18 47  1  0
 19 48  1  0
 21 49  1  0
 24 50  1  0
 25 51  1  0
M  END
>  <smiles>  (49) 
O=C(NCC(=O)N1CCCCCC1C1CC1)c1ccc2cc(F)ccc2n1

>  <score_type>  (49) 
oracle

>  <origin>  (49) 
autodockgpu

>  <m_score__min__energy>  (49) 
-6.0099999999999998

>  <m_primary>  (49) 
energy

>  <rmsd>  (49) 
2.256944365104889

>  <m_score__min__rmsd>  (49) 
2.256944365104889

>  <meeko>  (49) 
{"free_energy": -4.66, "intermolecular_energy": -7.94, "internal_energy": -1.88, "cluster_size": 22, "cluster_id": 2, "rank_in_cluster": 22}

>  <energy>  (49) 
-4.07

>  <cluster_rmsd>  (49) 
0.0

>  <cluster>  (49) 
10

$$$$

     RDKit          3D

 51 54  0  0  0  0  0  0  0  0999 V2000
  140.9600   71.8950  221.2550 O   0  0  0  0  0  0  0  0  0  0  0  0
  140.3950   72.3660  222.2750 C   0  0  0  0  0  0  0  0  0  0  0  0
  139.9320   73.7080  222.3580 N   0  0  0  0  0  0  0  0  0  0  0  0
  140.1150   74.5770  221.2280 C   0  0  0  0  0  0  0  0  0  0  0  0
  140.1150   76.0040  221.6030 C   0  0  0  0  0  0  0  0  0  0  0  0
  139.6610   76.3220  222.7430 O   0  0  0  0  0  0  0  0  0  0  0  0
  140.6140   76.9850  220.7030 N   0  0  0  0  0  0  0  0  0  0  0  0
  141.1990   76.5530  219.4490 C   0  0  0  0  0  0  0  0  0  0  0  0
  142.5190   77.2290  219.2800 C   0  0  0  0  0  0  0  0  0  0  0  0
  142.4110   78.5640  218.5760 C   0  0  0  0  0  0  0  0  0  0  0  0
  141.8730   79.6490  219.4690 C   0  0  0  0  0  0  0  0  0  0  0  0
  140.5410   79.3710  220.0700 C   0  0  0  0  0  0  0  0  0  0  0  0
  140.4830   78.3510  221.1430 C   0  0  2  0  0  0  0  0  0  0  0  0
  141.5140   78.5730  222.2260 C   0  0  0  0  0  0  0  0  0  0  0  0
  141.1800   79.4300  223.4040 C   0  0  0  0  0  0  0  0  0  0  0  0
  142.1910   79.8840  222.4070 C   0  0  0  0  0  0  0  0  0  0  0  0
  140.1850   71.5260  223.4510 C   0  0  0  0  0  0  0  0  0  0  0  0
  139.5220   70.3100  223.3150 C   0  0  0  0  0  0  0  0  0  0  0  0
  139.2950   69.4730  224.3950 C   0  0  0  0  0  0  0  0  0  0  0  0
  139.7370   69.8480  225.6540 C   0  0  0  0  0  0  0  0  0  0  0  0
  139.5370   69.0580  226.7460 C   0  0  0  0  0  0  0  0  0  0  0  0
  140.0000   69.4840  227.9730 C   0  0  0  0  0  0  0  0  0  0  0  0
  139.8440   68.7620  229.1150 F   0  0  0  0  0  0  0  0  0  0  0  0
  140.6480   70.6970  228.0470 C   0  0  0  0  0  0  0  0  0  0  0  0
  140.8580   71.5040  226.9590 C   0  0  0  0  0  0  0  0  0  0  0  0
  140.3880   71.0620  225.7340 C   0  0  0  0  0  0  0  0  0  0  0  0
  140.6000   71.8610  224.6810 N   0  0  0  0  0  0  0  0  0  0  0  0
  139.4610   74.1100  223.2010 H   0  0  0  0  0  0  0  0  0  0  0  0
  141.0775   74.3379  220.7521 H   0  0  0  0  0  0  0  0  0  0  0  0
  139.2710   74.4131  220.5419 H   0  0  0  0  0  0  0  0  0  0  0  0
  141.3406   75.4622  219.4627 H   0  0  0  0  0  0  0  0  0  0  0  0
  140.5331   76.8160  218.6139 H   0  0  0  0  0  0  0  0  0  0  0  0
  142.9601   77.3913  220.2745 H   0  0  0  0  0  0  0  0  0  0  0  0
  143.1466   76.5763  218.6554 H   0  0  0  0  0  0  0  0  0  0  0  0
  143.4112   78.8595  218.2264 H   0  0  0  0  0  0  0  0  0  0  0  0
  141.7073   78.4427  217.7393 H   0  0  0  0  0  0  0  0  0  0  0  0
  142.5908   79.8028  220.2882 H   0  0  0  0  0  0  0  0  0  0  0  0
  141.7409   80.5340  218.8292 H   0  0  0  0  0  0  0  0  0  0  0  0
  140.1636   80.3151  220.4899 H   0  0  0  0  0  0  0  0  0  0  0  0
  139.9403   78.9535  219.2485 H   0  0  0  0  0  0  0  0  0  0  0  0
  139.4651   78.4921  221.5355 H   0  0  0  0  0  0  0  0  0  0  0  0
  141.8684   77.5428  222.0736 H   0  0  0  0  0  0  0  0  0  0  0  0
  140.2014   79.9289  223.4623 H   0  0  0  0  0  0  0  0  0  0  0  0
  141.1707   79.2865  224.4946 H   0  0  0  0  0  0  0  0  0  0  0  0
  141.9588   80.7201  221.7309 H   0  0  0  0  0  0  0  0  0  0  0  0
  143.2383   80.2161  222.4596 H   0  0  0  0  0  0  0  0  0  0  0  0
  139.1675   70.0043  222.3196 H   0  0  0  0  0  0  0  0  0  0  0  0
  138.7679   68.5178  224.2546 H   0  0  0  0  0  0  0  0  0  0  0  0
  139.0141   68.0950  226.6502 H   0  0  0  0  0  0  0  0  0  0  0  0
  141.0151   71.0349  229.0274 H   0  0  0  0  0  0  0  0  0  0  0  0
  141.3806   72.4671  227.0556 H   0  0  0  0  0  0  0  0  0  0  0  0
  1  2  2  0
  2  3  1  0
  3  4  1  0
  4  5  1  0
  5  6  2  0
  5  7  1  0
  7  8  1  0
  8  9  1  0
  9 10  1  0
 10 11  1  0
 11 12  1  0
 12 13  1  0
 13 14  1  0
 14 15  1  0
 15 16  1  0
  2 17  1  0
 17 18  2  0
 18 19  1  0
 19 20  2  0
 20 21  1  0
 21 22  2  0
 22 23  1  0
 22 24  1  0
 24 25  2  0
 25 26  1  0
 26 27  2  0
 13  7  1  0
 16 14  1  0
 27 17  1  0
 26 20  1  0
  3 28  1  0
  4 29  1  0
  4 30  1  0
  8 31  1  0
  8 32  1  0
  9 33  1  0
  9 34  1  0
 10 35  1  0
 10 36  1  0
 11 37  1  0
 11 38  1  0
 12 39  1  0
 12 40  1  0
 13 41  1  1
 14 42  1  0
 15 43  1  0
 15 44  1  0
 16 45  1  0
 16 46  1  0
 18 47  1  0
 19 48  1  0
 21 49  1  0
 24 50  1  0
 25 51  1  0
M  END
>  <smiles>  (50) 
O=C(NCC(=O)N1CCCCCC1C1CC1)c1ccc2cc(F)ccc2n1

>  <score_type>  (50) 
oracle

>  <origin>  (50) 
autodockgpu

>  <m_score__min__energy>  (50) 
-6.0099999999999998

>  <m_primary>  (50) 
energy

>  <rmsd>  (50) 
2.122316221917818

>  <m_score__min__rmsd>  (50) 
2.122316221917818

>  <meeko>  (50) 
{"free_energy": -5.83, "intermolecular_energy": -9.11, "internal_energy": -1.59, "cluster_size": 22, "cluster_id": 2, "rank_in_cluster": 2}

>  <energy>  (50) 
-3.62

>  <cluster_rmsd>  (50) 
0.0

>  <cluster>  (50) 
11

$$$$

     RDKit          3D

 51 54  0  0  0  0  0  0  0  0999 V2000
  139.8510   73.0940  222.8080 O   0  0  0  0  0  0  0  0  0  0  0  0
  140.1040   71.8600  222.8480 C   0  0  0  0  0  0  0  0  0  0  0  0
  140.1800   71.0560  221.6650 N   0  0  0  0  0  0  0  0  0  0  0  0
  139.9540   71.7160  220.3930 C   0  0  0  0  0  0  0  0  0  0  0  0
  141.2500   71.8490  219.6810 C   0  0  0  0  0  0  0  0  0  0  0  0
  141.3860   71.4940  218.4620 O   0  0  0  0  0  0  0  0  0  0  0  0
  142.3860   72.3800  220.3530 N   0  0  0  0  0  0  0  0  0  0  0  0
  143.4420   71.4670  220.7430 C   0  0  0  0  0  0  0  0  0  0  0  0
  144.7130   71.7320  219.9540 C   0  0  0  0  0  0  0  0  0  0  0  0
  145.5690   72.7820  220.6290 C   0  0  0  0  0  0  0  0  0  0  0  0
  144.9110   74.0790  220.8720 C   0  0  0  0  0  0  0  0  0  0  0  0
  143.6690   74.4010  220.1300 C   0  0  0  0  0  0  0  0  0  0  0  0
  142.4000   73.8130  220.6010 C   0  0  1  0  0  0  0  0  0  0  0  0
  141.1430   74.4800  220.1370 C   0  0  0  0  0  0  0  0  0  0  0  0
  140.4970   75.5050  221.0970 C   0  0  0  0  0  0  0  0  0  0  0  0
  141.0270   75.8890  219.7730 C   0  0  0  0  0  0  0  0  0  0  0  0
  140.3280   71.2230  224.1500 C   0  0  0  0  0  0  0  0  0  0  0  0
  140.8200   71.9380  225.2050 C   0  0  0  0  0  0  0  0  0  0  0  0
  141.0560   71.4120  226.4510 C   0  0  0  0  0  0  0  0  0  0  0  0
  140.7790   70.0800  226.6440 C   0  0  0  0  0  0  0  0  0  0  0  0
  141.0070   69.5340  227.8800 C   0  0  0  0  0  0  0  0  0  0  0  0
  140.7230   68.1960  228.0520 C   0  0  0  0  0  0  0  0  0  0  0  0
  140.9280   67.5940  229.2600 F   0  0  0  0  0  0  0  0  0  0  0  0
  140.2270   67.4280  227.0260 C   0  0  0  0  0  0  0  0  0  0  0  0
  140.0140   68.0250  225.7990 C   0  0  0  0  0  0  0  0  0  0  0  0
  140.2830   69.3680  225.5690 C   0  0  0  0  0  0  0  0  0  0  0  0
  140.0620   69.9110  224.3600 N   0  0  0  0  0  0  0  0  0  0  0  0
  140.3930   70.0400  221.7480 H   0  0  0  0  0  0  0  0  0  0  0  0
  139.2590   71.1179  219.7854 H   0  0  0  0  0  0  0  0  0  0  0  0
  139.5192   72.7120  220.5630 H   0  0  0  0  0  0  0  0  0  0  0  0
  143.6511   71.5965  221.8152 H   0  0  0  0  0  0  0  0  0  0  0  0
  143.1097   70.4392  220.5353 H   0  0  0  0  0  0  0  0  0  0  0  0
  145.2876   70.7973  219.8753 H   0  0  0  0  0  0  0  0  0  0  0  0
  144.4324   72.1008  218.9564 H   0  0  0  0  0  0  0  0  0  0  0  0
  145.8948   72.3804  221.5999 H   0  0  0  0  0  0  0  0  0  0  0  0
  146.3960   72.9891  219.9339 H   0  0  0  0  0  0  0  0  0  0  0  0
  144.6673   74.1218  221.9438 H   0  0  0  0  0  0  0  0  0  0  0  0
  145.6383   74.8184  220.5056 H   0  0  0  0  0  0  0  0  0  0  0  0
  143.5498   75.4943  220.1535 H   0  0  0  0  0  0  0  0  0  0  0  0
  143.8228   73.9543  219.1366 H   0  0  0  0  0  0  0  0  0  0  0  0
  142.3859   74.0043  221.6841 H   0  0  0  0  0  0  0  0  0  0  0  0
  140.8753   73.5557  219.6041 H   0  0  0  0  0  0  0  0  0  0  0  0
  139.4122   75.4899  221.2789 H   0  0  0  0  0  0  0  0  0  0  0  0
  140.6580   75.8256  222.1369 H   0  0  0  0  0  0  0  0  0  0  0  0
  140.3282   76.1853  218.9768 H   0  0  0  0  0  0  0  0  0  0  0  0
  141.7515   76.6462  219.4387 H   0  0  0  0  0  0  0  0  0  0  0  0
  141.0413   73.0037  225.0459 H   0  0  0  0  0  0  0  0  0  0  0  0
  141.4529   72.0349  227.2662 H   0  0  0  0  0  0  0  0  0  0  0  0
  141.4030   70.1424  228.7065 H   0  0  0  0  0  0  0  0  0  0  0  0
  140.0046   66.3616  227.1786 H   0  0  0  0  0  0  0  0  0  0  0  0
  139.6170   67.4149  224.9742 H   0  0  0  0  0  0  0  0  0  0  0  0
  1  2  2  0
  2  3  1  0
  3  4  1  0
  4  5  1  0
  5  6  2  0
  5  7  1  0
  7  8  1  0
  8  9  1  0
  9 10  1  0
 10 11  1  0
 11 12  1  0
 12 13  1  0
 13 14  1  0
 14 15  1  0
 15 16  1  0
  2 17  1  0
 17 18  2  0
 18 19  1  0
 19 20  2  0
 20 21  1  0
 21 22  2  0
 22 23  1  0
 22 24  1  0
 24 25  2  0
 25 26  1  0
 26 27  2  0
 13  7  1  0
 16 14  1  0
 27 17  1  0
 26 20  1  0
  3 28  1  0
  4 29  1  0
  4 30  1  0
  8 31  1  0
  8 32  1  0
  9 33  1  0
  9 34  1  0
 10 35  1  0
 10 36  1  0
 11 37  1  0
 11 38  1  0
 12 39  1  0
 12 40  1  0
 13 41  1  1
 14 42  1  0
 15 43  1  0
 15 44  1  0
 16 45  1  0
 16 46  1  0
 18 47  1  0
 19 48  1  0
 21 49  1  0
 24 50  1  0
 25 51  1  0
M  END
>  <smiles>  (51) 
O=C(NCC(=O)N1CCCCCC1C1CC1)c1ccc2cc(F)ccc2n1

>  <score_type>  (51) 
oracle

>  <origin>  (51) 
autodockgpu

>  <m_score__min__energy>  (51) 
-6.04

>  <m_primary>  (51) 
energy

>  <rmsd>  (51) 
4.138485869346562

>  <m_score__min__rmsd>  (51) 
4.138485869346562

>  <meeko>  (51) 
{"free_energy": -5.02, "intermolecular_energy": -8.3, "internal_energy": -1.76, "cluster_size": 30, "cluster_id": 2, "rank_in_cluster": 14}

>  <energy>  (51) 
-6.04

>  <cluster_rmsd>  (51) 
0.0

>  <cluster>  (51) 
1

$$$$

     RDKit          3D

 51 54  0  0  0  0  0  0  0  0999 V2000
  136.2430   77.4070  222.4450 O   0  0  0  0  0  0  0  0  0  0  0  0
  136.5570   76.2610  222.8640 C   0  0  0  0  0  0  0  0  0  0  0  0
  137.7430   75.5860  222.4300 N   0  0  0  0  0  0  0  0  0  0  0  0
  138.5920   76.2730  221.4750 C   0  0  0  0  0  0  0  0  0  0  0  0
  139.9740   75.7410  221.5890 C   0  0  0  0  0  0  0  0  0  0  0  0
  140.2310   74.6760  222.2450 O   0  0  0  0  0  0  0  0  0  0  0  0
  141.0560   76.4170  220.9610 N   0  0  0  0  0  0  0  0  0  0  0  0
  141.7180   75.7680  219.8470 C   0  0  0  0  0  0  0  0  0  0  0  0
  141.0410   76.1110  218.5320 C   0  0  0  0  0  0  0  0  0  0  0  0
  141.2790   77.5580  218.1540 C   0  0  0  0  0  0  0  0  0  0  0  0
  142.0680   78.3460  219.1170 C   0  0  0  0  0  0  0  0  0  0  0  0
  141.4470   78.7240  220.4090 C   0  0  0  0  0  0  0  0  0  0  0  0
  141.4210   77.7210  221.4910 C   0  0  1  0  0  0  0  0  0  0  0  0
  140.6300   78.0770  222.7120 C   0  0  0  0  0  0  0  0  0  0  0  0
  141.3150   79.0000  223.7460 C   0  0  0  0  0  0  0  0  0  0  0  0
  140.1000   79.4050  223.0090 C   0  0  0  0  0  0  0  0  0  0  0  0
  135.6780   75.5920  223.8310 C   0  0  0  0  0  0  0  0  0  0  0  0
  134.8620   76.3160  224.6540 C   0  0  0  0  0  0  0  0  0  0  0  0
  134.0140   75.7640  225.5810 C   0  0  0  0  0  0  0  0  0  0  0  0
  133.9890   74.3930  225.6850 C   0  0  0  0  0  0  0  0  0  0  0  0
  133.1500   73.8200  226.6040 C   0  0  0  0  0  0  0  0  0  0  0  0
  133.1400   72.4440  226.6920 C   0  0  0  0  0  0  0  0  0  0  0  0
  132.3260   71.8130  227.5870 F   0  0  0  0  0  0  0  0  0  0  0  0
  133.9390   71.6660  225.8890 C   0  0  0  0  0  0  0  0  0  0  0  0
  134.7680   72.2910  224.9780 C   0  0  0  0  0  0  0  0  0  0  0  0
  134.8190   73.6740  224.8470 C   0  0  0  0  0  0  0  0  0  0  0  0
  135.6390   74.2430  223.9480 N   0  0  0  0  0  0  0  0  0  0  0  0
  137.9620   74.6390  222.8060 H   0  0  0  0  0  0  0  0  0  0  0  0
  138.2140   76.1032  220.4560 H   0  0  0  0  0  0  0  0  0  0  0  0
  138.5902   77.3529  221.6845 H   0  0  0  0  0  0  0  0  0  0  0  0
  142.7658   76.1006  219.8088 H   0  0  0  0  0  0  0  0  0  0  0  0
  141.6624   74.6793  219.9944 H   0  0  0  0  0  0  0  0  0  0  0  0
  141.4450   75.4624  217.7407 H   0  0  0  0  0  0  0  0  0  0  0  0
  139.9582   75.9548  218.6468 H   0  0  0  0  0  0  0  0  0  0  0  0
  141.8085   77.5733  217.1899 H   0  0  0  0  0  0  0  0  0  0  0  0
  140.2851   78.0283  218.1231 H   0  0  0  0  0  0  0  0  0  0  0  0
  142.9702   77.7617  219.3506 H   0  0  0  0  0  0  0  0  0  0  0  0
  142.2271   79.3075  218.6069 H   0  0  0  0  0  0  0  0  0  0  0  0
  141.9933   79.5997  220.7894 H   0  0  0  0  0  0  0  0  0  0  0  0
  140.3872   78.8876  220.1640 H   0  0  0  0  0  0  0  0  0  0  0  0
  142.4520   77.6930  221.8735 H   0  0  0  0  0  0  0  0  0  0  0  0
  140.1548   77.0859  222.6675 H   0  0  0  0  0  0  0  0  0  0  0  0
  141.2626   78.7676  224.8199 H   0  0  0  0  0  0  0  0  0  0  0  0
  142.3247   79.4108  223.8931 H   0  0  0  0  0  0  0  0  0  0  0  0
  139.1463   79.4974  223.5493 H   0  0  0  0  0  0  0  0  0  0  0  0
  139.8480   80.2758  222.3860 H   0  0  0  0  0  0  0  0  0  0  0  0
  134.8865   77.4123  224.5678 H   0  0  0  0  0  0  0  0  0  0  0  0
  133.3772   76.3955  226.2179 H   0  0  0  0  0  0  0  0  0  0  0  0
  132.5067   74.4362  227.2493 H   0  0  0  0  0  0  0  0  0  0  0  0
  133.9188   70.5692  225.9700 H   0  0  0  0  0  0  0  0  0  0  0  0
  135.4103   71.6728  224.3336 H   0  0  0  0  0  0  0  0  0  0  0  0
  1  2  2  0
  2  3  1  0
  3  4  1  0
  4  5  1  0
  5  6  2  0
  5  7  1  0
  7  8  1  0
  8  9  1  0
  9 10  1  0
 10 11  1  0
 11 12  1  0
 12 13  1  0
 13 14  1  0
 14 15  1  0
 15 16  1  0
  2 17  1  0
 17 18  2  0
 18 19  1  0
 19 20  2  0
 20 21  1  0
 21 22  2  0
 22 23  1  0
 22 24  1  0
 24 25  2  0
 25 26  1  0
 26 27  2  0
 13  7  1  0
 16 14  1  0
 27 17  1  0
 26 20  1  0
  3 28  1  0
  4 29  1  0
  4 30  1  0
  8 31  1  0
  8 32  1  0
  9 33  1  0
  9 34  1  0
 10 35  1  0
 10 36  1  0
 11 37  1  0
 11 38  1  0
 12 39  1  0
 12 40  1  0
 13 41  1  1
 14 42  1  0
 15 43  1  0
 15 44  1  0
 16 45  1  0
 16 46  1  0
 18 47  1  0
 19 48  1  0
 21 49  1  0
 24 50  1  0
 25 51  1  0
M  END
>  <smiles>  (52) 
O=C(NCC(=O)N1CCCCCC1C1CC1)c1ccc2cc(F)ccc2n1

>  <score_type>  (52) 
oracle

>  <origin>  (52) 
autodockgpu

>  <m_score__min__energy>  (52) 
-6.04

>  <m_primary>  (52) 
energy

>  <rmsd>  (52) 
5.74352867345112

>  <m_score__min__rmsd>  (52) 
5.74352867345112

>  <meeko>  (52) 
{"free_energy": -4.22, "intermolecular_energy": -7.5, "internal_energy": -1.83, "cluster_size": 2, "cluster_id": 7, "rank_in_cluster": 1}

>  <energy>  (52) 
-5.7

>  <cluster_rmsd>  (52) 
0.0

>  <cluster>  (52) 
2

$$$$

     RDKit          3D

 51 54  0  0  0  0  0  0  0  0999 V2000
  139.7540   74.8610  222.0880 O   0  0  0  0  0  0  0  0  0  0  0  0
  140.8400   75.2120  221.5520 C   0  0  0  0  0  0  0  0  0  0  0  0
  141.1750   76.5860  221.3300 N   0  0  0  0  0  0  0  0  0  0  0  0
  140.2090   77.5860  221.7470 C   0  0  0  0  0  0  0  0  0  0  0  0
  140.5260   78.8720  221.0750 C   0  0  0  0  0  0  0  0  0  0  0  0
  141.3490   78.9340  220.1000 O   0  0  0  0  0  0  0  0  0  0  0  0
  139.9120   80.0790  221.5100 N   0  0  0  0  0  0  0  0  0  0  0  0
  138.6360   80.4480  220.9290 C   0  0  0  0  0  0  0  0  0  0  0  0
  137.6440   80.8600  222.0030 C   0  0  0  0  0  0  0  0  0  0  0  0
  137.6180   79.8610  223.1390 C   0  0  0  0  0  0  0  0  0  0  0  0
  138.8270   79.8230  223.9820 C   0  0  0  0  0  0  0  0  0  0  0  0
  139.8670   80.8580  223.7840 C   0  0  0  0  0  0  0  0  0  0  0  0
  140.6190   80.8580  222.5140 C   0  0  1  0  0  0  0  0  0  0  0  0
  142.0680   80.4950  222.5950 C   0  0  0  0  0  0  0  0  0  0  0  0
  142.8000   80.8210  223.9180 C   0  0  0  0  0  0  0  0  0  0  0  0
  142.6210   79.4360  223.4360 C   0  0  0  0  0  0  0  0  0  0  0  0
  141.7960   74.1770  221.1410 C   0  0  0  0  0  0  0  0  0  0  0  0
  141.4170   72.8670  221.0560 C   0  0  0  0  0  0  0  0  0  0  0  0
  142.2530   71.8450  220.6800 C   0  0  0  0  0  0  0  0  0  0  0  0
  143.5540   72.1660  220.3710 C   0  0  0  0  0  0  0  0  0  0  0  0
  144.4040   71.1610  219.9940 C   0  0  0  0  0  0  0  0  0  0  0  0
  145.7050   71.5040  219.6880 C   0  0  0  0  0  0  0  0  0  0  0  0
  146.6020   70.5490  219.3050 F   0  0  0  0  0  0  0  0  0  0  0  0
  146.1410   72.8050  219.7560 C   0  0  0  0  0  0  0  0  0  0  0  0
  145.2440   73.7820  220.1420 C   0  0  0  0  0  0  0  0  0  0  0  0
  143.9230   73.4930  220.4620 C   0  0  0  0  0  0  0  0  0  0  0  0
  143.0820   74.4730  220.8330 N   0  0  0  0  0  0  0  0  0  0  0  0
  142.0850   76.8280  220.8840 H   0  0  0  0  0  0  0  0  0  0  0  0
  139.1966   77.2616  221.4644 H   0  0  0  0  0  0  0  0  0  0  0  0
  140.2544   77.7151  222.8384 H   0  0  0  0  0  0  0  0  0  0  0  0
  138.7864   81.2898  220.2371 H   0  0  0  0  0  0  0  0  0  0  0  0
  138.2303   79.5760  220.3951 H   0  0  0  0  0  0  0  0  0  0  0  0
  137.9325   81.8451  222.3985 H   0  0  0  0  0  0  0  0  0  0  0  0
  136.6412   80.9002  221.5527 H   0  0  0  0  0  0  0  0  0  0  0  0
  136.7623   80.1059  223.7854 H   0  0  0  0  0  0  0  0  0  0  0  0
  137.5494   78.8700  222.6666 H   0  0  0  0  0  0  0  0  0  0  0  0
  138.4943   79.8949  225.0280 H   0  0  0  0  0  0  0  0  0  0  0  0
  139.3249   78.8863  223.6911 H   0  0  0  0  0  0  0  0  0  0  0  0
  139.3732   81.8371  223.8705 H   0  0  0  0  0  0  0  0  0  0  0  0
  140.6246   80.6325  224.5490 H   0  0  0  0  0  0  0  0  0  0  0  0
  140.6558   81.9144  222.2097 H   0  0  0  0  0  0  0  0  0  0  0  0
  142.1593   80.7070  221.5195 H   0  0  0  0  0  0  0  0  0  0  0  0
  143.7943   81.2913  223.9023 H   0  0  0  0  0  0  0  0  0  0  0  0
  142.5620   81.3753  224.8378 H   0  0  0  0  0  0  0  0  0  0  0  0
  143.4959   78.8691  223.0850 H   0  0  0  0  0  0  0  0  0  0  0  0
  142.1948   78.5274  223.8864 H   0  0  0  0  0  0  0  0  0  0  0  0
  140.3755   72.6152  221.3047 H   0  0  0  0  0  0  0  0  0  0  0  0
  141.8949   70.8062  220.6277 H   0  0  0  0  0  0  0  0  0  0  0  0
  144.0619   70.1171  219.9371 H   0  0  0  0  0  0  0  0  0  0  0  0
  147.1813   73.0630  219.5086 H   0  0  0  0  0  0  0  0  0  0  0  0
  145.5875   74.8255  220.1980 H   0  0  0  0  0  0  0  0  0  0  0  0
  1  2  2  0
  2  3  1  0
  3  4  1  0
  4  5  1  0
  5  6  2  0
  5  7  1  0
  7  8  1  0
  8  9  1  0
  9 10  1  0
 10 11  1  0
 11 12  1  0
 12 13  1  0
 13 14  1  0
 14 15  1  0
 15 16  1  0
  2 17  1  0
 17 18  2  0
 18 19  1  0
 19 20  2  0
 20 21  1  0
 21 22  2  0
 22 23  1  0
 22 24  1  0
 24 25  2  0
 25 26  1  0
 26 27  2  0
 13  7  1  0
 16 14  1  0
 27 17  1  0
 26 20  1  0
  3 28  1  0
  4 29  1  0
  4 30  1  0
  8 31  1  0
  8 32  1  0
  9 33  1  0
  9 34  1  0
 10 35  1  0
 10 36  1  0
 11 37  1  0
 11 38  1  0
 12 39  1  0
 12 40  1  0
 13 41  1  6
 14 42  1  0
 15 43  1  0
 15 44  1  0
 16 45  1  0
 16 46  1  0
 18 47  1  0
 19 48  1  0
 21 49  1  0
 24 50  1  0
 25 51  1  0
M  END
>  <smiles>  (53) 
O=C(NCC(=O)N1CCCCCC1C1CC1)c1ccc2cc(F)ccc2n1

>  <score_type>  (53) 
oracle

>  <origin>  (53) 
autodockgpu

>  <m_score__min__energy>  (53) 
-6.04

>  <m_primary>  (53) 
energy

>  <rmsd>  (53) 
6.775783092285359

>  <m_score__min__rmsd>  (53) 
6.775783092285359

>  <meeko>  (53) 
{"free_energy": -4.56, "intermolecular_energy": -7.84, "internal_energy": -1.96, "cluster_size": 2, "cluster_id": 6, "rank_in_cluster": 1}

>  <energy>  (53) 
-5.59

>  <cluster_rmsd>  (53) 
0.14

>  <cluster>  (53) 
2

$$$$

     RDKit          3D

 51 54  0  0  0  0  0  0  0  0999 V2000
  141.4460   72.3940  221.4430 O   0  0  0  0  0  0  0  0  0  0  0  0
  140.5480   72.5850  222.3060 C   0  0  0  0  0  0  0  0  0  0  0  0
  139.6690   73.7150  222.2590 N   0  0  0  0  0  0  0  0  0  0  0  0
  139.8440   74.6530  221.1660 C   0  0  0  0  0  0  0  0  0  0  0  0
  139.3310   75.9820  221.5850 C   0  0  0  0  0  0  0  0  0  0  0  0
  138.3990   76.0990  222.4510 O   0  0  0  0  0  0  0  0  0  0  0  0
  139.8730   77.1710  221.0230 N   0  0  0  0  0  0  0  0  0  0  0  0
  139.0880   77.8820  220.0330 C   0  0  0  0  0  0  0  0  0  0  0  0
  139.2830   77.2880  218.6490 C   0  0  0  0  0  0  0  0  0  0  0  0
  140.7430   77.2930  218.2510 C   0  0  0  0  0  0  0  0  0  0  0  0
  141.6190   78.1670  219.0520 C   0  0  0  0  0  0  0  0  0  0  0  0
  142.1270   77.6690  220.3530 C   0  0  0  0  0  0  0  0  0  0  0  0
  141.1870   77.5850  221.4870 C   0  0  1  0  0  0  0  0  0  0  0  0
  141.1190   78.7800  222.3870 C   0  0  0  0  0  0  0  0  0  0  0  0
  141.9340   78.7170  223.6990 C   0  0  0  0  0  0  0  0  0  0  0  0
  142.2210   79.7040  222.6380 C   0  0  0  0  0  0  0  0  0  0  0  0
  140.3960   71.6180  223.3990 C   0  0  0  0  0  0  0  0  0  0  0  0
  139.7680   70.4220  223.1940 C   0  0  0  0  0  0  0  0  0  0  0  0
  139.5880   69.4680  224.1650 C   0  0  0  0  0  0  0  0  0  0  0  0
  140.0720   69.7400  225.4230 C   0  0  0  0  0  0  0  0  0  0  0  0
  139.9030   68.8020  226.4070 C   0  0  0  0  0  0  0  0  0  0  0  0
  140.3950   69.0950  227.6620 C   0  0  0  0  0  0  0  0  0  0  0  0
  140.2580   68.2020  228.6850 F   0  0  0  0  0  0  0  0  0  0  0  0
  141.0340   70.2820  227.9250 C   0  0  0  0  0  0  0  0  0  0  0  0
  141.1790   71.1950  226.8990 C   0  0  0  0  0  0  0  0  0  0  0  0
  140.7030   70.9530  225.6160 C   0  0  0  0  0  0  0  0  0  0  0  0
  140.8650   71.8680  224.6450 N   0  0  0  0  0  0  0  0  0  0  0  0
  138.9400   73.8300  222.9950 H   0  0  0  0  0  0  0  0  0  0  0  0
  140.9120   74.7320  220.9148 H   0  0  0  0  0  0  0  0  0  0  0  0
  139.2911   74.3022  220.2821 H   0  0  0  0  0  0  0  0  0  0  0  0
  138.0240   77.8176  220.3047 H   0  0  0  0  0  0  0  0  0  0  0  0
  139.4197   78.9306  220.0124 H   0  0  0  0  0  0  0  0  0  0  0  0
  138.9147   76.2515  218.6485 H   0  0  0  0  0  0  0  0  0  0  0  0
  138.7232   77.8994  217.9260 H   0  0  0  0  0  0  0  0  0  0  0  0
  141.1210   76.2637  218.3382 H   0  0  0  0  0  0  0  0  0  0  0  0
  140.7741   77.6933  217.2269 H   0  0  0  0  0  0  0  0  0  0  0  0
  142.4959   78.4026  218.4311 H   0  0  0  0  0  0  0  0  0  0  0  0
  140.9724   79.0140  219.3251 H   0  0  0  0  0  0  0  0  0  0  0  0
  142.5218   76.6566  220.1821 H   0  0  0  0  0  0  0  0  0  0  0  0
  142.8606   78.4269  220.6651 H   0  0  0  0  0  0  0  0  0  0  0  0
  141.6098   76.8128  222.1464 H   0  0  0  0  0  0  0  0  0  0  0  0
  140.0814   78.9408  222.0590 H   0  0  0  0  0  0  0  0  0  0  0  0
  141.4832   79.0376  224.6498 H   0  0  0  0  0  0  0  0  0  0  0  0
  142.5052   77.9477  224.2393 H   0  0  0  0  0  0  0  0  0  0  0  0
  142.0040   80.7675  222.8167 H   0  0  0  0  0  0  0  0  0  0  0  0
  143.1291   79.9688  222.0766 H   0  0  0  0  0  0  0  0  0  0  0  0
  139.3817   70.2097  222.1862 H   0  0  0  0  0  0  0  0  0  0  0  0
  139.0751   68.5202  223.9445 H   0  0  0  0  0  0  0  0  0  0  0  0
  139.3930   67.8489  226.2036 H   0  0  0  0  0  0  0  0  0  0  0  0
  141.4218   70.5007  228.9309 H   0  0  0  0  0  0  0  0  0  0  0  0
  141.6894   72.1475  227.1046 H   0  0  0  0  0  0  0  0  0  0  0  0
  1  2  2  0
  2  3  1  0
  3  4  1  0
  4  5  1  0
  5  6  2  0
  5  7  1  0
  7  8  1  0
  8  9  1  0
  9 10  1  0
 10 11  1  0
 11 12  1  0
 12 13  1  0
 13 14  1  0
 14 15  1  0
 15 16  1  0
  2 17  1  0
 17 18  2  0
 18 19  1  0
 19 20  2  0
 20 21  1  0
 21 22  2  0
 22 23  1  0
 22 24  1  0
 24 25  2  0
 25 26  1  0
 26 27  2  0
 13  7  1  0
 16 14  1  0
 27 17  1  0
 26 20  1  0
  3 28  1  0
  4 29  1  0
  4 30  1  0
  8 31  1  0
  8 32  1  0
  9 33  1  0
  9 34  1  0
 10 35  1  0
 10 36  1  0
 11 37  1  0
 11 38  1  0
 12 39  1  0
 12 40  1  0
 13 41  1  1
 14 42  1  0
 15 43  1  0
 15 44  1  0
 16 45  1  0
 16 46  1  0
 18 47  1  0
 19 48  1  0
 21 49  1  0
 24 50  1  0
 25 51  1  0
M  END
>  <smiles>  (54) 
O=C(NCC(=O)N1CCCCCC1C1CC1)c1ccc2cc(F)ccc2n1

>  <score_type>  (54) 
oracle

>  <origin>  (54) 
autodockgpu

>  <m_score__min__energy>  (54) 
-6.04

>  <m_primary>  (54) 
energy

>  <rmsd>  (54) 
2.0719550749994458

>  <m_score__min__rmsd>  (54) 
2.0719550749994458

>  <meeko>  (54) 
{"free_energy": -5.31, "intermolecular_energy": -8.6, "internal_energy": -1.62, "cluster_size": 10, "cluster_id": 3, "rank_in_cluster": 5}

>  <energy>  (54) 
-5.4

>  <cluster_rmsd>  (54) 
0.9

>  <cluster>  (54) 
2

$$$$

     RDKit          3D

 51 54  0  0  0  0  0  0  0  0999 V2000
  139.2650   71.1170  221.1310 O   0  0  0  0  0  0  0  0  0  0  0  0
  139.5110   71.7240  222.2080 C   0  0  0  0  0  0  0  0  0  0  0  0
  139.6700   73.1460  222.2670 N   0  0  0  0  0  0  0  0  0  0  0  0
  139.5370   73.8850  221.0260 C   0  0  0  0  0  0  0  0  0  0  0  0
  140.5900   73.4330  220.0810 C   0  0  0  0  0  0  0  0  0  0  0  0
  140.3210   73.1430  218.8660 O   0  0  0  0  0  0  0  0  0  0  0  0
  141.9390   73.3100  220.5140 N   0  0  0  0  0  0  0  0  0  0  0  0
  142.4220   71.9940  220.8860 C   0  0  0  0  0  0  0  0  0  0  0  0
  143.2760   71.3930  219.7840 C   0  0  0  0  0  0  0  0  0  0  0  0
  144.7010   71.8980  219.8560 C   0  0  0  0  0  0  0  0  0  0  0  0
  144.8610   73.3620  219.7970 C   0  0  0  0  0  0  0  0  0  0  0  0
  144.1550   74.1960  220.7940 C   0  0  0  0  0  0  0  0  0  0  0  0
  142.7370   74.5240  220.5520 C   0  0  1  0  0  0  0  0  0  0  0  0
  142.4480   75.4280  219.3950 C   0  0  0  0  0  0  0  0  0  0  0  0
  142.1330   76.9060  219.7200 C   0  0  0  0  0  0  0  0  0  0  0  0
  143.3200   76.5060  218.9360 C   0  0  0  0  0  0  0  0  0  0  0  0
  139.6390   70.9470  223.4470 C   0  0  0  0  0  0  0  0  0  0  0  0
  139.1740   69.6650  223.5220 C   0  0  0  0  0  0  0  0  0  0  0  0
  139.2570   68.8780  224.6440 C   0  0  0  0  0  0  0  0  0  0  0  0
  139.8480   69.4200  225.7600 C   0  0  0  0  0  0  0  0  0  0  0  0
  139.9420   68.6520  226.8910 C   0  0  0  0  0  0  0  0  0  0  0  0
  140.5380   69.2140  228.0000 C   0  0  0  0  0  0  0  0  0  0  0  0
  140.6620   68.5010  229.1570 F   0  0  0  0  0  0  0  0  0  0  0  0
  141.0230   70.4990  227.9820 C   0  0  0  0  0  0  0  0  0  0  0  0
  140.9050   71.2330  226.8180 C   0  0  0  0  0  0  0  0  0  0  0  0
  140.3140   70.7170  225.6710 C   0  0  0  0  0  0  0  0  0  0  0  0
  140.2180   71.4640  224.5580 N   0  0  0  0  0  0  0  0  0  0  0  0
  139.8720   73.6030  223.1810 H   0  0  0  0  0  0  0  0  0  0  0  0
  138.5446   73.6983  220.5897 H   0  0  0  0  0  0  0  0  0  0  0  0
  139.6482   74.9620  221.2201 H   0  0  0  0  0  0  0  0  0  0  0  0
  143.0250   72.0785  221.8021 H   0  0  0  0  0  0  0  0  0  0  0  0
  141.5548   71.3381  221.0527 H   0  0  0  0  0  0  0  0  0  0  0  0
  143.2781   70.2980  219.8890 H   0  0  0  0  0  0  0  0  0  0  0  0
  142.8508   71.6899  218.8139 H   0  0  0  0  0  0  0  0  0  0  0  0
  145.1368   71.5477  220.8033 H   0  0  0  0  0  0  0  0  0  0  0  0
  145.2058   71.5036  218.9618 H   0  0  0  0  0  0  0  0  0  0  0  0
  145.9353   73.5744  219.9002 H   0  0  0  0  0  0  0  0  0  0  0  0
  144.3977   73.6422  218.8394 H   0  0  0  0  0  0  0  0  0  0  0  0
  144.2073   73.6670  221.7570 H   0  0  0  0  0  0  0  0  0  0  0  0
  144.6700   75.1670  220.7498 H   0  0  0  0  0  0  0  0  0  0  0  0
  142.4400   75.1394  221.4140 H   0  0  0  0  0  0  0  0  0  0  0  0
  141.9896   74.5758  218.8719 H   0  0  0  0  0  0  0  0  0  0  0  0
  141.2894   77.4154  219.2312 H   0  0  0  0  0  0  0  0  0  0  0  0
  141.9483   77.4934  220.6315 H   0  0  0  0  0  0  0  0  0  0  0  0
  143.3644   76.7451  217.8632 H   0  0  0  0  0  0  0  0  0  0  0  0
  144.3971   76.7040  219.0393 H   0  0  0  0  0  0  0  0  0  0  0  0
  138.7026   69.2353  222.6258 H   0  0  0  0  0  0  0  0  0  0  0  0
  138.8645   67.8504  224.6494 H   0  0  0  0  0  0  0  0  0  0  0  0
  139.5552   67.6225  226.9133 H   0  0  0  0  0  0  0  0  0  0  0  0
  141.4951   70.9340  228.8752 H   0  0  0  0  0  0  0  0  0  0  0  0
  141.2925   72.2623  226.7982 H   0  0  0  0  0  0  0  0  0  0  0  0
  1  2  2  0
  2  3  1  0
  3  4  1  0
  4  5  1  0
  5  6  2  0
  5  7  1  0
  7  8  1  0
  8  9  1  0
  9 10  1  0
 10 11  1  0
 11 12  1  0
 12 13  1  0
 13 14  1  0
 14 15  1  0
 15 16  1  0
  2 17  1  0
 17 18  2  0
 18 19  1  0
 19 20  2  0
 20 21  1  0
 21 22  2  0
 22 23  1  0
 22 24  1  0
 24 25  2  0
 25 26  1  0
 26 27  2  0
 13  7  1  0
 16 14  1  0
 27 17  1  0
 26 20  1  0
  3 28  1  0
  4 29  1  0
  4 30  1  0
  8 31  1  0
  8 32  1  0
  9 33  1  0
  9 34  1  0
 10 35  1  0
 10 36  1  0
 11 37  1  0
 11 38  1  0
 12 39  1  0
 12 40  1  0
 13 41  1  1
 14 42  1  0
 15 43  1  0
 15 44  1  0
 16 45  1  0
 16 46  1  0
 18 47  1  0
 19 48  1  0
 21 49  1  0
 24 50  1  0
 25 51  1  0
M  END
>  <smiles>  (55) 
O=C(NCC(=O)N1CCCCCC1C1CC1)c1ccc2cc(F)ccc2n1

>  <score_type>  (55) 
oracle

>  <origin>  (55) 
autodockgpu

>  <m_score__min__energy>  (55) 
-6.04

>  <m_primary>  (55) 
energy

>  <rmsd>  (55) 
3.0553720068234695

>  <m_score__min__rmsd>  (55) 
3.0553720068234695

>  <meeko>  (55) 
{"free_energy": -4.67, "intermolecular_energy": -7.95, "internal_energy": -1.79, "cluster_size": 30, "cluster_id": 2, "rank_in_cluster": 22}

>  <energy>  (55) 
-5.4

>  <cluster_rmsd>  (55) 
0.44

>  <cluster>  (55) 
2

$$$$

     RDKit          3D

 51 54  0  0  0  0  0  0  0  0999 V2000
  140.8410   73.5520  220.2420 O   0  0  0  0  0  0  0  0  0  0  0  0
  140.4760   74.2190  221.2470 C   0  0  0  0  0  0  0  0  0  0  0  0
  139.7270   73.6380  222.3200 N   0  0  0  0  0  0  0  0  0  0  0  0
  139.3930   72.2290  222.2170 C   0  0  0  0  0  0  0  0  0  0  0  0
  139.6720   71.5710  223.5180 C   0  0  0  0  0  0  0  0  0  0  0  0
  140.2260   72.2000  224.4820 O   0  0  0  0  0  0  0  0  0  0  0  0
  139.3240   70.2070  223.7210 N   0  0  0  0  0  0  0  0  0  0  0  0
  139.2240   69.3440  222.5610 C   0  0  0  0  0  0  0  0  0  0  0  0
  137.8290   69.3930  221.9610 C   0  0  0  0  0  0  0  0  0  0  0  0
  136.8210   69.9180  222.9600 C   0  0  0  0  0  0  0  0  0  0  0  0
  136.7680   69.2030  224.2480 C   0  0  0  0  0  0  0  0  0  0  0  0
  137.6460   69.6560  225.3520 C   0  0  0  0  0  0  0  0  0  0  0  0
  139.0940   69.7780  225.0910 C   0  0  1  0  0  0  0  0  0  0  0  0
  139.9410   68.6030  225.4670 C   0  0  0  0  0  0  0  0  0  0  0  0
  140.6540   68.6620  226.8370 C   0  0  0  0  0  0  0  0  0  0  0  0
  139.6260   67.6480  226.5260 C   0  0  0  0  0  0  0  0  0  0  0  0
  140.8290   75.6420  221.3220 C   0  0  0  0  0  0  0  0  0  0  0  0
  141.5290   76.2440  220.3150 C   0  0  0  0  0  0  0  0  0  0  0  0
  141.8950   77.5670  220.3140 C   0  0  0  0  0  0  0  0  0  0  0  0
  141.5330   78.3300  221.3990 C   0  0  0  0  0  0  0  0  0  0  0  0
  141.8890   79.6520  221.4190 C   0  0  0  0  0  0  0  0  0  0  0  0
  141.5160   80.4000  222.5170 C   0  0  0  0  0  0  0  0  0  0  0  0
  141.8400   81.7240  222.5960 F   0  0  0  0  0  0  0  0  0  0  0  0
  140.8120   79.8460  223.5580 C   0  0  0  0  0  0  0  0  0  0  0  0
  140.4770   78.5080  223.4910 C   0  0  0  0  0  0  0  0  0  0  0  0
  140.8270   77.7080  222.4100 C   0  0  0  0  0  0  0  0  0  0  0  0
  140.4820   76.4090  222.3830 N   0  0  0  0  0  0  0  0  0  0  0  0
  139.4480   74.2290  223.1320 H   0  0  0  0  0  0  0  0  0  0  0  0
  138.3268   72.1196  221.9693 H   0  0  0  0  0  0  0  0  0  0  0  0
  139.9968   71.7603  221.4259 H   0  0  0  0  0  0  0  0  0  0  0  0
  139.9520   69.6729  221.8048 H   0  0  0  0  0  0  0  0  0  0  0  0
  139.4329   68.3108  222.8754 H   0  0  0  0  0  0  0  0  0  0  0  0
  137.8398   70.0536  221.0815 H   0  0  0  0  0  0  0  0  0  0  0  0
  137.5368   68.3716  221.6758 H   0  0  0  0  0  0  0  0  0  0  0  0
  137.0663   70.9701  223.1670 H   0  0  0  0  0  0  0  0  0  0  0  0
  135.8344   69.7740  222.4955 H   0  0  0  0  0  0  0  0  0  0  0  0
  135.7318   69.2679  224.6115 H   0  0  0  0  0  0  0  0  0  0  0  0
  137.1395   68.1957  224.0087 H   0  0  0  0  0  0  0  0  0  0  0  0
  137.2875   70.6470  225.6672 H   0  0  0  0  0  0  0  0  0  0  0  0
  137.5725   68.8553  226.1026 H   0  0  0  0  0  0  0  0  0  0  0  0
  139.4418   70.5545  225.7882 H   0  0  0  0  0  0  0  0  0  0  0  0
  140.1913   68.4706  224.4041 H   0  0  0  0  0  0  0  0  0  0  0  0
  141.7115   68.3726  226.9266 H   0  0  0  0  0  0  0  0  0  0  0  0
  140.8047   69.4217  227.6181 H   0  0  0  0  0  0  0  0  0  0  0  0
  139.9234   66.5953  226.4100 H   0  0  0  0  0  0  0  0  0  0  0  0
  138.6898   67.3443  227.0171 H   0  0  0  0  0  0  0  0  0  0  0  0
  141.8178   75.6293  219.4497 H   0  0  0  0  0  0  0  0  0  0  0  0
  142.4580   78.0014  219.4748 H   0  0  0  0  0  0  0  0  0  0  0  0
  142.4528   80.1022  220.5886 H   0  0  0  0  0  0  0  0  0  0  0  0
  140.5212   80.4551  224.4266 H   0  0  0  0  0  0  0  0  0  0  0  0
  139.9134   78.0597  224.3225 H   0  0  0  0  0  0  0  0  0  0  0  0
  1  2  2  0
  2  3  1  0
  3  4  1  0
  4  5  1  0
  5  6  2  0
  5  7  1  0
  7  8  1  0
  8  9  1  0
  9 10  1  0
 10 11  1  0
 11 12  1  0
 12 13  1  0
 13 14  1  0
 14 15  1  0
 15 16  1  0
  2 17  1  0
 17 18  2  0
 18 19  1  0
 19 20  2  0
 20 21  1  0
 21 22  2  0
 22 23  1  0
 22 24  1  0
 24 25  2  0
 25 26  1  0
 26 27  2  0
 13  7  1  0
 16 14  1  0
 27 17  1  0
 26 20  1  0
  3 28  1  0
  4 29  1  0
  4 30  1  0
  8 31  1  0
  8 32  1  0
  9 33  1  0
  9 34  1  0
 10 35  1  0
 10 36  1  0
 11 37  1  0
 11 38  1  0
 12 39  1  0
 12 40  1  0
 13 41  1  1
 14 42  1  0
 15 43  1  0
 15 44  1  0
 16 45  1  0
 16 46  1  0
 18 47  1  0
 19 48  1  0
 21 49  1  0
 24 50  1  0
 25 51  1  0
M  END
>  <smiles>  (56) 
O=C(NCC(=O)N1CCCCCC1C1CC1)c1ccc2cc(F)ccc2n1

>  <score_type>  (56) 
oracle

>  <origin>  (56) 
autodockgpu

>  <m_score__min__energy>  (56) 
-6.04

>  <m_primary>  (56) 
energy

>  <rmsd>  (56) 
8.52228947426733

>  <m_score__min__rmsd>  (56) 
8.52228947426733

>  <meeko>  (56) 
{"free_energy": -4.7, "intermolecular_energy": -7.98, "internal_energy": -1.67, "cluster_size": 1, "cluster_id": 5, "rank_in_cluster": 1}

>  <energy>  (56) 
-5.39

>  <cluster_rmsd>  (56) 
0.79

>  <cluster>  (56) 
2

$$$$

     RDKit          3D

 51 54  0  0  0  0  0  0  0  0999 V2000
  139.3680   70.9280  221.1790 O   0  0  0  0  0  0  0  0  0  0  0  0
  139.4620   71.5340  222.2800 C   0  0  0  0  0  0  0  0  0  0  0  0
  139.4610   72.9630  222.3700 N   0  0  0  0  0  0  0  0  0  0  0  0
  139.3460   73.7110  221.1320 C   0  0  0  0  0  0  0  0  0  0  0  0
  140.4950   74.6460  221.0260 C   0  0  0  0  0  0  0  0  0  0  0  0
  140.9660   75.2480  222.0490 O   0  0  0  0  0  0  0  0  0  0  0  0
  141.1010   74.8960  219.7640 N   0  0  0  0  0  0  0  0  0  0  0  0
  140.6630   76.0540  219.0100 C   0  0  0  0  0  0  0  0  0  0  0  0
  141.4300   77.2980  219.4220 C   0  0  0  0  0  0  0  0  0  0  0  0
  142.9040   77.1650  219.1040 C   0  0  0  0  0  0  0  0  0  0  0  0
  143.5830   76.0040  219.7070 C   0  0  0  0  0  0  0  0  0  0  0  0
  143.3970   74.6700  219.0890 C   0  0  0  0  0  0  0  0  0  0  0  0
  142.1240   73.9620  219.3230 C   0  0  1  0  0  0  0  0  0  0  0  0
  142.1880   72.7420  220.1880 C   0  0  0  0  0  0  0  0  0  0  0  0
  142.9650   71.5270  219.6300 C   0  0  0  0  0  0  0  0  0  0  0  0
  143.3910   72.2460  220.8490 C   0  0  0  0  0  0  0  0  0  0  0  0
  139.5770   70.7480  223.5150 C   0  0  0  0  0  0  0  0  0  0  0  0
  139.1160   69.4640  223.5740 C   0  0  0  0  0  0  0  0  0  0  0  0
  139.1880   68.6680  224.6900 C   0  0  0  0  0  0  0  0  0  0  0  0
  139.7610   69.2050  225.8190 C   0  0  0  0  0  0  0  0  0  0  0  0
  139.8430   68.4280  226.9450 C   0  0  0  0  0  0  0  0  0  0  0  0
  140.4210   68.9850  228.0660 C   0  0  0  0  0  0  0  0  0  0  0  0
  140.5320   68.2630  229.2190 F   0  0  0  0  0  0  0  0  0  0  0  0
  140.9020   70.2720  228.0640 C   0  0  0  0  0  0  0  0  0  0  0  0
  140.7950   71.0140  226.9040 C   0  0  0  0  0  0  0  0  0  0  0  0
  140.2220   70.5040  225.7460 C   0  0  0  0  0  0  0  0  0  0  0  0
  140.1380   71.2590  224.6370 N   0  0  0  0  0  0  0  0  0  0  0  0
  139.5400   73.4190  223.3040 H   0  0  0  0  0  0  0  0  0  0  0  0
  139.3551   73.0166  220.2789 H   0  0  0  0  0  0  0  0  0  0  0  0
  138.4030   74.2773  221.1251 H   0  0  0  0  0  0  0  0  0  0  0  0
  140.8287   75.8685  217.9385 H   0  0  0  0  0  0  0  0  0  0  0  0
  139.5947   76.2193  219.2136 H   0  0  0  0  0  0  0  0  0  0  0  0
  141.0235   78.1653  218.8812 H   0  0  0  0  0  0  0  0  0  0  0  0
  141.3195   77.4305  220.5084 H   0  0  0  0  0  0  0  0  0  0  0  0
  143.0091   77.0889  218.0117 H   0  0  0  0  0  0  0  0  0  0  0  0
  143.3867   78.0540  219.5362 H   0  0  0  0  0  0  0  0  0  0  0  0
  144.6619   76.2183  219.6958 H   0  0  0  0  0  0  0  0  0  0  0  0
  143.1154   75.9065  220.6979 H   0  0  0  0  0  0  0  0  0  0  0  0
  143.5038   74.7971  218.0016 H   0  0  0  0  0  0  0  0  0  0  0  0
  144.1531   74.0372  219.5767 H   0  0  0  0  0  0  0  0  0  0  0  0
  141.8500   73.5450  218.3427 H   0  0  0  0  0  0  0  0  0  0  0  0
  141.1845   72.9847  220.5677 H   0  0  0  0  0  0  0  0  0  0  0  0
  142.5403   70.5148  219.7009 H   0  0  0  0  0  0  0  0  0  0  0  0
  143.4265   71.2564  218.6689 H   0  0  0  0  0  0  0  0  0  0  0  0
  143.3042   71.7496  221.8268 H   0  0  0  0  0  0  0  0  0  0  0  0
  144.3348   72.7196  221.1570 H   0  0  0  0  0  0  0  0  0  0  0  0
  138.6572   69.0401  222.6686 H   0  0  0  0  0  0  0  0  0  0  0  0
  138.8015   67.6382  224.6816 H   0  0  0  0  0  0  0  0  0  0  0  0
  139.4612   67.3964  226.9541 H   0  0  0  0  0  0  0  0  0  0  0  0
  141.3620   70.7018  228.9660 H   0  0  0  0  0  0  0  0  0  0  0  0
  141.1771   72.0455  226.8969 H   0  0  0  0  0  0  0  0  0  0  0  0
  1  2  2  0
  2  3  1  0
  3  4  1  0
  4  5  1  0
  5  6  2  0
  5  7  1  0
  7  8  1  0
  8  9  1  0
  9 10  1  0
 10 11  1  0
 11 12  1  0
 12 13  1  0
 13 14  1  0
 14 15  1  0
 15 16  1  0
  2 17  1  0
 17 18  2  0
 18 19  1  0
 19 20  2  0
 20 21  1  0
 21 22  2  0
 22 23  1  0
 22 24  1  0
 24 25  2  0
 25 26  1  0
 26 27  2  0
 13  7  1  0
 16 14  1  0
 27 17  1  0
 26 20  1  0
  3 28  1  0
  4 29  1  0
  4 30  1  0
  8 31  1  0
  8 32  1  0
  9 33  1  0
  9 34  1  0
 10 35  1  0
 10 36  1  0
 11 37  1  0
 11 38  1  0
 12 39  1  0
 12 40  1  0
 13 41  1  6
 14 42  1  0
 15 43  1  0
 15 44  1  0
 16 45  1  0
 16 46  1  0
 18 47  1  0
 19 48  1  0
 21 49  1  0
 24 50  1  0
 25 51  1  0
M  END
>  <smiles>  (57) 
O=C(NCC(=O)N1CCCCCC1C1CC1)c1ccc2cc(F)ccc2n1

>  <score_type>  (57) 
oracle

>  <origin>  (57) 
autodockgpu

>  <m_score__min__energy>  (57) 
-6.04

>  <m_primary>  (57) 
energy

>  <rmsd>  (57) 
1.9903563022286395

>  <m_score__min__rmsd>  (57) 
1.9903563022286395

>  <meeko>  (57) 
{"free_energy": -4.78, "intermolecular_energy": -8.06, "internal_energy": -1.93, "cluster_size": 30, "cluster_id": 2, "rank_in_cluster": 18}

>  <energy>  (57) 
-5.39

>  <cluster_rmsd>  (57) 
0.35

>  <cluster>  (57) 
2

$$$$

     RDKit          3D

 51 54  0  0  0  0  0  0  0  0999 V2000
  141.3030   72.3780  221.5230 O   0  0  0  0  0  0  0  0  0  0  0  0
  140.4090   72.6020  222.3830 C   0  0  0  0  0  0  0  0  0  0  0  0
  139.5640   73.7570  222.3270 N   0  0  0  0  0  0  0  0  0  0  0  0
  139.7690   74.6820  221.2280 C   0  0  0  0  0  0  0  0  0  0  0  0
  139.3110   76.0320  221.6430 C   0  0  0  0  0  0  0  0  0  0  0  0
  138.4040   76.1900  222.5290 O   0  0  0  0  0  0  0  0  0  0  0  0
  139.8800   77.1950  221.0550 N   0  0  0  0  0  0  0  0  0  0  0  0
  139.1370   77.8680  220.0070 C   0  0  0  0  0  0  0  0  0  0  0  0
  139.4180   77.2460  218.6510 C   0  0  0  0  0  0  0  0  0  0  0  0
  140.8710   77.4090  218.2620 C   0  0  0  0  0  0  0  0  0  0  0  0
  141.6740   78.2720  219.1480 C   0  0  0  0  0  0  0  0  0  0  0  0
  142.1440   77.7230  220.4430 C   0  0  0  0  0  0  0  0  0  0  0  0
  141.1770   77.6240  221.5530 C   0  0  1  0  0  0  0  0  0  0  0  0
  141.0720   78.8150  222.4540 C   0  0  0  0  0  0  0  0  0  0  0  0
  141.7910   78.7270  223.8200 C   0  0  0  0  0  0  0  0  0  0  0  0
  142.1730   79.7130  222.7880 C   0  0  0  0  0  0  0  0  0  0  0  0
  140.2270   71.6470  223.4820 C   0  0  0  0  0  0  0  0  0  0  0  0
  139.5690   70.4660  223.2830 C   0  0  0  0  0  0  0  0  0  0  0  0
  139.3600   69.5250  224.2600 C   0  0  0  0  0  0  0  0  0  0  0  0
  139.8450   69.7930  225.5180 C   0  0  0  0  0  0  0  0  0  0  0  0
  139.6470   68.8680  226.5080 C   0  0  0  0  0  0  0  0  0  0  0  0
  140.1410   69.1560  227.7640 C   0  0  0  0  0  0  0  0  0  0  0  0
  139.9760   68.2740  228.7930 F   0  0  0  0  0  0  0  0  0  0  0  0
  140.8100   70.3280  228.0210 C   0  0  0  0  0  0  0  0  0  0  0  0
  140.9840   71.2290  226.9890 C   0  0  0  0  0  0  0  0  0  0  0  0
  140.5070   70.9900  225.7060 C   0  0  0  0  0  0  0  0  0  0  0  0
  140.6970   71.8940  224.7290 N   0  0  0  0  0  0  0  0  0  0  0  0
  138.8380   73.8990  223.0600 H   0  0  0  0  0  0  0  0  0  0  0  0
  140.8378   74.7179  220.9702 H   0  0  0  0  0  0  0  0  0  0  0  0
  139.1975   74.3487  220.3492 H   0  0  0  0  0  0  0  0  0  0  0  0
  138.0611   77.7892  220.2222 H   0  0  0  0  0  0  0  0  0  0  0  0
  139.4499   78.9222  219.9791 H   0  0  0  0  0  0  0  0  0  0  0  0
  139.1760   76.1737  218.6915 H   0  0  0  0  0  0  0  0  0  0  0  0
  138.7980   77.7567  217.8995 H   0  0  0  0  0  0  0  0  0  0  0  0
  141.3329   76.4107  218.2522 H   0  0  0  0  0  0  0  0  0  0  0  0
  140.8663   77.9060  217.2807 H   0  0  0  0  0  0  0  0  0  0  0  0
  142.5670   78.5754  218.5819 H   0  0  0  0  0  0  0  0  0  0  0  0
  140.9818   79.0773  219.4351 H   0  0  0  0  0  0  0  0  0  0  0  0
  142.5218   76.7083  220.2487 H   0  0  0  0  0  0  0  0  0  0  0  0
  142.8867   78.4544  220.7944 H   0  0  0  0  0  0  0  0  0  0  0  0
  141.5926   76.8550  222.2208 H   0  0  0  0  0  0  0  0  0  0  0  0
  140.0639   79.0004  222.0549 H   0  0  0  0  0  0  0  0  0  0  0  0
  141.2814   79.0525  224.7389 H   0  0  0  0  0  0  0  0  0  0  0  0
  142.3060   77.9426  224.3941 H   0  0  0  0  0  0  0  0  0  0  0  0
  141.9669   80.7800  222.9581 H   0  0  0  0  0  0  0  0  0  0  0  0
  143.1239   79.9606  222.2935 H   0  0  0  0  0  0  0  0  0  0  0  0
  139.1819   70.2560  222.2750 H   0  0  0  0  0  0  0  0  0  0  0  0
  138.8233   68.5894  224.0440 H   0  0  0  0  0  0  0  0  0  0  0  0
  139.1124   67.9275  226.3090 H   0  0  0  0  0  0  0  0  0  0  0  0
  141.1987   70.5441  229.0271 H   0  0  0  0  0  0  0  0  0  0  0  0
  141.5190   72.1689  227.1897 H   0  0  0  0  0  0  0  0  0  0  0  0
  1  2  2  0
  2  3  1  0
  3  4  1  0
  4  5  1  0
  5  6  2  0
  5  7  1  0
  7  8  1  0
  8  9  1  0
  9 10  1  0
 10 11  1  0
 11 12  1  0
 12 13  1  0
 13 14  1  0
 14 15  1  0
 15 16  1  0
  2 17  1  0
 17 18  2  0
 18 19  1  0
 19 20  2  0
 20 21  1  0
 21 22  2  0
 22 23  1  0
 22 24  1  0
 24 25  2  0
 25 26  1  0
 26 27  2  0
 13  7  1  0
 16 14  1  0
 27 17  1  0
 26 20  1  0
  3 28  1  0
  4 29  1  0
  4 30  1  0
  8 31  1  0
  8 32  1  0
  9 33  1  0
  9 34  1  0
 10 35  1  0
 10 36  1  0
 11 37  1  0
 11 38  1  0
 12 39  1  0
 12 40  1  0
 13 41  1  1
 14 42  1  0
 15 43  1  0
 15 44  1  0
 16 45  1  0
 16 46  1  0
 18 47  1  0
 19 48  1  0
 21 49  1  0
 24 50  1  0
 25 51  1  0
M  END
>  <smiles>  (58) 
O=C(NCC(=O)N1CCCCCC1C1CC1)c1ccc2cc(F)ccc2n1

>  <score_type>  (58) 
oracle

>  <origin>  (58) 
autodockgpu

>  <m_score__min__energy>  (58) 
-6.04

>  <m_primary>  (58) 
energy

>  <rmsd>  (58) 
2.068886186166314

>  <m_score__min__rmsd>  (58) 
2.068886186166314

>  <meeko>  (58) 
{"free_energy": -5.62, "intermolecular_energy": -8.9, "internal_energy": -1.61, "cluster_size": 10, "cluster_id": 3, "rank_in_cluster": 1}

>  <energy>  (58) 
-5.35

>  <cluster_rmsd>  (58) 
1.56

>  <cluster>  (58) 
2

$$$$

     RDKit          3D

 51 54  0  0  0  0  0  0  0  0999 V2000
  138.3070   72.1920  222.1210 O   0  0  0  0  0  0  0  0  0  0  0  0
  139.4130   72.1770  222.7250 C   0  0  0  0  0  0  0  0  0  0  0  0
  140.4970   73.0380  222.3600 N   0  0  0  0  0  0  0  0  0  0  0  0
  140.2830   73.9490  221.2510 C   0  0  0  0  0  0  0  0  0  0  0  0
  141.4330   74.8850  221.1670 C   0  0  0  0  0  0  0  0  0  0  0  0
  142.6390   74.4730  221.2460 O   0  0  0  0  0  0  0  0  0  0  0  0
  141.2120   76.2800  220.9970 N   0  0  0  0  0  0  0  0  0  0  0  0
  141.6010   76.8870  219.7390 C   0  0  0  0  0  0  0  0  0  0  0  0
  140.8820   78.2070  219.5220 C   0  0  0  0  0  0  0  0  0  0  0  0
  141.5760   79.3370  220.2520 C   0  0  0  0  0  0  0  0  0  0  0  0
  141.3430   79.3930  221.7070 C   0  0  0  0  0  0  0  0  0  0  0  0
  141.4500   78.1440  222.4950 C   0  0  0  0  0  0  0  0  0  0  0  0
  140.6070   76.9960  222.1080 C   0  0  1  0  0  0  0  0  0  0  0  0
  139.1560   77.2830  221.8740 C   0  0  0  0  0  0  0  0  0  0  0  0
  138.1370   76.4510  222.6870 C   0  0  0  0  0  0  0  0  0  0  0  0
  138.2610   77.9160  222.8380 C   0  0  0  0  0  0  0  0  0  0  0  0
  139.5990   71.2430  223.8430 C   0  0  0  0  0  0  0  0  0  0  0  0
  139.1940   69.9430  223.7450 C   0  0  0  0  0  0  0  0  0  0  0  0
  139.3330   69.0130  224.7450 C   0  0  0  0  0  0  0  0  0  0  0  0
  139.9180   69.4230  225.9200 C   0  0  0  0  0  0  0  0  0  0  0  0
  140.0670   68.5120  226.9310 C   0  0  0  0  0  0  0  0  0  0  0  0
  140.6570   68.9430  228.1010 C   0  0  0  0  0  0  0  0  0  0  0  0
  140.8340   68.0830  229.1460 F   0  0  0  0  0  0  0  0  0  0  0  0
  141.0830   70.2400  228.2550 C   0  0  0  0  0  0  0  0  0  0  0  0
  140.9110   71.1210  227.2060 C   0  0  0  0  0  0  0  0  0  0  0  0
  140.3230   70.7400  226.0060 C   0  0  0  0  0  0  0  0  0  0  0  0
  140.1730   71.6290  225.0090 N   0  0  0  0  0  0  0  0  0  0  0  0
  141.3930   72.9900  222.8900 H   0  0  0  0  0  0  0  0  0  0  0  0
  140.2029   73.3778  220.3144 H   0  0  0  0  0  0  0  0  0  0  0  0
  139.3531   74.5151  221.4085 H   0  0  0  0  0  0  0  0  0  0  0  0
  142.6862   77.0664  219.7473 H   0  0  0  0  0  0  0  0  0  0  0  0
  141.3279   76.2026  218.9223 H   0  0  0  0  0  0  0  0  0  0  0  0
  140.8645   78.4329  218.4456 H   0  0  0  0  0  0  0  0  0  0  0  0
  139.8594   78.1147  219.9166 H   0  0  0  0  0  0  0  0  0  0  0  0
  142.6584   79.2328  220.0863 H   0  0  0  0  0  0  0  0  0  0  0  0
  141.1511   80.2656  219.8430 H   0  0  0  0  0  0  0  0  0  0  0  0
  142.0731   80.1021  222.1243 H   0  0  0  0  0  0  0  0  0  0  0  0
  140.2832   79.6738  221.7961 H   0  0  0  0  0  0  0  0  0  0  0  0
  142.4973   77.8123  222.4383 H   0  0  0  0  0  0  0  0  0  0  0  0
  141.0853   78.4227  223.4947 H   0  0  0  0  0  0  0  0  0  0  0  0
  140.5821   76.3509  222.9986 H   0  0  0  0  0  0  0  0  0  0  0  0
  139.3929   77.5143  220.8250 H   0  0  0  0  0  0  0  0  0  0  0  0
  137.2554   76.0151  222.1942 H   0  0  0  0  0  0  0  0  0  0  0  0
  138.1821   75.5798  223.3571 H   0  0  0  0  0  0  0  0  0  0  0  0
  137.4510   78.5666  222.4765 H   0  0  0  0  0  0  0  0  0  0  0  0
  138.4251   78.5762  223.7024 H   0  0  0  0  0  0  0  0  0  0  0  0
  138.7259   69.6198  222.8035 H   0  0  0  0  0  0  0  0  0  0  0  0
  138.9887   67.9769  224.6112 H   0  0  0  0  0  0  0  0  0  0  0  0
  139.7279   67.4721  226.8143 H   0  0  0  0  0  0  0  0  0  0  0  0
  141.5512   70.5696  229.1942 H   0  0  0  0  0  0  0  0  0  0  0  0
  141.2512   72.1604  227.3242 H   0  0  0  0  0  0  0  0  0  0  0  0
  1  2  2  0
  2  3  1  0
  3  4  1  0
  4  5  1  0
  5  6  2  0
  5  7  1  0
  7  8  1  0
  8  9  1  0
  9 10  1  0
 10 11  1  0
 11 12  1  0
 12 13  1  0
 13 14  1  0
 14 15  1  0
 15 16  1  0
  2 17  1  0
 17 18  2  0
 18 19  1  0
 19 20  2  0
 20 21  1  0
 21 22  2  0
 22 23  1  0
 22 24  1  0
 24 25  2  0
 25 26  1  0
 26 27  2  0
 13  7  1  0
 16 14  1  0
 27 17  1  0
 26 20  1  0
  3 28  1  0
  4 29  1  0
  4 30  1  0
  8 31  1  0
  8 32  1  0
  9 33  1  0
  9 34  1  0
 10 35  1  0
 10 36  1  0
 11 37  1  0
 11 38  1  0
 12 39  1  0
 12 40  1  0
 13 41  1  1
 14 42  1  0
 15 43  1  0
 15 44  1  0
 16 45  1  0
 16 46  1  0
 18 47  1  0
 19 48  1  0
 21 49  1  0
 24 50  1  0
 25 51  1  0
M  END
>  <smiles>  (59) 
O=C(NCC(=O)N1CCCCCC1C1CC1)c1ccc2cc(F)ccc2n1

>  <score_type>  (59) 
oracle

>  <origin>  (59) 
autodockgpu

>  <m_score__min__energy>  (59) 
-6.04

>  <m_primary>  (59) 
energy

>  <rmsd>  (59) 
2.4538041971384392

>  <m_score__min__rmsd>  (59) 
2.4538041971384392

>  <meeko>  (59) 
{"free_energy": -4.94, "intermolecular_energy": -8.22, "internal_energy": -1.56, "cluster_size": 10, "cluster_id": 3, "rank_in_cluster": 8}

>  <energy>  (59) 
-5.22

>  <cluster_rmsd>  (59) 
0.72

>  <cluster>  (59) 
2

$$$$

     RDKit          3D

 51 54  0  0  0  0  0  0  0  0999 V2000
  141.3630   72.6680  221.5560 O   0  0  0  0  0  0  0  0  0  0  0  0
  140.4260   72.8140  222.3870 C   0  0  0  0  0  0  0  0  0  0  0  0
  139.5530   73.9490  222.3650 N   0  0  0  0  0  0  0  0  0  0  0  0
  139.7810   74.9480  221.3370 C   0  0  0  0  0  0  0  0  0  0  0  0
  139.7870   76.2930  221.9670 C   0  0  0  0  0  0  0  0  0  0  0  0
  138.8470   76.6740  222.7430 O   0  0  0  0  0  0  0  0  0  0  0  0
  140.8540   77.1990  221.7130 N   0  0  0  0  0  0  0  0  0  0  0  0
  141.3850   77.9620  222.8260 C   0  0  0  0  0  0  0  0  0  0  0  0
  140.6120   79.2550  223.0220 C   0  0  0  0  0  0  0  0  0  0  0  0
  140.8790   80.2300  221.8950 C   0  0  0  0  0  0  0  0  0  0  0  0
  140.6160   79.7210  220.5370 C   0  0  0  0  0  0  0  0  0  0  0  0
  141.5340   78.7040  219.9670 C   0  0  0  0  0  0  0  0  0  0  0  0
  141.3340   77.2920  220.3440 C   0  0  1  0  0  0  0  0  0  0  0  0
  142.4780   76.3630  220.0820 C   0  0  0  0  0  0  0  0  0  0  0  0
  142.2700   75.2830  218.9940 C   0  0  0  0  0  0  0  0  0  0  0  0
  143.2840   76.3500  218.8640 C   0  0  0  0  0  0  0  0  0  0  0  0
  140.2210   71.7860  223.4140 C   0  0  0  0  0  0  0  0  0  0  0  0
  139.5680   70.6220  223.1190 C   0  0  0  0  0  0  0  0  0  0  0  0
  139.3390   69.6150  224.0240 C   0  0  0  0  0  0  0  0  0  0  0  0
  139.7960   69.7970  225.3080 C   0  0  0  0  0  0  0  0  0  0  0  0
  139.5780   68.8050  226.2280 C   0  0  0  0  0  0  0  0  0  0  0  0
  140.0440   69.0060  227.5100 C   0  0  0  0  0  0  0  0  0  0  0  0
  139.8580   68.0560  228.4720 F   0  0  0  0  0  0  0  0  0  0  0  0
  140.7070   70.1570  227.8620 C   0  0  0  0  0  0  0  0  0  0  0  0
  140.9020   71.1270  226.8980 C   0  0  0  0  0  0  0  0  0  0  0  0
  140.4530   70.9770  225.5920 C   0  0  0  0  0  0  0  0  0  0  0  0
  140.6630   71.9460  224.6840 N   0  0  0  0  0  0  0  0  0  0  0  0
  138.7910   74.0250  223.0710 H   0  0  0  0  0  0  0  0  0  0  0  0
  140.7505   74.7634  220.8511 H   0  0  0  0  0  0  0  0  0  0  0  0
  138.9838   74.8938  220.5810 H   0  0  0  0  0  0  0  0  0  0  0  0
  141.3127   77.3579  223.7425 H   0  0  0  0  0  0  0  0  0  0  0  0
  142.4340   78.2120  222.6089 H   0  0  0  0  0  0  0  0  0  0  0  0
  139.5360   79.0284  223.0528 H   0  0  0  0  0  0  0  0  0  0  0  0
  140.9390   79.7161  223.9656 H   0  0  0  0  0  0  0  0  0  0  0  0
  140.2435   81.1136  222.0542 H   0  0  0  0  0  0  0  0  0  0  0  0
  141.9571   80.4451  221.9322 H   0  0  0  0  0  0  0  0  0  0  0  0
  139.6088   79.2790  220.5464 H   0  0  0  0  0  0  0  0  0  0  0  0
  140.7565   80.5998  219.8905 H   0  0  0  0  0  0  0  0  0  0  0  0
  141.4473   78.7642  218.8721 H   0  0  0  0  0  0  0  0  0  0  0  0
  142.5178   78.9604  220.3870 H   0  0  0  0  0  0  0  0  0  0  0  0
  140.5627   76.9229  219.6520 H   0  0  0  0  0  0  0  0  0  0  0  0
  142.7490   76.4304  221.1460 H   0  0  0  0  0  0  0  0  0  0  0  0
  142.5774   74.2428  219.1768 H   0  0  0  0  0  0  0  0  0  0  0  0
  141.4240   74.9181  218.3930 H   0  0  0  0  0  0  0  0  0  0  0  0
  144.3513   76.0910  218.9256 H   0  0  0  0  0  0  0  0  0  0  0  0
  143.4961   77.1016  218.0893 H   0  0  0  0  0  0  0  0  0  0  0  0
  139.2025   70.4831  222.0908 H   0  0  0  0  0  0  0  0  0  0  0  0
  138.8092   68.6961  223.7324 H   0  0  0  0  0  0  0  0  0  0  0  0
  139.0495   67.8803  225.9532 H   0  0  0  0  0  0  0  0  0  0  0  0
  141.0743   70.3027  228.8886 H   0  0  0  0  0  0  0  0  0  0  0  0
  141.4315   72.0508  227.1743 H   0  0  0  0  0  0  0  0  0  0  0  0
  1  2  2  0
  2  3  1  0
  3  4  1  0
  4  5  1  0
  5  6  2  0
  5  7  1  0
  7  8  1  0
  8  9  1  0
  9 10  1  0
 10 11  1  0
 11 12  1  0
 12 13  1  0
 13 14  1  0
 14 15  1  0
 15 16  1  0
  2 17  1  0
 17 18  2  0
 18 19  1  0
 19 20  2  0
 20 21  1  0
 21 22  2  0
 22 23  1  0
 22 24  1  0
 24 25  2  0
 25 26  1  0
 26 27  2  0
 13  7  1  0
 16 14  1  0
 27 17  1  0
 26 20  1  0
  3 28  1  0
  4 29  1  0
  4 30  1  0
  8 31  1  0
  8 32  1  0
  9 33  1  0
  9 34  1  0
 10 35  1  0
 10 36  1  0
 11 37  1  0
 11 38  1  0
 12 39  1  0
 12 40  1  0
 13 41  1  6
 14 42  1  0
 15 43  1  0
 15 44  1  0
 16 45  1  0
 16 46  1  0
 18 47  1  0
 19 48  1  0
 21 49  1  0
 24 50  1  0
 25 51  1  0
M  END
>  <smiles>  (60) 
O=C(NCC(=O)N1CCCCCC1C1CC1)c1ccc2cc(F)ccc2n1

>  <score_type>  (60) 
oracle

>  <origin>  (60) 
autodockgpu

>  <m_score__min__energy>  (60) 
-6.04

>  <m_primary>  (60) 
energy

>  <rmsd>  (60) 
3.0434244754375968

>  <m_score__min__rmsd>  (60) 
3.0434244754375968

>  <meeko>  (60) 
{"free_energy": -5.52, "intermolecular_energy": -8.8, "internal_energy": -1.48, "cluster_size": 10, "cluster_id": 3, "rank_in_cluster": 2}

>  <energy>  (60) 
-5.22

>  <cluster_rmsd>  (60) 
1.35

>  <cluster>  (60) 
2

$$$$

     RDKit          3D

 51 54  0  0  0  0  0  0  0  0999 V2000
  139.1730   70.9740  221.3440 O   0  0  0  0  0  0  0  0  0  0  0  0
  139.4480   71.5630  222.4240 C   0  0  0  0  0  0  0  0  0  0  0  0
  139.6430   72.9790  222.4960 N   0  0  0  0  0  0  0  0  0  0  0  0
  139.5120   73.7360  221.2650 C   0  0  0  0  0  0  0  0  0  0  0  0
  140.5020   74.8430  221.2720 C   0  0  0  0  0  0  0  0  0  0  0  0
  140.9930   75.2960  222.3600 O   0  0  0  0  0  0  0  0  0  0  0  0
  140.9280   75.4310  220.0490 N   0  0  0  0  0  0  0  0  0  0  0  0
  139.9400   76.1100  219.2340 C   0  0  0  0  0  0  0  0  0  0  0  0
  139.7110   77.5310  219.7210 C   0  0  0  0  0  0  0  0  0  0  0  0
  141.0220   78.2320  220.0030 C   0  0  0  0  0  0  0  0  0  0  0  0
  142.1700   77.7880  219.1920 C   0  0  0  0  0  0  0  0  0  0  0  0
  142.9730   76.6350  219.6690 C   0  0  0  0  0  0  0  0  0  0  0  0
  142.3360   75.3050  219.7070 C   0  0  1  0  0  0  0  0  0  0  0  0
  143.0250   74.2580  220.5250 C   0  0  0  0  0  0  0  0  0  0  0  0
  143.6530   73.0700  219.7590 C   0  0  0  0  0  0  0  0  0  0  0  0
  144.4660   74.0230  220.5430 C   0  0  0  0  0  0  0  0  0  0  0  0
  139.5740   70.7690  223.6530 C   0  0  0  0  0  0  0  0  0  0  0  0
  139.1030   69.4880  223.7110 C   0  0  0  0  0  0  0  0  0  0  0  0
  139.1840   68.6860  224.8220 C   0  0  0  0  0  0  0  0  0  0  0  0
  139.7780   69.2110  225.9460 C   0  0  0  0  0  0  0  0  0  0  0  0
  139.8690   68.4270  227.0660 C   0  0  0  0  0  0  0  0  0  0  0  0
  140.4670   68.9730  228.1820 C   0  0  0  0  0  0  0  0  0  0  0  0
  140.5890   68.2440  229.3290 F   0  0  0  0  0  0  0  0  0  0  0  0
  140.9580   70.2560  228.1800 C   0  0  0  0  0  0  0  0  0  0  0  0
  140.8420   71.0060  227.0260 C   0  0  0  0  0  0  0  0  0  0  0  0
  140.2480   70.5070  225.8730 C   0  0  0  0  0  0  0  0  0  0  0  0
  140.1550   71.2690  224.7700 N   0  0  0  0  0  0  0  0  0  0  0  0
  139.8680   73.4210  223.4130 H   0  0  0  0  0  0  0  0  0  0  0  0
  139.7012   73.0772  220.4047 H   0  0  0  0  0  0  0  0  0  0  0  0
  138.4946   74.1470  221.1873 H   0  0  0  0  0  0  0  0  0  0  0  0
  140.2927   76.1398  218.1925 H   0  0  0  0  0  0  0  0  0  0  0  0
  138.9905   75.5593  219.3055 H   0  0  0  0  0  0  0  0  0  0  0  0
  139.1639   78.0911  218.9484 H   0  0  0  0  0  0  0  0  0  0  0  0
  139.1309   77.4894  220.6547 H   0  0  0  0  0  0  0  0  0  0  0  0
  140.8762   79.3073  219.8227 H   0  0  0  0  0  0  0  0  0  0  0  0
  141.2766   77.9856  221.0444 H   0  0  0  0  0  0  0  0  0  0  0  0
  141.7814   77.5233  218.1976 H   0  0  0  0  0  0  0  0  0  0  0  0
  142.8694   78.6361  219.2303 H   0  0  0  0  0  0  0  0  0  0  0  0
  143.8516   76.5563  219.0118 H   0  0  0  0  0  0  0  0  0  0  0  0
  143.1790   76.8667  220.7244 H   0  0  0  0  0  0  0  0  0  0  0  0
  142.4388   74.9143  218.6839 H   0  0  0  0  0  0  0  0  0  0  0  0
  142.2964   74.4373  221.3293 H   0  0  0  0  0  0  0  0  0  0  0  0
  143.5071   72.0393  220.1145 H   0  0  0  0  0  0  0  0  0  0  0  0
  143.6442   72.7040  218.7217 H   0  0  0  0  0  0  0  0  0  0  0  0
  144.9464   73.6853  221.4731 H   0  0  0  0  0  0  0  0  0  0  0  0
  145.3377   74.6496  220.3032 H   0  0  0  0  0  0  0  0  0  0  0  0
  138.6285   69.0727  222.8097 H   0  0  0  0  0  0  0  0  0  0  0  0
  138.7879   67.6598  224.8137 H   0  0  0  0  0  0  0  0  0  0  0  0
  139.4789   67.3985  227.0745 H   0  0  0  0  0  0  0  0  0  0  0  0
  141.4334   70.6770  229.0782 H   0  0  0  0  0  0  0  0  0  0  0  0
  141.2334   72.0340  227.0194 H   0  0  0  0  0  0  0  0  0  0  0  0
  1  2  2  0
  2  3  1  0
  3  4  1  0
  4  5  1  0
  5  6  2  0
  5  7  1  0
  7  8  1  0
  8  9  1  0
  9 10  1  0
 10 11  1  0
 11 12  1  0
 12 13  1  0
 13 14  1  0
 14 15  1  0
 15 16  1  0
  2 17  1  0
 17 18  2  0
 18 19  1  0
 19 20  2  0
 20 21  1  0
 21 22  2  0
 22 23  1  0
 22 24  1  0
 24 25  2  0
 25 26  1  0
 26 27  2  0
 13  7  1  0
 16 14  1  0
 27 17  1  0
 26 20  1  0
  3 28  1  0
  4 29  1  0
  4 30  1  0
  8 31  1  0
  8 32  1  0
  9 33  1  0
  9 34  1  0
 10 35  1  0
 10 36  1  0
 11 37  1  0
 11 38  1  0
 12 39  1  0
 12 40  1  0
 13 41  1  6
 14 42  1  0
 15 43  1  0
 15 44  1  0
 16 45  1  0
 16 46  1  0
 18 47  1  0
 19 48  1  0
 21 49  1  0
 24 50  1  0
 25 51  1  0
M  END
>  <smiles>  (61) 
O=C(NCC(=O)N1CCCCCC1C1CC1)c1ccc2cc(F)ccc2n1

>  <score_type>  (61) 
oracle

>  <origin>  (61) 
autodockgpu

>  <m_score__min__energy>  (61) 
-6.04

>  <m_primary>  (61) 
energy

>  <rmsd>  (61) 
1.7663731325553613

>  <m_score__min__rmsd>  (61) 
1.7663731325553613

>  <meeko>  (61) 
{"free_energy": -4.88, "intermolecular_energy": -8.16, "internal_energy": -1.88, "cluster_size": 30, "cluster_id": 2, "rank_in_cluster": 15}

>  <energy>  (61) 
-5.19

>  <cluster_rmsd>  (61) 
0.3

>  <cluster>  (61) 
2

$$$$

     RDKit          3D

 51 54  0  0  0  0  0  0  0  0999 V2000
  139.9460   70.9510  221.2700 O   0  0  0  0  0  0  0  0  0  0  0  0
  139.9050   71.5590  222.3730 C   0  0  0  0  0  0  0  0  0  0  0  0
  139.8950   72.9880  222.4600 N   0  0  0  0  0  0  0  0  0  0  0  0
  139.9350   73.7340  221.2160 C   0  0  0  0  0  0  0  0  0  0  0  0
  140.6020   75.0380  221.4580 C   0  0  0  0  0  0  0  0  0  0  0  0
  140.3260   75.7540  222.4790 O   0  0  0  0  0  0  0  0  0  0  0  0
  141.5760   75.5260  220.5420 N   0  0  0  0  0  0  0  0  0  0  0  0
  141.7670   76.9590  220.4440 C   0  0  0  0  0  0  0  0  0  0  0  0
  142.1380   77.3670  219.0290 C   0  0  0  0  0  0  0  0  0  0  0  0
  141.0700   76.9490  218.0400 C   0  0  0  0  0  0  0  0  0  0  0  0
  140.7860   75.5030  217.9840 C   0  0  0  0  0  0  0  0  0  0  0  0
  141.8580   74.5510  218.3640 C   0  0  0  0  0  0  0  0  0  0  0  0
  142.3110   74.5390  219.7680 C   0  0  1  0  0  0  0  0  0  0  0  0
  143.7880   74.6290  219.9930 C   0  0  0  0  0  0  0  0  0  0  0  0
  144.4350   73.5200  220.8540 C   0  0  0  0  0  0  0  0  0  0  0  0
  144.7780   73.7150  219.4300 C   0  0  0  0  0  0  0  0  0  0  0  0
  139.8660   70.7760  223.6140 C   0  0  0  0  0  0  0  0  0  0  0  0
  139.2970   69.5340  223.6410 C   0  0  0  0  0  0  0  0  0  0  0  0
  139.2230   68.7430  224.7610 C   0  0  0  0  0  0  0  0  0  0  0  0
  139.7550   69.2390  225.9280 C   0  0  0  0  0  0  0  0  0  0  0  0
  139.6910   68.4670  227.0570 C   0  0  0  0  0  0  0  0  0  0  0  0
  140.2310   68.9820  228.2170 C   0  0  0  0  0  0  0  0  0  0  0  0
  140.1990   68.2620  229.3760 F   0  0  0  0  0  0  0  0  0  0  0  0
  140.8150   70.2250  228.2480 C   0  0  0  0  0  0  0  0  0  0  0  0
  140.8540   70.9650  227.0820 C   0  0  0  0  0  0  0  0  0  0  0  0
  140.3260   70.4960  225.8860 C   0  0  0  0  0  0  0  0  0  0  0  0
  140.3840   71.2470  224.7740 N   0  0  0  0  0  0  0  0  0  0  0  0
  139.8590   73.4460  223.3950 H   0  0  0  0  0  0  0  0  0  0  0  0
  140.4991   73.1650  220.4623 H   0  0  0  0  0  0  0  0  0  0  0  0
  138.9116   73.9015  220.8490 H   0  0  0  0  0  0  0  0  0  0  0  0
  140.8339   77.4660  220.7308 H   0  0  0  0  0  0  0  0  0  0  0  0
  142.5876   77.2483  221.1169 H   0  0  0  0  0  0  0  0  0  0  0  0
  142.2550   78.4601  218.9899 H   0  0  0  0  0  0  0  0  0  0  0  0
  143.0789   76.8659  218.7577 H   0  0  0  0  0  0  0  0  0  0  0  0
  140.1377   77.4671  218.3092 H   0  0  0  0  0  0  0  0  0  0  0  0
  141.4570   77.2189  217.0463 H   0  0  0  0  0  0  0  0  0  0  0  0
  139.9335   75.3144  218.6531 H   0  0  0  0  0  0  0  0  0  0  0  0
  140.6197   75.3048  216.9148 H   0  0  0  0  0  0  0  0  0  0  0  0
  141.4949   73.5395  218.1293 H   0  0  0  0  0  0  0  0  0  0  0  0
  142.7374   74.8880  217.7956 H   0  0  0  0  0  0  0  0  0  0  0  0
  142.0753   73.5280  220.1319 H   0  0  0  0  0  0  0  0  0  0  0  0
  143.7023   75.7255  219.9765 H   0  0  0  0  0  0  0  0  0  0  0  0
  145.1590   73.7780  221.6409 H   0  0  0  0  0  0  0  0  0  0  0  0
  144.0722   72.6864  221.4733 H   0  0  0  0  0  0  0  0  0  0  0  0
  145.7743   74.0965  219.1618 H   0  0  0  0  0  0  0  0  0  0  0  0
  144.7815   73.0491  218.5544 H   0  0  0  0  0  0  0  0  0  0  0  0
  138.8708   69.1427  222.7055 H   0  0  0  0  0  0  0  0  0  0  0  0
  138.7549   67.7482  224.7259 H   0  0  0  0  0  0  0  0  0  0  0  0
  139.2251   67.4707  227.0395 H   0  0  0  0  0  0  0  0  0  0  0  0
  141.2421   70.6223  229.1806 H   0  0  0  0  0  0  0  0  0  0  0  0
  141.3199   71.9613  227.1015 H   0  0  0  0  0  0  0  0  0  0  0  0
  1  2  2  0
  2  3  1  0
  3  4  1  0
  4  5  1  0
  5  6  2  0
  5  7  1  0
  7  8  1  0
  8  9  1  0
  9 10  1  0
 10 11  1  0
 11 12  1  0
 12 13  1  0
 13 14  1  0
 14 15  1  0
 15 16  1  0
  2 17  1  0
 17 18  2  0
 18 19  1  0
 19 20  2  0
 20 21  1  0
 21 22  2  0
 22 23  1  0
 22 24  1  0
 24 25  2  0
 25 26  1  0
 26 27  2  0
 13  7  1  0
 16 14  1  0
 27 17  1  0
 26 20  1  0
  3 28  1  0
  4 29  1  0
  4 30  1  0
  8 31  1  0
  8 32  1  0
  9 33  1  0
  9 34  1  0
 10 35  1  0
 10 36  1  0
 11 37  1  0
 11 38  1  0
 12 39  1  0
 12 40  1  0
 13 41  1  1
 14 42  1  0
 15 43  1  0
 15 44  1  0
 16 45  1  0
 16 46  1  0
 18 47  1  0
 19 48  1  0
 21 49  1  0
 24 50  1  0
 25 51  1  0
M  END
>  <smiles>  (62) 
O=C(NCC(=O)N1CCCCCC1C1CC1)c1ccc2cc(F)ccc2n1

>  <score_type>  (62) 
oracle

>  <origin>  (62) 
autodockgpu

>  <m_score__min__energy>  (62) 
-6.04

>  <m_primary>  (62) 
energy

>  <rmsd>  (62) 
2.2198140879293917

>  <m_score__min__rmsd>  (62) 
2.2198140879293917

>  <meeko>  (62) 
{"free_energy": -4.58, "intermolecular_energy": -7.86, "internal_energy": -1.73, "cluster_size": 30, "cluster_id": 2, "rank_in_cluster": 26}

>  <energy>  (62) 
-5.12

>  <cluster_rmsd>  (62) 
1.2

>  <cluster>  (62) 
2

$$$$

     RDKit          3D

 51 54  0  0  0  0  0  0  0  0999 V2000
  139.9240   70.8050  221.3640 O   0  0  0  0  0  0  0  0  0  0  0  0
  139.8170   71.4050  222.4680 C   0  0  0  0  0  0  0  0  0  0  0  0
  139.6790   72.8270  222.5560 N   0  0  0  0  0  0  0  0  0  0  0  0
  139.6650   73.5760  221.3130 C   0  0  0  0  0  0  0  0  0  0  0  0
  140.8990   74.3990  221.2330 C   0  0  0  0  0  0  0  0  0  0  0  0
  141.0610   75.4360  221.9600 O   0  0  0  0  0  0  0  0  0  0  0  0
  141.9390   74.0460  220.3300 N   0  0  0  0  0  0  0  0  0  0  0  0
  142.0770   72.6530  219.9530 C   0  0  0  0  0  0  0  0  0  0  0  0
  143.2110   71.9890  220.7140 C   0  0  0  0  0  0  0  0  0  0  0  0
  144.3990   72.9170  220.8500 C   0  0  0  0  0  0  0  0  0  0  0  0
  144.8110   73.6080  219.6140 C   0  0  0  0  0  0  0  0  0  0  0  0
  143.8770   74.5740  219.0090 C   0  0  0  0  0  0  0  0  0  0  0  0
  142.7940   75.1200  219.8500 C   0  0  1  0  0  0  0  0  0  0  0  0
  142.0080   76.2550  219.2730 C   0  0  0  0  0  0  0  0  0  0  0  0
  142.0990   77.6140  220.0030 C   0  0  0  0  0  0  0  0  0  0  0  0
  142.5840   77.4270  218.6200 C   0  0  0  0  0  0  0  0  0  0  0  0
  139.8340   70.6190  223.7070 C   0  0  0  0  0  0  0  0  0  0  0  0
  139.2710   69.3750  223.7570 C   0  0  0  0  0  0  0  0  0  0  0  0
  139.2480   68.5820  224.8770 C   0  0  0  0  0  0  0  0  0  0  0  0
  139.8300   69.0770  226.0200 C   0  0  0  0  0  0  0  0  0  0  0  0
  139.8180   68.3020  227.1500 C   0  0  0  0  0  0  0  0  0  0  0  0
  140.4060   68.8170  228.2860 C   0  0  0  0  0  0  0  0  0  0  0  0
  140.4280   68.0940  229.4440 F   0  0  0  0  0  0  0  0  0  0  0  0
  140.9870   70.0620  228.2940 C   0  0  0  0  0  0  0  0  0  0  0  0
  140.9730   70.8040  227.1290 C   0  0  0  0  0  0  0  0  0  0  0  0
  140.3950   70.3350  225.9570 C   0  0  0  0  0  0  0  0  0  0  0  0
  140.4020   71.0890  224.8440 N   0  0  0  0  0  0  0  0  0  0  0  0
  139.5930   73.2780  223.4910 H   0  0  0  0  0  0  0  0  0  0  0  0
  139.6301   72.8793  220.4625 H   0  0  0  0  0  0  0  0  0  0  0  0
  138.7796   74.2279  221.2808 H   0  0  0  0  0  0  0  0  0  0  0  0
  141.1377   72.1259  220.1764 H   0  0  0  0  0  0  0  0  0  0  0  0
  142.3026   72.6034  218.8775 H   0  0  0  0  0  0  0  0  0  0  0  0
  142.8555   71.7124  221.7176 H   0  0  0  0  0  0  0  0  0  0  0  0
  143.5293   71.0970  220.1546 H   0  0  0  0  0  0  0  0  0  0  0  0
  144.1466   73.6829  221.5981 H   0  0  0  0  0  0  0  0  0  0  0  0
  145.2484   72.2794  221.1364 H   0  0  0  0  0  0  0  0  0  0  0  0
  145.7407   74.1511  219.8390 H   0  0  0  0  0  0  0  0  0  0  0  0
  144.8913   72.8041  218.8675 H   0  0  0  0  0  0  0  0  0  0  0  0
  144.4747   75.4263  218.6536 H   0  0  0  0  0  0  0  0  0  0  0  0
  143.3535   73.9963  218.2330 H   0  0  0  0  0  0  0  0  0  0  0  0
  143.3087   75.5947  220.6984 H   0  0  0  0  0  0  0  0  0  0  0  0
  141.2428   75.5329  218.9518 H   0  0  0  0  0  0  0  0  0  0  0  0
  141.1903   78.2020  220.1990 H   0  0  0  0  0  0  0  0  0  0  0  0
  142.5272   77.9765  220.9492 H   0  0  0  0  0  0  0  0  0  0  0  0
  142.0428   77.9028  217.7889 H   0  0  0  0  0  0  0  0  0  0  0  0
  143.5461   77.6199  218.1228 H   0  0  0  0  0  0  0  0  0  0  0  0
  138.8060   68.9837  222.8401 H   0  0  0  0  0  0  0  0  0  0  0  0
  138.7808   67.5863  224.8607 H   0  0  0  0  0  0  0  0  0  0  0  0
  139.3555   67.3040  227.1509 H   0  0  0  0  0  0  0  0  0  0  0  0
  141.4530   70.4591  229.2079 H   0  0  0  0  0  0  0  0  0  0  0  0
  141.4362   71.8017  227.1298 H   0  0  0  0  0  0  0  0  0  0  0  0
  1  2  2  0
  2  3  1  0
  3  4  1  0
  4  5  1  0
  5  6  2  0
  5  7  1  0
  7  8  1  0
  8  9  1  0
  9 10  1  0
 10 11  1  0
 11 12  1  0
 12 13  1  0
 13 14  1  0
 14 15  1  0
 15 16  1  0
  2 17  1  0
 17 18  2  0
 18 19  1  0
 19 20  2  0
 20 21  1  0
 21 22  2  0
 22 23  1  0
 22 24  1  0
 24 25  2  0
 25 26  1  0
 26 27  2  0
 13  7  1  0
 16 14  1  0
 27 17  1  0
 26 20  1  0
  3 28  1  0
  4 29  1  0
  4 30  1  0
  8 31  1  0
  8 32  1  0
  9 33  1  0
  9 34  1  0
 10 35  1  0
 10 36  1  0
 11 37  1  0
 11 38  1  0
 12 39  1  0
 12 40  1  0
 13 41  1  1
 14 42  1  0
 15 43  1  0
 15 44  1  0
 16 45  1  0
 16 46  1  0
 18 47  1  0
 19 48  1  0
 21 49  1  0
 24 50  1  0
 25 51  1  0
M  END
>  <smiles>  (63) 
O=C(NCC(=O)N1CCCCCC1C1CC1)c1ccc2cc(F)ccc2n1

>  <score_type>  (63) 
oracle

>  <origin>  (63) 
autodockgpu

>  <m_score__min__energy>  (63) 
-6.04

>  <m_primary>  (63) 
energy

>  <rmsd>  (63) 
2.6063515537188415

>  <m_score__min__rmsd>  (63) 
2.6063515537188415

>  <meeko>  (63) 
{"free_energy": -4.62, "intermolecular_energy": -7.9, "internal_energy": -1.64, "cluster_size": 30, "cluster_id": 2, "rank_in_cluster": 24}

>  <energy>  (63) 
-5.09

>  <cluster_rmsd>  (63) 
1.57

>  <cluster>  (63) 
2

$$$$

     RDKit          3D

 51 54  0  0  0  0  0  0  0  0999 V2000
  139.1880   70.5270  221.3910 O   0  0  0  0  0  0  0  0  0  0  0  0
  139.2090   71.4000  222.3000 C   0  0  0  0  0  0  0  0  0  0  0  0
  138.8200   72.7580  222.0650 N   0  0  0  0  0  0  0  0  0  0  0  0
  138.3910   73.1090  220.7240 C   0  0  0  0  0  0  0  0  0  0  0  0
  139.4250   73.9730  220.0990 C   0  0  0  0  0  0  0  0  0  0  0  0
  139.1320   74.8110  219.1800 O   0  0  0  0  0  0  0  0  0  0  0  0
  140.7830   73.8820  220.5140 N   0  0  0  0  0  0  0  0  0  0  0  0
  141.5260   72.6850  220.1730 C   0  0  0  0  0  0  0  0  0  0  0  0
  142.8850   72.6730  220.8510 C   0  0  0  0  0  0  0  0  0  0  0  0
  143.8470   73.6220  220.1700 C   0  0  0  0  0  0  0  0  0  0  0  0
  143.2440   74.8430  219.6050 C   0  0  0  0  0  0  0  0  0  0  0  0
  142.3810   75.6770  220.4700 C   0  0  0  0  0  0  0  0  0  0  0  0
  141.3260   75.0080  221.2560 C   0  0  1  0  0  0  0  0  0  0  0  0
  140.2520   75.8880  221.8160 C   0  0  0  0  0  0  0  0  0  0  0  0
  140.7090   77.1240  222.6250 C   0  0  0  0  0  0  0  0  0  0  0  0
  139.9560   77.2430  221.3590 C   0  0  0  0  0  0  0  0  0  0  0  0
  139.6470   71.0140  223.6460 C   0  0  0  0  0  0  0  0  0  0  0  0
  140.3470   71.8850  224.4320 C   0  0  0  0  0  0  0  0  0  0  0  0
  140.7900   71.5970  225.6990 C   0  0  0  0  0  0  0  0  0  0  0  0
  140.5100   70.3490  226.2040 C   0  0  0  0  0  0  0  0  0  0  0  0
  140.9430   70.0400  227.4660 C   0  0  0  0  0  0  0  0  0  0  0  0
  140.6510   68.7830  227.9540 C   0  0  0  0  0  0  0  0  0  0  0  0
  141.0550   68.4140  229.2040 F   0  0  0  0  0  0  0  0  0  0  0  0
  139.9510   67.8670  227.2070 C   0  0  0  0  0  0  0  0  0  0  0  0
  139.5360   68.2270  225.9400 C   0  0  0  0  0  0  0  0  0  0  0  0
  139.8020   69.4780  225.3980 C   0  0  0  0  0  0  0  0  0  0  0  0
  139.3810   69.7890  224.1610 N   0  0  0  0  0  0  0  0  0  0  0  0
  138.8530   73.4450  222.8480 H   0  0  0  0  0  0  0  0  0  0  0  0
  138.2631   72.1947  220.1260 H   0  0  0  0  0  0  0  0  0  0  0  0
  137.4326   73.6470  220.7681 H   0  0  0  0  0  0  0  0  0  0  0  0
  140.9547   71.8029  220.4978 H   0  0  0  0  0  0  0  0  0  0  0  0
  141.6789   72.6672  219.0838 H   0  0  0  0  0  0  0  0  0  0  0  0
  142.7643   72.9774  221.9011 H   0  0  0  0  0  0  0  0  0  0  0  0
  143.2967   71.6550  220.7860 H   0  0  0  0  0  0  0  0  0  0  0  0
  144.6012   73.9281  220.9099 H   0  0  0  0  0  0  0  0  0  0  0  0
  144.2621   73.0679  219.3152 H   0  0  0  0  0  0  0  0  0  0  0  0
  144.0703   75.4820  219.2602 H   0  0  0  0  0  0  0  0  0  0  0  0
  142.5603   74.4678  218.8292 H   0  0  0  0  0  0  0  0  0  0  0  0
  143.0385   76.1967  221.1825 H   0  0  0  0  0  0  0  0  0  0  0  0
  141.8307   76.3197  219.7671 H   0  0  0  0  0  0  0  0  0  0  0  0
  141.8353   74.6472  222.1618 H   0  0  0  0  0  0  0  0  0  0  0  0
  139.6189   74.9976  221.9440 H   0  0  0  0  0  0  0  0  0  0  0  0
  140.2285   77.3704  223.5833 H   0  0  0  0  0  0  0  0  0  0  0  0
  141.6641   77.5046  223.0162 H   0  0  0  0  0  0  0  0  0  0  0  0
  138.9176   77.6053  221.3803 H   0  0  0  0  0  0  0  0  0  0  0  0
  140.1396   77.7808  220.4172 H   0  0  0  0  0  0  0  0  0  0  0  0
  140.5701   72.8815  224.0232 H   0  0  0  0  0  0  0  0  0  0  0  0
  141.3490   72.3381  226.2892 H   0  0  0  0  0  0  0  0  0  0  0  0
  141.5040   70.7687  228.0696 H   0  0  0  0  0  0  0  0  0  0  0  0
  139.7259   66.8683  227.6094 H   0  0  0  0  0  0  0  0  0  0  0  0
  138.9747   67.4969  225.3384 H   0  0  0  0  0  0  0  0  0  0  0  0
  1  2  2  0
  2  3  1  0
  3  4  1  0
  4  5  1  0
  5  6  2  0
  5  7  1  0
  7  8  1  0
  8  9  1  0
  9 10  1  0
 10 11  1  0
 11 12  1  0
 12 13  1  0
 13 14  1  0
 14 15  1  0
 15 16  1  0
  2 17  1  0
 17 18  2  0
 18 19  1  0
 19 20  2  0
 20 21  1  0
 21 22  2  0
 22 23  1  0
 22 24  1  0
 24 25  2  0
 25 26  1  0
 26 27  2  0
 13  7  1  0
 16 14  1  0
 27 17  1  0
 26 20  1  0
  3 28  1  0
  4 29  1  0
  4 30  1  0
  8 31  1  0
  8 32  1  0
  9 33  1  0
  9 34  1  0
 10 35  1  0
 10 36  1  0
 11 37  1  0
 11 38  1  0
 12 39  1  0
 12 40  1  0
 13 41  1  1
 14 42  1  0
 15 43  1  0
 15 44  1  0
 16 45  1  0
 16 46  1  0
 18 47  1  0
 19 48  1  0
 21 49  1  0
 24 50  1  0
 25 51  1  0
M  END
>  <smiles>  (64) 
O=C(NCC(=O)N1CCCCCC1C1CC1)c1ccc2cc(F)ccc2n1

>  <score_type>  (64) 
oracle

>  <origin>  (64) 
autodockgpu

>  <m_score__min__energy>  (64) 
-6.04

>  <m_primary>  (64) 
energy

>  <rmsd>  (64) 
3.1243489681713204

>  <m_score__min__rmsd>  (64) 
3.1243489681713204

>  <meeko>  (64) 
{"free_energy": -4.59, "intermolecular_energy": -7.88, "internal_energy": -1.77, "cluster_size": 30, "cluster_id": 2, "rank_in_cluster": 25}

>  <energy>  (64) 
-5.07

>  <cluster_rmsd>  (64) 
1.03

>  <cluster>  (64) 
2

$$$$

     RDKit          3D

 51 54  0  0  0  0  0  0  0  0999 V2000
  138.5000   71.1610  221.3940 O   0  0  0  0  0  0  0  0  0  0  0  0
  139.0390   71.7330  222.3800 C   0  0  0  0  0  0  0  0  0  0  0  0
  139.3860   73.1220  222.3650 N   0  0  0  0  0  0  0  0  0  0  0  0
  139.0930   73.8710  221.1570 C   0  0  0  0  0  0  0  0  0  0  0  0
  140.2290   73.7240  220.2120 C   0  0  0  0  0  0  0  0  0  0  0  0
  140.0790   73.8820  218.9540 O   0  0  0  0  0  0  0  0  0  0  0  0
  141.5270   73.4000  220.6960 N   0  0  0  0  0  0  0  0  0  0  0  0
  141.7810   72.0360  221.1160 C   0  0  0  0  0  0  0  0  0  0  0  0
  142.5930   71.2850  220.0750 C   0  0  0  0  0  0  0  0  0  0  0  0
  144.0780   71.5030  220.2730 C   0  0  0  0  0  0  0  0  0  0  0  0
  144.4690   72.8540  220.7150 C   0  0  0  0  0  0  0  0  0  0  0  0
  143.7760   74.0250  220.1230 C   0  0  0  0  0  0  0  0  0  0  0  0
  142.5080   74.4720  220.7320 C   0  0  1  0  0  0  0  0  0  0  0  0
  141.9490   75.7690  220.2360 C   0  0  0  0  0  0  0  0  0  0  0  0
  142.9640   76.8320  219.7570 C   0  0  0  0  0  0  0  0  0  0  0  0
  141.9780   76.2160  218.8460 C   0  0  0  0  0  0  0  0  0  0  0  0
  139.3230   70.9470  223.5880 C   0  0  0  0  0  0  0  0  0  0  0  0
  138.9870   69.6250  223.6590 C   0  0  0  0  0  0  0  0  0  0  0  0
  139.2190   68.8270  224.7510 C   0  0  0  0  0  0  0  0  0  0  0  0
  139.8280   69.4010  225.8420 C   0  0  0  0  0  0  0  0  0  0  0  0
  140.0700   68.6230  226.9430 C   0  0  0  0  0  0  0  0  0  0  0  0
  140.6810   69.2180  228.0270 C   0  0  0  0  0  0  0  0  0  0  0  0
  140.9490   68.4970  229.1540 F   0  0  0  0  0  0  0  0  0  0  0  0
  141.0400   70.5440  228.0110 C   0  0  0  0  0  0  0  0  0  0  0  0
  140.7760   71.2860  226.8770 C   0  0  0  0  0  0  0  0  0  0  0  0
  140.1620   70.7390  225.7570 C   0  0  0  0  0  0  0  0  0  0  0  0
  139.9210   71.4950  224.6730 N   0  0  0  0  0  0  0  0  0  0  0  0
  139.8290   73.5500  223.2050 H   0  0  0  0  0  0  0  0  0  0  0  0
  138.1748   73.4805  220.6940 H   0  0  0  0  0  0  0  0  0  0  0  0
  138.9483   74.9333  221.4032 H   0  0  0  0  0  0  0  0  0  0  0  0
  142.3381   72.0501  222.0644 H   0  0  0  0  0  0  0  0  0  0  0  0
  140.8156   71.5239  221.2419 H   0  0  0  0  0  0  0  0  0  0  0  0
  142.3746   70.2101  220.1574 H   0  0  0  0  0  0  0  0  0  0  0  0
  142.3163   71.6634  219.0799 H   0  0  0  0  0  0  0  0  0  0  0  0
  144.4279   70.7848  221.0292 H   0  0  0  0  0  0  0  0  0  0  0  0
  144.5376   71.3649  219.2832 H   0  0  0  0  0  0  0  0  0  0  0  0
  144.3085   72.8982  221.8023 H   0  0  0  0  0  0  0  0  0  0  0  0
  145.5090   72.9571  220.3719 H   0  0  0  0  0  0  0  0  0  0  0  0
  144.4749   74.8732  220.1675 H   0  0  0  0  0  0  0  0  0  0  0  0
  143.4884   73.6884  219.1160 H   0  0  0  0  0  0  0  0  0  0  0  0
  142.7648   74.7080  221.7752 H   0  0  0  0  0  0  0  0  0  0  0  0
  141.1291   75.6696  220.9625 H   0  0  0  0  0  0  0  0  0  0  0  0
  142.8563   77.8825  220.0650 H   0  0  0  0  0  0  0  0  0  0  0  0
  144.0578   76.9472  219.7777 H   0  0  0  0  0  0  0  0  0  0  0  0
  141.1483   76.8245  218.4570 H   0  0  0  0  0  0  0  0  0  0  0  0
  142.0624   75.6899  217.8836 H   0  0  0  0  0  0  0  0  0  0  0  0
  138.4989   69.1706  222.7842 H   0  0  0  0  0  0  0  0  0  0  0  0
  138.9282   67.7661  224.7535 H   0  0  0  0  0  0  0  0  0  0  0  0
  139.7868   67.5602  226.9620 H   0  0  0  0  0  0  0  0  0  0  0  0
  141.5273   71.0046  228.8830 H   0  0  0  0  0  0  0  0  0  0  0  0
  141.0619   72.3480  226.8596 H   0  0  0  0  0  0  0  0  0  0  0  0
  1  2  2  0
  2  3  1  0
  3  4  1  0
  4  5  1  0
  5  6  2  0
  5  7  1  0
  7  8  1  0
  8  9  1  0
  9 10  1  0
 10 11  1  0
 11 12  1  0
 12 13  1  0
 13 14  1  0
 14 15  1  0
 15 16  1  0
  2 17  1  0
 17 18  2  0
 18 19  1  0
 19 20  2  0
 20 21  1  0
 21 22  2  0
 22 23  1  0
 22 24  1  0
 24 25  2  0
 25 26  1  0
 26 27  2  0
 13  7  1  0
 16 14  1  0
 27 17  1  0
 26 20  1  0
  3 28  1  0
  4 29  1  0
  4 30  1  0
  8 31  1  0
  8 32  1  0
  9 33  1  0
  9 34  1  0
 10 35  1  0
 10 36  1  0
 11 37  1  0
 11 38  1  0
 12 39  1  0
 12 40  1  0
 13 41  1  1
 14 42  1  0
 15 43  1  0
 15 44  1  0
 16 45  1  0
 16 46  1  0
 18 47  1  0
 19 48  1  0
 21 49  1  0
 24 50  1  0
 25 51  1  0
M  END
>  <smiles>  (65) 
O=C(NCC(=O)N1CCCCCC1C1CC1)c1ccc2cc(F)ccc2n1

>  <score_type>  (65) 
oracle

>  <origin>  (65) 
autodockgpu

>  <m_score__min__energy>  (65) 
-6.04

>  <m_primary>  (65) 
energy

>  <rmsd>  (65) 
2.8520266625309714

>  <m_score__min__rmsd>  (65) 
2.8520266625309714

>  <meeko>  (65) 
{"free_energy": -4.53, "intermolecular_energy": -7.81, "internal_energy": -1.71, "cluster_size": 30, "cluster_id": 2, "rank_in_cluster": 27}

>  <energy>  (65) 
-5.02

>  <cluster_rmsd>  (65) 
1.55

>  <cluster>  (65) 
2

$$$$

     RDKit          3D

 51 54  0  0  0  0  0  0  0  0999 V2000
  139.0060   72.3780  222.7610 O   0  0  0  0  0  0  0  0  0  0  0  0
  140.1310   71.8770  223.0330 C   0  0  0  0  0  0  0  0  0  0  0  0
  141.2210   71.8920  222.1060 N   0  0  0  0  0  0  0  0  0  0  0  0
  140.9920   72.5140  220.8150 C   0  0  0  0  0  0  0  0  0  0  0  0
  141.1750   73.9820  220.9480 C   0  0  0  0  0  0  0  0  0  0  0  0
  140.8580   74.6030  222.0190 O   0  0  0  0  0  0  0  0  0  0  0  0
  141.7120   74.7390  219.8700 N   0  0  0  0  0  0  0  0  0  0  0  0
  140.7950   75.4830  219.0300 C   0  0  0  0  0  0  0  0  0  0  0  0
  140.4910   76.8470  219.6250 C   0  0  0  0  0  0  0  0  0  0  0  0
  141.7390   77.6980  219.7130 C   0  0  0  0  0  0  0  0  0  0  0  0
  142.9310   77.1520  219.0400 C   0  0  0  0  0  0  0  0  0  0  0  0
  143.7020   76.0780  219.7070 C   0  0  0  0  0  0  0  0  0  0  0  0
  143.1550   74.7070  219.6920 C   0  0  1  0  0  0  0  0  0  0  0  0
  143.8160   73.7150  220.5980 C   0  0  0  0  0  0  0  0  0  0  0  0
  144.7670   72.6900  219.9390 C   0  0  0  0  0  0  0  0  0  0  0  0
  145.2410   73.6910  220.9170 C   0  0  0  0  0  0  0  0  0  0  0  0
  140.3310   71.2560  224.3480 C   0  0  0  0  0  0  0  0  0  0  0  0
  140.7150   72.0030  225.4250 C   0  0  0  0  0  0  0  0  0  0  0  0
  140.9220   71.4940  226.6830 C   0  0  0  0  0  0  0  0  0  0  0  0
  140.7290   70.1440  226.8650 C   0  0  0  0  0  0  0  0  0  0  0  0
  140.9300   69.6160  228.1120 C   0  0  0  0  0  0  0  0  0  0  0  0
  140.7310   68.2600  228.2730 C   0  0  0  0  0  0  0  0  0  0  0  0
  140.9150   67.6730  229.4910 F   0  0  0  0  0  0  0  0  0  0  0  0
  140.3440   67.4610  227.2250 C   0  0  0  0  0  0  0  0  0  0  0  0
  140.1540   68.0420  225.9870 C   0  0  0  0  0  0  0  0  0  0  0  0
  140.3410   69.4010  225.7680 C   0  0  0  0  0  0  0  0  0  0  0  0
  140.1460   69.9280  224.5470 N   0  0  0  0  0  0  0  0  0  0  0  0
  142.1330   71.4670  222.3770 H   0  0  0  0  0  0  0  0  0  0  0  0
  141.7098   72.1175  220.0818 H   0  0  0  0  0  0  0  0  0  0  0  0
  139.9697   72.2958  220.4727 H   0  0  0  0  0  0  0  0  0  0  0  0
  141.2469   75.6174  218.0362 H   0  0  0  0  0  0  0  0  0  0  0  0
  139.8543   74.9178  218.9543 H   0  0  0  0  0  0  0  0  0  0  0  0
  139.7524   77.3584  218.9903 H   0  0  0  0  0  0  0  0  0  0  0  0
  140.0964   76.7026  220.6416 H   0  0  0  0  0  0  0  0  0  0  0  0
  141.5142   78.6760  219.2624 H   0  0  0  0  0  0  0  0  0  0  0  0
  141.9938   77.7487  220.7819 H   0  0  0  0  0  0  0  0  0  0  0  0
  142.5999   76.7558  218.0687 H   0  0  0  0  0  0  0  0  0  0  0  0
  143.6303   78.0006  219.0114 H   0  0  0  0  0  0  0  0  0  0  0  0
  144.6897   76.0392  219.2244 H   0  0  0  0  0  0  0  0  0  0  0  0
  143.6941   76.3603  220.7701 H   0  0  0  0  0  0  0  0  0  0  0  0
  143.3991   74.3167  218.6930 H   0  0  0  0  0  0  0  0  0  0  0  0
  142.9180   73.7283  221.2332 H   0  0  0  0  0  0  0  0  0  0  0  0
  144.7143   71.6260  220.2132 H   0  0  0  0  0  0  0  0  0  0  0  0
  145.0303   72.4029  218.9103 H   0  0  0  0  0  0  0  0  0  0  0  0
  145.5657   73.3599  221.9145 H   0  0  0  0  0  0  0  0  0  0  0  0
  146.0341   74.4529  220.8960 H   0  0  0  0  0  0  0  0  0  0  0  0
  140.8683   73.0819  225.2747 H   0  0  0  0  0  0  0  0  0  0  0  0
  141.2312   72.1425  227.5160 H   0  0  0  0  0  0  0  0  0  0  0  0
  141.2392   70.2503  228.9558 H   0  0  0  0  0  0  0  0  0  0  0  0
  140.1888   66.3816  227.3689 H   0  0  0  0  0  0  0  0  0  0  0  0
  139.8437   67.4065  225.1445 H   0  0  0  0  0  0  0  0  0  0  0  0
  1  2  2  0
  2  3  1  0
  3  4  1  0
  4  5  1  0
  5  6  2  0
  5  7  1  0
  7  8  1  0
  8  9  1  0
  9 10  1  0
 10 11  1  0
 11 12  1  0
 12 13  1  0
 13 14  1  0
 14 15  1  0
 15 16  1  0
  2 17  1  0
 17 18  2  0
 18 19  1  0
 19 20  2  0
 20 21  1  0
 21 22  2  0
 22 23  1  0
 22 24  1  0
 24 25  2  0
 25 26  1  0
 26 27  2  0
 13  7  1  0
 16 14  1  0
 27 17  1  0
 26 20  1  0
  3 28  1  0
  4 29  1  0
  4 30  1  0
  8 31  1  0
  8 32  1  0
  9 33  1  0
  9 34  1  0
 10 35  1  0
 10 36  1  0
 11 37  1  0
 11 38  1  0
 12 39  1  0
 12 40  1  0
 13 41  1  6
 14 42  1  0
 15 43  1  0
 15 44  1  0
 16 45  1  0
 16 46  1  0
 18 47  1  0
 19 48  1  0
 21 49  1  0
 24 50  1  0
 25 51  1  0
M  END
>  <smiles>  (66) 
O=C(NCC(=O)N1CCCCCC1C1CC1)c1ccc2cc(F)ccc2n1

>  <score_type>  (66) 
oracle

>  <origin>  (66) 
autodockgpu

>  <m_score__min__energy>  (66) 
-6.04

>  <m_primary>  (66) 
energy

>  <rmsd>  (66) 
3.2543734088634175

>  <m_score__min__rmsd>  (66) 
3.2543734088634175

>  <meeko>  (66) 
{"free_energy": -5.09, "intermolecular_energy": -8.37, "internal_energy": -1.31, "cluster_size": 30, "cluster_id": 2, "rank_in_cluster": 12}

>  <energy>  (66) 
-4.88

>  <cluster_rmsd>  (66) 
1.54

>  <cluster>  (66) 
2

$$$$

     RDKit          3D

 51 54  0  0  0  0  0  0  0  0999 V2000
  139.9710   71.6500  221.0260 O   0  0  0  0  0  0  0  0  0  0  0  0
  139.8180   72.2260  222.1360 C   0  0  0  0  0  0  0  0  0  0  0  0
  139.5650   73.6320  222.2420 N   0  0  0  0  0  0  0  0  0  0  0  0
  139.4870   74.3910  221.0080 C   0  0  0  0  0  0  0  0  0  0  0  0
  139.4250   75.8380  221.3360 C   0  0  0  0  0  0  0  0  0  0  0  0
  138.3130   76.4300  221.5480 O   0  0  0  0  0  0  0  0  0  0  0  0
  140.6190   76.6070  221.4210 N   0  0  0  0  0  0  0  0  0  0  0  0
  141.0760   77.0200  222.7330 C   0  0  0  0  0  0  0  0  0  0  0  0
  141.4570   78.4910  222.7420 C   0  0  0  0  0  0  0  0  0  0  0  0
  140.3810   79.3400  222.1000 C   0  0  0  0  0  0  0  0  0  0  0  0
  140.2270   79.1780  220.6420 C   0  0  0  0  0  0  0  0  0  0  0  0
  141.2240   78.3720  219.9060 C   0  0  0  0  0  0  0  0  0  0  0  0
  141.2950   76.9220  220.1730 C   0  0  1  0  0  0  0  0  0  0  0  0
  142.6500   76.2930  220.0890 C   0  0  0  0  0  0  0  0  0  0  0  0
  142.7530   74.7950  220.4580 C   0  0  0  0  0  0  0  0  0  0  0  0
  143.0510   75.2950  219.1010 C   0  0  0  0  0  0  0  0  0  0  0  0
  139.9030   71.4300  223.3670 C   0  0  0  0  0  0  0  0  0  0  0  0
  139.4980   70.1260  223.3870 C   0  0  0  0  0  0  0  0  0  0  0  0
  139.5460   69.3190  224.4960 C   0  0  0  0  0  0  0  0  0  0  0  0
  140.0340   69.8650  225.6600 C   0  0  0  0  0  0  0  0  0  0  0  0
  140.0910   69.0780  226.7800 C   0  0  0  0  0  0  0  0  0  0  0  0
  140.5830   69.6440  227.9370 C   0  0  0  0  0  0  0  0  0  0  0  0
  140.6650   68.9130  229.0860 F   0  0  0  0  0  0  0  0  0  0  0  0
  141.0040   70.9510  227.9750 C   0  0  0  0  0  0  0  0  0  0  0  0
  140.9260   71.7040  226.8190 C   0  0  0  0  0  0  0  0  0  0  0  0
  140.4390   71.1850  225.6260 C   0  0  0  0  0  0  0  0  0  0  0  0
  140.3800   71.9500  224.5240 N   0  0  0  0  0  0  0  0  0  0  0  0
  139.4450   74.0630  223.1820 H   0  0  0  0  0  0  0  0  0  0  0  0
  140.3770   74.1895  220.3937 H   0  0  0  0  0  0  0  0  0  0  0  0
  138.5879   74.0975  220.4463 H   0  0  0  0  0  0  0  0  0  0  0  0
  140.2702   76.8532  223.4630 H   0  0  0  0  0  0  0  0  0  0  0  0
  141.9647   76.4275  222.9957 H   0  0  0  0  0  0  0  0  0  0  0  0
  141.5989   78.8183  223.7825 H   0  0  0  0  0  0  0  0  0  0  0  0
  142.3863   78.6132  222.1663 H   0  0  0  0  0  0  0  0  0  0  0  0
  139.4211   79.0840  222.5723 H   0  0  0  0  0  0  0  0  0  0  0  0
  140.6886   80.3845  222.2560 H   0  0  0  0  0  0  0  0  0  0  0  0
  139.2450   78.7131  220.4703 H   0  0  0  0  0  0  0  0  0  0  0  0
  140.3621   80.1951  220.2455 H   0  0  0  0  0  0  0  0  0  0  0  0
  141.0124   78.4945  218.8335 H   0  0  0  0  0  0  0  0  0  0  0  0
  142.1928   78.7575  220.2565 H   0  0  0  0  0  0  0  0  0  0  0  0
  140.7633   76.4543  219.3313 H   0  0  0  0  0  0  0  0  0  0  0  0
  143.0910   77.2555  220.3873 H   0  0  0  0  0  0  0  0  0  0  0  0
  143.5639   74.4371  221.1094 H   0  0  0  0  0  0  0  0  0  0  0  0
  142.0820   74.0396  220.8929 H   0  0  0  0  0  0  0  0  0  0  0  0
  144.0889   75.2824  218.7367 H   0  0  0  0  0  0  0  0  0  0  0  0
  142.6809   75.0309  218.0993 H   0  0  0  0  0  0  0  0  0  0  0  0
  139.1079   69.6943  222.4534 H   0  0  0  0  0  0  0  0  0  0  0  0
  139.2065   68.2735  224.4553 H   0  0  0  0  0  0  0  0  0  0  0  0
  139.7558   68.0306  226.7570 H   0  0  0  0  0  0  0  0  0  0  0  0
  141.3947   71.3887  228.9055 H   0  0  0  0  0  0  0  0  0  0  0  0
  141.2614   72.7513  226.8443 H   0  0  0  0  0  0  0  0  0  0  0  0
  1  2  2  0
  2  3  1  0
  3  4  1  0
  4  5  1  0
  5  6  2  0
  5  7  1  0
  7  8  1  0
  8  9  1  0
  9 10  1  0
 10 11  1  0
 11 12  1  0
 12 13  1  0
 13 14  1  0
 14 15  1  0
 15 16  1  0
  2 17  1  0
 17 18  2  0
 18 19  1  0
 19 20  2  0
 20 21  1  0
 21 22  2  0
 22 23  1  0
 22 24  1  0
 24 25  2  0
 25 26  1  0
 26 27  2  0
 13  7  1  0
 16 14  1  0
 27 17  1  0
 26 20  1  0
  3 28  1  0
  4 29  1  0
  4 30  1  0
  8 31  1  0
  8 32  1  0
  9 33  1  0
  9 34  1  0
 10 35  1  0
 10 36  1  0
 11 37  1  0
 11 38  1  0
 12 39  1  0
 12 40  1  0
 13 41  1  6
 14 42  1  0
 15 43  1  0
 15 44  1  0
 16 45  1  0
 16 46  1  0
 18 47  1  0
 19 48  1  0
 21 49  1  0
 24 50  1  0
 25 51  1  0
M  END
>  <smiles>  (67) 
O=C(NCC(=O)N1CCCCCC1C1CC1)c1ccc2cc(F)ccc2n1

>  <score_type>  (67) 
oracle

>  <origin>  (67) 
autodockgpu

>  <m_score__min__energy>  (67) 
-6.04

>  <m_primary>  (67) 
energy

>  <rmsd>  (67) 
2.781176252188552

>  <m_score__min__rmsd>  (67) 
2.781176252188552

>  <meeko>  (67) 
{"free_energy": -5.1, "intermolecular_energy": -8.38, "internal_energy": -1.59, "cluster_size": 10, "cluster_id": 3, "rank_in_cluster": 6}

>  <energy>  (67) 
-4.85

>  <cluster_rmsd>  (67) 
1.01

>  <cluster>  (67) 
2

$$$$

     RDKit          3D

 51 54  0  0  0  0  0  0  0  0999 V2000
  139.0640   70.9550  221.2220 O   0  0  0  0  0  0  0  0  0  0  0  0
  139.3050   71.5510  222.3060 C   0  0  0  0  0  0  0  0  0  0  0  0
  139.4350   72.9750  222.3850 N   0  0  0  0  0  0  0  0  0  0  0  0
  139.2790   73.7290  221.1550 C   0  0  0  0  0  0  0  0  0  0  0  0
  140.1330   74.9420  221.2220 C   0  0  0  0  0  0  0  0  0  0  0  0
  140.6330   75.3500  222.3240 O   0  0  0  0  0  0  0  0  0  0  0  0
  140.4140   75.6880  220.0440 N   0  0  0  0  0  0  0  0  0  0  0  0
  139.3770   76.5510  219.5150 C   0  0  0  0  0  0  0  0  0  0  0  0
  139.9560   77.8690  219.0310 C   0  0  0  0  0  0  0  0  0  0  0  0
  140.7800   78.5360  220.1110 C   0  0  0  0  0  0  0  0  0  0  0  0
  141.9960   77.8120  220.5240 C   0  0  0  0  0  0  0  0  0  0  0  0
  142.5310   76.7520  219.6380 C   0  0  0  0  0  0  0  0  0  0  0  0
  141.7330   75.5240  219.4550 C   0  0  1  0  0  0  0  0  0  0  0  0
  142.3820   74.2390  219.8660 C   0  0  0  0  0  0  0  0  0  0  0  0
  143.7570   73.9150  219.2380 C   0  0  0  0  0  0  0  0  0  0  0  0
  143.5840   74.1330  220.6880 C   0  0  0  0  0  0  0  0  0  0  0  0
  139.4570   70.7600  223.5330 C   0  0  0  0  0  0  0  0  0  0  0  0
  138.9970   69.4750  223.6010 C   0  0  0  0  0  0  0  0  0  0  0  0
  139.1020   68.6740  224.7110 C   0  0  0  0  0  0  0  0  0  0  0  0
  139.7110   69.2050  225.8230 C   0  0  0  0  0  0  0  0  0  0  0  0
  139.8270   68.4230  226.9420 C   0  0  0  0  0  0  0  0  0  0  0  0
  140.4410   68.9740  228.0480 C   0  0  0  0  0  0  0  0  0  0  0  0
  140.5870   68.2460  229.1940 F   0  0  0  0  0  0  0  0  0  0  0  0
  140.9230   70.2600  228.0370 C   0  0  0  0  0  0  0  0  0  0  0  0
  140.7810   71.0080  226.8840 C   0  0  0  0  0  0  0  0  0  0  0  0
  140.1710   70.5040  225.7420 C   0  0  0  0  0  0  0  0  0  0  0  0
  140.0540   71.2650  224.6400 N   0  0  0  0  0  0  0  0  0  0  0  0
  139.6330   73.4230  223.3040 H   0  0  0  0  0  0  0  0  0  0  0  0
  139.5857   73.1084  220.3002 H   0  0  0  0  0  0  0  0  0  0  0  0
  138.2262   74.0213  221.0284 H   0  0  0  0  0  0  0  0  0  0  0  0
  138.8834   76.0446  218.6724 H   0  0  0  0  0  0  0  0  0  0  0  0
  138.6543   76.7608  220.3173 H   0  0  0  0  0  0  0  0  0  0  0  0
  140.5964   77.6798  218.1569 H   0  0  0  0  0  0  0  0  0  0  0  0
  139.1239   78.5377  218.7657 H   0  0  0  0  0  0  0  0  0  0  0  0
  141.0850   79.5260  219.7409 H   0  0  0  0  0  0  0  0  0  0  0  0
  140.1351   78.5729  221.0014 H   0  0  0  0  0  0  0  0  0  0  0  0
  142.7917   78.5612  220.6487 H   0  0  0  0  0  0  0  0  0  0  0  0
  141.6882   77.2706  221.4307 H   0  0  0  0  0  0  0  0  0  0  0  0
  142.6724   77.1997  218.6432 H   0  0  0  0  0  0  0  0  0  0  0  0
  143.4443   76.4089  220.1462 H   0  0  0  0  0  0  0  0  0  0  0  0
  141.6422   75.4067  218.3651 H   0  0  0  0  0  0  0  0  0  0  0  0
  141.3826   73.7888  219.9580 H   0  0  0  0  0  0  0  0  0  0  0  0
  143.9670   72.9081  218.8481 H   0  0  0  0  0  0  0  0  0  0  0  0
  144.3843   74.3443  218.4429 H   0  0  0  0  0  0  0  0  0  0  0  0
  143.6928   73.2837  221.3785 H   0  0  0  0  0  0  0  0  0  0  0  0
  144.0650   74.8042  221.4147 H   0  0  0  0  0  0  0  0  0  0  0  0
  138.5109   69.0550  222.7081 H   0  0  0  0  0  0  0  0  0  0  0  0
  138.7131   67.6451  224.7105 H   0  0  0  0  0  0  0  0  0  0  0  0
  139.4440   67.3919  226.9581 H   0  0  0  0  0  0  0  0  0  0  0  0
  141.4113   70.6850  228.9264 H   0  0  0  0  0  0  0  0  0  0  0  0
  141.1644   72.0389  226.8697 H   0  0  0  0  0  0  0  0  0  0  0  0
  1  2  2  0
  2  3  1  0
  3  4  1  0
  4  5  1  0
  5  6  2  0
  5  7  1  0
  7  8  1  0
  8  9  1  0
  9 10  1  0
 10 11  1  0
 11 12  1  0
 12 13  1  0
 13 14  1  0
 14 15  1  0
 15 16  1  0
  2 17  1  0
 17 18  2  0
 18 19  1  0
 19 20  2  0
 20 21  1  0
 21 22  2  0
 22 23  1  0
 22 24  1  0
 24 25  2  0
 25 26  1  0
 26 27  2  0
 13  7  1  0
 16 14  1  0
 27 17  1  0
 26 20  1  0
  3 28  1  0
  4 29  1  0
  4 30  1  0
  8 31  1  0
  8 32  1  0
  9 33  1  0
  9 34  1  0
 10 35  1  0
 10 36  1  0
 11 37  1  0
 11 38  1  0
 12 39  1  0
 12 40  1  0
 13 41  1  6
 14 42  1  0
 15 43  1  0
 15 44  1  0
 16 45  1  0
 16 46  1  0
 18 47  1  0
 19 48  1  0
 21 49  1  0
 24 50  1  0
 25 51  1  0
M  END
>  <smiles>  (68) 
O=C(NCC(=O)N1CCCCCC1C1CC1)c1ccc2cc(F)ccc2n1

>  <score_type>  (68) 
oracle

>  <origin>  (68) 
autodockgpu

>  <m_score__min__energy>  (68) 
-6.04

>  <m_primary>  (68) 
energy

>  <rmsd>  (68) 
1.620536425369287

>  <m_score__min__rmsd>  (68) 
1.620536425369287

>  <meeko>  (68) 
{"free_energy": -4.73, "intermolecular_energy": -8.01, "internal_energy": -1.96, "cluster_size": 30, "cluster_id": 2, "rank_in_cluster": 20}

>  <energy>  (68) 
-4.79

>  <cluster_rmsd>  (68) 
1.32

>  <cluster>  (68) 
2

$$$$

     RDKit          3D

 51 54  0  0  0  0  0  0  0  0999 V2000
  138.3850   70.8770  221.2630 O   0  0  0  0  0  0  0  0  0  0  0  0
  138.8080   71.5390  222.2490 C   0  0  0  0  0  0  0  0  0  0  0  0
  138.8800   72.9690  222.2380 N   0  0  0  0  0  0  0  0  0  0  0  0
  138.4450   73.6510  221.0340 C   0  0  0  0  0  0  0  0  0  0  0  0
  139.5240   73.5690  220.0170 C   0  0  0  0  0  0  0  0  0  0  0  0
  139.2780   73.6750  218.7680 O   0  0  0  0  0  0  0  0  0  0  0  0
  140.8730   73.3660  220.4170 N   0  0  0  0  0  0  0  0  0  0  0  0
  141.4360   72.0360  220.2840 C   0  0  0  0  0  0  0  0  0  0  0  0
  142.6620   71.8700  221.1650 C   0  0  0  0  0  0  0  0  0  0  0  0
  143.8980   72.4350  220.4970 C   0  0  0  0  0  0  0  0  0  0  0  0
  144.0210   73.9030  220.5250 C   0  0  0  0  0  0  0  0  0  0  0  0
  142.8400   74.7270  220.1750 C   0  0  0  0  0  0  0  0  0  0  0  0
  141.5920   74.5190  220.9350 C   0  0  1  0  0  0  0  0  0  0  0  0
  140.7040   75.7130  221.1000 C   0  0  0  0  0  0  0  0  0  0  0  0
  140.9480   76.6020  222.3400 C   0  0  0  0  0  0  0  0  0  0  0  0
  141.1340   77.1010  220.9620 C   0  0  0  0  0  0  0  0  0  0  0  0
  139.2410   70.8200  223.4530 C   0  0  0  0  0  0  0  0  0  0  0  0
  139.1330   69.4600  223.5350 C   0  0  0  0  0  0  0  0  0  0  0  0
  139.5160   68.7190  224.6250 C   0  0  0  0  0  0  0  0  0  0  0  0
  140.0400   69.3940  225.7020 C   0  0  0  0  0  0  0  0  0  0  0  0
  140.4290   68.6740  226.8010 C   0  0  0  0  0  0  0  0  0  0  0  0
  140.9520   69.3700  227.8700 C   0  0  0  0  0  0  0  0  0  0  0  0
  141.3580   68.7100  228.9950 F   0  0  0  0  0  0  0  0  0  0  0  0
  141.0840   70.7370  227.8440 C   0  0  0  0  0  0  0  0  0  0  0  0
  140.6780   71.4170  226.7120 C   0  0  0  0  0  0  0  0  0  0  0  0
  140.1430   70.7680  225.6070 C   0  0  0  0  0  0  0  0  0  0  0  0
  139.7600   71.4670  224.5250 N   0  0  0  0  0  0  0  0  0  0  0  0
  139.2360   73.4720  223.0780 H   0  0  0  0  0  0  0  0  0  0  0  0
  137.5348   73.1704  220.6460 H   0  0  0  0  0  0  0  0  0  0  0  0
  138.2270   74.7050  221.2613 H   0  0  0  0  0  0  0  0  0  0  0  0
  140.6789   71.2944  220.5787 H   0  0  0  0  0  0  0  0  0  0  0  0
  141.7362   71.8871  219.2363 H   0  0  0  0  0  0  0  0  0  0  0  0
  142.4949   72.3981  222.1154 H   0  0  0  0  0  0  0  0  0  0  0  0
  142.8215   70.7959  221.3404 H   0  0  0  0  0  0  0  0  0  0  0  0
  144.7790   72.0117  221.0016 H   0  0  0  0  0  0  0  0  0  0  0  0
  143.8192   72.1594  219.4350 H   0  0  0  0  0  0  0  0  0  0  0  0
  144.3186   74.1827  221.5464 H   0  0  0  0  0  0  0  0  0  0  0  0
  144.7444   74.1237  219.7262 H   0  0  0  0  0  0  0  0  0  0  0  0
  143.1282   75.7807  220.3041 H   0  0  0  0  0  0  0  0  0  0  0  0
  142.5881   74.4188  219.1495 H   0  0  0  0  0  0  0  0  0  0  0  0
  141.9200   74.3217  221.9663 H   0  0  0  0  0  0  0  0  0  0  0  0
  139.8869   75.1436  220.6329 H   0  0  0  0  0  0  0  0  0  0  0  0
  140.1013   76.9520  222.9488 H   0  0  0  0  0  0  0  0  0  0  0  0
  141.5645   76.5400  223.2489 H   0  0  0  0  0  0  0  0  0  0  0  0
  140.4327   77.8461  220.5581 H   0  0  0  0  0  0  0  0  0  0  0  0
  141.9720   77.5852  220.4392 H   0  0  0  0  0  0  0  0  0  0  0  0
  138.7118   68.9245  222.6714 H   0  0  0  0  0  0  0  0  0  0  0  0
  139.4076   67.6244  224.6364 H   0  0  0  0  0  0  0  0  0  0  0  0
  140.3276   67.5791  226.8293 H   0  0  0  0  0  0  0  0  0  0  0  0
  141.5035   71.2780  228.7050 H   0  0  0  0  0  0  0  0  0  0  0  0
  140.7822   72.5117  226.6850 H   0  0  0  0  0  0  0  0  0  0  0  0
  1  2  2  0
  2  3  1  0
  3  4  1  0
  4  5  1  0
  5  6  2  0
  5  7  1  0
  7  8  1  0
  8  9  1  0
  9 10  1  0
 10 11  1  0
 11 12  1  0
 12 13  1  0
 13 14  1  0
 14 15  1  0
 15 16  1  0
  2 17  1  0
 17 18  2  0
 18 19  1  0
 19 20  2  0
 20 21  1  0
 21 22  2  0
 22 23  1  0
 22 24  1  0
 24 25  2  0
 25 26  1  0
 26 27  2  0
 13  7  1  0
 16 14  1  0
 27 17  1  0
 26 20  1  0
  3 28  1  0
  4 29  1  0
  4 30  1  0
  8 31  1  0
  8 32  1  0
  9 33  1  0
  9 34  1  0
 10 35  1  0
 10 36  1  0
 11 37  1  0
 11 38  1  0
 12 39  1  0
 12 40  1  0
 13 41  1  1
 14 42  1  0
 15 43  1  0
 15 44  1  0
 16 45  1  0
 16 46  1  0
 18 47  1  0
 19 48  1  0
 21 49  1  0
 24 50  1  0
 25 51  1  0
M  END
>  <smiles>  (69) 
O=C(NCC(=O)N1CCCCCC1C1CC1)c1ccc2cc(F)ccc2n1

>  <score_type>  (69) 
oracle

>  <origin>  (69) 
autodockgpu

>  <m_score__min__energy>  (69) 
-6.04

>  <m_primary>  (69) 
energy

>  <rmsd>  (69) 
2.543400890466243

>  <m_score__min__rmsd>  (69) 
2.543400890466243

>  <meeko>  (69) 
{"free_energy": -4.79, "intermolecular_energy": -8.08, "internal_energy": -1.98, "cluster_size": 30, "cluster_id": 2, "rank_in_cluster": 17}

>  <energy>  (69) 
-4.78

>  <cluster_rmsd>  (69) 
0.88

>  <cluster>  (69) 
2

$$$$

     RDKit          3D

 51 54  0  0  0  0  0  0  0  0999 V2000
  139.2820   72.8220  222.4630 O   0  0  0  0  0  0  0  0  0  0  0  0
  139.9680   71.7710  222.5830 C   0  0  0  0  0  0  0  0  0  0  0  0
  140.5460   71.1010  221.4580 N   0  0  0  0  0  0  0  0  0  0  0  0
  140.3160   71.6780  220.1460 C   0  0  0  0  0  0  0  0  0  0  0  0
  140.9690   73.0100  220.0850 C   0  0  0  0  0  0  0  0  0  0  0  0
  140.2960   74.0790  219.8950 O   0  0  0  0  0  0  0  0  0  0  0  0
  142.3790   73.1260  220.2360 N   0  0  0  0  0  0  0  0  0  0  0  0
  143.1120   71.9770  220.7300 C   0  0  0  0  0  0  0  0  0  0  0  0
  144.1860   71.5490  219.7460 C   0  0  0  0  0  0  0  0  0  0  0  0
  145.4860   72.2840  219.9970 C   0  0  0  0  0  0  0  0  0  0  0  0
  145.4340   73.7470  219.8200 C   0  0  0  0  0  0  0  0  0  0  0  0
  144.3340   74.5060  220.4620 C   0  0  0  0  0  0  0  0  0  0  0  0
  142.9810   74.4000  219.8810 C   0  0  1  0  0  0  0  0  0  0  0  0
  142.8570   74.6980  218.4190 C   0  0  0  0  0  0  0  0  0  0  0  0
  142.3220   76.0950  218.0310 C   0  0  0  0  0  0  0  0  0  0  0  0
  143.6870   75.6490  217.6850 C   0  0  0  0  0  0  0  0  0  0  0  0
  140.1820   71.2120  223.9240 C   0  0  0  0  0  0  0  0  0  0  0  0
  140.8340   71.9300  224.8860 C   0  0  0  0  0  0  0  0  0  0  0  0
  141.0720   71.4760  226.1600 C   0  0  0  0  0  0  0  0  0  0  0  0
  140.6240   70.2160  226.4810 C   0  0  0  0  0  0  0  0  0  0  0  0
  140.8500   69.7430  227.7460 C   0  0  0  0  0  0  0  0  0  0  0  0
  140.3930   68.4780  228.0490 C   0  0  0  0  0  0  0  0  0  0  0  0
  140.5880   67.9490  229.2920 F   0  0  0  0  0  0  0  0  0  0  0  0
  139.7320   67.7110  227.1200 C   0  0  0  0  0  0  0  0  0  0  0  0
  139.5280   68.2330  225.8580 C   0  0  0  0  0  0  0  0  0  0  0  0
  139.9670   69.5020  225.4990 C   0  0  0  0  0  0  0  0  0  0  0  0
  139.7490   69.9730  224.2590 N   0  0  0  0  0  0  0  0  0  0  0  0
  141.1060   70.2350  221.6070 H   0  0  0  0  0  0  0  0  0  0  0  0
  140.7435   71.0215  219.3738 H   0  0  0  0  0  0  0  0  0  0  0  0
  139.2354   71.7844  219.9700 H   0  0  0  0  0  0  0  0  0  0  0  0
  143.5858   72.2379  221.6878 H   0  0  0  0  0  0  0  0  0  0  0  0
  142.4068   71.1432  220.8617 H   0  0  0  0  0  0  0  0  0  0  0  0
  144.3592   70.4679  219.8523 H   0  0  0  0  0  0  0  0  0  0  0  0
  143.8416   71.7896  218.7294 H   0  0  0  0  0  0  0  0  0  0  0  0
  145.7965   72.0789  221.0321 H   0  0  0  0  0  0  0  0  0  0  0  0
  146.1926   71.9137  219.2397 H   0  0  0  0  0  0  0  0  0  0  0  0
  146.3784   74.1536  220.2110 H   0  0  0  0  0  0  0  0  0  0  0  0
  145.2540   73.8781  218.7428 H   0  0  0  0  0  0  0  0  0  0  0  0
  144.2683   74.1649  221.5057 H   0  0  0  0  0  0  0  0  0  0  0  0
  144.6105   75.5609  220.3177 H   0  0  0  0  0  0  0  0  0  0  0  0
  142.4122   75.2219  220.3403 H   0  0  0  0  0  0  0  0  0  0  0  0
  142.6186   73.6383  218.2450 H   0  0  0  0  0  0  0  0  0  0  0  0
  141.5560   76.1996  217.2486 H   0  0  0  0  0  0  0  0  0  0  0  0
  141.8806   76.9493  218.5652 H   0  0  0  0  0  0  0  0  0  0  0  0
  143.9388   75.4468  216.6335 H   0  0  0  0  0  0  0  0  0  0  0  0
  144.6878   76.0713  217.8585 H   0  0  0  0  0  0  0  0  0  0  0  0
  141.1914   72.9366  224.6233 H   0  0  0  0  0  0  0  0  0  0  0  0
  141.6017   72.0975  226.8969 H   0  0  0  0  0  0  0  0  0  0  0  0
  141.3781   70.3515  228.4949 H   0  0  0  0  0  0  0  0  0  0  0  0
  139.3732   66.7032  227.3761 H   0  0  0  0  0  0  0  0  0  0  0  0
  138.9995   67.6231  225.1105 H   0  0  0  0  0  0  0  0  0  0  0  0
  1  2  2  0
  2  3  1  0
  3  4  1  0
  4  5  1  0
  5  6  2  0
  5  7  1  0
  7  8  1  0
  8  9  1  0
  9 10  1  0
 10 11  1  0
 11 12  1  0
 12 13  1  0
 13 14  1  0
 14 15  1  0
 15 16  1  0
  2 17  1  0
 17 18  2  0
 18 19  1  0
 19 20  2  0
 20 21  1  0
 21 22  2  0
 22 23  1  0
 22 24  1  0
 24 25  2  0
 25 26  1  0
 26 27  2  0
 13  7  1  0
 16 14  1  0
 27 17  1  0
 26 20  1  0
  3 28  1  0
  4 29  1  0
  4 30  1  0
  8 31  1  0
  8 32  1  0
  9 33  1  0
  9 34  1  0
 10 35  1  0
 10 36  1  0
 11 37  1  0
 11 38  1  0
 12 39  1  0
 12 40  1  0
 13 41  1  1
 14 42  1  0
 15 43  1  0
 15 44  1  0
 16 45  1  0
 16 46  1  0
 18 47  1  0
 19 48  1  0
 21 49  1  0
 24 50  1  0
 25 51  1  0
M  END
>  <smiles>  (70) 
O=C(NCC(=O)N1CCCCCC1C1CC1)c1ccc2cc(F)ccc2n1

>  <score_type>  (70) 
oracle

>  <origin>  (70) 
autodockgpu

>  <m_score__min__energy>  (70) 
-6.04

>  <m_primary>  (70) 
energy

>  <rmsd>  (70) 
4.021006937997746

>  <m_score__min__rmsd>  (70) 
4.021006937997746

>  <meeko>  (70) 
{"free_energy": -4.46, "intermolecular_energy": -7.74, "internal_energy": -1.35, "cluster_size": 30, "cluster_id": 2, "rank_in_cluster": 28}

>  <energy>  (70) 
-4.76

>  <cluster_rmsd>  (70) 
1.68

>  <cluster>  (70) 
2

$$$$

     RDKit          3D

 51 54  0  0  0  0  0  0  0  0999 V2000
  138.7600   72.3250  221.4600 O   0  0  0  0  0  0  0  0  0  0  0  0
  139.8280   72.2210  222.1210 C   0  0  0  0  0  0  0  0  0  0  0  0
  141.0460   72.8530  221.7120 N   0  0  0  0  0  0  0  0  0  0  0  0
  141.0160   73.6330  220.4890 C   0  0  0  0  0  0  0  0  0  0  0  0
  141.7890   74.8840  220.6960 C   0  0  0  0  0  0  0  0  0  0  0  0
  143.0660   74.8960  220.6660 O   0  0  0  0  0  0  0  0  0  0  0  0
  141.1140   76.1130  220.9380 N   0  0  0  0  0  0  0  0  0  0  0  0
  140.9150   77.0170  219.8220 C   0  0  0  0  0  0  0  0  0  0  0  0
  141.9140   78.1600  219.8590 C   0  0  0  0  0  0  0  0  0  0  0  0
  141.4270   79.2880  220.7420 C   0  0  0  0  0  0  0  0  0  0  0  0
  140.6270   78.8800  221.9120 C   0  0  0  0  0  0  0  0  0  0  0  0
  141.0800   77.7240  222.7220 C   0  0  0  0  0  0  0  0  0  0  0  0
  140.6720   76.3700  222.2990 C   0  0  1  0  0  0  0  0  0  0  0  0
  139.2330   76.0130  222.5040 C   0  0  0  0  0  0  0  0  0  0  0  0
  138.2360   77.1830  222.6680 C   0  0  0  0  0  0  0  0  0  0  0  0
  138.1660   76.2400  221.5330 C   0  0  0  0  0  0  0  0  0  0  0  0
  139.8260   71.4250  223.3540 C   0  0  0  0  0  0  0  0  0  0  0  0
  139.1730   70.2270  223.4130 C   0  0  0  0  0  0  0  0  0  0  0  0
  139.1260   69.4270  224.5280 C   0  0  0  0  0  0  0  0  0  0  0  0
  139.7780   69.8670  225.6560 C   0  0  0  0  0  0  0  0  0  0  0  0
  139.7440   69.0850  226.7800 C   0  0  0  0  0  0  0  0  0  0  0  0
  140.4050   69.5440  227.9000 C   0  0  0  0  0  0  0  0  0  0  0  0
  140.4090   68.8110  229.0520 F   0  0  0  0  0  0  0  0  0  0  0  0
  141.0770   70.7420  227.8980 C   0  0  0  0  0  0  0  0  0  0  0  0
  141.0820   71.4940  226.7390 C   0  0  0  0  0  0  0  0  0  0  0  0
  140.4340   71.0800  225.5830 C   0  0  0  0  0  0  0  0  0  0  0  0
  140.4620   71.8420  224.4760 N   0  0  0  0  0  0  0  0  0  0  0  0
  141.9040   72.7400  222.2920 H   0  0  0  0  0  0  0  0  0  0  0  0
  141.4657   73.0526  219.6699 H   0  0  0  0  0  0  0  0  0  0  0  0
  139.9755   73.8771  220.2286 H   0  0  0  0  0  0  0  0  0  0  0  0
  141.0410   76.4601  218.8818 H   0  0  0  0  0  0  0  0  0  0  0  0
  139.9007   77.4374  219.8897 H   0  0  0  0  0  0  0  0  0  0  0  0
  142.8716   77.7863  220.2507 H   0  0  0  0  0  0  0  0  0  0  0  0
  142.0360   78.5475  218.8367 H   0  0  0  0  0  0  0  0  0  0  0  0
  142.3078   79.8357  221.1083 H   0  0  0  0  0  0  0  0  0  0  0  0
  140.7565   79.8938  220.1148 H   0  0  0  0  0  0  0  0  0  0  0  0
  140.5768   79.7471  222.5869 H   0  0  0  0  0  0  0  0  0  0  0  0
  139.6750   78.5417  221.4769 H   0  0  0  0  0  0  0  0  0  0  0  0
  142.1798   77.7444  222.7320 H   0  0  0  0  0  0  0  0  0  0  0  0
  140.5866   77.8645  223.6950 H   0  0  0  0  0  0  0  0  0  0  0  0
  141.1879   75.6902  222.9931 H   0  0  0  0  0  0  0  0  0  0  0  0
  139.5567   75.1134  223.0479 H   0  0  0  0  0  0  0  0  0  0  0  0
  137.4735   77.1571  223.4605 H   0  0  0  0  0  0  0  0  0  0  0  0
  138.3095   78.2741  222.7864 H   0  0  0  0  0  0  0  0  0  0  0  0
  137.3297   75.5279  221.4733 H   0  0  0  0  0  0  0  0  0  0  0  0
  138.1520   76.3702  220.4408 H   0  0  0  0  0  0  0  0  0  0  0  0
  138.6510   69.8806  222.5089 H   0  0  0  0  0  0  0  0  0  0  0  0
  138.5862   68.4686  224.5193 H   0  0  0  0  0  0  0  0  0  0  0  0
  139.2082   68.1244  226.7891 H   0  0  0  0  0  0  0  0  0  0  0  0
  141.5996   71.0949  228.7993 H   0  0  0  0  0  0  0  0  0  0  0  0
  141.6182   72.4544  226.7319 H   0  0  0  0  0  0  0  0  0  0  0  0
  1  2  2  0
  2  3  1  0
  3  4  1  0
  4  5  1  0
  5  6  2  0
  5  7  1  0
  7  8  1  0
  8  9  1  0
  9 10  1  0
 10 11  1  0
 11 12  1  0
 12 13  1  0
 13 14  1  0
 14 15  1  0
 15 16  1  0
  2 17  1  0
 17 18  2  0
 18 19  1  0
 19 20  2  0
 20 21  1  0
 21 22  2  0
 22 23  1  0
 22 24  1  0
 24 25  2  0
 25 26  1  0
 26 27  2  0
 13  7  1  0
 16 14  1  0
 27 17  1  0
 26 20  1  0
  3 28  1  0
  4 29  1  0
  4 30  1  0
  8 31  1  0
  8 32  1  0
  9 33  1  0
  9 34  1  0
 10 35  1  0
 10 36  1  0
 11 37  1  0
 11 38  1  0
 12 39  1  0
 12 40  1  0
 13 41  1  1
 14 42  1  0
 15 43  1  0
 15 44  1  0
 16 45  1  0
 16 46  1  0
 18 47  1  0
 19 48  1  0
 21 49  1  0
 24 50  1  0
 25 51  1  0
M  END
>  <smiles>  (71) 
O=C(NCC(=O)N1CCCCCC1C1CC1)c1ccc2cc(F)ccc2n1

>  <score_type>  (71) 
oracle

>  <origin>  (71) 
autodockgpu

>  <m_score__min__energy>  (71) 
-6.04

>  <m_primary>  (71) 
energy

>  <rmsd>  (71) 
2.659001133770381

>  <m_score__min__rmsd>  (71) 
2.659001133770381

>  <meeko>  (71) 
{"free_energy": -4.79, "intermolecular_energy": -8.07, "internal_energy": -1.62, "cluster_size": 10, "cluster_id": 3, "rank_in_cluster": 9}

>  <energy>  (71) 
-4.73

>  <cluster_rmsd>  (71) 
1.65

>  <cluster>  (71) 
2

$$$$

     RDKit          3D

 51 54  0  0  0  0  0  0  0  0999 V2000
  139.4630   70.6310  221.3190 O   0  0  0  0  0  0  0  0  0  0  0  0
  139.6390   71.2140  222.4230 C   0  0  0  0  0  0  0  0  0  0  0  0
  139.7260   72.6390  222.5310 N   0  0  0  0  0  0  0  0  0  0  0  0
  139.6030   73.4110  221.3080 C   0  0  0  0  0  0  0  0  0  0  0  0
  140.7480   74.3520  221.2150 C   0  0  0  0  0  0  0  0  0  0  0  0
  140.8890   75.3210  222.0350 O   0  0  0  0  0  0  0  0  0  0  0  0
  141.7260   74.1920  220.1940 N   0  0  0  0  0  0  0  0  0  0  0  0
  141.7640   72.9370  219.4700 C   0  0  0  0  0  0  0  0  0  0  0  0
  142.5620   71.8910  220.2290 C   0  0  0  0  0  0  0  0  0  0  0  0
  143.9620   72.3810  220.5310 C   0  0  0  0  0  0  0  0  0  0  0  0
  144.4210   73.5300  219.7280 C   0  0  0  0  0  0  0  0  0  0  0  0
  144.0240   74.8950  220.1490 C   0  0  0  0  0  0  0  0  0  0  0  0
  142.6220   75.3110  219.9530 C   0  0  1  0  0  0  0  0  0  0  0  0
  142.3100   76.0220  218.6730 C   0  0  0  0  0  0  0  0  0  0  0  0
  142.8670   77.4550  218.5120 C   0  0  0  0  0  0  0  0  0  0  0  0
  143.2840   76.3420  217.6340 C   0  0  0  0  0  0  0  0  0  0  0  0
  139.7600   70.4050  223.6410 C   0  0  0  0  0  0  0  0  0  0  0  0
  139.2650   69.1330  223.6900 C   0  0  0  0  0  0  0  0  0  0  0  0
  139.3400   68.3170  224.7920 C   0  0  0  0  0  0  0  0  0  0  0  0
  139.9530   68.8180  225.9150 C   0  0  0  0  0  0  0  0  0  0  0  0
  140.0390   68.0200  227.0260 C   0  0  0  0  0  0  0  0  0  0  0  0
  140.6580   68.5410  228.1430 C   0  0  0  0  0  0  0  0  0  0  0  0
  140.7760   67.7970  229.2810 F   0  0  0  0  0  0  0  0  0  0  0  0
  141.1750   69.8140  228.1500 C   0  0  0  0  0  0  0  0  0  0  0  0
  141.0630   70.5790  227.0050 C   0  0  0  0  0  0  0  0  0  0  0  0
  140.4500   70.1050  225.8520 C   0  0  0  0  0  0  0  0  0  0  0  0
  140.3610   70.8810  224.7590 N   0  0  0  0  0  0  0  0  0  0  0  0
  139.8720   73.0760  223.4650 H   0  0  0  0  0  0  0  0  0  0  0  0
  139.6107   72.7335  220.4415 H   0  0  0  0  0  0  0  0  0  0  0  0
  138.6581   73.9741  221.3165 H   0  0  0  0  0  0  0  0  0  0  0  0
  140.7358   72.5722  219.3295 H   0  0  0  0  0  0  0  0  0  0  0  0
  142.2497   73.1092  218.4982 H   0  0  0  0  0  0  0  0  0  0  0  0
  142.0489   71.6659  221.1756 H   0  0  0  0  0  0  0  0  0  0  0  0
  142.6367   70.9893  219.6034 H   0  0  0  0  0  0  0  0  0  0  0  0
  143.9973   72.6729  221.5910 H   0  0  0  0  0  0  0  0  0  0  0  0
  144.6342   71.5481  220.2771 H   0  0  0  0  0  0  0  0  0  0  0  0
  145.5206   73.5006  219.7191 H   0  0  0  0  0  0  0  0  0  0  0  0
  143.9229   73.3939  218.7567 H   0  0  0  0  0  0  0  0  0  0  0  0
  144.2408   74.9794  221.2241 H   0  0  0  0  0  0  0  0  0  0  0  0
  144.5978   75.5594  219.4862 H   0  0  0  0  0  0  0  0  0  0  0  0
  142.4519   76.0932  220.7075 H   0  0  0  0  0  0  0  0  0  0  0  0
  141.3437   75.4972  218.6425 H   0  0  0  0  0  0  0  0  0  0  0  0
  142.2266   78.2604  218.1232 H   0  0  0  0  0  0  0  0  0  0  0  0
  143.3748   78.1840  219.1606 H   0  0  0  0  0  0  0  0  0  0  0  0
  142.9698   76.3389  216.5798 H   0  0  0  0  0  0  0  0  0  0  0  0
  144.2623   75.9213  217.3586 H   0  0  0  0  0  0  0  0  0  0  0  0
  138.7747   68.7366  222.7887 H   0  0  0  0  0  0  0  0  0  0  0  0
  138.9242   67.2987  224.7762 H   0  0  0  0  0  0  0  0  0  0  0  0
  139.6286   66.9994  227.0268 H   0  0  0  0  0  0  0  0  0  0  0  0
  141.6675   70.2154  229.0479 H   0  0  0  0  0  0  0  0  0  0  0  0
  141.4737   71.5994  227.0064 H   0  0  0  0  0  0  0  0  0  0  0  0
  1  2  2  0
  2  3  1  0
  3  4  1  0
  4  5  1  0
  5  6  2  0
  5  7  1  0
  7  8  1  0
  8  9  1  0
  9 10  1  0
 10 11  1  0
 11 12  1  0
 12 13  1  0
 13 14  1  0
 14 15  1  0
 15 16  1  0
  2 17  1  0
 17 18  2  0
 18 19  1  0
 19 20  2  0
 20 21  1  0
 21 22  2  0
 22 23  1  0
 22 24  1  0
 24 25  2  0
 25 26  1  0
 26 27  2  0
 13  7  1  0
 16 14  1  0
 27 17  1  0
 26 20  1  0
  3 28  1  0
  4 29  1  0
  4 30  1  0
  8 31  1  0
  8 32  1  0
  9 33  1  0
  9 34  1  0
 10 35  1  0
 10 36  1  0
 11 37  1  0
 11 38  1  0
 12 39  1  0
 12 40  1  0
 13 41  1  1
 14 42  1  0
 15 43  1  0
 15 44  1  0
 16 45  1  0
 16 46  1  0
 18 47  1  0
 19 48  1  0
 21 49  1  0
 24 50  1  0
 25 51  1  0
M  END
>  <smiles>  (72) 
O=C(NCC(=O)N1CCCCCC1C1CC1)c1ccc2cc(F)ccc2n1

>  <score_type>  (72) 
oracle

>  <origin>  (72) 
autodockgpu

>  <m_score__min__energy>  (72) 
-6.04

>  <m_primary>  (72) 
energy

>  <rmsd>  (72) 
2.507328081640264

>  <m_score__min__rmsd>  (72) 
2.507328081640264

>  <meeko>  (72) 
{"free_energy": -5.19, "intermolecular_energy": -8.47, "internal_energy": -1.75, "cluster_size": 30, "cluster_id": 2, "rank_in_cluster": 10}

>  <energy>  (72) 
-4.69

>  <cluster_rmsd>  (72) 
1.21

>  <cluster>  (72) 
2

$$$$

     RDKit          3D

 51 54  0  0  0  0  0  0  0  0999 V2000
  139.5760   70.6480  221.4580 O   0  0  0  0  0  0  0  0  0  0  0  0
  139.6130   71.2470  222.5670 C   0  0  0  0  0  0  0  0  0  0  0  0
  139.5810   72.6740  222.6680 N   0  0  0  0  0  0  0  0  0  0  0  0
  139.5020   73.4300  221.4320 C   0  0  0  0  0  0  0  0  0  0  0  0
  140.6620   74.3550  221.3580 C   0  0  0  0  0  0  0  0  0  0  0  0
  140.7100   75.4280  222.0490 O   0  0  0  0  0  0  0  0  0  0  0  0
  141.7600   74.0610  220.5030 N   0  0  0  0  0  0  0  0  0  0  0  0
  141.9050   72.7040  220.0130 C   0  0  0  0  0  0  0  0  0  0  0  0
  142.9010   71.9220  220.8510 C   0  0  0  0  0  0  0  0  0  0  0  0
  144.3240   72.2090  220.4210 C   0  0  0  0  0  0  0  0  0  0  0  0
  144.5350   73.4970  219.7370 C   0  0  0  0  0  0  0  0  0  0  0  0
  144.0640   74.7400  220.3930 C   0  0  0  0  0  0  0  0  0  0  0  0
  142.6630   75.1550  220.1830 C   0  0  1  0  0  0  0  0  0  0  0  0
  142.3450   75.7840  218.8630 C   0  0  0  0  0  0  0  0  0  0  0  0
  142.5750   77.3080  218.7390 C   0  0  0  0  0  0  0  0  0  0  0  0
  143.3320   76.3270  217.9340 C   0  0  0  0  0  0  0  0  0  0  0  0
  139.6920   70.4530  223.8000 C   0  0  0  0  0  0  0  0  0  0  0  0
  139.1750   69.1900  223.8540 C   0  0  0  0  0  0  0  0  0  0  0  0
  139.2110   68.3890  224.9690 C   0  0  0  0  0  0  0  0  0  0  0  0
  139.8060   68.8960  226.1000 C   0  0  0  0  0  0  0  0  0  0  0  0
  139.8530   68.1140  227.2230 C   0  0  0  0  0  0  0  0  0  0  0  0
  140.4540   68.6410  228.3470 C   0  0  0  0  0  0  0  0  0  0  0  0
  140.5320   67.9120  229.4980 F   0  0  0  0  0  0  0  0  0  0  0  0
  140.9900   69.9060  228.3490 C   0  0  0  0  0  0  0  0  0  0  0  0
  140.9180   70.6550  227.1910 C   0  0  0  0  0  0  0  0  0  0  0  0
  140.3240   70.1750  226.0300 C   0  0  0  0  0  0  0  0  0  0  0  0
  140.2740   70.9360  224.9240 N   0  0  0  0  0  0  0  0  0  0  0  0
  139.6130   73.1240  223.6070 H   0  0  0  0  0  0  0  0  0  0  0  0
  139.5246   72.7403  220.5754 H   0  0  0  0  0  0  0  0  0  0  0  0
  138.5648   74.0053  221.4066 H   0  0  0  0  0  0  0  0  0  0  0  0
  140.9277   72.2009  220.0547 H   0  0  0  0  0  0  0  0  0  0  0  0
  142.2759   72.7447  218.9782 H   0  0  0  0  0  0  0  0  0  0  0  0
  142.7815   72.2051  221.9072 H   0  0  0  0  0  0  0  0  0  0  0  0
  142.7054   70.8485  220.7123 H   0  0  0  0  0  0  0  0  0  0  0  0
  144.9584   72.1951  221.3195 H   0  0  0  0  0  0  0  0  0  0  0  0
  144.5784   71.4322  219.6849 H   0  0  0  0  0  0  0  0  0  0  0  0
  145.6182   73.6054  219.5790 H   0  0  0  0  0  0  0  0  0  0  0  0
  143.9140   73.4223  218.8322 H   0  0  0  0  0  0  0  0  0  0  0  0
  144.2064   74.6106  221.4761 H   0  0  0  0  0  0  0  0  0  0  0  0
  144.6568   75.5373  219.9208 H   0  0  0  0  0  0  0  0  0  0  0  0
  142.5064   75.9855  220.8871 H   0  0  0  0  0  0  0  0  0  0  0  0
  141.5345   75.0517  218.7335 H   0  0  0  0  0  0  0  0  0  0  0  0
  141.8160   77.9484  218.2659 H   0  0  0  0  0  0  0  0  0  0  0  0
  142.8260   78.1288  219.4270 H   0  0  0  0  0  0  0  0  0  0  0  0
  143.1486   76.2604  216.8515 H   0  0  0  0  0  0  0  0  0  0  0  0
  144.4053   76.1437  217.7781 H   0  0  0  0  0  0  0  0  0  0  0  0
  138.6996   68.7889  222.9468 H   0  0  0  0  0  0  0  0  0  0  0  0
  138.7790   67.3774  224.9576 H   0  0  0  0  0  0  0  0  0  0  0  0
  139.4261   67.1002  227.2286 H   0  0  0  0  0  0  0  0  0  0  0  0
  141.4661   70.3133  229.2531 H   0  0  0  0  0  0  0  0  0  0  0  0
  141.3463   71.6682  227.1875 H   0  0  0  0  0  0  0  0  0  0  0  0
  1  2  2  0
  2  3  1  0
  3  4  1  0
  4  5  1  0
  5  6  2  0
  5  7  1  0
  7  8  1  0
  8  9  1  0
  9 10  1  0
 10 11  1  0
 11 12  1  0
 12 13  1  0
 13 14  1  0
 14 15  1  0
 15 16  1  0
  2 17  1  0
 17 18  2  0
 18 19  1  0
 19 20  2  0
 20 21  1  0
 21 22  2  0
 22 23  1  0
 22 24  1  0
 24 25  2  0
 25 26  1  0
 26 27  2  0
 13  7  1  0
 16 14  1  0
 27 17  1  0
 26 20  1  0
  3 28  1  0
  4 29  1  0
  4 30  1  0
  8 31  1  0
  8 32  1  0
  9 33  1  0
  9 34  1  0
 10 35  1  0
 10 36  1  0
 11 37  1  0
 11 38  1  0
 12 39  1  0
 12 40  1  0
 13 41  1  1
 14 42  1  0
 15 43  1  0
 15 44  1  0
 16 45  1  0
 16 46  1  0
 18 47  1  0
 19 48  1  0
 21 49  1  0
 24 50  1  0
 25 51  1  0
M  END
>  <smiles>  (73) 
O=C(NCC(=O)N1CCCCCC1C1CC1)c1ccc2cc(F)ccc2n1

>  <score_type>  (73) 
oracle

>  <origin>  (73) 
autodockgpu

>  <m_score__min__energy>  (73) 
-6.04

>  <m_primary>  (73) 
energy

>  <rmsd>  (73) 
2.6681936318246224

>  <m_score__min__rmsd>  (73) 
2.6681936318246224

>  <meeko>  (73) 
{"free_energy": -5.7, "intermolecular_energy": -8.98, "internal_energy": -1.68, "cluster_size": 30, "cluster_id": 2, "rank_in_cluster": 1}

>  <energy>  (73) 
-4.67

>  <cluster_rmsd>  (73) 
1.0

>  <cluster>  (73) 
2

$$$$

     RDKit          3D

 51 54  0  0  0  0  0  0  0  0999 V2000
  138.6070   71.2680  221.1660 O   0  0  0  0  0  0  0  0  0  0  0  0
  139.0820   71.8170  222.1970 C   0  0  0  0  0  0  0  0  0  0  0  0
  139.3320   73.2250  222.2690 N   0  0  0  0  0  0  0  0  0  0  0  0
  139.0140   74.0210  221.0980 C   0  0  0  0  0  0  0  0  0  0  0  0
  139.8590   73.5670  219.9640 C   0  0  0  0  0  0  0  0  0  0  0  0
  139.3550   73.2810  218.8260 O   0  0  0  0  0  0  0  0  0  0  0  0
  141.2660   73.4390  220.1240 N   0  0  0  0  0  0  0  0  0  0  0  0
  141.8710   72.1470  219.8660 C   0  0  0  0  0  0  0  0  0  0  0  0
  142.8440   71.7680  220.9690 C   0  0  0  0  0  0  0  0  0  0  0  0
  144.2340   72.2920  220.6780 C   0  0  0  0  0  0  0  0  0  0  0  0
  144.3800   73.7590  220.7060 C   0  0  0  0  0  0  0  0  0  0  0  0
  143.3730   74.5900  220.0040 C   0  0  0  0  0  0  0  0  0  0  0  0
  141.9980   74.6250  220.5380 C   0  0  1  0  0  0  0  0  0  0  0  0
  141.2210   75.8820  220.3000 C   0  0  0  0  0  0  0  0  0  0  0  0
  140.9580   76.7870  221.5250 C   0  0  0  0  0  0  0  0  0  0  0  0
  141.7690   77.2330  220.3740 C   0  0  0  0  0  0  0  0  0  0  0  0
  139.3930   70.9840  223.3650 C   0  0  0  0  0  0  0  0  0  0  0  0
  139.1780   69.6350  223.3410 C   0  0  0  0  0  0  0  0  0  0  0  0
  139.4430   68.7930  224.3920 C   0  0  0  0  0  0  0  0  0  0  0  0
  139.9560   69.3480  225.5400 C   0  0  0  0  0  0  0  0  0  0  0  0
  140.2280   68.5250  226.6010 C   0  0  0  0  0  0  0  0  0  0  0  0
  140.7430   69.1020  227.7440 C   0  0  0  0  0  0  0  0  0  0  0  0
  141.0340   68.3360  228.8360 F   0  0  0  0  0  0  0  0  0  0  0  0
  140.9790   70.4530  227.8240 C   0  0  0  0  0  0  0  0  0  0  0  0
  140.6880   71.2390  226.7270 C   0  0  0  0  0  0  0  0  0  0  0  0
  140.1680   70.7120  225.5510 C   0  0  0  0  0  0  0  0  0  0  0  0
  139.8990   71.5130  224.5060 N   0  0  0  0  0  0  0  0  0  0  0  0
  139.7250   73.6330  223.1430 H   0  0  0  0  0  0  0  0  0  0  0  0
  137.9520   73.8929  220.8417 H   0  0  0  0  0  0  0  0  0  0  0  0
  139.2083   75.0836  221.3056 H   0  0  0  0  0  0  0  0  0  0  0  0
  141.0797   71.3851  219.8077 H   0  0  0  0  0  0  0  0  0  0  0  0
  142.4241   72.2038  218.9169 H   0  0  0  0  0  0  0  0  0  0  0  0
  142.4918   72.1942  221.9199 H   0  0  0  0  0  0  0  0  0  0  0  0
  142.8914   70.6707  221.0292 H   0  0  0  0  0  0  0  0  0  0  0  0
  144.9190   71.8692  221.4277 H   0  0  0  0  0  0  0  0  0  0  0  0
  144.4611   71.9864  219.6460 H   0  0  0  0  0  0  0  0  0  0  0  0
  144.3717   74.0647  221.7626 H   0  0  0  0  0  0  0  0  0  0  0  0
  145.3116   73.9444  220.1512 H   0  0  0  0  0  0  0  0  0  0  0  0
  143.7481   75.6241  220.0029 H   0  0  0  0  0  0  0  0  0  0  0  0
  143.2686   74.1136  219.0180 H   0  0  0  0  0  0  0  0  0  0  0  0
  142.1210   74.6246  221.6311 H   0  0  0  0  0  0  0  0  0  0  0  0
  140.6547   75.3572  219.5164 H   0  0  0  0  0  0  0  0  0  0  0  0
  139.9581   77.2113  221.6987 H   0  0  0  0  0  0  0  0  0  0  0  0
  141.1039   76.7084  222.6124 H   0  0  0  0  0  0  0  0  0  0  0  0
  141.3751   78.0129  219.7057 H   0  0  0  0  0  0  0  0  0  0  0  0
  142.7849   77.6437  220.2781 H   0  0  0  0  0  0  0  0  0  0  0  0
  138.7662   69.1956  222.4205 H   0  0  0  0  0  0  0  0  0  0  0  0
  139.2516   67.7123  224.3182 H   0  0  0  0  0  0  0  0  0  0  0  0
  140.0424   67.4423  226.5438 H   0  0  0  0  0  0  0  0  0  0  0  0
  141.3906   70.8985  228.7416 H   0  0  0  0  0  0  0  0  0  0  0  0
  140.8745   72.3215  226.7859 H   0  0  0  0  0  0  0  0  0  0  0  0
  1  2  2  0
  2  3  1  0
  3  4  1  0
  4  5  1  0
  5  6  2  0
  5  7  1  0
  7  8  1  0
  8  9  1  0
  9 10  1  0
 10 11  1  0
 11 12  1  0
 12 13  1  0
 13 14  1  0
 14 15  1  0
 15 16  1  0
  2 17  1  0
 17 18  2  0
 18 19  1  0
 19 20  2  0
 20 21  1  0
 21 22  2  0
 22 23  1  0
 22 24  1  0
 24 25  2  0
 25 26  1  0
 26 27  2  0
 13  7  1  0
 16 14  1  0
 27 17  1  0
 26 20  1  0
  3 28  1  0
  4 29  1  0
  4 30  1  0
  8 31  1  0
  8 32  1  0
  9 33  1  0
  9 34  1  0
 10 35  1  0
 10 36  1  0
 11 37  1  0
 11 38  1  0
 12 39  1  0
 12 40  1  0
 13 41  1  1
 14 42  1  0
 15 43  1  0
 15 44  1  0
 16 45  1  0
 16 46  1  0
 18 47  1  0
 19 48  1  0
 21 49  1  0
 24 50  1  0
 25 51  1  0
M  END
>  <smiles>  (74) 
O=C(NCC(=O)N1CCCCCC1C1CC1)c1ccc2cc(F)ccc2n1

>  <score_type>  (74) 
oracle

>  <origin>  (74) 
autodockgpu

>  <m_score__min__energy>  (74) 
-6.04

>  <m_primary>  (74) 
energy

>  <rmsd>  (74) 
2.6287551979802433

>  <m_score__min__rmsd>  (74) 
2.6287551979802433

>  <meeko>  (74) 
{"free_energy": -4.69, "intermolecular_energy": -7.97, "internal_energy": -1.8, "cluster_size": 30, "cluster_id": 2, "rank_in_cluster": 21}

>  <energy>  (74) 
-4.64

>  <cluster_rmsd>  (74) 
1.81

>  <cluster>  (74) 
2

$$$$

     RDKit          3D

 51 54  0  0  0  0  0  0  0  0999 V2000
  139.4500   70.5690  221.3270 O   0  0  0  0  0  0  0  0  0  0  0  0
  139.5310   71.2060  222.4130 C   0  0  0  0  0  0  0  0  0  0  0  0
  139.5290   72.6360  222.4640 N   0  0  0  0  0  0  0  0  0  0  0  0
  139.4270   73.3500  221.2040 C   0  0  0  0  0  0  0  0  0  0  0  0
  140.3400   74.5210  221.2390 C   0  0  0  0  0  0  0  0  0  0  0  0
  140.5620   75.1660  222.3190 O   0  0  0  0  0  0  0  0  0  0  0  0
  140.9950   74.9560  220.0540 N   0  0  0  0  0  0  0  0  0  0  0  0
  140.4460   76.0950  219.3450 C   0  0  0  0  0  0  0  0  0  0  0  0
  141.1240   77.3850  219.7730 C   0  0  0  0  0  0  0  0  0  0  0  0
  142.4830   77.5330  219.1230 C   0  0  0  0  0  0  0  0  0  0  0  0
  143.4140   76.4090  219.3310 C   0  0  0  0  0  0  0  0  0  0  0  0
  143.0510   75.0710  218.8140 C   0  0  0  0  0  0  0  0  0  0  0  0
  142.1770   74.2160  219.6390 C   0  0  1  0  0  0  0  0  0  0  0  0
  142.8270   73.5020  220.7830 C   0  0  0  0  0  0  0  0  0  0  0  0
  143.2400   72.0310  220.5470 C   0  0  0  0  0  0  0  0  0  0  0  0
  144.2280   73.0930  220.8260 C   0  0  0  0  0  0  0  0  0  0  0  0
  139.6320   70.4550  223.6700 C   0  0  0  0  0  0  0  0  0  0  0  0
  139.1330   69.1870  223.7710 C   0  0  0  0  0  0  0  0  0  0  0  0
  139.1900   68.4240  224.9110 C   0  0  0  0  0  0  0  0  0  0  0  0
  139.7880   68.9760  226.0190 C   0  0  0  0  0  0  0  0  0  0  0  0
  139.8550   68.2320  227.1670 C   0  0  0  0  0  0  0  0  0  0  0  0
  140.4580   68.8050  228.2670 C   0  0  0  0  0  0  0  0  0  0  0  0
  140.5570   68.1150  229.4410 F   0  0  0  0  0  0  0  0  0  0  0  0
  140.9770   70.0760  228.2220 C   0  0  0  0  0  0  0  0  0  0  0  0
  140.8840   70.7860  227.0410 C   0  0  0  0  0  0  0  0  0  0  0  0
  140.2870   70.2580  225.9030 C   0  0  0  0  0  0  0  0  0  0  0  0
  140.2170   70.9820  224.7730 N   0  0  0  0  0  0  0  0  0  0  0  0
  139.5970   73.1180  223.3850 H   0  0  0  0  0  0  0  0  0  0  0  0
  139.7135   72.6831  220.3775 H   0  0  0  0  0  0  0  0  0  0  0  0
  138.3919   73.6891  221.0506 H   0  0  0  0  0  0  0  0  0  0  0  0
  140.5958   75.9518  218.2647 H   0  0  0  0  0  0  0  0  0  0  0  0
  139.3741   76.1692  219.5805 H   0  0  0  0  0  0  0  0  0  0  0  0
  140.4920   78.2364  219.4802 H   0  0  0  0  0  0  0  0  0  0  0  0
  141.2615   77.3600  220.8641 H   0  0  0  0  0  0  0  0  0  0  0  0
  142.3294   77.6493  218.0400 H   0  0  0  0  0  0  0  0  0  0  0  0
  142.9523   78.4052  219.6017 H   0  0  0  0  0  0  0  0  0  0  0  0
  144.3675   76.6889  218.8593 H   0  0  0  0  0  0  0  0  0  0  0  0
  143.4259   76.2753  220.4228 H   0  0  0  0  0  0  0  0  0  0  0  0
  142.5434   75.2212  217.8497 H   0  0  0  0  0  0  0  0  0  0  0  0
  144.0060   74.5264  218.7760 H   0  0  0  0  0  0  0  0  0  0  0  0
  141.8867   73.3882  218.9754 H   0  0  0  0  0  0  0  0  0  0  0  0
  142.2083   74.0912  221.4758 H   0  0  0  0  0  0  0  0  0  0  0  0
  143.0200   71.2633  221.3034 H   0  0  0  0  0  0  0  0  0  0  0  0
  143.0849   71.2831  219.7555 H   0  0  0  0  0  0  0  0  0  0  0  0
  144.7618   73.0948  221.7878 H   0  0  0  0  0  0  0  0  0  0  0  0
  145.1335   73.4394  220.3063 H   0  0  0  0  0  0  0  0  0  0  0  0
  138.6550   68.7495  222.8821 H   0  0  0  0  0  0  0  0  0  0  0  0
  138.7719   67.4069  224.9369 H   0  0  0  0  0  0  0  0  0  0  0  0
  139.4423   67.2132  227.2101 H   0  0  0  0  0  0  0  0  0  0  0  0
  141.4564   70.5188  229.1075 H   0  0  0  0  0  0  0  0  0  0  0  0
  141.2969   71.8048  227.0000 H   0  0  0  0  0  0  0  0  0  0  0  0
  1  2  2  0
  2  3  1  0
  3  4  1  0
  4  5  1  0
  5  6  2  0
  5  7  1  0
  7  8  1  0
  8  9  1  0
  9 10  1  0
 10 11  1  0
 11 12  1  0
 12 13  1  0
 13 14  1  0
 14 15  1  0
 15 16  1  0
  2 17  1  0
 17 18  2  0
 18 19  1  0
 19 20  2  0
 20 21  1  0
 21 22  2  0
 22 23  1  0
 22 24  1  0
 24 25  2  0
 25 26  1  0
 26 27  2  0
 13  7  1  0
 16 14  1  0
 27 17  1  0
 26 20  1  0
  3 28  1  0
  4 29  1  0
  4 30  1  0
  8 31  1  0
  8 32  1  0
  9 33  1  0
  9 34  1  0
 10 35  1  0
 10 36  1  0
 11 37  1  0
 11 38  1  0
 12 39  1  0
 12 40  1  0
 13 41  1  6
 14 42  1  0
 15 43  1  0
 15 44  1  0
 16 45  1  0
 16 46  1  0
 18 47  1  0
 19 48  1  0
 21 49  1  0
 24 50  1  0
 25 51  1  0
M  END
>  <smiles>  (75) 
O=C(NCC(=O)N1CCCCCC1C1CC1)c1ccc2cc(F)ccc2n1

>  <score_type>  (75) 
oracle

>  <origin>  (75) 
autodockgpu

>  <m_score__min__energy>  (75) 
-6.04

>  <m_primary>  (75) 
energy

>  <rmsd>  (75) 
1.8835760769137242

>  <m_score__min__rmsd>  (75) 
1.8835760769137242

>  <meeko>  (75) 
{"free_energy": -4.85, "intermolecular_energy": -8.13, "internal_energy": -1.92, "cluster_size": 30, "cluster_id": 2, "rank_in_cluster": 16}

>  <energy>  (75) 
-4.62

>  <cluster_rmsd>  (75) 
0.54

>  <cluster>  (75) 
2

$$$$

     RDKit          3D

 51 54  0  0  0  0  0  0  0  0999 V2000
  138.0360   71.6450  222.4000 O   0  0  0  0  0  0  0  0  0  0  0  0
  139.2200   71.4490  222.7840 C   0  0  0  0  0  0  0  0  0  0  0  0
  140.3480   72.0190  222.1110 N   0  0  0  0  0  0  0  0  0  0  0  0
  140.0830   72.8480  220.9490 C   0  0  0  0  0  0  0  0  0  0  0  0
  140.7550   74.1600  221.1310 C   0  0  0  0  0  0  0  0  0  0  0  0
  140.7380   74.7720  222.2520 O   0  0  0  0  0  0  0  0  0  0  0  0
  141.4390   74.7730  220.0450 N   0  0  0  0  0  0  0  0  0  0  0  0
  140.7090   75.7110  219.2160 C   0  0  0  0  0  0  0  0  0  0  0  0
  140.8060   77.1220  219.7700 C   0  0  0  0  0  0  0  0  0  0  0  0
  142.2030   77.6820  219.6050 C   0  0  0  0  0  0  0  0  0  0  0  0
  143.1870   76.7700  218.9940 C   0  0  0  0  0  0  0  0  0  0  0  0
  143.6750   75.6150  219.7830 C   0  0  0  0  0  0  0  0  0  0  0  0
  142.8320   74.4060  219.8480 C   0  0  1  0  0  0  0  0  0  0  0  0
  143.2750   73.3340  220.7940 C   0  0  0  0  0  0  0  0  0  0  0  0
  143.6000   71.9510  220.1840 C   0  0  0  0  0  0  0  0  0  0  0  0
  144.6240   72.7770  220.8570 C   0  0  0  0  0  0  0  0  0  0  0  0
  139.4540   70.6050  223.9620 C   0  0  0  0  0  0  0  0  0  0  0  0
  139.0520   69.3000  223.9810 C   0  0  0  0  0  0  0  0  0  0  0  0
  139.2350   68.4510  225.0440 C   0  0  0  0  0  0  0  0  0  0  0  0
  139.8640   68.9520  226.1590 C   0  0  0  0  0  0  0  0  0  0  0  0
  140.0570   68.1210  227.2310 C   0  0  0  0  0  0  0  0  0  0  0  0
  140.6900   68.6430  228.3400 C   0  0  0  0  0  0  0  0  0  0  0  0
  140.9120   67.8670  229.4410 F   0  0  0  0  0  0  0  0  0  0  0  0
  141.1160   69.9490  228.3760 C   0  0  0  0  0  0  0  0  0  0  0  0
  140.8980   70.7460  227.2700 C   0  0  0  0  0  0  0  0  0  0  0  0
  140.2660   70.2720  226.1270 C   0  0  0  0  0  0  0  0  0  0  0  0
  140.0720   71.0810  225.0710 N   0  0  0  0  0  0  0  0  0  0  0  0
  141.3090   71.8300  222.4660 H   0  0  0  0  0  0  0  0  0  0  0  0
  140.4738   72.3549  220.0467 H   0  0  0  0  0  0  0  0  0  0  0  0
  138.9989   72.9968  220.8366 H   0  0  0  0  0  0  0  0  0  0  0  0
  141.1293   75.6946  218.1996 H   0  0  0  0  0  0  0  0  0  0  0  0
  139.6501   75.4136  219.2018 H   0  0  0  0  0  0  0  0  0  0  0  0
  140.0953   77.7675  219.2332 H   0  0  0  0  0  0  0  0  0  0  0  0
  140.5685   77.0910  220.8436 H   0  0  0  0  0  0  0  0  0  0  0  0
  142.1353   78.5795  218.9727 H   0  0  0  0  0  0  0  0  0  0  0  0
  142.5693   77.8815  220.6229 H   0  0  0  0  0  0  0  0  0  0  0  0
  142.7291   76.3662  218.0790 H   0  0  0  0  0  0  0  0  0  0  0  0
  144.0812   77.3959  218.8575 H   0  0  0  0  0  0  0  0  0  0  0  0
  144.6430   75.3144  219.3557 H   0  0  0  0  0  0  0  0  0  0  0  0
  143.6996   75.9848  220.8187 H   0  0  0  0  0  0  0  0  0  0  0  0
  142.9550   73.9237  218.8671 H   0  0  0  0  0  0  0  0  0  0  0  0
  142.6205   73.7712  221.5624 H   0  0  0  0  0  0  0  0  0  0  0  0
  143.2265   71.0319  220.6591 H   0  0  0  0  0  0  0  0  0  0  0  0
  143.4899   71.4757  219.1981 H   0  0  0  0  0  0  0  0  0  0  0  0
  145.0291   72.4512  221.8264 H   0  0  0  0  0  0  0  0  0  0  0  0
  145.6126   73.1523  220.5538 H   0  0  0  0  0  0  0  0  0  0  0  0
  138.5490   68.9036  223.0866 H   0  0  0  0  0  0  0  0  0  0  0  0
  138.8906   67.4070  225.0051 H   0  0  0  0  0  0  0  0  0  0  0  0
  139.7191   67.0744  227.2082 H   0  0  0  0  0  0  0  0  0  0  0  0
  141.6201   70.3509  229.2673 H   0  0  0  0  0  0  0  0  0  0  0  0
  141.2363   71.7924  227.2945 H   0  0  0  0  0  0  0  0  0  0  0  0
  1  2  2  0
  2  3  1  0
  3  4  1  0
  4  5  1  0
  5  6  2  0
  5  7  1  0
  7  8  1  0
  8  9  1  0
  9 10  1  0
 10 11  1  0
 11 12  1  0
 12 13  1  0
 13 14  1  0
 14 15  1  0
 15 16  1  0
  2 17  1  0
 17 18  2  0
 18 19  1  0
 19 20  2  0
 20 21  1  0
 21 22  2  0
 22 23  1  0
 22 24  1  0
 24 25  2  0
 25 26  1  0
 26 27  2  0
 13  7  1  0
 16 14  1  0
 27 17  1  0
 26 20  1  0
  3 28  1  0
  4 29  1  0
  4 30  1  0
  8 31  1  0
  8 32  1  0
  9 33  1  0
  9 34  1  0
 10 35  1  0
 10 36  1  0
 11 37  1  0
 11 38  1  0
 12 39  1  0
 12 40  1  0
 13 41  1  6
 14 42  1  0
 15 43  1  0
 15 44  1  0
 16 45  1  0
 16 46  1  0
 18 47  1  0
 19 48  1  0
 21 49  1  0
 24 50  1  0
 25 51  1  0
M  END
>  <smiles>  (76) 
O=C(NCC(=O)N1CCCCCC1C1CC1)c1ccc2cc(F)ccc2n1

>  <score_type>  (76) 
oracle

>  <origin>  (76) 
autodockgpu

>  <m_score__min__energy>  (76) 
-6.04

>  <m_primary>  (76) 
energy

>  <rmsd>  (76) 
2.1890214390837626

>  <m_score__min__rmsd>  (76) 
2.1890214390837626

>  <meeko>  (76) 
{"free_energy": -5.12, "intermolecular_energy": -8.4, "internal_energy": -1.4, "cluster_size": 30, "cluster_id": 2, "rank_in_cluster": 11}

>  <energy>  (76) 
-4.59

>  <cluster_rmsd>  (76) 
1.47

>  <cluster>  (76) 
2

$$$$

     RDKit          3D

 51 54  0  0  0  0  0  0  0  0999 V2000
  135.4230   68.5690  224.4610 O   0  0  0  0  0  0  0  0  0  0  0  0
  135.8210   69.7450  224.6790 C   0  0  0  0  0  0  0  0  0  0  0  0
  137.1210   70.1990  224.2880 N   0  0  0  0  0  0  0  0  0  0  0  0
  137.9880   69.2470  223.6190 C   0  0  0  0  0  0  0  0  0  0  0  0
  138.9150   68.6550  224.6170 C   0  0  0  0  0  0  0  0  0  0  0  0
  138.8900   67.4100  224.9000 O   0  0  0  0  0  0  0  0  0  0  0  0
  139.8640   69.4750  225.2890 N   0  0  0  0  0  0  0  0  0  0  0  0
  140.6880   68.8700  226.3160 C   0  0  0  0  0  0  0  0  0  0  0  0
  140.1850   69.2290  227.7030 C   0  0  0  0  0  0  0  0  0  0  0  0
  140.7040   70.5810  228.1420 C   0  0  0  0  0  0  0  0  0  0  0  0
  140.3830   71.7070  227.2460 C   0  0  0  0  0  0  0  0  0  0  0  0
  140.7910   71.6270  225.8240 C   0  0  0  0  0  0  0  0  0  0  0  0
  139.9340   70.8710  224.8900 C   0  0  1  0  0  0  0  0  0  0  0  0
  140.2340   71.0300  223.4320 C   0  0  0  0  0  0  0  0  0  0  0  0
  139.2490   71.8840  222.6020 C   0  0  0  0  0  0  0  0  0  0  0  0
  140.6610   72.2720  222.7940 C   0  0  0  0  0  0  0  0  0  0  0  0
  134.9200   70.6850  225.3580 C   0  0  0  0  0  0  0  0  0  0  0  0
  133.9240   70.2330  226.1760 C   0  0  0  0  0  0  0  0  0  0  0  0
  133.0440   71.0490  226.8440 C   0  0  0  0  0  0  0  0  0  0  0  0
  133.1780   72.4060  226.6730 C   0  0  0  0  0  0  0  0  0  0  0  0
  132.3110   73.2380  227.3300 C   0  0  0  0  0  0  0  0  0  0  0  0
  132.4620   74.5970  227.1450 C   0  0  0  0  0  0  0  0  0  0  0  0
  131.6300   75.4790  227.7720 F   0  0  0  0  0  0  0  0  0  0  0  0
  133.4470   75.1070  226.3330 C   0  0  0  0  0  0  0  0  0  0  0  0
  134.2960   74.2260  225.6930 C   0  0  0  0  0  0  0  0  0  0  0  0
  134.1890   72.8490  225.8430 C   0  0  0  0  0  0  0  0  0  0  0  0
  135.0360   72.0260  225.2020 N   0  0  0  0  0  0  0  0  0  0  0  0
  137.4050   71.1810  224.4880 H   0  0  0  0  0  0  0  0  0  0  0  0
  137.3803   68.4518  223.1626 H   0  0  0  0  0  0  0  0  0  0  0  0
  138.5639   69.7568  222.8326 H   0  0  0  0  0  0  0  0  0  0  0  0
  140.6648   67.7767  226.1973 H   0  0  0  0  0  0  0  0  0  0  0  0
  141.7150   69.2491  226.2080 H   0  0  0  0  0  0  0  0  0  0  0  0
  139.0854   69.2540  227.6903 H   0  0  0  0  0  0  0  0  0  0  0  0
  140.5483   68.4703  228.4118 H   0  0  0  0  0  0  0  0  0  0  0  0
  140.2768   70.8029  229.1311 H   0  0  0  0  0  0  0  0  0  0  0  0
  141.8008   70.4978  228.1404 H   0  0  0  0  0  0  0  0  0  0  0  0
  139.2902   71.8315  227.2622 H   0  0  0  0  0  0  0  0  0  0  0  0
  140.9763   72.5424  227.6461 H   0  0  0  0  0  0  0  0  0  0  0  0
  140.8547   72.6578  225.4453 H   0  0  0  0  0  0  0  0  0  0  0  0
  141.7341   71.0612  225.8444 H   0  0  0  0  0  0  0  0  0  0  0  0
  138.9405   71.3345  224.9803 H   0  0  0  0  0  0  0  0  0  0  0  0
  140.6603   70.0160  223.4321 H   0  0  0  0  0  0  0  0  0  0  0  0
  138.8974   71.5317  221.6210 H   0  0  0  0  0  0  0  0  0  0  0  0
  138.2693   72.3533  222.7748 H   0  0  0  0  0  0  0  0  0  0  0  0
  141.3534   72.2303  221.9403 H   0  0  0  0  0  0  0  0  0  0  0  0
  141.1513   73.1839  223.1656 H   0  0  0  0  0  0  0  0  0  0  0  0
  133.8199   69.1460  226.3083 H   0  0  0  0  0  0  0  0  0  0  0  0
  132.2600   70.6313  227.4927 H   0  0  0  0  0  0  0  0  0  0  0  0
  131.5216   72.8368  227.9826 H   0  0  0  0  0  0  0  0  0  0  0  0
  133.5564   76.1930  226.1961 H   0  0  0  0  0  0  0  0  0  0  0  0
  135.0852   74.6288  225.0411 H   0  0  0  0  0  0  0  0  0  0  0  0
  1  2  2  0
  2  3  1  0
  3  4  1  0
  4  5  1  0
  5  6  2  0
  5  7  1  0
  7  8  1  0
  8  9  1  0
  9 10  1  0
 10 11  1  0
 11 12  1  0
 12 13  1  0
 13 14  1  0
 14 15  1  0
 15 16  1  0
  2 17  1  0
 17 18  2  0
 18 19  1  0
 19 20  2  0
 20 21  1  0
 21 22  2  0
 22 23  1  0
 22 24  1  0
 24 25  2  0
 25 26  1  0
 26 27  2  0
 13  7  1  0
 16 14  1  0
 27 17  1  0
 26 20  1  0
  3 28  1  0
  4 29  1  0
  4 30  1  0
  8 31  1  0
  8 32  1  0
  9 33  1  0
  9 34  1  0
 10 35  1  0
 10 36  1  0
 11 37  1  0
 11 38  1  0
 12 39  1  0
 12 40  1  0
 13 41  1  6
 14 42  1  0
 15 43  1  0
 15 44  1  0
 16 45  1  0
 16 46  1  0
 18 47  1  0
 19 48  1  0
 21 49  1  0
 24 50  1  0
 25 51  1  0
M  END
>  <smiles>  (77) 
O=C(NCC(=O)N1CCCCCC1C1CC1)c1ccc2cc(F)ccc2n1

>  <score_type>  (77) 
oracle

>  <origin>  (77) 
autodockgpu

>  <m_score__min__energy>  (77) 
-6.04

>  <m_primary>  (77) 
energy

>  <rmsd>  (77) 
8.143557510989245

>  <m_score__min__rmsd>  (77) 
8.143557510989245

>  <meeko>  (77) 
{"free_energy": -6.04, "intermolecular_energy": -9.32, "internal_energy": -1.35, "cluster_size": 1, "cluster_id": 1, "rank_in_cluster": 1}

>  <energy>  (77) 
-4.58

>  <cluster_rmsd>  (77) 
1.56

>  <cluster>  (77) 
2

$$$$

     RDKit          3D

 51 54  0  0  0  0  0  0  0  0999 V2000
  140.3070   70.7770  221.6450 O   0  0  0  0  0  0  0  0  0  0  0  0
  140.0350   71.5540  222.6000 C   0  0  0  0  0  0  0  0  0  0  0  0
  139.5980   72.9010  222.3900 N   0  0  0  0  0  0  0  0  0  0  0  0
  139.4730   73.3570  221.0180 C   0  0  0  0  0  0  0  0  0  0  0  0
  140.4270   74.4720  220.7930 C   0  0  0  0  0  0  0  0  0  0  0  0
  140.1930   75.6530  221.2210 O   0  0  0  0  0  0  0  0  0  0  0  0
  141.6390   74.2470  220.0830 N   0  0  0  0  0  0  0  0  0  0  0  0
  141.9410   72.8960  219.6520 C   0  0  0  0  0  0  0  0  0  0  0  0
  142.8920   72.2120  220.6200 C   0  0  0  0  0  0  0  0  0  0  0  0
  144.3290   72.5940  220.3390 C   0  0  0  0  0  0  0  0  0  0  0  0
  144.5230   73.8870  219.6570 C   0  0  0  0  0  0  0  0  0  0  0  0
  143.8830   75.0970  220.2270 C   0  0  0  0  0  0  0  0  0  0  0  0
  142.4910   75.4000  219.8420 C   0  0  1  0  0  0  0  0  0  0  0  0
  142.2880   75.9790  218.4770 C   0  0  0  0  0  0  0  0  0  0  0  0
  142.6290   77.4760  218.2920 C   0  0  0  0  0  0  0  0  0  0  0  0
  143.3580   76.4060  217.5800 C   0  0  0  0  0  0  0  0  0  0  0  0
  140.1720   71.0620  223.9760 C   0  0  0  0  0  0  0  0  0  0  0  0
  140.7270   71.8450  224.9480 C   0  0  0  0  0  0  0  0  0  0  0  0
  140.8880   71.4560  226.2550 C   0  0  0  0  0  0  0  0  0  0  0  0
  140.4620   70.1950  226.6010 C   0  0  0  0  0  0  0  0  0  0  0  0
  140.6140   69.7870  227.9000 C   0  0  0  0  0  0  0  0  0  0  0  0
  140.1810   68.5190  228.2270 C   0  0  0  0  0  0  0  0  0  0  0  0
  140.3030   68.0520  229.5040 F   0  0  0  0  0  0  0  0  0  0  0  0
  139.6150   67.6880  227.2900 C   0  0  0  0  0  0  0  0  0  0  0  0
  139.4850   68.1470  225.9940 C   0  0  0  0  0  0  0  0  0  0  0  0
  139.9040   69.4140  225.6090 C   0  0  0  0  0  0  0  0  0  0  0  0
  139.7590   69.8230  224.3370 N   0  0  0  0  0  0  0  0  0  0  0  0
  139.3840   73.5060  223.2110 H   0  0  0  0  0  0  0  0  0  0  0  0
  139.7039   72.5293  220.3313 H   0  0  0  0  0  0  0  0  0  0  0  0
  138.4453   73.7026  220.8323 H   0  0  0  0  0  0  0  0  0  0  0  0
  141.0062   72.3187  219.5986 H   0  0  0  0  0  0  0  0  0  0  0  0
  142.4230   72.9441  218.6644 H   0  0  0  0  0  0  0  0  0  0  0  0
  142.6355   72.5118  221.6468 H   0  0  0  0  0  0  0  0  0  0  0  0
  142.7909   71.1237  220.4964 H   0  0  0  0  0  0  0  0  0  0  0  0
  144.8624   72.6350  221.3002 H   0  0  0  0  0  0  0  0  0  0  0  0
  144.7142   71.8290  219.6488 H   0  0  0  0  0  0  0  0  0  0  0  0
  145.6059   74.0776  219.6268 H   0  0  0  0  0  0  0  0  0  0  0  0
  144.0237   73.7537  218.6859 H   0  0  0  0  0  0  0  0  0  0  0  0
  143.9022   74.9904  221.3217 H   0  0  0  0  0  0  0  0  0  0  0  0
  144.4667   75.9328  219.8138 H   0  0  0  0  0  0  0  0  0  0  0  0
  142.1907   76.2289  220.4999 H   0  0  0  0  0  0  0  0  0  0  0  0
  141.4369   75.2962  218.3378 H   0  0  0  0  0  0  0  0  0  0  0  0
  141.9423   78.1396  217.7461 H   0  0  0  0  0  0  0  0  0  0  0  0
  142.8992   78.3133  218.9522 H   0  0  0  0  0  0  0  0  0  0  0  0
  143.2282   76.2950  216.4933 H   0  0  0  0  0  0  0  0  0  0  0  0
  144.4229   76.1440  217.4942 H   0  0  0  0  0  0  0  0  0  0  0  0
  141.0669   72.8523  224.6654 H   0  0  0  0  0  0  0  0  0  0  0  0
  141.3412   72.1285  226.9982 H   0  0  0  0  0  0  0  0  0  0  0  0
  141.0653   70.4472  228.6553 H   0  0  0  0  0  0  0  0  0  0  0  0
  139.2731   66.6796  227.5662 H   0  0  0  0  0  0  0  0  0  0  0  0
  139.0335   67.4856  225.2398 H   0  0  0  0  0  0  0  0  0  0  0  0
  1  2  2  0
  2  3  1  0
  3  4  1  0
  4  5  1  0
  5  6  2  0
  5  7  1  0
  7  8  1  0
  8  9  1  0
  9 10  1  0
 10 11  1  0
 11 12  1  0
 12 13  1  0
 13 14  1  0
 14 15  1  0
 15 16  1  0
  2 17  1  0
 17 18  2  0
 18 19  1  0
 19 20  2  0
 20 21  1  0
 21 22  2  0
 22 23  1  0
 22 24  1  0
 24 25  2  0
 25 26  1  0
 26 27  2  0
 13  7  1  0
 16 14  1  0
 27 17  1  0
 26 20  1  0
  3 28  1  0
  4 29  1  0
  4 30  1  0
  8 31  1  0
  8 32  1  0
  9 33  1  0
  9 34  1  0
 10 35  1  0
 10 36  1  0
 11 37  1  0
 11 38  1  0
 12 39  1  0
 12 40  1  0
 13 41  1  1
 14 42  1  0
 15 43  1  0
 15 44  1  0
 16 45  1  0
 16 46  1  0
 18 47  1  0
 19 48  1  0
 21 49  1  0
 24 50  1  0
 25 51  1  0
M  END
>  <smiles>  (78) 
O=C(NCC(=O)N1CCCCCC1C1CC1)c1ccc2cc(F)ccc2n1

>  <score_type>  (78) 
oracle

>  <origin>  (78) 
autodockgpu

>  <m_score__min__energy>  (78) 
-6.04

>  <m_primary>  (78) 
energy

>  <rmsd>  (78) 
3.3391815836410137

>  <m_score__min__rmsd>  (78) 
3.3391815836410137

>  <meeko>  (78) 
{"free_energy": -5.22, "intermolecular_energy": -8.5, "internal_energy": -1.51, "cluster_size": 30, "cluster_id": 2, "rank_in_cluster": 8}

>  <energy>  (78) 
-4.53

>  <cluster_rmsd>  (78) 
1.05

>  <cluster>  (78) 
2

$$$$

     RDKit          3D

 51 54  0  0  0  0  0  0  0  0999 V2000
  139.1440   70.7990  221.4860 O   0  0  0  0  0  0  0  0  0  0  0  0
  139.4200   71.3650  222.5780 C   0  0  0  0  0  0  0  0  0  0  0  0
  139.6070   72.7800  222.6820 N   0  0  0  0  0  0  0  0  0  0  0  0
  139.4660   73.5640  221.4680 C   0  0  0  0  0  0  0  0  0  0  0  0
  140.6520   74.4460  221.3240 C   0  0  0  0  0  0  0  0  0  0  0  0
  140.7740   75.5220  222.0010 O   0  0  0  0  0  0  0  0  0  0  0  0
  141.6920   74.1070  220.4140 N   0  0  0  0  0  0  0  0  0  0  0  0
  141.6500   72.8040  219.7790 C   0  0  0  0  0  0  0  0  0  0  0  0
  142.3220   71.7520  220.6430 C   0  0  0  0  0  0  0  0  0  0  0  0
  143.8080   72.0090  220.7650 C   0  0  0  0  0  0  0  0  0  0  0  0
  144.3260   73.1400  219.9730 C   0  0  0  0  0  0  0  0  0  0  0  0
  144.0590   74.5200  220.4440 C   0  0  0  0  0  0  0  0  0  0  0  0
  142.7270   75.1020  220.1890 C   0  0  1  0  0  0  0  0  0  0  0  0
  142.5500   75.8200  218.8870 C   0  0  0  0  0  0  0  0  0  0  0  0
  141.4490   76.9040  218.8290 C   0  0  0  0  0  0  0  0  0  0  0  0
  142.8810   77.2220  218.6520 C   0  0  0  0  0  0  0  0  0  0  0  0
  139.5560   70.5450  223.7880 C   0  0  0  0  0  0  0  0  0  0  0  0
  139.0970   69.2580  223.8170 C   0  0  0  0  0  0  0  0  0  0  0  0
  139.1880   68.4310  224.9100 C   0  0  0  0  0  0  0  0  0  0  0  0
  139.7780   68.9360  226.0440 C   0  0  0  0  0  0  0  0  0  0  0  0
  139.8790   68.1280  227.1450 C   0  0  0  0  0  0  0  0  0  0  0  0
  140.4740   68.6530  228.2730 C   0  0  0  0  0  0  0  0  0  0  0  0
  140.6050   67.8990  229.4030 F   0  0  0  0  0  0  0  0  0  0  0  0
  140.9530   69.9410  228.3000 C   0  0  0  0  0  0  0  0  0  0  0  0
  140.8270   70.7160  227.1640 C   0  0  0  0  0  0  0  0  0  0  0  0
  140.2360   70.2380  226.0010 C   0  0  0  0  0  0  0  0  0  0  0  0
  140.1340   71.0240  224.9160 N   0  0  0  0  0  0  0  0  0  0  0  0
  139.8330   73.2030  223.6070 H   0  0  0  0  0  0  0  0  0  0  0  0
  139.3984   72.8916  220.6001 H   0  0  0  0  0  0  0  0  0  0  0  0
  138.5524   74.1742  221.5227 H   0  0  0  0  0  0  0  0  0  0  0  0
  140.6005   72.5178  219.6158 H   0  0  0  0  0  0  0  0  0  0  0  0
  142.1880   72.8649  218.8215 H   0  0  0  0  0  0  0  0  0  0  0  0
  141.8714   71.7709  221.6463 H   0  0  0  0  0  0  0  0  0  0  0  0
  142.1770   70.7695  220.1701 H   0  0  0  0  0  0  0  0  0  0  0  0
  144.0315   72.2067  221.8238 H   0  0  0  0  0  0  0  0  0  0  0  0
  144.3025   71.1109  220.3664 H   0  0  0  0  0  0  0  0  0  0  0  0
  145.4183   73.0226  219.9169 H   0  0  0  0  0  0  0  0  0  0  0  0
  143.7792   73.0721  219.0209 H   0  0  0  0  0  0  0  0  0  0  0  0
  144.2147   74.5281  221.5329 H   0  0  0  0  0  0  0  0  0  0  0  0
  144.7453   75.1452  219.8540 H   0  0  0  0  0  0  0  0  0  0  0  0
  142.6292   75.9148  220.9237 H   0  0  0  0  0  0  0  0  0  0  0  0
  142.8368   74.8965  218.3628 H   0  0  0  0  0  0  0  0  0  0  0  0
  140.7589   76.9508  217.9737 H   0  0  0  0  0  0  0  0  0  0  0  0
  140.6386   77.2449  219.4901 H   0  0  0  0  0  0  0  0  0  0  0  0
  143.2470   77.5318  217.6620 H   0  0  0  0  0  0  0  0  0  0  0  0
  143.5649   77.9303  219.1425 H   0  0  0  0  0  0  0  0  0  0  0  0
  138.6247   68.8590  222.9072 H   0  0  0  0  0  0  0  0  0  0  0  0
  138.8024   67.4013  224.8788 H   0  0  0  0  0  0  0  0  0  0  0  0
  139.4987   67.0959  227.1302 H   0  0  0  0  0  0  0  0  0  0  0  0
  141.4264   70.3457  229.2067 H   0  0  0  0  0  0  0  0  0  0  0  0
  141.2078   71.7478  227.1805 H   0  0  0  0  0  0  0  0  0  0  0  0
  1  2  2  0
  2  3  1  0
  3  4  1  0
  4  5  1  0
  5  6  2  0
  5  7  1  0
  7  8  1  0
  8  9  1  0
  9 10  1  0
 10 11  1  0
 11 12  1  0
 12 13  1  0
 13 14  1  0
 14 15  1  0
 15 16  1  0
  2 17  1  0
 17 18  2  0
 18 19  1  0
 19 20  2  0
 20 21  1  0
 21 22  2  0
 22 23  1  0
 22 24  1  0
 24 25  2  0
 25 26  1  0
 26 27  2  0
 13  7  1  0
 16 14  1  0
 27 17  1  0
 26 20  1  0
  3 28  1  0
  4 29  1  0
  4 30  1  0
  8 31  1  0
  8 32  1  0
  9 33  1  0
  9 34  1  0
 10 35  1  0
 10 36  1  0
 11 37  1  0
 11 38  1  0
 12 39  1  0
 12 40  1  0
 13 41  1  1
 14 42  1  0
 15 43  1  0
 15 44  1  0
 16 45  1  0
 16 46  1  0
 18 47  1  0
 19 48  1  0
 21 49  1  0
 24 50  1  0
 25 51  1  0
M  END
>  <smiles>  (79) 
O=C(NCC(=O)N1CCCCCC1C1CC1)c1ccc2cc(F)ccc2n1

>  <score_type>  (79) 
oracle

>  <origin>  (79) 
autodockgpu

>  <m_score__min__energy>  (79) 
-6.04

>  <m_primary>  (79) 
energy

>  <rmsd>  (79) 
2.6215840337975482

>  <m_score__min__rmsd>  (79) 
2.6215840337975482

>  <meeko>  (79) 
{"free_energy": -5.39, "intermolecular_energy": -8.67, "internal_energy": -1.8, "cluster_size": 30, "cluster_id": 2, "rank_in_cluster": 6}

>  <energy>  (79) 
-4.46

>  <cluster_rmsd>  (79) 
1.39

>  <cluster>  (79) 
2

$$$$

     RDKit          3D

 51 54  0  0  0  0  0  0  0  0999 V2000
  141.1250   71.1630  221.4020 O   0  0  0  0  0  0  0  0  0  0  0  0
  140.4920   72.0230  222.0710 C   0  0  0  0  0  0  0  0  0  0  0  0
  139.5770   71.6610  223.1120 N   0  0  0  0  0  0  0  0  0  0  0  0
  139.3970   70.2460  223.3810 C   0  0  0  0  0  0  0  0  0  0  0  0
  138.8000   70.0860  224.7320 C   0  0  0  0  0  0  0  0  0  0  0  0
  137.5870   70.4050  224.9710 O   0  0  0  0  0  0  0  0  0  0  0  0
  139.5790   69.5660  225.8030 N   0  0  0  0  0  0  0  0  0  0  0  0
  140.1810   68.2570  225.6410 C   0  0  0  0  0  0  0  0  0  0  0  0
  141.4200   68.1130  226.5080 C   0  0  0  0  0  0  0  0  0  0  0  0
  141.0520   67.8650  227.9550 C   0  0  0  0  0  0  0  0  0  0  0  0
  139.6800   68.2440  228.3370 C   0  0  0  0  0  0  0  0  0  0  0  0
  139.2590   69.6560  228.1830 C   0  0  0  0  0  0  0  0  0  0  0  0
  139.7120   70.3950  226.9900 C   0  0  1  0  0  0  0  0  0  0  0  0
  141.0570   71.0450  227.0780 C   0  0  0  0  0  0  0  0  0  0  0  0
  141.1040   72.5840  226.9300 C   0  0  0  0  0  0  0  0  0  0  0  0
  141.5050   71.8980  228.1760 C   0  0  0  0  0  0  0  0  0  0  0  0
  140.6960   73.4460  221.7750 C   0  0  0  0  0  0  0  0  0  0  0  0
  141.7080   73.8520  220.9510 C   0  0  0  0  0  0  0  0  0  0  0  0
  141.9620   75.1610  220.6280 C   0  0  0  0  0  0  0  0  0  0  0  0
  141.1420   76.1220  221.1710 C   0  0  0  0  0  0  0  0  0  0  0  0
  141.3780   77.4360  220.8620 C   0  0  0  0  0  0  0  0  0  0  0  0
  140.5440   78.3840  221.4170 C   0  0  0  0  0  0  0  0  0  0  0  0
  140.7260   79.7100  221.1480 F   0  0  0  0  0  0  0  0  0  0  0  0
  139.5110   78.0330  222.2520 C   0  0  0  0  0  0  0  0  0  0  0  0
  139.3150   76.6950  222.5340 C   0  0  0  0  0  0  0  0  0  0  0  0
  140.1240   75.6980  222.0020 C   0  0  0  0  0  0  0  0  0  0  0  0
  139.9000   74.4070  222.3010 N   0  0  0  0  0  0  0  0  0  0  0  0
  139.0770   72.4070  223.6390 H   0  0  0  0  0  0  0  0  0  0  0  0
  138.7263   69.8090  222.6266 H   0  0  0  0  0  0  0  0  0  0  0  0
  140.3685   69.7318  223.3392 H   0  0  0  0  0  0  0  0  0  0  0  0
  139.4498   67.4873  225.9289 H   0  0  0  0  0  0  0  0  0  0  0  0
  140.4757   68.1362  224.5881 H   0  0  0  0  0  0  0  0  0  0  0  0
  142.0185   67.2665  226.1402 H   0  0  0  0  0  0  0  0  0  0  0  0
  141.9946   69.0492  226.4511 H   0  0  0  0  0  0  0  0  0  0  0  0
  141.1747   66.7905  228.1561 H   0  0  0  0  0  0  0  0  0  0  0  0
  141.7182   68.5076  228.5493 H   0  0  0  0  0  0  0  0  0  0  0  0
  138.9954   67.6347  227.7287 H   0  0  0  0  0  0  0  0  0  0  0  0
  139.6511   68.0756  229.4236 H   0  0  0  0  0  0  0  0  0  0  0  0
  138.1591   69.6688  228.1757 H   0  0  0  0  0  0  0  0  0  0  0  0
  139.7416   70.1761  229.0236 H   0  0  0  0  0  0  0  0  0  0  0  0
  139.0340   71.2584  226.9203 H   0  0  0  0  0  0  0  0  0  0  0  0
  141.4959   70.1508  226.6114 H   0  0  0  0  0  0  0  0  0  0  0  0
  141.8608   73.0582  226.2878 H   0  0  0  0  0  0  0  0  0  0  0  0
  140.3896   73.3746  226.6570 H   0  0  0  0  0  0  0  0  0  0  0  0
  142.5650   71.8879  228.4698 H   0  0  0  0  0  0  0  0  0  0  0  0
  141.1995   72.0001  229.2278 H   0  0  0  0  0  0  0  0  0  0  0  0
  142.3610   73.0794  220.5189 H   0  0  0  0  0  0  0  0  0  0  0  0
  142.7918   75.4320  219.9587 H   0  0  0  0  0  0  0  0  0  0  0  0
  142.2036   77.7246  220.1948 H   0  0  0  0  0  0  0  0  0  0  0  0
  138.8541   78.8009  222.6866 H   0  0  0  0  0  0  0  0  0  0  0  0
  138.4900   76.4087  223.2028 H   0  0  0  0  0  0  0  0  0  0  0  0
  1  2  2  0
  2  3  1  0
  3  4  1  0
  4  5  1  0
  5  6  2  0
  5  7  1  0
  7  8  1  0
  8  9  1  0
  9 10  1  0
 10 11  1  0
 11 12  1  0
 12 13  1  0
 13 14  1  0
 14 15  1  0
 15 16  1  0
  2 17  1  0
 17 18  2  0
 18 19  1  0
 19 20  2  0
 20 21  1  0
 21 22  2  0
 22 23  1  0
 22 24  1  0
 24 25  2  0
 25 26  1  0
 26 27  2  0
 13  7  1  0
 16 14  1  0
 27 17  1  0
 26 20  1  0
  3 28  1  0
  4 29  1  0
  4 30  1  0
  8 31  1  0
  8 32  1  0
  9 33  1  0
  9 34  1  0
 10 35  1  0
 10 36  1  0
 11 37  1  0
 11 38  1  0
 12 39  1  0
 12 40  1  0
 13 41  1  6
 14 42  1  0
 15 43  1  0
 15 44  1  0
 16 45  1  0
 16 46  1  0
 18 47  1  0
 19 48  1  0
 21 49  1  0
 24 50  1  0
 25 51  1  0
M  END
>  <smiles>  (80) 
O=C(NCC(=O)N1CCCCCC1C1CC1)c1ccc2cc(F)ccc2n1

>  <score_type>  (80) 
oracle

>  <origin>  (80) 
autodockgpu

>  <m_score__min__energy>  (80) 
-6.04

>  <m_primary>  (80) 
energy

>  <rmsd>  (80) 
8.823457942123458

>  <m_score__min__rmsd>  (80) 
8.823457942123458

>  <meeko>  (80) 
{"free_energy": -5.19, "intermolecular_energy": -8.47, "internal_energy": -1.57, "cluster_size": 3, "cluster_id": 4, "rank_in_cluster": 1}

>  <energy>  (80) 
-4.43

>  <cluster_rmsd>  (80) 
0.88

>  <cluster>  (80) 
2

$$$$

     RDKit          3D

 51 54  0  0  0  0  0  0  0  0999 V2000
  138.0530   71.1330  222.3240 O   0  0  0  0  0  0  0  0  0  0  0  0
  139.2010   71.0740  222.8400 C   0  0  0  0  0  0  0  0  0  0  0  0
  140.3300   71.7490  222.2730 N   0  0  0  0  0  0  0  0  0  0  0  0
  140.1110   72.5190  221.0630 C   0  0  0  0  0  0  0  0  0  0  0  0
  140.8840   73.7830  221.1500 C   0  0  0  0  0  0  0  0  0  0  0  0
  140.5550   74.7160  221.9580 O   0  0  0  0  0  0  0  0  0  0  0  0
  142.0230   73.9860  220.3230 N   0  0  0  0  0  0  0  0  0  0  0  0
  142.4610   72.8930  219.4770 C   0  0  0  0  0  0  0  0  0  0  0  0
  143.5430   72.0730  220.1580 C   0  0  0  0  0  0  0  0  0  0  0  0
  144.8860   72.7680  220.0820 C   0  0  0  0  0  0  0  0  0  0  0  0
  144.9240   74.1410  220.6160 C   0  0  0  0  0  0  0  0  0  0  0  0
  144.0810   75.1790  219.9770 C   0  0  0  0  0  0  0  0  0  0  0  0
  142.6690   75.2870  220.3890 C   0  0  1  0  0  0  0  0  0  0  0  0
  141.8590   76.3560  219.7230 C   0  0  0  0  0  0  0  0  0  0  0  0
  141.8690   77.7550  220.3800 C   0  0  0  0  0  0  0  0  0  0  0  0
  142.4120   77.5140  219.0270 C   0  0  0  0  0  0  0  0  0  0  0  0
  139.3900   70.2870  224.0640 C   0  0  0  0  0  0  0  0  0  0  0  0
  138.8400   69.0430  224.1890 C   0  0  0  0  0  0  0  0  0  0  0  0
  138.9730   68.2490  225.3010 C   0  0  0  0  0  0  0  0  0  0  0  0
  139.7070   68.7420  226.3530 C   0  0  0  0  0  0  0  0  0  0  0  0
  139.8520   67.9660  227.4730 C   0  0  0  0  0  0  0  0  0  0  0  0
  140.5920   68.4800  228.5170 C   0  0  0  0  0  0  0  0  0  0  0  0
  140.7740   67.7560  229.6600 F   0  0  0  0  0  0  0  0  0  0  0  0
  141.1680   69.7250  228.4460 C   0  0  0  0  0  0  0  0  0  0  0  0
  140.9930   70.4690  227.2950 C   0  0  0  0  0  0  0  0  0  0  0  0
  140.2570   70.0010  226.2130 C   0  0  0  0  0  0  0  0  0  0  0  0
  140.1100   70.7560  225.1120 N   0  0  0  0  0  0  0  0  0  0  0  0
  141.2600   71.6720  222.7360 H   0  0  0  0  0  0  0  0  0  0  0  0
  140.4479   71.9396  220.1908 H   0  0  0  0  0  0  0  0  0  0  0  0
  139.0399   72.7444  220.9539 H   0  0  0  0  0  0  0  0  0  0  0  0
  141.6018   72.2422  219.2576 H   0  0  0  0  0  0  0  0  0  0  0  0
  142.8745   73.3142  218.5488 H   0  0  0  0  0  0  0  0  0  0  0  0
  143.2727   71.9291  221.2145 H   0  0  0  0  0  0  0  0  0  0  0  0
  143.6223   71.1044  219.6427 H   0  0  0  0  0  0  0  0  0  0  0  0
  145.6116   72.1648  220.6475 H   0  0  0  0  0  0  0  0  0  0  0  0
  145.1191   72.8555  219.0106 H   0  0  0  0  0  0  0  0  0  0  0  0
  144.6231   74.0854  221.6726 H   0  0  0  0  0  0  0  0  0  0  0  0
  145.9532   74.4751  220.4180 H   0  0  0  0  0  0  0  0  0  0  0  0
  144.5539   76.1515  220.1785 H   0  0  0  0  0  0  0  0  0  0  0  0
  144.0321   74.8754  218.9209 H   0  0  0  0  0  0  0  0  0  0  0  0
  142.7067   75.6317  221.4329 H   0  0  0  0  0  0  0  0  0  0  0  0
  141.1352   75.5867  219.4159 H   0  0  0  0  0  0  0  0  0  0  0  0
  140.9311   78.3145  220.5115 H   0  0  0  0  0  0  0  0  0  0  0  0
  142.2471   78.1853  221.3191 H   0  0  0  0  0  0  0  0  0  0  0  0
  141.8837   77.9216  218.1525 H   0  0  0  0  0  0  0  0  0  0  0  0
  143.3835   77.7196  218.5538 H   0  0  0  0  0  0  0  0  0  0  0  0
  138.2530   68.6524  223.3447 H   0  0  0  0  0  0  0  0  0  0  0  0
  138.5083   67.2531  225.3483 H   0  0  0  0  0  0  0  0  0  0  0  0
  139.3941   66.9679  227.5371 H   0  0  0  0  0  0  0  0  0  0  0  0
  141.7558   70.1210  229.2872 H   0  0  0  0  0  0  0  0  0  0  0  0
  141.4523   71.4666  227.2329 H   0  0  0  0  0  0  0  0  0  0  0  0
  1  2  2  0
  2  3  1  0
  3  4  1  0
  4  5  1  0
  5  6  2  0
  5  7  1  0
  7  8  1  0
  8  9  1  0
  9 10  1  0
 10 11  1  0
 11 12  1  0
 12 13  1  0
 13 14  1  0
 14 15  1  0
 15 16  1  0
  2 17  1  0
 17 18  2  0
 18 19  1  0
 19 20  2  0
 20 21  1  0
 21 22  2  0
 22 23  1  0
 22 24  1  0
 24 25  2  0
 25 26  1  0
 26 27  2  0
 13  7  1  0
 16 14  1  0
 27 17  1  0
 26 20  1  0
  3 28  1  0
  4 29  1  0
  4 30  1  0
  8 31  1  0
  8 32  1  0
  9 33  1  0
  9 34  1  0
 10 35  1  0
 10 36  1  0
 11 37  1  0
 11 38  1  0
 12 39  1  0
 12 40  1  0
 13 41  1  1
 14 42  1  0
 15 43  1  0
 15 44  1  0
 16 45  1  0
 16 46  1  0
 18 47  1  0
 19 48  1  0
 21 49  1  0
 24 50  1  0
 25 51  1  0
M  END
>  <smiles>  (81) 
O=C(NCC(=O)N1CCCCCC1C1CC1)c1ccc2cc(F)ccc2n1

>  <score_type>  (81) 
oracle

>  <origin>  (81) 
autodockgpu

>  <m_score__min__energy>  (81) 
-6.04

>  <m_primary>  (81) 
energy

>  <rmsd>  (81) 
2.718370860688216

>  <m_score__min__rmsd>  (81) 
2.718370860688216

>  <meeko>  (81) 
{"free_energy": -5.4, "intermolecular_energy": -8.68, "internal_energy": -1.34, "cluster_size": 30, "cluster_id": 2, "rank_in_cluster": 3}

>  <energy>  (81) 
-4.01

>  <cluster_rmsd>  (81) 
1.93

>  <cluster>  (81) 
2

$$$$

     RDKit          3D

 51 54  0  0  0  0  0  0  0  0999 V2000
  141.2980   72.8330  221.3390 O   0  0  0  0  0  0  0  0  0  0  0  0
  140.4120   72.9780  222.2240 C   0  0  0  0  0  0  0  0  0  0  0  0
  139.6160   74.1640  222.3230 N   0  0  0  0  0  0  0  0  0  0  0  0
  139.8620   75.2180  221.3560 C   0  0  0  0  0  0  0  0  0  0  0  0
  139.6090   76.5320  221.9990 C   0  0  0  0  0  0  0  0  0  0  0  0
  138.5670   76.7420  222.7070 O   0  0  0  0  0  0  0  0  0  0  0  0
  140.5330   77.6000  221.8370 N   0  0  0  0  0  0  0  0  0  0  0  0
  141.3630   77.9670  222.9680 C   0  0  0  0  0  0  0  0  0  0  0  0
  140.9030   79.2780  223.5820 C   0  0  0  0  0  0  0  0  0  0  0  0
  141.5500   80.4620  222.8980 C   0  0  0  0  0  0  0  0  0  0  0  0
  141.6080   80.3940  221.4260 C   0  0  0  0  0  0  0  0  0  0  0  0
  140.5100   79.7150  220.6950 C   0  0  0  0  0  0  0  0  0  0  0  0
  140.5750   78.2490  220.5370 C   0  0  1  0  0  0  0  0  0  0  0  0
  141.6780   77.7200  219.6750 C   0  0  0  0  0  0  0  0  0  0  0  0
  142.3510   76.4030  220.1270 C   0  0  0  0  0  0  0  0  0  0  0  0
  141.5980   76.5100  218.8600 C   0  0  0  0  0  0  0  0  0  0  0  0
  140.1870   71.8950  223.1880 C   0  0  0  0  0  0  0  0  0  0  0  0
  139.5100   70.7650  222.8260 C   0  0  0  0  0  0  0  0  0  0  0  0
  139.2610   69.7110  223.6700 C   0  0  0  0  0  0  0  0  0  0  0  0
  139.7240   69.8050  224.9610 C   0  0  0  0  0  0  0  0  0  0  0  0
  139.4860   68.7650  225.8200 C   0  0  0  0  0  0  0  0  0  0  0  0
  139.9590   68.8780  227.1110 C   0  0  0  0  0  0  0  0  0  0  0  0
  139.7550   67.8760  228.0150 F   0  0  0  0  0  0  0  0  0  0  0  0
  140.6460   69.9920  227.5290 C   0  0  0  0  0  0  0  0  0  0  0  0
  140.8600   71.0140  226.6250 C   0  0  0  0  0  0  0  0  0  0  0  0
  140.4060   70.9520  225.3130 C   0  0  0  0  0  0  0  0  0  0  0  0
  140.6350   71.9690  224.4640 N   0  0  0  0  0  0  0  0  0  0  0  0
  138.8950   74.2380  223.0710 H   0  0  0  0  0  0  0  0  0  0  0  0
  140.9067   75.1693  221.0150 H   0  0  0  0  0  0  0  0  0  0  0  0
  139.1939   75.0925  220.4912 H   0  0  0  0  0  0  0  0  0  0  0  0
  141.3048   77.1743  223.7284 H   0  0  0  0  0  0  0  0  0  0  0  0
  142.3979   78.0904  222.6161 H   0  0  0  0  0  0  0  0  0  0  0  0
  139.8107   79.3579  223.4796 H   0  0  0  0  0  0  0  0  0  0  0  0
  141.1961   79.2867  224.6422 H   0  0  0  0  0  0  0  0  0  0  0  0
  140.9826   81.3633  223.1731 H   0  0  0  0  0  0  0  0  0  0  0  0
  142.5954   80.4729  223.2401 H   0  0  0  0  0  0  0  0  0  0  0  0
  141.6497   81.4293  221.0566 H   0  0  0  0  0  0  0  0  0  0  0  0
  142.4880   79.7655  221.2247 H   0  0  0  0  0  0  0  0  0  0  0  0
  139.5747   79.9439  221.2268 H   0  0  0  0  0  0  0  0  0  0  0  0
  140.5881   80.1019  219.6683 H   0  0  0  0  0  0  0  0  0  0  0  0
  139.6753   77.9871  219.9608 H   0  0  0  0  0  0  0  0  0  0  0  0
  141.9566   78.7561  219.4325 H   0  0  0  0  0  0  0  0  0  0  0  0
  143.4467   76.3061  220.1164 H   0  0  0  0  0  0  0  0  0  0  0  0
  142.3115   75.7601  221.0187 H   0  0  0  0  0  0  0  0  0  0  0  0
  142.1404   76.4659  217.9040 H   0  0  0  0  0  0  0  0  0  0  0  0
  140.7605   75.9431  218.4274 H   0  0  0  0  0  0  0  0  0  0  0  0
  139.1407   70.6950  221.7922 H   0  0  0  0  0  0  0  0  0  0  0  0
  138.7107   68.8231  223.3254 H   0  0  0  0  0  0  0  0  0  0  0  0
  138.9365   67.8704  225.4917 H   0  0  0  0  0  0  0  0  0  0  0  0
  141.0176   70.0683  228.5615 H   0  0  0  0  0  0  0  0  0  0  0  0
  141.4090   71.9083  226.9550 H   0  0  0  0  0  0  0  0  0  0  0  0
  1  2  2  0
  2  3  1  0
  3  4  1  0
  4  5  1  0
  5  6  2  0
  5  7  1  0
  7  8  1  0
  8  9  1  0
  9 10  1  0
 10 11  1  0
 11 12  1  0
 12 13  1  0
 13 14  1  0
 14 15  1  0
 15 16  1  0
  2 17  1  0
 17 18  2  0
 18 19  1  0
 19 20  2  0
 20 21  1  0
 21 22  2  0
 22 23  1  0
 22 24  1  0
 24 25  2  0
 25 26  1  0
 26 27  2  0
 13  7  1  0
 16 14  1  0
 27 17  1  0
 26 20  1  0
  3 28  1  0
  4 29  1  0
  4 30  1  0
  8 31  1  0
  8 32  1  0
  9 33  1  0
  9 34  1  0
 10 35  1  0
 10 36  1  0
 11 37  1  0
 11 38  1  0
 12 39  1  0
 12 40  1  0
 13 41  1  6
 14 42  1  0
 15 43  1  0
 15 44  1  0
 16 45  1  0
 16 46  1  0
 18 47  1  0
 19 48  1  0
 21 49  1  0
 24 50  1  0
 25 51  1  0
M  END
>  <smiles>  (82) 
O=C(NCC(=O)N1CCCCCC1C1CC1)c1ccc2cc(F)ccc2n1

>  <score_type>  (82) 
oracle

>  <origin>  (82) 
autodockgpu

>  <m_score__min__energy>  (82) 
-6.04

>  <m_primary>  (82) 
energy

>  <rmsd>  (82) 
3.3183013891228055

>  <m_score__min__rmsd>  (82) 
3.3183013891228055

>  <meeko>  (82) 
{"free_energy": -5.4, "intermolecular_energy": -8.68, "internal_energy": -1.41, "cluster_size": 10, "cluster_id": 3, "rank_in_cluster": 4}

>  <energy>  (82) 
-5.62

>  <cluster_rmsd>  (82) 
0.0

>  <cluster>  (82) 
3

$$$$

     RDKit          3D

 51 54  0  0  0  0  0  0  0  0999 V2000
  139.8000   70.9710  221.1380 O   0  0  0  0  0  0  0  0  0  0  0  0
  139.7510   71.5780  222.2410 C   0  0  0  0  0  0  0  0  0  0  0  0
  139.6660   73.0050  222.3270 N   0  0  0  0  0  0  0  0  0  0  0  0
  139.6370   73.7490  221.0810 C   0  0  0  0  0  0  0  0  0  0  0  0
  140.4580   74.9770  221.2350 C   0  0  0  0  0  0  0  0  0  0  0  0
  140.6240   75.5350  222.3720 O   0  0  0  0  0  0  0  0  0  0  0  0
  141.0830   75.5680  220.1020 N   0  0  0  0  0  0  0  0  0  0  0  0
  140.3150   76.5030  219.3040 C   0  0  0  0  0  0  0  0  0  0  0  0
  140.4610   77.9200  219.8290 C   0  0  0  0  0  0  0  0  0  0  0  0
  141.8470   78.4660  219.5580 C   0  0  0  0  0  0  0  0  0  0  0  0
  142.7840   77.5300  218.9090 C   0  0  0  0  0  0  0  0  0  0  0  0
  143.3060   76.3840  219.6900 C   0  0  0  0  0  0  0  0  0  0  0  0
  142.4590   75.1840  219.8290 C   0  0  1  0  0  0  0  0  0  0  0  0
  142.9490   74.1260  220.7670 C   0  0  0  0  0  0  0  0  0  0  0  0
  142.5510   72.6660  220.4480 C   0  0  0  0  0  0  0  0  0  0  0  0
  143.9570   73.1200  220.4430 C   0  0  0  0  0  0  0  0  0  0  0  0
  139.7820   70.7970  223.4840 C   0  0  0  0  0  0  0  0  0  0  0  0
  139.2610   69.5350  223.5310 C   0  0  0  0  0  0  0  0  0  0  0  0
  139.2530   68.7450  224.6540 C   0  0  0  0  0  0  0  0  0  0  0  0
  139.8060   69.2620  225.8010 C   0  0  0  0  0  0  0  0  0  0  0  0
  139.8080   68.4910  226.9330 C   0  0  0  0  0  0  0  0  0  0  0  0
  140.3680   69.0290  228.0740 C   0  0  0  0  0  0  0  0  0  0  0  0
  140.4010   68.3100  229.2340 F   0  0  0  0  0  0  0  0  0  0  0  0
  140.9060   70.2920  228.0830 C   0  0  0  0  0  0  0  0  0  0  0  0
  140.8790   71.0300  226.9160 C   0  0  0  0  0  0  0  0  0  0  0  0
  140.3280   70.5390  225.7390 C   0  0  0  0  0  0  0  0  0  0  0  0
  140.3220   71.2900  224.6250 N   0  0  0  0  0  0  0  0  0  0  0  0
  139.6270   73.4620  223.2620 H   0  0  0  0  0  0  0  0  0  0  0  0
  140.0484   73.1289  220.2709 H   0  0  0  0  0  0  0  0  0  0  0  0
  138.6005   74.0221  220.8339 H   0  0  0  0  0  0  0  0  0  0  0  0
  140.6731   76.4665  218.2645 H   0  0  0  0  0  0  0  0  0  0  0  0
  139.2538   76.2185  219.3582 H   0  0  0  0  0  0  0  0  0  0  0  0
  139.7190   78.5639  219.3342 H   0  0  0  0  0  0  0  0  0  0  0  0
  140.2995   77.9060  220.9170 H   0  0  0  0  0  0  0  0  0  0  0  0
  141.7427   79.3466  218.9070 H   0  0  0  0  0  0  0  0  0  0  0  0
  142.2803   78.6911  220.5437 H   0  0  0  0  0  0  0  0  0  0  0  0
  142.2687   77.1143  218.0306 H   0  0  0  0  0  0  0  0  0  0  0  0
  143.6753   78.1428  218.7091 H   0  0  0  0  0  0  0  0  0  0  0  0
  144.2444   76.0658  219.2124 H   0  0  0  0  0  0  0  0  0  0  0  0
  143.3926   76.7733  220.7152 H   0  0  0  0  0  0  0  0  0  0  0  0
  142.5194   74.6818  218.8522 H   0  0  0  0  0  0  0  0  0  0  0  0
  142.8667   74.8495  221.5914 H   0  0  0  0  0  0  0  0  0  0  0  0
  142.1834   72.0029  221.2449 H   0  0  0  0  0  0  0  0  0  0  0  0
  141.8782   72.1673  219.7348 H   0  0  0  0  0  0  0  0  0  0  0  0
  144.6409   72.7680  221.2294 H   0  0  0  0  0  0  0  0  0  0  0  0
  144.7651   73.0712  219.6982 H   0  0  0  0  0  0  0  0  0  0  0  0
  138.8197   69.1256  222.6103 H   0  0  0  0  0  0  0  0  0  0  0  0
  138.8194   67.7342  224.6362 H   0  0  0  0  0  0  0  0  0  0  0  0
  139.3783   67.4784  226.9328 H   0  0  0  0  0  0  0  0  0  0  0  0
  141.3491   70.7073  229.0001 H   0  0  0  0  0  0  0  0  0  0  0  0
  141.3090   72.0425  226.9185 H   0  0  0  0  0  0  0  0  0  0  0  0
  1  2  2  0
  2  3  1  0
  3  4  1  0
  4  5  1  0
  5  6  2  0
  5  7  1  0
  7  8  1  0
  8  9  1  0
  9 10  1  0
 10 11  1  0
 11 12  1  0
 12 13  1  0
 13 14  1  0
 14 15  1  0
 15 16  1  0
  2 17  1  0
 17 18  2  0
 18 19  1  0
 19 20  2  0
 20 21  1  0
 21 22  2  0
 22 23  1  0
 22 24  1  0
 24 25  2  0
 25 26  1  0
 26 27  2  0
 13  7  1  0
 16 14  1  0
 27 17  1  0
 26 20  1  0
  3 28  1  0
  4 29  1  0
  4 30  1  0
  8 31  1  0
  8 32  1  0
  9 33  1  0
  9 34  1  0
 10 35  1  0
 10 36  1  0
 11 37  1  0
 11 38  1  0
 12 39  1  0
 12 40  1  0
 13 41  1  6
 14 42  1  0
 15 43  1  0
 15 44  1  0
 16 45  1  0
 16 46  1  0
 18 47  1  0
 19 48  1  0
 21 49  1  0
 24 50  1  0
 25 51  1  0
M  END
>  <smiles>  (83) 
O=C(NCC(=O)N1CCCCCC1C1CC1)c1ccc2cc(F)ccc2n1

>  <score_type>  (83) 
oracle

>  <origin>  (83) 
autodockgpu

>  <m_score__min__energy>  (83) 
-6.04

>  <m_primary>  (83) 
energy

>  <rmsd>  (83) 
1.9065029777813955

>  <m_score__min__rmsd>  (83) 
1.9065029777813955

>  <meeko>  (83) 
{"free_energy": -5.22, "intermolecular_energy": -8.5, "internal_energy": -1.83, "cluster_size": 30, "cluster_id": 2, "rank_in_cluster": 9}

>  <energy>  (83) 
-5.52

>  <cluster_rmsd>  (83) 
1.16

>  <cluster>  (83) 
3

$$$$

     RDKit          3D

 51 54  0  0  0  0  0  0  0  0999 V2000
  139.3840   74.6850  222.1260 O   0  0  0  0  0  0  0  0  0  0  0  0
  140.5550   75.0790  221.8770 C   0  0  0  0  0  0  0  0  0  0  0  0
  140.9750   76.4280  222.1060 N   0  0  0  0  0  0  0  0  0  0  0  0
  139.9940   77.3510  222.6460 C   0  0  0  0  0  0  0  0  0  0  0  0
  139.9930   78.5880  221.8260 C   0  0  0  0  0  0  0  0  0  0  0  0
  138.9600   79.3340  221.7370 O   0  0  0  0  0  0  0  0  0  0  0  0
  141.1590   78.9750  221.1090 N   0  0  0  0  0  0  0  0  0  0  0  0
  142.1730   79.7390  221.8090 C   0  0  0  0  0  0  0  0  0  0  0  0
  141.8240   81.2170  221.8340 C   0  0  0  0  0  0  0  0  0  0  0  0
  141.4430   81.7150  220.4570 C   0  0  0  0  0  0  0  0  0  0  0  0
  142.0110   80.9590  219.3260 C   0  0  0  0  0  0  0  0  0  0  0  0
  141.2960   79.7570  218.8400 C   0  0  0  0  0  0  0  0  0  0  0  0
  141.2460   78.5700  219.7150 C   0  0  1  0  0  0  0  0  0  0  0  0
  142.3000   77.5310  219.4920 C   0  0  0  0  0  0  0  0  0  0  0  0
  141.9140   76.3170  218.6160 C   0  0  0  0  0  0  0  0  0  0  0  0
  142.9670   77.2740  218.2180 C   0  0  0  0  0  0  0  0  0  0  0  0
  141.5250   74.1210  221.3310 C   0  0  0  0  0  0  0  0  0  0  0  0
  141.1840   72.8130  221.1360 C   0  0  0  0  0  0  0  0  0  0  0  0
  142.0340   71.8600  220.6310 C   0  0  0  0  0  0  0  0  0  0  0  0
  143.3090   72.2540  220.3030 C   0  0  0  0  0  0  0  0  0  0  0  0
  144.1740   71.3200  219.7970 C   0  0  0  0  0  0  0  0  0  0  0  0
  145.4490   71.7360  219.4740 C   0  0  0  0  0  0  0  0  0  0  0  0
  146.3580   70.8530  218.9660 F   0  0  0  0  0  0  0  0  0  0  0  0
  145.8460   73.0390  219.6490 C   0  0  0  0  0  0  0  0  0  0  0  0
  144.9370   73.9430  220.1620 C   0  0  0  0  0  0  0  0  0  0  0  0
  143.6410   73.5800  220.5050 C   0  0  0  0  0  0  0  0  0  0  0  0
  142.7860   74.4900  221.0010 N   0  0  0  0  0  0  0  0  0  0  0  0
  141.9540   76.7070  221.8850 H   0  0  0  0  0  0  0  0  0  0  0  0
  138.9966   76.8881  222.6167 H   0  0  0  0  0  0  0  0  0  0  0  0
  140.2475   77.5957  223.6880 H   0  0  0  0  0  0  0  0  0  0  0  0
  142.2506   79.3707  222.8426 H   0  0  0  0  0  0  0  0  0  0  0  0
  143.1302   79.6149  221.2814 H   0  0  0  0  0  0  0  0  0  0  0  0
  140.9775   81.3738  222.5187 H   0  0  0  0  0  0  0  0  0  0  0  0
  142.7079   81.7769  222.1735 H   0  0  0  0  0  0  0  0  0  0  0  0
  140.3468   81.6751  220.3741 H   0  0  0  0  0  0  0  0  0  0  0  0
  141.8586   82.7305  220.3789 H   0  0  0  0  0  0  0  0  0  0  0  0
  142.0869   81.6550  218.4776 H   0  0  0  0  0  0  0  0  0  0  0  0
  142.9587   80.5633  219.7201 H   0  0  0  0  0  0  0  0  0  0  0  0
  140.2570   80.0560  218.6375 H   0  0  0  0  0  0  0  0  0  0  0  0
  141.8814   79.4272  217.9691 H   0  0  0  0  0  0  0  0  0  0  0  0
  140.3263   78.0428  219.4213 H   0  0  0  0  0  0  0  0  0  0  0  0
  142.6886   77.7396  220.4997 H   0  0  0  0  0  0  0  0  0  0  0  0
  142.1796   75.2970  218.9309 H   0  0  0  0  0  0  0  0  0  0  0  0
  140.9881   75.9280  218.1672 H   0  0  0  0  0  0  0  0  0  0  0  0
  144.0181   76.9498  218.2144 H   0  0  0  0  0  0  0  0  0  0  0  0
  143.1363   77.8811  217.3165 H   0  0  0  0  0  0  0  0  0  0  0  0
  140.1624   72.5028  221.4006 H   0  0  0  0  0  0  0  0  0  0  0  0
  141.7062   70.8190  220.4940 H   0  0  0  0  0  0  0  0  0  0  0  0
  143.8628   70.2748  219.6533 H   0  0  0  0  0  0  0  0  0  0  0  0
  146.8661   73.3557  219.3862 H   0  0  0  0  0  0  0  0  0  0  0  0
  145.2504   74.9878  220.3041 H   0  0  0  0  0  0  0  0  0  0  0  0
  1  2  2  0
  2  3  1  0
  3  4  1  0
  4  5  1  0
  5  6  2  0
  5  7  1  0
  7  8  1  0
  8  9  1  0
  9 10  1  0
 10 11  1  0
 11 12  1  0
 12 13  1  0
 13 14  1  0
 14 15  1  0
 15 16  1  0
  2 17  1  0
 17 18  2  0
 18 19  1  0
 19 20  2  0
 20 21  1  0
 21 22  2  0
 22 23  1  0
 22 24  1  0
 24 25  2  0
 25 26  1  0
 26 27  2  0
 13  7  1  0
 16 14  1  0
 27 17  1  0
 26 20  1  0
  3 28  1  0
  4 29  1  0
  4 30  1  0
  8 31  1  0
  8 32  1  0
  9 33  1  0
  9 34  1  0
 10 35  1  0
 10 36  1  0
 11 37  1  0
 11 38  1  0
 12 39  1  0
 12 40  1  0
 13 41  1  6
 14 42  1  0
 15 43  1  0
 15 44  1  0
 16 45  1  0
 16 46  1  0
 18 47  1  0
 19 48  1  0
 21 49  1  0
 24 50  1  0
 25 51  1  0
M  END
>  <smiles>  (84) 
O=C(NCC(=O)N1CCCCCC1C1CC1)c1ccc2cc(F)ccc2n1

>  <score_type>  (84) 
oracle

>  <origin>  (84) 
autodockgpu

>  <m_score__min__energy>  (84) 
-6.04

>  <m_primary>  (84) 
energy

>  <rmsd>  (84) 
6.34723897869534

>  <m_score__min__rmsd>  (84) 
6.34723897869534

>  <meeko>  (84) 
{"free_energy": -4.15, "intermolecular_energy": -7.43, "internal_energy": -2.29, "cluster_size": 1, "cluster_id": 8, "rank_in_cluster": 1}

>  <energy>  (84) 
-5.5

>  <cluster_rmsd>  (84) 
1.17

>  <cluster>  (84) 
3

$$$$

     RDKit          3D

 51 54  0  0  0  0  0  0  0  0999 V2000
  138.8250   74.1710  221.5430 O   0  0  0  0  0  0  0  0  0  0  0  0
  139.9870   74.6580  221.5890 C   0  0  0  0  0  0  0  0  0  0  0  0
  140.2380   75.9990  222.0210 N   0  0  0  0  0  0  0  0  0  0  0  0
  139.0940   76.8010  222.4140 C   0  0  0  0  0  0  0  0  0  0  0  0
  139.5140   78.2210  222.5160 C   0  0  0  0  0  0  0  0  0  0  0  0
  138.7220   79.1250  222.9500 O   0  0  0  0  0  0  0  0  0  0  0  0
  140.8250   78.6120  222.1270 N   0  0  0  0  0  0  0  0  0  0  0  0
  141.8410   78.7220  223.1550 C   0  0  0  0  0  0  0  0  0  0  0  0
  141.8140   80.0930  223.8070 C   0  0  0  0  0  0  0  0  0  0  0  0
  141.2030   81.1280  222.8870 C   0  0  0  0  0  0  0  0  0  0  0  0
  141.7590   81.1740  221.5220 C   0  0  0  0  0  0  0  0  0  0  0  0
  141.1460   80.3270  220.4740 C   0  0  0  0  0  0  0  0  0  0  0  0
  141.0470   78.8750  220.7140 C   0  0  1  0  0  0  0  0  0  0  0  0
  142.1420   78.0280  220.1460 C   0  0  0  0  0  0  0  0  0  0  0  0
  141.7180   76.8400  219.2510 C   0  0  0  0  0  0  0  0  0  0  0  0
  142.5130   77.9740  218.7350 C   0  0  0  0  0  0  0  0  0  0  0  0
  141.1230   73.8210  221.1850 C   0  0  0  0  0  0  0  0  0  0  0  0
  140.9600   72.4880  220.9390 C   0  0  0  0  0  0  0  0  0  0  0  0
  141.9730   71.6430  220.5580 C   0  0  0  0  0  0  0  0  0  0  0  0
  143.2310   72.1790  220.4180 C   0  0  0  0  0  0  0  0  0  0  0  0
  144.2570   71.3540  220.0390 C   0  0  0  0  0  0  0  0  0  0  0  0
  145.5110   71.9110  219.9040 C   0  0  0  0  0  0  0  0  0  0  0  0
  146.5740   71.1420  219.5290 F   0  0  0  0  0  0  0  0  0  0  0  0
  145.7340   73.2460  220.1380 C   0  0  0  0  0  0  0  0  0  0  0  0
  144.6660   74.0360  220.5180 C   0  0  0  0  0  0  0  0  0  0  0  0
  143.3820   73.5280  220.6700 C   0  0  0  0  0  0  0  0  0  0  0  0
  142.3710   74.3310  221.0420 N   0  0  0  0  0  0  0  0  0  0  0  0
  141.2160   76.3580  222.0420 H   0  0  0  0  0  0  0  0  0  0  0  0
  138.2989   76.7044  221.6600 H   0  0  0  0  0  0  0  0  0  0  0  0
  138.7125   76.4547  223.3859 H   0  0  0  0  0  0  0  0  0  0  0  0
  141.6594   77.9556  223.9228 H   0  0  0  0  0  0  0  0  0  0  0  0
  142.8266   78.5767  222.6886 H   0  0  0  0  0  0  0  0  0  0  0  0
  141.2190   80.0388  224.7306 H   0  0  0  0  0  0  0  0  0  0  0  0
  142.8491   80.3928  224.0277 H   0  0  0  0  0  0  0  0  0  0  0  0
  140.1265   80.9165  222.8071 H   0  0  0  0  0  0  0  0  0  0  0  0
  141.4318   82.1047  223.3384 H   0  0  0  0  0  0  0  0  0  0  0  0
  141.6870   82.2165  221.1784 H   0  0  0  0  0  0  0  0  0  0  0  0
  142.7743   80.7658  221.6341 H   0  0  0  0  0  0  0  0  0  0  0  0
  140.1241   80.7000  220.3110 H   0  0  0  0  0  0  0  0  0  0  0  0
  141.8340   80.4134  219.6200 H   0  0  0  0  0  0  0  0  0  0  0  0
  140.1709   78.5530  220.1320 H   0  0  0  0  0  0  0  0  0  0  0  0
  142.7296   78.2148  221.0569 H   0  0  0  0  0  0  0  0  0  0  0  0
  142.1806   75.8508  219.3834 H   0  0  0  0  0  0  0  0  0  0  0  0
  140.7702   76.3508  218.9820 H   0  0  0  0  0  0  0  0  0  0  0  0
  143.5658   77.8142  218.4592 H   0  0  0  0  0  0  0  0  0  0  0  0
  142.3822   78.6677  217.8914 H   0  0  0  0  0  0  0  0  0  0  0  0
  139.9517   72.0634  221.0534 H   0  0  0  0  0  0  0  0  0  0  0  0
  141.7846   70.5754  220.3715 H   0  0  0  0  0  0  0  0  0  0  0  0
  144.0862   70.2841  219.8490 H   0  0  0  0  0  0  0  0  0  0  0  0
  146.7400   73.6764  220.0254 H   0  0  0  0  0  0  0  0  0  0  0  0
  144.8387   75.1058  220.7070 H   0  0  0  0  0  0  0  0  0  0  0  0
  1  2  2  0
  2  3  1  0
  3  4  1  0
  4  5  1  0
  5  6  2  0
  5  7  1  0
  7  8  1  0
  8  9  1  0
  9 10  1  0
 10 11  1  0
 11 12  1  0
 12 13  1  0
 13 14  1  0
 14 15  1  0
 15 16  1  0
  2 17  1  0
 17 18  2  0
 18 19  1  0
 19 20  2  0
 20 21  1  0
 21 22  2  0
 22 23  1  0
 22 24  1  0
 24 25  2  0
 25 26  1  0
 26 27  2  0
 13  7  1  0
 16 14  1  0
 27 17  1  0
 26 20  1  0
  3 28  1  0
  4 29  1  0
  4 30  1  0
  8 31  1  0
  8 32  1  0
  9 33  1  0
  9 34  1  0
 10 35  1  0
 10 36  1  0
 11 37  1  0
 11 38  1  0
 12 39  1  0
 12 40  1  0
 13 41  1  6
 14 42  1  0
 15 43  1  0
 15 44  1  0
 16 45  1  0
 16 46  1  0
 18 47  1  0
 19 48  1  0
 21 49  1  0
 24 50  1  0
 25 51  1  0
M  END
>  <smiles>  (85) 
O=C(NCC(=O)N1CCCCCC1C1CC1)c1ccc2cc(F)ccc2n1

>  <score_type>  (85) 
oracle

>  <origin>  (85) 
autodockgpu

>  <m_score__min__energy>  (85) 
-6.04

>  <m_primary>  (85) 
energy

>  <rmsd>  (85) 
6.23124022516126

>  <m_score__min__rmsd>  (85) 
6.23124022516126

>  <meeko>  (85) 
{"free_energy": -4.26, "intermolecular_energy": -7.54, "internal_energy": -2.17, "cluster_size": 2, "cluster_id": 6, "rank_in_cluster": 2}

>  <energy>  (85) 
-5.4

>  <cluster_rmsd>  (85) 
1.29

>  <cluster>  (85) 
3

$$$$

     RDKit          3D

 51 54  0  0  0  0  0  0  0  0999 V2000
  141.6740   73.1790  220.5610 O   0  0  0  0  0  0  0  0  0  0  0  0
  140.9800   73.8980  221.3290 C   0  0  0  0  0  0  0  0  0  0  0  0
  140.0400   73.3430  222.2550 N   0  0  0  0  0  0  0  0  0  0  0  0
  139.9050   71.8980  222.2870 C   0  0  0  0  0  0  0  0  0  0  0  0
  139.1800   71.5090  223.5230 C   0  0  0  0  0  0  0  0  0  0  0  0
  137.9750   71.8750  223.7370 O   0  0  0  0  0  0  0  0  0  0  0  0
  139.8210   70.7100  224.5090 N   0  0  0  0  0  0  0  0  0  0  0  0
  140.7070   71.3640  225.4530 C   0  0  0  0  0  0  0  0  0  0  0  0
  140.2350   71.1570  226.8810 C   0  0  0  0  0  0  0  0  0  0  0  0
  140.5230   69.7490  227.3560 C   0  0  0  0  0  0  0  0  0  0  0  0
  139.5250   68.7320  226.9760 C   0  0  0  0  0  0  0  0  0  0  0  0
  138.7830   68.9010  225.7050 C   0  0  0  0  0  0  0  0  0  0  0  0
  139.5370   69.2840  224.4960 C   0  0  1  0  0  0  0  0  0  0  0  0
  138.9710   68.8320  223.1860 C   0  0  0  0  0  0  0  0  0  0  0  0
  138.6760   67.3220  223.0330 C   0  0  0  0  0  0  0  0  0  0  0  0
  137.6100   68.3440  222.9850 C   0  0  0  0  0  0  0  0  0  0  0  0
  141.1400   75.3560  221.2730 C   0  0  0  0  0  0  0  0  0  0  0  0
  141.8260   75.9470  220.2510 C   0  0  0  0  0  0  0  0  0  0  0  0
  142.0170   77.3010  220.1300 C   0  0  0  0  0  0  0  0  0  0  0  0
  141.4820   78.1090  221.1050 C   0  0  0  0  0  0  0  0  0  0  0  0
  141.6610   79.4640  221.0050 C   0  0  0  0  0  0  0  0  0  0  0  0
  141.1160   80.2570  221.9930 C   0  0  0  0  0  0  0  0  0  0  0  0
  141.2590   81.6140  221.9500 F   0  0  0  0  0  0  0  0  0  0  0  0
  140.4160   79.7160  223.0440 C   0  0  0  0  0  0  0  0  0  0  0  0
  140.2630   78.3450  223.1000 C   0  0  0  0  0  0  0  0  0  0  0  0
  140.7910   77.4990  222.1330 C   0  0  0  0  0  0  0  0  0  0  0  0
  140.6200   76.1690  222.2240 N   0  0  0  0  0  0  0  0  0  0  0  0
  139.4890   73.9780  222.8710 H   0  0  0  0  0  0  0  0  0  0  0  0
  139.3397   71.5605  221.4058 H   0  0  0  0  0  0  0  0  0  0  0  0
  140.9008   71.4308  222.2768 H   0  0  0  0  0  0  0  0  0  0  0  0
  141.7186   70.9457  225.3450 H   0  0  0  0  0  0  0  0  0  0  0  0
  140.7093   72.4430  225.2393 H   0  0  0  0  0  0  0  0  0  0  0  0
  140.7551   71.8702  227.5374 H   0  0  0  0  0  0  0  0  0  0  0  0
  139.1476   71.3195  226.9146 H   0  0  0  0  0  0  0  0  0  0  0  0
  141.4938   69.4430  226.9389 H   0  0  0  0  0  0  0  0  0  0  0  0
  140.5051   69.7925  228.4550 H   0  0  0  0  0  0  0  0  0  0  0  0
  140.0517   67.7681  226.9173 H   0  0  0  0  0  0  0  0  0  0  0  0
  138.7489   68.8180  227.7508 H   0  0  0  0  0  0  0  0  0  0  0  0
  138.2869   67.9434  225.4887 H   0  0  0  0  0  0  0  0  0  0  0  0
  138.1198   69.7584  225.8920 H   0  0  0  0  0  0  0  0  0  0  0  0
  140.4770   68.7161  224.5594 H   0  0  0  0  0  0  0  0  0  0  0  0
  139.5533   69.6206  222.6870 H   0  0  0  0  0  0  0  0  0  0  0  0
  138.9748   66.7865  222.1198 H   0  0  0  0  0  0  0  0  0  0  0  0
  138.8752   66.4135  223.6203 H   0  0  0  0  0  0  0  0  0  0  0  0
  137.0988   68.5468  222.0323 H   0  0  0  0  0  0  0  0  0  0  0  0
  136.6680   68.4811  223.5363 H   0  0  0  0  0  0  0  0  0  0  0  0
  142.2534   75.2959  219.4742 H   0  0  0  0  0  0  0  0  0  0  0  0
  142.5778   77.7241  219.2836 H   0  0  0  0  0  0  0  0  0  0  0  0
  142.2199   79.9038  220.1659 H   0  0  0  0  0  0  0  0  0  0  0  0
  139.9865   80.3614  223.8244 H   0  0  0  0  0  0  0  0  0  0  0  0
  139.7034   77.9073  223.9398 H   0  0  0  0  0  0  0  0  0  0  0  0
  1  2  2  0
  2  3  1  0
  3  4  1  0
  4  5  1  0
  5  6  2  0
  5  7  1  0
  7  8  1  0
  8  9  1  0
  9 10  1  0
 10 11  1  0
 11 12  1  0
 12 13  1  0
 13 14  1  0
 14 15  1  0
 15 16  1  0
  2 17  1  0
 17 18  2  0
 18 19  1  0
 19 20  2  0
 20 21  1  0
 21 22  2  0
 22 23  1  0
 22 24  1  0
 24 25  2  0
 25 26  1  0
 26 27  2  0
 13  7  1  0
 16 14  1  0
 27 17  1  0
 26 20  1  0
  3 28  1  0
  4 29  1  0
  4 30  1  0
  8 31  1  0
  8 32  1  0
  9 33  1  0
  9 34  1  0
 10 35  1  0
 10 36  1  0
 11 37  1  0
 11 38  1  0
 12 39  1  0
 12 40  1  0
 13 41  1  1
 14 42  1  0
 15 43  1  0
 15 44  1  0
 16 45  1  0
 16 46  1  0
 18 47  1  0
 19 48  1  0
 21 49  1  0
 24 50  1  0
 25 51  1  0
M  END
>  <smiles>  (86) 
O=C(NCC(=O)N1CCCCCC1C1CC1)c1ccc2cc(F)ccc2n1

>  <score_type>  (86) 
oracle

>  <origin>  (86) 
autodockgpu

>  <m_score__min__energy>  (86) 
-6.04

>  <m_primary>  (86) 
energy

>  <rmsd>  (86) 
8.886759036896047

>  <m_score__min__rmsd>  (86) 
8.886759036896047

>  <meeko>  (86) 
{"free_energy": -5.04, "intermolecular_energy": -8.32, "internal_energy": -1.57, "cluster_size": 3, "cluster_id": 4, "rank_in_cluster": 2}

>  <energy>  (86) 
-5.31

>  <cluster_rmsd>  (86) 
0.18

>  <cluster>  (86) 
3

$$$$

     RDKit          3D

 51 54  0  0  0  0  0  0  0  0999 V2000
  139.1090   70.6720  221.5550 O   0  0  0  0  0  0  0  0  0  0  0  0
  139.4140   71.2420  222.6370 C   0  0  0  0  0  0  0  0  0  0  0  0
  139.6350   72.6540  222.7230 N   0  0  0  0  0  0  0  0  0  0  0  0
  139.4960   73.4280  221.5030 C   0  0  0  0  0  0  0  0  0  0  0  0
  140.6380   74.3710  221.3970 C   0  0  0  0  0  0  0  0  0  0  0  0
  140.6870   75.4450  222.0870 O   0  0  0  0  0  0  0  0  0  0  0  0
  141.7160   74.0950  220.5110 N   0  0  0  0  0  0  0  0  0  0  0  0
  141.8340   72.7550  219.9700 C   0  0  0  0  0  0  0  0  0  0  0  0
  142.7780   71.9080  220.8050 C   0  0  0  0  0  0  0  0  0  0  0  0
  144.2240   72.2190  220.4840 C   0  0  0  0  0  0  0  0  0  0  0  0
  144.4590   73.4860  219.7680 C   0  0  0  0  0  0  0  0  0  0  0  0
  144.0250   74.7550  220.4010 C   0  0  0  0  0  0  0  0  0  0  0  0
  142.6270   75.1890  220.2140 C   0  0  1  0  0  0  0  0  0  0  0  0
  142.3040   75.8580  218.9140 C   0  0  0  0  0  0  0  0  0  0  0  0
  142.5430   77.3830  218.8320 C   0  0  0  0  0  0  0  0  0  0  0  0
  143.2880   76.4200  217.9950 C   0  0  0  0  0  0  0  0  0  0  0  0
  139.5480   70.4320  223.8540 C   0  0  0  0  0  0  0  0  0  0  0  0
  139.0800   69.1490  223.8970 C   0  0  0  0  0  0  0  0  0  0  0  0
  139.1680   68.3310  224.9960 C   0  0  0  0  0  0  0  0  0  0  0  0
  139.7650   68.8420  226.1240 C   0  0  0  0  0  0  0  0  0  0  0  0
  139.8640   68.0430  227.2320 C   0  0  0  0  0  0  0  0  0  0  0  0
  140.4670   68.5740  228.3530 C   0  0  0  0  0  0  0  0  0  0  0  0
  140.5950   67.8290  229.4890 F   0  0  0  0  0  0  0  0  0  0  0  0
  140.9550   69.8580  228.3670 C   0  0  0  0  0  0  0  0  0  0  0  0
  140.8310   70.6240  227.2240 C   0  0  0  0  0  0  0  0  0  0  0  0
  140.2330   70.1400  226.0670 C   0  0  0  0  0  0  0  0  0  0  0  0
  140.1330   70.9180  224.9760 N   0  0  0  0  0  0  0  0  0  0  0  0
  139.8840   73.0810  223.6400 H   0  0  0  0  0  0  0  0  0  0  0  0
  139.4941   72.7519  220.6353 H   0  0  0  0  0  0  0  0  0  0  0  0
  138.5505   73.9897  221.5246 H   0  0  0  0  0  0  0  0  0  0  0  0
  140.8406   72.2827  219.9611 H   0  0  0  0  0  0  0  0  0  0  0  0
  142.2386   72.8252  218.9495 H   0  0  0  0  0  0  0  0  0  0  0  0
  142.5954   72.1120  221.8704 H   0  0  0  0  0  0  0  0  0  0  0  0
  142.5908   70.8489  220.5744 H   0  0  0  0  0  0  0  0  0  0  0  0
  144.7804   72.2578  221.4321 H   0  0  0  0  0  0  0  0  0  0  0  0
  144.5595   71.4222  219.8039 H   0  0  0  0  0  0  0  0  0  0  0  0
  145.5427   73.5643  219.5965 H   0  0  0  0  0  0  0  0  0  0  0  0
  143.8270   73.4061  218.8712 H   0  0  0  0  0  0  0  0  0  0  0  0
  144.1919   74.6525  221.4834 H   0  0  0  0  0  0  0  0  0  0  0  0
  144.6192   75.5285  219.8924 H   0  0  0  0  0  0  0  0  0  0  0  0
  142.4845   76.0013  220.9419 H   0  0  0  0  0  0  0  0  0  0  0  0
  141.4876   75.1352  218.7692 H   0  0  0  0  0  0  0  0  0  0  0  0
  141.7854   78.0415  218.3821 H   0  0  0  0  0  0  0  0  0  0  0  0
  142.8037   78.1824  219.5412 H   0  0  0  0  0  0  0  0  0  0  0  0
  143.0973   76.3851  216.9122 H   0  0  0  0  0  0  0  0  0  0  0  0
  144.3591   76.2339  217.8270 H   0  0  0  0  0  0  0  0  0  0  0  0
  138.6017   68.7454  222.9924 H   0  0  0  0  0  0  0  0  0  0  0  0
  138.7750   67.3038  224.9748 H   0  0  0  0  0  0  0  0  0  0  0  0
  139.4761   67.0137  227.2279 H   0  0  0  0  0  0  0  0  0  0  0  0
  141.4341   70.2673  229.2686 H   0  0  0  0  0  0  0  0  0  0  0  0
  141.2193   71.6532  227.2301 H   0  0  0  0  0  0  0  0  0  0  0  0
  1  2  2  0
  2  3  1  0
  3  4  1  0
  4  5  1  0
  5  6  2  0
  5  7  1  0
  7  8  1  0
  8  9  1  0
  9 10  1  0
 10 11  1  0
 11 12  1  0
 12 13  1  0
 13 14  1  0
 14 15  1  0
 15 16  1  0
  2 17  1  0
 17 18  2  0
 18 19  1  0
 19 20  2  0
 20 21  1  0
 21 22  2  0
 22 23  1  0
 22 24  1  0
 24 25  2  0
 25 26  1  0
 26 27  2  0
 13  7  1  0
 16 14  1  0
 27 17  1  0
 26 20  1  0
  3 28  1  0
  4 29  1  0
  4 30  1  0
  8 31  1  0
  8 32  1  0
  9 33  1  0
  9 34  1  0
 10 35  1  0
 10 36  1  0
 11 37  1  0
 11 38  1  0
 12 39  1  0
 12 40  1  0
 13 41  1  1
 14 42  1  0
 15 43  1  0
 15 44  1  0
 16 45  1  0
 16 46  1  0
 18 47  1  0
 19 48  1  0
 21 49  1  0
 24 50  1  0
 25 51  1  0
M  END
>  <smiles>  (87) 
O=C(NCC(=O)N1CCCCCC1C1CC1)c1ccc2cc(F)ccc2n1

>  <score_type>  (87) 
oracle

>  <origin>  (87) 
autodockgpu

>  <m_score__min__energy>  (87) 
-6.04

>  <m_primary>  (87) 
energy

>  <rmsd>  (87) 
2.6448723732049553

>  <m_score__min__rmsd>  (87) 
2.6448723732049553

>  <meeko>  (87) 
{"free_energy": -5.59, "intermolecular_energy": -8.87, "internal_energy": -1.72, "cluster_size": 30, "cluster_id": 2, "rank_in_cluster": 2}

>  <energy>  (87) 
-5.1

>  <cluster_rmsd>  (87) 
1.31

>  <cluster>  (87) 
3

$$$$

     RDKit          3D

 51 54  0  0  0  0  0  0  0  0999 V2000
  139.8480   70.7590  221.4060 O   0  0  0  0  0  0  0  0  0  0  0  0
  139.8060   71.3500  222.5190 C   0  0  0  0  0  0  0  0  0  0  0  0
  139.7180   72.7750  222.6260 N   0  0  0  0  0  0  0  0  0  0  0  0
  139.6780   73.5370  221.3910 C   0  0  0  0  0  0  0  0  0  0  0  0
  140.8490   74.4500  221.3500 C   0  0  0  0  0  0  0  0  0  0  0  0
  140.9660   75.4280  222.1630 O   0  0  0  0  0  0  0  0  0  0  0  0
  141.8790   74.2520  220.3890 N   0  0  0  0  0  0  0  0  0  0  0  0
  141.9730   72.9600  219.7400 C   0  0  0  0  0  0  0  0  0  0  0  0
  142.8710   72.0180  220.5240 C   0  0  0  0  0  0  0  0  0  0  0  0
  144.3270   72.4050  220.3850 C   0  0  0  0  0  0  0  0  0  0  0  0
  144.6530   73.7970  220.7450 C   0  0  0  0  0  0  0  0  0  0  0  0
  144.1420   74.8920  219.8910 C   0  0  0  0  0  0  0  0  0  0  0  0
  142.7670   75.3740  220.1290 C   0  0  1  0  0  0  0  0  0  0  0  0
  142.2050   76.3170  219.1120 C   0  0  0  0  0  0  0  0  0  0  0  0
  141.9110   77.7610  219.5820 C   0  0  0  0  0  0  0  0  0  0  0  0
  142.9180   77.4580  218.5440 C   0  0  0  0  0  0  0  0  0  0  0  0
  139.8480   70.5510  223.7490 C   0  0  0  0  0  0  0  0  0  0  0  0
  139.3000   69.3010  223.7920 C   0  0  0  0  0  0  0  0  0  0  0  0
  139.3010   68.4950  224.9040 C   0  0  0  0  0  0  0  0  0  0  0  0
  139.8920   68.9850  226.0450 C   0  0  0  0  0  0  0  0  0  0  0  0
  139.9030   68.1980  227.1660 C   0  0  0  0  0  0  0  0  0  0  0  0
  140.5010   68.7070  228.3010 C   0  0  0  0  0  0  0  0  0  0  0  0
  140.5450   67.9720  229.4500 F   0  0  0  0  0  0  0  0  0  0  0  0
  141.0680   69.9580  228.3140 C   0  0  0  0  0  0  0  0  0  0  0  0
  141.0300   70.7130  227.1580 C   0  0  0  0  0  0  0  0  0  0  0  0
  140.4410   70.2500  225.9880 C   0  0  0  0  0  0  0  0  0  0  0  0
  140.4250   71.0160  224.8840 N   0  0  0  0  0  0  0  0  0  0  0  0
  139.6850   73.2190  223.5670 H   0  0  0  0  0  0  0  0  0  0  0  0
  139.7150   72.8505  220.5323 H   0  0  0  0  0  0  0  0  0  0  0  0
  138.7477   74.1222  221.3445 H   0  0  0  0  0  0  0  0  0  0  0  0
  140.9673   72.5204  219.6675 H   0  0  0  0  0  0  0  0  0  0  0  0
  142.4057   73.1027  218.7388 H   0  0  0  0  0  0  0  0  0  0  0  0
  142.5898   72.0563  221.5868 H   0  0  0  0  0  0  0  0  0  0  0  0
  142.7419   71.0015  220.1240 H   0  0  0  0  0  0  0  0  0  0  0  0
  144.9172   71.7406  221.0333 H   0  0  0  0  0  0  0  0  0  0  0  0
  144.5636   72.3074  219.3152 H   0  0  0  0  0  0  0  0  0  0  0  0
  144.2627   73.9687  221.7590 H   0  0  0  0  0  0  0  0  0  0  0  0
  145.7450   73.8540  220.6259 H   0  0  0  0  0  0  0  0  0  0  0  0
  144.8167   75.7508  220.0221 H   0  0  0  0  0  0  0  0  0  0  0  0
  144.1097   74.4592  218.8802 H   0  0  0  0  0  0  0  0  0  0  0  0
  142.8412   76.0074  221.0253 H   0  0  0  0  0  0  0  0  0  0  0  0
  141.6789   75.4699  218.6477 H   0  0  0  0  0  0  0  0  0  0  0  0
  140.9643   78.2520  219.3122 H   0  0  0  0  0  0  0  0  0  0  0  0
  141.9025   78.2934  220.5445 H   0  0  0  0  0  0  0  0  0  0  0  0
  142.7242   77.7514  217.5017 H   0  0  0  0  0  0  0  0  0  0  0  0
  143.9842   77.7032  218.4300 H   0  0  0  0  0  0  0  0  0  0  0  0
  138.8273   68.9147  222.8770 H   0  0  0  0  0  0  0  0  0  0  0  0
  138.8456   67.4939  224.8828 H   0  0  0  0  0  0  0  0  0  0  0  0
  139.4510   67.1952  227.1618 H   0  0  0  0  0  0  0  0  0  0  0  0
  141.5423   70.3503  229.2257 H   0  0  0  0  0  0  0  0  0  0  0  0
  141.4819   71.7159  227.1639 H   0  0  0  0  0  0  0  0  0  0  0  0
  1  2  2  0
  2  3  1  0
  3  4  1  0
  4  5  1  0
  5  6  2  0
  5  7  1  0
  7  8  1  0
  8  9  1  0
  9 10  1  0
 10 11  1  0
 11 12  1  0
 12 13  1  0
 13 14  1  0
 14 15  1  0
 15 16  1  0
  2 17  1  0
 17 18  2  0
 18 19  1  0
 19 20  2  0
 20 21  1  0
 21 22  2  0
 22 23  1  0
 22 24  1  0
 24 25  2  0
 25 26  1  0
 26 27  2  0
 13  7  1  0
 16 14  1  0
 27 17  1  0
 26 20  1  0
  3 28  1  0
  4 29  1  0
  4 30  1  0
  8 31  1  0
  8 32  1  0
  9 33  1  0
  9 34  1  0
 10 35  1  0
 10 36  1  0
 11 37  1  0
 11 38  1  0
 12 39  1  0
 12 40  1  0
 13 41  1  1
 14 42  1  0
 15 43  1  0
 15 44  1  0
 16 45  1  0
 16 46  1  0
 18 47  1  0
 19 48  1  0
 21 49  1  0
 24 50  1  0
 25 51  1  0
M  END
>  <smiles>  (88) 
O=C(NCC(=O)N1CCCCCC1C1CC1)c1ccc2cc(F)ccc2n1

>  <score_type>  (88) 
oracle

>  <origin>  (88) 
autodockgpu

>  <m_score__min__energy>  (88) 
-6.04

>  <m_primary>  (88) 
energy

>  <rmsd>  (88) 
2.555218006705261

>  <m_score__min__rmsd>  (88) 
2.555218006705261

>  <meeko>  (88) 
{"free_energy": -5.4, "intermolecular_energy": -8.68, "internal_energy": -1.69, "cluster_size": 30, "cluster_id": 2, "rank_in_cluster": 4}

>  <energy>  (88) 
-5.05

>  <cluster_rmsd>  (88) 
1.03

>  <cluster>  (88) 
3

$$$$

     RDKit          3D

 51 54  0  0  0  0  0  0  0  0999 V2000
  139.0650   70.9530  221.3030 O   0  0  0  0  0  0  0  0  0  0  0  0
  139.3510   71.5430  222.3790 C   0  0  0  0  0  0  0  0  0  0  0  0
  139.5000   72.9640  222.4570 N   0  0  0  0  0  0  0  0  0  0  0  0
  139.3070   73.7250  221.2360 C   0  0  0  0  0  0  0  0  0  0  0  0
  140.4280   74.6880  221.0870 C   0  0  0  0  0  0  0  0  0  0  0  0
  140.8190   75.4180  222.0590 O   0  0  0  0  0  0  0  0  0  0  0  0
  141.0980   74.8210  219.8390 N   0  0  0  0  0  0  0  0  0  0  0  0
  140.6000   75.8020  218.8940 C   0  0  0  0  0  0  0  0  0  0  0  0
  141.5180   77.0100  218.8260 C   0  0  0  0  0  0  0  0  0  0  0  0
  142.5320   76.9940  219.9500 C   0  0  0  0  0  0  0  0  0  0  0  0
  143.6550   76.0540  219.7800 C   0  0  0  0  0  0  0  0  0  0  0  0
  143.3940   74.7440  219.1320 C   0  0  0  0  0  0  0  0  0  0  0  0
  142.2410   73.9530  219.6040 C   0  0  1  0  0  0  0  0  0  0  0  0
  142.4930   73.0250  220.7510 C   0  0  0  0  0  0  0  0  0  0  0  0
  142.3230   71.5130  220.4790 C   0  0  0  0  0  0  0  0  0  0  0  0
  143.6230   72.1070  220.8530 C   0  0  0  0  0  0  0  0  0  0  0  0
  139.5400   70.7450  223.5970 C   0  0  0  0  0  0  0  0  0  0  0  0
  139.1600   69.4340  223.6420 C   0  0  0  0  0  0  0  0  0  0  0  0
  139.3030   68.6260  224.7420 C   0  0  0  0  0  0  0  0  0  0  0  0
  139.8650   69.1770  225.8690 C   0  0  0  0  0  0  0  0  0  0  0  0
  140.0180   68.3890  226.9790 C   0  0  0  0  0  0  0  0  0  0  0  0
  140.5840   68.9610  228.0990 C   0  0  0  0  0  0  0  0  0  0  0  0
  140.7630   68.2290  229.2370 F   0  0  0  0  0  0  0  0  0  0  0  0
  140.9840   70.2760  228.1110 C   0  0  0  0  0  0  0  0  0  0  0  0
  140.8080   71.0290  226.9670 C   0  0  0  0  0  0  0  0  0  0  0  0
  140.2440   70.5040  225.8110 C   0  0  0  0  0  0  0  0  0  0  0  0
  140.0910   71.2710  224.7180 N   0  0  0  0  0  0  0  0  0  0  0  0
  139.7360   73.4070  223.3700 H   0  0  0  0  0  0  0  0  0  0  0  0
  139.2900   73.0419  220.3740 H   0  0  0  0  0  0  0  0  0  0  0  0
  138.3521   74.2690  221.2829 H   0  0  0  0  0  0  0  0  0  0  0  0
  140.5378   75.3413  217.8970 H   0  0  0  0  0  0  0  0  0  0  0  0
  139.6066   76.1362  219.2278 H   0  0  0  0  0  0  0  0  0  0  0  0
  142.0500   77.0020  217.8633 H   0  0  0  0  0  0  0  0  0  0  0  0
  140.9049   77.9180  218.9243 H   0  0  0  0  0  0  0  0  0  0  0  0
  142.9497   78.0073  220.0437 H   0  0  0  0  0  0  0  0  0  0  0  0
  141.9869   76.6541  220.8429 H   0  0  0  0  0  0  0  0  0  0  0  0
  144.4189   76.5672  219.1775 H   0  0  0  0  0  0  0  0  0  0  0  0
  143.9427   75.7915  220.8087 H   0  0  0  0  0  0  0  0  0  0  0  0
  143.2423   74.9346  218.0593 H   0  0  0  0  0  0  0  0  0  0  0  0
  144.2704   74.1314  219.3900 H   0  0  0  0  0  0  0  0  0  0  0  0
  142.0192   73.2584  218.7804 H   0  0  0  0  0  0  0  0  0  0  0  0
  142.1055   73.7964  221.4327 H   0  0  0  0  0  0  0  0  0  0  0  0
  141.7762   70.8777  221.1913 H   0  0  0  0  0  0  0  0  0  0  0  0
  141.9441   70.8957  219.6511 H   0  0  0  0  0  0  0  0  0  0  0  0
  144.0528   71.8873  221.8414 H   0  0  0  0  0  0  0  0  0  0  0  0
  144.6238   72.0855  220.3971 H   0  0  0  0  0  0  0  0  0  0  0  0
  138.7102   68.9975  222.7380 H   0  0  0  0  0  0  0  0  0  0  0  0
  138.9794   67.5749  224.7226 H   0  0  0  0  0  0  0  0  0  0  0  0
  139.7003   67.3359  226.9771 H   0  0  0  0  0  0  0  0  0  0  0  0
  141.4342   70.7186  229.0118 H   0  0  0  0  0  0  0  0  0  0  0  0
  141.1257   72.0821  226.9711 H   0  0  0  0  0  0  0  0  0  0  0  0
  1  2  2  0
  2  3  1  0
  3  4  1  0
  4  5  1  0
  5  6  2  0
  5  7  1  0
  7  8  1  0
  8  9  1  0
  9 10  1  0
 10 11  1  0
 11 12  1  0
 12 13  1  0
 13 14  1  0
 14 15  1  0
 15 16  1  0
  2 17  1  0
 17 18  2  0
 18 19  1  0
 19 20  2  0
 20 21  1  0
 21 22  2  0
 22 23  1  0
 22 24  1  0
 24 25  2  0
 25 26  1  0
 26 27  2  0
 13  7  1  0
 16 14  1  0
 27 17  1  0
 26 20  1  0
  3 28  1  0
  4 29  1  0
  4 30  1  0
  8 31  1  0
  8 32  1  0
  9 33  1  0
  9 34  1  0
 10 35  1  0
 10 36  1  0
 11 37  1  0
 11 38  1  0
 12 39  1  0
 12 40  1  0
 13 41  1  6
 14 42  1  0
 15 43  1  0
 15 44  1  0
 16 45  1  0
 16 46  1  0
 18 47  1  0
 19 48  1  0
 21 49  1  0
 24 50  1  0
 25 51  1  0
M  END
>  <smiles>  (89) 
O=C(NCC(=O)N1CCCCCC1C1CC1)c1ccc2cc(F)ccc2n1

>  <score_type>  (89) 
oracle

>  <origin>  (89) 
autodockgpu

>  <m_score__min__energy>  (89) 
-6.04

>  <m_primary>  (89) 
energy

>  <rmsd>  (89) 
1.9227179582871756

>  <m_score__min__rmsd>  (89) 
1.9227179582871756

>  <meeko>  (89) 
{"free_energy": -4.43, "intermolecular_energy": -7.71, "internal_energy": -2.02, "cluster_size": 30, "cluster_id": 2, "rank_in_cluster": 29}

>  <energy>  (89) 
-4.94

>  <cluster_rmsd>  (89) 
1.61

>  <cluster>  (89) 
3

$$$$

     RDKit          3D

 51 54  0  0  0  0  0  0  0  0999 V2000
  139.9460   73.5660  222.4310 O   0  0  0  0  0  0  0  0  0  0  0  0
  140.5030   72.4360  222.4220 C   0  0  0  0  0  0  0  0  0  0  0  0
  141.3150   71.9910  221.3290 N   0  0  0  0  0  0  0  0  0  0  0  0
  141.4820   72.8970  220.2090 C   0  0  0  0  0  0  0  0  0  0  0  0
  142.7040   72.5140  219.4570 C   0  0  0  0  0  0  0  0  0  0  0  0
  143.0680   71.2940  219.3460 O   0  0  0  0  0  0  0  0  0  0  0  0
  143.5080   73.5110  218.8370 N   0  0  0  0  0  0  0  0  0  0  0  0
  143.4690   73.6220  217.3920 C   0  0  0  0  0  0  0  0  0  0  0  0
  142.6100   74.7950  216.9560 C   0  0  0  0  0  0  0  0  0  0  0  0
  143.0220   76.0700  217.6610 C   0  0  0  0  0  0  0  0  0  0  0  0
  142.6530   76.1580  219.0860 C   0  0  0  0  0  0  0  0  0  0  0  0
  143.5660   75.5640  220.0850 C   0  0  0  0  0  0  0  0  0  0  0  0
  144.3140   74.3490  219.7090 C   0  0  1  0  0  0  0  0  0  0  0  0
  144.9320   73.5720  220.8300 C   0  0  0  0  0  0  0  0  0  0  0  0
  145.9860   72.5080  220.4470 C   0  0  0  0  0  0  0  0  0  0  0  0
  146.3200   73.6910  221.2670 C   0  0  0  0  0  0  0  0  0  0  0  0
  140.3150   71.5420  223.5710 C   0  0  0  0  0  0  0  0  0  0  0  0
  139.6460   70.3580  223.4360 C   0  0  0  0  0  0  0  0  0  0  0  0
  139.4300   69.4720  224.4610 C   0  0  0  0  0  0  0  0  0  0  0  0
  139.9200   69.8020  225.7030 C   0  0  0  0  0  0  0  0  0  0  0  0
  139.7160   68.9320  226.7410 C   0  0  0  0  0  0  0  0  0  0  0  0
  140.2160   69.2820  227.9780 C   0  0  0  0  0  0  0  0  0  0  0  0
  140.0450   68.4580  229.0520 F   0  0  0  0  0  0  0  0  0  0  0  0
  140.8960   70.4590  228.1720 C   0  0  0  0  0  0  0  0  0  0  0  0
  141.0760   71.3030  227.0930 C   0  0  0  0  0  0  0  0  0  0  0  0
  140.5940   71.0010  225.8250 C   0  0  0  0  0  0  0  0  0  0  0  0
  140.7900   71.8500  224.8020 N   0  0  0  0  0  0  0  0  0  0  0  0
  141.7570   71.0480  221.3670 H   0  0  0  0  0  0  0  0  0  0  0  0
  140.6057   72.8313  219.5473 H   0  0  0  0  0  0  0  0  0  0  0  0
  141.5794   73.9292  220.5766 H   0  0  0  0  0  0  0  0  0  0  0  0
  144.4923   73.7667  217.0152 H   0  0  0  0  0  0  0  0  0  0  0  0
  143.0327   72.6989  216.9828 H   0  0  0  0  0  0  0  0  0  0  0  0
  142.7185   74.9347  215.8703 H   0  0  0  0  0  0  0  0  0  0  0  0
  141.5642   74.5759  217.2174 H   0  0  0  0  0  0  0  0  0  0  0  0
  144.1161   76.1583  217.5886 H   0  0  0  0  0  0  0  0  0  0  0  0
  142.4760   76.8818  217.1581 H   0  0  0  0  0  0  0  0  0  0  0  0
  142.5527   77.2257  219.3309 H   0  0  0  0  0  0  0  0  0  0  0  0
  141.7354   75.5567  219.1660 H   0  0  0  0  0  0  0  0  0  0  0  0
  144.3058   76.3339  220.3495 H   0  0  0  0  0  0  0  0  0  0  0  0
  142.9033   75.2356  220.8993 H   0  0  0  0  0  0  0  0  0  0  0  0
  145.1940   74.7180  219.1618 H   0  0  0  0  0  0  0  0  0  0  0  0
  143.9788   73.6407  221.3747 H   0  0  0  0  0  0  0  0  0  0  0  0
  145.9561   71.5067  220.9014 H   0  0  0  0  0  0  0  0  0  0  0  0
  146.3574   72.0631  219.5121 H   0  0  0  0  0  0  0  0  0  0  0  0
  146.5643   73.5588  222.3313 H   0  0  0  0  0  0  0  0  0  0  0  0
  147.0761   74.4849  221.1772 H   0  0  0  0  0  0  0  0  0  0  0  0
  139.2554   70.0985  222.4410 H   0  0  0  0  0  0  0  0  0  0  0  0
  138.8844   68.5313  224.2954 H   0  0  0  0  0  0  0  0  0  0  0  0
  139.1724   67.9872  226.5933 H   0  0  0  0  0  0  0  0  0  0  0  0
  141.2888   70.7241  229.1647 H   0  0  0  0  0  0  0  0  0  0  0  0
  141.6200   72.2473  227.2429 H   0  0  0  0  0  0  0  0  0  0  0  0
  1  2  2  0
  2  3  1  0
  3  4  1  0
  4  5  1  0
  5  6  2  0
  5  7  1  0
  7  8  1  0
  8  9  1  0
  9 10  1  0
 10 11  1  0
 11 12  1  0
 12 13  1  0
 13 14  1  0
 14 15  1  0
 15 16  1  0
  2 17  1  0
 17 18  2  0
 18 19  1  0
 19 20  2  0
 20 21  1  0
 21 22  2  0
 22 23  1  0
 22 24  1  0
 24 25  2  0
 25 26  1  0
 26 27  2  0
 13  7  1  0
 16 14  1  0
 27 17  1  0
 26 20  1  0
  3 28  1  0
  4 29  1  0
  4 30  1  0
  8 31  1  0
  8 32  1  0
  9 33  1  0
  9 34  1  0
 10 35  1  0
 10 36  1  0
 11 37  1  0
 11 38  1  0
 12 39  1  0
 12 40  1  0
 13 41  1  6
 14 42  1  0
 15 43  1  0
 15 44  1  0
 16 45  1  0
 16 46  1  0
 18 47  1  0
 19 48  1  0
 21 49  1  0
 24 50  1  0
 25 51  1  0
M  END
>  <smiles>  (90) 
O=C(NCC(=O)N1CCCCCC1C1CC1)c1ccc2cc(F)ccc2n1

>  <score_type>  (90) 
oracle

>  <origin>  (90) 
autodockgpu

>  <m_score__min__energy>  (90) 
-6.04

>  <m_primary>  (90) 
energy

>  <rmsd>  (90) 
3.1115884805410303

>  <m_score__min__rmsd>  (90) 
3.1115884805410303

>  <meeko>  (90) 
{"free_energy": -4.64, "intermolecular_energy": -7.92, "internal_energy": -1.7, "cluster_size": 30, "cluster_id": 2, "rank_in_cluster": 23}

>  <energy>  (90) 
-4.79

>  <cluster_rmsd>  (90) 
1.69

>  <cluster>  (90) 
3

$$$$

     RDKit          3D

 51 54  0  0  0  0  0  0  0  0999 V2000
  141.5550   73.1730  220.6830 O   0  0  0  0  0  0  0  0  0  0  0  0
  140.8150   73.9090  221.3900 C   0  0  0  0  0  0  0  0  0  0  0  0
  139.7670   73.3800  222.2100 N   0  0  0  0  0  0  0  0  0  0  0  0
  139.5750   71.9420  222.2040 C   0  0  0  0  0  0  0  0  0  0  0  0
  139.0530   71.5200  223.5290 C   0  0  0  0  0  0  0  0  0  0  0  0
  137.8850   71.8520  223.9250 O   0  0  0  0  0  0  0  0  0  0  0  0
  139.8540   70.7290  224.3980 N   0  0  0  0  0  0  0  0  0  0  0  0
  140.6520   71.4060  225.4010 C   0  0  0  0  0  0  0  0  0  0  0  0
  140.0480   71.2400  226.7850 C   0  0  0  0  0  0  0  0  0  0  0  0
  140.5310   69.9670  227.4460 C   0  0  0  0  0  0  0  0  0  0  0  0
  140.6130   68.7850  226.5680 C   0  0  0  0  0  0  0  0  0  0  0  0
  139.5960   68.6110  225.5030 C   0  0  0  0  0  0  0  0  0  0  0  0
  139.8120   69.2880  224.2100 C   0  0  1  0  0  0  0  0  0  0  0  0
  138.9060   68.8890  223.0870 C   0  0  0  0  0  0  0  0  0  0  0  0
  138.4720   67.4070  223.0290 C   0  0  0  0  0  0  0  0  0  0  0  0
  137.5060   68.5040  223.2380 C   0  0  0  0  0  0  0  0  0  0  0  0
  141.0350   75.3600  221.3740 C   0  0  0  0  0  0  0  0  0  0  0  0
  141.8330   75.9380  220.4280 C   0  0  0  0  0  0  0  0  0  0  0  0
  142.0860   77.2850  220.3490 C   0  0  0  0  0  0  0  0  0  0  0  0
  141.4950   78.1000  221.2850 C   0  0  0  0  0  0  0  0  0  0  0  0
  141.7330   79.4480  221.2250 C   0  0  0  0  0  0  0  0  0  0  0  0
  141.1310   80.2480  222.1730 C   0  0  0  0  0  0  0  0  0  0  0  0
  141.3290   81.5990  222.1660 F   0  0  0  0  0  0  0  0  0  0  0  0
  140.3180   79.7220  223.1470 C   0  0  0  0  0  0  0  0  0  0  0  0
  140.1090   78.3560  223.1650 C   0  0  0  0  0  0  0  0  0  0  0  0
  140.6900   77.5030  222.2360 C   0  0  0  0  0  0  0  0  0  0  0  0
  140.4620   76.1800  222.2880 N   0  0  0  0  0  0  0  0  0  0  0  0
  139.1820   74.0280  222.7780 H   0  0  0  0  0  0  0  0  0  0  0  0
  138.8540   71.6692  221.4193 H   0  0  0  0  0  0  0  0  0  0  0  0
  140.5327   71.4393  222.0038 H   0  0  0  0  0  0  0  0  0  0  0  0
  141.6669   70.9818  225.3988 H   0  0  0  0  0  0  0  0  0  0  0  0
  140.6804   72.4786  225.1589 H   0  0  0  0  0  0  0  0  0  0  0  0
  140.3373   72.0993  227.4078 H   0  0  0  0  0  0  0  0  0  0  0  0
  138.9542   71.1849  226.6825 H   0  0  0  0  0  0  0  0  0  0  0  0
  141.5352   70.1568  227.8528 H   0  0  0  0  0  0  0  0  0  0  0  0
  139.7802   69.7218  228.2117 H   0  0  0  0  0  0  0  0  0  0  0  0
  141.5953   68.8174  226.0740 H   0  0  0  0  0  0  0  0  0  0  0  0
  140.4332   67.9382  227.2466 H   0  0  0  0  0  0  0  0  0  0  0  0
  139.5215   67.5330  225.2973 H   0  0  0  0  0  0  0  0  0  0  0  0
  138.6927   69.0882  225.9108 H   0  0  0  0  0  0  0  0  0  0  0  0
  140.7918   68.9276  223.8636 H   0  0  0  0  0  0  0  0  0  0  0  0
  139.4018   69.6359  222.4496 H   0  0  0  0  0  0  0  0  0  0  0  0
  138.4928   66.8582  222.0759 H   0  0  0  0  0  0  0  0  0  0  0  0
  138.7446   66.4817  223.5577 H   0  0  0  0  0  0  0  0  0  0  0  0
  136.7890   68.7513  222.4413 H   0  0  0  0  0  0  0  0  0  0  0  0
  136.7445   68.7055  224.0058 H   0  0  0  0  0  0  0  0  0  0  0  0
  142.3034   75.2816  219.6811 H   0  0  0  0  0  0  0  0  0  0  0  0
  142.7382   77.6973  219.5650 H   0  0  0  0  0  0  0  0  0  0  0  0
  142.3819   79.8772  220.4474 H   0  0  0  0  0  0  0  0  0  0  0  0
  139.8438   80.3734  223.8960 H   0  0  0  0  0  0  0  0  0  0  0  0
  139.4591   77.9292  223.9431 H   0  0  0  0  0  0  0  0  0  0  0  0
  1  2  2  0
  2  3  1  0
  3  4  1  0
  4  5  1  0
  5  6  2  0
  5  7  1  0
  7  8  1  0
  8  9  1  0
  9 10  1  0
 10 11  1  0
 11 12  1  0
 12 13  1  0
 13 14  1  0
 14 15  1  0
 15 16  1  0
  2 17  1  0
 17 18  2  0
 18 19  1  0
 19 20  2  0
 20 21  1  0
 21 22  2  0
 22 23  1  0
 22 24  1  0
 24 25  2  0
 25 26  1  0
 26 27  2  0
 13  7  1  0
 16 14  1  0
 27 17  1  0
 26 20  1  0
  3 28  1  0
  4 29  1  0
  4 30  1  0
  8 31  1  0
  8 32  1  0
  9 33  1  0
  9 34  1  0
 10 35  1  0
 10 36  1  0
 11 37  1  0
 11 38  1  0
 12 39  1  0
 12 40  1  0
 13 41  1  6
 14 42  1  0
 15 43  1  0
 15 44  1  0
 16 45  1  0
 16 46  1  0
 18 47  1  0
 19 48  1  0
 21 49  1  0
 24 50  1  0
 25 51  1  0
M  END
>  <smiles>  (91) 
O=C(NCC(=O)N1CCCCCC1C1CC1)c1ccc2cc(F)ccc2n1

>  <score_type>  (91) 
oracle

>  <origin>  (91) 
autodockgpu

>  <m_score__min__energy>  (91) 
-6.04

>  <m_primary>  (91) 
energy

>  <rmsd>  (91) 
8.821540450736252

>  <m_score__min__rmsd>  (91) 
8.821540450736252

>  <meeko>  (91) 
{"free_energy": -4.53, "intermolecular_energy": -7.81, "internal_energy": -1.56, "cluster_size": 3, "cluster_id": 4, "rank_in_cluster": 3}

>  <energy>  (91) 
-4.5

>  <cluster_rmsd>  (91) 
0.89

>  <cluster>  (91) 
3

$$$$

     RDKit          3D

 51 54  0  0  0  0  0  0  0  0999 V2000
  139.5530   71.5240  220.8570 O   0  0  0  0  0  0  0  0  0  0  0  0
  139.3830   72.0510  221.9900 C   0  0  0  0  0  0  0  0  0  0  0  0
  138.9590   73.4090  222.1460 N   0  0  0  0  0  0  0  0  0  0  0  0
  138.7240   74.1790  220.9390 C   0  0  0  0  0  0  0  0  0  0  0  0
  139.9890   74.2600  220.1650 C   0  0  0  0  0  0  0  0  0  0  0  0
  140.1120   73.7050  219.0210 O   0  0  0  0  0  0  0  0  0  0  0  0
  141.1070   74.9660  220.6890 N   0  0  0  0  0  0  0  0  0  0  0  0
  140.9720   75.5980  221.9870 C   0  0  0  0  0  0  0  0  0  0  0  0
  140.2990   76.9550  221.8680 C   0  0  0  0  0  0  0  0  0  0  0  0
  140.8560   77.7440  220.7030 C   0  0  0  0  0  0  0  0  0  0  0  0
  142.2720   77.4890  220.3800 C   0  0  0  0  0  0  0  0  0  0  0  0
  142.6020   76.3840  219.4510 C   0  0  0  0  0  0  0  0  0  0  0  0
  142.3110   75.0010  219.8750 C   0  0  1  0  0  0  0  0  0  0  0  0
  143.4400   74.2440  220.5010 C   0  0  0  0  0  0  0  0  0  0  0  0
  143.3480   72.7010  220.4770 C   0  0  0  0  0  0  0  0  0  0  0  0
  144.4160   73.4390  219.7720 C   0  0  0  0  0  0  0  0  0  0  0  0
  139.6290   71.2450  223.1920 C   0  0  0  0  0  0  0  0  0  0  0  0
  139.3200   69.9150  223.2190 C   0  0  0  0  0  0  0  0  0  0  0  0
  139.5200   69.0980  224.3040 C   0  0  0  0  0  0  0  0  0  0  0  0
  140.0670   69.6610  225.4340 C   0  0  0  0  0  0  0  0  0  0  0  0
  140.2750   68.8640  226.5280 C   0  0  0  0  0  0  0  0  0  0  0  0
  140.8240   69.4480  227.6510 C   0  0  0  0  0  0  0  0  0  0  0  0
  141.0560   68.7070  228.7730 F   0  0  0  0  0  0  0  0  0  0  0  0
  141.1550   70.7810  227.6790 C   0  0  0  0  0  0  0  0  0  0  0  0
  140.9250   71.5420  226.5500 C   0  0  0  0  0  0  0  0  0  0  0  0
  140.3740   71.0060  225.3920 C   0  0  0  0  0  0  0  0  0  0  0  0
  140.1670   71.7820  224.3140 N   0  0  0  0  0  0  0  0  0  0  0  0
  138.8320   73.8010  223.1030 H   0  0  0  0  0  0  0  0  0  0  0  0
  137.9506   73.6862  220.3316 H   0  0  0  0  0  0  0  0  0  0  0  0
  138.3839   75.1911  221.2034 H   0  0  0  0  0  0  0  0  0  0  0  0
  140.3658   74.9524  222.6395 H   0  0  0  0  0  0  0  0  0  0  0  0
  141.9766   75.7425  222.4111 H   0  0  0  0  0  0  0  0  0  0  0  0
  139.2193   76.8077  221.7176 H   0  0  0  0  0  0  0  0  0  0  0  0
  140.4893   77.5195  222.7927 H   0  0  0  0  0  0  0  0  0  0  0  0
  140.2569   77.5018  219.8129 H   0  0  0  0  0  0  0  0  0  0  0  0
  140.8011   78.8012  221.0018 H   0  0  0  0  0  0  0  0  0  0  0  0
  142.6752   78.4131  219.9401 H   0  0  0  0  0  0  0  0  0  0  0  0
  142.7115   77.1729  221.3376 H   0  0  0  0  0  0  0  0  0  0  0  0
  142.0433   76.5634  218.5206 H   0  0  0  0  0  0  0  0  0  0  0  0
  143.6985   76.4171  219.3697 H   0  0  0  0  0  0  0  0  0  0  0  0
  142.1437   74.4488  218.9385 H   0  0  0  0  0  0  0  0  0  0  0  0
  143.5537   75.0596  221.2303 H   0  0  0  0  0  0  0  0  0  0  0  0
  143.5787   72.1159  221.3795 H   0  0  0  0  0  0  0  0  0  0  0  0
  142.5850   71.9582  220.2011 H   0  0  0  0  0  0  0  0  0  0  0  0
  145.4499   73.3776  220.1424 H   0  0  0  0  0  0  0  0  0  0  0  0
  144.7736   73.4423  218.7318 H   0  0  0  0  0  0  0  0  0  0  0  0
  138.8828   69.4697  222.3131 H   0  0  0  0  0  0  0  0  0  0  0  0
  139.2525   68.0315  224.2711 H   0  0  0  0  0  0  0  0  0  0  0  0
  140.0135   67.7956  226.5120 H   0  0  0  0  0  0  0  0  0  0  0  0
  141.5937   71.2323  228.5812 H   0  0  0  0  0  0  0  0  0  0  0  0
  141.1871   72.6102  226.5677 H   0  0  0  0  0  0  0  0  0  0  0  0
  1  2  2  0
  2  3  1  0
  3  4  1  0
  4  5  1  0
  5  6  2  0
  5  7  1  0
  7  8  1  0
  8  9  1  0
  9 10  1  0
 10 11  1  0
 11 12  1  0
 12 13  1  0
 13 14  1  0
 14 15  1  0
 15 16  1  0
  2 17  1  0
 17 18  2  0
 18 19  1  0
 19 20  2  0
 20 21  1  0
 21 22  2  0
 22 23  1  0
 22 24  1  0
 24 25  2  0
 25 26  1  0
 26 27  2  0
 13  7  1  0
 16 14  1  0
 27 17  1  0
 26 20  1  0
  3 28  1  0
  4 29  1  0
  4 30  1  0
  8 31  1  0
  8 32  1  0
  9 33  1  0
  9 34  1  0
 10 35  1  0
 10 36  1  0
 11 37  1  0
 11 38  1  0
 12 39  1  0
 12 40  1  0
 13 41  1  6
 14 42  1  0
 15 43  1  0
 15 44  1  0
 16 45  1  0
 16 46  1  0
 18 47  1  0
 19 48  1  0
 21 49  1  0
 24 50  1  0
 25 51  1  0
M  END
>  <smiles>  (92) 
O=C(NCC(=O)N1CCCCCC1C1CC1)c1ccc2cc(F)ccc2n1

>  <score_type>  (92) 
oracle

>  <origin>  (92) 
autodockgpu

>  <m_score__min__energy>  (92) 
-6.04

>  <m_primary>  (92) 
energy

>  <rmsd>  (92) 
2.294335171840872

>  <m_score__min__rmsd>  (92) 
2.294335171840872

>  <meeko>  (92) 
{"free_energy": -4.76, "intermolecular_energy": -8.04, "internal_energy": -1.72, "cluster_size": 30, "cluster_id": 2, "rank_in_cluster": 19}

>  <energy>  (92) 
-5.19

>  <cluster_rmsd>  (92) 
0.0

>  <cluster>  (92) 
4

$$$$

     RDKit          3D

 51 54  0  0  0  0  0  0  0  0999 V2000
  141.0100   71.8800  221.3220 O   0  0  0  0  0  0  0  0  0  0  0  0
  140.4100   72.3590  222.3220 C   0  0  0  0  0  0  0  0  0  0  0  0
  139.8910   73.6930  222.3380 N   0  0  0  0  0  0  0  0  0  0  0  0
  140.0780   74.4970  221.1440 C   0  0  0  0  0  0  0  0  0  0  0  0
  140.7550   75.7650  221.5190 C   0  0  0  0  0  0  0  0  0  0  0  0
  140.7450   76.2010  222.7190 O   0  0  0  0  0  0  0  0  0  0  0  0
  141.4380   76.5310  220.5340 N   0  0  0  0  0  0  0  0  0  0  0  0
  142.0430   75.8310  219.4180 C   0  0  0  0  0  0  0  0  0  0  0  0
  141.2260   76.0100  218.1500 C   0  0  0  0  0  0  0  0  0  0  0  0
  141.5800   77.3020  217.4470 C   0  0  0  0  0  0  0  0  0  0  0  0
  141.4150   78.5290  218.2470 C   0  0  0  0  0  0  0  0  0  0  0  0
  142.1020   78.6250  219.5570 C   0  0  0  0  0  0  0  0  0  0  0  0
  141.4770   77.9720  220.7240 C   0  0  1  0  0  0  0  0  0  0  0  0
  140.1570   78.5200  221.1690 C   0  0  0  0  0  0  0  0  0  0  0  0
  140.0910   79.1200  222.5920 C   0  0  0  0  0  0  0  0  0  0  0  0
  139.8670   79.9360  221.3800 C   0  0  0  0  0  0  0  0  0  0  0  0
  140.2370   71.5200  223.5150 C   0  0  0  0  0  0  0  0  0  0  0  0
  139.6000   70.3140  223.4370 C   0  0  0  0  0  0  0  0  0  0  0  0
  139.4000   69.4760  224.5050 C   0  0  0  0  0  0  0  0  0  0  0  0
  139.8730   69.8820  225.7310 C   0  0  0  0  0  0  0  0  0  0  0  0
  139.6850   69.0610  226.8110 C   0  0  0  0  0  0  0  0  0  0  0  0
  140.1660   69.4870  228.0310 C   0  0  0  0  0  0  0  0  0  0  0  0
  140.0100   68.7140  229.1460 F   0  0  0  0  0  0  0  0  0  0  0  0
  140.8150   70.6900  228.1680 C   0  0  0  0  0  0  0  0  0  0  0  0
  140.9800   71.4820  227.0480 C   0  0  0  0  0  0  0  0  0  0  0  0
  140.5140   71.1030  225.7950 C   0  0  0  0  0  0  0  0  0  0  0  0
  140.6950   71.9030  224.7310 N   0  0  0  0  0  0  0  0  0  0  0  0
  139.4010   74.0440  223.1880 H   0  0  0  0  0  0  0  0  0  0  0  0
  140.6987   73.9466  220.4217 H   0  0  0  0  0  0  0  0  0  0  0  0
  139.1023   74.7167  220.6860 H   0  0  0  0  0  0  0  0  0  0  0  0
  143.0554   76.2278  219.2517 H   0  0  0  0  0  0  0  0  0  0  0  0
  142.0819   74.7584  219.6591 H   0  0  0  0  0  0  0  0  0  0  0  0
  141.4261   75.1668  217.4726 H   0  0  0  0  0  0  0  0  0  0  0  0
  140.1613   76.0439  218.4243 H   0  0  0  0  0  0  0  0  0  0  0  0
  142.6332   77.2402  217.1357 H   0  0  0  0  0  0  0  0  0  0  0  0
  140.8728   77.3920  216.6093 H   0  0  0  0  0  0  0  0  0  0  0  0
  141.7740   79.3670  217.6315 H   0  0  0  0  0  0  0  0  0  0  0  0
  140.3460   78.5359  218.5061 H   0  0  0  0  0  0  0  0  0  0  0  0
  143.1020   78.1836  219.4335 H   0  0  0  0  0  0  0  0  0  0  0  0
  142.0758   79.6976  219.7995 H   0  0  0  0  0  0  0  0  0  0  0  0
  142.1349   78.2196  221.5701 H   0  0  0  0  0  0  0  0  0  0  0  0
  139.6566   77.7455  220.5693 H   0  0  0  0  0  0  0  0  0  0  0  0
  139.2525   78.8752  223.2605 H   0  0  0  0  0  0  0  0  0  0  0  0
  140.7610   79.1651  223.4632 H   0  0  0  0  0  0  0  0  0  0  0  0
  138.8583   80.3186  221.1653 H   0  0  0  0  0  0  0  0  0  0  0  0
  140.3160   80.8654  220.9997 H   0  0  0  0  0  0  0  0  0  0  0  0
  139.2230   69.9940  222.4544 H   0  0  0  0  0  0  0  0  0  0  0  0
  138.8801   68.5141  224.3849 H   0  0  0  0  0  0  0  0  0  0  0  0
  139.1682   68.0953  226.7087 H   0  0  0  0  0  0  0  0  0  0  0  0
  141.1949   71.0155  229.1477 H   0  0  0  0  0  0  0  0  0  0  0  0
  141.4985   72.4466  227.1519 H   0  0  0  0  0  0  0  0  0  0  0  0
  1  2  2  0
  2  3  1  0
  3  4  1  0
  4  5  1  0
  5  6  2  0
  5  7  1  0
  7  8  1  0
  8  9  1  0
  9 10  1  0
 10 11  1  0
 11 12  1  0
 12 13  1  0
 13 14  1  0
 14 15  1  0
 15 16  1  0
  2 17  1  0
 17 18  2  0
 18 19  1  0
 19 20  2  0
 20 21  1  0
 21 22  2  0
 22 23  1  0
 22 24  1  0
 24 25  2  0
 25 26  1  0
 26 27  2  0
 13  7  1  0
 16 14  1  0
 27 17  1  0
 26 20  1  0
  3 28  1  0
  4 29  1  0
  4 30  1  0
  8 31  1  0
  8 32  1  0
  9 33  1  0
  9 34  1  0
 10 35  1  0
 10 36  1  0
 11 37  1  0
 11 38  1  0
 12 39  1  0
 12 40  1  0
 13 41  1  1
 14 42  1  0
 15 43  1  0
 15 44  1  0
 16 45  1  0
 16 46  1  0
 18 47  1  0
 19 48  1  0
 21 49  1  0
 24 50  1  0
 25 51  1  0
M  END
>  <smiles>  (93) 
O=C(NCC(=O)N1CCCCCC1C1CC1)c1ccc2cc(F)ccc2n1

>  <score_type>  (93) 
oracle

>  <origin>  (93) 
autodockgpu

>  <m_score__min__energy>  (93) 
-6.04

>  <m_primary>  (93) 
energy

>  <rmsd>  (93) 
1.8995351331333656

>  <m_score__min__rmsd>  (93) 
1.8995351331333656

>  <meeko>  (93) 
{"free_energy": -5.05, "intermolecular_energy": -8.33, "internal_energy": -1.43, "cluster_size": 10, "cluster_id": 3, "rank_in_cluster": 7}

>  <energy>  (93) 
-5.04

>  <cluster_rmsd>  (93) 
1.76

>  <cluster>  (93) 
4

$$$$

     RDKit          3D

 51 54  0  0  0  0  0  0  0  0999 V2000
  136.0700   77.5420  222.6570 O   0  0  0  0  0  0  0  0  0  0  0  0
  136.3700   76.3880  223.0670 C   0  0  0  0  0  0  0  0  0  0  0  0
  137.5370   75.6930  222.6150 N   0  0  0  0  0  0  0  0  0  0  0  0
  138.3850   76.3690  221.6500 C   0  0  0  0  0  0  0  0  0  0  0  0
  139.7700   75.8470  221.7770 C   0  0  0  0  0  0  0  0  0  0  0  0
  140.0140   74.7210  222.3300 O   0  0  0  0  0  0  0  0  0  0  0  0
  140.8690   76.6000  221.2800 N   0  0  0  0  0  0  0  0  0  0  0  0
  141.5320   76.1350  220.0780 C   0  0  0  0  0  0  0  0  0  0  0  0
  140.9460   76.7910  218.8400 C   0  0  0  0  0  0  0  0  0  0  0  0
  141.4410   78.2130  218.6850 C   0  0  0  0  0  0  0  0  0  0  0  0
  141.2170   79.0950  219.8450 C   0  0  0  0  0  0  0  0  0  0  0  0
  141.8870   78.7720  221.1270 C   0  0  0  0  0  0  0  0  0  0  0  0
  141.2470   77.7910  222.0240 C   0  0  1  0  0  0  0  0  0  0  0  0
  140.1320   78.3000  222.8840 C   0  0  0  0  0  0  0  0  0  0  0  0
  140.4420   79.5170  223.7850 C   0  0  0  0  0  0  0  0  0  0  0  0
  139.4450   79.5740  222.6960 C   0  0  0  0  0  0  0  0  0  0  0  0
  135.4910   75.7310  224.0430 C   0  0  0  0  0  0  0  0  0  0  0  0
  134.6370   76.4610  224.8190 C   0  0  0  0  0  0  0  0  0  0  0  0
  133.7870   75.9200  225.7520 C   0  0  0  0  0  0  0  0  0  0  0  0
  133.8020   74.5540  225.9100 C   0  0  0  0  0  0  0  0  0  0  0  0
  132.9620   73.9920  226.8350 C   0  0  0  0  0  0  0  0  0  0  0  0
  132.9920   72.6210  226.9780 C   0  0  0  0  0  0  0  0  0  0  0  0
  132.1800   72.0000  227.8830 F   0  0  0  0  0  0  0  0  0  0  0  0
  133.8310   71.8370  226.2240 C   0  0  0  0  0  0  0  0  0  0  0  0
  134.6590   72.4510  225.3050 C   0  0  0  0  0  0  0  0  0  0  0  0
  134.6700   73.8280  225.1190 C   0  0  0  0  0  0  0  0  0  0  0  0
  135.4920   74.3870  224.2140 N   0  0  0  0  0  0  0  0  0  0  0  0
  137.7440   74.7410  222.9830 H   0  0  0  0  0  0  0  0  0  0  0  0
  138.0108   76.1795  220.6331 H   0  0  0  0  0  0  0  0  0  0  0  0
  138.3762   77.4523  221.8407 H   0  0  0  0  0  0  0  0  0  0  0  0
  142.6026   76.3794  220.1411 H   0  0  0  0  0  0  0  0  0  0  0  0
  141.3870   75.0475  219.9982 H   0  0  0  0  0  0  0  0  0  0  0  0
  141.2404   76.2104  217.9533 H   0  0  0  0  0  0  0  0  0  0  0  0
  139.8512   76.8137  218.9441 H   0  0  0  0  0  0  0  0  0  0  0  0
  142.5233   78.1756  218.4922 H   0  0  0  0  0  0  0  0  0  0  0  0
  140.8573   78.6468  217.8597 H   0  0  0  0  0  0  0  0  0  0  0  0
  141.5463   80.1031  219.5531 H   0  0  0  0  0  0  0  0  0  0  0  0
  140.1462   78.9761  220.0669 H   0  0  0  0  0  0  0  0  0  0  0  0
  142.8876   78.3856  220.8830 H   0  0  0  0  0  0  0  0  0  0  0  0
  141.8589   79.7150  221.6926 H   0  0  0  0  0  0  0  0  0  0  0  0
  142.0212   77.5388  222.7636 H   0  0  0  0  0  0  0  0  0  0  0  0
  139.7613   77.2686  222.9779 H   0  0  0  0  0  0  0  0  0  0  0  0
  140.1187   79.5275  224.8364 H   0  0  0  0  0  0  0  0  0  0  0  0
  141.3411   80.0855  224.0651 H   0  0  0  0  0  0  0  0  0  0  0  0
  138.3766   79.6534  222.9455 H   0  0  0  0  0  0  0  0  0  0  0  0
  139.3070   80.2387  221.8305 H   0  0  0  0  0  0  0  0  0  0  0  0
  134.6294   77.5532  224.6883 H   0  0  0  0  0  0  0  0  0  0  0  0
  133.1186   76.5560  226.3510 H   0  0  0  0  0  0  0  0  0  0  0  0
  132.2872   74.6130  227.4424 H   0  0  0  0  0  0  0  0  0  0  0  0
  133.8430   70.7442  226.3495 H   0  0  0  0  0  0  0  0  0  0  0  0
  135.3334   71.8282  224.6990 H   0  0  0  0  0  0  0  0  0  0  0  0
  1  2  2  0
  2  3  1  0
  3  4  1  0
  4  5  1  0
  5  6  2  0
  5  7  1  0
  7  8  1  0
  8  9  1  0
  9 10  1  0
 10 11  1  0
 11 12  1  0
 12 13  1  0
 13 14  1  0
 14 15  1  0
 15 16  1  0
  2 17  1  0
 17 18  2  0
 18 19  1  0
 19 20  2  0
 20 21  1  0
 21 22  2  0
 22 23  1  0
 22 24  1  0
 24 25  2  0
 25 26  1  0
 26 27  2  0
 13  7  1  0
 16 14  1  0
 27 17  1  0
 26 20  1  0
  3 28  1  0
  4 29  1  0
  4 30  1  0
  8 31  1  0
  8 32  1  0
  9 33  1  0
  9 34  1  0
 10 35  1  0
 10 36  1  0
 11 37  1  0
 11 38  1  0
 12 39  1  0
 12 40  1  0
 13 41  1  1
 14 42  1  0
 15 43  1  0
 15 44  1  0
 16 45  1  0
 16 46  1  0
 18 47  1  0
 19 48  1  0
 21 49  1  0
 24 50  1  0
 25 51  1  0
M  END
>  <smiles>  (94) 
O=C(NCC(=O)N1CCCCCC1C1CC1)c1ccc2cc(F)ccc2n1

>  <score_type>  (94) 
oracle

>  <origin>  (94) 
autodockgpu

>  <m_score__min__energy>  (94) 
-6.04

>  <m_primary>  (94) 
energy

>  <rmsd>  (94) 
5.941476665417502

>  <m_score__min__rmsd>  (94) 
5.941476665417502

>  <meeko>  (94) 
{"free_energy": -4.17, "intermolecular_energy": -7.45, "internal_energy": -1.79, "cluster_size": 2, "cluster_id": 7, "rank_in_cluster": 2}

>  <energy>  (94) 
-4.53

>  <cluster_rmsd>  (94) 
1.82

>  <cluster>  (94) 
4

$$$$

     RDKit          3D

 51 54  0  0  0  0  0  0  0  0999 V2000
  141.3950   72.6990  221.5300 O   0  0  0  0  0  0  0  0  0  0  0  0
  140.4690   72.8540  222.3700 C   0  0  0  0  0  0  0  0  0  0  0  0
  139.6240   74.0100  222.3740 N   0  0  0  0  0  0  0  0  0  0  0  0
  139.8690   75.0200  221.3620 C   0  0  0  0  0  0  0  0  0  0  0  0
  139.8150   76.3620  221.9970 C   0  0  0  0  0  0  0  0  0  0  0  0
  138.8670   76.6920  222.7860 O   0  0  0  0  0  0  0  0  0  0  0  0
  140.8320   77.3210  221.7350 N   0  0  0  0  0  0  0  0  0  0  0  0
  141.3710   78.0720  222.8520 C   0  0  0  0  0  0  0  0  0  0  0  0
  140.5610   79.3300  223.1090 C   0  0  0  0  0  0  0  0  0  0  0  0
  140.7470   80.3400  221.9970 C   0  0  0  0  0  0  0  0  0  0  0  0
  141.6450   79.9240  220.9040 C   0  0  0  0  0  0  0  0  0  0  0  0
  141.1770   78.8940  219.9510 C   0  0  0  0  0  0  0  0  0  0  0  0
  141.2570   77.4770  220.3530 C   0  0  1  0  0  0  0  0  0  0  0  0
  142.5500   76.7760  220.0760 C   0  0  0  0  0  0  0  0  0  0  0  0
  142.4870   75.5150  219.1840 C   0  0  0  0  0  0  0  0  0  0  0  0
  143.2180   76.7330  218.7780 C   0  0  0  0  0  0  0  0  0  0  0  0
  140.2460   71.8140  223.3810 C   0  0  0  0  0  0  0  0  0  0  0  0
  139.5770   70.6650  223.0690 C   0  0  0  0  0  0  0  0  0  0  0  0
  139.3300   69.6490  223.9590 C   0  0  0  0  0  0  0  0  0  0  0  0
  139.7890   69.8040  225.2460 C   0  0  0  0  0  0  0  0  0  0  0  0
  139.5540   68.8020  226.1500 C   0  0  0  0  0  0  0  0  0  0  0  0
  140.0220   68.9770  227.4360 C   0  0  0  0  0  0  0  0  0  0  0  0
  139.8200   68.0150  228.3840 F   0  0  0  0  0  0  0  0  0  0  0  0
  140.7020   70.1120  227.8060 C   0  0  0  0  0  0  0  0  0  0  0  0
  140.9130   71.0930  226.8570 C   0  0  0  0  0  0  0  0  0  0  0  0
  140.4640   70.9700  225.5480 C   0  0  0  0  0  0  0  0  0  0  0  0
  140.6900   71.9480  224.6550 N   0  0  0  0  0  0  0  0  0  0  0  0
  138.8700   74.0930  223.0880 H   0  0  0  0  0  0  0  0  0  0  0  0
  140.8622   74.8624  220.9161 H   0  0  0  0  0  0  0  0  0  0  0  0
  139.1050   74.9502  220.5737 H   0  0  0  0  0  0  0  0  0  0  0  0
  141.3492   77.4409  223.7527 H   0  0  0  0  0  0  0  0  0  0  0  0
  142.4030   78.3654  222.6092 H   0  0  0  0  0  0  0  0  0  0  0  0
  139.4960   79.0631  223.1763 H   0  0  0  0  0  0  0  0  0  0  0  0
  140.9091   79.7812  224.0499 H   0  0  0  0  0  0  0  0  0  0  0  0
  139.7589   80.5506  221.5619 H   0  0  0  0  0  0  0  0  0  0  0  0
  141.2233   81.2159  222.4617 H   0  0  0  0  0  0  0  0  0  0  0  0
  141.8794   80.8246  220.3175 H   0  0  0  0  0  0  0  0  0  0  0  0
  142.4893   79.4445  221.4210 H   0  0  0  0  0  0  0  0  0  0  0  0
  140.1211   79.1104  219.7312 H   0  0  0  0  0  0  0  0  0  0  0  0
  141.8736   78.9739  219.1035 H   0  0  0  0  0  0  0  0  0  0  0  0
  140.5557   76.9552  219.6852 H   0  0  0  0  0  0  0  0  0  0  0  0
  142.8995   77.0704  221.0766 H   0  0  0  0  0  0  0  0  0  0  0  0
  143.0363   74.6051  219.4675 H   0  0  0  0  0  0  0  0  0  0  0  0
  141.6910   74.8897  218.7534 H   0  0  0  0  0  0  0  0  0  0  0  0
  144.3171   76.7147  218.7366 H   0  0  0  0  0  0  0  0  0  0  0  0
  143.1808   77.3759  217.8862 H   0  0  0  0  0  0  0  0  0  0  0  0
  139.2124   70.5458  222.0380 H   0  0  0  0  0  0  0  0  0  0  0  0
  138.7847   68.7438  223.6536 H   0  0  0  0  0  0  0  0  0  0  0  0
  139.0113   67.8900  225.8608 H   0  0  0  0  0  0  0  0  0  0  0  0
  141.0701   70.2366  228.8350 H   0  0  0  0  0  0  0  0  0  0  0  0
  141.4560   72.0043  227.1480 H   0  0  0  0  0  0  0  0  0  0  0  0
  1  2  2  0
  2  3  1  0
  3  4  1  0
  4  5  1  0
  5  6  2  0
  5  7  1  0
  7  8  1  0
  8  9  1  0
  9 10  1  0
 10 11  1  0
 11 12  1  0
 12 13  1  0
 13 14  1  0
 14 15  1  0
 15 16  1  0
  2 17  1  0
 17 18  2  0
 18 19  1  0
 19 20  2  0
 20 21  1  0
 21 22  2  0
 22 23  1  0
 22 24  1  0
 24 25  2  0
 25 26  1  0
 26 27  2  0
 13  7  1  0
 16 14  1  0
 27 17  1  0
 26 20  1  0
  3 28  1  0
  4 29  1  0
  4 30  1  0
  8 31  1  0
  8 32  1  0
  9 33  1  0
  9 34  1  0
 10 35  1  0
 10 36  1  0
 11 37  1  0
 11 38  1  0
 12 39  1  0
 12 40  1  0
 13 41  1  6
 14 42  1  0
 15 43  1  0
 15 44  1  0
 16 45  1  0
 16 46  1  0
 18 47  1  0
 19 48  1  0
 21 49  1  0
 24 50  1  0
 25 51  1  0
M  END
>  <smiles>  (95) 
O=C(NCC(=O)N1CCCCCC1C1CC1)c1ccc2cc(F)ccc2n1

>  <score_type>  (95) 
oracle

>  <origin>  (95) 
autodockgpu

>  <m_score__min__energy>  (95) 
-6.04

>  <m_primary>  (95) 
energy

>  <rmsd>  (95) 
3.08109280379223

>  <m_score__min__rmsd>  (95) 
3.08109280379223

>  <meeko>  (95) 
{"free_energy": -5.5, "intermolecular_energy": -8.78, "internal_energy": -1.49, "cluster_size": 10, "cluster_id": 3, "rank_in_cluster": 3}

>  <energy>  (95) 
-4.7

>  <cluster_rmsd>  (95) 
0.0

>  <cluster>  (95) 
5

$$$$

     RDKit          3D

 51 54  0  0  0  0  0  0  0  0999 V2000
  140.4000   73.5600  222.3480 O   0  0  0  0  0  0  0  0  0  0  0  0
  140.2750   72.3140  222.2050 C   0  0  0  0  0  0  0  0  0  0  0  0
  140.2040   71.6950  220.9160 N   0  0  0  0  0  0  0  0  0  0  0  0
  140.2820   72.5600  219.7540 C   0  0  0  0  0  0  0  0  0  0  0  0
  141.6610   72.5040  219.2030 C   0  0  0  0  0  0  0  0  0  0  0  0
  141.8790   72.3210  217.9580 O   0  0  0  0  0  0  0  0  0  0  0  0
  142.7830   72.6530  220.0640 N   0  0  0  0  0  0  0  0  0  0  0  0
  143.4280   71.4540  220.5650 C   0  0  0  0  0  0  0  0  0  0  0  0
  144.5760   71.0330  219.6640 C   0  0  0  0  0  0  0  0  0  0  0  0
  145.7920   71.9100  219.8790 C   0  0  0  0  0  0  0  0  0  0  0  0
  145.5670   73.3590  219.7230 C   0  0  0  0  0  0  0  0  0  0  0  0
  144.6500   74.0440  220.6630 C   0  0  0  0  0  0  0  0  0  0  0  0
  143.2020   74.0090  220.3800 C   0  0  1  0  0  0  0  0  0  0  0  0
  142.6920   75.0050  219.3850 C   0  0  0  0  0  0  0  0  0  0  0  0
  143.3590   76.4000  219.3850 C   0  0  0  0  0  0  0  0  0  0  0  0
  143.4370   75.4870  218.2260 C   0  0  0  0  0  0  0  0  0  0  0  0
  140.1990   71.4660  223.4010 C   0  0  0  0  0  0  0  0  0  0  0  0
  139.6070   70.2360  223.3510 C   0  0  0  0  0  0  0  0  0  0  0  0
  139.4970   69.3880  224.4250 C   0  0  0  0  0  0  0  0  0  0  0  0
  140.0180   69.8090  225.6250 C   0  0  0  0  0  0  0  0  0  0  0  0
  139.9200   68.9780  226.7100 C   0  0  0  0  0  0  0  0  0  0  0  0
  140.4480   69.4200  227.9050 C   0  0  0  0  0  0  0  0  0  0  0  0
  140.3820   68.6390  229.0230 F   0  0  0  0  0  0  0  0  0  0  0  0
  141.0550   70.6480  228.0130 C   0  0  0  0  0  0  0  0  0  0  0  0
  141.1290   71.4480  226.8900 C   0  0  0  0  0  0  0  0  0  0  0  0
  140.6130   71.0540  225.6620 C   0  0  0  0  0  0  0  0  0  0  0  0
  140.7060   71.8640  224.5930 N   0  0  0  0  0  0  0  0  0  0  0  0
  140.1020   70.6600  220.8480 H   0  0  0  0  0  0  0  0  0  0  0  0
  139.5658   72.2195  218.9917 H   0  0  0  0  0  0  0  0  0  0  0  0
  140.0377   73.5932  220.0418 H   0  0  0  0  0  0  0  0  0  0  0  0
  143.8174   71.6508  221.5747 H   0  0  0  0  0  0  0  0  0  0  0  0
  142.6862   70.6421  220.5880 H   0  0  0  0  0  0  0  0  0  0  0  0
  144.8426   69.9893  219.8868 H   0  0  0  0  0  0  0  0  0  0  0  0
  144.2530   71.1363  218.6176 H   0  0  0  0  0  0  0  0  0  0  0  0
  146.1612   71.7326  220.8999 H   0  0  0  0  0  0  0  0  0  0  0  0
  146.5084   71.6299  219.0926 H   0  0  0  0  0  0  0  0  0  0  0  0
  146.5474   73.8498  219.8123 H   0  0  0  0  0  0  0  0  0  0  0  0
  145.0635   73.4466  218.7489 H   0  0  0  0  0  0  0  0  0  0  0  0
  144.7992   73.5887  221.6532 H   0  0  0  0  0  0  0  0  0  0  0  0
  144.9175   75.1074  220.5759 H   0  0  0  0  0  0  0  0  0  0  0  0
  142.7248   74.3391  221.3145 H   0  0  0  0  0  0  0  0  0  0  0  0
  141.6903   74.5619  219.4862 H   0  0  0  0  0  0  0  0  0  0  0  0
  142.7440   77.3107  219.3354 H   0  0  0  0  0  0  0  0  0  0  0  0
  144.0800   76.9323  220.0228 H   0  0  0  0  0  0  0  0  0  0  0  0
  142.8951   75.7392  217.3025 H   0  0  0  0  0  0  0  0  0  0  0  0
  144.2734   75.0774  217.6406 H   0  0  0  0  0  0  0  0  0  0  0  0
  139.1917   69.9036  222.3882 H   0  0  0  0  0  0  0  0  0  0  0  0
  139.0093   68.4067  224.3285 H   0  0  0  0  0  0  0  0  0  0  0  0
  139.4371   67.9928  226.6307 H   0  0  0  0  0  0  0  0  0  0  0  0
  141.4727   70.9862  228.9728 H   0  0  0  0  0  0  0  0  0  0  0  0
  141.6137   72.4321  226.9707 H   0  0  0  0  0  0  0  0  0  0  0  0
  1  2  2  0
  2  3  1  0
  3  4  1  0
  4  5  1  0
  5  6  2  0
  5  7  1  0
  7  8  1  0
  8  9  1  0
  9 10  1  0
 10 11  1  0
 11 12  1  0
 12 13  1  0
 13 14  1  0
 14 15  1  0
 15 16  1  0
  2 17  1  0
 17 18  2  0
 18 19  1  0
 19 20  2  0
 20 21  1  0
 21 22  2  0
 22 23  1  0
 22 24  1  0
 24 25  2  0
 25 26  1  0
 26 27  2  0
 13  7  1  0
 16 14  1  0
 27 17  1  0
 26 20  1  0
  3 28  1  0
  4 29  1  0
  4 30  1  0
  8 31  1  0
  8 32  1  0
  9 33  1  0
  9 34  1  0
 10 35  1  0
 10 36  1  0
 11 37  1  0
 11 38  1  0
 12 39  1  0
 12 40  1  0
 13 41  1  1
 14 42  1  0
 15 43  1  0
 15 44  1  0
 16 45  1  0
 16 46  1  0
 18 47  1  0
 19 48  1  0
 21 49  1  0
 24 50  1  0
 25 51  1  0
M  END
>  <smiles>  (96) 
O=C(NCC(=O)N1CCCCCC1C1CC1)c1ccc2cc(F)ccc2n1

>  <score_type>  (96) 
oracle

>  <origin>  (96) 
autodockgpu

>  <m_score__min__energy>  (96) 
-6.04

>  <m_primary>  (96) 
energy

>  <rmsd>  (96) 
3.6856480657793442

>  <m_score__min__rmsd>  (96) 
3.6856480657793442

>  <meeko>  (96) 
{"free_energy": -5.35, "intermolecular_energy": -8.63, "internal_energy": -1.65, "cluster_size": 30, "cluster_id": 2, "rank_in_cluster": 7}

>  <energy>  (96) 
-4.56

>  <cluster_rmsd>  (96) 
0.0

>  <cluster>  (96) 
6

$$$$

     RDKit          3D

 51 54  0  0  0  0  0  0  0  0999 V2000
  140.3440   70.8780  221.6380 O   0  0  0  0  0  0  0  0  0  0  0  0
  140.1240   71.6210  222.6320 C   0  0  0  0  0  0  0  0  0  0  0  0
  139.7490   72.9950  222.4930 N   0  0  0  0  0  0  0  0  0  0  0  0
  139.6250   73.5210  221.1460 C   0  0  0  0  0  0  0  0  0  0  0  0
  140.6140   74.6140  220.9630 C   0  0  0  0  0  0  0  0  0  0  0  0
  140.5560   75.6920  221.6450 O   0  0  0  0  0  0  0  0  0  0  0  0
  141.6600   74.4810  220.0090 N   0  0  0  0  0  0  0  0  0  0  0  0
  141.8330   73.2000  219.3530 C   0  0  0  0  0  0  0  0  0  0  0  0
  142.7080   72.2740  220.1810 C   0  0  0  0  0  0  0  0  0  0  0  0
  144.1170   72.8140  220.3010 C   0  0  0  0  0  0  0  0  0  0  0  0
  144.4100   74.0160  219.4990 C   0  0  0  0  0  0  0  0  0  0  0  0
  143.9100   75.3280  219.9730 C   0  0  0  0  0  0  0  0  0  0  0  0
  142.4860   75.6520  219.7630 C   0  0  1  0  0  0  0  0  0  0  0  0
  142.1390   76.3290  218.4730 C   0  0  0  0  0  0  0  0  0  0  0  0
  142.6030   77.7940  218.3030 C   0  0  0  0  0  0  0  0  0  0  0  0
  143.0990   76.7030  217.4390 C   0  0  0  0  0  0  0  0  0  0  0  0
  140.2580   71.0590  223.9820 C   0  0  0  0  0  0  0  0  0  0  0  0
  140.7400   71.8160  225.0110 C   0  0  0  0  0  0  0  0  0  0  0  0
  140.8940   71.3620  226.2980 C   0  0  0  0  0  0  0  0  0  0  0  0
  140.5390   70.0590  226.5600 C   0  0  0  0  0  0  0  0  0  0  0  0
  140.6850   69.5850  227.8370 C   0  0  0  0  0  0  0  0  0  0  0  0
  140.3240   68.2760  228.0790 C   0  0  0  0  0  0  0  0  0  0  0  0
  140.4450   67.7440  229.3310 F   0  0  0  0  0  0  0  0  0  0  0  0
  139.8340   67.4690  227.0820 C   0  0  0  0  0  0  0  0  0  0  0  0
  139.7060   67.9940  225.8110 C   0  0  0  0  0  0  0  0  0  0  0  0
  140.0550   69.3050  225.5100 C   0  0  0  0  0  0  0  0  0  0  0  0
  139.9150   69.7780  224.2600 N   0  0  0  0  0  0  0  0  0  0  0  0
  139.5770   73.5700  223.3450 H   0  0  0  0  0  0  0  0  0  0  0  0
  139.8206   72.7203  220.4175 H   0  0  0  0  0  0  0  0  0  0  0  0
  138.6077   73.9091  220.9898 H   0  0  0  0  0  0  0  0  0  0  0  0
  140.8473   72.7324  219.2128 H   0  0  0  0  0  0  0  0  0  0  0  0
  142.3232   73.3682  218.3827 H   0  0  0  0  0  0  0  0  0  0  0  0
  142.2746   72.1756  221.1872 H   0  0  0  0  0  0  0  0  0  0  0  0
  142.7515   71.2957  219.6799 H   0  0  0  0  0  0  0  0  0  0  0  0
  144.2958   73.0607  221.3579 H   0  0  0  0  0  0  0  0  0  0  0  0
  144.7757   72.0243  219.9105 H   0  0  0  0  0  0  0  0  0  0  0  0
  145.5045   74.0952  219.4226 H   0  0  0  0  0  0  0  0  0  0  0  0
  143.8663   73.8476  218.5577 H   0  0  0  0  0  0  0  0  0  0  0  0
  144.0986   75.3764  221.0556 H   0  0  0  0  0  0  0  0  0  0  0  0
  144.4489   76.0624  219.3564 H   0  0  0  0  0  0  0  0  0  0  0  0
  142.2617   76.4290  220.5087 H   0  0  0  0  0  0  0  0  0  0  0  0
  141.2096   75.7416  218.4394 H   0  0  0  0  0  0  0  0  0  0  0  0
  141.9149   78.5525  217.9015 H   0  0  0  0  0  0  0  0  0  0  0  0
  143.0567   78.5603  218.9488 H   0  0  0  0  0  0  0  0  0  0  0  0
  142.7948   76.6702  216.3824 H   0  0  0  0  0  0  0  0  0  0  0  0
  144.1050   76.3446  217.1755 H   0  0  0  0  0  0  0  0  0  0  0  0
  141.0233   72.8568  224.7953 H   0  0  0  0  0  0  0  0  0  0  0  0
  141.2868   72.0163  227.0903 H   0  0  0  0  0  0  0  0  0  0  0  0
  141.0763   70.2257  228.6410 H   0  0  0  0  0  0  0  0  0  0  0  0
  139.5496   66.4272  227.2910 H   0  0  0  0  0  0  0  0  0  0  0  0
  139.3139   67.3517  225.0086 H   0  0  0  0  0  0  0  0  0  0  0  0
  1  2  2  0
  2  3  1  0
  3  4  1  0
  4  5  1  0
  5  6  2  0
  5  7  1  0
  7  8  1  0
  8  9  1  0
  9 10  1  0
 10 11  1  0
 11 12  1  0
 12 13  1  0
 13 14  1  0
 14 15  1  0
 15 16  1  0
  2 17  1  0
 17 18  2  0
 18 19  1  0
 19 20  2  0
 20 21  1  0
 21 22  2  0
 22 23  1  0
 22 24  1  0
 24 25  2  0
 25 26  1  0
 26 27  2  0
 13  7  1  0
 16 14  1  0
 27 17  1  0
 26 20  1  0
  3 28  1  0
  4 29  1  0
  4 30  1  0
  8 31  1  0
  8 32  1  0
  9 33  1  0
  9 34  1  0
 10 35  1  0
 10 36  1  0
 11 37  1  0
 11 38  1  0
 12 39  1  0
 12 40  1  0
 13 41  1  1
 14 42  1  0
 15 43  1  0
 15 44  1  0
 16 45  1  0
 16 46  1  0
 18 47  1  0
 19 48  1  0
 21 49  1  0
 24 50  1  0
 25 51  1  0
M  END
>  <smiles>  (97) 
O=C(NCC(=O)N1CCCCCC1C1CC1)c1ccc2cc(F)ccc2n1

>  <score_type>  (97) 
oracle

>  <origin>  (97) 
autodockgpu

>  <m_score__min__energy>  (97) 
-6.04

>  <m_primary>  (97) 
energy

>  <rmsd>  (97) 
3.2560688264161985

>  <m_score__min__rmsd>  (97) 
3.2560688264161985

>  <meeko>  (97) 
{"free_energy": -5.39, "intermolecular_energy": -8.67, "internal_energy": -1.51, "cluster_size": 30, "cluster_id": 2, "rank_in_cluster": 5}

>  <energy>  (97) 
-4.26

>  <cluster_rmsd>  (97) 
1.85

>  <cluster>  (97) 
6

$$$$

     RDKit          3D

 51 54  0  0  0  0  0  0  0  0999 V2000
  139.0580   71.0060  221.4320 O   0  0  0  0  0  0  0  0  0  0  0  0
  139.4090   71.5640  222.5060 C   0  0  0  0  0  0  0  0  0  0  0  0
  139.6340   72.9750  222.5970 N   0  0  0  0  0  0  0  0  0  0  0  0
  139.4420   73.7620  221.3930 C   0  0  0  0  0  0  0  0  0  0  0  0
  140.4990   73.4070  220.4110 C   0  0  0  0  0  0  0  0  0  0  0  0
  140.2120   73.0070  219.2330 O   0  0  0  0  0  0  0  0  0  0  0  0
  141.8720   73.5040  220.7690 N   0  0  0  0  0  0  0  0  0  0  0  0
  142.5760   72.2880  221.1240 C   0  0  0  0  0  0  0  0  0  0  0  0
  143.6760   71.9800  220.1230 C   0  0  0  0  0  0  0  0  0  0  0  0
  144.9630   72.6880  220.4850 C   0  0  0  0  0  0  0  0  0  0  0  0
  144.9020   74.1610  220.4830 C   0  0  0  0  0  0  0  0  0  0  0  0
  143.6990   74.8250  219.9360 C   0  0  0  0  0  0  0  0  0  0  0  0
  142.4690   74.8300  220.7510 C   0  0  1  0  0  0  0  0  0  0  0  0
  141.4680   75.8980  220.4420 C   0  0  0  0  0  0  0  0  0  0  0  0
  141.0470   76.8240  221.6060 C   0  0  0  0  0  0  0  0  0  0  0  0
  141.7530   77.3300  220.4110 C   0  0  0  0  0  0  0  0  0  0  0  0
  139.5960   70.7410  223.7070 C   0  0  0  0  0  0  0  0  0  0  0  0
  139.1930   69.4360  223.7310 C   0  0  0  0  0  0  0  0  0  0  0  0
  139.3330   68.6050  224.8150 C   0  0  0  0  0  0  0  0  0  0  0  0
  139.9150   69.1260  225.9460 C   0  0  0  0  0  0  0  0  0  0  0  0
  140.0650   68.3140  227.0390 C   0  0  0  0  0  0  0  0  0  0  0  0
  140.6510   68.8550  228.1640 C   0  0  0  0  0  0  0  0  0  0  0  0
  140.8290   68.0980  229.2860 F   0  0  0  0  0  0  0  0  0  0  0  0
  141.0750   70.1610  228.1960 C   0  0  0  0  0  0  0  0  0  0  0  0
  140.9020   70.9390  227.0680 C   0  0  0  0  0  0  0  0  0  0  0  0
  140.3170   70.4460  225.9080 C   0  0  0  0  0  0  0  0  0  0  0  0
  140.1670   71.2360  224.8310 N   0  0  0  0  0  0  0  0  0  0  0  0
  139.9230   73.3930  223.5070 H   0  0  0  0  0  0  0  0  0  0  0  0
  138.4523   73.5454  220.9644 H   0  0  0  0  0  0  0  0  0  0  0  0
  139.5033   74.8333  221.6349 H   0  0  0  0  0  0  0  0  0  0  0  0
  143.0224   72.4098  222.1219 H   0  0  0  0  0  0  0  0  0  0  0  0
  141.8576   71.4550  221.1204 H   0  0  0  0  0  0  0  0  0  0  0  0
  143.8554   70.8948  220.1104 H   0  0  0  0  0  0  0  0  0  0  0  0
  143.3526   72.3326  219.1325 H   0  0  0  0  0  0  0  0  0  0  0  0
  145.2559   72.3628  221.4942 H   0  0  0  0  0  0  0  0  0  0  0  0
  145.6866   72.4157  219.7025 H   0  0  0  0  0  0  0  0  0  0  0  0
  145.0057   74.4900  221.5275 H   0  0  0  0  0  0  0  0  0  0  0  0
  145.7059   74.4589  219.7938 H   0  0  0  0  0  0  0  0  0  0  0  0
  143.9660   75.8746  219.7435 H   0  0  0  0  0  0  0  0  0  0  0  0
  143.4361   74.2240  219.0530 H   0  0  0  0  0  0  0  0  0  0  0  0
  142.8025   75.1029  221.7631 H   0  0  0  0  0  0  0  0  0  0  0  0
  141.0053   75.2213  219.7085 H   0  0  0  0  0  0  0  0  0  0  0  0
  139.9862   77.0653  221.7691 H   0  0  0  0  0  0  0  0  0  0  0  0
  141.2116   76.8526  222.6932 H   0  0  0  0  0  0  0  0  0  0  0  0
  141.2156   77.9723  219.6978 H   0  0  0  0  0  0  0  0  0  0  0  0
  142.6731   77.9155  220.2670 H   0  0  0  0  0  0  0  0  0  0  0  0
  138.7264   69.0245  222.8238 H   0  0  0  0  0  0  0  0  0  0  0  0
  138.9917   67.5599  224.7796 H   0  0  0  0  0  0  0  0  0  0  0  0
  139.7296   67.2666  227.0200 H   0  0  0  0  0  0  0  0  0  0  0  0
  141.5422   70.5782  229.1003 H   0  0  0  0  0  0  0  0  0  0  0  0
  141.2392   71.9858  227.0886 H   0  0  0  0  0  0  0  0  0  0  0  0
  1  2  2  0
  2  3  1  0
  3  4  1  0
  4  5  1  0
  5  6  2  0
  5  7  1  0
  7  8  1  0
  8  9  1  0
  9 10  1  0
 10 11  1  0
 11 12  1  0
 12 13  1  0
 13 14  1  0
 14 15  1  0
 15 16  1  0
  2 17  1  0
 17 18  2  0
 18 19  1  0
 19 20  2  0
 20 21  1  0
 21 22  2  0
 22 23  1  0
 22 24  1  0
 24 25  2  0
 25 26  1  0
 26 27  2  0
 13  7  1  0
 16 14  1  0
 27 17  1  0
 26 20  1  0
  3 28  1  0
  4 29  1  0
  4 30  1  0
  8 31  1  0
  8 32  1  0
  9 33  1  0
  9 34  1  0
 10 35  1  0
 10 36  1  0
 11 37  1  0
 11 38  1  0
 12 39  1  0
 12 40  1  0
 13 41  1  1
 14 42  1  0
 15 43  1  0
 15 44  1  0
 16 45  1  0
 16 46  1  0
 18 47  1  0
 19 48  1  0
 21 49  1  0
 24 50  1  0
 25 51  1  0
M  END
>  <smiles>  (98) 
O=C(NCC(=O)N1CCCCCC1C1CC1)c1ccc2cc(F)ccc2n1

>  <score_type>  (98) 
oracle

>  <origin>  (98) 
autodockgpu

>  <m_score__min__energy>  (98) 
-6.04

>  <m_primary>  (98) 
energy

>  <rmsd>  (98) 
2.849627647650113

>  <m_score__min__rmsd>  (98) 
2.849627647650113

>  <meeko>  (98) 
{"free_energy": -5.07, "intermolecular_energy": -8.35, "internal_energy": -1.69, "cluster_size": 30, "cluster_id": 2, "rank_in_cluster": 13}

>  <energy>  (98) 
-4.22

>  <cluster_rmsd>  (98) 
0.0

>  <cluster>  (98) 
7

$$$$

     RDKit          3D

 51 54  0  0  0  0  0  0  0  0999 V2000
  140.1850   74.0840  222.2850 O   0  0  0  0  0  0  0  0  0  0  0  0
  140.1940   72.8600  221.9840 C   0  0  0  0  0  0  0  0  0  0  0  0
  140.2670   72.4060  220.6280 N   0  0  0  0  0  0  0  0  0  0  0  0
  140.3330   73.4150  219.5880 C   0  0  0  0  0  0  0  0  0  0  0  0
  141.6830   74.0350  219.6020 C   0  0  0  0  0  0  0  0  0  0  0  0
  141.8400   75.2980  219.7000 O   0  0  0  0  0  0  0  0  0  0  0  0
  142.8460   73.2220  219.5020 N   0  0  0  0  0  0  0  0  0  0  0  0
  143.2340   72.7370  218.1930 C   0  0  0  0  0  0  0  0  0  0  0  0
  142.4750   71.4720  217.8300 C   0  0  0  0  0  0  0  0  0  0  0  0
  142.7040   70.3810  218.8540 C   0  0  0  0  0  0  0  0  0  0  0  0
  143.8360   70.5980  219.7730 C   0  0  0  0  0  0  0  0  0  0  0  0
  143.6410   71.4790  220.9550 C   0  0  0  0  0  0  0  0  0  0  0  0
  143.5630   72.9360  220.7350 C   0  0  1  0  0  0  0  0  0  0  0  0
  144.8490   73.6960  220.8300 C   0  0  0  0  0  0  0  0  0  0  0  0
  146.0060   73.0220  221.6040 C   0  0  0  0  0  0  0  0  0  0  0  0
  146.0930   73.3250  220.1600 C   0  0  0  0  0  0  0  0  0  0  0  0
  140.1260   71.8640  223.0600 C   0  0  0  0  0  0  0  0  0  0  0  0
  139.5820   70.6300  222.8390 C   0  0  0  0  0  0  0  0  0  0  0  0
  139.4840   69.6480  223.7930 C   0  0  0  0  0  0  0  0  0  0  0  0
  139.9650   69.9300  225.0500 C   0  0  0  0  0  0  0  0  0  0  0  0
  139.8770   68.9640  226.0170 C   0  0  0  0  0  0  0  0  0  0  0  0
  140.3640   69.2660  227.2710 C   0  0  0  0  0  0  0  0  0  0  0  0
  140.3060   68.3460  228.2780 F   0  0  0  0  0  0  0  0  0  0  0  0
  140.9220   70.4910  227.5490 C   0  0  0  0  0  0  0  0  0  0  0  0
  140.9870   71.4310  226.5400 C   0  0  0  0  0  0  0  0  0  0  0  0
  140.5110   71.1800  225.2590 C   0  0  0  0  0  0  0  0  0  0  0  0
  140.5940   72.1230  224.3050 N   0  0  0  0  0  0  0  0  0  0  0  0
  140.2730   71.3840  220.4280 H   0  0  0  0  0  0  0  0  0  0  0  0
  140.1516   72.9480  218.6087 H   0  0  0  0  0  0  0  0  0  0  0  0
  139.5681   74.1849  219.7675 H   0  0  0  0  0  0  0  0  0  0  0  0
  143.0176   73.5130  217.4440 H   0  0  0  0  0  0  0  0  0  0  0  0
  144.3092   72.5056  218.2113 H   0  0  0  0  0  0  0  0  0  0  0  0
  141.3999   71.6999  217.7834 H   0  0  0  0  0  0  0  0  0  0  0  0
  142.8395   71.1157  216.8552 H   0  0  0  0  0  0  0  0  0  0  0  0
  141.7901   70.2873  219.4589 H   0  0  0  0  0  0  0  0  0  0  0  0
  142.9516   69.4761  218.2796 H   0  0  0  0  0  0  0  0  0  0  0  0
  144.1383   69.6107  220.1522 H   0  0  0  0  0  0  0  0  0  0  0  0
  144.5761   71.1343  219.1610 H   0  0  0  0  0  0  0  0  0  0  0  0
  142.7022   71.1718  221.4391 H   0  0  0  0  0  0  0  0  0  0  0  0
  144.5561   71.3424  221.5499 H   0  0  0  0  0  0  0  0  0  0  0  0
  142.9951   73.3195  221.5954 H   0  0  0  0  0  0  0  0  0  0  0  0
  144.2705   74.6315  220.8469 H   0  0  0  0  0  0  0  0  0  0  0  0
  146.5992   73.5975  222.3299 H   0  0  0  0  0  0  0  0  0  0  0  0
  146.1213   72.1268  222.2328 H   0  0  0  0  0  0  0  0  0  0  0  0
  146.7763   74.1145  219.8141 H   0  0  0  0  0  0  0  0  0  0  0  0
  146.3221   72.7177  219.2719 H   0  0  0  0  0  0  0  0  0  0  0  0
  139.1980   70.4096  221.8320 H   0  0  0  0  0  0  0  0  0  0  0  0
  139.0367   68.6704  223.5603 H   0  0  0  0  0  0  0  0  0  0  0  0
  139.4331   67.9811  225.8006 H   0  0  0  0  0  0  0  0  0  0  0  0
  141.3084   70.7175  228.5537 H   0  0  0  0  0  0  0  0  0  0  0  0
  141.4313   72.4134  226.7579 H   0  0  0  0  0  0  0  0  0  0  0  0
  1  2  2  0
  2  3  1  0
  3  4  1  0
  4  5  1  0
  5  6  2  0
  5  7  1  0
  7  8  1  0
  8  9  1  0
  9 10  1  0
 10 11  1  0
 11 12  1  0
 12 13  1  0
 13 14  1  0
 14 15  1  0
 15 16  1  0
  2 17  1  0
 17 18  2  0
 18 19  1  0
 19 20  2  0
 20 21  1  0
 21 22  2  0
 22 23  1  0
 22 24  1  0
 24 25  2  0
 25 26  1  0
 26 27  2  0
 13  7  1  0
 16 14  1  0
 27 17  1  0
 26 20  1  0
  3 28  1  0
  4 29  1  0
  4 30  1  0
  8 31  1  0
  8 32  1  0
  9 33  1  0
  9 34  1  0
 10 35  1  0
 10 36  1  0
 11 37  1  0
 11 38  1  0
 12 39  1  0
 12 40  1  0
 13 41  1  1
 14 42  1  0
 15 43  1  0
 15 44  1  0
 16 45  1  0
 16 46  1  0
 18 47  1  0
 19 48  1  0
 21 49  1  0
 24 50  1  0
 25 51  1  0
M  END
>  <smiles>  (99) 
O=C(NCC(=O)N1CCCCCC1C1CC1)c1ccc2cc(F)ccc2n1

>  <score_type>  (99) 
oracle

>  <origin>  (99) 
autodockgpu

>  <m_score__min__energy>  (99) 
-6.04

>  <m_primary>  (99) 
energy

>  <rmsd>  (99) 
3.554553286627248

>  <m_score__min__rmsd>  (99) 
3.554553286627248

>  <meeko>  (99) 
{"free_energy": -4.01, "intermolecular_energy": -7.29, "internal_energy": -1.88, "cluster_size": 30, "cluster_id": 2, "rank_in_cluster": 30}

>  <energy>  (99) 
-4.17

>  <cluster_rmsd>  (99) 
0.52

>  <cluster>  (99) 
7

$$$$

     RDKit          3D

 51 54  0  0  0  0  0  0  0  0999 V2000
  141.6010   72.4560  221.2320 O   0  0  0  0  0  0  0  0  0  0  0  0
  140.6930   72.7100  222.0690 C   0  0  0  0  0  0  0  0  0  0  0  0
  140.0610   73.9920  222.1480 N   0  0  0  0  0  0  0  0  0  0  0  0
  140.5040   75.0140  221.2170 C   0  0  0  0  0  0  0  0  0  0  0  0
  140.0170   76.3360  221.6850 C   0  0  0  0  0  0  0  0  0  0  0  0
  139.4030   76.4690  222.7970 O   0  0  0  0  0  0  0  0  0  0  0  0
  140.2250   77.4990  220.8930 N   0  0  0  0  0  0  0  0  0  0  0  0
  139.1030   78.0260  220.1400 C   0  0  0  0  0  0  0  0  0  0  0  0
  139.4050   78.0480  218.6520 C   0  0  0  0  0  0  0  0  0  0  0  0
  140.3110   79.2070  218.2930 C   0  0  0  0  0  0  0  0  0  0  0  0
  141.7480   78.9900  218.5370 C   0  0  0  0  0  0  0  0  0  0  0  0
  142.1580   77.9910  219.5520 C   0  0  0  0  0  0  0  0  0  0  0  0
  141.5590   78.0750  220.8990 C   0  0  1  0  0  0  0  0  0  0  0  0
  141.5940   79.4170  221.5620 C   0  0  0  0  0  0  0  0  0  0  0  0
  141.1700   79.4760  223.0470 C   0  0  0  0  0  0  0  0  0  0  0  0
  142.5390   79.8120  222.6030 C   0  0  0  0  0  0  0  0  0  0  0  0
  140.2680   71.6550  222.9970 C   0  0  0  0  0  0  0  0  0  0  0  0
  139.1890   70.8670  222.7150 C   0  0  0  0  0  0  0  0  0  0  0  0
  138.7310   69.8630  223.5320 C   0  0  0  0  0  0  0  0  0  0  0  0
  139.4060   69.6420  224.7090 C   0  0  0  0  0  0  0  0  0  0  0  0
  138.9660   68.6450  225.5390 C   0  0  0  0  0  0  0  0  0  0  0  0
  139.6570   68.4390  226.7150 C   0  0  0  0  0  0  0  0  0  0  0  0
  139.2690   67.4620  227.5850 F   0  0  0  0  0  0  0  0  0  0  0  0
  140.7490   69.2020  227.0500 C   0  0  0  0  0  0  0  0  0  0  0  0
  141.1530   70.1960  226.1800 C   0  0  0  0  0  0  0  0  0  0  0  0
  140.4940   70.4460  224.9820 C   0  0  0  0  0  0  0  0  0  0  0  0
  140.9190   71.4230  224.1620 N   0  0  0  0  0  0  0  0  0  0  0  0
  139.3150   74.1550  222.8560 H   0  0  0  0  0  0  0  0  0  0  0  0
  141.6030   75.0205  221.1716 H   0  0  0  0  0  0  0  0  0  0  0  0
  140.1032   74.8032  220.2145 H   0  0  0  0  0  0  0  0  0  0  0  0
  138.2215   77.3926  220.3183 H   0  0  0  0  0  0  0  0  0  0  0  0
  138.9122   79.0569  220.4730 H   0  0  0  0  0  0  0  0  0  0  0  0
  139.8998   77.1061  218.3726 H   0  0  0  0  0  0  0  0  0  0  0  0
  138.4571   78.1656  218.1064 H   0  0  0  0  0  0  0  0  0  0  0  0
  140.1780   79.4218  217.2224 H   0  0  0  0  0  0  0  0  0  0  0  0
  140.0152   80.0362  218.9525 H   0  0  0  0  0  0  0  0  0  0  0  0
  142.1950   78.6810  217.5806 H   0  0  0  0  0  0  0  0  0  0  0  0
  142.0944   79.9479  218.9523 H   0  0  0  0  0  0  0  0  0  0  0  0
  141.9135   76.9974  219.1483 H   0  0  0  0  0  0  0  0  0  0  0  0
  143.2264   78.1945  219.7169 H   0  0  0  0  0  0  0  0  0  0  0  0
  142.2213   77.4750  221.5404 H   0  0  0  0  0  0  0  0  0  0  0  0
  141.3210   79.8761  220.6004 H   0  0  0  0  0  0  0  0  0  0  0  0
  140.4904   80.2654  223.4005 H   0  0  0  0  0  0  0  0  0  0  0  0
  140.7217   78.7785  223.7699 H   0  0  0  0  0  0  0  0  0  0  0  0
  142.8822   80.8559  222.6531 H   0  0  0  0  0  0  0  0  0  0  0  0
  143.5380   79.4547  222.8935 H   0  0  0  0  0  0  0  0  0  0  0  0
  138.6520   71.0483  221.7723 H   0  0  0  0  0  0  0  0  0  0  0  0
  137.8556   69.2574  223.2547 H   0  0  0  0  0  0  0  0  0  0  0  0
  138.0923   68.0302  225.2769 H   0  0  0  0  0  0  0  0  0  0  0  0
  141.2903   69.0252  227.9911 H   0  0  0  0  0  0  0  0  0  0  0  0
  142.0261   70.8107  226.4443 H   0  0  0  0  0  0  0  0  0  0  0  0
  1  2  2  0
  2  3  1  0
  3  4  1  0
  4  5  1  0
  5  6  2  0
  5  7  1  0
  7  8  1  0
  8  9  1  0
  9 10  1  0
 10 11  1  0
 11 12  1  0
 12 13  1  0
 13 14  1  0
 14 15  1  0
 15 16  1  0
  2 17  1  0
 17 18  2  0
 18 19  1  0
 19 20  2  0
 20 21  1  0
 21 22  2  0
 22 23  1  0
 22 24  1  0
 24 25  2  0
 25 26  1  0
 26 27  2  0
 13  7  1  0
 16 14  1  0
 27 17  1  0
 26 20  1  0
  3 28  1  0
  4 29  1  0
  4 30  1  0
  8 31  1  0
  8 32  1  0
  9 33  1  0
  9 34  1  0
 10 35  1  0
 10 36  1  0
 11 37  1  0
 11 38  1  0
 12 39  1  0
 12 40  1  0
 13 41  1  1
 14 42  1  0
 15 43  1  0
 15 44  1  0
 16 45  1  0
 16 46  1  0
 18 47  1  0
 19 48  1  0
 21 49  1  0
 24 50  1  0
 25 51  1  0
M  END
>  <smiles>  (100) 
O=C(NCC(=O)N1CCCCCC1C1CC1)c1ccc2cc(F)ccc2n1

>  <score_type>  (100) 
oracle

>  <origin>  (100) 
autodockgpu

>  <m_score__min__energy>  (100) 
-6.04

>  <m_primary>  (100) 
energy

>  <rmsd>  (100) 
2.3868401205086527

>  <m_score__min__rmsd>  (100) 
2.3868401205086527

>  <meeko>  (100) 
{"free_energy": -4.5, "intermolecular_energy": -7.78, "internal_energy": -1.66, "cluster_size": 10, "cluster_id": 3, "rank_in_cluster": 10}

>  <energy>  (100) 
-4.15

>  <cluster_rmsd>  (100) 
0.0

>  <cluster>  (100) 
8

$$$$
