
     RDKit          3D

 47 50  0  0  0  0  0  0  0  0999 V2000
  141.7000   78.7780  218.6570 O   0  0  0  0  0  0  0  0  0  0  0  0
  142.1950   78.0210  219.5310 C   0  0  0  0  0  0  0  0  0  0  0  0
  142.1960   78.3860  220.9050 N   0  0  0  0  0  0  0  0  0  0  0  0
  141.6110   79.6580  221.2880 C   0  0  0  0  0  0  0  0  0  0  0  0
  140.3360   79.3850  222.0020 C   0  0  0  0  0  0  0  0  0  0  0  0
  139.8890   80.1420  222.9170 O   0  0  0  0  0  0  0  0  0  0  0  0
  139.5880   78.2280  221.6410 N   0  0  0  0  0  0  0  0  0  0  0  0
  139.1030   78.0030  220.2830 C   0  0  0  0  0  0  0  0  0  0  0  0
  137.8260   77.1890  220.2750 C   0  0  0  0  0  0  0  0  0  0  0  0
  137.0540   77.5710  221.5370 C   0  0  0  0  0  0  0  0  0  0  0  0
  137.7760   77.0690  222.7690 C   0  0  0  0  0  0  0  0  0  0  0  0
  139.2760   77.2070  222.6300 C   0  0  1  0  0  0  0  0  0  0  0  0
  139.8890   75.9120  222.2680 C   0  0  0  0  0  0  0  0  0  0  0  0
  139.3060   74.6830  222.3420 N   0  0  0  0  0  0  0  0  0  0  0  0
  140.1730   73.7720  221.9300 N   0  0  0  0  0  0  0  0  0  0  0  0
  141.3110   74.4000  221.5900 C   0  0  0  0  0  0  0  0  0  0  0  0
  141.1320   75.7160  221.7990 N   0  0  0  0  0  0  0  0  0  0  0  0
  142.7960   76.7260  219.1830 C   0  0  0  0  0  0  0  0  0  0  0  0
  142.7180   76.2540  217.8810 C   0  0  0  0  0  0  0  0  0  0  0  0
  143.2910   75.0360  217.5850 C   0  0  0  0  0  0  0  0  0  0  0  0
  143.9330   74.2870  218.5430 C   0  0  0  0  0  0  0  0  0  0  0  0
  144.5200   73.0670  218.3000 C   0  0  0  0  0  0  0  0  0  0  0  0
  145.1580   72.3490  219.3120 C   0  0  0  0  0  0  0  0  0  0  0  0
  145.9040   70.8080  219.0180 Cl  0  0  0  0  0  0  0  0  0  0  0  0
  145.2080   72.8690  220.6020 C   0  0  0  0  0  0  0  0  0  0  0  0
  144.6110   74.0940  220.8170 C   0  0  0  0  0  0  0  0  0  0  0  0
  143.9880   74.7870  219.8150 C   0  0  0  0  0  0  0  0  0  0  0  0
  143.4330   75.9580  220.0850 N   0  0  0  0  0  0  0  0  0  0  0  0
  142.5910   77.7930  221.6440 H   0  0  0  0  0  0  0  0  0  0  0  0
  142.3007   80.2007  221.9512 H   0  0  0  0  0  0  0  0  0  0  0  0
  141.4235   80.2745  220.3965 H   0  0  0  0  0  0  0  0  0  0  0  0
  138.9093   78.9757  219.8073 H   0  0  0  0  0  0  0  0  0  0  0  0
  139.8720   77.4423  219.7314 H   0  0  0  0  0  0  0  0  0  0  0  0
  137.2312   77.4257  219.3805 H   0  0  0  0  0  0  0  0  0  0  0  0
  138.0440   76.1110  220.2556 H   0  0  0  0  0  0  0  0  0  0  0  0
  136.9650   78.6661  221.5900 H   0  0  0  0  0  0  0  0  0  0  0  0
  136.0550   77.1123  221.4969 H   0  0  0  0  0  0  0  0  0  0  0  0
  137.4430   77.6520  223.6403 H   0  0  0  0  0  0  0  0  0  0  0  0
  137.5388   76.0024  222.8962 H   0  0  0  0  0  0  0  0  0  0  0  0
  139.6973   77.5162  223.5980 H   0  0  0  0  0  0  0  0  0  0  0  0
  142.2258   73.9227  221.2087 H   0  0  0  0  0  0  0  0  0  0  0  0
  141.8860   76.4120  221.6050 H   0  0  0  0  0  0  0  0  0  0  0  0
  142.2094   76.8396  217.1010 H   0  0  0  0  0  0  0  0  0  0  0  0
  143.2333   74.6530  216.5555 H   0  0  0  0  0  0  0  0  0  0  0  0
  144.4856   72.6475  217.2837 H   0  0  0  0  0  0  0  0  0  0  0  0
  145.7044   72.3243  221.4186 H   0  0  0  0  0  0  0  0  0  0  0  0
  144.6366   74.5280  221.8274 H   0  0  0  0  0  0  0  0  0  0  0  0
  1  2  2  0
  2  3  1  0
  3  4  1  0
  4  5  1  0
  5  6  2  0
  5  7  1  0
  7  8  1  0
  8  9  1  0
  9 10  1  0
 10 11  1  0
 11 12  1  0
 12 13  1  0
 13 14  2  0
 14 15  1  0
 15 16  2  0
 16 17  1  0
  2 18  1  0
 18 19  2  0
 19 20  1  0
 20 21  2  0
 21 22  1  0
 22 23  2  0
 23 24  1  0
 23 25  1  0
 25 26  2  0
 26 27  1  0
 27 28  2  0
 12  7  1  0
 17 13  1  0
 28 18  1  0
 27 21  1  0
  3 29  1  0
  4 30  1  0
  4 31  1  0
  8 32  1  0
  8 33  1  0
  9 34  1  0
  9 35  1  0
 10 36  1  0
 10 37  1  0
 11 38  1  0
 11 39  1  0
 12 40  1  1
 16 41  1  0
 17 42  1  0
 19 43  1  0
 20 44  1  0
 22 45  1  0
 25 46  1  0
 26 47  1  0
M  END
>  <smiles>  (1) 
O=C(NCC(=O)N1CCCC[C@H]1c1nnc[nH]1)c1ccc2cc(Cl)ccc2n1

>  <score_type>  (1) 
oracle

>  <origin>  (1) 
autodockgpu

>  <m_score__min__energy>  (1) 
-8.5800000000000001

>  <m_primary>  (1) 
energy

>  <rmsd>  (1) 
7.156900747641254

>  <m_score__min__rmsd>  (1) 
7.156900747641254

>  <meeko>  (1) 
{"free_energy": -6.61, "intermolecular_energy": -8.1, "internal_energy": -3.02, "cluster_size": 3, "cluster_id": 6, "rank_in_cluster": 1}

>  <energy>  (1) 
-8.58

>  <cluster_rmsd>  (1) 
0.0

>  <cluster>  (1) 
1

$$$$

     RDKit          3D

 47 50  0  0  0  0  0  0  0  0999 V2000
  140.1670   72.5630  220.7750 O   0  0  0  0  0  0  0  0  0  0  0  0
  139.9190   72.8640  221.9710 C   0  0  0  0  0  0  0  0  0  0  0  0
  139.5910   74.1970  222.3410 N   0  0  0  0  0  0  0  0  0  0  0  0
  139.5440   75.2150  221.3070 C   0  0  0  0  0  0  0  0  0  0  0  0
  139.0830   76.4850  221.9280 C   0  0  0  0  0  0  0  0  0  0  0  0
  138.1580   76.5260  222.7940 O   0  0  0  0  0  0  0  0  0  0  0  0
  139.7100   77.7020  221.5320 N   0  0  0  0  0  0  0  0  0  0  0  0
  138.9470   78.8760  221.1210 C   0  0  0  0  0  0  0  0  0  0  0  0
  139.7150   79.7180  220.1230 C   0  0  0  0  0  0  0  0  0  0  0  0
  140.5470   78.7510  219.2820 C   0  0  0  0  0  0  0  0  0  0  0  0
  141.6420   78.1290  220.1230 C   0  0  0  0  0  0  0  0  0  0  0  0
  141.1600   77.8210  221.5240 C   0  0  1  0  0  0  0  0  0  0  0  0
  141.6130   78.8600  222.4720 C   0  0  0  0  0  0  0  0  0  0  0  0
  141.0620   79.1610  223.6810 N   0  0  0  0  0  0  0  0  0  0  0  0
  141.7500   80.1470  224.2320 N   0  0  0  0  0  0  0  0  0  0  0  0
  142.7420   80.4870  223.3920 C   0  0  0  0  0  0  0  0  0  0  0  0
  142.6540   79.6930  222.3110 N   0  0  0  0  0  0  0  0  0  0  0  0
  139.9550   71.8620  223.0440 C   0  0  0  0  0  0  0  0  0  0  0  0
  139.5200   70.5680  222.7990 C   0  0  0  0  0  0  0  0  0  0  0  0
  139.5660   69.6500  223.8260 C   0  0  0  0  0  0  0  0  0  0  0  0
  140.0300   69.9860  225.0770 C   0  0  0  0  0  0  0  0  0  0  0  0
  140.0970   69.1090  226.1340 C   0  0  0  0  0  0  0  0  0  0  0  0
  140.5770   69.5060  227.3830 C   0  0  0  0  0  0  0  0  0  0  0  0
  140.6660   68.4080  228.7260 Cl  0  0  0  0  0  0  0  0  0  0  0  0
  141.0010   70.8170  227.5750 C   0  0  0  0  0  0  0  0  0  0  0  0
  140.9230   71.6750  226.4970 C   0  0  0  0  0  0  0  0  0  0  0  0
  140.4500   71.2720  225.2780 C   0  0  0  0  0  0  0  0  0  0  0  0
  140.4000   72.1440  224.2830 N   0  0  0  0  0  0  0  0  0  0  0  0
  139.3830   74.4780  223.3060 H   0  0  0  0  0  0  0  0  0  0  0  0
  140.5460   75.3537  220.8749 H   0  0  0  0  0  0  0  0  0  0  0  0
  138.8550   74.9114  220.5051 H   0  0  0  0  0  0  0  0  0  0  0  0
  138.0047   78.5459  220.6594 H   0  0  0  0  0  0  0  0  0  0  0  0
  138.7531   79.4902  222.0127 H   0  0  0  0  0  0  0  0  0  0  0  0
  139.0173   80.2754  219.4808 H   0  0  0  0  0  0  0  0  0  0  0  0
  140.3564   80.4510  220.6341 H   0  0  0  0  0  0  0  0  0  0  0  0
  139.8944   77.9564  218.8912 H   0  0  0  0  0  0  0  0  0  0  0  0
  141.0066   79.3053  218.4504 H   0  0  0  0  0  0  0  0  0  0  0  0
  141.9721   77.1947  219.6454 H   0  0  0  0  0  0  0  0  0  0  0  0
  142.4718   78.8476  220.1944 H   0  0  0  0  0  0  0  0  0  0  0  0
  141.5917   76.8625  221.8479 H   0  0  0  0  0  0  0  0  0  0  0  0
  143.4919   81.2742  223.5590 H   0  0  0  0  0  0  0  0  0  0  0  0
  143.3250   79.7710  221.5140 H   0  0  0  0  0  0  0  0  0  0  0  0
  139.1460   70.2803  221.8054 H   0  0  0  0  0  0  0  0  0  0  0  0
  139.2227   68.6215  223.6407 H   0  0  0  0  0  0  0  0  0  0  0  0
  139.7645   68.0701  225.9918 H   0  0  0  0  0  0  0  0  0  0  0  0
  141.3838   71.1566  228.5487 H   0  0  0  0  0  0  0  0  0  0  0  0
  141.2519   72.7172  226.6218 H   0  0  0  0  0  0  0  0  0  0  0  0
  1  2  2  0
  2  3  1  0
  3  4  1  0
  4  5  1  0
  5  6  2  0
  5  7  1  0
  7  8  1  0
  8  9  1  0
  9 10  1  0
 10 11  1  0
 11 12  1  0
 12 13  1  0
 13 14  2  0
 14 15  1  0
 15 16  2  0
 16 17  1  0
  2 18  1  0
 18 19  2  0
 19 20  1  0
 20 21  2  0
 21 22  1  0
 22 23  2  0
 23 24  1  0
 23 25  1  0
 25 26  2  0
 26 27  1  0
 27 28  2  0
 12  7  1  0
 17 13  1  0
 28 18  1  0
 27 21  1  0
  3 29  1  0
  4 30  1  0
  4 31  1  0
  8 32  1  0
  8 33  1  0
  9 34  1  0
  9 35  1  0
 10 36  1  0
 10 37  1  0
 11 38  1  0
 11 39  1  0
 12 40  1  1
 16 41  1  0
 17 42  1  0
 19 43  1  0
 20 44  1  0
 22 45  1  0
 25 46  1  0
 26 47  1  0
M  END
>  <smiles>  (2) 
O=C(NCC(=O)N1CCCC[C@H]1c1nnc[nH]1)c1ccc2cc(Cl)ccc2n1

>  <score_type>  (2) 
oracle

>  <origin>  (2) 
autodockgpu

>  <m_score__min__energy>  (2) 
-8.5800000000000001

>  <m_primary>  (2) 
energy

>  <rmsd>  (2) 
2.5822634440569012

>  <m_score__min__rmsd>  (2) 
2.5822634440569012

>  <meeko>  (2) 
{"free_energy": -8.36, "intermolecular_energy": -9.85, "internal_energy": -1.71, "cluster_size": 29, "cluster_id": 1, "rank_in_cluster": 14}

>  <energy>  (2) 
-8.58

>  <cluster_rmsd>  (2) 
0.2

>  <cluster>  (2) 
1

$$$$

     RDKit          3D

 47 50  0  0  0  0  0  0  0  0999 V2000
  137.8860   75.2610  222.5580 O   0  0  0  0  0  0  0  0  0  0  0  0
  139.0280   75.6640  222.2190 C   0  0  0  0  0  0  0  0  0  0  0  0
  139.3660   77.0440  222.2680 N   0  0  0  0  0  0  0  0  0  0  0  0
  138.3630   77.9910  222.7210 C   0  0  0  0  0  0  0  0  0  0  0  0
  139.0650   79.1790  223.2750 C   0  0  0  0  0  0  0  0  0  0  0  0
  138.5250   79.9610  224.1160 O   0  0  0  0  0  0  0  0  0  0  0  0
  140.3960   79.4450  222.8430 N   0  0  0  0  0  0  0  0  0  0  0  0
  141.5640   78.9330  223.5510 C   0  0  0  0  0  0  0  0  0  0  0  0
  142.7570   79.8530  223.3950 C   0  0  0  0  0  0  0  0  0  0  0  0
  142.2070   81.2760  223.3210 C   0  0  0  0  0  0  0  0  0  0  0  0
  141.4430   81.4800  222.0310 C   0  0  0  0  0  0  0  0  0  0  0  0
  140.6430   80.2510  221.6580 C   0  0  1  0  0  0  0  0  0  0  0  0
  141.3440   79.4670  220.6180 C   0  0  0  0  0  0  0  0  0  0  0  0
  141.6530   78.1410  220.6640 N   0  0  0  0  0  0  0  0  0  0  0  0
  142.2780   77.8090  219.5460 N   0  0  0  0  0  0  0  0  0  0  0  0
  142.3750   78.9060  218.7770 C   0  0  0  0  0  0  0  0  0  0  0  0
  141.7990   79.9240  219.4410 N   0  0  0  0  0  0  0  0  0  0  0  0
  140.0690   74.7360  221.7550 C   0  0  0  0  0  0  0  0  0  0  0  0
  139.8430   73.3680  221.7920 C   0  0  0  0  0  0  0  0  0  0  0  0
  140.8390   72.5230  221.3510 C   0  0  0  0  0  0  0  0  0  0  0  0
  142.0390   73.0030  220.8790 C   0  0  0  0  0  0  0  0  0  0  0  0
  143.0630   72.2030  220.4280 C   0  0  0  0  0  0  0  0  0  0  0  0
  144.2610   72.7460  219.9600 C   0  0  0  0  0  0  0  0  0  0  0  0
  145.5620   71.7480  219.3880 Cl  0  0  0  0  0  0  0  0  0  0  0  0
  144.4350   74.1270  219.9450 C   0  0  0  0  0  0  0  0  0  0  0  0
  143.3910   74.9040  220.4030 C   0  0  0  0  0  0  0  0  0  0  0  0
  142.2220   74.3580  220.8590 C   0  0  0  0  0  0  0  0  0  0  0  0
  141.2570   75.1580  221.2860 N   0  0  0  0  0  0  0  0  0  0  0  0
  140.2880   77.4060  221.9990 H   0  0  0  0  0  0  0  0  0  0  0  0
  137.7278   78.2941  221.8756 H   0  0  0  0  0  0  0  0  0  0  0  0
  137.7260   77.5317  223.4912 H   0  0  0  0  0  0  0  0  0  0  0  0
  141.3216   78.8407  224.6200 H   0  0  0  0  0  0  0  0  0  0  0  0
  141.8253   77.9544  223.1219 H   0  0  0  0  0  0  0  0  0  0  0  0
  143.4299   79.7511  224.2592 H   0  0  0  0  0  0  0  0  0  0  0  0
  143.3333   79.6040  222.4917 H   0  0  0  0  0  0  0  0  0  0  0  0
  141.5327   81.4487  224.1728 H   0  0  0  0  0  0  0  0  0  0  0  0
  143.0471   81.9853  223.3540 H   0  0  0  0  0  0  0  0  0  0  0  0
  140.7555   82.3299  222.1537 H   0  0  0  0  0  0  0  0  0  0  0  0
  142.1690   81.6752  221.2280 H   0  0  0  0  0  0  0  0  0  0  0  0
  139.6752   80.5672  221.2417 H   0  0  0  0  0  0  0  0  0  0  0  0
  142.8418   78.9618  217.7825 H   0  0  0  0  0  0  0  0  0  0  0  0
  141.7520   80.8870  219.0390 H   0  0  0  0  0  0  0  0  0  0  0  0
  138.8895   72.9660  222.1652 H   0  0  0  0  0  0  0  0  0  0  0  0
  140.6699   71.4364  221.3771 H   0  0  0  0  0  0  0  0  0  0  0  0
  142.9351   71.1105  220.4362 H   0  0  0  0  0  0  0  0  0  0  0  0
  145.3688   74.5812  219.5820 H   0  0  0  0  0  0  0  0  0  0  0  0
  143.5020   75.9984  220.4016 H   0  0  0  0  0  0  0  0  0  0  0  0
  1  2  2  0
  2  3  1  0
  3  4  1  0
  4  5  1  0
  5  6  2  0
  5  7  1  0
  7  8  1  0
  8  9  1  0
  9 10  1  0
 10 11  1  0
 11 12  1  0
 12 13  1  0
 13 14  2  0
 14 15  1  0
 15 16  2  0
 16 17  1  0
  2 18  1  0
 18 19  2  0
 19 20  1  0
 20 21  2  0
 21 22  1  0
 22 23  2  0
 23 24  1  0
 23 25  1  0
 25 26  2  0
 26 27  1  0
 27 28  2  0
 12  7  1  0
 17 13  1  0
 28 18  1  0
 27 21  1  0
  3 29  1  0
  4 30  1  0
  4 31  1  0
  8 32  1  0
  8 33  1  0
  9 34  1  0
  9 35  1  0
 10 36  1  0
 10 37  1  0
 11 38  1  0
 11 39  1  0
 12 40  1  6
 16 41  1  0
 17 42  1  0
 19 43  1  0
 20 44  1  0
 22 45  1  0
 25 46  1  0
 26 47  1  0
M  END
>  <smiles>  (3) 
O=C(NCC(=O)N1CCCC[C@H]1c1nnc[nH]1)c1ccc2cc(Cl)ccc2n1

>  <score_type>  (3) 
oracle

>  <origin>  (3) 
autodockgpu

>  <m_score__min__energy>  (3) 
-8.5800000000000001

>  <m_primary>  (3) 
energy

>  <rmsd>  (3) 
6.1799106310992915

>  <m_score__min__rmsd>  (3) 
6.1799106310992915

>  <meeko>  (3) 
{"free_energy": -6.4, "intermolecular_energy": -7.9, "internal_energy": -2.89, "cluster_size": 2, "cluster_id": 8, "rank_in_cluster": 2}

>  <energy>  (3) 
-8.57

>  <cluster_rmsd>  (3) 
0.21

>  <cluster>  (3) 
1

$$$$

     RDKit          3D

 47 50  0  0  0  0  0  0  0  0999 V2000
  141.1530   72.9740  221.2480 O   0  0  0  0  0  0  0  0  0  0  0  0
  140.2990   73.0130  222.1710 C   0  0  0  0  0  0  0  0  0  0  0  0
  139.3690   74.0830  222.2680 N   0  0  0  0  0  0  0  0  0  0  0  0
  139.4180   75.1410  221.2750 C   0  0  0  0  0  0  0  0  0  0  0  0
  139.1700   76.4350  221.9630 C   0  0  0  0  0  0  0  0  0  0  0  0
  138.3910   76.5420  222.9590 O   0  0  0  0  0  0  0  0  0  0  0  0
  139.8360   77.5990  221.4820 N   0  0  0  0  0  0  0  0  0  0  0  0
  139.1210   78.7080  220.8590 C   0  0  0  0  0  0  0  0  0  0  0  0
  139.9840   79.4270  219.8430 C   0  0  0  0  0  0  0  0  0  0  0  0
  140.8890   78.3710  219.2110 C   0  0  0  0  0  0  0  0  0  0  0  0
  141.8950   77.8660  220.2220 C   0  0  0  0  0  0  0  0  0  0  0  0
  141.2800   77.7280  221.5980 C   0  0  1  0  0  0  0  0  0  0  0  0
  141.6440   78.8790  222.4510 C   0  0  0  0  0  0  0  0  0  0  0  0
  140.8250   79.5610  223.2990 N   0  0  0  0  0  0  0  0  0  0  0  0
  141.5180   80.5230  223.8840 N   0  0  0  0  0  0  0  0  0  0  0  0
  142.7790   80.4700  223.4240 C   0  0  0  0  0  0  0  0  0  0  0  0
  142.8520   79.4580  222.5430 N   0  0  0  0  0  0  0  0  0  0  0  0
  140.2180   71.9620  223.1940 C   0  0  0  0  0  0  0  0  0  0  0  0
  139.6440   70.7370  222.8850 C   0  0  0  0  0  0  0  0  0  0  0  0
  139.5820   69.7710  223.8660 C   0  0  0  0  0  0  0  0  0  0  0  0
  140.0740   69.9930  225.1320 C   0  0  0  0  0  0  0  0  0  0  0  0
  140.0370   69.0630  226.1450 C   0  0  0  0  0  0  0  0  0  0  0  0
  140.5510   69.3430  227.4120 C   0  0  0  0  0  0  0  0  0  0  0  0
  140.5110   68.1780  228.6990 Cl  0  0  0  0  0  0  0  0  0  0  0  0
  141.1180   70.5880  227.6680 C   0  0  0  0  0  0  0  0  0  0  0  0
  141.1420   71.5000  226.6330 C   0  0  0  0  0  0  0  0  0  0  0  0
  140.6320   71.2120  225.3960 C   0  0  0  0  0  0  0  0  0  0  0  0
  140.6850   72.1320  224.4450 N   0  0  0  0  0  0  0  0  0  0  0  0
  138.6600   74.1470  223.0080 H   0  0  0  0  0  0  0  0  0  0  0  0
  140.4084   75.1573  220.7967 H   0  0  0  0  0  0  0  0  0  0  0  0
  138.6563   74.9705  220.4999 H   0  0  0  0  0  0  0  0  0  0  0  0
  138.2257   78.3167  220.3538 H   0  0  0  0  0  0  0  0  0  0  0  0
  138.8458   79.4255  221.6460 H   0  0  0  0  0  0  0  0  0  0  0  0
  139.3531   79.8955  219.0733 H   0  0  0  0  0  0  0  0  0  0  0  0
  140.5762   80.2225  220.3188 H   0  0  0  0  0  0  0  0  0  0  0  0
  140.2738   77.5293  218.8601 H   0  0  0  0  0  0  0  0  0  0  0  0
  141.4285   78.8228  218.3655 H   0  0  0  0  0  0  0  0  0  0  0  0
  142.2658   76.8829  219.8964 H   0  0  0  0  0  0  0  0  0  0  0  0
  142.7167   78.5947  220.2836 H   0  0  0  0  0  0  0  0  0  0  0  0
  141.6755   76.8200  222.0767 H   0  0  0  0  0  0  0  0  0  0  0  0
  143.6043   81.1360  223.7163 H   0  0  0  0  0  0  0  0  0  0  0  0
  143.7420   79.2210  222.0490 H   0  0  0  0  0  0  0  0  0  0  0  0
  139.2468   70.5411  221.8781 H   0  0  0  0  0  0  0  0  0  0  0  0
  139.1275   68.7973  223.6310 H   0  0  0  0  0  0  0  0  0  0  0  0
  139.5920   68.0757  225.9519 H   0  0  0  0  0  0  0  0  0  0  0  0
  141.5310   70.8353  228.6571 H   0  0  0  0  0  0  0  0  0  0  0  0
  141.5857   72.4913  226.8078 H   0  0  0  0  0  0  0  0  0  0  0  0
  1  2  2  0
  2  3  1  0
  3  4  1  0
  4  5  1  0
  5  6  2  0
  5  7  1  0
  7  8  1  0
  8  9  1  0
  9 10  1  0
 10 11  1  0
 11 12  1  0
 12 13  1  0
 13 14  2  0
 14 15  1  0
 15 16  2  0
 16 17  1  0
  2 18  1  0
 18 19  2  0
 19 20  1  0
 20 21  2  0
 21 22  1  0
 22 23  2  0
 23 24  1  0
 23 25  1  0
 25 26  2  0
 26 27  1  0
 27 28  2  0
 12  7  1  0
 17 13  1  0
 28 18  1  0
 27 21  1  0
  3 29  1  0
  4 30  1  0
  4 31  1  0
  8 32  1  0
  8 33  1  0
  9 34  1  0
  9 35  1  0
 10 36  1  0
 10 37  1  0
 11 38  1  0
 11 39  1  0
 12 40  1  1
 16 41  1  0
 17 42  1  0
 19 43  1  0
 20 44  1  0
 22 45  1  0
 25 46  1  0
 26 47  1  0
M  END
>  <smiles>  (4) 
O=C(NCC(=O)N1CCCC[C@H]1c1nnc[nH]1)c1ccc2cc(Cl)ccc2n1

>  <score_type>  (4) 
oracle

>  <origin>  (4) 
autodockgpu

>  <m_score__min__energy>  (4) 
-8.5800000000000001

>  <m_primary>  (4) 
energy

>  <rmsd>  (4) 
2.5159808992464505

>  <m_score__min__rmsd>  (4) 
2.5159808992464505

>  <meeko>  (4) 
{"free_energy": -8.52, "intermolecular_energy": -10.02, "internal_energy": -1.64, "cluster_size": 29, "cluster_id": 1, "rank_in_cluster": 7}

>  <energy>  (4) 
-8.57

>  <cluster_rmsd>  (4) 
0.24

>  <cluster>  (4) 
1

$$$$

     RDKit          3D

 47 50  0  0  0  0  0  0  0  0999 V2000
  140.3530   72.8230  220.8930 O   0  0  0  0  0  0  0  0  0  0  0  0
  139.6990   72.9030  221.9640 C   0  0  0  0  0  0  0  0  0  0  0  0
  138.8050   73.9820  222.2020 N   0  0  0  0  0  0  0  0  0  0  0  0
  138.6550   75.0000  221.1780 C   0  0  0  0  0  0  0  0  0  0  0  0
  138.9270   76.3240  221.7980 C   0  0  0  0  0  0  0  0  0  0  0  0
  138.0730   76.9340  222.5110 O   0  0  0  0  0  0  0  0  0  0  0  0
  140.1990   76.9270  221.5810 N   0  0  0  0  0  0  0  0  0  0  0  0
  140.9800   77.5150  222.6650 C   0  0  0  0  0  0  0  0  0  0  0  0
  141.8500   78.6520  222.1710 C   0  0  0  0  0  0  0  0  0  0  0  0
  141.0820   79.3340  221.0400 C   0  0  0  0  0  0  0  0  0  0  0  0
  140.9930   78.4200  219.8370 C   0  0  0  0  0  0  0  0  0  0  0  0
  140.7780   76.9790  220.2480 C   0  0  1  0  0  0  0  0  0  0  0  0
  142.0480   76.2250  220.1900 C   0  0  0  0  0  0  0  0  0  0  0  0
  143.2310   76.6530  219.6670 N   0  0  0  0  0  0  0  0  0  0  0  0
  144.1310   75.6940  219.8030 N   0  0  0  0  0  0  0  0  0  0  0  0
  143.5440   74.6500  220.4100 C   0  0  0  0  0  0  0  0  0  0  0  0
  142.2630   74.9810  220.6470 N   0  0  0  0  0  0  0  0  0  0  0  0
  139.8230   71.8920  223.0230 C   0  0  0  0  0  0  0  0  0  0  0  0
  139.4370   70.5820  222.7790 C   0  0  0  0  0  0  0  0  0  0  0  0
  139.5650   69.6570  223.7920 C   0  0  0  0  0  0  0  0  0  0  0  0
  140.0640   70.0000  225.0280 C   0  0  0  0  0  0  0  0  0  0  0  0
  140.2120   69.1160  226.0700 C   0  0  0  0  0  0  0  0  0  0  0  0
  140.7240   69.5210  227.3040 C   0  0  0  0  0  0  0  0  0  0  0  0
  140.9160   68.4140  228.6290 Cl  0  0  0  0  0  0  0  0  0  0  0  0
  141.0970   70.8470  227.4950 C   0  0  0  0  0  0  0  0  0  0  0  0
  140.9380   71.7120  226.4310 C   0  0  0  0  0  0  0  0  0  0  0  0
  140.4340   71.3010  225.2280 C   0  0  0  0  0  0  0  0  0  0  0  0
  140.3050   72.1800  224.2460 N   0  0  0  0  0  0  0  0  0  0  0  0
  138.2560   74.0780  223.0640 H   0  0  0  0  0  0  0  0  0  0  0  0
  139.3700   74.8164  220.3625 H   0  0  0  0  0  0  0  0  0  0  0  0
  137.6364   74.9758  220.7635 H   0  0  0  0  0  0  0  0  0  0  0  0
  140.2924   77.8991  223.4330 H   0  0  0  0  0  0  0  0  0  0  0  0
  141.6354   76.7350  223.0798 H   0  0  0  0  0  0  0  0  0  0  0  0
  142.0385   79.3665  222.9858 H   0  0  0  0  0  0  0  0  0  0  0  0
  142.8241   78.2807  221.8198 H   0  0  0  0  0  0  0  0  0  0  0  0
  140.0667   79.5772  221.3864 H   0  0  0  0  0  0  0  0  0  0  0  0
  141.6130   80.2531  220.7514 H   0  0  0  0  0  0  0  0  0  0  0  0
  140.1510   78.7409  219.2061 H   0  0  0  0  0  0  0  0  0  0  0  0
  141.9427   78.4829  219.2855 H   0  0  0  0  0  0  0  0  0  0  0  0
  140.0770   76.5071  219.5438 H   0  0  0  0  0  0  0  0  0  0  0  0
  144.0253   73.6949  220.6673 H   0  0  0  0  0  0  0  0  0  0  0  0
  141.6010   74.3220  221.1150 H   0  0  0  0  0  0  0  0  0  0  0  0
  139.0371   70.2880  221.7973 H   0  0  0  0  0  0  0  0  0  0  0  0
  139.2602   68.6162  223.6080 H   0  0  0  0  0  0  0  0  0  0  0  0
  139.9202   68.0649  225.9283 H   0  0  0  0  0  0  0  0  0  0  0  0
  141.5031   71.1933  228.4569 H   0  0  0  0  0  0  0  0  0  0  0  0
  141.2261   72.7663  226.5549 H   0  0  0  0  0  0  0  0  0  0  0  0
  1  2  2  0
  2  3  1  0
  3  4  1  0
  4  5  1  0
  5  6  2  0
  5  7  1  0
  7  8  1  0
  8  9  1  0
  9 10  1  0
 10 11  1  0
 11 12  1  0
 12 13  1  0
 13 14  2  0
 14 15  1  0
 15 16  2  0
 16 17  1  0
  2 18  1  0
 18 19  2  0
 19 20  1  0
 20 21  2  0
 21 22  1  0
 22 23  2  0
 23 24  1  0
 23 25  1  0
 25 26  2  0
 26 27  1  0
 27 28  2  0
 12  7  1  0
 17 13  1  0
 28 18  1  0
 27 21  1  0
  3 29  1  0
  4 30  1  0
  4 31  1  0
  8 32  1  0
  8 33  1  0
  9 34  1  0
  9 35  1  0
 10 36  1  0
 10 37  1  0
 11 38  1  0
 11 39  1  0
 12 40  1  6
 16 41  1  0
 17 42  1  0
 19 43  1  0
 20 44  1  0
 22 45  1  0
 25 46  1  0
 26 47  1  0
M  END
>  <smiles>  (5) 
O=C(NCC(=O)N1CCCC[C@H]1c1nnc[nH]1)c1ccc2cc(Cl)ccc2n1

>  <score_type>  (5) 
oracle

>  <origin>  (5) 
autodockgpu

>  <m_score__min__energy>  (5) 
-8.5800000000000001

>  <m_primary>  (5) 
energy

>  <rmsd>  (5) 
3.12251654171535

>  <m_score__min__rmsd>  (5) 
3.12251654171535

>  <meeko>  (5) 
{"free_energy": -7.56, "intermolecular_energy": -9.05, "internal_energy": -2.37, "cluster_size": 5, "cluster_id": 2, "rank_in_cluster": 2}

>  <energy>  (5) 
-8.56

>  <cluster_rmsd>  (5) 
0.13

>  <cluster>  (5) 
1

$$$$

     RDKit          3D

 47 50  0  0  0  0  0  0  0  0999 V2000
  140.7470   72.9060  220.9430 O   0  0  0  0  0  0  0  0  0  0  0  0
  140.0770   73.0470  221.9990 C   0  0  0  0  0  0  0  0  0  0  0  0
  139.2990   74.2150  222.2250 N   0  0  0  0  0  0  0  0  0  0  0  0
  139.2890   75.2520  221.2090 C   0  0  0  0  0  0  0  0  0  0  0  0
  139.1750   76.5680  221.8910 C   0  0  0  0  0  0  0  0  0  0  0  0
  138.4080   76.7610  222.8820 O   0  0  0  0  0  0  0  0  0  0  0  0
  139.9630   77.6530  221.4090 N   0  0  0  0  0  0  0  0  0  0  0  0
  139.3980   78.7360  220.6110 C   0  0  0  0  0  0  0  0  0  0  0  0
  140.4220   79.3220  219.6620 C   0  0  0  0  0  0  0  0  0  0  0  0
  141.3380   78.1740  219.2410 C   0  0  0  0  0  0  0  0  0  0  0  0
  142.1770   77.7120  220.4130 C   0  0  0  0  0  0  0  0  0  0  0  0
  141.3860   77.7240  221.7030 C   0  0  1  0  0  0  0  0  0  0  0  0
  141.7050   78.9270  222.5000 C   0  0  0  0  0  0  0  0  0  0  0  0
  140.8610   79.6130  223.3190 N   0  0  0  0  0  0  0  0  0  0  0  0
  141.5160   80.6290  223.8570 N   0  0  0  0  0  0  0  0  0  0  0  0
  142.7770   80.6050  223.3950 C   0  0  0  0  0  0  0  0  0  0  0  0
  142.8890   79.5570  222.5610 N   0  0  0  0  0  0  0  0  0  0  0  0
  140.0630   72.0200  223.0490 C   0  0  0  0  0  0  0  0  0  0  0  0
  139.5720   70.7520  222.7720 C   0  0  0  0  0  0  0  0  0  0  0  0
  139.5710   69.8110  223.7780 C   0  0  0  0  0  0  0  0  0  0  0  0
  140.0420   70.0980  225.0380 C   0  0  0  0  0  0  0  0  0  0  0  0
  140.0630   69.1940  226.0760 C   0  0  0  0  0  0  0  0  0  0  0  0
  140.5530   69.5420  227.3360 C   0  0  0  0  0  0  0  0  0  0  0  0
  140.5850   68.4110  228.6540 Cl  0  0  0  0  0  0  0  0  0  0  0  0
  141.0330   70.8280  227.5600 C   0  0  0  0  0  0  0  0  0  0  0  0
  141.0000   71.7130  226.5010 C   0  0  0  0  0  0  0  0  0  0  0  0
  140.5170   71.3590  225.2710 C   0  0  0  0  0  0  0  0  0  0  0  0
  140.5120   72.2540  224.2960 N   0  0  0  0  0  0  0  0  0  0  0  0
  138.7420   74.3630  223.0730 H   0  0  0  0  0  0  0  0  0  0  0  0
  140.2221   75.2132  220.6278 H   0  0  0  0  0  0  0  0  0  0  0  0
  138.4418   75.1044  220.5231 H   0  0  0  0  0  0  0  0  0  0  0  0
  138.5522   78.3449  220.0264 H   0  0  0  0  0  0  0  0  0  0  0  0
  139.0682   79.5316  221.2953 H   0  0  0  0  0  0  0  0  0  0  0  0
  139.9212   79.7500  218.7811 H   0  0  0  0  0  0  0  0  0  0  0  0
  140.9940   80.1277  220.1454 H   0  0  0  0  0  0  0  0  0  0  0  0
  140.7251   77.3346  218.8807 H   0  0  0  0  0  0  0  0  0  0  0  0
  142.0057   78.5252  218.4404 H   0  0  0  0  0  0  0  0  0  0  0  0
  142.5281   76.6877  220.2190 H   0  0  0  0  0  0  0  0  0  0  0  0
  143.0252   78.4037  220.5229 H   0  0  0  0  0  0  0  0  0  0  0  0
  141.6644   76.8442  222.3017 H   0  0  0  0  0  0  0  0  0  0  0  0
  143.5755   81.3162  223.6532 H   0  0  0  0  0  0  0  0  0  0  0  0
  143.7870   79.3330  222.0760 H   0  0  0  0  0  0  0  0  0  0  0  0
  139.1916   70.5035  221.7702 H   0  0  0  0  0  0  0  0  0  0  0  0
  139.1832   68.8033  223.5681 H   0  0  0  0  0  0  0  0  0  0  0  0
  139.6852   68.1745  225.9088 H   0  0  0  0  0  0  0  0  0  0  0  0
  141.4240   71.1284  228.5433 H   0  0  0  0  0  0  0  0  0  0  0  0
  141.3743   72.7364  226.6511 H   0  0  0  0  0  0  0  0  0  0  0  0
  1  2  2  0
  2  3  1  0
  3  4  1  0
  4  5  1  0
  5  6  2  0
  5  7  1  0
  7  8  1  0
  8  9  1  0
  9 10  1  0
 10 11  1  0
 11 12  1  0
 12 13  1  0
 13 14  2  0
 14 15  1  0
 15 16  2  0
 16 17  1  0
  2 18  1  0
 18 19  2  0
 19 20  1  0
 20 21  2  0
 21 22  1  0
 22 23  2  0
 23 24  1  0
 23 25  1  0
 25 26  2  0
 26 27  1  0
 27 28  2  0
 12  7  1  0
 17 13  1  0
 28 18  1  0
 27 21  1  0
  3 29  1  0
  4 30  1  0
  4 31  1  0
  8 32  1  0
  8 33  1  0
  9 34  1  0
  9 35  1  0
 10 36  1  0
 10 37  1  0
 11 38  1  0
 11 39  1  0
 12 40  1  1
 16 41  1  0
 17 42  1  0
 19 43  1  0
 20 44  1  0
 22 45  1  0
 25 46  1  0
 26 47  1  0
M  END
>  <smiles>  (6) 
O=C(NCC(=O)N1CCCC[C@H]1c1nnc[nH]1)c1ccc2cc(Cl)ccc2n1

>  <score_type>  (6) 
oracle

>  <origin>  (6) 
autodockgpu

>  <m_score__min__energy>  (6) 
-8.5800000000000001

>  <m_primary>  (6) 
energy

>  <rmsd>  (6) 
2.5126259417543664

>  <m_score__min__rmsd>  (6) 
2.5126259417543664

>  <meeko>  (6) 
{"free_energy": -8.56, "intermolecular_energy": -10.05, "internal_energy": -1.67, "cluster_size": 29, "cluster_id": 1, "rank_in_cluster": 5}

>  <energy>  (6) 
-8.55

>  <cluster_rmsd>  (6) 
0.38

>  <cluster>  (6) 
1

$$$$

     RDKit          3D

 47 50  0  0  0  0  0  0  0  0999 V2000
  137.7570   75.6410  222.8110 O   0  0  0  0  0  0  0  0  0  0  0  0
  138.8510   76.0450  222.3400 C   0  0  0  0  0  0  0  0  0  0  0  0
  139.1430   77.4340  222.2470 N   0  0  0  0  0  0  0  0  0  0  0  0
  138.1510   78.3870  222.7100 C   0  0  0  0  0  0  0  0  0  0  0  0
  138.8650   79.5610  223.2770 C   0  0  0  0  0  0  0  0  0  0  0  0
  138.3090   80.3810  224.0700 O   0  0  0  0  0  0  0  0  0  0  0  0
  140.2260   79.7690  222.9150 N   0  0  0  0  0  0  0  0  0  0  0  0
  141.3290   79.1090  223.6060 C   0  0  0  0  0  0  0  0  0  0  0  0
  142.5880   79.9500  223.5770 C   0  0  0  0  0  0  0  0  0  0  0  0
  142.1420   81.4100  223.6230 C   0  0  0  0  0  0  0  0  0  0  0  0
  141.4440   81.7890  222.3350 C   0  0  0  0  0  0  0  0  0  0  0  0
  140.5750   80.6620  221.8200 C   0  0  1  0  0  0  0  0  0  0  0  0
  141.2580   79.9300  220.7330 C   0  0  0  0  0  0  0  0  0  0  0  0
  141.5500   78.6000  220.7010 N   0  0  0  0  0  0  0  0  0  0  0  0
  142.1630   78.3230  219.5610 N   0  0  0  0  0  0  0  0  0  0  0  0
  142.2690   79.4620  218.8560 C   0  0  0  0  0  0  0  0  0  0  0  0
  141.7110   80.4470  219.5800 N   0  0  0  0  0  0  0  0  0  0  0  0
  139.8800   75.1120  221.8620 C   0  0  0  0  0  0  0  0  0  0  0  0
  139.6810   73.7440  221.9770 C   0  0  0  0  0  0  0  0  0  0  0  0
  140.6650   72.8940  221.5190 C   0  0  0  0  0  0  0  0  0  0  0  0
  141.8280   73.3680  220.9560 C   0  0  0  0  0  0  0  0  0  0  0  0
  142.8380   72.5630  220.4850 C   0  0  0  0  0  0  0  0  0  0  0  0
  143.9970   73.1000  219.9240 C   0  0  0  0  0  0  0  0  0  0  0  0
  145.2810   72.0940  219.3250 Cl  0  0  0  0  0  0  0  0  0  0  0  0
  144.1460   74.4800  219.8320 C   0  0  0  0  0  0  0  0  0  0  0  0
  143.1150   75.2640  220.3120 C   0  0  0  0  0  0  0  0  0  0  0  0
  141.9850   74.7230  220.8620 C   0  0  0  0  0  0  0  0  0  0  0  0
  141.0320   75.5290  221.3050 N   0  0  0  0  0  0  0  0  0  0  0  0
  140.0250   77.7980  221.8690 H   0  0  0  0  0  0  0  0  0  0  0  0
  137.5195   78.7062  221.8678 H   0  0  0  0  0  0  0  0  0  0  0  0
  137.5092   77.9262  223.4754 H   0  0  0  0  0  0  0  0  0  0  0  0
  141.0406   78.9340  224.6530 H   0  0  0  0  0  0  0  0  0  0  0  0
  141.5378   78.1592  223.0920 H   0  0  0  0  0  0  0  0  0  0  0  0
  143.2185   79.7186  224.4481 H   0  0  0  0  0  0  0  0  0  0  0  0
  143.1796   79.7454  222.6725 H   0  0  0  0  0  0  0  0  0  0  0  0
  141.4493   81.5510  224.4658 H   0  0  0  0  0  0  0  0  0  0  0  0
  143.0276   82.0499  223.7506 H   0  0  0  0  0  0  0  0  0  0  0  0
  140.8132   82.6716  222.5171 H   0  0  0  0  0  0  0  0  0  0  0  0
  142.2122   82.0048  221.5779 H   0  0  0  0  0  0  0  0  0  0  0  0
  139.6486   81.0856  221.4048 H   0  0  0  0  0  0  0  0  0  0  0  0
  142.7303   79.5690  217.8632 H   0  0  0  0  0  0  0  0  0  0  0  0
  141.6740   81.4320  219.2340 H   0  0  0  0  0  0  0  0  0  0  0  0
  138.7580   73.3461  222.4240 H   0  0  0  0  0  0  0  0  0  0  0  0
  140.5166   71.8075  221.6059 H   0  0  0  0  0  0  0  0  0  0  0  0
  142.7298   71.4704  220.5520 H   0  0  0  0  0  0  0  0  0  0  0  0
  145.0495   74.9293  219.3941 H   0  0  0  0  0  0  0  0  0  0  0  0
  143.2054   76.3585  220.2501 H   0  0  0  0  0  0  0  0  0  0  0  0
  1  2  2  0
  2  3  1  0
  3  4  1  0
  4  5  1  0
  5  6  2  0
  5  7  1  0
  7  8  1  0
  8  9  1  0
  9 10  1  0
 10 11  1  0
 11 12  1  0
 12 13  1  0
 13 14  2  0
 14 15  1  0
 15 16  2  0
 16 17  1  0
  2 18  1  0
 18 19  2  0
 19 20  1  0
 20 21  2  0
 21 22  1  0
 22 23  2  0
 23 24  1  0
 23 25  1  0
 25 26  2  0
 26 27  1  0
 27 28  2  0
 12  7  1  0
 17 13  1  0
 28 18  1  0
 27 21  1  0
  3 29  1  0
  4 30  1  0
  4 31  1  0
  8 32  1  0
  8 33  1  0
  9 34  1  0
  9 35  1  0
 10 36  1  0
 10 37  1  0
 11 38  1  0
 11 39  1  0
 12 40  1  6
 16 41  1  0
 17 42  1  0
 19 43  1  0
 20 44  1  0
 22 45  1  0
 25 46  1  0
 26 47  1  0
M  END
>  <smiles>  (7) 
O=C(NCC(=O)N1CCCC[C@H]1c1nnc[nH]1)c1ccc2cc(Cl)ccc2n1

>  <score_type>  (7) 
oracle

>  <origin>  (7) 
autodockgpu

>  <m_score__min__energy>  (7) 
-8.5800000000000001

>  <m_primary>  (7) 
energy

>  <rmsd>  (7) 
6.386331635265548

>  <m_score__min__rmsd>  (7) 
6.386331635265548

>  <meeko>  (7) 
{"free_energy": -6.41, "intermolecular_energy": -7.9, "internal_energy": -2.86, "cluster_size": 2, "cluster_id": 8, "rank_in_cluster": 1}

>  <energy>  (7) 
-8.52

>  <cluster_rmsd>  (7) 
0.22

>  <cluster>  (7) 
1

$$$$

     RDKit          3D

 47 50  0  0  0  0  0  0  0  0999 V2000
  138.5090   73.4510  221.0640 O   0  0  0  0  0  0  0  0  0  0  0  0
  139.5570   73.0430  221.6270 C   0  0  0  0  0  0  0  0  0  0  0  0
  140.8410   73.4720  221.1920 N   0  0  0  0  0  0  0  0  0  0  0  0
  140.9250   74.3980  220.0770 C   0  0  0  0  0  0  0  0  0  0  0  0
  141.7400   75.5650  220.5050 C   0  0  0  0  0  0  0  0  0  0  0  0
  143.0060   75.5800  220.4280 O   0  0  0  0  0  0  0  0  0  0  0  0
  141.0680   76.7110  221.0190 N   0  0  0  0  0  0  0  0  0  0  0  0
  140.7280   77.8590  220.1840 C   0  0  0  0  0  0  0  0  0  0  0  0
  140.7060   79.1440  220.9850 C   0  0  0  0  0  0  0  0  0  0  0  0
  141.7770   79.0060  222.0660 C   0  0  0  0  0  0  0  0  0  0  0  0
  141.3710   77.9600  223.0810 C   0  0  0  0  0  0  0  0  0  0  0  0
  140.6880   76.7810  222.4220 C   0  0  1  0  0  0  0  0  0  0  0  0
  139.2200   76.8770  222.5710 C   0  0  0  0  0  0  0  0  0  0  0  0
  138.4720   78.0160  222.5810 N   0  0  0  0  0  0  0  0  0  0  0  0
  137.1990   77.6900  222.7330 N   0  0  0  0  0  0  0  0  0  0  0  0
  137.1160   76.3520  222.8210 C   0  0  0  0  0  0  0  0  0  0  0  0
  138.3610   75.8570  222.7200 N   0  0  0  0  0  0  0  0  0  0  0  0
  139.5130   72.1060  222.7580 C   0  0  0  0  0  0  0  0  0  0  0  0
  138.6020   71.0590  222.7550 C   0  0  0  0  0  0  0  0  0  0  0  0
  138.5850   70.1970  223.8300 C   0  0  0  0  0  0  0  0  0  0  0  0
  139.4440   70.3500  224.8950 C   0  0  0  0  0  0  0  0  0  0  0  0
  139.4660   69.5180  225.9900 C   0  0  0  0  0  0  0  0  0  0  0  0
  140.3600   69.7210  227.0420 C   0  0  0  0  0  0  0  0  0  0  0  0
  140.3990   68.6780  228.4310 Cl  0  0  0  0  0  0  0  0  0  0  0  0
  141.2540   70.7870  226.9940 C   0  0  0  0  0  0  0  0  0  0  0  0
  141.2090   71.6050  225.8830 C   0  0  0  0  0  0  0  0  0  0  0  0
  140.3260   71.3940  224.8590 C   0  0  0  0  0  0  0  0  0  0  0  0
  140.3320   72.2150  223.8200 N   0  0  0  0  0  0  0  0  0  0  0  0
  141.7160   73.1590  221.6280 H   0  0  0  0  0  0  0  0  0  0  0  0
  141.4031   73.9045  219.2180 H   0  0  0  0  0  0  0  0  0  0  0  0
  139.9185   74.7258  219.7778 H   0  0  0  0  0  0  0  0  0  0  0  0
  141.4753   77.9510  219.3821 H   0  0  0  0  0  0  0  0  0  0  0  0
  139.7230   77.6959  219.7676 H   0  0  0  0  0  0  0  0  0  0  0  0
  140.9331   80.0007  220.3335 H   0  0  0  0  0  0  0  0  0  0  0  0
  139.7148   79.3160  221.4298 H   0  0  0  0  0  0  0  0  0  0  0  0
  142.7272   78.7079  221.5987 H   0  0  0  0  0  0  0  0  0  0  0  0
  141.8939   79.9728  222.5775 H   0  0  0  0  0  0  0  0  0  0  0  0
  142.2697   77.6043  223.6062 H   0  0  0  0  0  0  0  0  0  0  0  0
  140.6615   78.4199  223.7846 H   0  0  0  0  0  0  0  0  0  0  0  0
  141.0140   75.8557  222.9196 H   0  0  0  0  0  0  0  0  0  0  0  0
  136.1940   75.7666  222.9522 H   0  0  0  0  0  0  0  0  0  0  0  0
  138.5500   74.8300  222.7600 H   0  0  0  0  0  0  0  0  0  0  0  0
  137.9084   70.9202  221.9126 H   0  0  0  0  0  0  0  0  0  0  0  0
  137.8660   69.3645  223.8374 H   0  0  0  0  0  0  0  0  0  0  0  0
  138.7629   68.6734  226.0375 H   0  0  0  0  0  0  0  0  0  0  0  0
  141.9687   70.9704  227.8099 H   0  0  0  0  0  0  0  0  0  0  0  0
  141.9055   72.4540  225.8187 H   0  0  0  0  0  0  0  0  0  0  0  0
  1  2  2  0
  2  3  1  0
  3  4  1  0
  4  5  1  0
  5  6  2  0
  5  7  1  0
  7  8  1  0
  8  9  1  0
  9 10  1  0
 10 11  1  0
 11 12  1  0
 12 13  1  0
 13 14  2  0
 14 15  1  0
 15 16  2  0
 16 17  1  0
  2 18  1  0
 18 19  2  0
 19 20  1  0
 20 21  2  0
 21 22  1  0
 22 23  2  0
 23 24  1  0
 23 25  1  0
 25 26  2  0
 26 27  1  0
 27 28  2  0
 12  7  1  0
 17 13  1  0
 28 18  1  0
 27 21  1  0
  3 29  1  0
  4 30  1  0
  4 31  1  0
  8 32  1  0
  8 33  1  0
  9 34  1  0
  9 35  1  0
 10 36  1  0
 10 37  1  0
 11 38  1  0
 11 39  1  0
 12 40  1  1
 16 41  1  0
 17 42  1  0
 19 43  1  0
 20 44  1  0
 22 45  1  0
 25 46  1  0
 26 47  1  0
M  END
>  <smiles>  (8) 
O=C(NCC(=O)N1CCCC[C@H]1c1nnc[nH]1)c1ccc2cc(Cl)ccc2n1

>  <score_type>  (8) 
oracle

>  <origin>  (8) 
autodockgpu

>  <m_score__min__energy>  (8) 
-8.5800000000000001

>  <m_primary>  (8) 
energy

>  <rmsd>  (8) 
3.3434748987457805

>  <m_score__min__rmsd>  (8) 
3.3434748987457805

>  <meeko>  (8) 
{"free_energy": -7.2, "intermolecular_energy": -8.69, "internal_energy": -2.45, "cluster_size": 4, "cluster_id": 4, "rank_in_cluster": 4}

>  <energy>  (8) 
-8.49

>  <cluster_rmsd>  (8) 
0.39

>  <cluster>  (8) 
1

$$$$

     RDKit          3D

 47 50  0  0  0  0  0  0  0  0999 V2000
  140.8020   72.9440  220.9480 O   0  0  0  0  0  0  0  0  0  0  0  0
  140.1240   73.0700  222.0000 C   0  0  0  0  0  0  0  0  0  0  0  0
  139.3460   74.2350  222.2390 N   0  0  0  0  0  0  0  0  0  0  0  0
  139.3440   75.2890  221.2400 C   0  0  0  0  0  0  0  0  0  0  0  0
  139.1980   76.5920  221.9400 C   0  0  0  0  0  0  0  0  0  0  0  0
  138.4400   76.7460  222.9460 O   0  0  0  0  0  0  0  0  0  0  0  0
  139.9400   77.7090  221.4600 N   0  0  0  0  0  0  0  0  0  0  0  0
  139.3140   78.8120  220.7390 C   0  0  0  0  0  0  0  0  0  0  0  0
  140.2740   79.4530  219.7590 C   0  0  0  0  0  0  0  0  0  0  0  0
  141.1820   78.3400  219.2410 C   0  0  0  0  0  0  0  0  0  0  0  0
  142.0930   77.8460  220.3440 C   0  0  0  0  0  0  0  0  0  0  0  0
  141.3760   77.7930  221.6760 C   0  0  1  0  0  0  0  0  0  0  0  0
  141.7210   78.9690  222.5020 C   0  0  0  0  0  0  0  0  0  0  0  0
  140.8600   79.7540  223.2090 N   0  0  0  0  0  0  0  0  0  0  0  0
  141.5490   80.7030  223.8200 N   0  0  0  0  0  0  0  0  0  0  0  0
  142.8480   80.5400  223.5170 C   0  0  0  0  0  0  0  0  0  0  0  0
  142.9490   79.4720  222.7070 N   0  0  0  0  0  0  0  0  0  0  0  0
  140.1000   72.0260  223.0340 C   0  0  0  0  0  0  0  0  0  0  0  0
  139.5850   70.7720  222.7400 C   0  0  0  0  0  0  0  0  0  0  0  0
  139.5760   69.8140  223.7300 C   0  0  0  0  0  0  0  0  0  0  0  0
  140.0610   70.0720  224.9920 C   0  0  0  0  0  0  0  0  0  0  0  0
  140.0750   69.1510  226.0140 C   0  0  0  0  0  0  0  0  0  0  0  0
  140.5790   69.4690  227.2750 C   0  0  0  0  0  0  0  0  0  0  0  0
  140.6020   68.3160  228.5750 Cl  0  0  0  0  0  0  0  0  0  0  0  0
  141.0840   70.7430  227.5170 C   0  0  0  0  0  0  0  0  0  0  0  0
  141.0580   71.6460  226.4730 C   0  0  0  0  0  0  0  0  0  0  0  0
  140.5590   71.3200  225.2420 C   0  0  0  0  0  0  0  0  0  0  0  0
  140.5620   72.2320  224.2810 N   0  0  0  0  0  0  0  0  0  0  0  0
  138.7810   74.3710  223.0850 H   0  0  0  0  0  0  0  0  0  0  0  0
  140.2898   75.2718  220.6786 H   0  0  0  0  0  0  0  0  0  0  0  0
  138.5134   75.1418  220.5340 H   0  0  0  0  0  0  0  0  0  0  0  0
  138.4430   78.4291  220.1870 H   0  0  0  0  0  0  0  0  0  0  0  0
  139.0104   79.5740  221.4719 H   0  0  0  0  0  0  0  0  0  0  0  0
  139.7178   79.9070  218.9256 H   0  0  0  0  0  0  0  0  0  0  0  0
  140.8601   80.2483  220.2426 H   0  0  0  0  0  0  0  0  0  0  0  0
  140.5628   77.5051  218.8812 H   0  0  0  0  0  0  0  0  0  0  0  0
  141.7979   78.7352  218.4197 H   0  0  0  0  0  0  0  0  0  0  0  0
  142.4477   76.8365  220.0889 H   0  0  0  0  0  0  0  0  0  0  0  0
  142.9359   78.5470  220.4343 H   0  0  0  0  0  0  0  0  0  0  0  0
  141.7014   76.8950  222.2216 H   0  0  0  0  0  0  0  0  0  0  0  0
  143.6797   81.1681  223.8688 H   0  0  0  0  0  0  0  0  0  0  0  0
  143.8700   79.1480  222.3360 H   0  0  0  0  0  0  0  0  0  0  0  0
  139.1921   70.5472  221.7375 H   0  0  0  0  0  0  0  0  0  0  0  0
  139.1704   68.8164  223.5059 H   0  0  0  0  0  0  0  0  0  0  0  0
  139.6796   68.1407  225.8324 H   0  0  0  0  0  0  0  0  0  0  0  0
  141.4882   71.0198  228.5019 H   0  0  0  0  0  0  0  0  0  0  0  0
  141.4512   72.6602  226.6365 H   0  0  0  0  0  0  0  0  0  0  0  0
  1  2  2  0
  2  3  1  0
  3  4  1  0
  4  5  1  0
  5  6  2  0
  5  7  1  0
  7  8  1  0
  8  9  1  0
  9 10  1  0
 10 11  1  0
 11 12  1  0
 12 13  1  0
 13 14  2  0
 14 15  1  0
 15 16  2  0
 16 17  1  0
  2 18  1  0
 18 19  2  0
 19 20  1  0
 20 21  2  0
 21 22  1  0
 22 23  2  0
 23 24  1  0
 23 25  1  0
 25 26  2  0
 26 27  1  0
 27 28  2  0
 12  7  1  0
 17 13  1  0
 28 18  1  0
 27 21  1  0
  3 29  1  0
  4 30  1  0
  4 31  1  0
  8 32  1  0
  8 33  1  0
  9 34  1  0
  9 35  1  0
 10 36  1  0
 10 37  1  0
 11 38  1  0
 11 39  1  0
 12 40  1  1
 16 41  1  0
 17 42  1  0
 19 43  1  0
 20 44  1  0
 22 45  1  0
 25 46  1  0
 26 47  1  0
M  END
>  <smiles>  (9) 
O=C(NCC(=O)N1CCCC[C@H]1c1nnc[nH]1)c1ccc2cc(Cl)ccc2n1

>  <score_type>  (9) 
oracle

>  <origin>  (9) 
autodockgpu

>  <m_score__min__energy>  (9) 
-8.5800000000000001

>  <m_primary>  (9) 
energy

>  <rmsd>  (9) 
2.5630591021238724

>  <m_score__min__rmsd>  (9) 
2.5630591021238724

>  <meeko>  (9) 
{"free_energy": -8.58, "intermolecular_energy": -10.07, "internal_energy": -1.67, "cluster_size": 29, "cluster_id": 1, "rank_in_cluster": 1}

>  <energy>  (9) 
-8.48

>  <cluster_rmsd>  (9) 
0.39

>  <cluster>  (9) 
1

$$$$

     RDKit          3D

 47 50  0  0  0  0  0  0  0  0999 V2000
  138.7810   73.1650  220.6470 O   0  0  0  0  0  0  0  0  0  0  0  0
  139.7900   72.9310  221.3620 C   0  0  0  0  0  0  0  0  0  0  0  0
  141.0420   73.5460  221.0890 N   0  0  0  0  0  0  0  0  0  0  0  0
  141.1400   74.4580  219.9630 C   0  0  0  0  0  0  0  0  0  0  0  0
  141.7040   75.7420  220.4540 C   0  0  0  0  0  0  0  0  0  0  0  0
  142.8980   76.1000  220.2140 O   0  0  0  0  0  0  0  0  0  0  0  0
  140.8690   76.6030  221.2210 N   0  0  0  0  0  0  0  0  0  0  0  0
  140.0560   76.1170  222.3320 C   0  0  0  0  0  0  0  0  0  0  0  0
  138.8030   76.9480  222.5100 C   0  0  0  0  0  0  0  0  0  0  0  0
  138.3770   77.4040  221.1160 C   0  0  0  0  0  0  0  0  0  0  0  0
  139.3730   78.3990  220.5590 C   0  0  0  0  0  0  0  0  0  0  0  0
  140.7940   78.0250  220.9220 C   0  0  1  0  0  0  0  0  0  0  0  0
  141.2720   78.8340  222.0630 C   0  0  0  0  0  0  0  0  0  0  0  0
  140.5070   79.5130  222.9620 N   0  0  0  0  0  0  0  0  0  0  0  0
  141.3010   80.1140  223.8320 N   0  0  0  0  0  0  0  0  0  0  0  0
  142.5720   79.8300  223.5060 C   0  0  0  0  0  0  0  0  0  0  0  0
  142.5500   79.0420  222.4170 N   0  0  0  0  0  0  0  0  0  0  0  0
  139.7300   72.0160  222.5090 C   0  0  0  0  0  0  0  0  0  0  0  0
  139.0060   70.8360  222.4170 C   0  0  0  0  0  0  0  0  0  0  0  0
  138.9690   69.9980  223.5110 C   0  0  0  0  0  0  0  0  0  0  0  0
  139.6280   70.3030  224.6790 C   0  0  0  0  0  0  0  0  0  0  0  0
  139.6230   69.5020  225.7970 C   0  0  0  0  0  0  0  0  0  0  0  0
  140.3100   69.8620  226.9570 C   0  0  0  0  0  0  0  0  0  0  0  0
  140.3110   68.8600  228.3760 Cl  0  0  0  0  0  0  0  0  0  0  0  0
  141.0210   71.0580  226.9960 C   0  0  0  0  0  0  0  0  0  0  0  0
  141.0090   71.8410  225.8590 C   0  0  0  0  0  0  0  0  0  0  0  0
  140.3300   71.4750  224.7300 C   0  0  0  0  0  0  0  0  0  0  0  0
  140.3580   72.2720  223.6720 N   0  0  0  0  0  0  0  0  0  0  0  0
  141.8840   73.3790  221.6500 H   0  0  0  0  0  0  0  0  0  0  0  0
  141.8006   74.0308  219.1941 H   0  0  0  0  0  0  0  0  0  0  0  0
  140.1467   74.6236  219.5203 H   0  0  0  0  0  0  0  0  0  0  0  0
  139.7677   75.0741  222.1341 H   0  0  0  0  0  0  0  0  0  0  0  0
  140.6523   76.1913  223.2534 H   0  0  0  0  0  0  0  0  0  0  0  0
  138.0084   76.3421  222.9699 H   0  0  0  0  0  0  0  0  0  0  0  0
  138.9897   77.8094  223.1682 H   0  0  0  0  0  0  0  0  0  0  0  0
  138.3253   76.5308  220.4490 H   0  0  0  0  0  0  0  0  0  0  0  0
  137.3908   77.8864  221.1842 H   0  0  0  0  0  0  0  0  0  0  0  0
  139.2788   78.4236  219.4633 H   0  0  0  0  0  0  0  0  0  0  0  0
  139.1544   79.3856  220.9935 H   0  0  0  0  0  0  0  0  0  0  0  0
  141.4495   78.2376  220.0646 H   0  0  0  0  0  0  0  0  0  0  0  0
  143.4707   80.1796  224.0353 H   0  0  0  0  0  0  0  0  0  0  0  0
  143.4280   78.6890  221.9750 H   0  0  0  0  0  0  0  0  0  0  0  0
  138.4729   70.5747  221.4910 H   0  0  0  0  0  0  0  0  0  0  0  0
  138.3972   69.0604  223.4481 H   0  0  0  0  0  0  0  0  0  0  0  0
  139.0640   68.5548  225.7762 H   0  0  0  0  0  0  0  0  0  0  0  0
  141.5708   71.3671  227.8972 H   0  0  0  0  0  0  0  0  0  0  0  0
  141.5640   72.7907  225.8614 H   0  0  0  0  0  0  0  0  0  0  0  0
  1  2  2  0
  2  3  1  0
  3  4  1  0
  4  5  1  0
  5  6  2  0
  5  7  1  0
  7  8  1  0
  8  9  1  0
  9 10  1  0
 10 11  1  0
 11 12  1  0
 12 13  1  0
 13 14  2  0
 14 15  1  0
 15 16  2  0
 16 17  1  0
  2 18  1  0
 18 19  2  0
 19 20  1  0
 20 21  2  0
 21 22  1  0
 22 23  2  0
 23 24  1  0
 23 25  1  0
 25 26  2  0
 26 27  1  0
 27 28  2  0
 12  7  1  0
 17 13  1  0
 28 18  1  0
 27 21  1  0
  3 29  1  0
  4 30  1  0
  4 31  1  0
  8 32  1  0
  8 33  1  0
  9 34  1  0
  9 35  1  0
 10 36  1  0
 10 37  1  0
 11 38  1  0
 11 39  1  0
 12 40  1  6
 16 41  1  0
 17 42  1  0
 19 43  1  0
 20 44  1  0
 22 45  1  0
 25 46  1  0
 26 47  1  0
M  END
>  <smiles>  (10) 
O=C(NCC(=O)N1CCCC[C@H]1c1nnc[nH]1)c1ccc2cc(Cl)ccc2n1

>  <score_type>  (10) 
oracle

>  <origin>  (10) 
autodockgpu

>  <m_score__min__energy>  (10) 
-8.5800000000000001

>  <m_primary>  (10) 
energy

>  <rmsd>  (10) 
2.8656525050466475

>  <m_score__min__rmsd>  (10) 
2.8656525050466475

>  <meeko>  (10) 
{"free_energy": -7.46, "intermolecular_energy": -8.96, "internal_energy": -1.73, "cluster_size": 29, "cluster_id": 1, "rank_in_cluster": 29}

>  <energy>  (10) 
-8.45

>  <cluster_rmsd>  (10) 
0.31

>  <cluster>  (10) 
1

$$$$

     RDKit          3D

 47 50  0  0  0  0  0  0  0  0999 V2000
  139.9470   74.0740  222.3410 O   0  0  0  0  0  0  0  0  0  0  0  0
  140.2990   74.6910  221.3020 C   0  0  0  0  0  0  0  0  0  0  0  0
  140.7900   73.9940  220.1640 N   0  0  0  0  0  0  0  0  0  0  0  0
  140.8790   72.5460  220.2190 C   0  0  0  0  0  0  0  0  0  0  0  0
  142.3160   72.1720  220.2820 C   0  0  0  0  0  0  0  0  0  0  0  0
  142.7210   71.1030  220.8340 O   0  0  0  0  0  0  0  0  0  0  0  0
  143.2740   73.0500  219.6990 N   0  0  0  0  0  0  0  0  0  0  0  0
  143.9520   72.7450  218.4430 C   0  0  0  0  0  0  0  0  0  0  0  0
  145.3310   73.3670  218.3890 C   0  0  0  0  0  0  0  0  0  0  0  0
  145.8720   73.3600  219.8170 C   0  0  0  0  0  0  0  0  0  0  0  0
  145.0920   74.3260  220.6820 C   0  0  0  0  0  0  0  0  0  0  0  0
  143.6170   74.3080  220.3440 C   0  0  1  0  0  0  0  0  0  0  0  0
  143.2630   75.4590  219.4870 C   0  0  0  0  0  0  0  0  0  0  0  0
  142.7270   75.4130  218.2360 N   0  0  0  0  0  0  0  0  0  0  0  0
  142.5530   76.6490  217.7980 N   0  0  0  0  0  0  0  0  0  0  0  0
  142.9700   77.4950  218.7550 C   0  0  0  0  0  0  0  0  0  0  0  0
  143.4050   76.7590  219.7920 N   0  0  0  0  0  0  0  0  0  0  0  0
  140.2240   76.1550  221.2090 C   0  0  0  0  0  0  0  0  0  0  0  0
  139.1800   76.7520  220.5170 C   0  0  0  0  0  0  0  0  0  0  0  0
  139.1360   78.1270  220.4470 C   0  0  0  0  0  0  0  0  0  0  0  0
  140.0960   78.9130  221.0430 C   0  0  0  0  0  0  0  0  0  0  0  0
  140.0980   80.2880  221.0020 C   0  0  0  0  0  0  0  0  0  0  0  0
  141.0980   81.0350  221.6250 C   0  0  0  0  0  0  0  0  0  0  0  0
  141.1130   82.7720  221.5810 Cl  0  0  0  0  0  0  0  0  0  0  0  0
  142.1230   80.3860  222.3060 C   0  0  0  0  0  0  0  0  0  0  0  0
  142.0950   79.0060  222.3310 C   0  0  0  0  0  0  0  0  0  0  0  0
  141.1080   78.2860  221.7150 C   0  0  0  0  0  0  0  0  0  0  0  0
  141.1380   76.9640  221.7750 N   0  0  0  0  0  0  0  0  0  0  0  0
  141.0860   74.4650  219.3010 H   0  0  0  0  0  0  0  0  0  0  0  0
  140.3578   72.1744  221.1136 H   0  0  0  0  0  0  0  0  0  0  0  0
  140.4091   72.1020  219.3290 H   0  0  0  0  0  0  0  0  0  0  0  0
  144.0485   71.6536  218.3453 H   0  0  0  0  0  0  0  0  0  0  0  0
  143.3540   73.1617  217.6191 H   0  0  0  0  0  0  0  0  0  0  0  0
  145.9873   72.7773  217.7321 H   0  0  0  0  0  0  0  0  0  0  0  0
  145.2880   74.3901  217.9873 H   0  0  0  0  0  0  0  0  0  0  0  0
  145.7814   72.3461  220.2338 H   0  0  0  0  0  0  0  0  0  0  0  0
  146.9275   73.6691  219.7999 H   0  0  0  0  0  0  0  0  0  0  0  0
  145.2201   74.0439  221.7375 H   0  0  0  0  0  0  0  0  0  0  0  0
  145.4755   75.3404  220.4979 H   0  0  0  0  0  0  0  0  0  0  0  0
  143.0362   74.3942  221.2742 H   0  0  0  0  0  0  0  0  0  0  0  0
  142.9576   78.5935  218.6996 H   0  0  0  0  0  0  0  0  0  0  0  0
  143.7810   77.2000  220.6610 H   0  0  0  0  0  0  0  0  0  0  0  0
  138.4037   76.1401  220.0344 H   0  0  0  0  0  0  0  0  0  0  0  0
  138.3122   78.6095  219.9006 H   0  0  0  0  0  0  0  0  0  0  0  0
  139.2924   80.8106  220.4655 H   0  0  0  0  0  0  0  0  0  0  0  0
  142.9245   80.9504  222.8051 H   0  0  0  0  0  0  0  0  0  0  0  0
  142.8926   78.4675  222.8638 H   0  0  0  0  0  0  0  0  0  0  0  0
  1  2  2  0
  2  3  1  0
  3  4  1  0
  4  5  1  0
  5  6  2  0
  5  7  1  0
  7  8  1  0
  8  9  1  0
  9 10  1  0
 10 11  1  0
 11 12  1  0
 12 13  1  0
 13 14  2  0
 14 15  1  0
 15 16  2  0
 16 17  1  0
  2 18  1  0
 18 19  2  0
 19 20  1  0
 20 21  2  0
 21 22  1  0
 22 23  2  0
 23 24  1  0
 23 25  1  0
 25 26  2  0
 26 27  1  0
 27 28  2  0
 12  7  1  0
 17 13  1  0
 28 18  1  0
 27 21  1  0
  3 29  1  0
  4 30  1  0
  4 31  1  0
  8 32  1  0
  8 33  1  0
  9 34  1  0
  9 35  1  0
 10 36  1  0
 10 37  1  0
 11 38  1  0
 11 39  1  0
 12 40  1  1
 16 41  1  0
 17 42  1  0
 19 43  1  0
 20 44  1  0
 22 45  1  0
 25 46  1  0
 26 47  1  0
M  END
>  <smiles>  (11) 
O=C(NCC(=O)N1CCCC[C@H]1c1nnc[nH]1)c1ccc2cc(Cl)ccc2n1

>  <score_type>  (11) 
oracle

>  <origin>  (11) 
autodockgpu

>  <m_score__min__energy>  (11) 
-8.5800000000000001

>  <m_primary>  (11) 
energy

>  <rmsd>  (11) 
7.23947614268921

>  <m_score__min__rmsd>  (11) 
7.23947614268921

>  <meeko>  (11) 
{"free_energy": -6.14, "intermolecular_energy": -7.64, "internal_energy": -3.02, "cluster_size": 1, "cluster_id": 10, "rank_in_cluster": 1}

>  <energy>  (11) 
-8.42

>  <cluster_rmsd>  (11) 
0.37

>  <cluster>  (11) 
1

$$$$

     RDKit          3D

 47 50  0  0  0  0  0  0  0  0999 V2000
  138.5970   73.4050  221.6320 O   0  0  0  0  0  0  0  0  0  0  0  0
  139.6980   72.8790  221.9390 C   0  0  0  0  0  0  0  0  0  0  0  0
  140.8930   73.2180  221.2480 N   0  0  0  0  0  0  0  0  0  0  0  0
  140.8230   74.1900  220.1720 C   0  0  0  0  0  0  0  0  0  0  0  0
  141.6740   75.3520  220.5420 C   0  0  0  0  0  0  0  0  0  0  0  0
  142.9420   75.3110  220.5020 O   0  0  0  0  0  0  0  0  0  0  0  0
  141.0370   76.5570  220.9550 N   0  0  0  0  0  0  0  0  0  0  0  0
  140.7250   77.6360  220.0230 C   0  0  0  0  0  0  0  0  0  0  0  0
  140.7420   78.9860  220.7070 C   0  0  0  0  0  0  0  0  0  0  0  0
  141.8150   78.9140  221.7930 C   0  0  0  0  0  0  0  0  0  0  0  0
  141.3850   77.9730  222.8980 C   0  0  0  0  0  0  0  0  0  0  0  0
  140.6660   76.7610  222.3470 C   0  0  1  0  0  0  0  0  0  0  0  0
  139.2030   76.9110  222.4910 C   0  0  0  0  0  0  0  0  0  0  0  0
  138.4920   78.0720  222.4480 N   0  0  0  0  0  0  0  0  0  0  0  0
  137.2090   77.7940  222.6150 N   0  0  0  0  0  0  0  0  0  0  0  0
  137.0830   76.4650  222.7640 C   0  0  0  0  0  0  0  0  0  0  0  0
  138.3120   75.9260  222.6860 N   0  0  0  0  0  0  0  0  0  0  0  0
  139.8090   71.8920  223.0210 C   0  0  0  0  0  0  0  0  0  0  0  0
  139.3900   70.5860  222.8130 C   0  0  0  0  0  0  0  0  0  0  0  0
  139.5060   69.6820  223.8470 C   0  0  0  0  0  0  0  0  0  0  0  0
  140.0240   70.0450  225.0700 C   0  0  0  0  0  0  0  0  0  0  0  0
  140.1610   69.1820  226.1330 C   0  0  0  0  0  0  0  0  0  0  0  0
  140.6920   69.6060  227.3510 C   0  0  0  0  0  0  0  0  0  0  0  0
  140.8710   68.5270  228.7020 Cl  0  0  0  0  0  0  0  0  0  0  0  0
  141.0970   70.9280  227.5070 C   0  0  0  0  0  0  0  0  0  0  0  0
  140.9480   71.7700  226.4240 C   0  0  0  0  0  0  0  0  0  0  0  0
  140.4240   71.3410  225.2350 C   0  0  0  0  0  0  0  0  0  0  0  0
  140.3070   72.1990  224.2330 N   0  0  0  0  0  0  0  0  0  0  0  0
  141.8070   72.8090  221.4720 H   0  0  0  0  0  0  0  0  0  0  0  0
  141.1921   73.7400  219.2386 H   0  0  0  0  0  0  0  0  0  0  0  0
  139.7829   74.5134  220.0181 H   0  0  0  0  0  0  0  0  0  0  0  0
  141.4709   77.6361  219.2145 H   0  0  0  0  0  0  0  0  0  0  0  0
  139.7139   77.4649  219.6249 H   0  0  0  0  0  0  0  0  0  0  0  0
  140.9888   79.7754  219.9818 H   0  0  0  0  0  0  0  0  0  0  0  0
  139.7582   79.2240  221.1377 H   0  0  0  0  0  0  0  0  0  0  0  0
  142.7540   78.5492  221.3512 H   0  0  0  0  0  0  0  0  0  0  0  0
  141.9619   79.9185  222.2167 H   0  0  0  0  0  0  0  0  0  0  0  0
  142.2760   77.6394  223.4501 H   0  0  0  0  0  0  0  0  0  0  0  0
  140.6926   78.5129  223.5606 H   0  0  0  0  0  0  0  0  0  0  0  0
  140.9684   75.8740  222.9231 H   0  0  0  0  0  0  0  0  0  0  0  0
  136.1428   75.9162  222.9216 H   0  0  0  0  0  0  0  0  0  0  0  0
  138.4680   74.8960  222.7740 H   0  0  0  0  0  0  0  0  0  0  0  0
  138.9736   70.2781  221.8425 H   0  0  0  0  0  0  0  0  0  0  0  0
  139.1764   68.6442  223.6912 H   0  0  0  0  0  0  0  0  0  0  0  0
  139.8447   68.1346  226.0196 H   0  0  0  0  0  0  0  0  0  0  0  0
  141.5195   71.2879  228.4567 H   0  0  0  0  0  0  0  0  0  0  0  0
  141.2606   72.8203  226.5196 H   0  0  0  0  0  0  0  0  0  0  0  0
  1  2  2  0
  2  3  1  0
  3  4  1  0
  4  5  1  0
  5  6  2  0
  5  7  1  0
  7  8  1  0
  8  9  1  0
  9 10  1  0
 10 11  1  0
 11 12  1  0
 12 13  1  0
 13 14  2  0
 14 15  1  0
 15 16  2  0
 16 17  1  0
  2 18  1  0
 18 19  2  0
 19 20  1  0
 20 21  2  0
 21 22  1  0
 22 23  2  0
 23 24  1  0
 23 25  1  0
 25 26  2  0
 26 27  1  0
 27 28  2  0
 12  7  1  0
 17 13  1  0
 28 18  1  0
 27 21  1  0
  3 29  1  0
  4 30  1  0
  4 31  1  0
  8 32  1  0
  8 33  1  0
  9 34  1  0
  9 35  1  0
 10 36  1  0
 10 37  1  0
 11 38  1  0
 11 39  1  0
 12 40  1  1
 16 41  1  0
 17 42  1  0
 19 43  1  0
 20 44  1  0
 22 45  1  0
 25 46  1  0
 26 47  1  0
M  END
>  <smiles>  (12) 
O=C(NCC(=O)N1CCCC[C@H]1c1nnc[nH]1)c1ccc2cc(Cl)ccc2n1

>  <score_type>  (12) 
oracle

>  <origin>  (12) 
autodockgpu

>  <m_score__min__energy>  (12) 
-8.5800000000000001

>  <m_primary>  (12) 
energy

>  <rmsd>  (12) 
3.1753923972094062

>  <m_score__min__rmsd>  (12) 
3.1753923972094062

>  <meeko>  (12) 
{"free_energy": -7.42, "intermolecular_energy": -8.91, "internal_energy": -2.33, "cluster_size": 4, "cluster_id": 4, "rank_in_cluster": 1}

>  <energy>  (12) 
-8.42

>  <cluster_rmsd>  (12) 
0.41

>  <cluster>  (12) 
1

$$$$

     RDKit          3D

 47 50  0  0  0  0  0  0  0  0999 V2000
  139.3140   72.1500  220.7760 O   0  0  0  0  0  0  0  0  0  0  0  0
  139.4380   72.5060  221.9760 C   0  0  0  0  0  0  0  0  0  0  0  0
  139.3970   73.8790  222.3430 N   0  0  0  0  0  0  0  0  0  0  0  0
  139.2060   74.8730  221.3030 C   0  0  0  0  0  0  0  0  0  0  0  0
  139.0100   76.1950  221.9550 C   0  0  0  0  0  0  0  0  0  0  0  0
  138.2380   76.3600  222.9470 O   0  0  0  0  0  0  0  0  0  0  0  0
  139.7210   77.3180  221.4420 N   0  0  0  0  0  0  0  0  0  0  0  0
  139.0730   78.3590  220.6520 C   0  0  0  0  0  0  0  0  0  0  0  0
  140.0360   78.9930  219.6690 C   0  0  0  0  0  0  0  0  0  0  0  0
  141.0020   77.8940  219.2300 C   0  0  0  0  0  0  0  0  0  0  0  0
  141.8990   77.4910  220.3800 C   0  0  0  0  0  0  0  0  0  0  0  0
  141.1460   77.4710  221.6930 C   0  0  1  0  0  0  0  0  0  0  0  0
  141.4200   78.6970  222.4710 C   0  0  0  0  0  0  0  0  0  0  0  0
  140.6360   79.2420  223.4430 N   0  0  0  0  0  0  0  0  0  0  0  0
  141.2210   80.3350  223.9030 N   0  0  0  0  0  0  0  0  0  0  0  0
  142.3770   80.5030  223.2390 C   0  0  0  0  0  0  0  0  0  0  0  0
  142.4950   79.4940  222.3600 N   0  0  0  0  0  0  0  0  0  0  0  0
  139.6310   71.5300  223.0560 C   0  0  0  0  0  0  0  0  0  0  0  0
  139.3040   70.1980  222.8530 C   0  0  0  0  0  0  0  0  0  0  0  0
  139.4970   69.3060  223.8860 C   0  0  0  0  0  0  0  0  0  0  0  0
  140.0030   69.7040  225.1020 C   0  0  0  0  0  0  0  0  0  0  0  0
  140.2140   68.8550  226.1630 C   0  0  0  0  0  0  0  0  0  0  0  0
  140.7290   69.3160  227.3750 C   0  0  0  0  0  0  0  0  0  0  0  0
  141.0010   68.2540  228.7220 Cl  0  0  0  0  0  0  0  0  0  0  0  0
  141.0410   70.6630  227.5250 C   0  0  0  0  0  0  0  0  0  0  0  0
  140.8200   71.4920  226.4440 C   0  0  0  0  0  0  0  0  0  0  0  0
  140.3130   71.0260  225.2620 C   0  0  0  0  0  0  0  0  0  0  0  0
  140.1220   71.8730  224.2610 N   0  0  0  0  0  0  0  0  0  0  0  0
  139.4940   74.2050  223.3120 H   0  0  0  0  0  0  0  0  0  0  0  0
  140.0923   74.9063  220.6523 H   0  0  0  0  0  0  0  0  0  0  0  0
  138.3293   74.6179  220.6896 H   0  0  0  0  0  0  0  0  0  0  0  0
  138.2349   77.9149  220.0949 H   0  0  0  0  0  0  0  0  0  0  0  0
  138.7172   79.1412  221.3387 H   0  0  0  0  0  0  0  0  0  0  0  0
  139.4873   79.3849  218.7999 H   0  0  0  0  0  0  0  0  0  0  0  0
  140.5758   79.8333  220.1299 H   0  0  0  0  0  0  0  0  0  0  0  0
  140.4268   77.0184  218.8947 H   0  0  0  0  0  0  0  0  0  0  0  0
  141.6252   78.2741  218.4071 H   0  0  0  0  0  0  0  0  0  0  0  0
  142.3014   76.4862  220.1838 H   0  0  0  0  0  0  0  0  0  0  0  0
  142.7099   78.2301  220.4594 H   0  0  0  0  0  0  0  0  0  0  0  0
  141.4906   76.6135  222.2897 H   0  0  0  0  0  0  0  0  0  0  0  0
  143.0977   81.3204  223.3884 H   0  0  0  0  0  0  0  0  0  0  0  0
  143.3210   79.4100  221.7250 H   0  0  0  0  0  0  0  0  0  0  0  0
  138.8990   69.8601  221.8877 H   0  0  0  0  0  0  0  0  0  0  0  0
  139.2395   68.2474  223.7341 H   0  0  0  0  0  0  0  0  0  0  0  0
  139.9711   67.7877  226.0536 H   0  0  0  0  0  0  0  0  0  0  0  0
  141.4485   71.0529  228.4694 H   0  0  0  0  0  0  0  0  0  0  0  0
  141.0592   72.5617  226.5358 H   0  0  0  0  0  0  0  0  0  0  0  0
  1  2  2  0
  2  3  1  0
  3  4  1  0
  4  5  1  0
  5  6  2  0
  5  7  1  0
  7  8  1  0
  8  9  1  0
  9 10  1  0
 10 11  1  0
 11 12  1  0
 12 13  1  0
 13 14  2  0
 14 15  1  0
 15 16  2  0
 16 17  1  0
  2 18  1  0
 18 19  2  0
 19 20  1  0
 20 21  2  0
 21 22  1  0
 22 23  2  0
 23 24  1  0
 23 25  1  0
 25 26  2  0
 26 27  1  0
 27 28  2  0
 12  7  1  0
 17 13  1  0
 28 18  1  0
 27 21  1  0
  3 29  1  0
  4 30  1  0
  4 31  1  0
  8 32  1  0
  8 33  1  0
  9 34  1  0
  9 35  1  0
 10 36  1  0
 10 37  1  0
 11 38  1  0
 11 39  1  0
 12 40  1  1
 16 41  1  0
 17 42  1  0
 19 43  1  0
 20 44  1  0
 22 45  1  0
 25 46  1  0
 26 47  1  0
M  END
>  <smiles>  (13) 
O=C(NCC(=O)N1CCCC[C@H]1c1nnc[nH]1)c1ccc2cc(Cl)ccc2n1

>  <score_type>  (13) 
oracle

>  <origin>  (13) 
autodockgpu

>  <m_score__min__energy>  (13) 
-8.5800000000000001

>  <m_primary>  (13) 
energy

>  <rmsd>  (13) 
2.2327929686579067

>  <m_score__min__rmsd>  (13) 
2.2327929686579067

>  <meeko>  (13) 
{"free_energy": -8.34, "intermolecular_energy": -9.83, "internal_energy": -1.72, "cluster_size": 29, "cluster_id": 1, "rank_in_cluster": 16}

>  <energy>  (13) 
-8.37

>  <cluster_rmsd>  (13) 
0.88

>  <cluster>  (13) 
1

$$$$

     RDKit          3D

 47 50  0  0  0  0  0  0  0  0999 V2000
  135.4510   71.9510  221.5680 O   0  0  0  0  0  0  0  0  0  0  0  0
  136.4510   72.2400  222.2730 C   0  0  0  0  0  0  0  0  0  0  0  0
  136.9820   73.5590  222.2930 N   0  0  0  0  0  0  0  0  0  0  0  0
  136.3440   74.5780  221.4780 C   0  0  0  0  0  0  0  0  0  0  0  0
  137.0860   75.8520  221.6660 C   0  0  0  0  0  0  0  0  0  0  0  0
  136.5000   76.9650  221.8340 O   0  0  0  0  0  0  0  0  0  0  0  0
  138.5100   75.8180  221.6570 N   0  0  0  0  0  0  0  0  0  0  0  0
  139.3140   76.5230  222.6490 C   0  0  0  0  0  0  0  0  0  0  0  0
  140.6550   76.9420  222.0830 C   0  0  0  0  0  0  0  0  0  0  0  0
  140.4290   77.2580  220.6060 C   0  0  0  0  0  0  0  0  0  0  0  0
  140.1100   75.9930  219.8380 C   0  0  0  0  0  0  0  0  0  0  0  0
  139.2270   75.0630  220.6420 C   0  0  1  0  0  0  0  0  0  0  0  0
  140.0280   73.9800  221.2520 C   0  0  0  0  0  0  0  0  0  0  0  0
  139.9060   73.4840  222.5140 N   0  0  0  0  0  0  0  0  0  0  0  0
  140.7990   72.5230  222.6850 N   0  0  0  0  0  0  0  0  0  0  0  0
  141.4970   72.3910  221.5450 C   0  0  0  0  0  0  0  0  0  0  0  0
  141.0190   73.2890  220.6660 N   0  0  0  0  0  0  0  0  0  0  0  0
  137.1230   71.2370  223.1110 C   0  0  0  0  0  0  0  0  0  0  0  0
  136.6390   69.9380  223.1580 C   0  0  0  0  0  0  0  0  0  0  0  0
  137.2900   69.0190  223.9530 C   0  0  0  0  0  0  0  0  0  0  0  0
  138.4000   69.3600  224.6920 C   0  0  0  0  0  0  0  0  0  0  0  0
  139.0850   68.4820  225.4990 C   0  0  0  0  0  0  0  0  0  0  0  0
  140.2060   68.8830  226.2270 C   0  0  0  0  0  0  0  0  0  0  0  0
  141.0800   67.7850  227.2510 Cl  0  0  0  0  0  0  0  0  0  0  0  0
  140.6500   70.1990  226.1430 C   0  0  0  0  0  0  0  0  0  0  0  0
  139.9430   71.0580  225.3250 C   0  0  0  0  0  0  0  0  0  0  0  0
  138.8460   70.6500  224.6180 C   0  0  0  0  0  0  0  0  0  0  0  0
  138.2100   71.5230  223.8500 N   0  0  0  0  0  0  0  0  0  0  0  0
  137.7960   73.8290  222.8560 H   0  0  0  0  0  0  0  0  0  0  0  0
  136.3746   74.2816  220.4191 H   0  0  0  0  0  0  0  0  0  0  0  0
  135.2927   74.7019  221.7772 H   0  0  0  0  0  0  0  0  0  0  0  0
  138.7692   77.4202  222.9781 H   0  0  0  0  0  0  0  0  0  0  0  0
  139.4943   75.8416  223.4935 H   0  0  0  0  0  0  0  0  0  0  0  0
  141.0264   77.8339  222.6089 H   0  0  0  0  0  0  0  0  0  0  0  0
  141.4031   76.1451  222.2070 H   0  0  0  0  0  0  0  0  0  0  0  0
  139.5888   77.9616  220.5104 H   0  0  0  0  0  0  0  0  0  0  0  0
  141.3453   77.7047  220.1926 H   0  0  0  0  0  0  0  0  0  0  0  0
  139.5909   76.2620  218.9063 H   0  0  0  0  0  0  0  0  0  0  0  0
  141.0548   75.4720  219.6238 H   0  0  0  0  0  0  0  0  0  0  0  0
  138.4926   74.5967  219.9687 H   0  0  0  0  0  0  0  0  0  0  0  0
  142.3132   71.6764  221.3632 H   0  0  0  0  0  0  0  0  0  0  0  0
  141.4090   73.3750  219.7000 H   0  0  0  0  0  0  0  0  0  0  0  0
  135.7540   69.6472  222.5730 H   0  0  0  0  0  0  0  0  0  0  0  0
  136.9127   67.9867  223.9979 H   0  0  0  0  0  0  0  0  0  0  0  0
  138.7414   67.4396  225.5723 H   0  0  0  0  0  0  0  0  0  0  0  0
  141.5303   70.5419  226.7065 H   0  0  0  0  0  0  0  0  0  0  0  0
  140.2728   72.1039  225.2394 H   0  0  0  0  0  0  0  0  0  0  0  0
  1  2  2  0
  2  3  1  0
  3  4  1  0
  4  5  1  0
  5  6  2  0
  5  7  1  0
  7  8  1  0
  8  9  1  0
  9 10  1  0
 10 11  1  0
 11 12  1  0
 12 13  1  0
 13 14  2  0
 14 15  1  0
 15 16  2  0
 16 17  1  0
  2 18  1  0
 18 19  2  0
 19 20  1  0
 20 21  2  0
 21 22  1  0
 22 23  2  0
 23 24  1  0
 23 25  1  0
 25 26  2  0
 26 27  1  0
 27 28  2  0
 12  7  1  0
 17 13  1  0
 28 18  1  0
 27 21  1  0
  3 29  1  0
  4 30  1  0
  4 31  1  0
  8 32  1  0
  8 33  1  0
  9 34  1  0
  9 35  1  0
 10 36  1  0
 10 37  1  0
 11 38  1  0
 11 39  1  0
 12 40  1  6
 16 41  1  0
 17 42  1  0
 19 43  1  0
 20 44  1  0
 22 45  1  0
 25 46  1  0
 26 47  1  0
M  END
>  <smiles>  (14) 
O=C(NCC(=O)N1CCCC[C@H]1c1nnc[nH]1)c1ccc2cc(Cl)ccc2n1

>  <score_type>  (14) 
oracle

>  <origin>  (14) 
autodockgpu

>  <m_score__min__energy>  (14) 
-8.5800000000000001

>  <m_primary>  (14) 
energy

>  <rmsd>  (14) 
3.471142886555011

>  <m_score__min__rmsd>  (14) 
3.471142886555011

>  <meeko>  (14) 
{"free_energy": -6.16, "intermolecular_energy": -7.66, "internal_energy": -2.94, "cluster_size": 1, "cluster_id": 9, "rank_in_cluster": 1}

>  <energy>  (14) 
-8.36

>  <cluster_rmsd>  (14) 
0.46

>  <cluster>  (14) 
1

$$$$

     RDKit          3D

 47 50  0  0  0  0  0  0  0  0999 V2000
  141.0260   73.7650  222.0690 O   0  0  0  0  0  0  0  0  0  0  0  0
  140.0260   73.0230  222.2500 C   0  0  0  0  0  0  0  0  0  0  0  0
  138.8430   73.1830  221.4790 N   0  0  0  0  0  0  0  0  0  0  0  0
  138.8060   74.2240  220.4670 C   0  0  0  0  0  0  0  0  0  0  0  0
  138.7090   75.5370  221.1570 C   0  0  0  0  0  0  0  0  0  0  0  0
  137.6550   75.9240  221.7480 O   0  0  0  0  0  0  0  0  0  0  0  0
  139.8490   76.3920  221.1540 N   0  0  0  0  0  0  0  0  0  0  0  0
  140.5570   76.7550  222.3770 C   0  0  0  0  0  0  0  0  0  0  0  0
  141.1980   78.1230  222.2640 C   0  0  0  0  0  0  0  0  0  0  0  0
  140.2820   78.9660  221.3800 C   0  0  0  0  0  0  0  0  0  0  0  0
  140.3060   78.4550  219.9560 C   0  0  0  0  0  0  0  0  0  0  0  0
  140.3590   76.9430  219.9080 C   0  0  1  0  0  0  0  0  0  0  0  0
  141.7380   76.4770  219.6450 C   0  0  0  0  0  0  0  0  0  0  0  0
  142.4760   76.6990  218.5230 N   0  0  0  0  0  0  0  0  0  0  0  0
  143.6580   76.1230  218.6670 N   0  0  0  0  0  0  0  0  0  0  0  0
  143.6920   75.5310  219.8720 C   0  0  0  0  0  0  0  0  0  0  0  0
  142.5090   75.7520  220.4710 N   0  0  0  0  0  0  0  0  0  0  0  0
  140.0250   71.9600  223.2630 C   0  0  0  0  0  0  0  0  0  0  0  0
  139.5270   70.7030  222.9480 C   0  0  0  0  0  0  0  0  0  0  0  0
  139.5390   69.7260  223.9200 C   0  0  0  0  0  0  0  0  0  0  0  0
  140.0310   69.9670  225.1820 C   0  0  0  0  0  0  0  0  0  0  0  0
  140.0660   69.0270  226.1860 C   0  0  0  0  0  0  0  0  0  0  0  0
  140.5760   69.3270  227.4490 C   0  0  0  0  0  0  0  0  0  0  0  0
  140.6260   68.1500  228.7260 Cl  0  0  0  0  0  0  0  0  0  0  0  0
  141.0630   70.6040  227.7120 C   0  0  0  0  0  0  0  0  0  0  0  0
  141.0160   71.5260  226.6870 C   0  0  0  0  0  0  0  0  0  0  0  0
  140.5120   71.2170  225.4530 C   0  0  0  0  0  0  0  0  0  0  0  0
  140.4940   72.1470  224.5100 N   0  0  0  0  0  0  0  0  0  0  0  0
  138.0090   72.5970  221.6000 H   0  0  0  0  0  0  0  0  0  0  0  0
  139.7237   74.1880  219.8616 H   0  0  0  0  0  0  0  0  0  0  0  0
  137.9415   74.0784  219.8025 H   0  0  0  0  0  0  0  0  0  0  0  0
  139.8432   76.7631  223.2139 H   0  0  0  0  0  0  0  0  0  0  0  0
  141.3527   76.0147  222.5471 H   0  0  0  0  0  0  0  0  0  0  0  0
  141.2907   78.5814  223.2596 H   0  0  0  0  0  0  0  0  0  0  0  0
  142.2076   78.0521  221.8331 H   0  0  0  0  0  0  0  0  0  0  0  0
  139.2539   78.9113  221.7673 H   0  0  0  0  0  0  0  0  0  0  0  0
  140.6355   80.0076  221.3911 H   0  0  0  0  0  0  0  0  0  0  0  0
  139.3976   78.7971  219.4385 H   0  0  0  0  0  0  0  0  0  0  0  0
  141.2088   78.8469  219.4647 H   0  0  0  0  0  0  0  0  0  0  0  0
  139.7239   76.5886  219.0827 H   0  0  0  0  0  0  0  0  0  0  0  0
  144.5367   74.9663  220.2934 H   0  0  0  0  0  0  0  0  0  0  0  0
  142.2990   75.3850  221.4260 H   0  0  0  0  0  0  0  0  0  0  0  0
  139.1312   70.4913  221.9438 H   0  0  0  0  0  0  0  0  0  0  0  0
  139.1449   68.7273  223.6805 H   0  0  0  0  0  0  0  0  0  0  0  0
  139.6828   68.0151  225.9880 H   0  0  0  0  0  0  0  0  0  0  0  0
  141.4698   70.8679  228.6994 H   0  0  0  0  0  0  0  0  0  0  0  0
  141.3960   72.5424  226.8675 H   0  0  0  0  0  0  0  0  0  0  0  0
  1  2  2  0
  2  3  1  0
  3  4  1  0
  4  5  1  0
  5  6  2  0
  5  7  1  0
  7  8  1  0
  8  9  1  0
  9 10  1  0
 10 11  1  0
 11 12  1  0
 12 13  1  0
 13 14  2  0
 14 15  1  0
 15 16  2  0
 16 17  1  0
  2 18  1  0
 18 19  2  0
 19 20  1  0
 20 21  2  0
 21 22  1  0
 22 23  2  0
 23 24  1  0
 23 25  1  0
 25 26  2  0
 26 27  1  0
 27 28  2  0
 12  7  1  0
 17 13  1  0
 28 18  1  0
 27 21  1  0
  3 29  1  0
  4 30  1  0
  4 31  1  0
  8 32  1  0
  8 33  1  0
  9 34  1  0
  9 35  1  0
 10 36  1  0
 10 37  1  0
 11 38  1  0
 11 39  1  0
 12 40  1  6
 16 41  1  0
 17 42  1  0
 19 43  1  0
 20 44  1  0
 22 45  1  0
 25 46  1  0
 26 47  1  0
M  END
>  <smiles>  (15) 
O=C(NCC(=O)N1CCCC[C@H]1c1nnc[nH]1)c1ccc2cc(Cl)ccc2n1

>  <score_type>  (15) 
oracle

>  <origin>  (15) 
autodockgpu

>  <m_score__min__energy>  (15) 
-8.5800000000000001

>  <m_primary>  (15) 
energy

>  <rmsd>  (15) 
2.940736509145654

>  <m_score__min__rmsd>  (15) 
2.940736509145654

>  <meeko>  (15) 
{"free_energy": -7.25, "intermolecular_energy": -8.74, "internal_energy": -2.21, "cluster_size": 1, "cluster_id": 5, "rank_in_cluster": 1}

>  <energy>  (15) 
-8.35

>  <cluster_rmsd>  (15) 
0.54

>  <cluster>  (15) 
1

$$$$

     RDKit          3D

 47 50  0  0  0  0  0  0  0  0999 V2000
  140.1600   72.6430  220.7840 O   0  0  0  0  0  0  0  0  0  0  0  0
  139.8800   72.9300  221.9770 C   0  0  0  0  0  0  0  0  0  0  0  0
  139.4940   74.2480  222.3440 N   0  0  0  0  0  0  0  0  0  0  0  0
  139.4250   75.2670  221.3120 C   0  0  0  0  0  0  0  0  0  0  0  0
  139.2350   76.5850  221.9740 C   0  0  0  0  0  0  0  0  0  0  0  0
  138.4640   76.7460  222.9680 O   0  0  0  0  0  0  0  0  0  0  0  0
  139.9510   77.7080  221.4690 N   0  0  0  0  0  0  0  0  0  0  0  0
  139.3040   78.7660  220.6990 C   0  0  0  0  0  0  0  0  0  0  0  0
  140.2620   79.4040  219.7150 C   0  0  0  0  0  0  0  0  0  0  0  0
  141.2150   78.3030  219.2520 C   0  0  0  0  0  0  0  0  0  0  0  0
  142.1200   77.8770  220.3880 C   0  0  0  0  0  0  0  0  0  0  0  0
  141.3800   77.8460  221.7070 C   0  0  1  0  0  0  0  0  0  0  0  0
  141.6720   79.0600  222.4990 C   0  0  0  0  0  0  0  0  0  0  0  0
  142.8480   79.7450  222.5420 N   0  0  0  0  0  0  0  0  0  0  0  0
  142.7150   80.7730  223.3630 N   0  0  0  0  0  0  0  0  0  0  0  0
  141.4640   80.7610  223.8520 C   0  0  0  0  0  0  0  0  0  0  0  0
  140.8260   79.7060  223.3170 N   0  0  0  0  0  0  0  0  0  0  0  0
  139.9380   71.9270  223.0480 C   0  0  0  0  0  0  0  0  0  0  0  0
  139.5190   70.6270  222.8030 C   0  0  0  0  0  0  0  0  0  0  0  0
  139.5850   69.7090  223.8290 C   0  0  0  0  0  0  0  0  0  0  0  0
  140.0530   70.0490  225.0770 C   0  0  0  0  0  0  0  0  0  0  0  0
  140.1390   69.1710  226.1320 C   0  0  0  0  0  0  0  0  0  0  0  0
  140.6220   69.5730  227.3780 C   0  0  0  0  0  0  0  0  0  0  0  0
  140.7360   68.4740  228.7190 Cl  0  0  0  0  0  0  0  0  0  0  0  0
  141.0300   70.8900  227.5700 C   0  0  0  0  0  0  0  0  0  0  0  0
  140.9330   71.7480  226.4930 C   0  0  0  0  0  0  0  0  0  0  0  0
  140.4560   71.3400  225.2770 C   0  0  0  0  0  0  0  0  0  0  0  0
  140.3880   72.2130  224.2840 N   0  0  0  0  0  0  0  0  0  0  0  0
  139.2590   74.5170  223.3060 H   0  0  0  0  0  0  0  0  0  0  0  0
  140.3592   75.2730  220.7313 H   0  0  0  0  0  0  0  0  0  0  0  0
  138.5882   75.0603  220.6286 H   0  0  0  0  0  0  0  0  0  0  0  0
  138.4562   78.3369  220.1449 H   0  0  0  0  0  0  0  0  0  0  0  0
  138.9625   79.5422  221.3997 H   0  0  0  0  0  0  0  0  0  0  0  0
  139.7079   79.8113  218.8565 H   0  0  0  0  0  0  0  0  0  0  0  0
  140.8133   80.2338  220.1814 H   0  0  0  0  0  0  0  0  0  0  0  0
  140.6295   77.4366  218.9105 H   0  0  0  0  0  0  0  0  0  0  0  0
  141.8335   78.6892  218.4284 H   0  0  0  0  0  0  0  0  0  0  0  0
  142.5118   76.8715  220.1746 H   0  0  0  0  0  0  0  0  0  0  0  0
  142.9380   78.6079  220.4692 H   0  0  0  0  0  0  0  0  0  0  0  0
  141.7234   76.9776  222.2883 H   0  0  0  0  0  0  0  0  0  0  0  0
  141.0382   81.4846  224.5627 H   0  0  0  0  0  0  0  0  0  0  0  0
  139.8310   79.4880  223.5510 H   0  0  0  0  0  0  0  0  0  0  0  0
  139.1423   70.3354  221.8115 H   0  0  0  0  0  0  0  0  0  0  0  0
  139.2544   68.6762  223.6448 H   0  0  0  0  0  0  0  0  0  0  0  0
  139.8198   68.1279  225.9904 H   0  0  0  0  0  0  0  0  0  0  0  0
  141.4146   71.2335  228.5417 H   0  0  0  0  0  0  0  0  0  0  0  0
  141.2496   72.7942  226.6163 H   0  0  0  0  0  0  0  0  0  0  0  0
  1  2  2  0
  2  3  1  0
  3  4  1  0
  4  5  1  0
  5  6  2  0
  5  7  1  0
  7  8  1  0
  8  9  1  0
  9 10  1  0
 10 11  1  0
 11 12  1  0
 12 13  1  0
 13 14  2  0
 14 15  1  0
 15 16  2  0
 16 17  1  0
  2 18  1  0
 18 19  2  0
 19 20  1  0
 20 21  2  0
 21 22  1  0
 22 23  2  0
 23 24  1  0
 23 25  1  0
 25 26  2  0
 26 27  1  0
 27 28  2  0
 12  7  1  0
 17 13  1  0
 28 18  1  0
 27 21  1  0
  3 29  1  0
  4 30  1  0
  4 31  1  0
  8 32  1  0
  8 33  1  0
  9 34  1  0
  9 35  1  0
 10 36  1  0
 10 37  1  0
 11 38  1  0
 11 39  1  0
 12 40  1  1
 16 41  1  0
 17 42  1  0
 19 43  1  0
 20 44  1  0
 22 45  1  0
 25 46  1  0
 26 47  1  0
M  END
>  <smiles>  (16) 
O=C(NCC(=O)N1CCCC[C@H]1c1nnc[nH]1)c1ccc2cc(Cl)ccc2n1

>  <score_type>  (16) 
oracle

>  <origin>  (16) 
autodockgpu

>  <m_score__min__energy>  (16) 
-8.5800000000000001

>  <m_primary>  (16) 
energy

>  <rmsd>  (16) 
2.531617425599563

>  <m_score__min__rmsd>  (16) 
2.531617425599563

>  <meeko>  (16) 
{"free_energy": -7.87, "intermolecular_energy": -9.36, "internal_energy": -1.86, "cluster_size": 29, "cluster_id": 1, "rank_in_cluster": 27}

>  <energy>  (16) 
-8.34

>  <cluster_rmsd>  (16) 
0.6

>  <cluster>  (16) 
1

$$$$

     RDKit          3D

 47 50  0  0  0  0  0  0  0  0999 V2000
  139.1150   75.6640  223.0830 O   0  0  0  0  0  0  0  0  0  0  0  0
  139.6140   75.6870  221.9290 C   0  0  0  0  0  0  0  0  0  0  0  0
  139.2910   76.7220  221.0090 N   0  0  0  0  0  0  0  0  0  0  0  0
  138.3700   77.7630  221.4280 C   0  0  0  0  0  0  0  0  0  0  0  0
  139.0920   78.6760  222.3530 C   0  0  0  0  0  0  0  0  0  0  0  0
  138.5240   79.2420  223.3360 O   0  0  0  0  0  0  0  0  0  0  0  0
  140.4760   78.9210  222.1230 N   0  0  0  0  0  0  0  0  0  0  0  0
  141.5130   78.4680  223.0440 C   0  0  0  0  0  0  0  0  0  0  0  0
  142.7190   79.3840  223.0190 C   0  0  0  0  0  0  0  0  0  0  0  0
  142.1950   80.7940  222.7570 C   0  0  0  0  0  0  0  0  0  0  0  0
  141.6500   80.9010  221.3490 C   0  0  0  0  0  0  0  0  0  0  0  0
  140.9160   79.6430  220.9390 C   0  0  1  0  0  0  0  0  0  0  0  0
  141.7720   78.7930  220.0850 C   0  0  0  0  0  0  0  0  0  0  0  0
  142.2090   79.0760  218.8260 N   0  0  0  0  0  0  0  0  0  0  0  0
  142.9520   78.0700  218.3950 N   0  0  0  0  0  0  0  0  0  0  0  0
  143.0000   77.1400  219.3620 C   0  0  0  0  0  0  0  0  0  0  0  0
  142.2740   77.5890  220.4000 N   0  0  0  0  0  0  0  0  0  0  0  0
  140.5490   74.6520  221.4690 C   0  0  0  0  0  0  0  0  0  0  0  0
  140.1160   73.3420  221.3220 C   0  0  0  0  0  0  0  0  0  0  0  0
  141.0170   72.3930  220.8900 C   0  0  0  0  0  0  0  0  0  0  0  0
  142.3240   72.7140  220.6020 C   0  0  0  0  0  0  0  0  0  0  0  0
  143.2610   71.8060  220.1680 C   0  0  0  0  0  0  0  0  0  0  0  0
  144.5740   72.1880  219.8920 C   0  0  0  0  0  0  0  0  0  0  0  0
  145.7680   71.0520  219.3430 Cl  0  0  0  0  0  0  0  0  0  0  0  0
  144.9570   73.5160  220.0560 C   0  0  0  0  0  0  0  0  0  0  0  0
  143.9950   74.4050  220.4920 C   0  0  0  0  0  0  0  0  0  0  0  0
  142.7120   74.0160  220.7600 C   0  0  0  0  0  0  0  0  0  0  0  0
  141.8350   74.9170  221.1760 N   0  0  0  0  0  0  0  0  0  0  0  0
  139.6790   76.7720  220.0600 H   0  0  0  0  0  0  0  0  0  0  0  0
  138.0179   78.3244  220.5500 H   0  0  0  0  0  0  0  0  0  0  0  0
  137.4995   77.3197  221.9336 H   0  0  0  0  0  0  0  0  0  0  0  0
  141.1010   78.4479  224.0637 H   0  0  0  0  0  0  0  0  0  0  0  0
  141.8365   77.4642  222.7315 H   0  0  0  0  0  0  0  0  0  0  0  0
  143.2424   79.3478  223.9858 H   0  0  0  0  0  0  0  0  0  0  0  0
  143.4327   79.0766  222.2405 H   0  0  0  0  0  0  0  0  0  0  0  0
  141.3929   81.0217  223.4745 H   0  0  0  0  0  0  0  0  0  0  0  0
  143.0220   81.5097  222.8750 H   0  0  0  0  0  0  0  0  0  0  0  0
  140.9551   81.7522  221.2989 H   0  0  0  0  0  0  0  0  0  0  0  0
  142.4971   81.0446  220.6621 H   0  0  0  0  0  0  0  0  0  0  0  0
  140.0302   79.9220  220.3495 H   0  0  0  0  0  0  0  0  0  0  0  0
  143.5376   76.1816  219.3134 H   0  0  0  0  0  0  0  0  0  0  0  0
  142.1640   77.0320  221.2770 H   0  0  0  0  0  0  0  0  0  0  0  0
  139.0748   73.0666  221.5457 H   0  0  0  0  0  0  0  0  0  0  0  0
  140.6828   71.3516  220.7722 H   0  0  0  0  0  0  0  0  0  0  0  0
  142.9684   70.7539  220.0354 H   0  0  0  0  0  0  0  0  0  0  0  0
  145.9857   73.8443  219.8465 H   0  0  0  0  0  0  0  0  0  0  0  0
  144.2698   75.4613  220.6283 H   0  0  0  0  0  0  0  0  0  0  0  0
  1  2  2  0
  2  3  1  0
  3  4  1  0
  4  5  1  0
  5  6  2  0
  5  7  1  0
  7  8  1  0
  8  9  1  0
  9 10  1  0
 10 11  1  0
 11 12  1  0
 12 13  1  0
 13 14  2  0
 14 15  1  0
 15 16  2  0
 16 17  1  0
  2 18  1  0
 18 19  2  0
 19 20  1  0
 20 21  2  0
 21 22  1  0
 22 23  2  0
 23 24  1  0
 23 25  1  0
 25 26  2  0
 26 27  1  0
 27 28  2  0
 12  7  1  0
 17 13  1  0
 28 18  1  0
 27 21  1  0
  3 29  1  0
  4 30  1  0
  4 31  1  0
  8 32  1  0
  8 33  1  0
  9 34  1  0
  9 35  1  0
 10 36  1  0
 10 37  1  0
 11 38  1  0
 11 39  1  0
 12 40  1  6
 16 41  1  0
 17 42  1  0
 19 43  1  0
 20 44  1  0
 22 45  1  0
 25 46  1  0
 26 47  1  0
M  END
>  <smiles>  (17) 
O=C(NCC(=O)N1CCCC[C@H]1c1nnc[nH]1)c1ccc2cc(Cl)ccc2n1

>  <score_type>  (17) 
oracle

>  <origin>  (17) 
autodockgpu

>  <m_score__min__energy>  (17) 
-8.5800000000000001

>  <m_primary>  (17) 
energy

>  <rmsd>  (17) 
5.910832761914327

>  <m_score__min__rmsd>  (17) 
5.910832761914327

>  <meeko>  (17) 
{"free_energy": -6.41, "intermolecular_energy": -7.9, "internal_energy": -2.79, "cluster_size": 3, "cluster_id": 6, "rank_in_cluster": 2}

>  <energy>  (17) 
-8.33

>  <cluster_rmsd>  (17) 
0.74

>  <cluster>  (17) 
1

$$$$

     RDKit          3D

 47 50  0  0  0  0  0  0  0  0999 V2000
  138.5100   73.1780  221.8370 O   0  0  0  0  0  0  0  0  0  0  0  0
  139.6190   72.6470  222.1020 C   0  0  0  0  0  0  0  0  0  0  0  0
  140.7950   73.0030  221.3880 N   0  0  0  0  0  0  0  0  0  0  0  0
  140.6960   74.0010  220.3380 C   0  0  0  0  0  0  0  0  0  0  0  0
  141.5760   75.1430  220.6990 C   0  0  0  0  0  0  0  0  0  0  0  0
  142.8410   75.0540  220.7120 O   0  0  0  0  0  0  0  0  0  0  0  0
  140.9700   76.3860  221.0420 N   0  0  0  0  0  0  0  0  0  0  0  0
  140.6870   77.4180  220.0510 C   0  0  0  0  0  0  0  0  0  0  0  0
  140.7380   78.8040  220.6590 C   0  0  0  0  0  0  0  0  0  0  0  0
  141.8070   78.7650  221.7490 C   0  0  0  0  0  0  0  0  0  0  0  0
  141.3520   77.8990  222.9040 C   0  0  0  0  0  0  0  0  0  0  0  0
  140.6030   76.6760  222.4200 C   0  0  1  0  0  0  0  0  0  0  0  0
  139.1430   76.8720  222.5510 C   0  0  0  0  0  0  0  0  0  0  0  0
  138.4740   78.0580  222.5510 N   0  0  0  0  0  0  0  0  0  0  0  0
  137.1800   77.8200  222.6880 N   0  0  0  0  0  0  0  0  0  0  0  0
  137.0060   76.4910  222.7770 C   0  0  0  0  0  0  0  0  0  0  0  0
  138.2160   75.9120  222.6920 N   0  0  0  0  0  0  0  0  0  0  0  0
  139.7590   71.6340  223.1580 C   0  0  0  0  0  0  0  0  0  0  0  0
  139.3770   70.3230  222.9150 C   0  0  0  0  0  0  0  0  0  0  0  0
  139.5200   69.3960  223.9250 C   0  0  0  0  0  0  0  0  0  0  0  0
  140.0290   69.7400  225.1560 C   0  0  0  0  0  0  0  0  0  0  0  0
  140.1920   68.8540  226.1950 C   0  0  0  0  0  0  0  0  0  0  0  0
  140.7130   69.2600  227.4250 C   0  0  0  0  0  0  0  0  0  0  0  0
  140.9240   68.1510  228.7450 Cl  0  0  0  0  0  0  0  0  0  0  0  0
  141.0810   70.5880  227.6150 C   0  0  0  0  0  0  0  0  0  0  0  0
  140.9070   71.4540  226.5550 C   0  0  0  0  0  0  0  0  0  0  0  0
  140.3930   71.0430  225.3550 C   0  0  0  0  0  0  0  0  0  0  0  0
  140.2510   71.9230  224.3760 N   0  0  0  0  0  0  0  0  0  0  0  0
  141.7150   72.5900  221.5780 H   0  0  0  0  0  0  0  0  0  0  0  0
  141.0216   73.5680  219.3807 H   0  0  0  0  0  0  0  0  0  0  0  0
  139.6551   74.3412  220.2338 H   0  0  0  0  0  0  0  0  0  0  0  0
  141.4335   77.3538  219.2457 H   0  0  0  0  0  0  0  0  0  0  0  0
  139.6723   77.2508  219.6605 H   0  0  0  0  0  0  0  0  0  0  0  0
  141.0057   79.5452  219.8916 H   0  0  0  0  0  0  0  0  0  0  0  0
  139.7602   79.0910  221.0733 H   0  0  0  0  0  0  0  0  0  0  0  0
  142.7365   78.3517  221.3304 H   0  0  0  0  0  0  0  0  0  0  0  0
  141.9795   79.7875  222.1162 H   0  0  0  0  0  0  0  0  0  0  0  0
  142.2336   77.5747  223.4764 H   0  0  0  0  0  0  0  0  0  0  0  0
  140.6727   78.4927  223.5333 H   0  0  0  0  0  0  0  0  0  0  0  0
  140.8819   75.8152  223.0455 H   0  0  0  0  0  0  0  0  0  0  0  0
  136.0449   75.9697  222.8978 H   0  0  0  0  0  0  0  0  0  0  0  0
  138.3340   74.8750  222.7360 H   0  0  0  0  0  0  0  0  0  0  0  0
  138.9685   70.0292  221.9368 H   0  0  0  0  0  0  0  0  0  0  0  0
  139.2193   68.3539  223.7420 H   0  0  0  0  0  0  0  0  0  0  0  0
  139.9054   67.8014  226.0538 H   0  0  0  0  0  0  0  0  0  0  0  0
  141.4948   70.9344  228.5735 H   0  0  0  0  0  0  0  0  0  0  0  0
  141.1908   72.5096  226.6785 H   0  0  0  0  0  0  0  0  0  0  0  0
  1  2  2  0
  2  3  1  0
  3  4  1  0
  4  5  1  0
  5  6  2  0
  5  7  1  0
  7  8  1  0
  8  9  1  0
  9 10  1  0
 10 11  1  0
 11 12  1  0
 12 13  1  0
 13 14  2  0
 14 15  1  0
 15 16  2  0
 16 17  1  0
  2 18  1  0
 18 19  2  0
 19 20  1  0
 20 21  2  0
 21 22  1  0
 22 23  2  0
 23 24  1  0
 23 25  1  0
 25 26  2  0
 26 27  1  0
 27 28  2  0
 12  7  1  0
 17 13  1  0
 28 18  1  0
 27 21  1  0
  3 29  1  0
  4 30  1  0
  4 31  1  0
  8 32  1  0
  8 33  1  0
  9 34  1  0
  9 35  1  0
 10 36  1  0
 10 37  1  0
 11 38  1  0
 11 39  1  0
 12 40  1  1
 16 41  1  0
 17 42  1  0
 19 43  1  0
 20 44  1  0
 22 45  1  0
 25 46  1  0
 26 47  1  0
M  END
>  <smiles>  (18) 
O=C(NCC(=O)N1CCCC[C@H]1c1nnc[nH]1)c1ccc2cc(Cl)ccc2n1

>  <score_type>  (18) 
oracle

>  <origin>  (18) 
autodockgpu

>  <m_score__min__energy>  (18) 
-8.5800000000000001

>  <m_primary>  (18) 
energy

>  <rmsd>  (18) 
3.094385352189303

>  <m_score__min__rmsd>  (18) 
3.094385352189303

>  <meeko>  (18) 
{"free_energy": -7.38, "intermolecular_energy": -8.87, "internal_energy": -2.33, "cluster_size": 4, "cluster_id": 4, "rank_in_cluster": 2}

>  <energy>  (18) 
-8.33

>  <cluster_rmsd>  (18) 
0.61

>  <cluster>  (18) 
1

$$$$

     RDKit          3D

 47 50  0  0  0  0  0  0  0  0999 V2000
  140.1160   72.6360  220.7630 O   0  0  0  0  0  0  0  0  0  0  0  0
  139.8460   72.9240  221.9580 C   0  0  0  0  0  0  0  0  0  0  0  0
  139.4640   74.2420  222.3280 N   0  0  0  0  0  0  0  0  0  0  0  0
  139.3860   75.2600  221.2960 C   0  0  0  0  0  0  0  0  0  0  0  0
  139.2110   76.5800  221.9580 C   0  0  0  0  0  0  0  0  0  0  0  0
  138.4460   76.7470  222.9560 O   0  0  0  0  0  0  0  0  0  0  0  0
  139.9340   77.6970  221.4500 N   0  0  0  0  0  0  0  0  0  0  0  0
  139.2990   78.7430  220.6550 C   0  0  0  0  0  0  0  0  0  0  0  0
  140.2730   79.3690  219.6790 C   0  0  0  0  0  0  0  0  0  0  0  0
  141.2340   78.2630  219.2470 C   0  0  0  0  0  0  0  0  0  0  0  0
  142.1200   77.8530  220.4030 C   0  0  0  0  0  0  0  0  0  0  0  0
  141.3580   77.8390  221.7100 C   0  0  1  0  0  0  0  0  0  0  0  0
  141.6370   79.0640  222.4900 C   0  0  0  0  0  0  0  0  0  0  0  0
  140.8590   79.6050  223.4680 N   0  0  0  0  0  0  0  0  0  0  0  0
  141.4460   80.6970  223.9280 N   0  0  0  0  0  0  0  0  0  0  0  0
  142.5970   80.8680  223.2560 C   0  0  0  0  0  0  0  0  0  0  0  0
  142.7100   79.8610  222.3740 N   0  0  0  0  0  0  0  0  0  0  0  0
  139.9130   71.9210  223.0300 C   0  0  0  0  0  0  0  0  0  0  0  0
  139.5010   70.6190  222.7860 C   0  0  0  0  0  0  0  0  0  0  0  0
  139.5750   69.7010  223.8120 C   0  0  0  0  0  0  0  0  0  0  0  0
  140.0440   70.0450  225.0590 C   0  0  0  0  0  0  0  0  0  0  0  0
  140.1380   69.1680  226.1140 C   0  0  0  0  0  0  0  0  0  0  0  0
  140.6210   69.5730  227.3590 C   0  0  0  0  0  0  0  0  0  0  0  0
  140.7450   68.4760  228.7000 Cl  0  0  0  0  0  0  0  0  0  0  0  0
  141.0210   70.8920  227.5490 C   0  0  0  0  0  0  0  0  0  0  0  0
  140.9160   71.7500  226.4730 C   0  0  0  0  0  0  0  0  0  0  0  0
  140.4400   71.3390  225.2580 C   0  0  0  0  0  0  0  0  0  0  0  0
  140.3630   72.2110  224.2640 N   0  0  0  0  0  0  0  0  0  0  0  0
  139.2370   74.5120  223.2920 H   0  0  0  0  0  0  0  0  0  0  0  0
  140.3124   75.2608  220.7029 H   0  0  0  0  0  0  0  0  0  0  0  0
  138.5389   75.0563  220.6245 H   0  0  0  0  0  0  0  0  0  0  0  0
  138.4614   78.3051  220.0923 H   0  0  0  0  0  0  0  0  0  0  0  0
  138.9444   79.5281  221.3390 H   0  0  0  0  0  0  0  0  0  0  0  0
  139.7332   79.7645  218.8059 H   0  0  0  0  0  0  0  0  0  0  0  0
  140.8158   80.2054  220.1435 H   0  0  0  0  0  0  0  0  0  0  0  0
  140.6547   77.3917  218.9075 H   0  0  0  0  0  0  0  0  0  0  0  0
  141.8659   78.6388  218.4288 H   0  0  0  0  0  0  0  0  0  0  0  0
  142.5158   76.8451  220.2096 H   0  0  0  0  0  0  0  0  0  0  0  0
  142.9362   78.5855  220.4880 H   0  0  0  0  0  0  0  0  0  0  0  0
  141.6914   76.9787  222.3089 H   0  0  0  0  0  0  0  0  0  0  0  0
  143.3177   81.6861  223.4020 H   0  0  0  0  0  0  0  0  0  0  0  0
  143.5320   79.7810  221.7330 H   0  0  0  0  0  0  0  0  0  0  0  0
  139.1235   70.3254  221.7954 H   0  0  0  0  0  0  0  0  0  0  0  0
  139.2505   68.6660  223.6288 H   0  0  0  0  0  0  0  0  0  0  0  0
  139.8252   68.1229  225.9732 H   0  0  0  0  0  0  0  0  0  0  0  0
  141.4062   71.2377  228.5196 H   0  0  0  0  0  0  0  0  0  0  0  0
  141.2251   72.7984  226.5964 H   0  0  0  0  0  0  0  0  0  0  0  0
  1  2  2  0
  2  3  1  0
  3  4  1  0
  4  5  1  0
  5  6  2  0
  5  7  1  0
  7  8  1  0
  8  9  1  0
  9 10  1  0
 10 11  1  0
 11 12  1  0
 12 13  1  0
 13 14  2  0
 14 15  1  0
 15 16  2  0
 16 17  1  0
  2 18  1  0
 18 19  2  0
 19 20  1  0
 20 21  2  0
 21 22  1  0
 22 23  2  0
 23 24  1  0
 23 25  1  0
 25 26  2  0
 26 27  1  0
 27 28  2  0
 12  7  1  0
 17 13  1  0
 28 18  1  0
 27 21  1  0
  3 29  1  0
  4 30  1  0
  4 31  1  0
  8 32  1  0
  8 33  1  0
  9 34  1  0
  9 35  1  0
 10 36  1  0
 10 37  1  0
 11 38  1  0
 11 39  1  0
 12 40  1  1
 16 41  1  0
 17 42  1  0
 19 43  1  0
 20 44  1  0
 22 45  1  0
 25 46  1  0
 26 47  1  0
M  END
>  <smiles>  (19) 
O=C(NCC(=O)N1CCCC[C@H]1c1nnc[nH]1)c1ccc2cc(Cl)ccc2n1

>  <score_type>  (19) 
oracle

>  <origin>  (19) 
autodockgpu

>  <m_score__min__energy>  (19) 
-8.5800000000000001

>  <m_primary>  (19) 
energy

>  <rmsd>  (19) 
2.501084051692761

>  <m_score__min__rmsd>  (19) 
2.501084051692761

>  <meeko>  (19) 
{"free_energy": -8.45, "intermolecular_energy": -9.94, "internal_energy": -1.77, "cluster_size": 29, "cluster_id": 1, "rank_in_cluster": 10}

>  <energy>  (19) 
-8.32

>  <cluster_rmsd>  (19) 
0.47

>  <cluster>  (19) 
1

$$$$

     RDKit          3D

 47 50  0  0  0  0  0  0  0  0999 V2000
  141.2360   73.2210  220.2310 O   0  0  0  0  0  0  0  0  0  0  0  0
  140.7110   73.9920  221.0750 C   0  0  0  0  0  0  0  0  0  0  0  0
  139.7750   73.5100  222.0290 N   0  0  0  0  0  0  0  0  0  0  0  0
  139.4310   72.0990  222.0160 C   0  0  0  0  0  0  0  0  0  0  0  0
  139.6890   71.5470  223.3720 C   0  0  0  0  0  0  0  0  0  0  0  0
  140.3260   72.1880  224.2620 O   0  0  0  0  0  0  0  0  0  0  0  0
  139.1970   70.2460  223.6800 N   0  0  0  0  0  0  0  0  0  0  0  0
  139.2150   69.1530  222.7130 C   0  0  0  0  0  0  0  0  0  0  0  0
  138.0810   68.1780  222.9530 C   0  0  0  0  0  0  0  0  0  0  0  0
  136.9040   68.9960  223.4800 C   0  0  0  0  0  0  0  0  0  0  0  0
  137.2050   69.5210  224.8670 C   0  0  0  0  0  0  0  0  0  0  0  0
  138.6500   69.9520  224.9960 C   0  0  1  0  0  0  0  0  0  0  0  0
  139.4460   68.9130  225.6830 C   0  0  0  0  0  0  0  0  0  0  0  0
  139.1700   67.5800  225.7460 N   0  0  0  0  0  0  0  0  0  0  0  0
  140.1170   66.9800  226.4490 N   0  0  0  0  0  0  0  0  0  0  0  0
  141.0030   67.9110  226.8400 C   0  0  0  0  0  0  0  0  0  0  0  0
  140.5870   69.0980  226.3670 N   0  0  0  0  0  0  0  0  0  0  0  0
  141.0340   75.4240  221.1190 C   0  0  0  0  0  0  0  0  0  0  0  0
  141.9190   75.9640  220.1970 C   0  0  0  0  0  0  0  0  0  0  0  0
  142.2020   77.3110  220.2650 C   0  0  0  0  0  0  0  0  0  0  0  0
  141.6320   78.1240  221.2170 C   0  0  0  0  0  0  0  0  0  0  0  0
  141.8810   79.4720  221.3270 C   0  0  0  0  0  0  0  0  0  0  0  0
  141.2730   80.2480  222.3140 C   0  0  0  0  0  0  0  0  0  0  0  0
  141.5790   81.9520  222.4640 Cl  0  0  0  0  0  0  0  0  0  0  0  0
  140.3920   79.6560  223.2150 C   0  0  0  0  0  0  0  0  0  0  0  0
  140.1610   78.3020  223.0800 C   0  0  0  0  0  0  0  0  0  0  0  0
  140.7650   77.5530  222.1080 C   0  0  0  0  0  0  0  0  0  0  0  0
  140.5020   76.2580  222.0310 N   0  0  0  0  0  0  0  0  0  0  0  0
  139.3280   74.1100  222.7310 H   0  0  0  0  0  0  0  0  0  0  0  0
  138.3682   71.9769  221.7600 H   0  0  0  0  0  0  0  0  0  0  0  0
  140.0357   71.5667  221.2670 H   0  0  0  0  0  0  0  0  0  0  0  0
  139.1183   69.5708  221.7000 H   0  0  0  0  0  0  0  0  0  0  0  0
  140.1652   68.6101  222.8247 H   0  0  0  0  0  0  0  0  0  0  0  0
  137.8049   67.6786  222.0126 H   0  0  0  0  0  0  0  0  0  0  0  0
  138.3745   67.3983  223.6713 H   0  0  0  0  0  0  0  0  0  0  0  0
  136.7202   69.8438  222.8036 H   0  0  0  0  0  0  0  0  0  0  0  0
  136.0144   68.3508  223.5281 H   0  0  0  0  0  0  0  0  0  0  0  0
  136.5549   70.3846  225.0711 H   0  0  0  0  0  0  0  0  0  0  0  0
  137.0205   68.7123  225.5895 H   0  0  0  0  0  0  0  0  0  0  0  0
  138.6970   70.8658  225.6065 H   0  0  0  0  0  0  0  0  0  0  0  0
  141.9076   67.7334  227.4402 H   0  0  0  0  0  0  0  0  0  0  0  0
  141.1190   69.9790  226.5440 H   0  0  0  0  0  0  0  0  0  0  0  0
  142.3849   75.3303  219.4280 H   0  0  0  0  0  0  0  0  0  0  0  0
  142.9027   77.7479  219.5383 H   0  0  0  0  0  0  0  0  0  0  0  0
  142.5757   79.9494  220.6203 H   0  0  0  0  0  0  0  0  0  0  0  0
  139.8995   80.2442  224.0033 H   0  0  0  0  0  0  0  0  0  0  0  0
  139.4680   77.8088  223.7775 H   0  0  0  0  0  0  0  0  0  0  0  0
  1  2  2  0
  2  3  1  0
  3  4  1  0
  4  5  1  0
  5  6  2  0
  5  7  1  0
  7  8  1  0
  8  9  1  0
  9 10  1  0
 10 11  1  0
 11 12  1  0
 12 13  1  0
 13 14  2  0
 14 15  1  0
 15 16  2  0
 16 17  1  0
  2 18  1  0
 18 19  2  0
 19 20  1  0
 20 21  2  0
 21 22  1  0
 22 23  2  0
 23 24  1  0
 23 25  1  0
 25 26  2  0
 26 27  1  0
 27 28  2  0
 12  7  1  0
 17 13  1  0
 28 18  1  0
 27 21  1  0
  3 29  1  0
  4 30  1  0
  4 31  1  0
  8 32  1  0
  8 33  1  0
  9 34  1  0
  9 35  1  0
 10 36  1  0
 10 37  1  0
 11 38  1  0
 11 39  1  0
 12 40  1  1
 16 41  1  0
 17 42  1  0
 19 43  1  0
 20 44  1  0
 22 45  1  0
 25 46  1  0
 26 47  1  0
M  END
>  <smiles>  (20) 
O=C(NCC(=O)N1CCCC[C@H]1c1nnc[nH]1)c1ccc2cc(Cl)ccc2n1

>  <score_type>  (20) 
oracle

>  <origin>  (20) 
autodockgpu

>  <m_score__min__energy>  (20) 
-8.5800000000000001

>  <m_primary>  (20) 
energy

>  <rmsd>  (20) 
8.7146683483509

>  <m_score__min__rmsd>  (20) 
8.7146683483509

>  <meeko>  (20) 
{"free_energy": -7.53, "intermolecular_energy": -9.02, "internal_energy": -1.69, "cluster_size": 1, "cluster_id": 3, "rank_in_cluster": 1}

>  <energy>  (20) 
-8.31

>  <cluster_rmsd>  (20) 
0.92

>  <cluster>  (20) 
1

$$$$

     RDKit          3D

 47 50  0  0  0  0  0  0  0  0999 V2000
  140.4240   75.2880  222.3460 O   0  0  0  0  0  0  0  0  0  0  0  0
  140.6110   76.1270  221.4280 C   0  0  0  0  0  0  0  0  0  0  0  0
  139.9150   77.3670  221.4120 N   0  0  0  0  0  0  0  0  0  0  0  0
  138.9770   77.6530  222.4830 C   0  0  0  0  0  0  0  0  0  0  0  0
  139.3590   78.9500  223.1000 C   0  0  0  0  0  0  0  0  0  0  0  0
  138.6240   79.5480  223.9440 O   0  0  0  0  0  0  0  0  0  0  0  0
  140.6000   79.5400  222.7280 N   0  0  0  0  0  0  0  0  0  0  0  0
  141.8860   78.9710  223.1200 C   0  0  0  0  0  0  0  0  0  0  0  0
  142.9490   80.0400  223.2600 C   0  0  0  0  0  0  0  0  0  0  0  0
  142.2440   81.2970  223.7650 C   0  0  0  0  0  0  0  0  0  0  0  0
  141.3320   81.8570  222.6950 C   0  0  0  0  0  0  0  0  0  0  0  0
  140.6340   80.7550  221.9280 C   0  0  1  0  0  0  0  0  0  0  0  0
  141.3020   80.5180  220.6300 C   0  0  0  0  0  0  0  0  0  0  0  0
  141.7130   79.3200  220.1280 N   0  0  0  0  0  0  0  0  0  0  0  0
  142.2640   79.5190  218.9430 N   0  0  0  0  0  0  0  0  0  0  0  0
  142.2130   80.8340  218.6720 C   0  0  0  0  0  0  0  0  0  0  0  0
  141.6200   81.4440  219.7120 N   0  0  0  0  0  0  0  0  0  0  0  0
  141.5520   75.8750  220.3290 C   0  0  0  0  0  0  0  0  0  0  0  0
  142.4900   74.8580  220.4400 C   0  0  0  0  0  0  0  0  0  0  0  0
  143.3590   74.6460  219.3920 C   0  0  0  0  0  0  0  0  0  0  0  0
  143.3170   75.4120  218.2490 C   0  0  0  0  0  0  0  0  0  0  0  0
  144.1610   75.2400  217.1770 C   0  0  0  0  0  0  0  0  0  0  0  0
  144.0730   76.0480  216.0430 C   0  0  0  0  0  0  0  0  0  0  0  0
  145.1320   75.8420  214.6820 Cl  0  0  0  0  0  0  0  0  0  0  0  0
  143.1130   77.0540  215.9830 C   0  0  0  0  0  0  0  0  0  0  0  0
  142.2800   77.2030  217.0740 C   0  0  0  0  0  0  0  0  0  0  0  0
  142.3780   76.4040  218.1800 C   0  0  0  0  0  0  0  0  0  0  0  0
  141.5490   76.5970  219.1940 N   0  0  0  0  0  0  0  0  0  0  0  0
  140.0430   78.0740  220.6800 H   0  0  0  0  0  0  0  0  0  0  0  0
  137.9569   77.7199  222.0768 H   0  0  0  0  0  0  0  0  0  0  0  0
  139.0035   76.8514  223.2358 H   0  0  0  0  0  0  0  0  0  0  0  0
  141.7691   78.4554  224.0846 H   0  0  0  0  0  0  0  0  0  0  0  0
  142.2051   78.2691  222.3355 H   0  0  0  0  0  0  0  0  0  0  0  0
  143.7158   79.7200  223.9809 H   0  0  0  0  0  0  0  0  0  0  0  0
  143.4508   80.2270  222.2992 H   0  0  0  0  0  0  0  0  0  0  0  0
  141.6474   81.0453  224.6543 H   0  0  0  0  0  0  0  0  0  0  0  0
  143.0016   82.0529  224.0192 H   0  0  0  0  0  0  0  0  0  0  0  0
  140.5740   82.4968  223.1705 H   0  0  0  0  0  0  0  0  0  0  0  0
  141.9447   82.4350  221.9875 H   0  0  0  0  0  0  0  0  0  0  0  0
  139.5995   81.0655  221.7198 H   0  0  0  0  0  0  0  0  0  0  0  0
  142.5893   81.3236  217.7617 H   0  0  0  0  0  0  0  0  0  0  0  0
  141.4670   82.4780  219.7300 H   0  0  0  0  0  0  0  0  0  0  0  0
  142.5386   74.2347  221.3451 H   0  0  0  0  0  0  0  0  0  0  0  0
  144.1066   73.8429  219.4708 H   0  0  0  0  0  0  0  0  0  0  0  0
  144.9228   74.4474  217.2144 H   0  0  0  0  0  0  0  0  0  0  0  0
  143.0215   77.7049  215.1010 H   0  0  0  0  0  0  0  0  0  0  0  0
  141.5121   77.9903  217.0531 H   0  0  0  0  0  0  0  0  0  0  0  0
  1  2  2  0
  2  3  1  0
  3  4  1  0
  4  5  1  0
  5  6  2  0
  5  7  1  0
  7  8  1  0
  8  9  1  0
  9 10  1  0
 10 11  1  0
 11 12  1  0
 12 13  1  0
 13 14  2  0
 14 15  1  0
 15 16  2  0
 16 17  1  0
  2 18  1  0
 18 19  2  0
 19 20  1  0
 20 21  2  0
 21 22  1  0
 22 23  2  0
 23 24  1  0
 23 25  1  0
 25 26  2  0
 26 27  1  0
 27 28  2  0
 12  7  1  0
 17 13  1  0
 28 18  1  0
 27 21  1  0
  3 29  1  0
  4 30  1  0
  4 31  1  0
  8 32  1  0
  8 33  1  0
  9 34  1  0
  9 35  1  0
 10 36  1  0
 10 37  1  0
 11 38  1  0
 11 39  1  0
 12 40  1  6
 16 41  1  0
 17 42  1  0
 19 43  1  0
 20 44  1  0
 22 45  1  0
 25 46  1  0
 26 47  1  0
M  END
>  <smiles>  (21) 
O=C(NCC(=O)N1CCCC[C@H]1c1nnc[nH]1)c1ccc2cc(Cl)ccc2n1

>  <score_type>  (21) 
oracle

>  <origin>  (21) 
autodockgpu

>  <m_score__min__energy>  (21) 
-8.5800000000000001

>  <m_primary>  (21) 
energy

>  <rmsd>  (21) 
8.011279207457832

>  <m_score__min__rmsd>  (21) 
8.011279207457832

>  <meeko>  (21) 
{"free_energy": -5.87, "intermolecular_energy": -7.36, "internal_energy": -3.0, "cluster_size": 1, "cluster_id": 11, "rank_in_cluster": 1}

>  <energy>  (21) 
-8.27

>  <cluster_rmsd>  (21) 
0.81

>  <cluster>  (21) 
1

$$$$

     RDKit          3D

 47 50  0  0  0  0  0  0  0  0999 V2000
  139.8090   72.2630  220.6650 O   0  0  0  0  0  0  0  0  0  0  0  0
  139.7370   72.6170  221.8700 C   0  0  0  0  0  0  0  0  0  0  0  0
  139.5480   73.9800  222.2260 N   0  0  0  0  0  0  0  0  0  0  0  0
  139.4370   74.9670  221.1670 C   0  0  0  0  0  0  0  0  0  0  0  0
  138.9890   76.2490  221.7720 C   0  0  0  0  0  0  0  0  0  0  0  0
  138.0280   76.3160  222.5980 O   0  0  0  0  0  0  0  0  0  0  0  0
  139.6690   77.4460  221.4090 N   0  0  0  0  0  0  0  0  0  0  0  0
  138.9640   78.6350  220.9410 C   0  0  0  0  0  0  0  0  0  0  0  0
  139.8150   79.4490  219.9890 C   0  0  0  0  0  0  0  0  0  0  0  0
  140.6760   78.4560  219.2110 C   0  0  0  0  0  0  0  0  0  0  0  0
  141.6980   77.8150  220.1250 C   0  0  0  0  0  0  0  0  0  0  0  0
  141.1190   77.5310  221.4940 C   0  0  1  0  0  0  0  0  0  0  0  0
  141.5350   78.5670  222.4620 C   0  0  0  0  0  0  0  0  0  0  0  0
  140.9180   78.8870  223.6340 N   0  0  0  0  0  0  0  0  0  0  0  0
  141.5920   79.8630  224.2200 N   0  0  0  0  0  0  0  0  0  0  0  0
  142.6390   80.1780  223.4400 C   0  0  0  0  0  0  0  0  0  0  0  0
  142.6010   79.3780  222.3600 N   0  0  0  0  0  0  0  0  0  0  0  0
  139.8440   71.6480  222.9690 C   0  0  0  0  0  0  0  0  0  0  0  0
  139.4460   70.3330  222.7750 C   0  0  0  0  0  0  0  0  0  0  0  0
  139.5580   69.4480  223.8250 C   0  0  0  0  0  0  0  0  0  0  0  0
  140.0520   69.8360  225.0490 C   0  0  0  0  0  0  0  0  0  0  0  0
  140.1850   68.9920  226.1280 C   0  0  0  0  0  0  0  0  0  0  0  0
  140.6920   69.4420  227.3480 C   0  0  0  0  0  0  0  0  0  0  0  0
  140.8640   68.3870  228.7170 Cl  0  0  0  0  0  0  0  0  0  0  0  0
  141.0770   70.7710  227.4890 C   0  0  0  0  0  0  0  0  0  0  0  0
  140.9330   71.5950  226.3900 C   0  0  0  0  0  0  0  0  0  0  0  0
  140.4330   71.1410  225.2000 C   0  0  0  0  0  0  0  0  0  0  0  0
  140.3200   71.9810  224.1830 N   0  0  0  0  0  0  0  0  0  0  0  0
  139.4840   74.3040  223.1970 H   0  0  0  0  0  0  0  0  0  0  0  0
  140.4150   75.1054  220.6829 H   0  0  0  0  0  0  0  0  0  0  0  0
  138.7139   74.6314  220.4090 H   0  0  0  0  0  0  0  0  0  0  0  0
  138.0454   78.3241  220.4219 H   0  0  0  0  0  0  0  0  0  0  0  0
  138.7290   79.2616  221.8140 H   0  0  0  0  0  0  0  0  0  0  0  0
  139.1740   80.0170  219.2987 H   0  0  0  0  0  0  0  0  0  0  0  0
  140.4397   80.1709  220.5355 H   0  0  0  0  0  0  0  0  0  0  0  0
  140.0310   77.6741  218.7835 H   0  0  0  0  0  0  0  0  0  0  0  0
  141.2022   78.9926  218.4078 H   0  0  0  0  0  0  0  0  0  0  0  0
  142.0348   76.8688  219.6763 H   0  0  0  0  0  0  0  0  0  0  0  0
  142.5392   78.5136  220.2449 H   0  0  0  0  0  0  0  0  0  0  0  0
  141.5056   76.5654  221.8521 H   0  0  0  0  0  0  0  0  0  0  0  0
  143.3927   80.9519  223.6476 H   0  0  0  0  0  0  0  0  0  0  0  0
  143.3200   79.4380  221.6050 H   0  0  0  0  0  0  0  0  0  0  0  0
  139.0493   70.0040  221.8032 H   0  0  0  0  0  0  0  0  0  0  0  0
  139.2442   68.4036  223.6809 H   0  0  0  0  0  0  0  0  0  0  0  0
  139.8848   67.9386  226.0265 H   0  0  0  0  0  0  0  0  0  0  0  0
  141.4806   71.1511  228.4391 H   0  0  0  0  0  0  0  0  0  0  0  0
  141.2300   72.6508  226.4741 H   0  0  0  0  0  0  0  0  0  0  0  0
  1  2  2  0
  2  3  1  0
  3  4  1  0
  4  5  1  0
  5  6  2  0
  5  7  1  0
  7  8  1  0
  8  9  1  0
  9 10  1  0
 10 11  1  0
 11 12  1  0
 12 13  1  0
 13 14  2  0
 14 15  1  0
 15 16  2  0
 16 17  1  0
  2 18  1  0
 18 19  2  0
 19 20  1  0
 20 21  2  0
 21 22  1  0
 22 23  2  0
 23 24  1  0
 23 25  1  0
 25 26  2  0
 26 27  1  0
 27 28  2  0
 12  7  1  0
 17 13  1  0
 28 18  1  0
 27 21  1  0
  3 29  1  0
  4 30  1  0
  4 31  1  0
  8 32  1  0
  8 33  1  0
  9 34  1  0
  9 35  1  0
 10 36  1  0
 10 37  1  0
 11 38  1  0
 11 39  1  0
 12 40  1  1
 16 41  1  0
 17 42  1  0
 19 43  1  0
 20 44  1  0
 22 45  1  0
 25 46  1  0
 26 47  1  0
M  END
>  <smiles>  (22) 
O=C(NCC(=O)N1CCCC[C@H]1c1nnc[nH]1)c1ccc2cc(Cl)ccc2n1

>  <score_type>  (22) 
oracle

>  <origin>  (22) 
autodockgpu

>  <m_score__min__energy>  (22) 
-8.5800000000000001

>  <m_primary>  (22) 
energy

>  <rmsd>  (22) 
2.3966280142900374

>  <m_score__min__rmsd>  (22) 
2.3966280142900374

>  <meeko>  (22) 
{"free_energy": -8.35, "intermolecular_energy": -9.85, "internal_energy": -1.66, "cluster_size": 29, "cluster_id": 1, "rank_in_cluster": 15}

>  <energy>  (22) 
-8.19

>  <cluster_rmsd>  (22) 
0.64

>  <cluster>  (22) 
1

$$$$

     RDKit          3D

 47 50  0  0  0  0  0  0  0  0999 V2000
  140.6470   73.7380  221.8440 O   0  0  0  0  0  0  0  0  0  0  0  0
  140.9700   74.9370  221.6390 C   0  0  0  0  0  0  0  0  0  0  0  0
  142.2000   75.2700  221.0100 N   0  0  0  0  0  0  0  0  0  0  0  0
  143.0870   74.1950  220.6020 C   0  0  0  0  0  0  0  0  0  0  0  0
  143.4850   74.4340  219.1900 C   0  0  0  0  0  0  0  0  0  0  0  0
  144.4510   73.8230  218.6390 O   0  0  0  0  0  0  0  0  0  0  0  0
  142.7480   75.3850  218.4270 N   0  0  0  0  0  0  0  0  0  0  0  0
  141.3480   75.1840  218.0690 C   0  0  0  0  0  0  0  0  0  0  0  0
  141.0040   75.8660  216.7620 C   0  0  0  0  0  0  0  0  0  0  0  0
  142.2550   75.7970  215.8880 C   0  0  0  0  0  0  0  0  0  0  0  0
  143.3470   76.6760  216.4580 C   0  0  0  0  0  0  0  0  0  0  0  0
  143.3760   76.6150  217.9700 C   0  0  1  0  0  0  0  0  0  0  0  0
  142.7100   77.8000  218.5530 C   0  0  0  0  0  0  0  0  0  0  0  0
  141.8780   77.8230  219.6310 N   0  0  0  0  0  0  0  0  0  0  0  0
  141.4870   79.0680  219.8440 N   0  0  0  0  0  0  0  0  0  0  0  0
  142.0580   79.8520  218.9140 C   0  0  0  0  0  0  0  0  0  0  0  0
  142.8100   79.0680  218.1230 N   0  0  0  0  0  0  0  0  0  0  0  0
  140.0990   76.0510  222.0370 C   0  0  0  0  0  0  0  0  0  0  0  0
  138.7220   75.8820  222.0560 C   0  0  0  0  0  0  0  0  0  0  0  0
  137.9320   76.9460  222.4340 C   0  0  0  0  0  0  0  0  0  0  0  0
  138.4730   78.1600  222.7890 C   0  0  0  0  0  0  0  0  0  0  0  0
  137.7290   79.2510  223.1730 C   0  0  0  0  0  0  0  0  0  0  0  0
  138.3330   80.4590  223.5230 C   0  0  0  0  0  0  0  0  0  0  0  0
  137.4050   81.8450  224.0090 Cl  0  0  0  0  0  0  0  0  0  0  0  0
  139.7190   80.5750  223.4870 C   0  0  0  0  0  0  0  0  0  0  0  0
  140.4400   79.4640  223.0980 C   0  0  0  0  0  0  0  0  0  0  0  0
  139.8340   78.2860  222.7570 C   0  0  0  0  0  0  0  0  0  0  0  0
  140.5820   77.2560  222.3920 N   0  0  0  0  0  0  0  0  0  0  0  0
  142.4950   76.2360  220.8280 H   0  0  0  0  0  0  0  0  0  0  0  0
  143.9800   74.1847  221.2442 H   0  0  0  0  0  0  0  0  0  0  0  0
  142.5770   73.2248  220.6947 H   0  0  0  0  0  0  0  0  0  0  0  0
  141.1560   74.1054  217.9703 H   0  0  0  0  0  0  0  0  0  0  0  0
  140.7237   75.6230  218.8611 H   0  0  0  0  0  0  0  0  0  0  0  0
  140.1691   75.3448  216.2707 H   0  0  0  0  0  0  0  0  0  0  0  0
  140.6952   76.9085  216.9291 H   0  0  0  0  0  0  0  0  0  0  0  0
  142.6114   74.7571  215.8470 H   0  0  0  0  0  0  0  0  0  0  0  0
  142.0037   76.1510  214.8773 H   0  0  0  0  0  0  0  0  0  0  0  0
  144.3183   76.3376  216.0680 H   0  0  0  0  0  0  0  0  0  0  0  0
  143.1451   77.7150  216.1585 H   0  0  0  0  0  0  0  0  0  0  0  0
  144.4229   76.6197  218.3077 H   0  0  0  0  0  0  0  0  0  0  0  0
  141.9324   80.9405  218.8175 H   0  0  0  0  0  0  0  0  0  0  0  0
  143.3550   79.4560  217.3210 H   0  0  0  0  0  0  0  0  0  0  0  0
  138.2704   74.9191  221.7753 H   0  0  0  0  0  0  0  0  0  0  0  0
  136.8393   76.8212  222.4524 H   0  0  0  0  0  0  0  0  0  0  0  0
  136.6325   79.1694  223.2049 H   0  0  0  0  0  0  0  0  0  0  0  0
  140.2208   81.5156  223.7580 H   0  0  0  0  0  0  0  0  0  0  0  0
  141.5375   79.5280  223.0610 H   0  0  0  0  0  0  0  0  0  0  0  0
  1  2  2  0
  2  3  1  0
  3  4  1  0
  4  5  1  0
  5  6  2  0
  5  7  1  0
  7  8  1  0
  8  9  1  0
  9 10  1  0
 10 11  1  0
 11 12  1  0
 12 13  1  0
 13 14  2  0
 14 15  1  0
 15 16  2  0
 16 17  1  0
  2 18  1  0
 18 19  2  0
 19 20  1  0
 20 21  2  0
 21 22  1  0
 22 23  2  0
 23 24  1  0
 23 25  1  0
 25 26  2  0
 26 27  1  0
 27 28  2  0
 12  7  1  0
 17 13  1  0
 28 18  1  0
 27 21  1  0
  3 29  1  0
  4 30  1  0
  4 31  1  0
  8 32  1  0
  8 33  1  0
  9 34  1  0
  9 35  1  0
 10 36  1  0
 10 37  1  0
 11 38  1  0
 11 39  1  0
 12 40  1  1
 16 41  1  0
 17 42  1  0
 19 43  1  0
 20 44  1  0
 22 45  1  0
 25 46  1  0
 26 47  1  0
M  END
>  <smiles>  (23) 
O=C(NCC(=O)N1CCCC[C@H]1c1nnc[nH]1)c1ccc2cc(Cl)ccc2n1

>  <score_type>  (23) 
oracle

>  <origin>  (23) 
autodockgpu

>  <m_score__min__energy>  (23) 
-8.5800000000000001

>  <m_primary>  (23) 
energy

>  <rmsd>  (23) 
6.456509436792545

>  <m_score__min__rmsd>  (23) 
6.456509436792545

>  <meeko>  (23) 
{"free_energy": -6.1, "intermolecular_energy": -7.59, "internal_energy": -2.99, "cluster_size": 2, "cluster_id": 7, "rank_in_cluster": 2}

>  <energy>  (23) 
-7.95

>  <cluster_rmsd>  (23) 
1.72

>  <cluster>  (23) 
1

$$$$

     RDKit          3D

 47 50  0  0  0  0  0  0  0  0999 V2000
  140.0220   74.5540  221.9850 O   0  0  0  0  0  0  0  0  0  0  0  0
  140.6880   75.6040  221.7960 C   0  0  0  0  0  0  0  0  0  0  0  0
  141.8960   75.5840  221.0460 N   0  0  0  0  0  0  0  0  0  0  0  0
  142.3530   74.3200  220.4960 C   0  0  0  0  0  0  0  0  0  0  0  0
  142.9910   74.5910  219.1810 C   0  0  0  0  0  0  0  0  0  0  0  0
  143.9800   73.9230  218.7500 O   0  0  0  0  0  0  0  0  0  0  0  0
  142.4660   75.6410  218.3740 N   0  0  0  0  0  0  0  0  0  0  0  0
  141.0970   75.6310  217.8710 C   0  0  0  0  0  0  0  0  0  0  0  0
  140.9810   76.3720  216.5550 C   0  0  0  0  0  0  0  0  0  0  0  0
  142.2960   76.1510  215.8100 C   0  0  0  0  0  0  0  0  0  0  0  0
  143.4270   76.8700  216.5130 C   0  0  0  0  0  0  0  0  0  0  0  0
  143.2910   76.7850  218.0170 C   0  0  1  0  0  0  0  0  0  0  0  0
  142.7270   78.0380  218.5630 C   0  0  0  0  0  0  0  0  0  0  0  0
  141.9680   78.1730  219.6850 N   0  0  0  0  0  0  0  0  0  0  0  0
  141.6570   79.4490  219.8410 N   0  0  0  0  0  0  0  0  0  0  0  0
  142.2090   80.1420  218.8310 C   0  0  0  0  0  0  0  0  0  0  0  0
  142.8670   79.2700  218.0480 N   0  0  0  0  0  0  0  0  0  0  0  0
  140.2580   76.9010  222.3360 C   0  0  0  0  0  0  0  0  0  0  0  0
  141.2040   77.8210  222.7630 C   0  0  0  0  0  0  0  0  0  0  0  0
  140.7700   79.0290  223.2650 C   0  0  0  0  0  0  0  0  0  0  0  0
  139.4320   79.3380  223.3500 C   0  0  0  0  0  0  0  0  0  0  0  0
  138.9470   80.5280  223.8420 C   0  0  0  0  0  0  0  0  0  0  0  0
  137.5780   80.7870  223.9060 C   0  0  0  0  0  0  0  0  0  0  0  0
  136.9520   82.2850  224.5250 Cl  0  0  0  0  0  0  0  0  0  0  0  0
  136.6710   79.8290  223.4630 C   0  0  0  0  0  0  0  0  0  0  0  0
  137.1860   78.6450  222.9740 C   0  0  0  0  0  0  0  0  0  0  0  0
  138.5310   78.4040  222.9190 C   0  0  0  0  0  0  0  0  0  0  0  0
  138.9620   77.2480  222.4390 N   0  0  0  0  0  0  0  0  0  0  0  0
  142.4640   76.4210  220.8730 H   0  0  0  0  0  0  0  0  0  0  0  0
  143.0840   73.8598  221.1771 H   0  0  0  0  0  0  0  0  0  0  0  0
  141.5054   73.6298  220.3728 H   0  0  0  0  0  0  0  0  0  0  0  0
  140.7787   74.5885  217.7229 H   0  0  0  0  0  0  0  0  0  0  0  0
  140.4559   76.1366  218.6082 H   0  0  0  0  0  0  0  0  0  0  0  0
  140.1408   75.9728  215.9678 H   0  0  0  0  0  0  0  0  0  0  0  0
  140.7943   77.4435  216.7192 H   0  0  0  0  0  0  0  0  0  0  0  0
  142.5168   75.0739  215.7758 H   0  0  0  0  0  0  0  0  0  0  0  0
  142.1995   76.5492  214.7892 H   0  0  0  0  0  0  0  0  0  0  0  0
  144.3815   76.4120  216.2144 H   0  0  0  0  0  0  0  0  0  0  0  0
  143.3929   77.9308  216.2238 H   0  0  0  0  0  0  0  0  0  0  0  0
  144.2892   76.6486  218.4585 H   0  0  0  0  0  0  0  0  0  0  0  0
  142.1356   81.2281  218.6732 H   0  0  0  0  0  0  0  0  0  0  0  0
  143.3800   79.5790  217.1910 H   0  0  0  0  0  0  0  0  0  0  0  0
  142.2780   77.5914  222.7023 H   0  0  0  0  0  0  0  0  0  0  0  0
  141.5126   79.7651  223.6065 H   0  0  0  0  0  0  0  0  0  0  0  0
  139.6554   81.2928  224.1930 H   0  0  0  0  0  0  0  0  0  0  0  0
  135.5863   80.0081  223.5009 H   0  0  0  0  0  0  0  0  0  0  0  0
  136.4917   77.8701  222.6169 H   0  0  0  0  0  0  0  0  0  0  0  0
  1  2  2  0
  2  3  1  0
  3  4  1  0
  4  5  1  0
  5  6  2  0
  5  7  1  0
  7  8  1  0
  8  9  1  0
  9 10  1  0
 10 11  1  0
 11 12  1  0
 12 13  1  0
 13 14  2  0
 14 15  1  0
 15 16  2  0
 16 17  1  0
  2 18  1  0
 18 19  2  0
 19 20  1  0
 20 21  2  0
 21 22  1  0
 22 23  2  0
 23 24  1  0
 23 25  1  0
 25 26  2  0
 26 27  1  0
 27 28  2  0
 12  7  1  0
 17 13  1  0
 28 18  1  0
 27 21  1  0
  3 29  1  0
  4 30  1  0
  4 31  1  0
  8 32  1  0
  8 33  1  0
  9 34  1  0
  9 35  1  0
 10 36  1  0
 10 37  1  0
 11 38  1  0
 11 39  1  0
 12 40  1  1
 16 41  1  0
 17 42  1  0
 19 43  1  0
 20 44  1  0
 22 45  1  0
 25 46  1  0
 26 47  1  0
M  END
>  <smiles>  (24) 
O=C(NCC(=O)N1CCCC[C@H]1c1nnc[nH]1)c1ccc2cc(Cl)ccc2n1

>  <score_type>  (24) 
oracle

>  <origin>  (24) 
autodockgpu

>  <m_score__min__energy>  (24) 
-8.5800000000000001

>  <m_primary>  (24) 
energy

>  <rmsd>  (24) 
6.953748772164457

>  <m_score__min__rmsd>  (24) 
6.953748772164457

>  <meeko>  (24) 
{"free_energy": -6.47, "intermolecular_energy": -7.97, "internal_energy": -2.65, "cluster_size": 2, "cluster_id": 7, "rank_in_cluster": 1}

>  <energy>  (24) 
-7.94

>  <cluster_rmsd>  (24) 
1.74

>  <cluster>  (24) 
1

$$$$

     RDKit          3D

 47 50  0  0  0  0  0  0  0  0999 V2000
  140.2350   72.6840  220.7930 O   0  0  0  0  0  0  0  0  0  0  0  0
  139.9160   72.9610  221.9780 C   0  0  0  0  0  0  0  0  0  0  0  0
  139.4930   74.2690  222.3390 N   0  0  0  0  0  0  0  0  0  0  0  0
  139.4330   75.2900  221.3090 C   0  0  0  0  0  0  0  0  0  0  0  0
  139.1930   76.6010  221.9680 C   0  0  0  0  0  0  0  0  0  0  0  0
  138.3460   76.7520  222.9010 O   0  0  0  0  0  0  0  0  0  0  0  0
  139.9470   77.7290  221.5340 N   0  0  0  0  0  0  0  0  0  0  0  0
  139.3270   78.8820  220.8890 C   0  0  0  0  0  0  0  0  0  0  0  0
  140.2790   79.5580  219.9250 C   0  0  0  0  0  0  0  0  0  0  0  0
  141.1530   78.4580  219.3260 C   0  0  0  0  0  0  0  0  0  0  0  0
  142.0780   77.8880  220.3800 C   0  0  0  0  0  0  0  0  0  0  0  0
  141.3880   77.7740  221.7220 C   0  0  1  0  0  0  0  0  0  0  0  0
  141.7740   78.8960  222.6040 C   0  0  0  0  0  0  0  0  0  0  0  0
  141.0110   79.4740  223.5730 N   0  0  0  0  0  0  0  0  0  0  0  0
  141.7070   80.4440  224.1440 N   0  0  0  0  0  0  0  0  0  0  0  0
  142.9130   80.4980  223.5550 C   0  0  0  0  0  0  0  0  0  0  0  0
  142.9500   79.5440  222.6090 N   0  0  0  0  0  0  0  0  0  0  0  0
  139.9630   71.9550  223.0470 C   0  0  0  0  0  0  0  0  0  0  0  0
  139.5260   70.6610  222.8010 C   0  0  0  0  0  0  0  0  0  0  0  0
  139.5830   69.7400  223.8250 C   0  0  0  0  0  0  0  0  0  0  0  0
  140.0590   70.0720  225.0720 C   0  0  0  0  0  0  0  0  0  0  0  0
  140.1360   69.1910  226.1260 C   0  0  0  0  0  0  0  0  0  0  0  0
  140.6280   69.5830  227.3710 C   0  0  0  0  0  0  0  0  0  0  0  0
  140.7310   68.4810  228.7090 Cl  0  0  0  0  0  0  0  0  0  0  0  0
  141.0530   70.8940  227.5640 C   0  0  0  0  0  0  0  0  0  0  0  0
  140.9650   71.7560  226.4890 C   0  0  0  0  0  0  0  0  0  0  0  0
  140.4800   71.3570  225.2740 C   0  0  0  0  0  0  0  0  0  0  0  0
  140.4200   72.2320  224.2820 N   0  0  0  0  0  0  0  0  0  0  0  0
  139.2250   74.5300  223.2950 H   0  0  0  0  0  0  0  0  0  0  0  0
  140.3844   75.3190  220.7576 H   0  0  0  0  0  0  0  0  0  0  0  0
  138.6222   75.0671  220.5998 H   0  0  0  0  0  0  0  0  0  0  0  0
  138.4372   78.5465  220.3362 H   0  0  0  0  0  0  0  0  0  0  0  0
  139.0533   79.6076  221.6691 H   0  0  0  0  0  0  0  0  0  0  0  0
  139.7148   80.0685  219.1306 H   0  0  0  0  0  0  0  0  0  0  0  0
  140.8914   80.3136  220.4388 H   0  0  0  0  0  0  0  0  0  0  0  0
  140.5096   77.6556  218.9359 H   0  0  0  0  0  0  0  0  0  0  0  0
  141.7581   78.8854  218.5129 H   0  0  0  0  0  0  0  0  0  0  0  0
  142.4086   76.8881  220.0622 H   0  0  0  0  0  0  0  0  0  0  0  0
  142.9356   78.5680  220.4901 H   0  0  0  0  0  0  0  0  0  0  0  0
  141.7064   76.8407  222.2094 H   0  0  0  0  0  0  0  0  0  0  0  0
  143.7249   81.1977  223.8025 H   0  0  0  0  0  0  0  0  0  0  0  0
  143.7950   79.3920  222.0130 H   0  0  0  0  0  0  0  0  0  0  0  0
  139.1424   70.3764  221.8101 H   0  0  0  0  0  0  0  0  0  0  0  0
  139.2385   68.7119  223.6399 H   0  0  0  0  0  0  0  0  0  0  0  0
  139.8016   68.1528  225.9835 H   0  0  0  0  0  0  0  0  0  0  0  0
  141.4440   71.2306  228.5355 H   0  0  0  0  0  0  0  0  0  0  0  0
  141.2958   72.7976  226.6138 H   0  0  0  0  0  0  0  0  0  0  0  0
  1  2  2  0
  2  3  1  0
  3  4  1  0
  4  5  1  0
  5  6  2  0
  5  7  1  0
  7  8  1  0
  8  9  1  0
  9 10  1  0
 10 11  1  0
 11 12  1  0
 12 13  1  0
 13 14  2  0
 14 15  1  0
 15 16  2  0
 16 17  1  0
  2 18  1  0
 18 19  2  0
 19 20  1  0
 20 21  2  0
 21 22  1  0
 22 23  2  0
 23 24  1  0
 23 25  1  0
 25 26  2  0
 26 27  1  0
 27 28  2  0
 12  7  1  0
 17 13  1  0
 28 18  1  0
 27 21  1  0
  3 29  1  0
  4 30  1  0
  4 31  1  0
  8 32  1  0
  8 33  1  0
  9 34  1  0
  9 35  1  0
 10 36  1  0
 10 37  1  0
 11 38  1  0
 11 39  1  0
 12 40  1  1
 16 41  1  0
 17 42  1  0
 19 43  1  0
 20 44  1  0
 22 45  1  0
 25 46  1  0
 26 47  1  0
M  END
>  <smiles>  (25) 
O=C(NCC(=O)N1CCCC[C@H]1c1nnc[nH]1)c1ccc2cc(Cl)ccc2n1

>  <score_type>  (25) 
oracle

>  <origin>  (25) 
autodockgpu

>  <m_score__min__energy>  (25) 
-8.5800000000000001

>  <m_primary>  (25) 
energy

>  <rmsd>  (25) 
2.593677354715386

>  <m_score__min__rmsd>  (25) 
2.593677354715386

>  <meeko>  (25) 
{"free_energy": -8.57, "intermolecular_energy": -10.06, "internal_energy": -1.72, "cluster_size": 29, "cluster_id": 1, "rank_in_cluster": 4}

>  <energy>  (25) 
-7.88

>  <cluster_rmsd>  (25) 
1.07

>  <cluster>  (25) 
1

$$$$

     RDKit          3D

 47 50  0  0  0  0  0  0  0  0999 V2000
  140.8470   72.8390  221.1200 O   0  0  0  0  0  0  0  0  0  0  0  0
  140.0780   72.8940  222.1150 C   0  0  0  0  0  0  0  0  0  0  0  0
  139.1690   73.9740  222.2810 N   0  0  0  0  0  0  0  0  0  0  0  0
  139.1390   75.0210  221.2760 C   0  0  0  0  0  0  0  0  0  0  0  0
  139.0380   76.3300  221.9730 C   0  0  0  0  0  0  0  0  0  0  0  0
  138.3140   76.5040  223.0010 O   0  0  0  0  0  0  0  0  0  0  0  0
  139.7860   77.4310  221.4650 N   0  0  0  0  0  0  0  0  0  0  0  0
  139.1740   78.4920  220.6720 C   0  0  0  0  0  0  0  0  0  0  0  0
  140.1610   79.0960  219.6950 C   0  0  0  0  0  0  0  0  0  0  0  0
  141.0950   77.9690  219.2610 C   0  0  0  0  0  0  0  0  0  0  0  0
  141.9740   77.5380  220.4150 C   0  0  0  0  0  0  0  0  0  0  0  0
  141.2130   77.5400  221.7240 C   0  0  1  0  0  0  0  0  0  0  0  0
  141.5210   78.7570  222.5040 C   0  0  0  0  0  0  0  0  0  0  0  0
  142.7040   79.4310  222.5360 N   0  0  0  0  0  0  0  0  0  0  0  0
  142.5850   80.4680  223.3490 N   0  0  0  0  0  0  0  0  0  0  0  0
  141.3360   80.4710  223.8440 C   0  0  0  0  0  0  0  0  0  0  0  0
  140.6850   79.4180  223.3210 N   0  0  0  0  0  0  0  0  0  0  0  0
  140.0780   71.8540  223.1520 C   0  0  0  0  0  0  0  0  0  0  0  0
  139.5640   70.5960  222.8720 C   0  0  0  0  0  0  0  0  0  0  0  0
  139.5780   69.6420  223.8660 C   0  0  0  0  0  0  0  0  0  0  0  0
  140.0860   69.9060  225.1170 C   0  0  0  0  0  0  0  0  0  0  0  0
  140.1230   68.9890  226.1410 C   0  0  0  0  0  0  0  0  0  0  0  0
  140.6510   69.3130  227.3910 C   0  0  0  0  0  0  0  0  0  0  0  0
  140.7040   68.1650  228.6940 Cl  0  0  0  0  0  0  0  0  0  0  0  0
  141.1550   70.5900  227.6190 C   0  0  0  0  0  0  0  0  0  0  0  0
  141.1050   71.4890  226.5730 C   0  0  0  0  0  0  0  0  0  0  0  0
  140.5840   71.1580  225.3520 C   0  0  0  0  0  0  0  0  0  0  0  0
  140.5640   72.0660  224.3890 N   0  0  0  0  0  0  0  0  0  0  0  0
  138.5280   74.0510  223.0790 H   0  0  0  0  0  0  0  0  0  0  0  0
  140.0607   74.9884  220.6765 H   0  0  0  0  0  0  0  0  0  0  0  0
  138.2786   74.8799  220.6054 H   0  0  0  0  0  0  0  0  0  0  0  0
  138.3256   78.0740  220.1103 H   0  0  0  0  0  0  0  0  0  0  0  0
  138.8384   79.2845  221.3571 H   0  0  0  0  0  0  0  0  0  0  0  0
  139.6293   79.5046  218.8230 H   0  0  0  0  0  0  0  0  0  0  0  0
  140.7237   79.9192  220.1594 H   0  0  0  0  0  0  0  0  0  0  0  0
  140.4952   77.1114  218.9224 H   0  0  0  0  0  0  0  0  0  0  0  0
  141.7338   78.3307  218.4418 H   0  0  0  0  0  0  0  0  0  0  0  0
  142.3468   76.5216  220.2200 H   0  0  0  0  0  0  0  0  0  0  0  0
  142.8069   78.2516  220.4993 H   0  0  0  0  0  0  0  0  0  0  0  0
  141.5269   76.6719  222.3222 H   0  0  0  0  0  0  0  0  0  0  0  0
  140.9205   81.2042  224.5509 H   0  0  0  0  0  0  0  0  0  0  0  0
  139.6890   79.2120  223.5600 H   0  0  0  0  0  0  0  0  0  0  0  0
  139.1541   70.3652  221.8777 H   0  0  0  0  0  0  0  0  0  0  0  0
  139.1719   68.6420  223.6535 H   0  0  0  0  0  0  0  0  0  0  0  0
  139.7273   67.9769  225.9707 H   0  0  0  0  0  0  0  0  0  0  0  0
  141.5768   70.8719  228.5950 H   0  0  0  0  0  0  0  0  0  0  0  0
  141.4970   72.5053  226.7261 H   0  0  0  0  0  0  0  0  0  0  0  0
  1  2  2  0
  2  3  1  0
  3  4  1  0
  4  5  1  0
  5  6  2  0
  5  7  1  0
  7  8  1  0
  8  9  1  0
  9 10  1  0
 10 11  1  0
 11 12  1  0
 12 13  1  0
 13 14  2  0
 14 15  1  0
 15 16  2  0
 16 17  1  0
  2 18  1  0
 18 19  2  0
 19 20  1  0
 20 21  2  0
 21 22  1  0
 22 23  2  0
 23 24  1  0
 23 25  1  0
 25 26  2  0
 26 27  1  0
 27 28  2  0
 12  7  1  0
 17 13  1  0
 28 18  1  0
 27 21  1  0
  3 29  1  0
  4 30  1  0
  4 31  1  0
  8 32  1  0
  8 33  1  0
  9 34  1  0
  9 35  1  0
 10 36  1  0
 10 37  1  0
 11 38  1  0
 11 39  1  0
 12 40  1  1
 16 41  1  0
 17 42  1  0
 19 43  1  0
 20 44  1  0
 22 45  1  0
 25 46  1  0
 26 47  1  0
M  END
>  <smiles>  (26) 
O=C(NCC(=O)N1CCCC[C@H]1c1nnc[nH]1)c1ccc2cc(Cl)ccc2n1

>  <score_type>  (26) 
oracle

>  <origin>  (26) 
autodockgpu

>  <m_score__min__energy>  (26) 
-8.5800000000000001

>  <m_primary>  (26) 
energy

>  <rmsd>  (26) 
2.397326318200418

>  <m_score__min__rmsd>  (26) 
2.397326318200418

>  <meeko>  (26) 
{"free_energy": -7.88, "intermolecular_energy": -9.38, "internal_energy": -1.74, "cluster_size": 29, "cluster_id": 1, "rank_in_cluster": 25}

>  <energy>  (26) 
-7.87

>  <cluster_rmsd>  (26) 
1.02

>  <cluster>  (26) 
1

$$$$

     RDKit          3D

 47 50  0  0  0  0  0  0  0  0999 V2000
  141.4480   73.8540  221.7000 O   0  0  0  0  0  0  0  0  0  0  0  0
  140.4660   73.0690  221.6750 C   0  0  0  0  0  0  0  0  0  0  0  0
  139.5250   73.1020  220.6100 N   0  0  0  0  0  0  0  0  0  0  0  0
  139.7170   74.0640  219.5410 C   0  0  0  0  0  0  0  0  0  0  0  0
  140.8650   73.6120  218.7110 C   0  0  0  0  0  0  0  0  0  0  0  0
  140.7930   72.6150  217.9300 O   0  0  0  0  0  0  0  0  0  0  0  0
  142.0910   74.3320  218.7980 N   0  0  0  0  0  0  0  0  0  0  0  0
  142.2300   75.5450  219.5960 C   0  0  0  0  0  0  0  0  0  0  0  0
  143.2740   76.4760  219.0160 C   0  0  0  0  0  0  0  0  0  0  0  0
  143.2200   76.3060  217.4990 C   0  0  0  0  0  0  0  0  0  0  0  0
  143.7230   74.9350  217.1030 C   0  0  0  0  0  0  0  0  0  0  0  0
  143.2720   73.8730  218.0830 C   0  0  1  0  0  0  0  0  0  0  0  0
  144.3620   73.5310  219.0210 C   0  0  0  0  0  0  0  0  0  0  0  0
  145.6170   73.1110  218.6980 N   0  0  0  0  0  0  0  0  0  0  0  0
  146.3010   72.9080  219.8120 N   0  0  0  0  0  0  0  0  0  0  0  0
  145.5010   73.1940  220.8530 C   0  0  0  0  0  0  0  0  0  0  0  0
  144.3100   73.5770  220.3620 N   0  0  0  0  0  0  0  0  0  0  0  0
  140.2380   72.0810  222.7390 C   0  0  0  0  0  0  0  0  0  0  0  0
  139.5270   70.9210  222.4660 C   0  0  0  0  0  0  0  0  0  0  0  0
  139.3300   70.0140  223.4840 C   0  0  0  0  0  0  0  0  0  0  0  0
  139.8180   70.2310  224.7520 C   0  0  0  0  0  0  0  0  0  0  0  0
  139.6490   69.3580  225.8020 C   0  0  0  0  0  0  0  0  0  0  0  0
  140.1660   69.6310  227.0690 C   0  0  0  0  0  0  0  0  0  0  0  0
  139.9600   68.5370  228.4020 Cl  0  0  0  0  0  0  0  0  0  0  0  0
  140.8720   70.8100  227.2880 C   0  0  0  0  0  0  0  0  0  0  0  0
  141.0270   71.6660  226.2160 C   0  0  0  0  0  0  0  0  0  0  0  0
  140.5130   71.3860  224.9800 C   0  0  0  0  0  0  0  0  0  0  0  0
  140.6960   72.2490  223.9930 N   0  0  0  0  0  0  0  0  0  0  0  0
  138.7130   72.4760  220.5580 H   0  0  0  0  0  0  0  0  0  0  0  0
  138.8091   74.1196  218.9224 H   0  0  0  0  0  0  0  0  0  0  0  0
  139.9190   75.0614  219.9586 H   0  0  0  0  0  0  0  0  0  0  0  0
  141.2621   76.0669  219.6241 H   0  0  0  0  0  0  0  0  0  0  0  0
  142.5498   75.2567  220.6082 H   0  0  0  0  0  0  0  0  0  0  0  0
  143.0471   77.5171  219.2891 H   0  0  0  0  0  0  0  0  0  0  0  0
  144.2752   76.2390  219.4052 H   0  0  0  0  0  0  0  0  0  0  0  0
  142.1807   76.4231  217.1580 H   0  0  0  0  0  0  0  0  0  0  0  0
  143.8597   77.0692  217.0317 H   0  0  0  0  0  0  0  0  0  0  0  0
  143.3352   74.6870  216.1039 H   0  0  0  0  0  0  0  0  0  0  0  0
  144.8228   74.9584  217.1020 H   0  0  0  0  0  0  0  0  0  0  0  0
  143.0122   72.9602  217.5268 H   0  0  0  0  0  0  0  0  0  0  0  0
  145.7724   73.1267  221.9169 H   0  0  0  0  0  0  0  0  0  0  0  0
  143.5190   73.8510  220.9870 H   0  0  0  0  0  0  0  0  0  0  0  0
  139.1292   70.7298  221.4584 H   0  0  0  0  0  0  0  0  0  0  0  0
  138.7675   69.0915  223.2776 H   0  0  0  0  0  0  0  0  0  0  0  0
  139.0933   68.4228  225.6388 H   0  0  0  0  0  0  0  0  0  0  0  0
  141.2902   71.0505  228.2766 H   0  0  0  0  0  0  0  0  0  0  0  0
  141.5823   72.6044  226.3608 H   0  0  0  0  0  0  0  0  0  0  0  0
  1  2  2  0
  2  3  1  0
  3  4  1  0
  4  5  1  0
  5  6  2  0
  5  7  1  0
  7  8  1  0
  8  9  1  0
  9 10  1  0
 10 11  1  0
 11 12  1  0
 12 13  1  0
 13 14  2  0
 14 15  1  0
 15 16  2  0
 16 17  1  0
  2 18  1  0
 18 19  2  0
 19 20  1  0
 20 21  2  0
 21 22  1  0
 22 23  2  0
 23 24  1  0
 23 25  1  0
 25 26  2  0
 26 27  1  0
 27 28  2  0
 12  7  1  0
 17 13  1  0
 28 18  1  0
 27 21  1  0
  3 29  1  0
  4 30  1  0
  4 31  1  0
  8 32  1  0
  8 33  1  0
  9 34  1  0
  9 35  1  0
 10 36  1  0
 10 37  1  0
 11 38  1  0
 11 39  1  0
 12 40  1  6
 16 41  1  0
 17 42  1  0
 19 43  1  0
 20 44  1  0
 22 45  1  0
 25 46  1  0
 26 47  1  0
M  END
>  <smiles>  (27) 
O=C(NCC(=O)N1CCCC[C@H]1c1nnc[nH]1)c1ccc2cc(Cl)ccc2n1

>  <score_type>  (27) 
oracle

>  <origin>  (27) 
autodockgpu

>  <m_score__min__energy>  (27) 
-8.5800000000000001

>  <m_primary>  (27) 
energy

>  <rmsd>  (27) 
3.466802295438882

>  <m_score__min__rmsd>  (27) 
3.466802295438882

>  <meeko>  (27) 
{"free_energy": -7.32, "intermolecular_energy": -8.81, "internal_energy": -2.16, "cluster_size": 5, "cluster_id": 2, "rank_in_cluster": 4}

>  <energy>  (27) 
-7.87

>  <cluster_rmsd>  (27) 
1.03

>  <cluster>  (27) 
1

$$$$

     RDKit          3D

 47 50  0  0  0  0  0  0  0  0999 V2000
  141.0940   72.8520  220.9560 O   0  0  0  0  0  0  0  0  0  0  0  0
  140.2820   72.9860  221.9080 C   0  0  0  0  0  0  0  0  0  0  0  0
  139.4180   74.1130  221.9850 N   0  0  0  0  0  0  0  0  0  0  0  0
  139.4880   75.1160  220.9370 C   0  0  0  0  0  0  0  0  0  0  0  0
  140.5360   76.1020  221.3090 C   0  0  0  0  0  0  0  0  0  0  0  0
  141.7730   75.8190  221.3080 O   0  0  0  0  0  0  0  0  0  0  0  0
  140.1320   77.4170  221.6780 N   0  0  0  0  0  0  0  0  0  0  0  0
  139.1380   77.6670  222.7170 C   0  0  0  0  0  0  0  0  0  0  0  0
  138.3730   78.9490  222.4600 C   0  0  0  0  0  0  0  0  0  0  0  0
  138.2580   79.0940  220.9440 C   0  0  0  0  0  0  0  0  0  0  0  0
  139.6150   79.3750  220.3360 C   0  0  0  0  0  0  0  0  0  0  0  0
  140.7060   78.5820  221.0220 C   0  0  1  0  0  0  0  0  0  0  0  0
  141.4400   79.4280  221.9870 C   0  0  0  0  0  0  0  0  0  0  0  0
  141.0520   80.6410  222.4710 N   0  0  0  0  0  0  0  0  0  0  0  0
  141.9740   81.0810  223.3110 N   0  0  0  0  0  0  0  0  0  0  0  0
  142.9540   80.1640  223.3770 C   0  0  0  0  0  0  0  0  0  0  0  0
  142.6210   79.1500  222.5610 N   0  0  0  0  0  0  0  0  0  0  0  0
  140.1820   71.9930  222.9850 C   0  0  0  0  0  0  0  0  0  0  0  0
  139.5930   70.7610  222.7400 C   0  0  0  0  0  0  0  0  0  0  0  0
  139.5140   69.8500  223.7710 C   0  0  0  0  0  0  0  0  0  0  0  0
  140.0030   70.1330  225.0260 C   0  0  0  0  0  0  0  0  0  0  0  0
  139.9480   69.2600  226.0870 C   0  0  0  0  0  0  0  0  0  0  0  0
  140.4600   69.6010  227.3400 C   0  0  0  0  0  0  0  0  0  0  0  0
  140.3980   68.5080  228.6880 Cl  0  0  0  0  0  0  0  0  0  0  0  0
  141.0410   70.8510  227.5320 C   0  0  0  0  0  0  0  0  0  0  0  0
  141.0820   71.7060  226.4490 C   0  0  0  0  0  0  0  0  0  0  0  0
  140.5750   71.3580  225.2270 C   0  0  0  0  0  0  0  0  0  0  0  0
  140.6450   72.2240  224.2280 N   0  0  0  0  0  0  0  0  0  0  0  0
  138.7450   74.2540  222.7460 H   0  0  0  0  0  0  0  0  0  0  0  0
  139.7483   74.6384  219.9809 H   0  0  0  0  0  0  0  0  0  0  0  0
  138.5157   75.6181  220.8252 H   0  0  0  0  0  0  0  0  0  0  0  0
  138.4285   76.8268  222.7418 H   0  0  0  0  0  0  0  0  0  0  0  0
  139.6629   77.7665  223.6785 H   0  0  0  0  0  0  0  0  0  0  0  0
  137.3720   78.8905  222.9124 H   0  0  0  0  0  0  0  0  0  0  0  0
  138.8892   79.8137  222.9025 H   0  0  0  0  0  0  0  0  0  0  0  0
  137.8571   78.1614  220.5202 H   0  0  0  0  0  0  0  0  0  0  0  0
  137.5844   79.9333  220.7161 H   0  0  0  0  0  0  0  0  0  0  0  0
  139.5922   79.1034  219.2703 H   0  0  0  0  0  0  0  0  0  0  0  0
  139.8348   80.4453  220.4632 H   0  0  0  0  0  0  0  0  0  0  0  0
  141.4264   78.2380  220.2653 H   0  0  0  0  0  0  0  0  0  0  0  0
  143.8653   80.2315  223.9893 H   0  0  0  0  0  0  0  0  0  0  0  0
  143.2350   78.3120  222.4450 H   0  0  0  0  0  0  0  0  0  0  0  0
  139.1972   70.5164  221.7433 H   0  0  0  0  0  0  0  0  0  0  0  0
  139.0479   68.8709  223.5860 H   0  0  0  0  0  0  0  0  0  0  0  0
  139.4899   68.2700  225.9451 H   0  0  0  0  0  0  0  0  0  0  0  0
  141.4516   71.1462  228.5089 H   0  0  0  0  0  0  0  0  0  0  0  0
  141.5373   72.6997  226.5727 H   0  0  0  0  0  0  0  0  0  0  0  0
  1  2  2  0
  2  3  1  0
  3  4  1  0
  4  5  1  0
  5  6  2  0
  5  7  1  0
  7  8  1  0
  8  9  1  0
  9 10  1  0
 10 11  1  0
 11 12  1  0
 12 13  1  0
 13 14  2  0
 14 15  1  0
 15 16  2  0
 16 17  1  0
  2 18  1  0
 18 19  2  0
 19 20  1  0
 20 21  2  0
 21 22  1  0
 22 23  2  0
 23 24  1  0
 23 25  1  0
 25 26  2  0
 26 27  1  0
 27 28  2  0
 12  7  1  0
 17 13  1  0
 28 18  1  0
 27 21  1  0
  3 29  1  0
  4 30  1  0
  4 31  1  0
  8 32  1  0
  8 33  1  0
  9 34  1  0
  9 35  1  0
 10 36  1  0
 10 37  1  0
 11 38  1  0
 11 39  1  0
 12 40  1  6
 16 41  1  0
 17 42  1  0
 19 43  1  0
 20 44  1  0
 22 45  1  0
 25 46  1  0
 26 47  1  0
M  END
>  <smiles>  (28) 
O=C(NCC(=O)N1CCCC[C@H]1c1nnc[nH]1)c1ccc2cc(Cl)ccc2n1

>  <score_type>  (28) 
oracle

>  <origin>  (28) 
autodockgpu

>  <m_score__min__energy>  (28) 
-8.5800000000000001

>  <m_primary>  (28) 
energy

>  <rmsd>  (28) 
2.936765824602765

>  <m_score__min__rmsd>  (28) 
2.936765824602765

>  <meeko>  (28) 
{"free_energy": -8.31, "intermolecular_energy": -9.8, "internal_energy": -1.39, "cluster_size": 29, "cluster_id": 1, "rank_in_cluster": 20}

>  <energy>  (28) 
-7.84

>  <cluster_rmsd>  (28) 
1.89

>  <cluster>  (28) 
1

$$$$

     RDKit          3D

 47 50  0  0  0  0  0  0  0  0999 V2000
  140.3750   72.5450  220.7630 O   0  0  0  0  0  0  0  0  0  0  0  0
  139.8790   72.7820  221.8940 C   0  0  0  0  0  0  0  0  0  0  0  0
  139.2400   74.0210  222.1720 N   0  0  0  0  0  0  0  0  0  0  0  0
  139.1670   75.0180  221.1190 C   0  0  0  0  0  0  0  0  0  0  0  0
  138.9810   76.3500  221.7530 C   0  0  0  0  0  0  0  0  0  0  0  0
  138.1490   76.5510  222.6900 O   0  0  0  0  0  0  0  0  0  0  0  0
  139.7710   77.4400  221.2890 N   0  0  0  0  0  0  0  0  0  0  0  0
  139.2250   78.4990  220.4460 C   0  0  0  0  0  0  0  0  0  0  0  0
  140.2810   79.0870  219.5350 C   0  0  0  0  0  0  0  0  0  0  0  0
  141.2350   77.9490  219.1760 C   0  0  0  0  0  0  0  0  0  0  0  0
  142.0270   77.5220  220.3930 C   0  0  0  0  0  0  0  0  0  0  0  0
  141.1780   77.5410  221.6450 C   0  0  1  0  0  0  0  0  0  0  0  0
  141.4400   78.7630  222.4350 C   0  0  0  0  0  0  0  0  0  0  0  0
  140.6520   79.2900  223.4130 N   0  0  0  0  0  0  0  0  0  0  0  0
  141.2260   80.3850  223.8830 N   0  0  0  0  0  0  0  0  0  0  0  0
  142.3780   80.5720  223.2190 C   0  0  0  0  0  0  0  0  0  0  0  0
  142.5060   79.5720  222.3300 N   0  0  0  0  0  0  0  0  0  0  0  0
  139.9330   71.7990  222.9840 C   0  0  0  0  0  0  0  0  0  0  0  0
  139.5030   70.4980  222.7650 C   0  0  0  0  0  0  0  0  0  0  0  0
  139.5650   69.5980  223.8070 C   0  0  0  0  0  0  0  0  0  0  0  0
  140.0410   69.9590  225.0470 C   0  0  0  0  0  0  0  0  0  0  0  0
  140.1230   69.1000  226.1190 C   0  0  0  0  0  0  0  0  0  0  0  0
  140.6140   69.5210  227.3550 C   0  0  0  0  0  0  0  0  0  0  0  0
  140.7250   68.4470  228.7160 Cl  0  0  0  0  0  0  0  0  0  0  0  0
  141.0330   70.8380  227.5210 C   0  0  0  0  0  0  0  0  0  0  0  0
  140.9390   71.6770  226.4290 C   0  0  0  0  0  0  0  0  0  0  0  0
  140.4550   71.2500  225.2220 C   0  0  0  0  0  0  0  0  0  0  0  0
  140.3890   72.1040  224.2130 N   0  0  0  0  0  0  0  0  0  0  0  0
  138.8240   74.2480  223.0820 H   0  0  0  0  0  0  0  0  0  0  0  0
  140.0985   75.0108  220.5340 H   0  0  0  0  0  0  0  0  0  0  0  0
  138.3267   74.7975  220.4443 H   0  0  0  0  0  0  0  0  0  0  0  0
  138.4142   78.0826  219.8302 H   0  0  0  0  0  0  0  0  0  0  0  0
  138.8503   79.3002  221.1000 H   0  0  0  0  0  0  0  0  0  0  0  0
  139.8139   79.4914  218.6249 H   0  0  0  0  0  0  0  0  0  0  0  0
  140.8164   79.9105  220.0302 H   0  0  0  0  0  0  0  0  0  0  0  0
  140.6539   77.0928  218.8028 H   0  0  0  0  0  0  0  0  0  0  0  0
  141.9324   78.2987  218.4006 H   0  0  0  0  0  0  0  0  0  0  0  0
  142.4044   76.5012  220.2331 H   0  0  0  0  0  0  0  0  0  0  0  0
  142.8569   78.2310  220.5294 H   0  0  0  0  0  0  0  0  0  0  0  0
  141.4438   76.6758  222.2702 H   0  0  0  0  0  0  0  0  0  0  0  0
  143.0897   81.3962  223.3747 H   0  0  0  0  0  0  0  0  0  0  0  0
  143.3320   79.5040  221.6930 H   0  0  0  0  0  0  0  0  0  0  0  0
  139.1206   70.1913  221.7803 H   0  0  0  0  0  0  0  0  0  0  0  0
  139.2253   68.5646  223.6434 H   0  0  0  0  0  0  0  0  0  0  0  0
  139.7938   68.0574  225.9985 H   0  0  0  0  0  0  0  0  0  0  0  0
  141.4238   71.1962  228.4848 H   0  0  0  0  0  0  0  0  0  0  0  0
  141.2636   72.7229  226.5321 H   0  0  0  0  0  0  0  0  0  0  0  0
  1  2  2  0
  2  3  1  0
  3  4  1  0
  4  5  1  0
  5  6  2  0
  5  7  1  0
  7  8  1  0
  8  9  1  0
  9 10  1  0
 10 11  1  0
 11 12  1  0
 12 13  1  0
 13 14  2  0
 14 15  1  0
 15 16  2  0
 16 17  1  0
  2 18  1  0
 18 19  2  0
 19 20  1  0
 20 21  2  0
 21 22  1  0
 22 23  2  0
 23 24  1  0
 23 25  1  0
 25 26  2  0
 26 27  1  0
 27 28  2  0
 12  7  1  0
 17 13  1  0
 28 18  1  0
 27 21  1  0
  3 29  1  0
  4 30  1  0
  4 31  1  0
  8 32  1  0
  8 33  1  0
  9 34  1  0
  9 35  1  0
 10 36  1  0
 10 37  1  0
 11 38  1  0
 11 39  1  0
 12 40  1  1
 16 41  1  0
 17 42  1  0
 19 43  1  0
 20 44  1  0
 22 45  1  0
 25 46  1  0
 26 47  1  0
M  END
>  <smiles>  (29) 
O=C(NCC(=O)N1CCCC[C@H]1c1nnc[nH]1)c1ccc2cc(Cl)ccc2n1

>  <score_type>  (29) 
oracle

>  <origin>  (29) 
autodockgpu

>  <m_score__min__energy>  (29) 
-8.5800000000000001

>  <m_primary>  (29) 
energy

>  <rmsd>  (29) 
2.3128377813448373

>  <m_score__min__rmsd>  (29) 
2.3128377813448373

>  <meeko>  (29) 
{"free_energy": -8.48, "intermolecular_energy": -9.97, "internal_energy": -1.7, "cluster_size": 29, "cluster_id": 1, "rank_in_cluster": 9}

>  <energy>  (29) 
-7.46

>  <cluster_rmsd>  (29) 
1.43

>  <cluster>  (29) 
1

$$$$

     RDKit          3D

 47 50  0  0  0  0  0  0  0  0999 V2000
  139.7530   72.4250  220.6700 O   0  0  0  0  0  0  0  0  0  0  0  0
  139.6660   72.7660  221.8780 C   0  0  0  0  0  0  0  0  0  0  0  0
  139.4320   74.1190  222.2450 N   0  0  0  0  0  0  0  0  0  0  0  0
  139.2940   75.1110  221.1940 C   0  0  0  0  0  0  0  0  0  0  0  0
  139.1430   76.4450  221.8330 C   0  0  0  0  0  0  0  0  0  0  0  0
  138.3280   76.6610  222.7800 O   0  0  0  0  0  0  0  0  0  0  0  0
  139.9490   77.5200  221.3600 N   0  0  0  0  0  0  0  0  0  0  0  0
  139.4120   78.5960  220.5330 C   0  0  0  0  0  0  0  0  0  0  0  0
  140.4650   79.1650  219.6060 C   0  0  0  0  0  0  0  0  0  0  0  0
  141.3850   78.0080  219.2240 C   0  0  0  0  0  0  0  0  0  0  0  0
  142.1900   77.5560  220.4230 C   0  0  0  0  0  0  0  0  0  0  0  0
  141.3640   77.5880  221.6910 C   0  0  1  0  0  0  0  0  0  0  0  0
  141.6680   78.7990  222.4820 C   0  0  0  0  0  0  0  0  0  0  0  0
  140.8270   79.4550  223.3290 N   0  0  0  0  0  0  0  0  0  0  0  0
  141.4650   80.4900  223.8500 N   0  0  0  0  0  0  0  0  0  0  0  0
  142.7120   80.5090  223.3490 C   0  0  0  0  0  0  0  0  0  0  0  0
  142.8320   79.4670  222.5090 N   0  0  0  0  0  0  0  0  0  0  0  0
  139.7990   71.7910  222.9690 C   0  0  0  0  0  0  0  0  0  0  0  0
  139.4280   70.4700  222.7670 C   0  0  0  0  0  0  0  0  0  0  0  0
  139.5640   69.5790  223.8090 C   0  0  0  0  0  0  0  0  0  0  0  0
  140.0570   69.9680  225.0340 C   0  0  0  0  0  0  0  0  0  0  0  0
  140.2130   69.1190  226.1050 C   0  0  0  0  0  0  0  0  0  0  0  0
  140.7190   69.5690  227.3250 C   0  0  0  0  0  0  0  0  0  0  0  0
  140.9210   68.5080  228.6850 Cl  0  0  0  0  0  0  0  0  0  0  0  0
  141.0770   70.9050  227.4740 C   0  0  0  0  0  0  0  0  0  0  0  0
  140.9100   71.7340  226.3830 C   0  0  0  0  0  0  0  0  0  0  0  0
  140.4120   71.2790  225.1930 C   0  0  0  0  0  0  0  0  0  0  0  0
  140.2760   72.1240  224.1830 N   0  0  0  0  0  0  0  0  0  0  0  0
  139.3550   74.4320  223.2190 H   0  0  0  0  0  0  0  0  0  0  0  0
  140.1890   75.1033  220.5545 H   0  0  0  0  0  0  0  0  0  0  0  0
  138.4157   74.8858  220.5712 H   0  0  0  0  0  0  0  0  0  0  0  0
  138.5808   78.2018  219.9299 H   0  0  0  0  0  0  0  0  0  0  0  0
  139.0674   79.4017  221.1979 H   0  0  0  0  0  0  0  0  0  0  0  0
  139.9911   79.5853  218.7067 H   0  0  0  0  0  0  0  0  0  0  0  0
  141.0282   79.9731  220.0957 H   0  0  0  0  0  0  0  0  0  0  0  0
  140.7773   77.1675  218.8577 H   0  0  0  0  0  0  0  0  0  0  0  0
  142.0757   78.3461  218.4375 H   0  0  0  0  0  0  0  0  0  0  0  0
  142.5406   76.5277  220.2509 H   0  0  0  0  0  0  0  0  0  0  0  0
  143.0392   78.2441  220.5473 H   0  0  0  0  0  0  0  0  0  0  0  0
  141.6213   76.7141  222.3075 H   0  0  0  0  0  0  0  0  0  0  0  0
  143.4943   81.2456  223.5844 H   0  0  0  0  0  0  0  0  0  0  0  0
  143.7220   79.2740  221.9960 H   0  0  0  0  0  0  0  0  0  0  0  0
  139.0332   70.1404  221.7946 H   0  0  0  0  0  0  0  0  0  0  0  0
  139.2710   68.5295  223.6582 H   0  0  0  0  0  0  0  0  0  0  0  0
  139.9324   68.0609  225.9972 H   0  0  0  0  0  0  0  0  0  0  0  0
  141.4778   71.2862  228.4248 H   0  0  0  0  0  0  0  0  0  0  0  0
  141.1863   72.7949  226.4735 H   0  0  0  0  0  0  0  0  0  0  0  0
  1  2  2  0
  2  3  1  0
  3  4  1  0
  4  5  1  0
  5  6  2  0
  5  7  1  0
  7  8  1  0
  8  9  1  0
  9 10  1  0
 10 11  1  0
 11 12  1  0
 12 13  1  0
 13 14  2  0
 14 15  1  0
 15 16  2  0
 16 17  1  0
  2 18  1  0
 18 19  2  0
 19 20  1  0
 20 21  2  0
 21 22  1  0
 22 23  2  0
 23 24  1  0
 23 25  1  0
 25 26  2  0
 26 27  1  0
 27 28  2  0
 12  7  1  0
 17 13  1  0
 28 18  1  0
 27 21  1  0
  3 29  1  0
  4 30  1  0
  4 31  1  0
  8 32  1  0
  8 33  1  0
  9 34  1  0
  9 35  1  0
 10 36  1  0
 10 37  1  0
 11 38  1  0
 11 39  1  0
 12 40  1  1
 16 41  1  0
 17 42  1  0
 19 43  1  0
 20 44  1  0
 22 45  1  0
 25 46  1  0
 26 47  1  0
M  END
>  <smiles>  (30) 
O=C(NCC(=O)N1CCCC[C@H]1c1nnc[nH]1)c1ccc2cc(Cl)ccc2n1

>  <score_type>  (30) 
oracle

>  <origin>  (30) 
autodockgpu

>  <m_score__min__energy>  (30) 
-8.5800000000000001

>  <m_primary>  (30) 
energy

>  <rmsd>  (30) 
2.388904685980357

>  <m_score__min__rmsd>  (30) 
2.388904685980357

>  <meeko>  (30) 
{"free_energy": -8.42, "intermolecular_energy": -9.91, "internal_energy": -1.7, "cluster_size": 29, "cluster_id": 1, "rank_in_cluster": 11}

>  <energy>  (30) 
-7.89

>  <cluster_rmsd>  (30) 
0.0

>  <cluster>  (30) 
2

$$$$

     RDKit          3D

 47 50  0  0  0  0  0  0  0  0999 V2000
  140.1510   72.8710  220.6640 O   0  0  0  0  0  0  0  0  0  0  0  0
  139.8900   73.1060  221.8720 C   0  0  0  0  0  0  0  0  0  0  0  0
  139.5450   74.4150  222.3080 N   0  0  0  0  0  0  0  0  0  0  0  0
  139.4960   75.4850  221.3280 C   0  0  0  0  0  0  0  0  0  0  0  0
  140.7930   76.2100  221.3680 C   0  0  0  0  0  0  0  0  0  0  0  0
  141.9000   75.6460  221.1140 O   0  0  0  0  0  0  0  0  0  0  0  0
  140.7880   77.5940  221.7050 N   0  0  0  0  0  0  0  0  0  0  0  0
  140.9690   78.6430  220.7070 C   0  0  0  0  0  0  0  0  0  0  0  0
  141.6210   79.8730  221.3020 C   0  0  0  0  0  0  0  0  0  0  0  0
  142.5790   79.3810  222.3860 C   0  0  0  0  0  0  0  0  0  0  0  0
  141.8050   78.8020  223.5510 C   0  0  0  0  0  0  0  0  0  0  0  0
  140.5960   78.0220  223.0830 C   0  0  1  0  0  0  0  0  0  0  0  0
  139.3660   78.8300  223.2230 C   0  0  0  0  0  0  0  0  0  0  0  0
  139.2260   79.9900  223.9220 N   0  0  0  0  0  0  0  0  0  0  0  0
  137.9770   80.4110  223.8070 N   0  0  0  0  0  0  0  0  0  0  0  0
  137.3090   79.5350  223.0390 C   0  0  0  0  0  0  0  0  0  0  0  0
  138.1670   78.5650  222.6810 N   0  0  0  0  0  0  0  0  0  0  0  0
  139.9290   72.0500  222.8920 C   0  0  0  0  0  0  0  0  0  0  0  0
  139.4640   70.7780  222.5900 C   0  0  0  0  0  0  0  0  0  0  0  0
  139.5120   69.8090  223.5690 C   0  0  0  0  0  0  0  0  0  0  0  0
  140.0080   70.0720  224.8250 C   0  0  0  0  0  0  0  0  0  0  0  0
  140.0790   69.1410  225.8350 C   0  0  0  0  0  0  0  0  0  0  0  0
  140.5910   69.4650  227.0910 C   0  0  0  0  0  0  0  0  0  0  0  0
  140.6860   68.2980  228.3750 Cl  0  0  0  0  0  0  0  0  0  0  0  0
  141.0450   70.7560  227.3410 C   0  0  0  0  0  0  0  0  0  0  0  0
  140.9620   71.6690  226.3090 C   0  0  0  0  0  0  0  0  0  0  0  0
  140.4570   71.3380  225.0820 C   0  0  0  0  0  0  0  0  0  0  0  0
  140.4040   72.2600  224.1340 N   0  0  0  0  0  0  0  0  0  0  0  0
  139.3260   74.6420  223.2840 H   0  0  0  0  0  0  0  0  0  0  0  0
  139.3353   75.0640  220.3245 H   0  0  0  0  0  0  0  0  0  0  0  0
  138.6686   76.1728  221.5569 H   0  0  0  0  0  0  0  0  0  0  0  0
  141.6056   78.2584  219.8965 H   0  0  0  0  0  0  0  0  0  0  0  0
  139.9777   78.9297  220.3261 H   0  0  0  0  0  0  0  0  0  0  0  0
  142.1757   80.4210  220.5261 H   0  0  0  0  0  0  0  0  0  0  0  0
  140.8679   80.5570  221.7202 H   0  0  0  0  0  0  0  0  0  0  0  0
  143.2349   78.6047  221.9650 H   0  0  0  0  0  0  0  0  0  0  0  0
  143.1798   80.2303  222.7435 H   0  0  0  0  0  0  0  0  0  0  0  0
  142.4650   78.1304  224.1197 H   0  0  0  0  0  0  0  0  0  0  0  0
  141.4556   79.6342  224.1798 H   0  0  0  0  0  0  0  0  0  0  0  0
  140.4809   77.1285  223.7142 H   0  0  0  0  0  0  0  0  0  0  0  0
  136.2486   79.6000  222.7539 H   0  0  0  0  0  0  0  0  0  0  0  0
  137.8730   77.7640  222.0770 H   0  0  0  0  0  0  0  0  0  0  0  0
  139.0657   70.5479  221.5908 H   0  0  0  0  0  0  0  0  0  0  0  0
  139.1438   68.7981  223.3399 H   0  0  0  0  0  0  0  0  0  0  0  0
  139.7236   68.1170  225.6476 H   0  0  0  0  0  0  0  0  0  0  0  0
  141.4540   71.0381  228.3224 H   0  0  0  0  0  0  0  0  0  0  0  0
  141.3139   72.6972  226.4793 H   0  0  0  0  0  0  0  0  0  0  0  0
  1  2  2  0
  2  3  1  0
  3  4  1  0
  4  5  1  0
  5  6  2  0
  5  7  1  0
  7  8  1  0
  8  9  1  0
  9 10  1  0
 10 11  1  0
 11 12  1  0
 12 13  1  0
 13 14  2  0
 14 15  1  0
 15 16  2  0
 16 17  1  0
  2 18  1  0
 18 19  2  0
 19 20  1  0
 20 21  2  0
 21 22  1  0
 22 23  2  0
 23 24  1  0
 23 25  1  0
 25 26  2  0
 26 27  1  0
 27 28  2  0
 12  7  1  0
 17 13  1  0
 28 18  1  0
 27 21  1  0
  3 29  1  0
  4 30  1  0
  4 31  1  0
  8 32  1  0
  8 33  1  0
  9 34  1  0
  9 35  1  0
 10 36  1  0
 10 37  1  0
 11 38  1  0
 11 39  1  0
 12 40  1  1
 16 41  1  0
 17 42  1  0
 19 43  1  0
 20 44  1  0
 22 45  1  0
 25 46  1  0
 26 47  1  0
M  END
>  <smiles>  (31) 
O=C(NCC(=O)N1CCCC[C@H]1c1nnc[nH]1)c1ccc2cc(Cl)ccc2n1

>  <score_type>  (31) 
oracle

>  <origin>  (31) 
autodockgpu

>  <m_score__min__energy>  (31) 
-8.5800000000000001

>  <m_primary>  (31) 
energy

>  <rmsd>  (31) 
3.3954450052216973

>  <m_score__min__rmsd>  (31) 
3.3954450052216973

>  <meeko>  (31) 
{"free_energy": -7.95, "intermolecular_energy": -9.45, "internal_energy": -1.5, "cluster_size": 29, "cluster_id": 1, "rank_in_cluster": 23}

>  <energy>  (31) 
-7.56

>  <cluster_rmsd>  (31) 
1.83

>  <cluster>  (31) 
2

$$$$

     RDKit          3D

 47 50  0  0  0  0  0  0  0  0999 V2000
  140.8440   72.8740  221.1400 O   0  0  0  0  0  0  0  0  0  0  0  0
  140.0640   72.9160  222.1260 C   0  0  0  0  0  0  0  0  0  0  0  0
  139.1350   73.9800  222.2840 N   0  0  0  0  0  0  0  0  0  0  0  0
  139.0990   75.0270  221.2790 C   0  0  0  0  0  0  0  0  0  0  0  0
  138.9590   76.3340  221.9750 C   0  0  0  0  0  0  0  0  0  0  0  0
  138.1800   76.5030  222.9620 O   0  0  0  0  0  0  0  0  0  0  0  0
  139.7350   77.4360  221.5140 N   0  0  0  0  0  0  0  0  0  0  0  0
  139.1420   78.5690  220.8120 C   0  0  0  0  0  0  0  0  0  0  0  0
  140.1220   79.1980  219.8430 C   0  0  0  0  0  0  0  0  0  0  0  0
  140.9970   78.0670  219.3070 C   0  0  0  0  0  0  0  0  0  0  0  0
  141.8920   77.5280  220.4020 C   0  0  0  0  0  0  0  0  0  0  0  0
  141.1730   77.4740  221.7320 C   0  0  1  0  0  0  0  0  0  0  0  0
  141.5520   78.6250  222.5780 C   0  0  0  0  0  0  0  0  0  0  0  0
  140.9090   79.0650  223.6950 N   0  0  0  0  0  0  0  0  0  0  0  0
  141.5530   80.1180  224.1730 N   0  0  0  0  0  0  0  0  0  0  0  0
  142.6070   80.3610  223.3760 C   0  0  0  0  0  0  0  0  0  0  0  0
  142.6030   79.4410  222.3970 N   0  0  0  0  0  0  0  0  0  0  0  0
  140.0700   71.8750  223.1630 C   0  0  0  0  0  0  0  0  0  0  0  0
  139.5790   70.6090  222.8760 C   0  0  0  0  0  0  0  0  0  0  0  0
  139.5980   69.6540  223.8700 C   0  0  0  0  0  0  0  0  0  0  0  0
  140.0900   69.9260  225.1260 C   0  0  0  0  0  0  0  0  0  0  0  0
  140.1310   69.0090  226.1500 C   0  0  0  0  0  0  0  0  0  0  0  0
  140.6410   69.3410  227.4060 C   0  0  0  0  0  0  0  0  0  0  0  0
  140.6990   68.1930  228.7090 Cl  0  0  0  0  0  0  0  0  0  0  0  0
  141.1210   70.6260  227.6400 C   0  0  0  0  0  0  0  0  0  0  0  0
  141.0680   71.5240  226.5940 C   0  0  0  0  0  0  0  0  0  0  0  0
  140.5640   71.1850  225.3680 C   0  0  0  0  0  0  0  0  0  0  0  0
  140.5400   72.0930  224.4040 N   0  0  0  0  0  0  0  0  0  0  0  0
  138.4840   74.0460  223.0750 H   0  0  0  0  0  0  0  0  0  0  0  0
  140.0307   75.0143  220.6944 H   0  0  0  0  0  0  0  0  0  0  0  0
  138.2526   74.8681  220.5947 H   0  0  0  0  0  0  0  0  0  0  0  0
  138.2605   78.2214  220.2533 H   0  0  0  0  0  0  0  0  0  0  0  0
  138.8600   79.3270  221.5576 H   0  0  0  0  0  0  0  0  0  0  0  0
  139.5804   79.6822  219.0170 H   0  0  0  0  0  0  0  0  0  0  0  0
  140.7309   79.9675  220.3401 H   0  0  0  0  0  0  0  0  0  0  0  0
  140.3535   77.2569  218.9333 H   0  0  0  0  0  0  0  0  0  0  0  0
  141.6251   78.4572  218.4926 H   0  0  0  0  0  0  0  0  0  0  0  0
  142.2169   76.5128  220.1302 H   0  0  0  0  0  0  0  0  0  0  0  0
  142.7551   78.2022  220.5043 H   0  0  0  0  0  0  0  0  0  0  0  0
  141.4713   76.5577  222.2625 H   0  0  0  0  0  0  0  0  0  0  0  0
  143.3423   81.1693  223.5026 H   0  0  0  0  0  0  0  0  0  0  0  0
  143.3340   79.4270  221.6510 H   0  0  0  0  0  0  0  0  0  0  0  0
  139.1833   70.3728  221.8772 H   0  0  0  0  0  0  0  0  0  0  0  0
  139.2096   68.6479  223.6534 H   0  0  0  0  0  0  0  0  0  0  0  0
  139.7533   67.9908  225.9752 H   0  0  0  0  0  0  0  0  0  0  0  0
  141.5269   70.9146  228.6208 H   0  0  0  0  0  0  0  0  0  0  0  0
  141.4432   72.5461  226.7508 H   0  0  0  0  0  0  0  0  0  0  0  0
  1  2  2  0
  2  3  1  0
  3  4  1  0
  4  5  1  0
  5  6  2  0
  5  7  1  0
  7  8  1  0
  8  9  1  0
  9 10  1  0
 10 11  1  0
 11 12  1  0
 12 13  1  0
 13 14  2  0
 14 15  1  0
 15 16  2  0
 16 17  1  0
  2 18  1  0
 18 19  2  0
 19 20  1  0
 20 21  2  0
 21 22  1  0
 22 23  2  0
 23 24  1  0
 23 25  1  0
 25 26  2  0
 26 27  1  0
 27 28  2  0
 12  7  1  0
 17 13  1  0
 28 18  1  0
 27 21  1  0
  3 29  1  0
  4 30  1  0
  4 31  1  0
  8 32  1  0
  8 33  1  0
  9 34  1  0
  9 35  1  0
 10 36  1  0
 10 37  1  0
 11 38  1  0
 11 39  1  0
 12 40  1  1
 16 41  1  0
 17 42  1  0
 19 43  1  0
 20 44  1  0
 22 45  1  0
 25 46  1  0
 26 47  1  0
M  END
>  <smiles>  (32) 
O=C(NCC(=O)N1CCCC[C@H]1c1nnc[nH]1)c1ccc2cc(Cl)ccc2n1

>  <score_type>  (32) 
oracle

>  <origin>  (32) 
autodockgpu

>  <m_score__min__energy>  (32) 
-8.5800000000000001

>  <m_primary>  (32) 
energy

>  <rmsd>  (32) 
2.4068055086199376

>  <m_score__min__rmsd>  (32) 
2.4068055086199376

>  <meeko>  (32) 
{"free_energy": -8.55, "intermolecular_energy": -10.04, "internal_energy": -1.63, "cluster_size": 29, "cluster_id": 1, "rank_in_cluster": 6}

>  <energy>  (32) 
-7.52

>  <cluster_rmsd>  (32) 
1.72

>  <cluster>  (32) 
2

$$$$

     RDKit          3D

 47 50  0  0  0  0  0  0  0  0999 V2000
  140.5420   72.6790  220.8120 O   0  0  0  0  0  0  0  0  0  0  0  0
  140.1200   72.9530  221.9650 C   0  0  0  0  0  0  0  0  0  0  0  0
  139.6480   74.2550  222.2860 N   0  0  0  0  0  0  0  0  0  0  0  0
  139.6600   75.2740  221.2510 C   0  0  0  0  0  0  0  0  0  0  0  0
  138.9640   76.4780  221.7790 C   0  0  0  0  0  0  0  0  0  0  0  0
  137.8890   76.4080  222.4490 O   0  0  0  0  0  0  0  0  0  0  0  0
  139.5320   77.7580  221.5200 N   0  0  0  0  0  0  0  0  0  0  0  0
  138.7350   78.9810  221.5190 C   0  0  0  0  0  0  0  0  0  0  0  0
  139.3110   80.0190  220.5790 C   0  0  0  0  0  0  0  0  0  0  0  0
  139.9320   79.2570  219.4100 C   0  0  0  0  0  0  0  0  0  0  0  0
  141.1550   78.4920  219.8680 C   0  0  0  0  0  0  0  0  0  0  0  0
  140.9540   77.8980  221.2450 C   0  0  1  0  0  0  0  0  0  0  0  0
  141.6160   78.7270  222.2740 C   0  0  0  0  0  0  0  0  0  0  0  0
  141.3850   78.7040  223.6170 N   0  0  0  0  0  0  0  0  0  0  0  0
  142.1740   79.5900  224.2020 N   0  0  0  0  0  0  0  0  0  0  0  0
  142.9120   80.1870  223.2520 C   0  0  0  0  0  0  0  0  0  0  0  0
  142.5660   79.6530  222.0680 N   0  0  0  0  0  0  0  0  0  0  0  0
  140.0920   71.9490  223.0370 C   0  0  0  0  0  0  0  0  0  0  0  0
  139.5910   70.6800  222.7850 C   0  0  0  0  0  0  0  0  0  0  0  0
  139.5780   69.7600  223.8110 C   0  0  0  0  0  0  0  0  0  0  0  0
  140.0480   70.0700  225.0670 C   0  0  0  0  0  0  0  0  0  0  0  0
  140.0570   69.1890  226.1240 C   0  0  0  0  0  0  0  0  0  0  0  0
  140.5450   69.5590  227.3770 C   0  0  0  0  0  0  0  0  0  0  0  0
  140.5620   68.4560  228.7200 Cl  0  0  0  0  0  0  0  0  0  0  0  0
  141.0370   70.8450  227.5760 C   0  0  0  0  0  0  0  0  0  0  0  0
  141.0160   71.7070  226.4980 C   0  0  0  0  0  0  0  0  0  0  0  0
  140.5330   71.3310  225.2750 C   0  0  0  0  0  0  0  0  0  0  0  0
  140.5400   72.2050  224.2800 N   0  0  0  0  0  0  0  0  0  0  0  0
  139.2970   74.5130  223.2150 H   0  0  0  0  0  0  0  0  0  0  0  0
  140.6980   75.5280  220.9900 H   0  0  0  0  0  0  0  0  0  0  0  0
  139.1515   74.9056  220.3479 H   0  0  0  0  0  0  0  0  0  0  0  0
  137.7104   78.7395  221.1999 H   0  0  0  0  0  0  0  0  0  0  0  0
  138.7407   79.3971  222.5373 H   0  0  0  0  0  0  0  0  0  0  0  0
  138.5146   80.6856  220.2166 H   0  0  0  0  0  0  0  0  0  0  0  0
  140.0615   80.6410  221.0888 H   0  0  0  0  0  0  0  0  0  0  0  0
  139.1931   78.5500  219.0050 H   0  0  0  0  0  0  0  0  0  0  0  0
  140.2317   79.9769  218.6342 H   0  0  0  0  0  0  0  0  0  0  0  0
  141.3565   77.6796  219.1542 H   0  0  0  0  0  0  0  0  0  0  0  0
  142.0025   79.1917  219.9143 H   0  0  0  0  0  0  0  0  0  0  0  0
  141.4156   76.9000  221.2739 H   0  0  0  0  0  0  0  0  0  0  0  0
  143.6649   80.9724  223.4139 H   0  0  0  0  0  0  0  0  0  0  0  0
  143.0110   79.9610  221.1740 H   0  0  0  0  0  0  0  0  0  0  0  0
  139.2121   70.4138  221.7872 H   0  0  0  0  0  0  0  0  0  0  0  0
  139.1817   68.7516  223.6212 H   0  0  0  0  0  0  0  0  0  0  0  0
  139.6705   68.1696  225.9773 H   0  0  0  0  0  0  0  0  0  0  0  0
  141.4275   71.1625  228.5541 H   0  0  0  0  0  0  0  0  0  0  0  0
  141.4003   72.7296  226.6269 H   0  0  0  0  0  0  0  0  0  0  0  0
  1  2  2  0
  2  3  1  0
  3  4  1  0
  4  5  1  0
  5  6  2  0
  5  7  1  0
  7  8  1  0
  8  9  1  0
  9 10  1  0
 10 11  1  0
 11 12  1  0
 12 13  1  0
 13 14  2  0
 14 15  1  0
 15 16  2  0
 16 17  1  0
  2 18  1  0
 18 19  2  0
 19 20  1  0
 20 21  2  0
 21 22  1  0
 22 23  2  0
 23 24  1  0
 23 25  1  0
 25 26  2  0
 26 27  1  0
 27 28  2  0
 12  7  1  0
 17 13  1  0
 28 18  1  0
 27 21  1  0
  3 29  1  0
  4 30  1  0
  4 31  1  0
  8 32  1  0
  8 33  1  0
  9 34  1  0
  9 35  1  0
 10 36  1  0
 10 37  1  0
 11 38  1  0
 11 39  1  0
 12 40  1  6
 16 41  1  0
 17 42  1  0
 19 43  1  0
 20 44  1  0
 22 45  1  0
 25 46  1  0
 26 47  1  0
M  END
>  <smiles>  (33) 
O=C(NCC(=O)N1CCCC[C@H]1c1nnc[nH]1)c1ccc2cc(Cl)ccc2n1

>  <score_type>  (33) 
oracle

>  <origin>  (33) 
autodockgpu

>  <m_score__min__energy>  (33) 
-8.5800000000000001

>  <m_primary>  (33) 
energy

>  <rmsd>  (33) 
2.7347300310681217

>  <m_score__min__rmsd>  (33) 
2.7347300310681217

>  <meeko>  (33) 
{"free_energy": -8.19, "intermolecular_energy": -9.68, "internal_energy": -1.64, "cluster_size": 29, "cluster_id": 1, "rank_in_cluster": 22}

>  <energy>  (33) 
-7.32

>  <cluster_rmsd>  (33) 
1.51

>  <cluster>  (33) 
2

$$$$

     RDKit          3D

 47 50  0  0  0  0  0  0  0  0999 V2000
  139.3100   72.8490  220.4750 O   0  0  0  0  0  0  0  0  0  0  0  0
  140.0010   72.9940  221.5160 C   0  0  0  0  0  0  0  0  0  0  0  0
  140.8710   74.1080  221.6720 N   0  0  0  0  0  0  0  0  0  0  0  0
  140.9510   75.0850  220.6010 C   0  0  0  0  0  0  0  0  0  0  0  0
  142.3340   75.0640  220.0560 C   0  0  0  0  0  0  0  0  0  0  0  0
  143.0150   76.1200  219.8810 O   0  0  0  0  0  0  0  0  0  0  0  0
  142.9140   73.8070  219.7210 N   0  0  0  0  0  0  0  0  0  0  0  0
  142.1280   72.7030  219.1800 C   0  0  0  0  0  0  0  0  0  0  0  0
  142.7160   71.3610  219.5630 C   0  0  0  0  0  0  0  0  0  0  0  0
  143.3340   71.5320  220.9490 C   0  0  0  0  0  0  0  0  0  0  0  0
  144.5480   72.4330  220.8770 C   0  0  0  0  0  0  0  0  0  0  0  0
  144.3380   73.5740  219.9070 C   0  0  1  0  0  0  0  0  0  0  0  0
  145.0030   73.2930  218.6170 C   0  0  0  0  0  0  0  0  0  0  0  0
  145.6230   72.1360  218.2520 N   0  0  0  0  0  0  0  0  0  0  0  0
  146.0930   72.2720  217.0230 N   0  0  0  0  0  0  0  0  0  0  0  0
  145.7830   73.5050  216.5890 C   0  0  0  0  0  0  0  0  0  0  0  0
  145.1120   74.1290  217.5720 N   0  0  0  0  0  0  0  0  0  0  0  0
  139.9470   72.0280  222.6210 C   0  0  0  0  0  0  0  0  0  0  0  0
  139.3130   70.8070  222.4430 C   0  0  0  0  0  0  0  0  0  0  0  0
  139.2790   69.9210  223.4980 C   0  0  0  0  0  0  0  0  0  0  0  0
  139.8560   70.2180  224.7120 C   0  0  0  0  0  0  0  0  0  0  0  0
  139.8490   69.3700  225.7940 C   0  0  0  0  0  0  0  0  0  0  0  0
  140.4500   69.7250  227.0030 C   0  0  0  0  0  0  0  0  0  0  0  0
  140.4500   68.6630  228.3780 Cl  0  0  0  0  0  0  0  0  0  0  0  0
  141.0730   70.9630  227.1280 C   0  0  0  0  0  0  0  0  0  0  0  0
  141.0650   71.7930  226.0250 C   0  0  0  0  0  0  0  0  0  0  0  0
  140.4710   71.4320  224.8470 C   0  0  0  0  0  0  0  0  0  0  0  0
  140.4960   72.2740  223.8250 N   0  0  0  0  0  0  0  0  0  0  0  0
  141.4480   74.2570  222.5070 H   0  0  0  0  0  0  0  0  0  0  0  0
  140.2341   74.8274  219.8075 H   0  0  0  0  0  0  0  0  0  0  0  0
  140.7078   76.0878  220.9823 H   0  0  0  0  0  0  0  0  0  0  0  0
  141.1025   72.7687  219.5725 H   0  0  0  0  0  0  0  0  0  0  0  0
  142.1340   72.7812  218.0828 H   0  0  0  0  0  0  0  0  0  0  0  0
  141.9266   70.5955  219.5918 H   0  0  0  0  0  0  0  0  0  0  0  0
  143.4700   71.0360  218.8310 H   0  0  0  0  0  0  0  0  0  0  0  0
  142.5902   71.9791  221.6250 H   0  0  0  0  0  0  0  0  0  0  0  0
  143.6429   70.5460  221.3265 H   0  0  0  0  0  0  0  0  0  0  0  0
  144.7455   72.8464  221.8770 H   0  0  0  0  0  0  0  0  0  0  0  0
  145.4004   71.8340  220.5241 H   0  0  0  0  0  0  0  0  0  0  0  0
  144.7912   74.4854  220.3242 H   0  0  0  0  0  0  0  0  0  0  0  0
  146.0336   73.9281  215.6050 H   0  0  0  0  0  0  0  0  0  0  0  0
  144.7640   75.1080  217.4660 H   0  0  0  0  0  0  0  0  0  0  0  0
  138.8471   70.5514  221.4799 H   0  0  0  0  0  0  0  0  0  0  0  0
  138.7775   68.9508  223.3665 H   0  0  0  0  0  0  0  0  0  0  0  0
  139.3586   68.3894  225.7051 H   0  0  0  0  0  0  0  0  0  0  0  0
  141.5533   71.2684  228.0693 H   0  0  0  0  0  0  0  0  0  0  0  0
  141.5522   72.7767  226.0957 H   0  0  0  0  0  0  0  0  0  0  0  0
  1  2  2  0
  2  3  1  0
  3  4  1  0
  4  5  1  0
  5  6  2  0
  5  7  1  0
  7  8  1  0
  8  9  1  0
  9 10  1  0
 10 11  1  0
 11 12  1  0
 12 13  1  0
 13 14  2  0
 14 15  1  0
 15 16  2  0
 16 17  1  0
  2 18  1  0
 18 19  2  0
 19 20  1  0
 20 21  2  0
 21 22  1  0
 22 23  2  0
 23 24  1  0
 23 25  1  0
 25 26  2  0
 26 27  1  0
 27 28  2  0
 12  7  1  0
 17 13  1  0
 28 18  1  0
 27 21  1  0
  3 29  1  0
  4 30  1  0
  4 31  1  0
  8 32  1  0
  8 33  1  0
  9 34  1  0
  9 35  1  0
 10 36  1  0
 10 37  1  0
 11 38  1  0
 11 39  1  0
 12 40  1  1
 16 41  1  0
 17 42  1  0
 19 43  1  0
 20 44  1  0
 22 45  1  0
 25 46  1  0
 26 47  1  0
M  END
>  <smiles>  (34) 
O=C(NCC(=O)N1CCCC[C@H]1c1nnc[nH]1)c1ccc2cc(Cl)ccc2n1

>  <score_type>  (34) 
oracle

>  <origin>  (34) 
autodockgpu

>  <m_score__min__energy>  (34) 
-8.5800000000000001

>  <m_primary>  (34) 
energy

>  <rmsd>  (34) 
4.3239352153458395

>  <m_score__min__rmsd>  (34) 
4.3239352153458395

>  <meeko>  (34) 
{"free_energy": -7.12, "intermolecular_energy": -8.61, "internal_energy": -2.18, "cluster_size": 5, "cluster_id": 2, "rank_in_cluster": 5}

>  <energy>  (34) 
-7.12

>  <cluster_rmsd>  (34) 
1.9

>  <cluster>  (34) 
2

$$$$

     RDKit          3D

 47 50  0  0  0  0  0  0  0  0999 V2000
  139.9720   72.8570  220.6740 O   0  0  0  0  0  0  0  0  0  0  0  0
  139.7980   73.1060  221.8950 C   0  0  0  0  0  0  0  0  0  0  0  0
  139.5360   74.4290  222.3460 N   0  0  0  0  0  0  0  0  0  0  0  0
  139.4720   75.4980  221.3660 C   0  0  0  0  0  0  0  0  0  0  0  0
  140.7720   76.2200  221.3810 C   0  0  0  0  0  0  0  0  0  0  0  0
  141.8740   75.6490  221.1160 O   0  0  0  0  0  0  0  0  0  0  0  0
  140.7750   77.6070  221.7040 N   0  0  0  0  0  0  0  0  0  0  0  0
  140.9490   78.6450  220.6940 C   0  0  0  0  0  0  0  0  0  0  0  0
  141.6130   79.8780  221.2700 C   0  0  0  0  0  0  0  0  0  0  0  0
  142.5810   79.3930  222.3470 C   0  0  0  0  0  0  0  0  0  0  0  0
  141.8190   78.8280  223.5260 C   0  0  0  0  0  0  0  0  0  0  0  0
  140.6020   78.0480  223.0800 C   0  0  1  0  0  0  0  0  0  0  0  0
  139.3770   78.8630  223.2260 C   0  0  0  0  0  0  0  0  0  0  0  0
  139.2070   79.9470  224.0330 N   0  0  0  0  0  0  0  0  0  0  0  0
  137.9750   80.4030  223.8840 N   0  0  0  0  0  0  0  0  0  0  0  0
  137.3450   79.6240  222.9880 C   0  0  0  0  0  0  0  0  0  0  0  0
  138.2110   78.6790  222.5860 N   0  0  0  0  0  0  0  0  0  0  0  0
  139.8550   72.0510  222.9160 C   0  0  0  0  0  0  0  0  0  0  0  0
  139.3890   70.7780  222.6230 C   0  0  0  0  0  0  0  0  0  0  0  0
  139.4550   69.8090  223.6010 C   0  0  0  0  0  0  0  0  0  0  0  0
  139.9700   70.0750  224.8490 C   0  0  0  0  0  0  0  0  0  0  0  0
  140.0590   69.1450  225.8590 C   0  0  0  0  0  0  0  0  0  0  0  0
  140.5900   69.4720  227.1070 C   0  0  0  0  0  0  0  0  0  0  0  0
  140.7080   68.3070  228.3900 Cl  0  0  0  0  0  0  0  0  0  0  0  0
  141.0440   70.7650  227.3480 C   0  0  0  0  0  0  0  0  0  0  0  0
  140.9430   71.6770  226.3170 C   0  0  0  0  0  0  0  0  0  0  0  0
  140.4190   71.3430  225.0980 C   0  0  0  0  0  0  0  0  0  0  0  0
  140.3490   72.2640  224.1490 N   0  0  0  0  0  0  0  0  0  0  0  0
  139.3890   74.6670  223.3330 H   0  0  0  0  0  0  0  0  0  0  0  0
  139.2917   75.0764  220.3662 H   0  0  0  0  0  0  0  0  0  0  0  0
  138.6509   76.1883  221.6096 H   0  0  0  0  0  0  0  0  0  0  0  0
  141.5748   78.2498  219.8802 H   0  0  0  0  0  0  0  0  0  0  0  0
  139.9548   78.9322  220.3212 H   0  0  0  0  0  0  0  0  0  0  0  0
  142.1609   80.4163  220.4826 H   0  0  0  0  0  0  0  0  0  0  0  0
  140.8674   80.5688  221.6905 H   0  0  0  0  0  0  0  0  0  0  0  0
  143.2292   78.6104  221.9258 H   0  0  0  0  0  0  0  0  0  0  0  0
  143.1886   80.2435  222.6896 H   0  0  0  0  0  0  0  0  0  0  0  0
  142.4833   78.1595  224.0933 H   0  0  0  0  0  0  0  0  0  0  0  0
  141.4799   79.6674  224.1508 H   0  0  0  0  0  0  0  0  0  0  0  0
  140.4918   77.1609  223.7211 H   0  0  0  0  0  0  0  0  0  0  0  0
  136.3062   79.7396  222.6452 H   0  0  0  0  0  0  0  0  0  0  0  0
  137.9460   77.9510  221.8850 H   0  0  0  0  0  0  0  0  0  0  0  0
  138.9752   70.5464  221.6304 H   0  0  0  0  0  0  0  0  0  0  0  0
  139.0864   68.7968  223.3781 H   0  0  0  0  0  0  0  0  0  0  0  0
  139.7033   68.1199  225.6783 H   0  0  0  0  0  0  0  0  0  0  0  0
  141.4671   71.0494  228.3227 H   0  0  0  0  0  0  0  0  0  0  0  0
  141.2953   72.7061  226.4807 H   0  0  0  0  0  0  0  0  0  0  0  0
  1  2  2  0
  2  3  1  0
  3  4  1  0
  4  5  1  0
  5  6  2  0
  5  7  1  0
  7  8  1  0
  8  9  1  0
  9 10  1  0
 10 11  1  0
 11 12  1  0
 12 13  1  0
 13 14  2  0
 14 15  1  0
 15 16  2  0
 16 17  1  0
  2 18  1  0
 18 19  2  0
 19 20  1  0
 20 21  2  0
 21 22  1  0
 22 23  2  0
 23 24  1  0
 23 25  1  0
 25 26  2  0
 26 27  1  0
 27 28  2  0
 12  7  1  0
 17 13  1  0
 28 18  1  0
 27 21  1  0
  3 29  1  0
  4 30  1  0
  4 31  1  0
  8 32  1  0
  8 33  1  0
  9 34  1  0
  9 35  1  0
 10 36  1  0
 10 37  1  0
 11 38  1  0
 11 39  1  0
 12 40  1  1
 16 41  1  0
 17 42  1  0
 19 43  1  0
 20 44  1  0
 22 45  1  0
 25 46  1  0
 26 47  1  0
M  END
>  <smiles>  (35) 
O=C(NCC(=O)N1CCCC[C@H]1c1nnc[nH]1)c1ccc2cc(Cl)ccc2n1

>  <score_type>  (35) 
oracle

>  <origin>  (35) 
autodockgpu

>  <m_score__min__energy>  (35) 
-8.5800000000000001

>  <m_primary>  (35) 
energy

>  <rmsd>  (35) 
3.377574022076439

>  <m_score__min__rmsd>  (35) 
3.377574022076439

>  <meeko>  (35) 
{"free_energy": -7.94, "intermolecular_energy": -9.43, "internal_energy": -1.52, "cluster_size": 29, "cluster_id": 1, "rank_in_cluster": 24}

>  <energy>  (35) 
-7.53

>  <cluster_rmsd>  (35) 
0.0

>  <cluster>  (35) 
3

$$$$

     RDKit          3D

 47 50  0  0  0  0  0  0  0  0999 V2000
  140.8840   72.7250  220.8280 O   0  0  0  0  0  0  0  0  0  0  0  0
  140.1920   72.9180  221.8610 C   0  0  0  0  0  0  0  0  0  0  0  0
  139.4320   74.1090  222.0240 N   0  0  0  0  0  0  0  0  0  0  0  0
  139.4670   75.1070  220.9710 C   0  0  0  0  0  0  0  0  0  0  0  0
  140.5190   76.1020  221.3090 C   0  0  0  0  0  0  0  0  0  0  0  0
  141.7570   75.8320  221.2550 O   0  0  0  0  0  0  0  0  0  0  0  0
  140.1160   77.4090  221.7080 N   0  0  0  0  0  0  0  0  0  0  0  0
  139.0940   77.6350  222.7250 C   0  0  0  0  0  0  0  0  0  0  0  0
  138.3490   78.9320  222.4870 C   0  0  0  0  0  0  0  0  0  0  0  0
  138.2790   79.1260  220.9730 C   0  0  0  0  0  0  0  0  0  0  0  0
  139.6560   79.4120  220.4140 C   0  0  0  0  0  0  0  0  0  0  0  0
  140.7200   78.5870  221.1060 C   0  0  1  0  0  0  0  0  0  0  0  0
  141.4320   79.3960  222.1180 C   0  0  0  0  0  0  0  0  0  0  0  0
  140.9550   80.4890  222.7750 N   0  0  0  0  0  0  0  0  0  0  0  0
  141.8880   80.9340  223.6010 N   0  0  0  0  0  0  0  0  0  0  0  0
  142.9640   80.1370  223.4860 C   0  0  0  0  0  0  0  0  0  0  0  0
  142.6790   79.1930  222.5730 N   0  0  0  0  0  0  0  0  0  0  0  0
  140.1310   71.9320  222.9470 C   0  0  0  0  0  0  0  0  0  0  0  0
  139.5830   70.6790  222.7150 C   0  0  0  0  0  0  0  0  0  0  0  0
  139.5400   69.7750  223.7550 C   0  0  0  0  0  0  0  0  0  0  0  0
  140.0250   70.0850  225.0050 C   0  0  0  0  0  0  0  0  0  0  0  0
  140.0050   69.2200  226.0740 C   0  0  0  0  0  0  0  0  0  0  0  0
  140.5110   69.5890  227.3200 C   0  0  0  0  0  0  0  0  0  0  0  0
  140.4930   68.5060  228.6790 Cl  0  0  0  0  0  0  0  0  0  0  0  0
  141.0510   70.8590  227.4990 C   0  0  0  0  0  0  0  0  0  0  0  0
  141.0570   71.7060  226.4090 C   0  0  0  0  0  0  0  0  0  0  0  0
  140.5570   71.3300  225.1920 C   0  0  0  0  0  0  0  0  0  0  0  0
  140.5920   72.1890  224.1850 N   0  0  0  0  0  0  0  0  0  0  0  0
  138.8570   74.2990  222.8530 H   0  0  0  0  0  0  0  0  0  0  0  0
  139.7038   74.6265  220.0102 H   0  0  0  0  0  0  0  0  0  0  0  0
  138.4888   75.6027  220.8845 H   0  0  0  0  0  0  0  0  0  0  0  0
  138.3765   76.8016  222.7017 H   0  0  0  0  0  0  0  0  0  0  0  0
  139.5907   77.6979  223.7044 H   0  0  0  0  0  0  0  0  0  0  0  0
  137.3349   78.8697  222.9086 H   0  0  0  0  0  0  0  0  0  0  0  0
  138.8605   79.7770  222.9712 H   0  0  0  0  0  0  0  0  0  0  0  0
  137.8819   78.2115  220.5083 H   0  0  0  0  0  0  0  0  0  0  0  0
  137.6200   79.9787  220.7524 H   0  0  0  0  0  0  0  0  0  0  0  0
  139.6619   79.1741  219.3401 H   0  0  0  0  0  0  0  0  0  0  0  0
  139.8816   80.4755  220.5817 H   0  0  0  0  0  0  0  0  0  0  0  0
  141.4597   78.2591  220.3608 H   0  0  0  0  0  0  0  0  0  0  0  0
  143.9088   80.2391  224.0400 H   0  0  0  0  0  0  0  0  0  0  0  0
  143.3690   78.4530  222.3130 H   0  0  0  0  0  0  0  0  0  0  0  0
  139.1911   70.4123  221.7224 H   0  0  0  0  0  0  0  0  0  0  0  0
  139.1064   68.7792  223.5810 H   0  0  0  0  0  0  0  0  0  0  0  0
  139.5801   68.2139  225.9432 H   0  0  0  0  0  0  0  0  0  0  0  0
  141.4572   71.1756  228.4710 H   0  0  0  0  0  0  0  0  0  0  0  0
  141.4774   72.7161  226.5224 H   0  0  0  0  0  0  0  0  0  0  0  0
  1  2  2  0
  2  3  1  0
  3  4  1  0
  4  5  1  0
  5  6  2  0
  5  7  1  0
  7  8  1  0
  8  9  1  0
  9 10  1  0
 10 11  1  0
 11 12  1  0
 12 13  1  0
 13 14  2  0
 14 15  1  0
 15 16  2  0
 16 17  1  0
  2 18  1  0
 18 19  2  0
 19 20  1  0
 20 21  2  0
 21 22  1  0
 22 23  2  0
 23 24  1  0
 23 25  1  0
 25 26  2  0
 26 27  1  0
 27 28  2  0
 12  7  1  0
 17 13  1  0
 28 18  1  0
 27 21  1  0
  3 29  1  0
  4 30  1  0
  4 31  1  0
  8 32  1  0
  8 33  1  0
  9 34  1  0
  9 35  1  0
 10 36  1  0
 10 37  1  0
 11 38  1  0
 11 39  1  0
 12 40  1  6
 16 41  1  0
 17 42  1  0
 19 43  1  0
 20 44  1  0
 22 45  1  0
 25 46  1  0
 26 47  1  0
M  END
>  <smiles>  (36) 
O=C(NCC(=O)N1CCCC[C@H]1c1nnc[nH]1)c1ccc2cc(Cl)ccc2n1

>  <score_type>  (36) 
oracle

>  <origin>  (36) 
autodockgpu

>  <m_score__min__energy>  (36) 
-8.5800000000000001

>  <m_primary>  (36) 
energy

>  <rmsd>  (36) 
2.93269082734795

>  <m_score__min__rmsd>  (36) 
2.93269082734795

>  <meeko>  (36) 
{"free_energy": -8.37, "intermolecular_energy": -9.86, "internal_energy": -1.37, "cluster_size": 29, "cluster_id": 1, "rank_in_cluster": 13}

>  <energy>  (36) 
-7.42

>  <cluster_rmsd>  (36) 
0.0

>  <cluster>  (36) 
4

$$$$

     RDKit          3D

 47 50  0  0  0  0  0  0  0  0999 V2000
  140.2420   72.5560  220.6750 O   0  0  0  0  0  0  0  0  0  0  0  0
  139.8490   72.8280  221.8390 C   0  0  0  0  0  0  0  0  0  0  0  0
  139.3260   74.1110  222.1570 N   0  0  0  0  0  0  0  0  0  0  0  0
  139.2490   75.1120  221.1080 C   0  0  0  0  0  0  0  0  0  0  0  0
  140.5480   75.8330  221.0590 C   0  0  0  0  0  0  0  0  0  0  0  0
  141.6640   75.2300  221.0250 O   0  0  0  0  0  0  0  0  0  0  0  0
  140.5350   77.2570  221.0490 N   0  0  0  0  0  0  0  0  0  0  0  0
  139.2960   78.0280  221.0820 C   0  0  0  0  0  0  0  0  0  0  0  0
  139.4490   79.3580  220.3740 C   0  0  0  0  0  0  0  0  0  0  0  0
  140.4280   79.1330  219.2240 C   0  0  0  0  0  0  0  0  0  0  0  0
  141.8190   78.8660  219.7590 C   0  0  0  0  0  0  0  0  0  0  0  0
  141.7790   78.0100  221.0060 C   0  0  1  0  0  0  0  0  0  0  0  0
  141.9380   78.8440  222.2170 C   0  0  0  0  0  0  0  0  0  0  0  0
  141.1640   78.8140  223.3380 N   0  0  0  0  0  0  0  0  0  0  0  0
  141.6240   79.7060  224.1990 N   0  0  0  0  0  0  0  0  0  0  0  0
  142.6880   80.3130  223.6470 C   0  0  0  0  0  0  0  0  0  0  0  0
  142.8770   79.7790  222.4290 N   0  0  0  0  0  0  0  0  0  0  0  0
  139.9100   71.8430  222.9260 C   0  0  0  0  0  0  0  0  0  0  0  0
  139.4970   70.5370  222.7020 C   0  0  0  0  0  0  0  0  0  0  0  0
  139.5660   69.6350  223.7420 C   0  0  0  0  0  0  0  0  0  0  0  0
  140.0320   69.9980  224.9850 C   0  0  0  0  0  0  0  0  0  0  0  0
  140.1200   69.1370  226.0540 C   0  0  0  0  0  0  0  0  0  0  0  0
  140.6010   69.5610  227.2940 C   0  0  0  0  0  0  0  0  0  0  0  0
  140.7180   68.4840  228.6520 Cl  0  0  0  0  0  0  0  0  0  0  0  0
  141.0020   70.8820  227.4650 C   0  0  0  0  0  0  0  0  0  0  0  0
  140.9030   71.7230  226.3750 C   0  0  0  0  0  0  0  0  0  0  0  0
  140.4290   71.2940  225.1650 C   0  0  0  0  0  0  0  0  0  0  0  0
  140.3580   72.1500  224.1580 N   0  0  0  0  0  0  0  0  0  0  0  0
  138.9960   74.3670  223.0940 H   0  0  0  0  0  0  0  0  0  0  0  0
  139.0570   74.6242  220.1410 H   0  0  0  0  0  0  0  0  0  0  0  0
  138.4302   75.8170  221.3144 H   0  0  0  0  0  0  0  0  0  0  0  0
  138.5020   77.4493  220.5873 H   0  0  0  0  0  0  0  0  0  0  0  0
  139.0408   78.2250  222.1337 H   0  0  0  0  0  0  0  0  0  0  0  0
  138.4768   79.6939  219.9840 H   0  0  0  0  0  0  0  0  0  0  0  0
  139.8185   80.1324  221.0623 H   0  0  0  0  0  0  0  0  0  0  0  0
  140.0963   78.2689  218.6296 H   0  0  0  0  0  0  0  0  0  0  0  0
  140.4545   80.0360  218.5964 H   0  0  0  0  0  0  0  0  0  0  0  0
  142.4050   78.3457  218.9871 H   0  0  0  0  0  0  0  0  0  0  0  0
  142.2803   79.8306  220.0174 H   0  0  0  0  0  0  0  0  0  0  0  0
  142.6174   77.2985  220.9779 H   0  0  0  0  0  0  0  0  0  0  0  0
  143.2953   81.1050  224.1095 H   0  0  0  0  0  0  0  0  0  0  0  0
  143.6540   80.0940  221.8040 H   0  0  0  0  0  0  0  0  0  0  0  0
  139.1224   70.2282  221.7149 H   0  0  0  0  0  0  0  0  0  0  0  0
  139.2401   68.5979  223.5740 H   0  0  0  0  0  0  0  0  0  0  0  0
  139.8042   68.0907  225.9290 H   0  0  0  0  0  0  0  0  0  0  0  0
  141.3833   71.2425  228.4317 H   0  0  0  0  0  0  0  0  0  0  0  0
  141.2153   72.7723  226.4824 H   0  0  0  0  0  0  0  0  0  0  0  0
  1  2  2  0
  2  3  1  0
  3  4  1  0
  4  5  1  0
  5  6  2  0
  5  7  1  0
  7  8  1  0
  8  9  1  0
  9 10  1  0
 10 11  1  0
 11 12  1  0
 12 13  1  0
 13 14  2  0
 14 15  1  0
 15 16  2  0
 16 17  1  0
  2 18  1  0
 18 19  2  0
 19 20  1  0
 20 21  2  0
 21 22  1  0
 22 23  2  0
 23 24  1  0
 23 25  1  0
 25 26  2  0
 26 27  1  0
 27 28  2  0
 12  7  1  0
 17 13  1  0
 28 18  1  0
 27 21  1  0
  3 29  1  0
  4 30  1  0
  4 31  1  0
  8 32  1  0
  8 33  1  0
  9 34  1  0
  9 35  1  0
 10 36  1  0
 10 37  1  0
 11 38  1  0
 11 39  1  0
 12 40  1  6
 16 41  1  0
 17 42  1  0
 19 43  1  0
 20 44  1  0
 22 45  1  0
 25 46  1  0
 26 47  1  0
M  END
>  <smiles>  (37) 
O=C(NCC(=O)N1CCCC[C@H]1c1nnc[nH]1)c1ccc2cc(Cl)ccc2n1

>  <score_type>  (37) 
oracle

>  <origin>  (37) 
autodockgpu

>  <m_score__min__energy>  (37) 
-8.5800000000000001

>  <m_primary>  (37) 
energy

>  <rmsd>  (37) 
2.4091791980832755

>  <m_score__min__rmsd>  (37) 
2.4091791980832755

>  <meeko>  (37) 
{"free_energy": -8.33, "intermolecular_energy": -9.82, "internal_energy": -1.37, "cluster_size": 29, "cluster_id": 1, "rank_in_cluster": 17}

>  <energy>  (37) 
-7.38

>  <cluster_rmsd>  (37) 
0.26

>  <cluster>  (37) 
4

$$$$

     RDKit          3D

 47 50  0  0  0  0  0  0  0  0999 V2000
  139.1960   75.6350  223.0940 O   0  0  0  0  0  0  0  0  0  0  0  0
  139.6350   75.6170  221.9160 C   0  0  0  0  0  0  0  0  0  0  0  0
  139.2520   76.6110  220.9740 N   0  0  0  0  0  0  0  0  0  0  0  0
  138.3390   77.6580  221.3970 C   0  0  0  0  0  0  0  0  0  0  0  0
  139.0520   78.5300  222.3670 C   0  0  0  0  0  0  0  0  0  0  0  0
  138.4870   79.0160  223.3940 O   0  0  0  0  0  0  0  0  0  0  0  0
  140.4250   78.8280  222.1320 N   0  0  0  0  0  0  0  0  0  0  0  0
  141.4800   78.4370  223.0610 C   0  0  0  0  0  0  0  0  0  0  0  0
  142.6470   79.4010  223.0170 C   0  0  0  0  0  0  0  0  0  0  0  0
  142.0640   80.7830  222.7280 C   0  0  0  0  0  0  0  0  0  0  0  0
  141.5150   80.8400  221.3180 C   0  0  0  0  0  0  0  0  0  0  0  0
  140.8340   79.5450  220.9340 C   0  0  1  0  0  0  0  0  0  0  0  0
  141.7240   78.7150  220.0950 C   0  0  0  0  0  0  0  0  0  0  0  0
  142.1790   79.0100  218.8450 N   0  0  0  0  0  0  0  0  0  0  0  0
  142.9520   78.0210  218.4270 N   0  0  0  0  0  0  0  0  0  0  0  0
  143.0030   77.0900  219.3940 C   0  0  0  0  0  0  0  0  0  0  0  0
  142.2470   77.5220  220.4190 N   0  0  0  0  0  0  0  0  0  0  0  0
  140.5600   74.5760  221.4500 C   0  0  0  0  0  0  0  0  0  0  0  0
  140.1090   73.2750  221.2790 C   0  0  0  0  0  0  0  0  0  0  0  0
  141.0010   72.3200  220.8420 C   0  0  0  0  0  0  0  0  0  0  0  0
  142.3150   72.6260  220.5720 C   0  0  0  0  0  0  0  0  0  0  0  0
  143.2440   71.7100  220.1340 C   0  0  0  0  0  0  0  0  0  0  0  0
  144.5650   72.0780  219.8770 C   0  0  0  0  0  0  0  0  0  0  0  0
  145.7480   70.9320  219.3230 Cl  0  0  0  0  0  0  0  0  0  0  0  0
  144.9650   73.3970  220.0640 C   0  0  0  0  0  0  0  0  0  0  0  0
  144.0120   74.2940  220.5040 C   0  0  0  0  0  0  0  0  0  0  0  0
  142.7200   73.9190  220.7530 C   0  0  0  0  0  0  0  0  0  0  0  0
  141.8530   74.8270  221.1740 N   0  0  0  0  0  0  0  0  0  0  0  0
  139.5910   76.6270  220.0050 H   0  0  0  0  0  0  0  0  0  0  0  0
  138.0223   78.2506  220.5260 H   0  0  0  0  0  0  0  0  0  0  0  0
  137.4462   77.2181  221.8655 H   0  0  0  0  0  0  0  0  0  0  0  0
  141.0691   78.4202  224.0812 H   0  0  0  0  0  0  0  0  0  0  0  0
  141.8448   77.4415  222.7680 H   0  0  0  0  0  0  0  0  0  0  0  0
  143.1717   79.4055  223.9838 H   0  0  0  0  0  0  0  0  0  0  0  0
  143.3731   79.1083  222.2442 H   0  0  0  0  0  0  0  0  0  0  0  0
  141.2529   80.9906  223.4414 H   0  0  0  0  0  0  0  0  0  0  0  0
  142.8602   81.5349  222.8316 H   0  0  0  0  0  0  0  0  0  0  0  0
  140.7854   81.6606  221.2517 H   0  0  0  0  0  0  0  0  0  0  0  0
  142.3552   81.0053  220.6275 H   0  0  0  0  0  0  0  0  0  0  0  0
  139.9367   79.7757  220.3410 H   0  0  0  0  0  0  0  0  0  0  0  0
  143.5628   76.1439  219.3546 H   0  0  0  0  0  0  0  0  0  0  0  0
  142.1330   76.9610  221.2930 H   0  0  0  0  0  0  0  0  0  0  0  0
  139.0616   73.0116  221.4879 H   0  0  0  0  0  0  0  0  0  0  0  0
  140.6533   71.2854  220.7053 H   0  0  0  0  0  0  0  0  0  0  0  0
  142.9382   70.6642  219.9831 H   0  0  0  0  0  0  0  0  0  0  0  0
  146.0003   73.7132  219.8689 H   0  0  0  0  0  0  0  0  0  0  0  0
  144.3008   75.3440  220.6593 H   0  0  0  0  0  0  0  0  0  0  0  0
  1  2  2  0
  2  3  1  0
  3  4  1  0
  4  5  1  0
  5  6  2  0
  5  7  1  0
  7  8  1  0
  8  9  1  0
  9 10  1  0
 10 11  1  0
 11 12  1  0
 12 13  1  0
 13 14  2  0
 14 15  1  0
 15 16  2  0
 16 17  1  0
  2 18  1  0
 18 19  2  0
 19 20  1  0
 20 21  2  0
 21 22  1  0
 22 23  2  0
 23 24  1  0
 23 25  1  0
 25 26  2  0
 26 27  1  0
 27 28  2  0
 12  7  1  0
 17 13  1  0
 28 18  1  0
 27 21  1  0
  3 29  1  0
  4 30  1  0
  4 31  1  0
  8 32  1  0
  8 33  1  0
  9 34  1  0
  9 35  1  0
 10 36  1  0
 10 37  1  0
 11 38  1  0
 11 39  1  0
 12 40  1  6
 16 41  1  0
 17 42  1  0
 19 43  1  0
 20 44  1  0
 22 45  1  0
 25 46  1  0
 26 47  1  0
M  END
>  <smiles>  (38) 
O=C(NCC(=O)N1CCCC[C@H]1c1nnc[nH]1)c1ccc2cc(Cl)ccc2n1

>  <score_type>  (38) 
oracle

>  <origin>  (38) 
autodockgpu

>  <m_score__min__energy>  (38) 
-8.5800000000000001

>  <m_primary>  (38) 
energy

>  <rmsd>  (38) 
5.867335653208122

>  <m_score__min__rmsd>  (38) 
5.867335653208122

>  <meeko>  (38) 
{"free_energy": -6.39, "intermolecular_energy": -7.88, "internal_energy": -2.79, "cluster_size": 3, "cluster_id": 6, "rank_in_cluster": 3}

>  <energy>  (38) 
-7.36

>  <cluster_rmsd>  (38) 
0.26

>  <cluster>  (38) 
4

$$$$

     RDKit          3D

 47 50  0  0  0  0  0  0  0  0999 V2000
  139.9970   72.5840  220.7370 O   0  0  0  0  0  0  0  0  0  0  0  0
  139.7880   72.8810  221.9410 C   0  0  0  0  0  0  0  0  0  0  0  0
  139.4610   74.2100  222.3260 N   0  0  0  0  0  0  0  0  0  0  0  0
  139.3700   75.2300  221.2960 C   0  0  0  0  0  0  0  0  0  0  0  0
  139.1520   76.5410  221.9610 C   0  0  0  0  0  0  0  0  0  0  0  0
  138.3310   76.6950  222.9160 O   0  0  0  0  0  0  0  0  0  0  0  0
  139.8970   77.6670  221.5060 N   0  0  0  0  0  0  0  0  0  0  0  0
  139.2630   78.8200  220.8740 C   0  0  0  0  0  0  0  0  0  0  0  0
  140.1920   79.4930  219.8850 C   0  0  0  0  0  0  0  0  0  0  0  0
  141.0490   78.3900  219.2670 C   0  0  0  0  0  0  0  0  0  0  0  0
  141.9990   77.8190  220.2990 C   0  0  0  0  0  0  0  0  0  0  0  0
  141.3430   77.7100  221.6580 C   0  0  1  0  0  0  0  0  0  0  0  0
  141.7530   78.8330  222.5280 C   0  0  0  0  0  0  0  0  0  0  0  0
  141.2430   79.1480  223.7510 N   0  0  0  0  0  0  0  0  0  0  0  0
  141.8690   80.2170  224.2140 N   0  0  0  0  0  0  0  0  0  0  0  0
  142.7800   80.5970  223.3020 C   0  0  0  0  0  0  0  0  0  0  0  0
  142.7050   79.7420  222.2670 N   0  0  0  0  0  0  0  0  0  0  0  0
  139.8700   71.8770  223.0110 C   0  0  0  0  0  0  0  0  0  0  0  0
  139.4550   70.5750  222.7720 C   0  0  0  0  0  0  0  0  0  0  0  0
  139.5450   69.6560  223.7950 C   0  0  0  0  0  0  0  0  0  0  0  0
  140.0320   69.9980  225.0350 C   0  0  0  0  0  0  0  0  0  0  0  0
  140.1420   69.1190  226.0880 C   0  0  0  0  0  0  0  0  0  0  0  0
  140.6440   69.5230  227.3260 C   0  0  0  0  0  0  0  0  0  0  0  0
  140.7870   68.4240  228.6630 Cl  0  0  0  0  0  0  0  0  0  0  0  0
  141.0460   70.8420  227.5120 C   0  0  0  0  0  0  0  0  0  0  0  0
  140.9260   71.7010  226.4380 C   0  0  0  0  0  0  0  0  0  0  0  0
  140.4310   71.2910  225.2300 C   0  0  0  0  0  0  0  0  0  0  0  0
  140.3390   72.1640  224.2390 N   0  0  0  0  0  0  0  0  0  0  0  0
  139.2850   74.4870  223.2980 H   0  0  0  0  0  0  0  0  0  0  0  0
  140.3038   75.2575  220.7152 H   0  0  0  0  0  0  0  0  0  0  0  0
  138.5378   75.0071  220.6120 H   0  0  0  0  0  0  0  0  0  0  0  0
  138.3592   78.4848  220.3440 H   0  0  0  0  0  0  0  0  0  0  0  0
  139.0100   79.5476  221.6592 H   0  0  0  0  0  0  0  0  0  0  0  0
  139.6091   80.0027  219.1037 H   0  0  0  0  0  0  0  0  0  0  0  0
  140.8180   80.2490  220.3816 H   0  0  0  0  0  0  0  0  0  0  0  0
  140.3944   77.5884  218.8941 H   0  0  0  0  0  0  0  0  0  0  0  0
  141.6352   78.8152  218.4390 H   0  0  0  0  0  0  0  0  0  0  0  0
  142.3183   76.8174  219.9751 H   0  0  0  0  0  0  0  0  0  0  0  0
  142.8612   78.4965  220.3859 H   0  0  0  0  0  0  0  0  0  0  0  0
  141.6723   76.7775  222.1397 H   0  0  0  0  0  0  0  0  0  0  0  0
  143.4644   81.4540  223.3870 H   0  0  0  0  0  0  0  0  0  0  0  0
  143.3220   79.8360  221.4290 H   0  0  0  0  0  0  0  0  0  0  0  0
  139.0625   70.2824  221.7870 H   0  0  0  0  0  0  0  0  0  0  0  0
  139.2186   68.6211  223.6150 H   0  0  0  0  0  0  0  0  0  0  0  0
  139.8271   68.0740  225.9509 H   0  0  0  0  0  0  0  0  0  0  0  0
  141.4441   71.1870  228.4776 H   0  0  0  0  0  0  0  0  0  0  0  0
  141.2384   72.7489  226.5572 H   0  0  0  0  0  0  0  0  0  0  0  0
  1  2  2  0
  2  3  1  0
  3  4  1  0
  4  5  1  0
  5  6  2  0
  5  7  1  0
  7  8  1  0
  8  9  1  0
  9 10  1  0
 10 11  1  0
 11 12  1  0
 12 13  1  0
 13 14  2  0
 14 15  1  0
 15 16  2  0
 16 17  1  0
  2 18  1  0
 18 19  2  0
 19 20  1  0
 20 21  2  0
 21 22  1  0
 22 23  2  0
 23 24  1  0
 23 25  1  0
 25 26  2  0
 26 27  1  0
 27 28  2  0
 12  7  1  0
 17 13  1  0
 28 18  1  0
 27 21  1  0
  3 29  1  0
  4 30  1  0
  4 31  1  0
  8 32  1  0
  8 33  1  0
  9 34  1  0
  9 35  1  0
 10 36  1  0
 10 37  1  0
 11 38  1  0
 11 39  1  0
 12 40  1  1
 16 41  1  0
 17 42  1  0
 19 43  1  0
 20 44  1  0
 22 45  1  0
 25 46  1  0
 26 47  1  0
M  END
>  <smiles>  (39) 
O=C(NCC(=O)N1CCCC[C@H]1c1nnc[nH]1)c1ccc2cc(Cl)ccc2n1

>  <score_type>  (39) 
oracle

>  <origin>  (39) 
autodockgpu

>  <m_score__min__energy>  (39) 
-8.5800000000000001

>  <m_primary>  (39) 
energy

>  <rmsd>  (39) 
2.5198021926344807

>  <m_score__min__rmsd>  (39) 
2.5198021926344807

>  <meeko>  (39) 
{"free_energy": -8.42, "intermolecular_energy": -9.91, "internal_energy": -1.73, "cluster_size": 29, "cluster_id": 1, "rank_in_cluster": 12}

>  <energy>  (39) 
-7.2

>  <cluster_rmsd>  (39) 
0.45

>  <cluster>  (39) 
4

$$$$

     RDKit          3D

 47 50  0  0  0  0  0  0  0  0999 V2000
  140.7500   72.8670  220.7880 O   0  0  0  0  0  0  0  0  0  0  0  0
  140.1890   73.0750  221.8950 C   0  0  0  0  0  0  0  0  0  0  0  0
  139.5750   74.3240  222.1850 N   0  0  0  0  0  0  0  0  0  0  0  0
  139.6050   75.3660  221.1750 C   0  0  0  0  0  0  0  0  0  0  0  0
  140.8860   76.1080  221.3120 C   0  0  0  0  0  0  0  0  0  0  0  0
  142.0160   75.5580  221.1390 O   0  0  0  0  0  0  0  0  0  0  0  0
  140.8370   77.4910  221.6480 N   0  0  0  0  0  0  0  0  0  0  0  0
  141.0100   78.5440  220.6520 C   0  0  0  0  0  0  0  0  0  0  0  0
  141.6180   79.7910  221.2600 C   0  0  0  0  0  0  0  0  0  0  0  0
  142.5670   79.3240  222.3620 C   0  0  0  0  0  0  0  0  0  0  0  0
  141.7870   78.7250  223.5120 C   0  0  0  0  0  0  0  0  0  0  0  0
  140.6080   77.9130  223.0210 C   0  0  1  0  0  0  0  0  0  0  0  0
  139.3550   78.6890  223.1360 C   0  0  0  0  0  0  0  0  0  0  0  0
  138.1210   78.3210  222.6910 N   0  0  0  0  0  0  0  0  0  0  0  0
  137.2580   79.2800  222.9810 N   0  0  0  0  0  0  0  0  0  0  0  0
  137.9200   80.2640  223.6120 C   0  0  0  0  0  0  0  0  0  0  0  0
  139.2090   79.8960  223.7050 N   0  0  0  0  0  0  0  0  0  0  0  0
  140.1380   72.0450  222.9420 C   0  0  0  0  0  0  0  0  0  0  0  0
  139.5940   70.8000  222.6630 C   0  0  0  0  0  0  0  0  0  0  0  0
  139.5600   69.8550  223.6660 C   0  0  0  0  0  0  0  0  0  0  0  0
  140.0500   70.1170  224.9240 C   0  0  0  0  0  0  0  0  0  0  0  0
  140.0390   69.2100  225.9580 C   0  0  0  0  0  0  0  0  0  0  0  0
  140.5500   69.5320  227.2160 C   0  0  0  0  0  0  0  0  0  0  0  0
  140.5430   68.3960  228.5300 Cl  0  0  0  0  0  0  0  0  0  0  0  0
  141.0850   70.7970  227.4430 C   0  0  0  0  0  0  0  0  0  0  0  0
  141.0820   71.6860  226.3870 C   0  0  0  0  0  0  0  0  0  0  0  0
  140.5770   71.3570  225.1590 C   0  0  0  0  0  0  0  0  0  0  0  0
  140.6040   72.2550  224.1870 N   0  0  0  0  0  0  0  0  0  0  0  0
  139.1090   74.5270  223.0760 H   0  0  0  0  0  0  0  0  0  0  0  0
  139.5405   74.9159  220.1734 H   0  0  0  0  0  0  0  0  0  0  0  0
  138.7535   76.0495  221.3084 H   0  0  0  0  0  0  0  0  0  0  0  0
  141.6724   78.1760  219.8546 H   0  0  0  0  0  0  0  0  0  0  0  0
  140.0196   78.8043  220.2504 H   0  0  0  0  0  0  0  0  0  0  0  0
  142.1730   80.3539  220.4951 H   0  0  0  0  0  0  0  0  0  0  0  0
  140.8391   80.4547  221.6635 H   0  0  0  0  0  0  0  0  0  0  0  0
  143.2508   78.5652  221.9538 H   0  0  0  0  0  0  0  0  0  0  0  0
  143.1382   80.1888  222.7307 H   0  0  0  0  0  0  0  0  0  0  0  0
  142.4536   78.0712  224.0935 H   0  0  0  0  0  0  0  0  0  0  0  0
  141.4038   79.5475  224.1338 H   0  0  0  0  0  0  0  0  0  0  0  0
  140.5047   77.0168  223.6504 H   0  0  0  0  0  0  0  0  0  0  0  0
  137.4849   81.2027  223.9856 H   0  0  0  0  0  0  0  0  0  0  0  0
  139.9240   80.5060  224.1610 H   0  0  0  0  0  0  0  0  0  0  0  0
  139.1981   70.5716  221.6625 H   0  0  0  0  0  0  0  0  0  0  0  0
  139.1295   68.8651  223.4545 H   0  0  0  0  0  0  0  0  0  0  0  0
  139.6178   68.2079  225.7894 H   0  0  0  0  0  0  0  0  0  0  0  0
  141.4940   71.0770  228.4250 H   0  0  0  0  0  0  0  0  0  0  0  0
  141.4996   72.6924  226.5380 H   0  0  0  0  0  0  0  0  0  0  0  0
  1  2  2  0
  2  3  1  0
  3  4  1  0
  4  5  1  0
  5  6  2  0
  5  7  1  0
  7  8  1  0
  8  9  1  0
  9 10  1  0
 10 11  1  0
 11 12  1  0
 12 13  1  0
 13 14  2  0
 14 15  1  0
 15 16  2  0
 16 17  1  0
  2 18  1  0
 18 19  2  0
 19 20  1  0
 20 21  2  0
 21 22  1  0
 22 23  2  0
 23 24  1  0
 23 25  1  0
 25 26  2  0
 26 27  1  0
 27 28  2  0
 12  7  1  0
 17 13  1  0
 28 18  1  0
 27 21  1  0
  3 29  1  0
  4 30  1  0
  4 31  1  0
  8 32  1  0
  8 33  1  0
  9 34  1  0
  9 35  1  0
 10 36  1  0
 10 37  1  0
 11 38  1  0
 11 39  1  0
 12 40  1  1
 16 41  1  0
 17 42  1  0
 19 43  1  0
 20 44  1  0
 22 45  1  0
 25 46  1  0
 26 47  1  0
M  END
>  <smiles>  (40) 
O=C(NCC(=O)N1CCCC[C@H]1c1nnc[nH]1)c1ccc2cc(Cl)ccc2n1

>  <score_type>  (40) 
oracle

>  <origin>  (40) 
autodockgpu

>  <m_score__min__energy>  (40) 
-8.5800000000000001

>  <m_primary>  (40) 
energy

>  <rmsd>  (40) 
3.3397699959235934

>  <m_score__min__rmsd>  (40) 
3.3397699959235934

>  <meeko>  (40) 
{"free_energy": -7.84, "intermolecular_energy": -9.34, "internal_energy": -1.43, "cluster_size": 29, "cluster_id": 1, "rank_in_cluster": 28}

>  <energy>  (40) 
-7.25

>  <cluster_rmsd>  (40) 
0.0

>  <cluster>  (40) 
5

$$$$

     RDKit          3D

 47 50  0  0  0  0  0  0  0  0999 V2000
  140.4020   72.6730  220.8040 O   0  0  0  0  0  0  0  0  0  0  0  0
  140.0320   72.9480  221.9750 C   0  0  0  0  0  0  0  0  0  0  0  0
  139.5880   74.2540  222.3180 N   0  0  0  0  0  0  0  0  0  0  0  0
  139.5650   75.2750  221.2870 C   0  0  0  0  0  0  0  0  0  0  0  0
  139.2980   76.5850  221.9380 C   0  0  0  0  0  0  0  0  0  0  0  0
  138.4960   76.7140  222.9120 O   0  0  0  0  0  0  0  0  0  0  0  0
  139.9730   77.7390  221.4450 N   0  0  0  0  0  0  0  0  0  0  0  0
  139.2730   78.8240  220.7670 C   0  0  0  0  0  0  0  0  0  0  0  0
  140.1650   79.5190  219.7590 C   0  0  0  0  0  0  0  0  0  0  0  0
  141.0970   78.4510  219.1890 C   0  0  0  0  0  0  0  0  0  0  0  0
  142.0720   77.9820  220.2480 C   0  0  0  0  0  0  0  0  0  0  0  0
  141.4120   77.8810  221.6060 C   0  0  1  0  0  0  0  0  0  0  0  0
  141.7410   79.0590  222.4360 C   0  0  0  0  0  0  0  0  0  0  0  0
  142.9410   79.7000  222.5070 N   0  0  0  0  0  0  0  0  0  0  0  0
  142.8380   80.7080  223.3580 N   0  0  0  0  0  0  0  0  0  0  0  0
  141.5830   80.7260  223.8370 C   0  0  0  0  0  0  0  0  0  0  0  0
  140.9120   79.7110  223.2670 N   0  0  0  0  0  0  0  0  0  0  0  0
  140.0410   71.9410  223.0450 C   0  0  0  0  0  0  0  0  0  0  0  0
  139.5720   70.6600  222.7940 C   0  0  0  0  0  0  0  0  0  0  0  0
  139.5920   69.7380  223.8180 C   0  0  0  0  0  0  0  0  0  0  0  0
  140.0640   70.0570  225.0710 C   0  0  0  0  0  0  0  0  0  0  0  0
  140.1060   69.1750  226.1250 C   0  0  0  0  0  0  0  0  0  0  0  0
  140.5950   69.5550  227.3750 C   0  0  0  0  0  0  0  0  0  0  0  0
  140.6530   68.4500  228.7150 Cl  0  0  0  0  0  0  0  0  0  0  0  0
  141.0540   70.8530  227.5730 C   0  0  0  0  0  0  0  0  0  0  0  0
  141.0000   71.7170  226.4970 C   0  0  0  0  0  0  0  0  0  0  0  0
  140.5170   71.3310  225.2770 C   0  0  0  0  0  0  0  0  0  0  0  0
  140.4920   72.2070  224.2840 N   0  0  0  0  0  0  0  0  0  0  0  0
  139.2790   74.5120  223.2620 H   0  0  0  0  0  0  0  0  0  0  0  0
  140.5363   75.3061  220.7717 H   0  0  0  0  0  0  0  0  0  0  0  0
  138.7823   75.0512  220.5473 H   0  0  0  0  0  0  0  0  0  0  0  0
  138.3971   78.4122  220.2444 H   0  0  0  0  0  0  0  0  0  0  0  0
  138.9680   79.5623  221.5232 H   0  0  0  0  0  0  0  0  0  0  0  0
  139.5572   79.9601  218.9553 H   0  0  0  0  0  0  0  0  0  0  0  0
  140.7361   80.3325  220.2302 H   0  0  0  0  0  0  0  0  0  0  0  0
  140.4988   77.5953  218.8426 H   0  0  0  0  0  0  0  0  0  0  0  0
  141.6621   78.8817  218.3492 H   0  0  0  0  0  0  0  0  0  0  0  0
  142.4586   76.9920  219.9643 H   0  0  0  0  0  0  0  0  0  0  0  0
  142.8875   78.7172  220.3152 H   0  0  0  0  0  0  0  0  0  0  0  0
  141.7960   76.9904  222.1251 H   0  0  0  0  0  0  0  0  0  0  0  0
  141.1773   81.4434  224.5655 H   0  0  0  0  0  0  0  0  0  0  0  0
  139.9080   79.5220  223.4860 H   0  0  0  0  0  0  0  0  0  0  0  0
  139.1922   70.3859  221.7987 H   0  0  0  0  0  0  0  0  0  0  0  0
  139.2208   68.7199  223.6290 H   0  0  0  0  0  0  0  0  0  0  0  0
  139.7457   68.1460  225.9792 H   0  0  0  0  0  0  0  0  0  0  0  0
  141.4447   71.1785  228.5484 H   0  0  0  0  0  0  0  0  0  0  0  0
  141.3571   72.7495  226.6253 H   0  0  0  0  0  0  0  0  0  0  0  0
  1  2  2  0
  2  3  1  0
  3  4  1  0
  4  5  1  0
  5  6  2  0
  5  7  1  0
  7  8  1  0
  8  9  1  0
  9 10  1  0
 10 11  1  0
 11 12  1  0
 12 13  1  0
 13 14  2  0
 14 15  1  0
 15 16  2  0
 16 17  1  0
  2 18  1  0
 18 19  2  0
 19 20  1  0
 20 21  2  0
 21 22  1  0
 22 23  2  0
 23 24  1  0
 23 25  1  0
 25 26  2  0
 26 27  1  0
 27 28  2  0
 12  7  1  0
 17 13  1  0
 28 18  1  0
 27 21  1  0
  3 29  1  0
  4 30  1  0
  4 31  1  0
  8 32  1  0
  8 33  1  0
  9 34  1  0
  9 35  1  0
 10 36  1  0
 10 37  1  0
 11 38  1  0
 11 39  1  0
 12 40  1  1
 16 41  1  0
 17 42  1  0
 19 43  1  0
 20 44  1  0
 22 45  1  0
 25 46  1  0
 26 47  1  0
M  END
>  <smiles>  (41) 
O=C(NCC(=O)N1CCCC[C@H]1c1nnc[nH]1)c1ccc2cc(Cl)ccc2n1

>  <score_type>  (41) 
oracle

>  <origin>  (41) 
autodockgpu

>  <m_score__min__energy>  (41) 
-8.5800000000000001

>  <m_primary>  (41) 
energy

>  <rmsd>  (41) 
2.559103203719118

>  <m_score__min__rmsd>  (41) 
2.559103203719118

>  <meeko>  (41) 
{"free_energy": -7.87, "intermolecular_energy": -9.36, "internal_energy": -1.85, "cluster_size": 29, "cluster_id": 1, "rank_in_cluster": 26}

>  <energy>  (41) 
-6.61

>  <cluster_rmsd>  (41) 
0.0

>  <cluster>  (41) 
6

$$$$

     RDKit          3D

 47 50  0  0  0  0  0  0  0  0999 V2000
  140.2330   72.6720  220.8020 O   0  0  0  0  0  0  0  0  0  0  0  0
  139.9140   72.9510  221.9860 C   0  0  0  0  0  0  0  0  0  0  0  0
  139.4920   74.2610  222.3450 N   0  0  0  0  0  0  0  0  0  0  0  0
  139.4350   75.2810  221.3140 C   0  0  0  0  0  0  0  0  0  0  0  0
  139.2150   76.5950  221.9740 C   0  0  0  0  0  0  0  0  0  0  0  0
  138.4190   76.7450  222.9510 O   0  0  0  0  0  0  0  0  0  0  0  0
  139.9280   77.7280  221.4870 N   0  0  0  0  0  0  0  0  0  0  0  0
  139.2660   78.8320  220.8000 C   0  0  0  0  0  0  0  0  0  0  0  0
  140.1880   79.4990  219.8010 C   0  0  0  0  0  0  0  0  0  0  0  0
  141.0950   78.4050  219.2410 C   0  0  0  0  0  0  0  0  0  0  0  0
  142.0450   77.9090  220.3100 C   0  0  0  0  0  0  0  0  0  0  0  0
  141.3690   77.8280  221.6610 C   0  0  1  0  0  0  0  0  0  0  0  0
  141.7230   78.9980  222.4930 C   0  0  0  0  0  0  0  0  0  0  0  0
  140.8870   79.7170  223.2930 N   0  0  0  0  0  0  0  0  0  0  0  0
  141.5770   80.6840  223.8750 N   0  0  0  0  0  0  0  0  0  0  0  0
  142.8520   80.5970  223.4600 C   0  0  0  0  0  0  0  0  0  0  0  0
  142.9370   79.5580  222.6120 N   0  0  0  0  0  0  0  0  0  0  0  0
  139.9590   71.9460  223.0570 C   0  0  0  0  0  0  0  0  0  0  0  0
  139.5100   70.6560  222.8140 C   0  0  0  0  0  0  0  0  0  0  0  0
  139.5650   69.7350  223.8390 C   0  0  0  0  0  0  0  0  0  0  0  0
  140.0500   70.0650  225.0830 C   0  0  0  0  0  0  0  0  0  0  0  0
  140.1250   69.1850  226.1370 C   0  0  0  0  0  0  0  0  0  0  0  0
  140.6270   69.5750  227.3800 C   0  0  0  0  0  0  0  0  0  0  0  0
  140.7280   68.4740  228.7190 Cl  0  0  0  0  0  0  0  0  0  0  0  0
  141.0640   70.8830  227.5690 C   0  0  0  0  0  0  0  0  0  0  0  0
  140.9770   71.7440  226.4940 C   0  0  0  0  0  0  0  0  0  0  0  0
  140.4820   71.3470  225.2820 C   0  0  0  0  0  0  0  0  0  0  0  0
  140.4240   72.2220  224.2890 N   0  0  0  0  0  0  0  0  0  0  0  0
  139.2250   74.5230  223.3010 H   0  0  0  0  0  0  0  0  0  0  0  0
  140.3821   75.2989  220.7548 H   0  0  0  0  0  0  0  0  0  0  0  0
  138.6164   75.0664  220.6112 H   0  0  0  0  0  0  0  0  0  0  0  0
  138.3841   78.4446  220.2687 H   0  0  0  0  0  0  0  0  0  0  0  0
  138.9741   79.5799  221.5519 H   0  0  0  0  0  0  0  0  0  0  0  0
  139.6014   79.9565  218.9907 H   0  0  0  0  0  0  0  0  0  0  0  0
  140.7777   80.2957  220.2780 H   0  0  0  0  0  0  0  0  0  0  0  0
  140.4764   77.5665  218.8884 H   0  0  0  0  0  0  0  0  0  0  0  0
  141.6808   78.8192  218.4072 H   0  0  0  0  0  0  0  0  0  0  0  0
  142.4057   76.9081  220.0306 H   0  0  0  0  0  0  0  0  0  0  0  0
  142.8805   78.6206  220.3852 H   0  0  0  0  0  0  0  0  0  0  0  0
  141.7223   76.9268  222.1835 H   0  0  0  0  0  0  0  0  0  0  0  0
  143.6783   81.2579  223.7606 H   0  0  0  0  0  0  0  0  0  0  0  0
  143.8390   79.2920  222.1560 H   0  0  0  0  0  0  0  0  0  0  0  0
  139.1187   70.3740  221.8254 H   0  0  0  0  0  0  0  0  0  0  0  0
  139.2116   68.7094  223.6568 H   0  0  0  0  0  0  0  0  0  0  0  0
  139.7814   68.1494  225.9975 H   0  0  0  0  0  0  0  0  0  0  0  0
  141.4633   71.2175  228.5379 H   0  0  0  0  0  0  0  0  0  0  0  0
  141.3167   72.7832  226.6156 H   0  0  0  0  0  0  0  0  0  0  0  0
  1  2  2  0
  2  3  1  0
  3  4  1  0
  4  5  1  0
  5  6  2  0
  5  7  1  0
  7  8  1  0
  8  9  1  0
  9 10  1  0
 10 11  1  0
 11 12  1  0
 12 13  1  0
 13 14  2  0
 14 15  1  0
 15 16  2  0
 16 17  1  0
  2 18  1  0
 18 19  2  0
 19 20  1  0
 20 21  2  0
 21 22  1  0
 22 23  2  0
 23 24  1  0
 23 25  1  0
 25 26  2  0
 26 27  1  0
 27 28  2  0
 12  7  1  0
 17 13  1  0
 28 18  1  0
 27 21  1  0
  3 29  1  0
  4 30  1  0
  4 31  1  0
  8 32  1  0
  8 33  1  0
  9 34  1  0
  9 35  1  0
 10 36  1  0
 10 37  1  0
 11 38  1  0
 11 39  1  0
 12 40  1  1
 16 41  1  0
 17 42  1  0
 19 43  1  0
 20 44  1  0
 22 45  1  0
 25 46  1  0
 26 47  1  0
M  END
>  <smiles>  (42) 
O=C(NCC(=O)N1CCCC[C@H]1c1nnc[nH]1)c1ccc2cc(Cl)ccc2n1

>  <score_type>  (42) 
oracle

>  <origin>  (42) 
autodockgpu

>  <m_score__min__energy>  (42) 
-8.5800000000000001

>  <m_primary>  (42) 
energy

>  <rmsd>  (42) 
2.5528555137580353

>  <m_score__min__rmsd>  (42) 
2.5528555137580353

>  <meeko>  (42) 
{"free_energy": -8.58, "intermolecular_energy": -10.07, "internal_energy": -1.73, "cluster_size": 29, "cluster_id": 1, "rank_in_cluster": 2}

>  <energy>  (42) 
-6.41

>  <cluster_rmsd>  (42) 
1.92

>  <cluster>  (42) 
6

$$$$

     RDKit          3D

 47 50  0  0  0  0  0  0  0  0999 V2000
  140.2510   72.2400  220.6360 O   0  0  0  0  0  0  0  0  0  0  0  0
  140.0260   72.5960  221.8220 C   0  0  0  0  0  0  0  0  0  0  0  0
  139.7560   73.9540  222.1440 N   0  0  0  0  0  0  0  0  0  0  0  0
  139.7420   74.9340  221.0730 C   0  0  0  0  0  0  0  0  0  0  0  0
  140.9520   75.7860  221.2090 C   0  0  0  0  0  0  0  0  0  0  0  0
  141.0780   76.6530  222.1270 O   0  0  0  0  0  0  0  0  0  0  0  0
  142.0110   75.6190  220.2710 N   0  0  0  0  0  0  0  0  0  0  0  0
  142.8270   76.7350  219.8050 C   0  0  0  0  0  0  0  0  0  0  0  0
  143.3380   76.5030  218.3990 C   0  0  0  0  0  0  0  0  0  0  0  0
  142.2580   75.7110  217.6650 C   0  0  0  0  0  0  0  0  0  0  0  0
  142.1550   74.3100  218.2290 C   0  0  0  0  0  0  0  0  0  0  0  0
  142.3240   74.3040  219.7330 C   0  0  1  0  0  0  0  0  0  0  0  0
  143.6940   73.8900  220.1030 C   0  0  0  0  0  0  0  0  0  0  0  0
  144.0660   73.1900  221.2110 N   0  0  0  0  0  0  0  0  0  0  0  0
  145.3770   73.0140  221.1860 N   0  0  0  0  0  0  0  0  0  0  0  0
  145.8570   73.5930  220.0720 C   0  0  0  0  0  0  0  0  0  0  0  0
  144.8180   74.1300  219.4090 N   0  0  0  0  0  0  0  0  0  0  0  0
  140.0310   71.6340  222.9320 C   0  0  0  0  0  0  0  0  0  0  0  0
  139.5320   70.3530  222.7410 C   0  0  0  0  0  0  0  0  0  0  0  0
  139.5490   69.4730  223.8020 C   0  0  0  0  0  0  0  0  0  0  0  0
  140.0470   69.8340  225.0330 C   0  0  0  0  0  0  0  0  0  0  0  0
  140.0880   68.9940  226.1220 C   0  0  0  0  0  0  0  0  0  0  0  0
  140.6040   69.4140  227.3480 C   0  0  0  0  0  0  0  0  0  0  0  0
  140.6610   68.3640  228.7310 Cl  0  0  0  0  0  0  0  0  0  0  0  0
  141.0930   70.7100  227.4850 C   0  0  0  0  0  0  0  0  0  0  0  0
  141.0400   71.5300  226.3760 C   0  0  0  0  0  0  0  0  0  0  0  0
  140.5300   71.1040  225.1800 C   0  0  0  0  0  0  0  0  0  0  0  0
  140.5070   71.9400  224.1530 N   0  0  0  0  0  0  0  0  0  0  0  0
  139.5680   74.2780  223.0990 H   0  0  0  0  0  0  0  0  0  0  0  0
  139.7543   74.4221  220.0994 H   0  0  0  0  0  0  0  0  0  0  0  0
  138.8334   75.5510  221.1338 H   0  0  0  0  0  0  0  0  0  0  0  0
  142.2187   77.6514  219.8170 H   0  0  0  0  0  0  0  0  0  0  0  0
  143.6943   76.8303  220.4749 H   0  0  0  0  0  0  0  0  0  0  0  0
  143.5111   77.4652  217.8949 H   0  0  0  0  0  0  0  0  0  0  0  0
  144.2919   75.9553  218.4099 H   0  0  0  0  0  0  0  0  0  0  0  0
  141.2908   76.2213  217.7836 H   0  0  0  0  0  0  0  0  0  0  0  0
  142.5243   75.6478  216.5996 H   0  0  0  0  0  0  0  0  0  0  0  0
  141.1673   73.8955  217.9786 H   0  0  0  0  0  0  0  0  0  0  0  0
  142.9582   73.7008  217.7889 H   0  0  0  0  0  0  0  0  0  0  0  0
  141.6259   73.5735  220.1678 H   0  0  0  0  0  0  0  0  0  0  0  0
  146.9111   73.6222  219.7589 H   0  0  0  0  0  0  0  0  0  0  0  0
  144.9460   74.6380  218.5050 H   0  0  0  0  0  0  0  0  0  0  0  0
  139.1314   70.0464  221.7635 H   0  0  0  0  0  0  0  0  0  0  0  0
  139.1543   68.4560  223.6610 H   0  0  0  0  0  0  0  0  0  0  0  0
  139.7050   67.9675  226.0235 H   0  0  0  0  0  0  0  0  0  0  0  0
  141.5057   71.0669  228.4401 H   0  0  0  0  0  0  0  0  0  0  0  0
  141.4200   72.5591  226.4563 H   0  0  0  0  0  0  0  0  0  0  0  0
  1  2  2  0
  2  3  1  0
  3  4  1  0
  4  5  1  0
  5  6  2  0
  5  7  1  0
  7  8  1  0
  8  9  1  0
  9 10  1  0
 10 11  1  0
 11 12  1  0
 12 13  1  0
 13 14  2  0
 14 15  1  0
 15 16  2  0
 16 17  1  0
  2 18  1  0
 18 19  2  0
 19 20  1  0
 20 21  2  0
 21 22  1  0
 22 23  2  0
 23 24  1  0
 23 25  1  0
 25 26  2  0
 26 27  1  0
 27 28  2  0
 12  7  1  0
 17 13  1  0
 28 18  1  0
 27 21  1  0
  3 29  1  0
  4 30  1  0
  4 31  1  0
  8 32  1  0
  8 33  1  0
  9 34  1  0
  9 35  1  0
 10 36  1  0
 10 37  1  0
 11 38  1  0
 11 39  1  0
 12 40  1  1
 16 41  1  0
 17 42  1  0
 19 43  1  0
 20 44  1  0
 22 45  1  0
 25 46  1  0
 26 47  1  0
M  END
>  <smiles>  (43) 
O=C(NCC(=O)N1CCCC[C@H]1c1nnc[nH]1)c1ccc2cc(Cl)ccc2n1

>  <score_type>  (43) 
oracle

>  <origin>  (43) 
autodockgpu

>  <m_score__min__energy>  (43) 
-8.5800000000000001

>  <m_primary>  (43) 
energy

>  <rmsd>  (43) 
3.2533296818217767

>  <m_score__min__rmsd>  (43) 
3.2533296818217767

>  <meeko>  (43) 
{"free_energy": -7.89, "intermolecular_energy": -9.38, "internal_energy": -1.77, "cluster_size": 5, "cluster_id": 2, "rank_in_cluster": 1}

>  <energy>  (43) 
-6.39

>  <cluster_rmsd>  (43) 
1.93

>  <cluster>  (43) 
6

$$$$

     RDKit          3D

 47 50  0  0  0  0  0  0  0  0999 V2000
  140.2980   72.6530  220.8690 O   0  0  0  0  0  0  0  0  0  0  0  0
  139.6770   72.7740  221.9560 C   0  0  0  0  0  0  0  0  0  0  0  0
  138.8260   73.8870  222.1970 N   0  0  0  0  0  0  0  0  0  0  0  0
  138.6820   74.8910  221.1580 C   0  0  0  0  0  0  0  0  0  0  0  0
  138.9890   76.2190  221.7510 C   0  0  0  0  0  0  0  0  0  0  0  0
  138.1730   76.8400  222.4980 O   0  0  0  0  0  0  0  0  0  0  0  0
  140.2520   76.8140  221.4680 N   0  0  0  0  0  0  0  0  0  0  0  0
  141.0100   77.5540  222.4710 C   0  0  0  0  0  0  0  0  0  0  0  0
  141.8640   78.6340  221.8400 C   0  0  0  0  0  0  0  0  0  0  0  0
  141.0950   79.1460  220.6240 C   0  0  0  0  0  0  0  0  0  0  0  0
  141.0360   78.0820  219.5500 C   0  0  0  0  0  0  0  0  0  0  0  0
  140.8440   76.7030  220.1440 C   0  0  1  0  0  0  0  0  0  0  0  0
  142.1280   75.9730  220.1950 C   0  0  0  0  0  0  0  0  0  0  0  0
  143.3520   76.4440  219.8280 N   0  0  0  0  0  0  0  0  0  0  0  0
  144.2530   75.4940  220.0210 N   0  0  0  0  0  0  0  0  0  0  0  0
  143.6230   74.4130  220.5110 C   0  0  0  0  0  0  0  0  0  0  0  0
  142.3170   74.7120  220.6170 N   0  0  0  0  0  0  0  0  0  0  0  0
  139.7980   71.7790  223.0300 C   0  0  0  0  0  0  0  0  0  0  0  0
  139.4050   70.4680  222.8070 C   0  0  0  0  0  0  0  0  0  0  0  0
  139.5290   69.5580  223.8340 C   0  0  0  0  0  0  0  0  0  0  0  0
  140.0310   69.9180  225.0640 C   0  0  0  0  0  0  0  0  0  0  0  0
  140.1750   69.0490  226.1200 C   0  0  0  0  0  0  0  0  0  0  0  0
  140.6900   69.4710  227.3470 C   0  0  0  0  0  0  0  0  0  0  0  0
  140.8780   68.3840  228.6890 Cl  0  0  0  0  0  0  0  0  0  0  0  0
  141.0690   70.7990  227.5170 C   0  0  0  0  0  0  0  0  0  0  0  0
  140.9140   71.6480  226.4400 C   0  0  0  0  0  0  0  0  0  0  0  0
  140.4070   71.2200  225.2440 C   0  0  0  0  0  0  0  0  0  0  0  0
  140.2820   72.0850  224.2480 N   0  0  0  0  0  0  0  0  0  0  0  0
  138.3060   74.0170  223.0720 H   0  0  0  0  0  0  0  0  0  0  0  0
  139.3816   74.6794  220.3359 H   0  0  0  0  0  0  0  0  0  0  0  0
  137.6572   74.8806  220.7584 H   0  0  0  0  0  0  0  0  0  0  0  0
  140.3072   78.0213  223.1765 H   0  0  0  0  0  0  0  0  0  0  0  0
  141.6757   76.8480  222.9891 H   0  0  0  0  0  0  0  0  0  0  0  0
  142.0303   79.4526  222.5558 H   0  0  0  0  0  0  0  0  0  0  0  0
  142.8489   78.2402  221.5486 H   0  0  0  0  0  0  0  0  0  0  0  0
  140.0716   79.4112  220.9278 H   0  0  0  0  0  0  0  0  0  0  0  0
  141.6114   80.0301  220.2219 H   0  0  0  0  0  0  0  0  0  0  0  0
  140.1947   78.3010  218.8760 H   0  0  0  0  0  0  0  0  0  0  0  0
  141.9899   78.0917  219.0023 H   0  0  0  0  0  0  0  0  0  0  0  0
  140.1595   76.1294  219.5018 H   0  0  0  0  0  0  0  0  0  0  0  0
  144.0923   73.4546  220.7777 H   0  0  0  0  0  0  0  0  0  0  0  0
  141.6210   74.0210  220.9780 H   0  0  0  0  0  0  0  0  0  0  0  0
  139.0026   70.1610  221.8304 H   0  0  0  0  0  0  0  0  0  0  0  0
  139.2186   68.5161  223.6665 H   0  0  0  0  0  0  0  0  0  0  0  0
  139.8776   67.9974  225.9950 H   0  0  0  0  0  0  0  0  0  0  0  0
  141.4766   71.1585  228.4734 H   0  0  0  0  0  0  0  0  0  0  0  0
  141.2076   72.7027  226.5469 H   0  0  0  0  0  0  0  0  0  0  0  0
  1  2  2  0
  2  3  1  0
  3  4  1  0
  4  5  1  0
  5  6  2  0
  5  7  1  0
  7  8  1  0
  8  9  1  0
  9 10  1  0
 10 11  1  0
 11 12  1  0
 12 13  1  0
 13 14  2  0
 14 15  1  0
 15 16  2  0
 16 17  1  0
  2 18  1  0
 18 19  2  0
 19 20  1  0
 20 21  2  0
 21 22  1  0
 22 23  2  0
 23 24  1  0
 23 25  1  0
 25 26  2  0
 26 27  1  0
 27 28  2  0
 12  7  1  0
 17 13  1  0
 28 18  1  0
 27 21  1  0
  3 29  1  0
  4 30  1  0
  4 31  1  0
  8 32  1  0
  8 33  1  0
  9 34  1  0
  9 35  1  0
 10 36  1  0
 10 37  1  0
 11 38  1  0
 11 39  1  0
 12 40  1  6
 16 41  1  0
 17 42  1  0
 19 43  1  0
 20 44  1  0
 22 45  1  0
 25 46  1  0
 26 47  1  0
M  END
>  <smiles>  (44) 
O=C(NCC(=O)N1CCCC[C@H]1c1nnc[nH]1)c1ccc2cc(Cl)ccc2n1

>  <score_type>  (44) 
oracle

>  <origin>  (44) 
autodockgpu

>  <m_score__min__energy>  (44) 
-8.5800000000000001

>  <m_primary>  (44) 
energy

>  <rmsd>  (44) 
3.0564021381702617

>  <m_score__min__rmsd>  (44) 
3.0564021381702617

>  <meeko>  (44) 
{"free_energy": -7.52, "intermolecular_energy": -9.01, "internal_energy": -2.37, "cluster_size": 5, "cluster_id": 2, "rank_in_cluster": 3}

>  <energy>  (44) 
-6.47

>  <cluster_rmsd>  (44) 
0.0

>  <cluster>  (44) 
7

$$$$

     RDKit          3D

 47 50  0  0  0  0  0  0  0  0999 V2000
  140.9900   72.7540  221.0730 O   0  0  0  0  0  0  0  0  0  0  0  0
  140.2620   72.8940  222.0900 C   0  0  0  0  0  0  0  0  0  0  0  0
  139.4750   74.0630  222.2740 N   0  0  0  0  0  0  0  0  0  0  0  0
  139.5220   75.1020  221.2610 C   0  0  0  0  0  0  0  0  0  0  0  0
  139.1430   76.3900  221.8990 C   0  0  0  0  0  0  0  0  0  0  0  0
  138.2520   76.4720  222.7980 O   0  0  0  0  0  0  0  0  0  0  0  0
  139.8110   77.5770  221.4820 N   0  0  0  0  0  0  0  0  0  0  0  0
  139.0930   78.7340  220.9570 C   0  0  0  0  0  0  0  0  0  0  0  0
  139.9380   79.5130  219.9710 C   0  0  0  0  0  0  0  0  0  0  0  0
  140.8130   78.4950  219.2430 C   0  0  0  0  0  0  0  0  0  0  0  0
  141.8400   77.9090  220.1890 C   0  0  0  0  0  0  0  0  0  0  0  0
  141.2590   77.6830  221.5680 C   0  0  1  0  0  0  0  0  0  0  0  0
  141.6600   78.7680  222.4880 C   0  0  0  0  0  0  0  0  0  0  0  0
  141.0930   79.0740  223.6890 N   0  0  0  0  0  0  0  0  0  0  0  0
  141.7310   80.1070  224.2130 N   0  0  0  0  0  0  0  0  0  0  0  0
  142.7050   80.4730  223.3640 C   0  0  0  0  0  0  0  0  0  0  0  0
  142.6580   79.6470  222.3050 N   0  0  0  0  0  0  0  0  0  0  0  0
  140.1870   71.8660  223.1360 C   0  0  0  0  0  0  0  0  0  0  0  0
  139.6250   70.6300  222.8530 C   0  0  0  0  0  0  0  0  0  0  0  0
  139.5690   69.6860  223.8560 C   0  0  0  0  0  0  0  0  0  0  0  0
  140.0550   69.9400  225.1180 C   0  0  0  0  0  0  0  0  0  0  0  0
  140.0230   69.0330  226.1510 C   0  0  0  0  0  0  0  0  0  0  0  0
  140.5300   69.3460  227.4130 C   0  0  0  0  0  0  0  0  0  0  0  0
  140.4960   68.2100  228.7270 Cl  0  0  0  0  0  0  0  0  0  0  0  0
  141.0840   70.6010  227.6430 C   0  0  0  0  0  0  0  0  0  0  0  0
  141.1030   71.4910  226.5880 C   0  0  0  0  0  0  0  0  0  0  0  0
  140.6010   71.1700  225.3560 C   0  0  0  0  0  0  0  0  0  0  0  0
  140.6490   72.0680  224.3840 N   0  0  0  0  0  0  0  0  0  0  0  0
  138.8710   74.2110  223.0910 H   0  0  0  0  0  0  0  0  0  0  0  0
  140.5396   75.1754  220.8497 H   0  0  0  0  0  0  0  0  0  0  0  0
  138.8278   74.8652  220.4413 H   0  0  0  0  0  0  0  0  0  0  0  0
  138.1803   78.3880  220.4499 H   0  0  0  0  0  0  0  0  0  0  0  0
  138.8465   79.3976  221.7990 H   0  0  0  0  0  0  0  0  0  0  0  0
  139.2931   80.0408  219.2530 H   0  0  0  0  0  0  0  0  0  0  0  0
  140.5522   80.2669  220.4852 H   0  0  0  0  0  0  0  0  0  0  0  0
  140.1786   77.6865  218.8508 H   0  0  0  0  0  0  0  0  0  0  0  0
  141.3357   78.9998  218.4172 H   0  0  0  0  0  0  0  0  0  0  0  0
  142.1890   76.9468  219.7861 H   0  0  0  0  0  0  0  0  0  0  0  0
  142.6732   78.6216  220.2782 H   0  0  0  0  0  0  0  0  0  0  0  0
  141.6550   76.7399  221.9727 H   0  0  0  0  0  0  0  0  0  0  0  0
  143.4145   81.3009  223.5094 H   0  0  0  0  0  0  0  0  0  0  0  0
  143.3250   79.7370  221.5060 H   0  0  0  0  0  0  0  0  0  0  0  0
  139.2324   70.4078  221.8498 H   0  0  0  0  0  0  0  0  0  0  0  0
  139.1238   68.7032  223.6417 H   0  0  0  0  0  0  0  0  0  0  0  0
  139.5877   68.0376  225.9787 H   0  0  0  0  0  0  0  0  0  0  0  0
  141.4913   70.8738  228.6277 H   0  0  0  0  0  0  0  0  0  0  0  0
  141.5356   72.4905  226.7425 H   0  0  0  0  0  0  0  0  0  0  0  0
  1  2  2  0
  2  3  1  0
  3  4  1  0
  4  5  1  0
  5  6  2  0
  5  7  1  0
  7  8  1  0
  8  9  1  0
  9 10  1  0
 10 11  1  0
 11 12  1  0
 12 13  1  0
 13 14  2  0
 14 15  1  0
 15 16  2  0
 16 17  1  0
  2 18  1  0
 18 19  2  0
 19 20  1  0
 20 21  2  0
 21 22  1  0
 22 23  2  0
 23 24  1  0
 23 25  1  0
 25 26  2  0
 26 27  1  0
 27 28  2  0
 12  7  1  0
 17 13  1  0
 28 18  1  0
 27 21  1  0
  3 29  1  0
  4 30  1  0
  4 31  1  0
  8 32  1  0
  8 33  1  0
  9 34  1  0
  9 35  1  0
 10 36  1  0
 10 37  1  0
 11 38  1  0
 11 39  1  0
 12 40  1  1
 16 41  1  0
 17 42  1  0
 19 43  1  0
 20 44  1  0
 22 45  1  0
 25 46  1  0
 26 47  1  0
M  END
>  <smiles>  (45) 
O=C(NCC(=O)N1CCCC[C@H]1c1nnc[nH]1)c1ccc2cc(Cl)ccc2n1

>  <score_type>  (45) 
oracle

>  <origin>  (45) 
autodockgpu

>  <m_score__min__energy>  (45) 
-8.5800000000000001

>  <m_primary>  (45) 
energy

>  <rmsd>  (45) 
2.5166575560662747

>  <m_score__min__rmsd>  (45) 
2.5166575560662747

>  <meeko>  (45) 
{"free_energy": -8.49, "intermolecular_energy": -9.98, "internal_energy": -1.72, "cluster_size": 29, "cluster_id": 1, "rank_in_cluster": 8}

>  <energy>  (45) 
-6.1

>  <cluster_rmsd>  (45) 
0.79

>  <cluster>  (45) 
7

$$$$

     RDKit          3D

 47 50  0  0  0  0  0  0  0  0999 V2000
  138.6230   73.3620  221.2020 O   0  0  0  0  0  0  0  0  0  0  0  0
  139.7100   72.9600  221.6920 C   0  0  0  0  0  0  0  0  0  0  0  0
  140.9570   73.4290  221.1960 N   0  0  0  0  0  0  0  0  0  0  0  0
  140.9570   74.3890  220.1070 C   0  0  0  0  0  0  0  0  0  0  0  0
  141.7770   75.5590  220.5200 C   0  0  0  0  0  0  0  0  0  0  0  0
  143.0430   75.5680  220.4390 O   0  0  0  0  0  0  0  0  0  0  0  0
  141.1110   76.7120  221.0240 N   0  0  0  0  0  0  0  0  0  0  0  0
  140.7810   77.8560  220.1800 C   0  0  0  0  0  0  0  0  0  0  0  0
  140.7640   79.1460  220.9720 C   0  0  0  0  0  0  0  0  0  0  0  0
  141.8300   79.0100  222.0570 C   0  0  0  0  0  0  0  0  0  0  0  0
  141.4140   77.9730  223.0780 C   0  0  0  0  0  0  0  0  0  0  0  0
  140.7260   76.7940  222.4250 C   0  0  1  0  0  0  0  0  0  0  0  0
  139.2590   76.9000  222.5680 C   0  0  0  0  0  0  0  0  0  0  0  0
  138.5190   78.0440  222.5760 N   0  0  0  0  0  0  0  0  0  0  0  0
  137.2430   77.7270  222.7230 N   0  0  0  0  0  0  0  0  0  0  0  0
  137.1500   76.3900  222.8090 C   0  0  0  0  0  0  0  0  0  0  0  0
  138.3920   75.8850  222.7120 N   0  0  0  0  0  0  0  0  0  0  0  0
  139.7510   71.9900  222.7940 C   0  0  0  0  0  0  0  0  0  0  0  0
  139.1590   70.7440  222.6430 C   0  0  0  0  0  0  0  0  0  0  0  0
  139.2130   69.8560  223.6950 C   0  0  0  0  0  0  0  0  0  0  0  0
  139.8360   70.1740  224.8800 C   0  0  0  0  0  0  0  0  0  0  0  0
  139.9180   69.3240  225.9580 C   0  0  0  0  0  0  0  0  0  0  0  0
  140.5630   69.7010  227.1370 C   0  0  0  0  0  0  0  0  0  0  0  0
  140.6740   68.6380  228.5060 Cl  0  0  0  0  0  0  0  0  0  0  0  0
  141.1410   70.9630  227.2350 C   0  0  0  0  0  0  0  0  0  0  0  0
  141.0440   71.7940  226.1380 C   0  0  0  0  0  0  0  0  0  0  0  0
  140.4080   71.4120  224.9890 C   0  0  0  0  0  0  0  0  0  0  0  0
  140.3480   72.2560  223.9700 N   0  0  0  0  0  0  0  0  0  0  0  0
  141.8620   73.1230  221.5710 H   0  0  0  0  0  0  0  0  0  0  0  0
  141.3900   73.9301  219.2059 H   0  0  0  0  0  0  0  0  0  0  0  0
  139.9286   74.7065  219.8799 H   0  0  0  0  0  0  0  0  0  0  0  0
  141.5318   77.9380  219.3802 H   0  0  0  0  0  0  0  0  0  0  0  0
  139.7766   77.6962  219.7609 H   0  0  0  0  0  0  0  0  0  0  0  0
  140.9981   79.9969  220.3154 H   0  0  0  0  0  0  0  0  0  0  0  0
  139.7723   79.3263  221.4126 H   0  0  0  0  0  0  0  0  0  0  0  0
  142.7801   78.7033  221.5953 H   0  0  0  0  0  0  0  0  0  0  0  0
  141.9510   79.9797  222.5621 H   0  0  0  0  0  0  0  0  0  0  0  0
  142.3087   77.6153  223.6086 H   0  0  0  0  0  0  0  0  0  0  0  0
  140.7050   78.4421  223.7760 H   0  0  0  0  0  0  0  0  0  0  0  0
  141.0440   75.8701  222.9302 H   0  0  0  0  0  0  0  0  0  0  0  0
  136.2231   75.8115  222.9361 H   0  0  0  0  0  0  0  0  0  0  0  0
  138.5740   74.8570  222.7520 H   0  0  0  0  0  0  0  0  0  0  0  0
  138.6571   70.4710  221.7030 H   0  0  0  0  0  0  0  0  0  0  0  0
  138.7456   68.8664  223.5847 H   0  0  0  0  0  0  0  0  0  0  0  0
  139.4648   68.3240  225.8895 H   0  0  0  0  0  0  0  0  0  0  0  0
  141.6556   71.2857  228.1521 H   0  0  0  0  0  0  0  0  0  0  0  0
  141.4930   72.7969  226.1891 H   0  0  0  0  0  0  0  0  0  0  0  0
  1  2  2  0
  2  3  1  0
  3  4  1  0
  4  5  1  0
  5  6  2  0
  5  7  1  0
  7  8  1  0
  8  9  1  0
  9 10  1  0
 10 11  1  0
 11 12  1  0
 12 13  1  0
 13 14  2  0
 14 15  1  0
 15 16  2  0
 16 17  1  0
  2 18  1  0
 18 19  2  0
 19 20  1  0
 20 21  2  0
 21 22  1  0
 22 23  2  0
 23 24  1  0
 23 25  1  0
 25 26  2  0
 26 27  1  0
 27 28  2  0
 12  7  1  0
 17 13  1  0
 28 18  1  0
 27 21  1  0
  3 29  1  0
  4 30  1  0
  4 31  1  0
  8 32  1  0
  8 33  1  0
  9 34  1  0
  9 35  1  0
 10 36  1  0
 10 37  1  0
 11 38  1  0
 11 39  1  0
 12 40  1  1
 16 41  1  0
 17 42  1  0
 19 43  1  0
 20 44  1  0
 22 45  1  0
 25 46  1  0
 26 47  1  0
M  END
>  <smiles>  (46) 
O=C(NCC(=O)N1CCCC[C@H]1c1nnc[nH]1)c1ccc2cc(Cl)ccc2n1

>  <score_type>  (46) 
oracle

>  <origin>  (46) 
autodockgpu

>  <m_score__min__energy>  (46) 
-8.5800000000000001

>  <m_primary>  (46) 
energy

>  <rmsd>  (46) 
3.3026243835259477

>  <m_score__min__rmsd>  (46) 
3.3026243835259477

>  <meeko>  (46) 
{"free_energy": -7.36, "intermolecular_energy": -8.86, "internal_energy": -2.39, "cluster_size": 4, "cluster_id": 4, "rank_in_cluster": 3}

>  <energy>  (46) 
-6.41

>  <cluster_rmsd>  (46) 
0.0

>  <cluster>  (46) 
8

$$$$

     RDKit          3D

 47 50  0  0  0  0  0  0  0  0999 V2000
  139.8550   72.3530  220.7320 O   0  0  0  0  0  0  0  0  0  0  0  0
  139.7480   72.6820  221.9420 C   0  0  0  0  0  0  0  0  0  0  0  0
  139.5250   74.0340  222.3200 N   0  0  0  0  0  0  0  0  0  0  0  0
  139.4210   75.0400  221.2780 C   0  0  0  0  0  0  0  0  0  0  0  0
  139.2260   76.3620  221.9290 C   0  0  0  0  0  0  0  0  0  0  0  0
  138.4510   76.5300  222.9190 O   0  0  0  0  0  0  0  0  0  0  0  0
  139.9420   77.4830  221.4180 N   0  0  0  0  0  0  0  0  0  0  0  0
  139.2950   78.5360  220.6420 C   0  0  0  0  0  0  0  0  0  0  0  0
  140.2530   79.1700  219.6550 C   0  0  0  0  0  0  0  0  0  0  0  0
  141.2050   78.0670  219.1980 C   0  0  0  0  0  0  0  0  0  0  0  0
  142.1110   77.6470  220.3360 C   0  0  0  0  0  0  0  0  0  0  0  0
  141.3700   77.6230  221.6560 C   0  0  1  0  0  0  0  0  0  0  0  0
  141.6620   78.8410  222.4410 C   0  0  0  0  0  0  0  0  0  0  0  0
  141.0420   79.2450  223.5850 N   0  0  0  0  0  0  0  0  0  0  0  0
  141.5840   80.3820  223.9870 N   0  0  0  0  0  0  0  0  0  0  0  0
  142.5500   80.7170  223.1160 C   0  0  0  0  0  0  0  0  0  0  0  0
  142.5940   79.7670  222.1670 N   0  0  0  0  0  0  0  0  0  0  0  0
  139.8460   71.6930  223.0230 C   0  0  0  0  0  0  0  0  0  0  0  0
  139.4360   70.3850  222.8060 C   0  0  0  0  0  0  0  0  0  0  0  0
  139.5410   69.4800  223.8400 C   0  0  0  0  0  0  0  0  0  0  0  0
  140.0400   69.8420  225.0710 C   0  0  0  0  0  0  0  0  0  0  0  0
  140.1650   68.9780  226.1340 C   0  0  0  0  0  0  0  0  0  0  0  0
  140.6780   69.4010  227.3610 C   0  0  0  0  0  0  0  0  0  0  0  0
  140.8410   68.3210  228.7110 Cl  0  0  0  0  0  0  0  0  0  0  0  0
  141.0750   70.7250  227.5250 C   0  0  0  0  0  0  0  0  0  0  0  0
  140.9380   71.5680  226.4410 C   0  0  0  0  0  0  0  0  0  0  0  0
  140.4330   71.1400  225.2440 C   0  0  0  0  0  0  0  0  0  0  0  0
  140.3270   71.9990  224.2420 N   0  0  0  0  0  0  0  0  0  0  0  0
  139.4320   74.3370  223.2960 H   0  0  0  0  0  0  0  0  0  0  0  0
  140.3432   75.0522  220.6784 H   0  0  0  0  0  0  0  0  0  0  0  0
  138.5738   74.8140  220.6138 H   0  0  0  0  0  0  0  0  0  0  0  0
  138.4480   78.1032  220.0896 H   0  0  0  0  0  0  0  0  0  0  0  0
  138.9526   79.3156  221.3384 H   0  0  0  0  0  0  0  0  0  0  0  0
  139.6990   79.5733  218.7945 H   0  0  0  0  0  0  0  0  0  0  0  0
  140.8041   80.0023  220.1171 H   0  0  0  0  0  0  0  0  0  0  0  0
  140.6191   77.1988  218.8618 H   0  0  0  0  0  0  0  0  0  0  0  0
  141.8231   78.4486  218.3720 H   0  0  0  0  0  0  0  0  0  0  0  0
  142.5029   76.6405  220.1279 H   0  0  0  0  0  0  0  0  0  0  0  0
  142.9293   78.3780  220.4131 H   0  0  0  0  0  0  0  0  0  0  0  0
  141.7129   76.7581  222.2428 H   0  0  0  0  0  0  0  0  0  0  0  0
  143.1906   81.6096  223.1700 H   0  0  0  0  0  0  0  0  0  0  0  0
  143.2740   79.8110  221.3740 H   0  0  0  0  0  0  0  0  0  0  0  0
  139.0355   70.0770  221.8289 H   0  0  0  0  0  0  0  0  0  0  0  0
  139.2177   68.4412  223.6775 H   0  0  0  0  0  0  0  0  0  0  0  0
  139.8535   67.9298  226.0142 H   0  0  0  0  0  0  0  0  0  0  0  0
  141.4820   71.0853  228.4813 H   0  0  0  0  0  0  0  0  0  0  0  0
  141.2452   72.6193  226.5430 H   0  0  0  0  0  0  0  0  0  0  0  0
  1  2  2  0
  2  3  1  0
  3  4  1  0
  4  5  1  0
  5  6  2  0
  5  7  1  0
  7  8  1  0
  8  9  1  0
  9 10  1  0
 10 11  1  0
 11 12  1  0
 12 13  1  0
 13 14  2  0
 14 15  1  0
 15 16  2  0
 16 17  1  0
  2 18  1  0
 18 19  2  0
 19 20  1  0
 20 21  2  0
 21 22  1  0
 22 23  2  0
 23 24  1  0
 23 25  1  0
 25 26  2  0
 26 27  1  0
 27 28  2  0
 12  7  1  0
 17 13  1  0
 28 18  1  0
 27 21  1  0
  3 29  1  0
  4 30  1  0
  4 31  1  0
  8 32  1  0
  8 33  1  0
  9 34  1  0
  9 35  1  0
 10 36  1  0
 10 37  1  0
 11 38  1  0
 11 39  1  0
 12 40  1  1
 16 41  1  0
 17 42  1  0
 19 43  1  0
 20 44  1  0
 22 45  1  0
 25 46  1  0
 26 47  1  0
M  END
>  <smiles>  (47) 
O=C(NCC(=O)N1CCCC[C@H]1c1nnc[nH]1)c1ccc2cc(Cl)ccc2n1

>  <score_type>  (47) 
oracle

>  <origin>  (47) 
autodockgpu

>  <m_score__min__energy>  (47) 
-8.5800000000000001

>  <m_primary>  (47) 
energy

>  <rmsd>  (47) 
2.3562566830858938

>  <m_score__min__rmsd>  (47) 
2.3562566830858938

>  <meeko>  (47) 
{"free_energy": -8.32, "intermolecular_energy": -9.82, "internal_energy": -1.76, "cluster_size": 29, "cluster_id": 1, "rank_in_cluster": 19}

>  <energy>  (47) 
-6.4

>  <cluster_rmsd>  (47) 
0.45

>  <cluster>  (47) 
8

$$$$

     RDKit          3D

 47 50  0  0  0  0  0  0  0  0999 V2000
  140.8810   73.4320  221.6990 O   0  0  0  0  0  0  0  0  0  0  0  0
  139.8830   73.0590  222.3690 C   0  0  0  0  0  0  0  0  0  0  0  0
  138.6110   73.6690  222.1950 N   0  0  0  0  0  0  0  0  0  0  0  0
  138.4790   74.7390  221.2230 C   0  0  0  0  0  0  0  0  0  0  0  0
  138.6610   76.0340  221.9310 C   0  0  0  0  0  0  0  0  0  0  0  0
  138.0470   76.3180  223.0040 O   0  0  0  0  0  0  0  0  0  0  0  0
  139.5620   76.9890  221.3790 N   0  0  0  0  0  0  0  0  0  0  0  0
  139.1320   78.0170  220.4370 C   0  0  0  0  0  0  0  0  0  0  0  0
  140.2470   78.4060  219.4890 C   0  0  0  0  0  0  0  0  0  0  0  0
  141.0780   77.1470  219.2480 C   0  0  0  0  0  0  0  0  0  0  0  0
  141.8180   76.7540  220.5090 C   0  0  0  0  0  0  0  0  0  0  0  0
  140.9710   76.9760  221.7430 C   0  0  1  0  0  0  0  0  0  0  0  0
  141.3560   78.2320  222.4210 C   0  0  0  0  0  0  0  0  0  0  0  0
  140.8180   78.7430  223.5640 N   0  0  0  0  0  0  0  0  0  0  0  0
  141.4290   79.8800  223.8540 N   0  0  0  0  0  0  0  0  0  0  0  0
  142.3570   80.1090  222.9110 C   0  0  0  0  0  0  0  0  0  0  0  0
  142.3090   79.0930  222.0320 N   0  0  0  0  0  0  0  0  0  0  0  0
  139.9780   71.9800  223.3610 C   0  0  0  0  0  0  0  0  0  0  0  0
  139.5970   70.6900  223.0200 C   0  0  0  0  0  0  0  0  0  0  0  0
  139.6960   69.6990  223.9720 C   0  0  0  0  0  0  0  0  0  0  0  0
  140.1610   69.9580  225.2410 C   0  0  0  0  0  0  0  0  0  0  0  0
  140.2800   69.0060  226.2260 C   0  0  0  0  0  0  0  0  0  0  0  0
  140.7580   69.3270  227.4970 C   0  0  0  0  0  0  0  0  0  0  0  0
  140.9130   68.1340  228.7510 Cl  0  0  0  0  0  0  0  0  0  0  0  0
  141.1270   70.6370  227.7870 C   0  0  0  0  0  0  0  0  0  0  0  0
  140.9980   71.5710  226.7790 C   0  0  0  0  0  0  0  0  0  0  0  0
  140.5270   71.2420  225.5370 C   0  0  0  0  0  0  0  0  0  0  0  0
  140.4260   72.1850  224.6130 N   0  0  0  0  0  0  0  0  0  0  0  0
  137.7770   73.3900  222.7230 H   0  0  0  0  0  0  0  0  0  0  0  0
  139.2465   74.6301  220.4426 H   0  0  0  0  0  0  0  0  0  0  0  0
  137.4875   74.7013  220.7482 H   0  0  0  0  0  0  0  0  0  0  0  0
  138.2837   77.6325  219.8517 H   0  0  0  0  0  0  0  0  0  0  0  0
  138.8412   78.9094  221.0107 H   0  0  0  0  0  0  0  0  0  0  0  0
  139.8275   78.7707  218.5398 H   0  0  0  0  0  0  0  0  0  0  0  0
  140.8638   79.2119  219.9134 H   0  0  0  0  0  0  0  0  0  0  0  0
  140.4118   76.3249  218.9475 H   0  0  0  0  0  0  0  0  0  0  0  0
  141.8105   77.3496  218.4528 H   0  0  0  0  0  0  0  0  0  0  0  0
  142.0876   75.6893  220.4477 H   0  0  0  0  0  0  0  0  0  0  0  0
  142.7171   77.3825  220.5908 H   0  0  0  0  0  0  0  0  0  0  0  0
  141.1428   76.1493  222.4480 H   0  0  0  0  0  0  0  0  0  0  0  0
  143.0354   80.9737  222.8658 H   0  0  0  0  0  0  0  0  0  0  0  0
  142.9450   79.0510  221.2040 H   0  0  0  0  0  0  0  0  0  0  0  0
  139.2236   70.4633  222.0104 H   0  0  0  0  0  0  0  0  0  0  0  0
  139.3954   68.6736  223.7108 H   0  0  0  0  0  0  0  0  0  0  0  0
  139.9917   67.9673  226.0069 H   0  0  0  0  0  0  0  0  0  0  0  0
  141.5066   70.9172  228.7807 H   0  0  0  0  0  0  0  0  0  0  0  0
  141.2832   72.6141  226.9806 H   0  0  0  0  0  0  0  0  0  0  0  0
  1  2  2  0
  2  3  1  0
  3  4  1  0
  4  5  1  0
  5  6  2  0
  5  7  1  0
  7  8  1  0
  8  9  1  0
  9 10  1  0
 10 11  1  0
 11 12  1  0
 12 13  1  0
 13 14  2  0
 14 15  1  0
 15 16  2  0
 16 17  1  0
  2 18  1  0
 18 19  2  0
 19 20  1  0
 20 21  2  0
 21 22  1  0
 22 23  2  0
 23 24  1  0
 23 25  1  0
 25 26  2  0
 26 27  1  0
 27 28  2  0
 12  7  1  0
 17 13  1  0
 28 18  1  0
 27 21  1  0
  3 29  1  0
  4 30  1  0
  4 31  1  0
  8 32  1  0
  8 33  1  0
  9 34  1  0
  9 35  1  0
 10 36  1  0
 10 37  1  0
 11 38  1  0
 11 39  1  0
 12 40  1  1
 16 41  1  0
 17 42  1  0
 19 43  1  0
 20 44  1  0
 22 45  1  0
 25 46  1  0
 26 47  1  0
M  END
>  <smiles>  (48) 
O=C(NCC(=O)N1CCCC[C@H]1c1nnc[nH]1)c1ccc2cc(Cl)ccc2n1

>  <score_type>  (48) 
oracle

>  <origin>  (48) 
autodockgpu

>  <m_score__min__energy>  (48) 
-8.5800000000000001

>  <m_primary>  (48) 
energy

>  <rmsd>  (48) 
2.156962266934762

>  <m_score__min__rmsd>  (48) 
2.156962266934762

>  <meeko>  (48) 
{"free_energy": -8.27, "intermolecular_energy": -9.77, "internal_energy": -1.55, "cluster_size": 29, "cluster_id": 1, "rank_in_cluster": 21}

>  <energy>  (48) 
-6.16

>  <cluster_rmsd>  (48) 
0.0

>  <cluster>  (48) 
9

$$$$

     RDKit          3D

 47 50  0  0  0  0  0  0  0  0999 V2000
  139.2820   72.1700  220.7530 O   0  0  0  0  0  0  0  0  0  0  0  0
  139.3530   72.5240  221.9580 C   0  0  0  0  0  0  0  0  0  0  0  0
  139.2420   73.8910  222.3300 N   0  0  0  0  0  0  0  0  0  0  0  0
  139.0410   74.8820  221.2890 C   0  0  0  0  0  0  0  0  0  0  0  0
  138.9200   76.2160  221.9350 C   0  0  0  0  0  0  0  0  0  0  0  0
  138.1560   76.4300  222.9240 O   0  0  0  0  0  0  0  0  0  0  0  0
  139.6980   77.2930  221.4200 N   0  0  0  0  0  0  0  0  0  0  0  0
  139.1220   78.3450  220.5900 C   0  0  0  0  0  0  0  0  0  0  0  0
  140.1400   78.9120  219.6230 C   0  0  0  0  0  0  0  0  0  0  0  0
  141.0670   77.7610  219.2360 C   0  0  0  0  0  0  0  0  0  0  0  0
  141.9110   77.3420  220.4200 C   0  0  0  0  0  0  0  0  0  0  0  0
  141.1200   77.3860  221.7100 C   0  0  1  0  0  0  0  0  0  0  0  0
  141.4290   78.6160  222.4700 C   0  0  0  0  0  0  0  0  0  0  0  0
  140.6740   79.1800  223.4540 N   0  0  0  0  0  0  0  0  0  0  0  0
  141.2850   80.2690  223.8900 N   0  0  0  0  0  0  0  0  0  0  0  0
  142.4280   80.4140  223.2000 C   0  0  0  0  0  0  0  0  0  0  0  0
  142.5130   79.3950  222.3280 N   0  0  0  0  0  0  0  0  0  0  0  0
  139.5560   71.5510  223.0400 C   0  0  0  0  0  0  0  0  0  0  0  0
  139.2140   70.2200  222.8470 C   0  0  0  0  0  0  0  0  0  0  0  0
  139.4150   69.3310  223.8810 C   0  0  0  0  0  0  0  0  0  0  0  0
  139.9430   69.7300  225.0870 C   0  0  0  0  0  0  0  0  0  0  0  0
  140.1640   68.8840  226.1480 C   0  0  0  0  0  0  0  0  0  0  0  0
  140.7020   69.3450  227.3500 C   0  0  0  0  0  0  0  0  0  0  0  0
  140.9860   68.2860  228.6980 Cl  0  0  0  0  0  0  0  0  0  0  0  0
  141.0280   70.6900  227.4900 C   0  0  0  0  0  0  0  0  0  0  0  0
  140.7960   71.5160  226.4090 C   0  0  0  0  0  0  0  0  0  0  0  0
  140.2670   71.0500  225.2370 C   0  0  0  0  0  0  0  0  0  0  0  0
  140.0680   71.8940  224.2350 N   0  0  0  0  0  0  0  0  0  0  0  0
  139.2950   74.2150  223.3030 H   0  0  0  0  0  0  0  0  0  0  0  0
  139.8988   74.8781  220.6004 H   0  0  0  0  0  0  0  0  0  0  0  0
  138.1300   74.6527  220.7168 H   0  0  0  0  0  0  0  0  0  0  0  0
  138.2801   77.9278  220.0181 H   0  0  0  0  0  0  0  0  0  0  0  0
  138.7842   79.1577  221.2498 H   0  0  0  0  0  0  0  0  0  0  0  0
  139.6347   79.3084  218.7300 H   0  0  0  0  0  0  0  0  0  0  0  0
  140.7044   79.7373  220.0817 H   0  0  0  0  0  0  0  0  0  0  0  0
  140.4621   76.9054  218.9013 H   0  0  0  0  0  0  0  0  0  0  0  0
  141.7310   78.0950  218.4251 H   0  0  0  0  0  0  0  0  0  0  0  0
  142.2711   76.3155  220.2566 H   0  0  0  0  0  0  0  0  0  0  0  0
  142.7534   78.0438  220.5082 H   0  0  0  0  0  0  0  0  0  0  0  0
  141.4063   76.5271  222.3348 H   0  0  0  0  0  0  0  0  0  0  0  0
  143.1632   81.2224  223.3261 H   0  0  0  0  0  0  0  0  0  0  0  0
  143.3230   79.2940  221.6760 H   0  0  0  0  0  0  0  0  0  0  0  0
  138.7916   69.8817  221.8894 H   0  0  0  0  0  0  0  0  0  0  0  0
  139.1460   68.2740  223.7380 H   0  0  0  0  0  0  0  0  0  0  0  0
  139.9107   67.8184  226.0468 H   0  0  0  0  0  0  0  0  0  0  0  0
  141.4542   71.0801  228.4260 H   0  0  0  0  0  0  0  0  0  0  0  0
  141.0447   72.5842  226.4927 H   0  0  0  0  0  0  0  0  0  0  0  0
  1  2  2  0
  2  3  1  0
  3  4  1  0
  4  5  1  0
  5  6  2  0
  5  7  1  0
  7  8  1  0
  8  9  1  0
  9 10  1  0
 10 11  1  0
 11 12  1  0
 12 13  1  0
 13 14  2  0
 14 15  1  0
 15 16  2  0
 16 17  1  0
  2 18  1  0
 18 19  2  0
 19 20  1  0
 20 21  2  0
 21 22  1  0
 22 23  2  0
 23 24  1  0
 23 25  1  0
 25 26  2  0
 26 27  1  0
 27 28  2  0
 12  7  1  0
 17 13  1  0
 28 18  1  0
 27 21  1  0
  3 29  1  0
  4 30  1  0
  4 31  1  0
  8 32  1  0
  8 33  1  0
  9 34  1  0
  9 35  1  0
 10 36  1  0
 10 37  1  0
 11 38  1  0
 11 39  1  0
 12 40  1  1
 16 41  1  0
 17 42  1  0
 19 43  1  0
 20 44  1  0
 22 45  1  0
 25 46  1  0
 26 47  1  0
M  END
>  <smiles>  (49) 
O=C(NCC(=O)N1CCCC[C@H]1c1nnc[nH]1)c1ccc2cc(Cl)ccc2n1

>  <score_type>  (49) 
oracle

>  <origin>  (49) 
autodockgpu

>  <m_score__min__energy>  (49) 
-8.5800000000000001

>  <m_primary>  (49) 
energy

>  <rmsd>  (49) 
2.2071413657265158

>  <m_score__min__rmsd>  (49) 
2.2071413657265158

>  <meeko>  (49) 
{"free_energy": -8.33, "intermolecular_energy": -9.82, "internal_energy": -1.71, "cluster_size": 29, "cluster_id": 1, "rank_in_cluster": 18}

>  <energy>  (49) 
-6.14

>  <cluster_rmsd>  (49) 
0.0

>  <cluster>  (49) 
10

$$$$

     RDKit          3D

 47 50  0  0  0  0  0  0  0  0999 V2000
  140.1760   72.6660  220.7810 O   0  0  0  0  0  0  0  0  0  0  0  0
  139.8800   72.9470  221.9720 C   0  0  0  0  0  0  0  0  0  0  0  0
  139.4770   74.2600  222.3380 N   0  0  0  0  0  0  0  0  0  0  0  0
  139.4090   75.2810  221.3080 C   0  0  0  0  0  0  0  0  0  0  0  0
  139.1830   76.5930  221.9690 C   0  0  0  0  0  0  0  0  0  0  0  0
  138.3770   76.7400  222.9380 O   0  0  0  0  0  0  0  0  0  0  0  0
  139.9020   77.7270  221.4940 N   0  0  0  0  0  0  0  0  0  0  0  0
  139.2440   78.8530  220.8410 C   0  0  0  0  0  0  0  0  0  0  0  0
  140.1580   79.5290  219.8410 C   0  0  0  0  0  0  0  0  0  0  0  0
  141.0410   78.4350  219.2440 C   0  0  0  0  0  0  0  0  0  0  0  0
  142.0020   77.9050  220.2860 C   0  0  0  0  0  0  0  0  0  0  0  0
  141.3470   77.8050  221.6460 C   0  0  1  0  0  0  0  0  0  0  0  0
  141.7300   78.9520  222.4960 C   0  0  0  0  0  0  0  0  0  0  0  0
  140.9200   79.6550  223.3360 N   0  0  0  0  0  0  0  0  0  0  0  0
  141.6310   80.6050  223.9220 N   0  0  0  0  0  0  0  0  0  0  0  0
  142.8930   80.5230  223.4700 C   0  0  0  0  0  0  0  0  0  0  0  0
  142.9500   79.5050  222.5940 N   0  0  0  0  0  0  0  0  0  0  0  0
  139.9370   71.9420  223.0410 C   0  0  0  0  0  0  0  0  0  0  0  0
  139.5090   70.6450  222.7960 C   0  0  0  0  0  0  0  0  0  0  0  0
  139.5740   69.7240  223.8190 C   0  0  0  0  0  0  0  0  0  0  0  0
  140.0490   70.0600  225.0660 C   0  0  0  0  0  0  0  0  0  0  0  0
  140.1340   69.1800  226.1200 C   0  0  0  0  0  0  0  0  0  0  0  0
  140.6240   69.5770  227.3650 C   0  0  0  0  0  0  0  0  0  0  0  0
  140.7370   68.4760  228.7030 Cl  0  0  0  0  0  0  0  0  0  0  0  0
  141.0400   70.8910  227.5570 C   0  0  0  0  0  0  0  0  0  0  0  0
  140.9440   71.7520  226.4820 C   0  0  0  0  0  0  0  0  0  0  0  0
  140.4600   71.3490  225.2680 C   0  0  0  0  0  0  0  0  0  0  0  0
  140.3930   72.2230  224.2750 N   0  0  0  0  0  0  0  0  0  0  0  0
  139.2290   74.5240  223.2980 H   0  0  0  0  0  0  0  0  0  0  0  0
  140.3537   75.3055  220.7450 H   0  0  0  0  0  0  0  0  0  0  0  0
  138.5887   75.0614  220.6088 H   0  0  0  0  0  0  0  0  0  0  0  0
  138.3487   78.4880  220.3164 H   0  0  0  0  0  0  0  0  0  0  0  0
  138.9744   79.5888  221.6129 H   0  0  0  0  0  0  0  0  0  0  0  0
  139.5644   80.0107  219.0501 H   0  0  0  0  0  0  0  0  0  0  0  0
  140.7657   80.3083  220.3242 H   0  0  0  0  0  0  0  0  0  0  0  0
  140.4055   77.6120  218.8852 H   0  0  0  0  0  0  0  0  0  0  0  0
  141.6183   78.8587  218.4090 H   0  0  0  0  0  0  0  0  0  0  0  0
  142.3448   76.9055  219.9802 H   0  0  0  0  0  0  0  0  0  0  0  0
  142.8482   78.6037  220.3615 H   0  0  0  0  0  0  0  0  0  0  0  0
  141.6968   76.8886  222.1439 H   0  0  0  0  0  0  0  0  0  0  0  0
  143.7304   81.1728  223.7641 H   0  0  0  0  0  0  0  0  0  0  0  0
  143.8370   79.2470  222.1060 H   0  0  0  0  0  0  0  0  0  0  0  0
  139.1258   70.3579  221.8057 H   0  0  0  0  0  0  0  0  0  0  0  0
  139.2374   68.6933  223.6339 H   0  0  0  0  0  0  0  0  0  0  0  0
  139.8081   68.1390  225.9781 H   0  0  0  0  0  0  0  0  0  0  0  0
  141.4302   71.2306  228.5278 H   0  0  0  0  0  0  0  0  0  0  0  0
  141.2673   72.7961  226.6060 H   0  0  0  0  0  0  0  0  0  0  0  0
  1  2  2  0
  2  3  1  0
  3  4  1  0
  4  5  1  0
  5  6  2  0
  5  7  1  0
  7  8  1  0
  8  9  1  0
  9 10  1  0
 10 11  1  0
 11 12  1  0
 12 13  1  0
 13 14  2  0
 14 15  1  0
 15 16  2  0
 16 17  1  0
  2 18  1  0
 18 19  2  0
 19 20  1  0
 20 21  2  0
 21 22  1  0
 22 23  2  0
 23 24  1  0
 23 25  1  0
 25 26  2  0
 26 27  1  0
 27 28  2  0
 12  7  1  0
 17 13  1  0
 28 18  1  0
 27 21  1  0
  3 29  1  0
  4 30  1  0
  4 31  1  0
  8 32  1  0
  8 33  1  0
  9 34  1  0
  9 35  1  0
 10 36  1  0
 10 37  1  0
 11 38  1  0
 11 39  1  0
 12 40  1  1
 16 41  1  0
 17 42  1  0
 19 43  1  0
 20 44  1  0
 22 45  1  0
 25 46  1  0
 26 47  1  0
M  END
>  <smiles>  (50) 
O=C(NCC(=O)N1CCCC[C@H]1c1nnc[nH]1)c1ccc2cc(Cl)ccc2n1

>  <score_type>  (50) 
oracle

>  <origin>  (50) 
autodockgpu

>  <m_score__min__energy>  (50) 
-8.5800000000000001

>  <m_primary>  (50) 
energy

>  <rmsd>  (50) 
2.5562370521812654

>  <m_score__min__rmsd>  (50) 
2.5562370521812654

>  <meeko>  (50) 
{"free_energy": -8.57, "intermolecular_energy": -10.07, "internal_energy": -1.73, "cluster_size": 29, "cluster_id": 1, "rank_in_cluster": 3}

>  <energy>  (50) 
-5.87

>  <cluster_rmsd>  (50) 
0.0

>  <cluster>  (50) 
11

$$$$
