
     RDKit          3D

 49 52  0  0  0  0  0  0  0  0999 V2000
  141.4040   72.3440  221.7130 O   0  0  0  0  0  0  0  0  0  0  0  0
  140.4450   72.5100  222.5420 C   0  0  0  0  0  0  0  0  0  0  0  0
  139.6060   73.6150  222.3370 N   0  0  0  0  0  0  0  0  0  0  0  0
  139.8930   74.4850  221.1980 C   0  0  0  0  0  0  0  0  0  0  0  0
  139.1540   75.7510  221.3270 C   0  0  0  0  0  0  0  0  0  0  0  0
  138.1000   75.8210  222.0190 O   0  0  0  0  0  0  0  0  0  0  0  0
  139.6420   76.8970  220.6610 N   0  0  0  0  0  0  0  0  0  0  0  0
  138.8870   78.0350  220.1330 C   0  0  0  0  0  0  0  0  0  0  0  0
  139.5320   78.2380  218.7890 C   0  0  0  0  0  0  0  0  0  0  0  0
  140.9080   77.6030  218.8950 C   0  0  2  0  0  0  0  0  0  0  0  0
  140.9120   76.4170  218.1320 O   0  0  0  0  0  0  0  0  0  0  0  0
  141.0380   77.2230  220.3340 C   0  0  1  0  0  0  0  0  0  0  0  0
  141.4200   78.3130  221.2370 C   0  0  0  0  0  0  0  0  0  0  0  0
  141.3590   78.0490  222.6100 C   0  0  0  0  0  0  0  0  0  0  0  0
  141.7140   79.0570  223.5120 C   0  0  0  0  0  0  0  0  0  0  0  0
  142.1210   80.3000  223.0920 C   0  0  0  0  0  0  0  0  0  0  0  0
  142.5690   81.5770  224.2120 Cl  0  0  0  0  0  0  0  0  0  0  0  0
  142.1820   80.5640  221.7400 C   0  0  0  0  0  0  0  0  0  0  0  0
  141.8280   79.5570  220.8720 C   0  0  0  0  0  0  0  0  0  0  0  0
  140.2440   71.5740  223.6530 C   0  0  0  0  0  0  0  0  0  0  0  0
  139.5910   70.3730  223.3910 C   0  0  0  0  0  0  0  0  0  0  0  0
  139.4340   69.5300  224.4860 C   0  0  0  0  0  0  0  0  0  0  0  0
  139.8930   69.8580  225.7450 C   0  0  0  0  0  0  0  0  0  0  0  0
  139.7300   69.0100  226.8300 C   0  0  0  0  0  0  0  0  0  0  0  0
  140.2020   69.3640  228.0970 C   0  0  0  0  0  0  0  0  0  0  0  0
  140.0230   68.5020  229.1410 F   0  0  0  0  0  0  0  0  0  0  0  0
  140.8360   70.5830  228.2420 C   0  0  0  0  0  0  0  0  0  0  0  0
  141.0160   71.4520  227.1880 C   0  0  0  0  0  0  0  0  0  0  0  0
  140.5360   71.0680  225.9500 C   0  0  0  0  0  0  0  0  0  0  0  0
  140.6870   71.8800  224.8900 N   0  0  0  0  0  0  0  0  0  0  0  0
  138.7990   73.8010  222.9880 H   0  0  0  0  0  0  0  0  0  0  0  0
  140.9721   74.6959  221.1646 H   0  0  0  0  0  0  0  0  0  0  0  0
  139.5805   73.9795  220.2724 H   0  0  0  0  0  0  0  0  0  0  0  0
  137.8185   77.7940  220.0318 H   0  0  0  0  0  0  0  0  0  0  0  0
  138.9149   78.9252  220.7786 H   0  0  0  0  0  0  0  0  0  0  0  0
  138.9419   77.7460  218.0018 H   0  0  0  0  0  0  0  0  0  0  0  0
  139.5954   79.3040  218.5252 H   0  0  0  0  0  0  0  0  0  0  0  0
  141.7112   78.2698  218.5481 H   0  0  0  0  0  0  0  0  0  0  0  0
  141.8140   76.0990  217.9700 H   0  0  0  0  0  0  0  0  0  0  0  0
  141.8107   76.4500  220.4584 H   0  0  0  0  0  0  0  0  0  0  0  0
  141.0364   77.0626  222.9745 H   0  0  0  0  0  0  0  0  0  0  0  0
  141.6659   78.8481  224.5909 H   0  0  0  0  0  0  0  0  0  0  0  0
  142.5033   81.5479  221.3675 H   0  0  0  0  0  0  0  0  0  0  0  0
  141.8793   79.7765  219.7953 H   0  0  0  0  0  0  0  0  0  0  0  0
  139.2247   70.1091  222.3879 H   0  0  0  0  0  0  0  0  0  0  0  0
  138.9248   68.5655  224.3428 H   0  0  0  0  0  0  0  0  0  0  0  0
  139.2217   68.0444  226.6915 H   0  0  0  0  0  0  0  0  0  0  0  0
  141.2108   70.8703  229.2355 H   0  0  0  0  0  0  0  0  0  0  0  0
  141.5240   72.4177  227.3269 H   0  0  0  0  0  0  0  0  0  0  0  0
  1  2  2  0
  2  3  1  0
  3  4  1  0
  4  5  1  0
  5  6  2  0
  5  7  1  0
  7  8  1  0
  8  9  1  0
  9 10  1  0
 10 11  1  0
 10 12  1  0
 12 13  1  0
 13 14  2  0
 14 15  1  0
 15 16  2  0
 16 17  1  0
 16 18  1  0
 18 19  2  0
  2 20  1  0
 20 21  2  0
 21 22  1  0
 22 23  2  0
 23 24  1  0
 24 25  2  0
 25 26  1  0
 25 27  1  0
 27 28  2  0
 28 29  1  0
 29 30  2  0
 12  7  1  0
 19 13  1  0
 30 20  1  0
 29 23  1  0
  3 31  1  0
  4 32  1  0
  4 33  1  0
  8 34  1  0
  8 35  1  0
  9 36  1  0
  9 37  1  0
 10 38  1  6
 11 39  1  0
 12 40  1  6
 14 41  1  0
 15 42  1  0
 18 43  1  0
 19 44  1  0
 21 45  1  0
 22 46  1  0
 24 47  1  0
 27 48  1  0
 28 49  1  0
M  END
>  <smiles>  (1) 
O=C(NCC(=O)N1CC[C@H](O)[C@H]1c1ccc(Cl)cc1)c1ccc2cc(F)ccc2n1

>  <score_type>  (1) 
oracle

>  <origin>  (1) 
autodockgpu

>  <m_score__min__energy>  (1) 
-8.7300000000000004

>  <m_primary>  (1) 
energy

>  <rmsd>  (1) 
2.017451897337539

>  <m_score__min__rmsd>  (1) 
2.017451897337539

>  <meeko>  (1) 
{"free_energy": -8.33, "intermolecular_energy": -10.12, "internal_energy": -1.66, "cluster_size": 36, "cluster_id": 1, "rank_in_cluster": 7}

>  <energy>  (1) 
-8.73

>  <cluster_rmsd>  (1) 
0.0

>  <cluster>  (1) 
1

$$$$

     RDKit          3D

 49 52  0  0  0  0  0  0  0  0999 V2000
  141.3130   72.1740  221.6630 O   0  0  0  0  0  0  0  0  0  0  0  0
  140.3950   72.3610  222.5340 C   0  0  0  0  0  0  0  0  0  0  0  0
  139.5620   73.4750  222.3580 N   0  0  0  0  0  0  0  0  0  0  0  0
  139.8070   74.3320  221.1990 C   0  0  0  0  0  0  0  0  0  0  0  0
  139.0350   75.5790  221.3170 C   0  0  0  0  0  0  0  0  0  0  0  0
  137.9680   75.6220  221.9920 O   0  0  0  0  0  0  0  0  0  0  0  0
  139.5060   76.7370  220.6600 N   0  0  0  0  0  0  0  0  0  0  0  0
  138.7390   77.8890  220.1810 C   0  0  0  0  0  0  0  0  0  0  0  0
  139.3420   78.1180  218.8210 C   0  0  0  0  0  0  0  0  0  0  0  0
  140.7180   77.4770  218.8710 C   0  0  2  0  0  0  0  0  0  0  0  0
  140.6950   76.3070  218.0830 O   0  0  0  0  0  0  0  0  0  0  0  0
  140.8920   77.0670  220.2970 C   0  0  1  0  0  0  0  0  0  0  0  0
  141.3050   78.1360  221.2100 C   0  0  0  0  0  0  0  0  0  0  0  0
  141.1760   77.8840  222.5810 C   0  0  0  0  0  0  0  0  0  0  0  0
  141.5580   78.8740  223.4920 C   0  0  0  0  0  0  0  0  0  0  0  0
  142.0560   80.0870  223.0840 C   0  0  0  0  0  0  0  0  0  0  0  0
  142.5400   81.3400  224.2160 Cl  0  0  0  0  0  0  0  0  0  0  0  0
  142.1860   80.3390  221.7340 C   0  0  0  0  0  0  0  0  0  0  0  0
  141.8040   79.3510  220.8570 C   0  0  0  0  0  0  0  0  0  0  0  0
  140.2340   71.4360  223.6620 C   0  0  0  0  0  0  0  0  0  0  0  0
  139.6280   70.2070  223.4220 C   0  0  0  0  0  0  0  0  0  0  0  0
  139.5070   69.3780  224.5320 C   0  0  0  0  0  0  0  0  0  0  0  0
  139.9550   69.7450  225.7840 C   0  0  0  0  0  0  0  0  0  0  0  0
  139.8290   68.9100  226.8830 C   0  0  0  0  0  0  0  0  0  0  0  0
  140.2890   69.3040  228.1430 C   0  0  0  0  0  0  0  0  0  0  0  0
  140.1470   68.4540  229.2020 F   0  0  0  0  0  0  0  0  0  0  0  0
  140.8760   70.5480  228.2650 C   0  0  0  0  0  0  0  0  0  0  0  0
  141.0190   71.4060  227.1950 C   0  0  0  0  0  0  0  0  0  0  0  0
  140.5510   70.9820  225.9660 C   0  0  0  0  0  0  0  0  0  0  0  0
  140.6670   71.7810  224.8920 N   0  0  0  0  0  0  0  0  0  0  0  0
  138.7890   73.6770  223.0450 H   0  0  0  0  0  0  0  0  0  0  0  0
  140.8791   74.5721  221.1448 H   0  0  0  0  0  0  0  0  0  0  0  0
  139.4945   73.8012  220.2876 H   0  0  0  0  0  0  0  0  0  0  0  0
  137.6668   77.6541  220.1091 H   0  0  0  0  0  0  0  0  0  0  0  0
  138.7911   78.7651  220.8441 H   0  0  0  0  0  0  0  0  0  0  0  0
  138.7256   77.6439  218.0429 H   0  0  0  0  0  0  0  0  0  0  0  0
  139.4006   79.1890  218.5769 H   0  0  0  0  0  0  0  0  0  0  0  0
  141.5121   78.1488  218.5132 H   0  0  0  0  0  0  0  0  0  0  0  0
  141.5890   76.0250  217.8350 H   0  0  0  0  0  0  0  0  0  0  0  0
  141.6664   76.2903  220.3812 H   0  0  0  0  0  0  0  0  0  0  0  0
  140.7799   76.9213  222.9366 H   0  0  0  0  0  0  0  0  0  0  0  0
  141.4564   78.6748  224.5690 H   0  0  0  0  0  0  0  0  0  0  0  0
  142.5822   81.2988  221.3709 H   0  0  0  0  0  0  0  0  0  0  0  0
  141.9107   79.5604  219.7824 H   0  0  0  0  0  0  0  0  0  0  0  0
  139.2699   69.9118  222.4247 H   0  0  0  0  0  0  0  0  0  0  0  0
  139.0360   68.3918  224.4068 H   0  0  0  0  0  0  0  0  0  0  0  0
  139.3600   67.9224  226.7620 H   0  0  0  0  0  0  0  0  0  0  0  0
  141.2430   70.8662  229.2520 H   0  0  0  0  0  0  0  0  0  0  0  0
  141.4891   72.3932  227.3156 H   0  0  0  0  0  0  0  0  0  0  0  0
  1  2  2  0
  2  3  1  0
  3  4  1  0
  4  5  1  0
  5  6  2  0
  5  7  1  0
  7  8  1  0
  8  9  1  0
  9 10  1  0
 10 11  1  0
 10 12  1  0
 12 13  1  0
 13 14  2  0
 14 15  1  0
 15 16  2  0
 16 17  1  0
 16 18  1  0
 18 19  2  0
  2 20  1  0
 20 21  2  0
 21 22  1  0
 22 23  2  0
 23 24  1  0
 24 25  2  0
 25 26  1  0
 25 27  1  0
 27 28  2  0
 28 29  1  0
 29 30  2  0
 12  7  1  0
 19 13  1  0
 30 20  1  0
 29 23  1  0
  3 31  1  0
  4 32  1  0
  4 33  1  0
  8 34  1  0
  8 35  1  0
  9 36  1  0
  9 37  1  0
 10 38  1  6
 11 39  1  0
 12 40  1  6
 14 41  1  0
 15 42  1  0
 18 43  1  0
 19 44  1  0
 21 45  1  0
 22 46  1  0
 24 47  1  0
 27 48  1  0
 28 49  1  0
M  END
>  <smiles>  (2) 
O=C(NCC(=O)N1CC[C@H](O)[C@H]1c1ccc(Cl)cc1)c1ccc2cc(F)ccc2n1

>  <score_type>  (2) 
oracle

>  <origin>  (2) 
autodockgpu

>  <m_score__min__energy>  (2) 
-8.7300000000000004

>  <m_primary>  (2) 
energy

>  <rmsd>  (2) 
1.9473457906902203

>  <m_score__min__rmsd>  (2) 
1.9473457906902203

>  <meeko>  (2) 
{"free_energy": -8.28, "intermolecular_energy": -10.07, "internal_energy": -1.66, "cluster_size": 36, "cluster_id": 1, "rank_in_cluster": 8}

>  <energy>  (2) 
-8.55

>  <cluster_rmsd>  (2) 
1.22

>  <cluster>  (2) 
1

$$$$

     RDKit          3D

 49 52  0  0  0  0  0  0  0  0999 V2000
  140.9900   72.4180  221.6490 O   0  0  0  0  0  0  0  0  0  0  0  0
  140.0180   72.3960  222.4800 C   0  0  0  0  0  0  0  0  0  0  0  0
  138.9690   73.3000  222.2620 N   0  0  0  0  0  0  0  0  0  0  0  0
  139.0700   74.1950  221.1100 C   0  0  0  0  0  0  0  0  0  0  0  0
  140.2150   75.1060  221.2720 C   0  0  0  0  0  0  0  0  0  0  0  0
  140.3910   75.7430  222.3480 O   0  0  0  0  0  0  0  0  0  0  0  0
  141.1210   75.2600  220.2000 N   0  0  0  0  0  0  0  0  0  0  0  0
  140.9210   74.9430  218.7840 C   0  0  0  0  0  0  0  0  0  0  0  0
  142.2160   74.2600  218.4350 C   0  0  0  0  0  0  0  0  0  0  0  0
  143.2210   74.7330  219.4700 C   0  0  2  0  0  0  0  0  0  0  0  0
  143.5000   73.6610  220.3440 O   0  0  0  0  0  0  0  0  0  0  0  0
  142.4950   75.7810  220.2490 C   0  0  1  0  0  0  0  0  0  0  0  0
  142.4480   77.1050  219.6230 C   0  0  0  0  0  0  0  0  0  0  0  0
  141.8230   78.1270  220.3470 C   0  0  0  0  0  0  0  0  0  0  0  0
  141.7530   79.4090  219.7910 C   0  0  0  0  0  0  0  0  0  0  0  0
  142.2780   79.6970  218.5550 C   0  0  0  0  0  0  0  0  0  0  0  0
  142.1980   81.3000  217.8440 Cl  0  0  0  0  0  0  0  0  0  0  0  0
  142.8950   78.6920  217.8390 C   0  0  0  0  0  0  0  0  0  0  0  0
  142.9520   77.4400  218.4050 C   0  0  0  0  0  0  0  0  0  0  0  0
  140.0160   71.4550  223.6050 C   0  0  0  0  0  0  0  0  0  0  0  0
  139.4970   70.1810  223.3940 C   0  0  0  0  0  0  0  0  0  0  0  0
  139.5250   69.3370  224.5000 C   0  0  0  0  0  0  0  0  0  0  0  0
  140.0310   69.7330  225.7210 C   0  0  0  0  0  0  0  0  0  0  0  0
  140.0540   68.8840  226.8170 C   0  0  0  0  0  0  0  0  0  0  0  0
  140.5700   69.3070  228.0450 C   0  0  0  0  0  0  0  0  0  0  0  0
  140.5750   68.4420  229.1010 F   0  0  0  0  0  0  0  0  0  0  0  0
  141.0590   70.5950  228.1390 C   0  0  0  0  0  0  0  0  0  0  0  0
  141.0530   71.4680  227.0720 C   0  0  0  0  0  0  0  0  0  0  0  0
  140.5350   71.0150  225.8750 C   0  0  0  0  0  0  0  0  0  0  0  0
  140.5060   71.8270  224.8040 N   0  0  0  0  0  0  0  0  0  0  0  0
  138.1420   73.3260  222.9140 H   0  0  0  0  0  0  0  0  0  0  0  0
  139.2076   73.5975  220.1968 H   0  0  0  0  0  0  0  0  0  0  0  0
  138.1471   74.7888  221.0351 H   0  0  0  0  0  0  0  0  0  0  0  0
  140.0624   74.2703  218.6416 H   0  0  0  0  0  0  0  0  0  0  0  0
  140.6975   75.8199  218.1586 H   0  0  0  0  0  0  0  0  0  0  0  0
  142.0991   73.1674  218.4850 H   0  0  0  0  0  0  0  0  0  0  0  0
  142.5408   74.5030  217.4125 H   0  0  0  0  0  0  0  0  0  0  0  0
  144.1557   75.0968  219.0184 H   0  0  0  0  0  0  0  0  0  0  0  0
  142.7030   73.3580  220.8050 H   0  0  0  0  0  0  0  0  0  0  0  0
  142.9740   75.9327  221.2275 H   0  0  0  0  0  0  0  0  0  0  0  0
  141.3929   77.9251  221.3391 H   0  0  0  0  0  0  0  0  0  0  0  0
  141.2622   80.2112  220.3616 H   0  0  0  0  0  0  0  0  0  0  0  0
  143.3278   78.8861  216.8465 H   0  0  0  0  0  0  0  0  0  0  0  0
  143.4450   76.6453  217.8259 H   0  0  0  0  0  0  0  0  0  0  0  0
  139.0931   69.8636  222.4213 H   0  0  0  0  0  0  0  0  0  0  0  0
  139.1289   68.3160  224.3970 H   0  0  0  0  0  0  0  0  0  0  0  0
  139.6600   67.8617  226.7184 H   0  0  0  0  0  0  0  0  0  0  0  0
  141.4685   70.9371  229.1009 H   0  0  0  0  0  0  0  0  0  0  0  0
  141.4473   72.4901  227.1709 H   0  0  0  0  0  0  0  0  0  0  0  0
  1  2  2  0
  2  3  1  0
  3  4  1  0
  4  5  1  0
  5  6  2  0
  5  7  1  0
  7  8  1  0
  8  9  1  0
  9 10  1  0
 10 11  1  0
 10 12  1  0
 12 13  1  0
 13 14  2  0
 14 15  1  0
 15 16  2  0
 16 17  1  0
 16 18  1  0
 18 19  2  0
  2 20  1  0
 20 21  2  0
 21 22  1  0
 22 23  2  0
 23 24  1  0
 24 25  2  0
 25 26  1  0
 25 27  1  0
 27 28  2  0
 28 29  1  0
 29 30  2  0
 12  7  1  0
 19 13  1  0
 30 20  1  0
 29 23  1  0
  3 31  1  0
  4 32  1  0
  4 33  1  0
  8 34  1  0
  8 35  1  0
  9 36  1  0
  9 37  1  0
 10 38  1  6
 11 39  1  0
 12 40  1  1
 14 41  1  0
 15 42  1  0
 18 43  1  0
 19 44  1  0
 21 45  1  0
 22 46  1  0
 24 47  1  0
 27 48  1  0
 28 49  1  0
M  END
>  <smiles>  (3) 
O=C(NCC(=O)N1CC[C@H](O)[C@H]1c1ccc(Cl)cc1)c1ccc2cc(F)ccc2n1

>  <score_type>  (3) 
oracle

>  <origin>  (3) 
autodockgpu

>  <m_score__min__energy>  (3) 
-8.7300000000000004

>  <m_primary>  (3) 
energy

>  <rmsd>  (3) 
1.9658363772625844

>  <m_score__min__rmsd>  (3) 
1.9658363772625844

>  <meeko>  (3) 
{"free_energy": -7.83, "intermolecular_energy": -9.62, "internal_energy": -2.09, "cluster_size": 3, "cluster_id": 3, "rank_in_cluster": 1}

>  <energy>  (3) 
-8.46

>  <cluster_rmsd>  (3) 
1.27

>  <cluster>  (3) 
1

$$$$

     RDKit          3D

 49 52  0  0  0  0  0  0  0  0999 V2000
  135.3050   72.2450  222.8980 O   0  0  0  0  0  0  0  0  0  0  0  0
  136.5640   72.3530  223.0940 C   0  0  0  0  0  0  0  0  0  0  0  0
  137.1880   73.5150  222.6200 N   0  0  0  0  0  0  0  0  0  0  0  0
  136.3550   74.5070  221.9410 C   0  0  0  0  0  0  0  0  0  0  0  0
  137.1020   75.1280  220.8360 C   0  0  0  0  0  0  0  0  0  0  0  0
  136.5170   75.4820  219.7740 O   0  0  0  0  0  0  0  0  0  0  0  0
  138.4930   75.3240  220.9780 N   0  0  0  0  0  0  0  0  0  0  0  0
  139.5090   75.4490  219.9310 C   0  0  0  0  0  0  0  0  0  0  0  0
  140.6140   74.5770  220.4650 C   0  0  0  0  0  0  0  0  0  0  0  0
  140.3810   74.4940  221.9640 C   0  0  2  0  0  0  0  0  0  0  0  0
  139.9220   73.1960  222.2730 O   0  0  0  0  0  0  0  0  0  0  0  0
  139.2630   75.4500  222.2260 C   0  0  1  0  0  0  0  0  0  0  0  0
  139.6530   76.8600  222.3180 C   0  0  0  0  0  0  0  0  0  0  0  0
  141.0040   77.1280  222.5680 C   0  0  0  0  0  0  0  0  0  0  0  0
  141.4260   78.4580  222.6640 C   0  0  0  0  0  0  0  0  0  0  0  0
  140.5560   79.5110  222.5210 C   0  0  0  0  0  0  0  0  0  0  0  0
  141.0690   81.1860  222.6390 Cl  0  0  0  0  0  0  0  0  0  0  0  0
  139.2240   79.2500  222.2730 C   0  0  0  0  0  0  0  0  0  0  0  0
  138.8320   77.9350  222.1830 C   0  0  0  0  0  0  0  0  0  0  0  0
  137.3070   71.2970  223.7900 C   0  0  0  0  0  0  0  0  0  0  0  0
  136.6720   70.0760  223.9980 C   0  0  0  0  0  0  0  0  0  0  0  0
  137.4310   69.1170  224.6610 C   0  0  0  0  0  0  0  0  0  0  0  0
  138.7220   69.3570  225.0850 C   0  0  0  0  0  0  0  0  0  0  0  0
  139.4690   68.3940  225.7460 C   0  0  0  0  0  0  0  0  0  0  0  0
  140.7750   68.6600  226.1670 C   0  0  0  0  0  0  0  0  0  0  0  0
  141.4790   67.6860  226.8150 F   0  0  0  0  0  0  0  0  0  0  0  0
  141.3040   69.9080  225.9060 C   0  0  0  0  0  0  0  0  0  0  0  0
  140.5930   70.8910  225.2520 C   0  0  0  0  0  0  0  0  0  0  0  0
  139.3050   70.5920  224.8510 C   0  0  0  0  0  0  0  0  0  0  0  0
  138.5690   71.5150  224.2100 N   0  0  0  0  0  0  0  0  0  0  0  0
  138.2230   73.6590  222.7540 H   0  0  0  0  0  0  0  0  0  0  0  0
  135.4568   74.0142  221.5405 H   0  0  0  0  0  0  0  0  0  0  0  0
  136.0663   75.2865  222.6615 H   0  0  0  0  0  0  0  0  0  0  0  0
  139.1364   75.0764  218.9654 H   0  0  0  0  0  0  0  0  0  0  0  0
  139.8176   76.4860  219.7326 H   0  0  0  0  0  0  0  0  0  0  0  0
  140.5652   73.5754  220.0128 H   0  0  0  0  0  0  0  0  0  0  0  0
  141.6067   74.9882  220.2296 H   0  0  0  0  0  0  0  0  0  0  0  0
  141.2869   74.7160  222.5471 H   0  0  0  0  0  0  0  0  0  0  0  0
  139.5240   73.1590  223.1560 H   0  0  0  0  0  0  0  0  0  0  0  0
  138.7738   75.2145  223.1827 H   0  0  0  0  0  0  0  0  0  0  0  0
  141.7234   76.3044  222.6872 H   0  0  0  0  0  0  0  0  0  0  0  0
  142.4880   78.6672  222.8602 H   0  0  0  0  0  0  0  0  0  0  0  0
  138.4986   80.0679  222.1511 H   0  0  0  0  0  0  0  0  0  0  0  0
  137.7681   77.7370  221.9858 H   0  0  0  0  0  0  0  0  0  0  0  0
  135.6426   69.8829  223.6618 H   0  0  0  0  0  0  0  0  0  0  0  0
  136.9852   68.1302  224.8545 H   0  0  0  0  0  0  0  0  0  0  0  0
  139.0272   67.4059  225.9420 H   0  0  0  0  0  0  0  0  0  0  0  0
  142.3316   70.1261  226.2322 H   0  0  0  0  0  0  0  0  0  0  0  0
  141.0354   71.8789  225.0561 H   0  0  0  0  0  0  0  0  0  0  0  0
  1  2  2  0
  2  3  1  0
  3  4  1  0
  4  5  1  0
  5  6  2  0
  5  7  1  0
  7  8  1  0
  8  9  1  0
  9 10  1  0
 10 11  1  0
 10 12  1  0
 12 13  1  0
 13 14  2  0
 14 15  1  0
 15 16  2  0
 16 17  1  0
 16 18  1  0
 18 19  2  0
  2 20  1  0
 20 21  2  0
 21 22  1  0
 22 23  2  0
 23 24  1  0
 24 25  2  0
 25 26  1  0
 25 27  1  0
 27 28  2  0
 28 29  1  0
 29 30  2  0
 12  7  1  0
 19 13  1  0
 30 20  1  0
 29 23  1  0
  3 31  1  0
  4 32  1  0
  4 33  1  0
  8 34  1  0
  8 35  1  0
  9 36  1  0
  9 37  1  0
 10 38  1  1
 11 39  1  0
 12 40  1  1
 14 41  1  0
 15 42  1  0
 18 43  1  0
 19 44  1  0
 21 45  1  0
 22 46  1  0
 24 47  1  0
 27 48  1  0
 28 49  1  0
M  END
>  <smiles>  (4) 
O=C(NCC(=O)N1CC[C@H](O)[C@H]1c1ccc(Cl)cc1)c1ccc2cc(F)ccc2n1

>  <score_type>  (4) 
oracle

>  <origin>  (4) 
autodockgpu

>  <m_score__min__energy>  (4) 
-8.7300000000000004

>  <m_primary>  (4) 
energy

>  <rmsd>  (4) 
3.1045865170297535

>  <m_score__min__rmsd>  (4) 
3.1045865170297535

>  <meeko>  (4) 
{"free_energy": -6.9, "intermolecular_energy": -8.69, "internal_energy": -2.92, "cluster_size": 36, "cluster_id": 1, "rank_in_cluster": 31}

>  <energy>  (4) 
-8.46

>  <cluster_rmsd>  (4) 
1.23

>  <cluster>  (4) 
1

$$$$

     RDKit          3D

 49 52  0  0  0  0  0  0  0  0999 V2000
  136.0850   71.5370  221.7070 O   0  0  0  0  0  0  0  0  0  0  0  0
  136.9760   72.0160  222.4890 C   0  0  0  0  0  0  0  0  0  0  0  0
  137.2900   73.3750  222.3460 N   0  0  0  0  0  0  0  0  0  0  0  0
  136.5780   74.1330  221.3190 C   0  0  0  0  0  0  0  0  0  0  0  0
  137.1470   75.4850  221.1990 C   0  0  0  0  0  0  0  0  0  0  0  0
  136.4000   76.4990  221.1050 O   0  0  0  0  0  0  0  0  0  0  0  0
  138.5510   75.6350  221.1890 N   0  0  0  0  0  0  0  0  0  0  0  0
  139.4480   75.7490  220.0370 C   0  0  0  0  0  0  0  0  0  0  0  0
  140.5760   74.8340  220.4320 C   0  0  0  0  0  0  0  0  0  0  0  0
  140.5080   74.7300  221.9450 C   0  0  2  0  0  0  0  0  0  0  0  0
  140.0440   73.4410  222.2840 O   0  0  0  0  0  0  0  0  0  0  0  0
  139.4570   75.7150  222.3440 C   0  0  1  0  0  0  0  0  0  0  0  0
  139.9020   77.1100  222.4140 C   0  0  0  0  0  0  0  0  0  0  0  0
  138.9260   78.0720  222.6990 C   0  0  0  0  0  0  0  0  0  0  0  0
  139.3010   79.4170  222.7770 C   0  0  0  0  0  0  0  0  0  0  0  0
  140.5980   79.8240  222.5810 C   0  0  0  0  0  0  0  0  0  0  0  0
  141.0850   81.5090  222.6750 Cl  0  0  0  0  0  0  0  0  0  0  0  0
  141.5630   78.8790  222.3010 C   0  0  0  0  0  0  0  0  0  0  0  0
  141.1700   77.5620  222.2290 C   0  0  0  0  0  0  0  0  0  0  0  0
  137.6310   71.1650  223.4890 C   0  0  0  0  0  0  0  0  0  0  0  0
  136.9830   69.9990  223.8840 C   0  0  0  0  0  0  0  0  0  0  0  0
  137.6560   69.2370  224.8330 C   0  0  0  0  0  0  0  0  0  0  0  0
  138.8810   69.6080  225.3490 C   0  0  0  0  0  0  0  0  0  0  0  0
  139.5420   68.8410  226.2950 C   0  0  0  0  0  0  0  0  0  0  0  0
  140.7820   69.2390  226.8040 C   0  0  0  0  0  0  0  0  0  0  0  0
  141.4030   68.4560  227.7350 F   0  0  0  0  0  0  0  0  0  0  0  0
  141.3330   70.4170  226.3390 C   0  0  0  0  0  0  0  0  0  0  0  0
  140.7050   71.2060  225.4000 C   0  0  0  0  0  0  0  0  0  0  0  0
  139.4810   70.7810  224.9200 C   0  0  0  0  0  0  0  0  0  0  0  0
  138.8280   71.5150  224.0020 N   0  0  0  0  0  0  0  0  0  0  0  0
  138.0160   73.8230  222.9630 H   0  0  0  0  0  0  0  0  0  0  0  0
  136.6703   73.6130  220.3541 H   0  0  0  0  0  0  0  0  0  0  0  0
  135.5182   74.2135  221.6024 H   0  0  0  0  0  0  0  0  0  0  0  0
  138.9590   75.4060  219.1133 H   0  0  0  0  0  0  0  0  0  0  0  0
  139.7659   76.7796  219.8207 H   0  0  0  0  0  0  0  0  0  0  0  0
  140.4450   73.8430  219.9729 H   0  0  0  0  0  0  0  0  0  0  0  0
  141.5494   75.2193  220.0943 H   0  0  0  0  0  0  0  0  0  0  0  0
  141.4798   74.9129  222.4269 H   0  0  0  0  0  0  0  0  0  0  0  0
  139.5350   73.4490  223.1090 H   0  0  0  0  0  0  0  0  0  0  0  0
  139.0680   75.4777  223.3452 H   0  0  0  0  0  0  0  0  0  0  0  0
  137.8792   77.7744  222.8593 H   0  0  0  0  0  0  0  0  0  0  0  0
  138.5336   80.1722  223.0022 H   0  0  0  0  0  0  0  0  0  0  0  0
  142.6120   79.1685  222.1405 H   0  0  0  0  0  0  0  0  0  0  0  0
  141.9451   76.8148  222.0034 H   0  0  0  0  0  0  0  0  0  0  0  0
  136.0067   69.7007  223.4744 H   0  0  0  0  0  0  0  0  0  0  0  0
  137.1943   68.3030  225.1857 H   0  0  0  0  0  0  0  0  0  0  0  0
  139.0848   67.9058  226.6505 H   0  0  0  0  0  0  0  0  0  0  0  0
  142.3090   70.7371  226.7327 H   0  0  0  0  0  0  0  0  0  0  0  0
  141.1621   72.1414  225.0449 H   0  0  0  0  0  0  0  0  0  0  0  0
  1  2  2  0
  2  3  1  0
  3  4  1  0
  4  5  1  0
  5  6  2  0
  5  7  1  0
  7  8  1  0
  8  9  1  0
  9 10  1  0
 10 11  1  0
 10 12  1  0
 12 13  1  0
 13 14  2  0
 14 15  1  0
 15 16  2  0
 16 17  1  0
 16 18  1  0
 18 19  2  0
  2 20  1  0
 20 21  2  0
 21 22  1  0
 22 23  2  0
 23 24  1  0
 24 25  2  0
 25 26  1  0
 25 27  1  0
 27 28  2  0
 28 29  1  0
 29 30  2  0
 12  7  1  0
 19 13  1  0
 30 20  1  0
 29 23  1  0
  3 31  1  0
  4 32  1  0
  4 33  1  0
  8 34  1  0
  8 35  1  0
  9 36  1  0
  9 37  1  0
 10 38  1  1
 11 39  1  0
 12 40  1  1
 14 41  1  0
 15 42  1  0
 18 43  1  0
 19 44  1  0
 21 45  1  0
 22 46  1  0
 24 47  1  0
 27 48  1  0
 28 49  1  0
M  END
>  <smiles>  (5) 
O=C(NCC(=O)N1CC[C@H](O)[C@H]1c1ccc(Cl)cc1)c1ccc2cc(F)ccc2n1

>  <score_type>  (5) 
oracle

>  <origin>  (5) 
autodockgpu

>  <m_score__min__energy>  (5) 
-8.7300000000000004

>  <m_primary>  (5) 
energy

>  <rmsd>  (5) 
2.8736511026816074

>  <m_score__min__rmsd>  (5) 
2.8736511026816074

>  <meeko>  (5) 
{"free_energy": -7.51, "intermolecular_energy": -9.3, "internal_energy": -2.94, "cluster_size": 36, "cluster_id": 1, "rank_in_cluster": 19}

>  <energy>  (5) 
-8.4

>  <cluster_rmsd>  (5) 
1.4

>  <cluster>  (5) 
1

$$$$

     RDKit          3D

 49 52  0  0  0  0  0  0  0  0999 V2000
  141.2830   72.2970  221.6790 O   0  0  0  0  0  0  0  0  0  0  0  0
  140.3390   72.4170  222.5330 C   0  0  0  0  0  0  0  0  0  0  0  0
  139.4360   73.4730  222.3450 N   0  0  0  0  0  0  0  0  0  0  0  0
  139.6440   74.3500  221.1940 C   0  0  0  0  0  0  0  0  0  0  0  0
  139.1570   75.7060  221.4940 C   0  0  0  0  0  0  0  0  0  0  0  0
  138.2570   75.8970  222.3600 O   0  0  0  0  0  0  0  0  0  0  0  0
  139.7120   76.8000  220.7950 N   0  0  0  0  0  0  0  0  0  0  0  0
  139.0190   77.9190  220.1540 C   0  0  0  0  0  0  0  0  0  0  0  0
  139.7520   78.0290  218.8440 C   0  0  0  0  0  0  0  0  0  0  0  0
  141.1040   77.3760  219.0760 C   0  0  2  0  0  0  0  0  0  0  0  0
  141.1290   76.1460  218.3860 O   0  0  0  0  0  0  0  0  0  0  0  0
  141.1340   77.0800  220.5410 C   0  0  1  0  0  0  0  0  0  0  0  0
  141.4820   78.2140  221.4010 C   0  0  0  0  0  0  0  0  0  0  0  0
  141.4300   78.0010  222.7830 C   0  0  0  0  0  0  0  0  0  0  0  0
  141.7540   79.0530  223.6460 C   0  0  0  0  0  0  0  0  0  0  0  0
  142.1220   80.2910  223.1790 C   0  0  0  0  0  0  0  0  0  0  0  0
  142.5320   81.6220  224.2480 Cl  0  0  0  0  0  0  0  0  0  0  0  0
  142.1760   80.5050  221.8170 C   0  0  0  0  0  0  0  0  0  0  0  0
  141.8520   79.4560  220.9880 C   0  0  0  0  0  0  0  0  0  0  0  0
  140.2200   71.4790  223.6550 C   0  0  0  0  0  0  0  0  0  0  0  0
  139.6270   70.2430  223.4160 C   0  0  0  0  0  0  0  0  0  0  0  0
  139.5460   69.4000  224.5200 C   0  0  0  0  0  0  0  0  0  0  0  0
  140.0200   69.7610  225.7650 C   0  0  0  0  0  0  0  0  0  0  0  0
  139.9330   68.9130  226.8570 C   0  0  0  0  0  0  0  0  0  0  0  0
  140.4190   69.3010  228.1090 C   0  0  0  0  0  0  0  0  0  0  0  0
  140.3160   68.4380  229.1630 F   0  0  0  0  0  0  0  0  0  0  0  0
  140.9890   70.5530  228.2300 C   0  0  0  0  0  0  0  0  0  0  0  0
  141.0920   71.4240  227.1670 C   0  0  0  0  0  0  0  0  0  0  0  0
  140.6010   71.0060  225.9450 C   0  0  0  0  0  0  0  0  0  0  0  0
  140.6780   71.8170  224.8770 N   0  0  0  0  0  0  0  0  0  0  0  0
  138.6390   73.6190  223.0180 H   0  0  0  0  0  0  0  0  0  0  0  0
  140.7178   74.3932  220.9594 H   0  0  0  0  0  0  0  0  0  0  0  0
  139.0874   73.9509  220.3333 H   0  0  0  0  0  0  0  0  0  0  0  0
  137.9536   77.6936  219.9986 H   0  0  0  0  0  0  0  0  0  0  0  0
  139.0274   78.8454  220.7471 H   0  0  0  0  0  0  0  0  0  0  0  0
  139.2019   77.5015  218.0508 H   0  0  0  0  0  0  0  0  0  0  0  0
  139.8555   79.0758  218.5223 H   0  0  0  0  0  0  0  0  0  0  0  0
  141.9423   78.0058  218.7434 H   0  0  0  0  0  0  0  0  0  0  0  0
  140.5710   76.1680  217.5930 H   0  0  0  0  0  0  0  0  0  0  0  0
  141.8797   76.3017  220.7604 H   0  0  0  0  0  0  0  0  0  0  0  0
  141.1383   77.0196  223.1853 H   0  0  0  0  0  0  0  0  0  0  0  0
  141.7128   78.8835  224.7321 H   0  0  0  0  0  0  0  0  0  0  0  0
  142.4687   81.4829  221.4072 H   0  0  0  0  0  0  0  0  0  0  0  0
  141.8957   79.6362  219.9037 H   0  0  0  0  0  0  0  0  0  0  0  0
  139.2490   69.9530  222.4245 H   0  0  0  0  0  0  0  0  0  0  0  0
  139.0868   68.4082  224.3958 H   0  0  0  0  0  0  0  0  0  0  0  0
  139.4749   67.9201  226.7372 H   0  0  0  0  0  0  0  0  0  0  0  0
  141.3751   70.8666  229.2111 H   0  0  0  0  0  0  0  0  0  0  0  0
  141.5491   72.4173  227.2872 H   0  0  0  0  0  0  0  0  0  0  0  0
  1  2  2  0
  2  3  1  0
  3  4  1  0
  4  5  1  0
  5  6  2  0
  5  7  1  0
  7  8  1  0
  8  9  1  0
  9 10  1  0
 10 11  1  0
 10 12  1  0
 12 13  1  0
 13 14  2  0
 14 15  1  0
 15 16  2  0
 16 17  1  0
 16 18  1  0
 18 19  2  0
  2 20  1  0
 20 21  2  0
 21 22  1  0
 22 23  2  0
 23 24  1  0
 24 25  2  0
 25 26  1  0
 25 27  1  0
 27 28  2  0
 28 29  1  0
 29 30  2  0
 12  7  1  0
 19 13  1  0
 30 20  1  0
 29 23  1  0
  3 31  1  0
  4 32  1  0
  4 33  1  0
  8 34  1  0
  8 35  1  0
  9 36  1  0
  9 37  1  0
 10 38  1  6
 11 39  1  0
 12 40  1  6
 14 41  1  0
 15 42  1  0
 18 43  1  0
 19 44  1  0
 21 45  1  0
 22 46  1  0
 24 47  1  0
 27 48  1  0
 28 49  1  0
M  END
>  <smiles>  (6) 
O=C(NCC(=O)N1CC[C@H](O)[C@H]1c1ccc(Cl)cc1)c1ccc2cc(F)ccc2n1

>  <score_type>  (6) 
oracle

>  <origin>  (6) 
autodockgpu

>  <m_score__min__energy>  (6) 
-8.7300000000000004

>  <m_primary>  (6) 
energy

>  <rmsd>  (6) 
1.9082842390687242

>  <m_score__min__rmsd>  (6) 
1.9082842390687242

>  <meeko>  (6) 
{"free_energy": -8.46, "intermolecular_energy": -10.25, "internal_energy": -1.61, "cluster_size": 36, "cluster_id": 1, "rank_in_cluster": 3}

>  <energy>  (6) 
-8.34

>  <cluster_rmsd>  (6) 
1.34

>  <cluster>  (6) 
1

$$$$

     RDKit          3D

 49 52  0  0  0  0  0  0  0  0999 V2000
  140.7700   72.0360  221.2770 O   0  0  0  0  0  0  0  0  0  0  0  0
  140.1110   72.4040  222.3090 C   0  0  0  0  0  0  0  0  0  0  0  0
  139.5140   73.6720  222.2680 N   0  0  0  0  0  0  0  0  0  0  0  0
  139.6900   74.4690  221.0550 C   0  0  0  0  0  0  0  0  0  0  0  0
  139.8510   75.8900  221.4000 C   0  0  0  0  0  0  0  0  0  0  0  0
  139.3370   76.3670  222.4500 O   0  0  0  0  0  0  0  0  0  0  0  0
  140.5950   76.7220  220.5340 N   0  0  0  0  0  0  0  0  0  0  0  0
  140.3260   77.0520  219.1330 C   0  0  0  0  0  0  0  0  0  0  0  0
  141.6930   76.9230  218.5160 C   0  0  0  0  0  0  0  0  0  0  0  0
  142.6760   77.0850  219.6620 C   0  0  2  0  0  0  0  0  0  0  0  0
  143.2560   75.8280  219.9340 O   0  0  0  0  0  0  0  0  0  0  0  0
  141.8300   77.4620  220.8350 C   0  0  1  0  0  0  0  0  0  0  0  0
  141.4470   78.8750  220.9010 C   0  0  0  0  0  0  0  0  0  0  0  0
  140.7040   79.2790  222.0160 C   0  0  0  0  0  0  0  0  0  0  0  0
  140.3160   80.6180  222.1260 C   0  0  0  0  0  0  0  0  0  0  0  0
  140.6400   81.5510  221.1720 C   0  0  0  0  0  0  0  0  0  0  0  0
  140.1600   83.2360  221.2940 Cl  0  0  0  0  0  0  0  0  0  0  0  0
  141.3730   81.1570  220.0710 C   0  0  0  0  0  0  0  0  0  0  0  0
  141.7440   79.8350  219.9850 C   0  0  0  0  0  0  0  0  0  0  0  0
  139.9950   71.5240  223.4770 C   0  0  0  0  0  0  0  0  0  0  0  0
  139.3300   70.3120  223.3220 C   0  0  0  0  0  0  0  0  0  0  0  0
  139.2560   69.5240  224.4660 C   0  0  0  0  0  0  0  0  0  0  0  0
  139.8020   69.9150  225.6710 C   0  0  0  0  0  0  0  0  0  0  0  0
  139.7210   69.1220  226.8050 C   0  0  0  0  0  0  0  0  0  0  0  0
  140.2810   69.5390  228.0160 C   0  0  0  0  0  0  0  0  0  0  0  0
  140.1810   68.7300  229.1120 F   0  0  0  0  0  0  0  0  0  0  0  0
  140.9190   70.7630  228.0550 C   0  0  0  0  0  0  0  0  0  0  0  0
  141.0190   71.5790  226.9480 C   0  0  0  0  0  0  0  0  0  0  0  0
  140.4530   71.1340  225.7690 C   0  0  0  0  0  0  0  0  0  0  0  0
  140.5240   71.8920  224.6620 N   0  0  0  0  0  0  0  0  0  0  0  0
  138.9590   74.0280  223.0900 H   0  0  0  0  0  0  0  0  0  0  0  0
  140.5853   74.1216  220.5186 H   0  0  0  0  0  0  0  0  0  0  0  0
  138.8015   74.3529  220.4170 H   0  0  0  0  0  0  0  0  0  0  0  0
  139.6157   76.3422  218.6840 H   0  0  0  0  0  0  0  0  0  0  0  0
  139.8650   78.0404  218.9896 H   0  0  0  0  0  0  0  0  0  0  0  0
  141.8105   75.9353  218.0463 H   0  0  0  0  0  0  0  0  0  0  0  0
  141.8571   77.6749  217.7300 H   0  0  0  0  0  0  0  0  0  0  0  0
  143.4657   77.8187  219.4426 H   0  0  0  0  0  0  0  0  0  0  0  0
  143.2020   75.6050  220.8760 H   0  0  0  0  0  0  0  0  0  0  0  0
  142.3624   77.2542  221.7749 H   0  0  0  0  0  0  0  0  0  0  0  0
  140.4289   78.5531  222.7954 H   0  0  0  0  0  0  0  0  0  0  0  0
  139.7332   80.9336  223.0039 H   0  0  0  0  0  0  0  0  0  0  0  0
  141.6517   81.8769  219.2874 H   0  0  0  0  0  0  0  0  0  0  0  0
  142.3280   79.5300  219.1041 H   0  0  0  0  0  0  0  0  0  0  0  0
  138.8933   69.9987  222.3622 H   0  0  0  0  0  0  0  0  0  0  0  0
  138.7429   68.5528  224.4076 H   0  0  0  0  0  0  0  0  0  0  0  0
  139.2085   68.1502  226.7512 H   0  0  0  0  0  0  0  0  0  0  0  0
  141.3635   71.0992  229.0034 H   0  0  0  0  0  0  0  0  0  0  0  0
  141.5317   72.5507  227.0018 H   0  0  0  0  0  0  0  0  0  0  0  0
  1  2  2  0
  2  3  1  0
  3  4  1  0
  4  5  1  0
  5  6  2  0
  5  7  1  0
  7  8  1  0
  8  9  1  0
  9 10  1  0
 10 11  1  0
 10 12  1  0
 12 13  1  0
 13 14  2  0
 14 15  1  0
 15 16  2  0
 16 17  1  0
 16 18  1  0
 18 19  2  0
  2 20  1  0
 20 21  2  0
 21 22  1  0
 22 23  2  0
 23 24  1  0
 24 25  2  0
 25 26  1  0
 25 27  1  0
 27 28  2  0
 28 29  1  0
 29 30  2  0
 12  7  1  0
 19 13  1  0
 30 20  1  0
 29 23  1  0
  3 31  1  0
  4 32  1  0
  4 33  1  0
  8 34  1  0
  8 35  1  0
  9 36  1  0
  9 37  1  0
 10 38  1  6
 11 39  1  0
 12 40  1  1
 14 41  1  0
 15 42  1  0
 18 43  1  0
 19 44  1  0
 21 45  1  0
 22 46  1  0
 24 47  1  0
 27 48  1  0
 28 49  1  0
M  END
>  <smiles>  (7) 
O=C(NCC(=O)N1CC[C@H](O)[C@H]1c1ccc(Cl)cc1)c1ccc2cc(F)ccc2n1

>  <score_type>  (7) 
oracle

>  <origin>  (7) 
autodockgpu

>  <m_score__min__energy>  (7) 
-8.7300000000000004

>  <m_primary>  (7) 
energy

>  <rmsd>  (7) 
1.996590030996914

>  <m_score__min__rmsd>  (7) 
1.996590030996914

>  <meeko>  (7) 
{"free_energy": -8.09, "intermolecular_energy": -9.88, "internal_energy": -1.55, "cluster_size": 36, "cluster_id": 1, "rank_in_cluster": 13}

>  <energy>  (7) 
-8.33

>  <cluster_rmsd>  (7) 
1.37

>  <cluster>  (7) 
1

$$$$

     RDKit          3D

 49 52  0  0  0  0  0  0  0  0999 V2000
  140.6810   72.4220  221.5160 O   0  0  0  0  0  0  0  0  0  0  0  0
  139.7980   72.4220  222.4410 C   0  0  0  0  0  0  0  0  0  0  0  0
  138.7560   73.3530  222.3310 N   0  0  0  0  0  0  0  0  0  0  0  0
  138.7610   74.2470  221.1740 C   0  0  0  0  0  0  0  0  0  0  0  0
  138.8440   75.6490  221.6160 C   0  0  0  0  0  0  0  0  0  0  0  0
  138.1580   76.0640  222.5920 O   0  0  0  0  0  0  0  0  0  0  0  0
  139.7050   76.5310  220.9280 N   0  0  0  0  0  0  0  0  0  0  0  0
  139.3600   77.5650  219.9500 C   0  0  0  0  0  0  0  0  0  0  0  0
  140.4080   77.3510  218.8910 C   0  0  0  0  0  0  0  0  0  0  0  0
  141.5520   76.6330  219.5860 C   0  0  2  0  0  0  0  0  0  0  0  0
  141.5780   75.2960  219.1370 O   0  0  0  0  0  0  0  0  0  0  0  0
  141.1690   76.6240  221.0300 C   0  0  1  0  0  0  0  0  0  0  0  0
  141.4450   77.8660  221.7580 C   0  0  0  0  0  0  0  0  0  0  0  0
  141.2220   77.8540  223.1390 C   0  0  0  0  0  0  0  0  0  0  0  0
  141.4710   79.0150  223.8780 C   0  0  0  0  0  0  0  0  0  0  0  0
  141.9290   80.1690  223.2900 C   0  0  0  0  0  0  0  0  0  0  0  0
  142.2460   81.6350  224.2030 Cl  0  0  0  0  0  0  0  0  0  0  0  0
  142.1510   80.1840  221.9280 C   0  0  0  0  0  0  0  0  0  0  0  0
  141.8990   79.0310  221.2230 C   0  0  0  0  0  0  0  0  0  0  0  0
  139.8870   71.4780  223.5600 C   0  0  0  0  0  0  0  0  0  0  0  0
  139.4710   70.1670  223.3490 C   0  0  0  0  0  0  0  0  0  0  0  0
  139.5810   69.3240  224.4490 C   0  0  0  0  0  0  0  0  0  0  0  0
  140.0690   69.7530  225.6660 C   0  0  0  0  0  0  0  0  0  0  0  0
  140.1750   68.9030  226.7560 C   0  0  0  0  0  0  0  0  0  0  0  0
  140.6710   69.3610  227.9800 C   0  0  0  0  0  0  0  0  0  0  0  0
  140.7600   68.4940  229.0310 F   0  0  0  0  0  0  0  0  0  0  0  0
  141.0560   70.6840  228.0760 C   0  0  0  0  0  0  0  0  0  0  0  0
  140.9650   71.5590  227.0150 C   0  0  0  0  0  0  0  0  0  0  0  0
  140.4700   71.0710  225.8210 C   0  0  0  0  0  0  0  0  0  0  0  0
  140.3620   71.8830  224.7560 N   0  0  0  0  0  0  0  0  0  0  0  0
  138.0000   73.3980  223.0630 H   0  0  0  0  0  0  0  0  0  0  0  0
  139.6282   74.0143  220.5386 H   0  0  0  0  0  0  0  0  0  0  0  0
  137.8302   74.1041  220.6055 H   0  0  0  0  0  0  0  0  0  0  0  0
  138.3475   77.4135  219.5476 H   0  0  0  0  0  0  0  0  0  0  0  0
  139.3482   78.5837  220.3649 H   0  0  0  0  0  0  0  0  0  0  0  0
  140.0073   76.7333  218.0738 H   0  0  0  0  0  0  0  0  0  0  0  0
  140.7357   78.3018  218.4453 H   0  0  0  0  0  0  0  0  0  0  0  0
  142.5270   77.1064  219.3984 H   0  0  0  0  0  0  0  0  0  0  0  0
  142.4410   74.8820  219.2940 H   0  0  0  0  0  0  0  0  0  0  0  0
  141.7180   75.8367  221.5674 H   0  0  0  0  0  0  0  0  0  0  0  0
  140.8559   76.9440  223.6368 H   0  0  0  0  0  0  0  0  0  0  0  0
  141.2946   79.0038  224.9637 H   0  0  0  0  0  0  0  0  0  0  0  0
  142.5179   81.0896  221.4226 H   0  0  0  0  0  0  0  0  0  0  0  0
  142.0792   79.0525  220.1381 H   0  0  0  0  0  0  0  0  0  0  0  0
  139.0823   69.8218  222.3796 H   0  0  0  0  0  0  0  0  0  0  0  0
  139.2669   68.2749  224.3450 H   0  0  0  0  0  0  0  0  0  0  0  0
  139.8642   67.8526  226.6562 H   0  0  0  0  0  0  0  0  0  0  0  0
  141.4498   71.0529  229.0346 H   0  0  0  0  0  0  0  0  0  0  0  0
  141.2757   72.6094  227.1154 H   0  0  0  0  0  0  0  0  0  0  0  0
  1  2  2  0
  2  3  1  0
  3  4  1  0
  4  5  1  0
  5  6  2  0
  5  7  1  0
  7  8  1  0
  8  9  1  0
  9 10  1  0
 10 11  1  0
 10 12  1  0
 12 13  1  0
 13 14  2  0
 14 15  1  0
 15 16  2  0
 16 17  1  0
 16 18  1  0
 18 19  2  0
  2 20  1  0
 20 21  2  0
 21 22  1  0
 22 23  2  0
 23 24  1  0
 24 25  2  0
 25 26  1  0
 25 27  1  0
 27 28  2  0
 28 29  1  0
 29 30  2  0
 12  7  1  0
 19 13  1  0
 30 20  1  0
 29 23  1  0
  3 31  1  0
  4 32  1  0
  4 33  1  0
  8 34  1  0
  8 35  1  0
  9 36  1  0
  9 37  1  0
 10 38  1  1
 11 39  1  0
 12 40  1  1
 14 41  1  0
 15 42  1  0
 18 43  1  0
 19 44  1  0
 21 45  1  0
 22 46  1  0
 24 47  1  0
 27 48  1  0
 28 49  1  0
M  END
>  <smiles>  (8) 
O=C(NCC(=O)N1CC[C@H](O)[C@H]1c1ccc(Cl)cc1)c1ccc2cc(F)ccc2n1

>  <score_type>  (8) 
oracle

>  <origin>  (8) 
autodockgpu

>  <m_score__min__energy>  (8) 
-8.7300000000000004

>  <m_primary>  (8) 
energy

>  <rmsd>  (8) 
1.8029104445120097

>  <m_score__min__rmsd>  (8) 
1.8029104445120097

>  <meeko>  (8) 
{"free_energy": -8.4, "intermolecular_energy": -10.19, "internal_energy": -1.44, "cluster_size": 36, "cluster_id": 1, "rank_in_cluster": 5}

>  <energy>  (8) 
-8.28

>  <cluster_rmsd>  (8) 
1.28

>  <cluster>  (8) 
1

$$$$

     RDKit          3D

 49 52  0  0  0  0  0  0  0  0999 V2000
  141.2280   72.2080  221.6820 O   0  0  0  0  0  0  0  0  0  0  0  0
  140.2970   72.3320  222.5490 C   0  0  0  0  0  0  0  0  0  0  0  0
  139.3960   73.3920  222.3750 N   0  0  0  0  0  0  0  0  0  0  0  0
  139.5920   74.2690  221.2220 C   0  0  0  0  0  0  0  0  0  0  0  0
  139.0790   75.6170  221.5150 C   0  0  0  0  0  0  0  0  0  0  0  0
  138.1290   75.7880  222.3290 O   0  0  0  0  0  0  0  0  0  0  0  0
  139.6680   76.7260  220.8690 N   0  0  0  0  0  0  0  0  0  0  0  0
  139.0070   77.8760  220.2480 C   0  0  0  0  0  0  0  0  0  0  0  0
  139.7770   78.0190  218.9630 C   0  0  0  0  0  0  0  0  0  0  0  0
  141.1130   77.3400  219.2090 C   0  0  2  0  0  0  0  0  0  0  0  0
  141.1410   76.1340  218.4780 O   0  0  0  0  0  0  0  0  0  0  0  0
  141.0990   76.9940  220.6620 C   0  0  1  0  0  0  0  0  0  0  0  0
  141.4390   78.0940  221.5700 C   0  0  0  0  0  0  0  0  0  0  0  0
  141.8520   79.2950  220.9830 C   0  0  0  0  0  0  0  0  0  0  0  0
  142.1860   80.3740  221.8080 C   0  0  0  0  0  0  0  0  0  0  0  0
  142.1230   80.2920  223.1780 C   0  0  0  0  0  0  0  0  0  0  0  0
  142.5400   81.6370  224.2270 Cl  0  0  0  0  0  0  0  0  0  0  0  0
  141.7160   79.1090  223.7600 C   0  0  0  0  0  0  0  0  0  0  0  0
  141.3920   78.0620  222.9290 C   0  0  0  0  0  0  0  0  0  0  0  0
  140.1890   71.3930  223.6720 C   0  0  0  0  0  0  0  0  0  0  0  0
  139.6060   70.1520  223.4360 C   0  0  0  0  0  0  0  0  0  0  0  0
  139.5350   69.3090  224.5400 C   0  0  0  0  0  0  0  0  0  0  0  0
  140.0090   69.6750  225.7830 C   0  0  0  0  0  0  0  0  0  0  0  0
  139.9330   68.8270  226.8770 C   0  0  0  0  0  0  0  0  0  0  0  0
  140.4190   69.2200  228.1270 C   0  0  0  0  0  0  0  0  0  0  0  0
  140.3270   68.3560  229.1810 F   0  0  0  0  0  0  0  0  0  0  0  0
  140.9800   70.4760  228.2450 C   0  0  0  0  0  0  0  0  0  0  0  0
  141.0730   71.3470  227.1810 C   0  0  0  0  0  0  0  0  0  0  0  0
  140.5810   70.9240  225.9610 C   0  0  0  0  0  0  0  0  0  0  0  0
  140.6480   71.7360  224.8920 N   0  0  0  0  0  0  0  0  0  0  0  0
  138.6090   73.5420  223.0580 H   0  0  0  0  0  0  0  0  0  0  0  0
  140.6657   74.3312  220.9913 H   0  0  0  0  0  0  0  0  0  0  0  0
  139.0458   73.8567  220.3608 H   0  0  0  0  0  0  0  0  0  0  0  0
  137.9434   77.6710  220.0565 H   0  0  0  0  0  0  0  0  0  0  0  0
  139.0111   78.7818  220.8721 H   0  0  0  0  0  0  0  0  0  0  0  0
  139.2420   77.5259  218.1380 H   0  0  0  0  0  0  0  0  0  0  0  0
  139.9031   79.0744  218.6797 H   0  0  0  0  0  0  0  0  0  0  0  0
  141.9682   77.9692  218.9212 H   0  0  0  0  0  0  0  0  0  0  0  0
  140.9910   75.3650  219.0490 H   0  0  0  0  0  0  0  0  0  0  0  0
  141.8278   76.1978  220.8739 H   0  0  0  0  0  0  0  0  0  0  0  0
  141.9132   79.3893  219.8888 H   0  0  0  0  0  0  0  0  0  0  0  0
  142.5094   81.3181  221.3453 H   0  0  0  0  0  0  0  0  0  0  0  0
  141.6527   79.0065  224.8534 H   0  0  0  0  0  0  0  0  0  0  0  0
  141.0687   77.1228  223.4017 H   0  0  0  0  0  0  0  0  0  0  0  0
  139.2278   69.8581  222.4458 H   0  0  0  0  0  0  0  0  0  0  0  0
  139.0841   68.3132  224.4175 H   0  0  0  0  0  0  0  0  0  0  0  0
  139.4835   67.8300  226.7595 H   0  0  0  0  0  0  0  0  0  0  0  0
  141.3671   70.7933  229.2245 H   0  0  0  0  0  0  0  0  0  0  0  0
  141.5230   72.3438  227.2988 H   0  0  0  0  0  0  0  0  0  0  0  0
  1  2  2  0
  2  3  1  0
  3  4  1  0
  4  5  1  0
  5  6  2  0
  5  7  1  0
  7  8  1  0
  8  9  1  0
  9 10  1  0
 10 11  1  0
 10 12  1  0
 12 13  1  0
 13 14  2  0
 14 15  1  0
 15 16  2  0
 16 17  1  0
 16 18  1  0
 18 19  2  0
  2 20  1  0
 20 21  2  0
 21 22  1  0
 22 23  2  0
 23 24  1  0
 24 25  2  0
 25 26  1  0
 25 27  1  0
 27 28  2  0
 28 29  1  0
 29 30  2  0
 12  7  1  0
 19 13  1  0
 30 20  1  0
 29 23  1  0
  3 31  1  0
  4 32  1  0
  4 33  1  0
  8 34  1  0
  8 35  1  0
  9 36  1  0
  9 37  1  0
 10 38  1  1
 11 39  1  0
 12 40  1  6
 14 41  1  0
 15 42  1  0
 18 43  1  0
 19 44  1  0
 21 45  1  0
 22 46  1  0
 24 47  1  0
 27 48  1  0
 28 49  1  0
M  END
>  <smiles>  (9) 
O=C(NCC(=O)N1CC[C@H](O)[C@H]1c1ccc(Cl)cc1)c1ccc2cc(F)ccc2n1

>  <score_type>  (9) 
oracle

>  <origin>  (9) 
autodockgpu

>  <m_score__min__energy>  (9) 
-8.7300000000000004

>  <m_primary>  (9) 
energy

>  <rmsd>  (9) 
1.956807155518992

>  <m_score__min__rmsd>  (9) 
1.956807155518992

>  <meeko>  (9) 
{"free_energy": -8.46, "intermolecular_energy": -10.25, "internal_energy": -1.56, "cluster_size": 36, "cluster_id": 1, "rank_in_cluster": 4}

>  <energy>  (9) 
-8.27

>  <cluster_rmsd>  (9) 
1.19

>  <cluster>  (9) 
1

$$$$

     RDKit          3D

 49 52  0  0  0  0  0  0  0  0999 V2000
  141.6630   78.0990  216.8160 O   0  0  0  0  0  0  0  0  0  0  0  0
  142.3400   77.8390  217.8690 C   0  0  0  0  0  0  0  0  0  0  0  0
  142.3680   78.8190  218.8710 N   0  0  0  0  0  0  0  0  0  0  0  0
  141.6250   80.0550  218.6340 C   0  0  0  0  0  0  0  0  0  0  0  0
  141.6390   80.8960  219.8430 C   0  0  0  0  0  0  0  0  0  0  0  0
  141.7860   82.1470  219.7620 O   0  0  0  0  0  0  0  0  0  0  0  0
  141.4860   80.2800  221.1040 N   0  0  0  0  0  0  0  0  0  0  0  0
  142.3100   80.4420  222.3040 C   0  0  0  0  0  0  0  0  0  0  0  0
  142.4600   79.0190  222.7710 C   0  0  0  0  0  0  0  0  0  0  0  0
  141.2940   78.2620  222.1590 C   0  0  2  0  0  0  0  0  0  0  0  0
  141.7910   77.4250  221.1380 O   0  0  0  0  0  0  0  0  0  0  0  0
  140.4530   79.3180  221.5180 C   0  0  1  0  0  0  0  0  0  0  0  0
  139.5640   80.0470  222.4270 C   0  0  0  0  0  0  0  0  0  0  0  0
  139.3570   79.4900  223.6940 C   0  0  0  0  0  0  0  0  0  0  0  0
  138.5170   80.1490  224.5970 C   0  0  0  0  0  0  0  0  0  0  0  0
  137.8870   81.3270  224.2790 C   0  0  0  0  0  0  0  0  0  0  0  0
  136.8290   82.1670  225.4020 Cl  0  0  0  0  0  0  0  0  0  0  0  0
  138.0890   81.8800  223.0320 C   0  0  0  0  0  0  0  0  0  0  0  0
  138.9190   81.2140  222.1610 C   0  0  0  0  0  0  0  0  0  0  0  0
  143.0500   76.5620  218.0060 C   0  0  0  0  0  0  0  0  0  0  0  0
  143.3560   75.8540  216.8480 C   0  0  0  0  0  0  0  0  0  0  0  0
  144.0300   74.6530  217.0460 C   0  0  0  0  0  0  0  0  0  0  0  0
  144.3720   74.1940  218.3010 C   0  0  0  0  0  0  0  0  0  0  0  0
  145.0440   72.9960  218.4870 C   0  0  0  0  0  0  0  0  0  0  0  0
  145.3790   72.5500  219.7680 C   0  0  0  0  0  0  0  0  0  0  0  0
  146.0410   71.3640  219.9110 F   0  0  0  0  0  0  0  0  0  0  0  0
  145.0250   73.3360  220.8470 C   0  0  0  0  0  0  0  0  0  0  0  0
  144.3570   74.5330  220.7020 C   0  0  0  0  0  0  0  0  0  0  0  0
  144.0420   74.9410  219.4210 C   0  0  0  0  0  0  0  0  0  0  0  0
  143.3920   76.1000  219.2250 N   0  0  0  0  0  0  0  0  0  0  0  0
  142.9100   78.6580  219.7600 H   0  0  0  0  0  0  0  0  0  0  0  0
  142.0905   80.6053  217.8031 H   0  0  0  0  0  0  0  0  0  0  0  0
  140.5837   79.8054  218.3821 H   0  0  0  0  0  0  0  0  0  0  0  0
  143.2856   80.8888  222.0622 H   0  0  0  0  0  0  0  0  0  0  0  0
  141.8719   81.1134  223.0571 H   0  0  0  0  0  0  0  0  0  0  0  0
  143.4153   78.5994  222.4225 H   0  0  0  0  0  0  0  0  0  0  0  0
  142.4588   78.9491  223.8688 H   0  0  0  0  0  0  0  0  0  0  0  0
  140.7451   77.6594  222.8976 H   0  0  0  0  0  0  0  0  0  0  0  0
  142.7530   77.3140  221.2020 H   0  0  0  0  0  0  0  0  0  0  0  0
  139.7975   78.8752  220.7537 H   0  0  0  0  0  0  0  0  0  0  0  0
  139.8482   78.5469  223.9756 H   0  0  0  0  0  0  0  0  0  0  0  0
  138.3559   79.7103  225.5928 H   0  0  0  0  0  0  0  0  0  0  0  0
  137.6021   82.8232  222.7434 H   0  0  0  0  0  0  0  0  0  0  0  0
  139.0737   81.6619  221.1683 H   0  0  0  0  0  0  0  0  0  0  0  0
  143.0842   76.2182  215.8463 H   0  0  0  0  0  0  0  0  0  0  0  0
  144.3003   74.0468  216.1688 H   0  0  0  0  0  0  0  0  0  0  0  0
  145.3177   72.3871  217.6127 H   0  0  0  0  0  0  0  0  0  0  0  0
  145.2857   72.9942  221.8595 H   0  0  0  0  0  0  0  0  0  0  0  0
  144.0843   75.1421  221.5765 H   0  0  0  0  0  0  0  0  0  0  0  0
  1  2  2  0
  2  3  1  0
  3  4  1  0
  4  5  1  0
  5  6  2  0
  5  7  1  0
  7  8  1  0
  8  9  1  0
  9 10  1  0
 10 11  1  0
 10 12  1  0
 12 13  1  0
 13 14  2  0
 14 15  1  0
 15 16  2  0
 16 17  1  0
 16 18  1  0
 18 19  2  0
  2 20  1  0
 20 21  2  0
 21 22  1  0
 22 23  2  0
 23 24  1  0
 24 25  2  0
 25 26  1  0
 25 27  1  0
 27 28  2  0
 28 29  1  0
 29 30  2  0
 12  7  1  0
 19 13  1  0
 30 20  1  0
 29 23  1  0
  3 31  1  0
  4 32  1  0
  4 33  1  0
  8 34  1  0
  8 35  1  0
  9 36  1  0
  9 37  1  0
 10 38  1  1
 11 39  1  0
 12 40  1  6
 14 41  1  0
 15 42  1  0
 18 43  1  0
 19 44  1  0
 21 45  1  0
 22 46  1  0
 24 47  1  0
 27 48  1  0
 28 49  1  0
M  END
>  <smiles>  (10) 
O=C(NCC(=O)N1CC[C@H](O)[C@H]1c1ccc(Cl)cc1)c1ccc2cc(F)ccc2n1

>  <score_type>  (10) 
oracle

>  <origin>  (10) 
autodockgpu

>  <m_score__min__energy>  (10) 
-8.7300000000000004

>  <m_primary>  (10) 
energy

>  <rmsd>  (10) 
8.22823713107296

>  <m_score__min__rmsd>  (10) 
8.22823713107296

>  <meeko>  (10) 
{"free_energy": -6.57, "intermolecular_energy": -8.36, "internal_energy": -2.79, "cluster_size": 1, "cluster_id": 9, "rank_in_cluster": 1}

>  <energy>  (10) 
-8.17

>  <cluster_rmsd>  (10) 
1.31

>  <cluster>  (10) 
1

$$$$

     RDKit          3D

 49 52  0  0  0  0  0  0  0  0999 V2000
  140.1460   71.5280  221.1840 O   0  0  0  0  0  0  0  0  0  0  0  0
  139.8670   71.9610  222.3550 C   0  0  0  0  0  0  0  0  0  0  0  0
  139.5340   73.3170  222.4730 N   0  0  0  0  0  0  0  0  0  0  0  0
  139.5320   74.1270  221.2560 C   0  0  0  0  0  0  0  0  0  0  0  0
  139.1410   75.5110  221.5670 C   0  0  0  0  0  0  0  0  0  0  0  0
  138.2840   75.7600  222.4610 O   0  0  0  0  0  0  0  0  0  0  0  0
  139.7420   76.5670  220.8470 N   0  0  0  0  0  0  0  0  0  0  0  0
  139.0930   77.6330  220.0810 C   0  0  0  0  0  0  0  0  0  0  0  0
  139.9310   77.6710  218.8320 C   0  0  0  0  0  0  0  0  0  0  0  0
  141.2640   77.0540  219.2150 C   0  0  2  0  0  0  0  0  0  0  0  0
  141.3590   75.7840  218.6090 O   0  0  0  0  0  0  0  0  0  0  0  0
  141.1760   76.8520  220.6920 C   0  0  1  0  0  0  0  0  0  0  0  0
  141.4420   78.0430  221.5040 C   0  0  0  0  0  0  0  0  0  0  0  0
  141.3020   77.9100  222.8900 C   0  0  0  0  0  0  0  0  0  0  0  0
  141.5450   79.0190  223.7070 C   0  0  0  0  0  0  0  0  0  0  0  0
  141.9160   80.2360  223.1920 C   0  0  0  0  0  0  0  0  0  0  0  0
  142.2240   81.6380  224.2040 Cl  0  0  0  0  0  0  0  0  0  0  0  0
  142.0550   80.3720  221.8260 C   0  0  0  0  0  0  0  0  0  0  0  0
  141.8110   79.2680  221.0420 C   0  0  0  0  0  0  0  0  0  0  0  0
  139.8980   71.0600  223.5120 C   0  0  0  0  0  0  0  0  0  0  0  0
  139.4350   69.7590  223.3450 C   0  0  0  0  0  0  0  0  0  0  0  0
  139.4920   68.9570  224.4800 C   0  0  0  0  0  0  0  0  0  0  0  0
  139.9730   69.4160  225.6880 C   0  0  0  0  0  0  0  0  0  0  0  0
  140.0250   68.6070  226.8130 C   0  0  0  0  0  0  0  0  0  0  0  0
  140.5160   69.0950  228.0270 C   0  0  0  0  0  0  0  0  0  0  0  0
  140.5520   68.2680  229.1130 F   0  0  0  0  0  0  0  0  0  0  0  0
  140.9510   70.4050  228.0780 C   0  0  0  0  0  0  0  0  0  0  0  0
  140.9150   71.2390  226.9820 C   0  0  0  0  0  0  0  0  0  0  0  0
  140.4220   70.7220  225.7990 C   0  0  0  0  0  0  0  0  0  0  0  0
  140.3660   71.4940  224.7000 N   0  0  0  0  0  0  0  0  0  0  0  0
  139.2940   73.7280  223.4130 H   0  0  0  0  0  0  0  0  0  0  0  0
  140.5403   74.1244  220.8162 H   0  0  0  0  0  0  0  0  0  0  0  0
  138.8101   73.7018  220.5432 H   0  0  0  0  0  0  0  0  0  0  0  0
  138.0465   77.3820  219.8533 H   0  0  0  0  0  0  0  0  0  0  0  0
  139.0426   78.5949  220.6122 H   0  0  0  0  0  0  0  0  0  0  0  0
  139.4535   77.0869  218.0315 H   0  0  0  0  0  0  0  0  0  0  0  0
  140.0513   78.6970  218.4540 H   0  0  0  0  0  0  0  0  0  0  0  0
  142.1208   77.6739  218.9125 H   0  0  0  0  0  0  0  0  0  0  0  0
  141.9240   75.8040  217.8200 H   0  0  0  0  0  0  0  0  0  0  0  0
  141.9087   76.1003  221.0207 H   0  0  0  0  0  0  0  0  0  0  0  0
  141.0050   76.9469  223.3307 H   0  0  0  0  0  0  0  0  0  0  0  0
  141.4353   78.9125  224.7963 H   0  0  0  0  0  0  0  0  0  0  0  0
  142.3513   81.3321  221.3782 H   0  0  0  0  0  0  0  0  0  0  0  0
  141.9234   79.3854  219.9541 H   0  0  0  0  0  0  0  0  0  0  0  0
  139.0506   69.3902  222.3826 H   0  0  0  0  0  0  0  0  0  0  0  0
  139.1400   67.9171  224.4113 H   0  0  0  0  0  0  0  0  0  0  0  0
  139.6747   67.5662  226.7490 H   0  0  0  0  0  0  0  0  0  0  0  0
  141.3407   70.7969  229.0291 H   0  0  0  0  0  0  0  0  0  0  0  0
  141.2662   72.2794  227.0463 H   0  0  0  0  0  0  0  0  0  0  0  0
  1  2  2  0
  2  3  1  0
  3  4  1  0
  4  5  1  0
  5  6  2  0
  5  7  1  0
  7  8  1  0
  8  9  1  0
  9 10  1  0
 10 11  1  0
 10 12  1  0
 12 13  1  0
 13 14  2  0
 14 15  1  0
 15 16  2  0
 16 17  1  0
 16 18  1  0
 18 19  2  0
  2 20  1  0
 20 21  2  0
 21 22  1  0
 22 23  2  0
 23 24  1  0
 24 25  2  0
 25 26  1  0
 25 27  1  0
 27 28  2  0
 28 29  1  0
 29 30  2  0
 12  7  1  0
 19 13  1  0
 30 20  1  0
 29 23  1  0
  3 31  1  0
  4 32  1  0
  4 33  1  0
  8 34  1  0
  8 35  1  0
  9 36  1  0
  9 37  1  0
 10 38  1  1
 11 39  1  0
 12 40  1  1
 14 41  1  0
 15 42  1  0
 18 43  1  0
 19 44  1  0
 21 45  1  0
 22 46  1  0
 24 47  1  0
 27 48  1  0
 28 49  1  0
M  END
>  <smiles>  (11) 
O=C(NCC(=O)N1CC[C@H](O)[C@H]1c1ccc(Cl)cc1)c1ccc2cc(F)ccc2n1

>  <score_type>  (11) 
oracle

>  <origin>  (11) 
autodockgpu

>  <m_score__min__energy>  (11) 
-8.7300000000000004

>  <m_primary>  (11) 
energy

>  <rmsd>  (11) 
1.687095275516744

>  <m_score__min__rmsd>  (11) 
1.687095275516744

>  <meeko>  (11) 
{"free_energy": -8.17, "intermolecular_energy": -9.96, "internal_energy": -1.61, "cluster_size": 36, "cluster_id": 1, "rank_in_cluster": 10}

>  <energy>  (11) 
-8.12

>  <cluster_rmsd>  (11) 
1.3

>  <cluster>  (11) 
1

$$$$

     RDKit          3D

 49 52  0  0  0  0  0  0  0  0999 V2000
  136.0070   71.5490  221.7130 O   0  0  0  0  0  0  0  0  0  0  0  0
  136.9050   72.0350  222.4830 C   0  0  0  0  0  0  0  0  0  0  0  0
  137.1990   73.3980  222.3440 N   0  0  0  0  0  0  0  0  0  0  0  0
  136.4600   74.1540  221.3340 C   0  0  0  0  0  0  0  0  0  0  0  0
  137.0090   75.5150  221.2150 C   0  0  0  0  0  0  0  0  0  0  0  0
  136.2470   76.5160  221.1120 O   0  0  0  0  0  0  0  0  0  0  0  0
  138.4110   75.6870  221.2160 N   0  0  0  0  0  0  0  0  0  0  0  0
  139.3110   75.8470  220.0720 C   0  0  0  0  0  0  0  0  0  0  0  0
  140.4510   74.9390  220.4470 C   0  0  0  0  0  0  0  0  0  0  0  0
  140.3780   74.7910  221.9560 C   0  0  2  0  0  0  0  0  0  0  0  0
  139.9330   73.4870  222.2560 O   0  0  0  0  0  0  0  0  0  0  0  0
  139.3110   75.7480  222.3780 C   0  0  1  0  0  0  0  0  0  0  0  0
  139.7330   77.1470  222.4880 C   0  0  0  0  0  0  0  0  0  0  0  0
  141.1050   77.4040  222.3990 C   0  0  0  0  0  0  0  0  0  0  0  0
  141.5570   78.7240  222.4980 C   0  0  0  0  0  0  0  0  0  0  0  0
  140.6960   79.7780  222.6810 C   0  0  0  0  0  0  0  0  0  0  0  0
  141.2470   81.4400  222.8080 Cl  0  0  0  0  0  0  0  0  0  0  0  0
  139.3420   79.5290  222.7690 C   0  0  0  0  0  0  0  0  0  0  0  0
  138.9210   78.2230  222.6690 C   0  0  0  0  0  0  0  0  0  0  0  0
  137.5860   71.1860  223.4670 C   0  0  0  0  0  0  0  0  0  0  0  0
  136.9600   70.0080  223.8630 C   0  0  0  0  0  0  0  0  0  0  0  0
  137.6580   69.2490  224.7960 C   0  0  0  0  0  0  0  0  0  0  0  0
  138.8860   69.6330  225.2950 C   0  0  0  0  0  0  0  0  0  0  0  0
  139.5720   68.8690  226.2250 C   0  0  0  0  0  0  0  0  0  0  0  0
  140.8150   69.2790  226.7180 C   0  0  0  0  0  0  0  0  0  0  0  0
  141.4610   68.4990  227.6330 F   0  0  0  0  0  0  0  0  0  0  0  0
  141.3420   70.4670  226.2520 C   0  0  0  0  0  0  0  0  0  0  0  0
  140.6890   71.2550  225.3290 C   0  0  0  0  0  0  0  0  0  0  0  0
  139.4630   70.8170  224.8650 C   0  0  0  0  0  0  0  0  0  0  0  0
  138.7860   71.5480  223.9630 N   0  0  0  0  0  0  0  0  0  0  0  0
  137.9290   73.8520  222.9520 H   0  0  0  0  0  0  0  0  0  0  0  0
  136.5436   73.6424  220.3638 H   0  0  0  0  0  0  0  0  0  0  0  0
  135.4039   74.2180  221.6350 H   0  0  0  0  0  0  0  0  0  0  0  0
  138.8315   75.5223  219.1368 H   0  0  0  0  0  0  0  0  0  0  0  0
  139.6137   76.8880  219.8858 H   0  0  0  0  0  0  0  0  0  0  0  0
  140.3376   73.9595  219.9595 H   0  0  0  0  0  0  0  0  0  0  0  0
  141.4197   75.3490  220.1254 H   0  0  0  0  0  0  0  0  0  0  0  0
  141.3448   74.9749  222.4474 H   0  0  0  0  0  0  0  0  0  0  0  0
  139.4880   73.4500  223.1180 H   0  0  0  0  0  0  0  0  0  0  0  0
  138.9225   75.4765  223.3707 H   0  0  0  0  0  0  0  0  0  0  0  0
  141.8185   76.5796  222.2532 H   0  0  0  0  0  0  0  0  0  0  0  0
  142.6363   78.9241  222.4270 H   0  0  0  0  0  0  0  0  0  0  0  0
  138.6223   80.3481  222.9144 H   0  0  0  0  0  0  0  0  0  0  0  0
  137.8398   78.0337  222.7413 H   0  0  0  0  0  0  0  0  0  0  0  0
  135.9818   69.6989  223.4660 H   0  0  0  0  0  0  0  0  0  0  0  0
  137.2144   68.3066  225.1498 H   0  0  0  0  0  0  0  0  0  0  0  0
  139.1325   67.9256  226.5811 H   0  0  0  0  0  0  0  0  0  0  0  0
  142.3201   70.7971  226.6318 H   0  0  0  0  0  0  0  0  0  0  0  0
  141.1280   72.1991  224.9741 H   0  0  0  0  0  0  0  0  0  0  0  0
  1  2  2  0
  2  3  1  0
  3  4  1  0
  4  5  1  0
  5  6  2  0
  5  7  1  0
  7  8  1  0
  8  9  1  0
  9 10  1  0
 10 11  1  0
 10 12  1  0
 12 13  1  0
 13 14  2  0
 14 15  1  0
 15 16  2  0
 16 17  1  0
 16 18  1  0
 18 19  2  0
  2 20  1  0
 20 21  2  0
 21 22  1  0
 22 23  2  0
 23 24  1  0
 24 25  2  0
 25 26  1  0
 25 27  1  0
 27 28  2  0
 28 29  1  0
 29 30  2  0
 12  7  1  0
 19 13  1  0
 30 20  1  0
 29 23  1  0
  3 31  1  0
  4 32  1  0
  4 33  1  0
  8 34  1  0
  8 35  1  0
  9 36  1  0
  9 37  1  0
 10 38  1  1
 11 39  1  0
 12 40  1  1
 14 41  1  0
 15 42  1  0
 18 43  1  0
 19 44  1  0
 21 45  1  0
 22 46  1  0
 24 47  1  0
 27 48  1  0
 28 49  1  0
M  END
>  <smiles>  (12) 
O=C(NCC(=O)N1CC[C@H](O)[C@H]1c1ccc(Cl)cc1)c1ccc2cc(F)ccc2n1

>  <score_type>  (12) 
oracle

>  <origin>  (12) 
autodockgpu

>  <m_score__min__energy>  (12) 
-8.7300000000000004

>  <m_primary>  (12) 
energy

>  <rmsd>  (12) 
2.9187609867299877

>  <m_score__min__rmsd>  (12) 
2.9187609867299877

>  <meeko>  (12) 
{"free_energy": -7.48, "intermolecular_energy": -9.27, "internal_energy": -2.97, "cluster_size": 36, "cluster_id": 1, "rank_in_cluster": 21}

>  <energy>  (12) 
-8.12

>  <cluster_rmsd>  (12) 
1.32

>  <cluster>  (12) 
1

$$$$

     RDKit          3D

 49 52  0  0  0  0  0  0  0  0999 V2000
  139.9470   73.7240  222.6120 O   0  0  0  0  0  0  0  0  0  0  0  0
  139.9170   72.4600  222.4170 C   0  0  0  0  0  0  0  0  0  0  0  0
  139.8890   72.0190  221.0860 N   0  0  0  0  0  0  0  0  0  0  0  0
  139.8970   73.0330  220.0330 C   0  0  0  0  0  0  0  0  0  0  0  0
  141.2460   73.6020  219.8850 C   0  0  0  0  0  0  0  0  0  0  0  0
  142.2740   72.9140  220.1420 O   0  0  0  0  0  0  0  0  0  0  0  0
  141.3790   74.9380  219.4490 N   0  0  0  0  0  0  0  0  0  0  0  0
  140.5200   75.6870  218.5290 C   0  0  0  0  0  0  0  0  0  0  0  0
  141.5310   76.3810  217.6570 C   0  0  0  0  0  0  0  0  0  0  0  0
  142.8130   76.4250  218.4710 C   0  0  2  0  0  0  0  0  0  0  0  0
  143.7310   75.5150  217.9070 O   0  0  0  0  0  0  0  0  0  0  0  0
  142.4220   75.9070  219.8170 C   0  0  1  0  0  0  0  0  0  0  0  0
  141.7740   76.8820  220.6990 C   0  0  0  0  0  0  0  0  0  0  0  0
  141.0250   76.3730  221.7650 C   0  0  0  0  0  0  0  0  0  0  0  0
  140.3870   77.2640  222.6350 C   0  0  0  0  0  0  0  0  0  0  0  0
  140.4730   78.6250  222.4750 C   0  0  0  0  0  0  0  0  0  0  0  0
  139.6790   79.7570  223.5570 Cl  0  0  0  0  0  0  0  0  0  0  0  0
  141.2110   79.1310  221.4250 C   0  0  0  0  0  0  0  0  0  0  0  0
  141.8290   78.2360  220.5830 C   0  0  0  0  0  0  0  0  0  0  0  0
  139.9130   71.5270  223.5490 C   0  0  0  0  0  0  0  0  0  0  0  0
  139.3580   70.2650  223.3570 C   0  0  0  0  0  0  0  0  0  0  0  0
  139.3860   69.4290  224.4690 C   0  0  0  0  0  0  0  0  0  0  0  0
  139.9260   69.8200  225.6770 C   0  0  0  0  0  0  0  0  0  0  0  0
  139.9480   68.9780  226.7780 C   0  0  0  0  0  0  0  0  0  0  0  0
  140.4990   69.3970  227.9920 C   0  0  0  0  0  0  0  0  0  0  0  0
  140.5030   68.5390  229.0550 F   0  0  0  0  0  0  0  0  0  0  0  0
  141.0220   70.6730  228.0680 C   0  0  0  0  0  0  0  0  0  0  0  0
  141.0170   71.5380  226.9950 C   0  0  0  0  0  0  0  0  0  0  0  0
  140.4640   71.0890  225.8110 C   0  0  0  0  0  0  0  0  0  0  0  0
  140.4360   71.8950  224.7360 N   0  0  0  0  0  0  0  0  0  0  0  0
  139.8640   70.9890  220.8660 H   0  0  0  0  0  0  0  0  0  0  0  0
  139.5909   72.5719  219.0824 H   0  0  0  0  0  0  0  0  0  0  0  0
  139.1964   73.8367  220.3036 H   0  0  0  0  0  0  0  0  0  0  0  0
  139.8798   75.0130  217.9409 H   0  0  0  0  0  0  0  0  0  0  0  0
  139.8211   76.3720  219.0313 H   0  0  0  0  0  0  0  0  0  0  0  0
  141.6868   75.8162  216.7260 H   0  0  0  0  0  0  0  0  0  0  0  0
  141.1967   77.3890  217.3703 H   0  0  0  0  0  0  0  0  0  0  0  0
  143.2602   77.4294  218.5054 H   0  0  0  0  0  0  0  0  0  0  0  0
  144.6280   75.8830  217.8780 H   0  0  0  0  0  0  0  0  0  0  0  0
  143.3089   75.5553  220.3645 H   0  0  0  0  0  0  0  0  0  0  0  0
  140.9387   75.2870  221.9173 H   0  0  0  0  0  0  0  0  0  0  0  0
  139.7985   76.8618  223.4728 H   0  0  0  0  0  0  0  0  0  0  0  0
  141.3023   80.2156  221.2662 H   0  0  0  0  0  0  0  0  0  0  0  0
  142.4150   78.6486  219.7485 H   0  0  0  0  0  0  0  0  0  0  0  0
  138.9278   69.9509  222.3946 H   0  0  0  0  0  0  0  0  0  0  0  0
  138.9615   68.4180  224.3817 H   0  0  0  0  0  0  0  0  0  0  0  0
  139.5258   67.9657  226.6949 H   0  0  0  0  0  0  0  0  0  0  0  0
  141.4584   71.0112  229.0194 H   0  0  0  0  0  0  0  0  0  0  0  0
  141.4386   72.5506  227.0783 H   0  0  0  0  0  0  0  0  0  0  0  0
  1  2  2  0
  2  3  1  0
  3  4  1  0
  4  5  1  0
  5  6  2  0
  5  7  1  0
  7  8  1  0
  8  9  1  0
  9 10  1  0
 10 11  1  0
 10 12  1  0
 12 13  1  0
 13 14  2  0
 14 15  1  0
 15 16  2  0
 16 17  1  0
 16 18  1  0
 18 19  2  0
  2 20  1  0
 20 21  2  0
 21 22  1  0
 22 23  2  0
 23 24  1  0
 24 25  2  0
 25 26  1  0
 25 27  1  0
 27 28  2  0
 28 29  1  0
 29 30  2  0
 12  7  1  0
 19 13  1  0
 30 20  1  0
 29 23  1  0
  3 31  1  0
  4 32  1  0
  4 33  1  0
  8 34  1  0
  8 35  1  0
  9 36  1  0
  9 37  1  0
 10 38  1  1
 11 39  1  0
 12 40  1  1
 14 41  1  0
 15 42  1  0
 18 43  1  0
 19 44  1  0
 21 45  1  0
 22 46  1  0
 24 47  1  0
 27 48  1  0
 28 49  1  0
M  END
>  <smiles>  (13) 
O=C(NCC(=O)N1CC[C@H](O)[C@H]1c1ccc(Cl)cc1)c1ccc2cc(F)ccc2n1

>  <score_type>  (13) 
oracle

>  <origin>  (13) 
autodockgpu

>  <m_score__min__energy>  (13) 
-8.7300000000000004

>  <m_primary>  (13) 
energy

>  <rmsd>  (13) 
1.8006322023572485

>  <m_score__min__rmsd>  (13) 
1.8006322023572485

>  <meeko>  (13) 
{"free_energy": -8.07, "intermolecular_energy": -9.86, "internal_energy": -1.51, "cluster_size": 3, "cluster_id": 2, "rank_in_cluster": 3}

>  <energy>  (13) 
-8.09

>  <cluster_rmsd>  (13) 
1.94

>  <cluster>  (13) 
1

$$$$

     RDKit          3D

 49 52  0  0  0  0  0  0  0  0999 V2000
  140.5840   72.7170  221.7880 O   0  0  0  0  0  0  0  0  0  0  0  0
  139.6140   72.4570  222.5790 C   0  0  0  0  0  0  0  0  0  0  0  0
  138.4030   73.1260  222.3510 N   0  0  0  0  0  0  0  0  0  0  0  0
  138.3460   74.0640  221.2310 C   0  0  0  0  0  0  0  0  0  0  0  0
  138.5940   75.4360  221.7040 C   0  0  0  0  0  0  0  0  0  0  0  0
  137.9510   75.9120  222.6810 O   0  0  0  0  0  0  0  0  0  0  0  0
  139.5680   76.2180  221.0470 N   0  0  0  0  0  0  0  0  0  0  0  0
  139.3840   77.1700  219.9490 C   0  0  0  0  0  0  0  0  0  0  0  0
  140.5330   76.8210  219.0410 C   0  0  0  0  0  0  0  0  0  0  0  0
  141.5560   76.1270  219.9230 C   0  0  2  0  0  0  0  0  0  0  0  0
  141.5680   74.7540  219.5980 O   0  0  0  0  0  0  0  0  0  0  0  0
  141.0140   76.2650  221.3090 C   0  0  1  0  0  0  0  0  0  0  0  0
  141.2660   77.5570  221.9530 C   0  0  0  0  0  0  0  0  0  0  0  0
  141.9040   78.5360  221.1830 C   0  0  0  0  0  0  0  0  0  0  0  0
  142.1650   79.7860  221.7530 C   0  0  0  0  0  0  0  0  0  0  0  0
  141.8160   80.0840  223.0480 C   0  0  0  0  0  0  0  0  0  0  0  0
  142.1370   81.6480  223.7790 Cl  0  0  0  0  0  0  0  0  0  0  0  0
  141.1870   79.1220  223.8100 C   0  0  0  0  0  0  0  0  0  0  0  0
  140.9400   77.9000  223.2280 C   0  0  0  0  0  0  0  0  0  0  0  0
  139.7790   71.4940  223.6740 C   0  0  0  0  0  0  0  0  0  0  0  0
  139.4320   70.1670  223.4400 C   0  0  0  0  0  0  0  0  0  0  0  0
  139.6120   69.3060  224.5170 C   0  0  0  0  0  0  0  0  0  0  0  0
  140.1010   69.7340  225.7340 C   0  0  0  0  0  0  0  0  0  0  0  0
  140.2770   68.8670  226.8010 C   0  0  0  0  0  0  0  0  0  0  0  0
  140.7720   69.3240  228.0260 C   0  0  0  0  0  0  0  0  0  0  0  0
  140.9320   68.4400  229.0540 F   0  0  0  0  0  0  0  0  0  0  0  0
  141.0850   70.6640  228.1460 C   0  0  0  0  0  0  0  0  0  0  0  0
  140.9230   71.5560  227.1080 C   0  0  0  0  0  0  0  0  0  0  0  0
  140.4300   71.0680  225.9130 C   0  0  0  0  0  0  0  0  0  0  0  0
  140.2550   71.8970  224.8700 N   0  0  0  0  0  0  0  0  0  0  0  0
  137.5700   72.9500  222.9710 H   0  0  0  0  0  0  0  0  0  0  0  0
  139.1113   73.7914  220.4894 H   0  0  0  0  0  0  0  0  0  0  0  0
  137.3466   74.0170  220.7739 H   0  0  0  0  0  0  0  0  0  0  0  0
  138.4170   77.0197  219.4467 H   0  0  0  0  0  0  0  0  0  0  0  0
  139.3740   78.2222  220.2695 H   0  0  0  0  0  0  0  0  0  0  0  0
  140.1974   76.1469  218.2391 H   0  0  0  0  0  0  0  0  0  0  0  0
  140.9537   77.7142  218.5560 H   0  0  0  0  0  0  0  0  0  0  0  0
  142.5675   76.5440  219.8086 H   0  0  0  0  0  0  0  0  0  0  0  0
  141.2550   74.2090  220.3370 H   0  0  0  0  0  0  0  0  0  0  0  0
  141.4613   75.5104  221.9727 H   0  0  0  0  0  0  0  0  0  0  0  0
  142.1962   78.3252  220.1437 H   0  0  0  0  0  0  0  0  0  0  0  0
  142.6653   80.5546  221.1456 H   0  0  0  0  0  0  0  0  0  0  0  0
  140.8921   79.3252  224.8501 H   0  0  0  0  0  0  0  0  0  0  0  0
  140.4383   77.1390  223.8437 H   0  0  0  0  0  0  0  0  0  0  0  0
  139.0424   69.8230  222.4705 H   0  0  0  0  0  0  0  0  0  0  0  0
  139.3548   68.2436  224.3940 H   0  0  0  0  0  0  0  0  0  0  0  0
  140.0233   67.8033  226.6821 H   0  0  0  0  0  0  0  0  0  0  0  0
  141.4779   71.0326  229.1050 H   0  0  0  0  0  0  0  0  0  0  0  0
  141.1774   72.6196  227.2267 H   0  0  0  0  0  0  0  0  0  0  0  0
  1  2  2  0
  2  3  1  0
  3  4  1  0
  4  5  1  0
  5  6  2  0
  5  7  1  0
  7  8  1  0
  8  9  1  0
  9 10  1  0
 10 11  1  0
 10 12  1  0
 12 13  1  0
 13 14  2  0
 14 15  1  0
 15 16  2  0
 16 17  1  0
 16 18  1  0
 18 19  2  0
  2 20  1  0
 20 21  2  0
 21 22  1  0
 22 23  2  0
 23 24  1  0
 24 25  2  0
 25 26  1  0
 25 27  1  0
 27 28  2  0
 28 29  1  0
 29 30  2  0
 12  7  1  0
 19 13  1  0
 30 20  1  0
 29 23  1  0
  3 31  1  0
  4 32  1  0
  4 33  1  0
  8 34  1  0
  8 35  1  0
  9 36  1  0
  9 37  1  0
 10 38  1  1
 11 39  1  0
 12 40  1  1
 14 41  1  0
 15 42  1  0
 18 43  1  0
 19 44  1  0
 21 45  1  0
 22 46  1  0
 24 47  1  0
 27 48  1  0
 28 49  1  0
M  END
>  <smiles>  (14) 
O=C(NCC(=O)N1CC[C@H](O)[C@H]1c1ccc(Cl)cc1)c1ccc2cc(F)ccc2n1

>  <score_type>  (14) 
oracle

>  <origin>  (14) 
autodockgpu

>  <m_score__min__energy>  (14) 
-8.7300000000000004

>  <m_primary>  (14) 
energy

>  <rmsd>  (14) 
1.868130600901292

>  <m_score__min__rmsd>  (14) 
1.868130600901292

>  <meeko>  (14) 
{"free_energy": -8.03, "intermolecular_energy": -9.82, "internal_energy": -2.03, "cluster_size": 36, "cluster_id": 1, "rank_in_cluster": 14}

>  <energy>  (14) 
-8.03

>  <cluster_rmsd>  (14) 
1.32

>  <cluster>  (14) 
1

$$$$

     RDKit          3D

 49 52  0  0  0  0  0  0  0  0999 V2000
  139.9510   70.9930  221.4650 O   0  0  0  0  0  0  0  0  0  0  0  0
  139.4120   71.4720  222.5210 C   0  0  0  0  0  0  0  0  0  0  0  0
  138.3940   72.4210  222.3460 N   0  0  0  0  0  0  0  0  0  0  0  0
  138.0320   72.7860  220.9780 C   0  0  0  0  0  0  0  0  0  0  0  0
  138.0050   74.2510  220.8330 C   0  0  0  0  0  0  0  0  0  0  0  0
  136.9110   74.8730  220.7260 O   0  0  0  0  0  0  0  0  0  0  0  0
  139.2280   74.9570  220.8140 N   0  0  0  0  0  0  0  0  0  0  0  0
  139.8530   75.6680  219.6980 C   0  0  0  0  0  0  0  0  0  0  0  0
  141.2880   75.2290  219.8160 C   0  0  0  0  0  0  0  0  0  0  0  0
  141.4630   74.7850  221.2580 C   0  0  2  0  0  0  0  0  0  0  0  0
  141.5810   73.3790  221.2800 O   0  0  0  0  0  0  0  0  0  0  0  0
  140.1750   75.1480  221.9230 C   0  0  1  0  0  0  0  0  0  0  0  0
  140.0510   76.5520  222.3220 C   0  0  0  0  0  0  0  0  0  0  0  0
  138.7560   77.0760  222.4060 C   0  0  0  0  0  0  0  0  0  0  0  0
  138.5860   78.4120  222.7840 C   0  0  0  0  0  0  0  0  0  0  0  0
  139.6510   79.2280  223.0750 C   0  0  0  0  0  0  0  0  0  0  0  0
  139.4550   80.9070  223.5500 Cl  0  0  0  0  0  0  0  0  0  0  0  0
  140.9300   78.7150  222.9940 C   0  0  0  0  0  0  0  0  0  0  0  0
  141.0720   77.3990  222.6200 C   0  0  0  0  0  0  0  0  0  0  0  0
  139.8520   71.0350  223.8500 C   0  0  0  0  0  0  0  0  0  0  0  0
  140.6780   71.8830  224.5800 C   0  0  0  0  0  0  0  0  0  0  0  0
  141.0580   71.4100  225.8320 C   0  0  0  0  0  0  0  0  0  0  0  0
  140.6470   70.1870  226.3180 C   0  0  0  0  0  0  0  0  0  0  0  0
  141.0320   69.7260  227.5670 C   0  0  0  0  0  0  0  0  0  0  0  0
  140.6030   68.4810  228.0380 C   0  0  0  0  0  0  0  0  0  0  0  0
  141.0040   68.0610  229.2740 F   0  0  0  0  0  0  0  0  0  0  0  0
  139.7830   67.7220  227.2270 C   0  0  0  0  0  0  0  0  0  0  0  0
  139.3800   68.1470  225.9800 C   0  0  0  0  0  0  0  0  0  0  0  0
  139.8240   69.3820  225.5480 C   0  0  0  0  0  0  0  0  0  0  0  0
  139.4580   69.8420  224.3390 N   0  0  0  0  0  0  0  0  0  0  0  0
  137.9140   72.8490  223.1810 H   0  0  0  0  0  0  0  0  0  0  0  0
  138.7725   72.3655  220.2817 H   0  0  0  0  0  0  0  0  0  0  0  0
  137.0333   72.3844  220.7516 H   0  0  0  0  0  0  0  0  0  0  0  0
  139.4187   75.3618  218.7349 H   0  0  0  0  0  0  0  0  0  0  0  0
  139.7172   76.7590  219.7337 H   0  0  0  0  0  0  0  0  0  0  0  0
  141.4915   74.3937  219.1298 H   0  0  0  0  0  0  0  0  0  0  0  0
  141.9840   76.0390  219.5526 H   0  0  0  0  0  0  0  0  0  0  0  0
  142.3421   75.2387  221.7389 H   0  0  0  0  0  0  0  0  0  0  0  0
  140.7450   72.9460  221.0460 H   0  0  0  0  0  0  0  0  0  0  0  0
  140.0421   74.5646  222.8460 H   0  0  0  0  0  0  0  0  0  0  0  0
  137.8837   76.4458  222.1779 H   0  0  0  0  0  0  0  0  0  0  0  0
  137.5672   78.8216  222.8501 H   0  0  0  0  0  0  0  0  0  0  0  0
  141.8073   79.3385  223.2212 H   0  0  0  0  0  0  0  0  0  0  0  0
  142.0949   76.9993  222.5568 H   0  0  0  0  0  0  0  0  0  0  0  0
  141.0077   72.8591  224.1946 H   0  0  0  0  0  0  0  0  0  0  0  0
  141.7112   72.0356  226.4580 H   0  0  0  0  0  0  0  0  0  0  0  0
  141.6845   70.3484  228.1970 H   0  0  0  0  0  0  0  0  0  0  0  0
  139.4389   66.7422  227.5897 H   0  0  0  0  0  0  0  0  0  0  0  0
  138.7274   67.5247  225.3501 H   0  0  0  0  0  0  0  0  0  0  0  0
  1  2  2  0
  2  3  1  0
  3  4  1  0
  4  5  1  0
  5  6  2  0
  5  7  1  0
  7  8  1  0
  8  9  1  0
  9 10  1  0
 10 11  1  0
 10 12  1  0
 12 13  1  0
 13 14  2  0
 14 15  1  0
 15 16  2  0
 16 17  1  0
 16 18  1  0
 18 19  2  0
  2 20  1  0
 20 21  2  0
 21 22  1  0
 22 23  2  0
 23 24  1  0
 24 25  2  0
 25 26  1  0
 25 27  1  0
 27 28  2  0
 28 29  1  0
 29 30  2  0
 12  7  1  0
 19 13  1  0
 30 20  1  0
 29 23  1  0
  3 31  1  0
  4 32  1  0
  4 33  1  0
  8 34  1  0
  8 35  1  0
  9 36  1  0
  9 37  1  0
 10 38  1  1
 11 39  1  0
 12 40  1  1
 14 41  1  0
 15 42  1  0
 18 43  1  0
 19 44  1  0
 21 45  1  0
 22 46  1  0
 24 47  1  0
 27 48  1  0
 28 49  1  0
M  END
>  <smiles>  (15) 
O=C(NCC(=O)N1CC[C@H](O)[C@H]1c1ccc(Cl)cc1)c1ccc2cc(F)ccc2n1

>  <score_type>  (15) 
oracle

>  <origin>  (15) 
autodockgpu

>  <m_score__min__energy>  (15) 
-8.7300000000000004

>  <m_primary>  (15) 
energy

>  <rmsd>  (15) 
3.075838667696417

>  <m_score__min__rmsd>  (15) 
3.075838667696417

>  <meeko>  (15) 
{"free_energy": -7.5, "intermolecular_energy": -9.29, "internal_energy": -2.34, "cluster_size": 36, "cluster_id": 1, "rank_in_cluster": 20}

>  <energy>  (15) 
-7.98

>  <cluster_rmsd>  (15) 
1.29

>  <cluster>  (15) 
1

$$$$

     RDKit          3D

 49 52  0  0  0  0  0  0  0  0999 V2000
  135.8610   72.0300  221.7090 O   0  0  0  0  0  0  0  0  0  0  0  0
  136.8970   72.3090  222.4050 C   0  0  0  0  0  0  0  0  0  0  0  0
  137.3540   73.6340  222.3720 N   0  0  0  0  0  0  0  0  0  0  0  0
  136.6140   74.5880  221.5480 C   0  0  0  0  0  0  0  0  0  0  0  0
  137.4750   75.1030  220.4700 C   0  0  0  0  0  0  0  0  0  0  0  0
  137.0120   75.3190  219.3160 O   0  0  0  0  0  0  0  0  0  0  0  0
  138.8370   75.3530  220.7460 N   0  0  0  0  0  0  0  0  0  0  0  0
  139.9540   75.4570  219.8060 C   0  0  0  0  0  0  0  0  0  0  0  0
  141.0200   74.6540  220.5010 C   0  0  0  0  0  0  0  0  0  0  0  0
  140.6310   74.6420  221.9690 C   0  0  2  0  0  0  0  0  0  0  0  0
  140.1790   73.3480  222.3010 O   0  0  0  0  0  0  0  0  0  0  0  0
  139.4650   75.5720  222.0580 C   0  0  1  0  0  0  0  0  0  0  0  0
  139.8040   76.9970  222.1110 C   0  0  0  0  0  0  0  0  0  0  0  0
  141.0410   77.3340  222.6710 C   0  0  0  0  0  0  0  0  0  0  0  0
  141.4090   78.6820  222.7430 C   0  0  0  0  0  0  0  0  0  0  0  0
  140.5940   79.6860  222.2820 C   0  0  0  0  0  0  0  0  0  0  0  0
  141.0410   81.3820  222.3660 Cl  0  0  0  0  0  0  0  0  0  0  0  0
  139.3730   79.3570  221.7290 C   0  0  0  0  0  0  0  0  0  0  0  0
  139.0330   78.0260  221.6690 C   0  0  0  0  0  0  0  0  0  0  0  0
  137.5650   71.2720  223.2010 C   0  0  0  0  0  0  0  0  0  0  0  0
  136.9820   70.0100  223.2560 C   0  0  0  0  0  0  0  0  0  0  0  0
  137.6650   69.0740  224.0260 C   0  0  0  0  0  0  0  0  0  0  0  0
  138.8380   69.3720  224.6880 C   0  0  0  0  0  0  0  0  0  0  0  0
  139.5100   68.4310  225.4520 C   0  0  0  0  0  0  0  0  0  0  0  0
  140.6960   68.7570  226.1160 C   0  0  0  0  0  0  0  0  0  0  0  0
  141.3290   67.8030  226.8600 F   0  0  0  0  0  0  0  0  0  0  0  0
  141.1840   70.0430  225.9890 C   0  0  0  0  0  0  0  0  0  0  0  0
  140.5440   71.0060  225.2390 C   0  0  0  0  0  0  0  0  0  0  0  0
  139.3740   70.6470  224.5980 C   0  0  0  0  0  0  0  0  0  0  0  0
  138.7120   71.5490  223.8540 N   0  0  0  0  0  0  0  0  0  0  0  0
  138.2020   73.9200  222.9270 H   0  0  0  0  0  0  0  0  0  0  0  0
  135.7402   74.0861  221.1069 H   0  0  0  0  0  0  0  0  0  0  0  0
  136.2859   75.4280  222.1779 H   0  0  0  0  0  0  0  0  0  0  0  0
  139.6971   75.0206  218.8295 H   0  0  0  0  0  0  0  0  0  0  0  0
  140.2519   76.4920  219.5823 H   0  0  0  0  0  0  0  0  0  0  0  0
  141.0491   73.6289  220.1032 H   0  0  0  0  0  0  0  0  0  0  0  0
  142.0197   75.0868  220.3486 H   0  0  0  0  0  0  0  0  0  0  0  0
  141.4631   74.9249  222.6305 H   0  0  0  0  0  0  0  0  0  0  0  0
  139.5930   73.3610  223.0730 H   0  0  0  0  0  0  0  0  0  0  0  0
  138.8827   75.3720  222.9695 H   0  0  0  0  0  0  0  0  0  0  0  0
  141.7144   76.5507  223.0492 H   0  0  0  0  0  0  0  0  0  0  0  0
  142.3821   78.9457  223.1829 H   0  0  0  0  0  0  0  0  0  0  0  0
  138.6939   80.1343  221.3486 H   0  0  0  0  0  0  0  0  0  0  0  0
  138.0578   77.7731  221.2274 H   0  0  0  0  0  0  0  0  0  0  0  0
  136.0474   69.7694  222.7282 H   0  0  0  0  0  0  0  0  0  0  0  0
  137.2539   68.0572  224.1102 H   0  0  0  0  0  0  0  0  0  0  0  0
  139.1039   67.4123  225.5371 H   0  0  0  0  0  0  0  0  0  0  0  0
  142.1182   70.3083  226.5057 H   0  0  0  0  0  0  0  0  0  0  0  0
  140.9505   72.0246  225.1538 H   0  0  0  0  0  0  0  0  0  0  0  0
  1  2  2  0
  2  3  1  0
  3  4  1  0
  4  5  1  0
  5  6  2  0
  5  7  1  0
  7  8  1  0
  8  9  1  0
  9 10  1  0
 10 11  1  0
 10 12  1  0
 12 13  1  0
 13 14  2  0
 14 15  1  0
 15 16  2  0
 16 17  1  0
 16 18  1  0
 18 19  2  0
  2 20  1  0
 20 21  2  0
 21 22  1  0
 22 23  2  0
 23 24  1  0
 24 25  2  0
 25 26  1  0
 25 27  1  0
 27 28  2  0
 28 29  1  0
 29 30  2  0
 12  7  1  0
 19 13  1  0
 30 20  1  0
 29 23  1  0
  3 31  1  0
  4 32  1  0
  4 33  1  0
  8 34  1  0
  8 35  1  0
  9 36  1  0
  9 37  1  0
 10 38  1  1
 11 39  1  0
 12 40  1  1
 14 41  1  0
 15 42  1  0
 18 43  1  0
 19 44  1  0
 21 45  1  0
 22 46  1  0
 24 47  1  0
 27 48  1  0
 28 49  1  0
M  END
>  <smiles>  (16) 
O=C(NCC(=O)N1CC[C@H](O)[C@H]1c1ccc(Cl)cc1)c1ccc2cc(F)ccc2n1

>  <score_type>  (16) 
oracle

>  <origin>  (16) 
autodockgpu

>  <m_score__min__energy>  (16) 
-8.7300000000000004

>  <m_primary>  (16) 
energy

>  <rmsd>  (16) 
2.9385986453327404

>  <m_score__min__rmsd>  (16) 
2.9385986453327404

>  <meeko>  (16) 
{"free_energy": -6.89, "intermolecular_energy": -8.68, "internal_energy": -3.0, "cluster_size": 36, "cluster_id": 1, "rank_in_cluster": 32}

>  <energy>  (16) 
-7.79

>  <cluster_rmsd>  (16) 
1.47

>  <cluster>  (16) 
1

$$$$

     RDKit          3D

 49 52  0  0  0  0  0  0  0  0999 V2000
  136.0990   72.5020  221.2650 O   0  0  0  0  0  0  0  0  0  0  0  0
  137.0110   72.7970  222.1120 C   0  0  0  0  0  0  0  0  0  0  0  0
  137.4690   74.1210  222.1260 N   0  0  0  0  0  0  0  0  0  0  0  0
  136.8720   75.0580  221.1750 C   0  0  0  0  0  0  0  0  0  0  0  0
  137.8550   75.4350  220.1470 C   0  0  0  0  0  0  0  0  0  0  0  0
  137.5200   75.5390  218.9340 O   0  0  0  0  0  0  0  0  0  0  0  0
  139.1900   75.6790  220.5370 N   0  0  0  0  0  0  0  0  0  0  0  0
  140.3930   75.7090  219.7030 C   0  0  0  0  0  0  0  0  0  0  0  0
  141.3710   74.9310  220.5410 C   0  0  0  0  0  0  0  0  0  0  0  0
  140.8460   75.0120  221.9640 C   0  0  2  0  0  0  0  0  0  0  0  0
  140.3360   73.7470  222.3240 O   0  0  0  0  0  0  0  0  0  0  0  0
  139.6970   75.9640  221.8880 C   0  0  1  0  0  0  0  0  0  0  0  0
  140.0590   77.3840  221.8920 C   0  0  0  0  0  0  0  0  0  0  0  0
  141.1340   77.7620  222.7050 C   0  0  0  0  0  0  0  0  0  0  0  0
  141.5180   79.1060  222.7420 C   0  0  0  0  0  0  0  0  0  0  0  0
  140.8740   80.0690  222.0050 C   0  0  0  0  0  0  0  0  0  0  0  0
  141.3440   81.7600  222.0400 Cl  0  0  0  0  0  0  0  0  0  0  0  0
  139.8150   79.7000  221.2010 C   0  0  0  0  0  0  0  0  0  0  0  0
  139.4550   78.3730  221.1810 C   0  0  0  0  0  0  0  0  0  0  0  0
  137.5420   71.7780  223.0240 C   0  0  0  0  0  0  0  0  0  0  0  0
  136.7150   70.7160  223.3760 C   0  0  0  0  0  0  0  0  0  0  0  0
  137.2780   69.7850  224.2430 C   0  0  0  0  0  0  0  0  0  0  0  0
  138.5670   69.9030  224.7210 C   0  0  0  0  0  0  0  0  0  0  0  0
  139.1180   68.9690  225.5840 C   0  0  0  0  0  0  0  0  0  0  0  0
  140.4250   69.1100  226.0570 C   0  0  0  0  0  0  0  0  0  0  0  0
  140.9340   68.1690  226.9070 F   0  0  0  0  0  0  0  0  0  0  0  0
  141.1570   70.2050  225.6410 C   0  0  0  0  0  0  0  0  0  0  0  0
  140.6430   71.1540  224.7840 C   0  0  0  0  0  0  0  0  0  0  0  0
  139.3470   70.9820  224.3380 C   0  0  0  0  0  0  0  0  0  0  0  0
  138.8000   71.8790  223.5000 N   0  0  0  0  0  0  0  0  0  0  0  0
  138.2190   74.4200  222.8020 H   0  0  0  0  0  0  0  0  0  0  0  0
  136.0055   74.5827  220.6920 H   0  0  0  0  0  0  0  0  0  0  0  0
  136.5526   75.9619  221.7145 H   0  0  0  0  0  0  0  0  0  0  0  0
  140.2197   75.2201  218.7330 H   0  0  0  0  0  0  0  0  0  0  0  0
  140.7333   76.7240  219.4501 H   0  0  0  0  0  0  0  0  0  0  0  0
  141.4146   73.8838  220.2070 H   0  0  0  0  0  0  0  0  0  0  0  0
  142.3898   75.3377  220.4597 H   0  0  0  0  0  0  0  0  0  0  0  0
  141.6181   75.3198  222.6845 H   0  0  0  0  0  0  0  0  0  0  0  0
  139.6380   73.8200  222.9940 H   0  0  0  0  0  0  0  0  0  0  0  0
  139.0278   75.8264  222.7501 H   0  0  0  0  0  0  0  0  0  0  0  0
  141.6691   77.0123  223.3063 H   0  0  0  0  0  0  0  0  0  0  0  0
  142.3627   79.4012  223.3818 H   0  0  0  0  0  0  0  0  0  0  0  0
  139.2760   80.4435  220.5955 H   0  0  0  0  0  0  0  0  0  0  0  0
  138.6095   78.0885  220.5374 H   0  0  0  0  0  0  0  0  0  0  0  0
  135.6875   70.6192  222.9953 H   0  0  0  0  0  0  0  0  0  0  0  0
  136.6729   68.9225  224.5593 H   0  0  0  0  0  0  0  0  0  0  0  0
  138.5173   68.1038  225.9013 H   0  0  0  0  0  0  0  0  0  0  0  0
  142.1875   70.3239  226.0070 H   0  0  0  0  0  0  0  0  0  0  0  0
  141.2441   72.0187  224.4661 H   0  0  0  0  0  0  0  0  0  0  0  0
  1  2  2  0
  2  3  1  0
  3  4  1  0
  4  5  1  0
  5  6  2  0
  5  7  1  0
  7  8  1  0
  8  9  1  0
  9 10  1  0
 10 11  1  0
 10 12  1  0
 12 13  1  0
 13 14  2  0
 14 15  1  0
 15 16  2  0
 16 17  1  0
 16 18  1  0
 18 19  2  0
  2 20  1  0
 20 21  2  0
 21 22  1  0
 22 23  2  0
 23 24  1  0
 24 25  2  0
 25 26  1  0
 25 27  1  0
 27 28  2  0
 28 29  1  0
 29 30  2  0
 12  7  1  0
 19 13  1  0
 30 20  1  0
 29 23  1  0
  3 31  1  0
  4 32  1  0
  4 33  1  0
  8 34  1  0
  8 35  1  0
  9 36  1  0
  9 37  1  0
 10 38  1  1
 11 39  1  0
 12 40  1  1
 14 41  1  0
 15 42  1  0
 18 43  1  0
 19 44  1  0
 21 45  1  0
 22 46  1  0
 24 47  1  0
 27 48  1  0
 28 49  1  0
M  END
>  <smiles>  (17) 
O=C(NCC(=O)N1CC[C@H](O)[C@H]1c1ccc(Cl)cc1)c1ccc2cc(F)ccc2n1

>  <score_type>  (17) 
oracle

>  <origin>  (17) 
autodockgpu

>  <m_score__min__energy>  (17) 
-8.7300000000000004

>  <m_primary>  (17) 
energy

>  <rmsd>  (17) 
3.018986257278537

>  <m_score__min__rmsd>  (17) 
3.018986257278537

>  <meeko>  (17) 
{"free_energy": -6.75, "intermolecular_energy": -8.54, "internal_energy": -2.84, "cluster_size": 36, "cluster_id": 1, "rank_in_cluster": 36}

>  <energy>  (17) 
-7.76

>  <cluster_rmsd>  (17) 
1.53

>  <cluster>  (17) 
1

$$$$

     RDKit          3D

 49 52  0  0  0  0  0  0  0  0999 V2000
  135.8200   72.1930  221.7340 O   0  0  0  0  0  0  0  0  0  0  0  0
  136.8850   72.5180  222.3630 C   0  0  0  0  0  0  0  0  0  0  0  0
  137.3320   73.8390  222.2250 N   0  0  0  0  0  0  0  0  0  0  0  0
  136.5510   74.7370  221.3760 C   0  0  0  0  0  0  0  0  0  0  0  0
  137.2250   76.0400  221.2570 C   0  0  0  0  0  0  0  0  0  0  0  0
  136.5610   77.1090  221.1540 O   0  0  0  0  0  0  0  0  0  0  0  0
  138.6370   76.0800  221.2600 N   0  0  0  0  0  0  0  0  0  0  0  0
  139.5480   76.1930  220.1200 C   0  0  0  0  0  0  0  0  0  0  0  0
  140.5990   75.1700  220.4600 C   0  0  0  0  0  0  0  0  0  0  0  0
  140.5110   74.9790  221.9640 C   0  0  2  0  0  0  0  0  0  0  0  0
  139.9450   73.7120  222.2210 O   0  0  0  0  0  0  0  0  0  0  0  0
  139.5380   76.0160  222.4210 C   0  0  1  0  0  0  0  0  0  0  0  0
  140.0890   77.3650  222.5780 C   0  0  0  0  0  0  0  0  0  0  0  0
  139.1760   78.4010  222.8020 C   0  0  0  0  0  0  0  0  0  0  0  0
  139.6530   79.7060  222.9590 C   0  0  0  0  0  0  0  0  0  0  0  0
  140.9930   80.0040  222.9000 C   0  0  0  0  0  0  0  0  0  0  0  0
  141.6090   81.6370  223.0950 Cl  0  0  0  0  0  0  0  0  0  0  0  0
  141.8970   78.9850  222.6800 C   0  0  0  0  0  0  0  0  0  0  0  0
  141.4040   77.7100  222.5290 C   0  0  0  0  0  0  0  0  0  0  0  0
  137.5940   71.5360  223.1910 C   0  0  0  0  0  0  0  0  0  0  0  0
  136.9980   70.2950  223.3930 C   0  0  0  0  0  0  0  0  0  0  0  0
  137.7220   69.4110  224.1860 C   0  0  0  0  0  0  0  0  0  0  0  0
  138.9440   69.7380  224.7360 C   0  0  0  0  0  0  0  0  0  0  0  0
  139.6560   68.8480  225.5250 C   0  0  0  0  0  0  0  0  0  0  0  0
  140.8930   69.2030  226.0720 C   0  0  0  0  0  0  0  0  0  0  0  0
  141.5640   68.2990  226.8450 F   0  0  0  0  0  0  0  0  0  0  0  0
  141.3890   70.4640  225.8050 C   0  0  0  0  0  0  0  0  0  0  0  0
  140.7100   71.3750  225.0260 C   0  0  0  0  0  0  0  0  0  0  0  0
  139.4910   70.9890  224.5020 C   0  0  0  0  0  0  0  0  0  0  0  0
  138.7890   71.8410  223.7350 N   0  0  0  0  0  0  0  0  0  0  0  0
  138.2040   74.1620  222.7200 H   0  0  0  0  0  0  0  0  0  0  0  0
  136.4446   74.2905  220.3763 H   0  0  0  0  0  0  0  0  0  0  0  0
  135.5596   74.8863  221.8287 H   0  0  0  0  0  0  0  0  0  0  0  0
  139.0401   75.9463  219.1760 H   0  0  0  0  0  0  0  0  0  0  0  0
  139.9470   77.2068  219.9686 H   0  0  0  0  0  0  0  0  0  0  0  0
  140.3950   74.2224  219.9400 H   0  0  0  0  0  0  0  0  0  0  0  0
  141.6019   75.4978  220.1492 H   0  0  0  0  0  0  0  0  0  0  0  0
  141.4905   75.0555  222.4587 H   0  0  0  0  0  0  0  0  0  0  0  0
  139.5620   73.6650  223.1100 H   0  0  0  0  0  0  0  0  0  0  0  0
  139.1250   75.7476  223.4046 H   0  0  0  0  0  0  0  0  0  0  0  0
  138.0973   78.1918  222.8539 H   0  0  0  0  0  0  0  0  0  0  0  0
  138.9333   80.5191  223.1352 H   0  0  0  0  0  0  0  0  0  0  0  0
  142.9772   79.1860  222.6271 H   0  0  0  0  0  0  0  0  0  0  0  0
  142.1319   76.9040  222.3545 H   0  0  0  0  0  0  0  0  0  0  0  0
  136.0233   70.0317  222.9565 H   0  0  0  0  0  0  0  0  0  0  0  0
  137.3040   68.4126  224.3821 H   0  0  0  0  0  0  0  0  0  0  0  0
  139.2421   67.8484  225.7236 H   0  0  0  0  0  0  0  0  0  0  0  0
  142.3620   70.7515  226.2300 H   0  0  0  0  0  0  0  0  0  0  0  0
  141.1238   72.3748  224.8280 H   0  0  0  0  0  0  0  0  0  0  0  0
  1  2  2  0
  2  3  1  0
  3  4  1  0
  4  5  1  0
  5  6  2  0
  5  7  1  0
  7  8  1  0
  8  9  1  0
  9 10  1  0
 10 11  1  0
 10 12  1  0
 12 13  1  0
 13 14  2  0
 14 15  1  0
 15 16  2  0
 16 17  1  0
 16 18  1  0
 18 19  2  0
  2 20  1  0
 20 21  2  0
 21 22  1  0
 22 23  2  0
 23 24  1  0
 24 25  2  0
 25 26  1  0
 25 27  1  0
 27 28  2  0
 28 29  1  0
 29 30  2  0
 12  7  1  0
 19 13  1  0
 30 20  1  0
 29 23  1  0
  3 31  1  0
  4 32  1  0
  4 33  1  0
  8 34  1  0
  8 35  1  0
  9 36  1  0
  9 37  1  0
 10 38  1  1
 11 39  1  0
 12 40  1  1
 14 41  1  0
 15 42  1  0
 18 43  1  0
 19 44  1  0
 21 45  1  0
 22 46  1  0
 24 47  1  0
 27 48  1  0
 28 49  1  0
M  END
>  <smiles>  (18) 
O=C(NCC(=O)N1CC[C@H](O)[C@H]1c1ccc(Cl)cc1)c1ccc2cc(F)ccc2n1

>  <score_type>  (18) 
oracle

>  <origin>  (18) 
autodockgpu

>  <m_score__min__energy>  (18) 
-8.7300000000000004

>  <m_primary>  (18) 
energy

>  <rmsd>  (18) 
2.993833530088658

>  <m_score__min__rmsd>  (18) 
2.993833530088658

>  <meeko>  (18) 
{"free_energy": -7.24, "intermolecular_energy": -9.03, "internal_energy": -3.01, "cluster_size": 36, "cluster_id": 1, "rank_in_cluster": 28}

>  <energy>  (18) 
-7.72

>  <cluster_rmsd>  (18) 
1.51

>  <cluster>  (18) 
1

$$$$

     RDKit          3D

 49 52  0  0  0  0  0  0  0  0999 V2000
  136.1870   71.5820  221.4500 O   0  0  0  0  0  0  0  0  0  0  0  0
  137.0430   72.0130  222.2970 C   0  0  0  0  0  0  0  0  0  0  0  0
  137.2740   73.3960  222.3270 N   0  0  0  0  0  0  0  0  0  0  0  0
  136.5240   74.2310  221.3920 C   0  0  0  0  0  0  0  0  0  0  0  0
  137.1640   75.5500  221.2620 C   0  0  0  0  0  0  0  0  0  0  0  0
  136.4730   76.6050  221.1930 O   0  0  0  0  0  0  0  0  0  0  0  0
  138.5740   75.6220  221.2130 N   0  0  0  0  0  0  0  0  0  0  0  0
  139.4450   75.6600  220.0370 C   0  0  0  0  0  0  0  0  0  0  0  0
  140.5310   74.6930  220.4250 C   0  0  0  0  0  0  0  0  0  0  0  0
  140.4970   74.6260  221.9420 C   0  0  2  0  0  0  0  0  0  0  0  0
  139.9710   73.3730  222.3230 O   0  0  0  0  0  0  0  0  0  0  0  0
  139.5130   75.6770  222.3440 C   0  0  1  0  0  0  0  0  0  0  0  0
  140.0350   77.0460  222.3690 C   0  0  0  0  0  0  0  0  0  0  0  0
  139.1480   78.0550  222.7620 C   0  0  0  0  0  0  0  0  0  0  0  0
  139.6000   79.3780  222.8020 C   0  0  0  0  0  0  0  0  0  0  0  0
  140.8880   79.7190  222.4680 C   0  0  0  0  0  0  0  0  0  0  0  0
  141.4700   81.3750  222.5130 Cl  0  0  0  0  0  0  0  0  0  0  0  0
  141.7650   78.7270  222.0810 C   0  0  0  0  0  0  0  0  0  0  0  0
  141.2980   77.4340  222.0480 C   0  0  0  0  0  0  0  0  0  0  0  0
  137.7420   71.0850  223.1940 C   0  0  0  0  0  0  0  0  0  0  0  0
  137.3190   69.7600  223.2250 C   0  0  0  0  0  0  0  0  0  0  0  0
  138.0230   68.9330  224.0940 C   0  0  0  0  0  0  0  0  0  0  0  0
  139.0670   69.3910  224.8710 C   0  0  0  0  0  0  0  0  0  0  0  0
  139.7610   68.5570  225.7340 C   0  0  0  0  0  0  0  0  0  0  0  0
  140.8150   69.0440  226.5130 C   0  0  0  0  0  0  0  0  0  0  0  0
  141.4750   68.1920  227.3510 F   0  0  0  0  0  0  0  0  0  0  0  0
  141.1480   70.3800  226.4000 C   0  0  0  0  0  0  0  0  0  0  0  0
  140.4810   71.2390  225.5540 C   0  0  0  0  0  0  0  0  0  0  0  0
  139.4450   70.7220  224.8000 C   0  0  0  0  0  0  0  0  0  0  0  0
  138.7630   71.5180  223.9590 N   0  0  0  0  0  0  0  0  0  0  0  0
  137.9680   73.8060  223.0050 H   0  0  0  0  0  0  0  0  0  0  0  0
  136.4983   73.7411  220.4075 H   0  0  0  0  0  0  0  0  0  0  0  0
  135.5004   74.3647  221.7719 H   0  0  0  0  0  0  0  0  0  0  0  0
  138.9137   75.3240  219.1343 H   0  0  0  0  0  0  0  0  0  0  0  0
  139.8133   76.6663  219.7885 H   0  0  0  0  0  0  0  0  0  0  0  0
  140.3340   73.7010  219.9925 H   0  0  0  0  0  0  0  0  0  0  0  0
  141.5149   75.0164  220.0543 H   0  0  0  0  0  0  0  0  0  0  0  0
  141.4899   74.7644  222.3947 H   0  0  0  0  0  0  0  0  0  0  0  0
  139.4500   73.4370  223.1380 H   0  0  0  0  0  0  0  0  0  0  0  0
  139.1385   75.4841  223.3601 H   0  0  0  0  0  0  0  0  0  0  0  0
  138.1108   77.8110  223.0353 H   0  0  0  0  0  0  0  0  0  0  0  0
  138.9021   80.1703  223.1106 H   0  0  0  0  0  0  0  0  0  0  0  0
  142.8041   78.9626  221.8077 H   0  0  0  0  0  0  0  0  0  0  0  0
  142.0037   76.6498  221.7366 H   0  0  0  0  0  0  0  0  0  0  0  0
  136.4870   69.3925  222.6063 H   0  0  0  0  0  0  0  0  0  0  0  0
  137.7364   67.8733  224.1644 H   0  0  0  0  0  0  0  0  0  0  0  0
  139.4783   67.4965  225.8069 H   0  0  0  0  0  0  0  0  0  0  0  0
  141.9764   70.7726  227.0080 H   0  0  0  0  0  0  0  0  0  0  0  0
  140.7635   72.2996  225.4814 H   0  0  0  0  0  0  0  0  0  0  0  0
  1  2  2  0
  2  3  1  0
  3  4  1  0
  4  5  1  0
  5  6  2  0
  5  7  1  0
  7  8  1  0
  8  9  1  0
  9 10  1  0
 10 11  1  0
 10 12  1  0
 12 13  1  0
 13 14  2  0
 14 15  1  0
 15 16  2  0
 16 17  1  0
 16 18  1  0
 18 19  2  0
  2 20  1  0
 20 21  2  0
 21 22  1  0
 22 23  2  0
 23 24  1  0
 24 25  2  0
 25 26  1  0
 25 27  1  0
 27 28  2  0
 28 29  1  0
 29 30  2  0
 12  7  1  0
 19 13  1  0
 30 20  1  0
 29 23  1  0
  3 31  1  0
  4 32  1  0
  4 33  1  0
  8 34  1  0
  8 35  1  0
  9 36  1  0
  9 37  1  0
 10 38  1  1
 11 39  1  0
 12 40  1  1
 14 41  1  0
 15 42  1  0
 18 43  1  0
 19 44  1  0
 21 45  1  0
 22 46  1  0
 24 47  1  0
 27 48  1  0
 28 49  1  0
M  END
>  <smiles>  (19) 
O=C(NCC(=O)N1CC[C@H](O)[C@H]1c1ccc(Cl)cc1)c1ccc2cc(F)ccc2n1

>  <score_type>  (19) 
oracle

>  <origin>  (19) 
autodockgpu

>  <m_score__min__energy>  (19) 
-8.7300000000000004

>  <m_primary>  (19) 
energy

>  <rmsd>  (19) 
2.83117391164877

>  <m_score__min__rmsd>  (19) 
2.83117391164877

>  <meeko>  (19) 
{"free_energy": -7.41, "intermolecular_energy": -9.2, "internal_energy": -3.02, "cluster_size": 36, "cluster_id": 1, "rank_in_cluster": 26}

>  <energy>  (19) 
-7.51

>  <cluster_rmsd>  (19) 
1.82

>  <cluster>  (19) 
1

$$$$

     RDKit          3D

 49 52  0  0  0  0  0  0  0  0999 V2000
  139.0240   71.8610  221.3870 O   0  0  0  0  0  0  0  0  0  0  0  0
  138.4830   71.9480  222.5420 C   0  0  0  0  0  0  0  0  0  0  0  0
  137.5070   72.9390  222.7190 N   0  0  0  0  0  0  0  0  0  0  0  0
  137.1860   73.7900  221.5750 C   0  0  0  0  0  0  0  0  0  0  0  0
  137.6340   75.1700  221.8270 C   0  0  0  0  0  0  0  0  0  0  0  0
  136.8730   76.0080  222.3850 O   0  0  0  0  0  0  0  0  0  0  0  0
  138.9360   75.5470  221.4320 N   0  0  0  0  0  0  0  0  0  0  0  0
  139.4470   75.7820  220.0800 C   0  0  0  0  0  0  0  0  0  0  0  0
  140.7740   75.0710  220.1220 C   0  0  0  0  0  0  0  0  0  0  0  0
  141.1460   74.9880  221.5920 C   0  0  2  0  0  0  0  0  0  0  0  0
  141.0100   73.6480  222.0110 O   0  0  0  0  0  0  0  0  0  0  0  0
  140.1030   75.7960  222.2920 C   0  0  1  0  0  0  0  0  0  0  0  0
  140.3170   77.2460  222.2730 C   0  0  0  0  0  0  0  0  0  0  0  0
  139.2650   78.0480  222.7310 C   0  0  0  0  0  0  0  0  0  0  0  0
  139.4220   79.4370  222.7320 C   0  0  0  0  0  0  0  0  0  0  0  0
  140.5760   80.0410  222.2970 C   0  0  0  0  0  0  0  0  0  0  0  0
  140.7880   81.7840  222.2920 Cl  0  0  0  0  0  0  0  0  0  0  0  0
  141.6150   79.2540  221.8460 C   0  0  0  0  0  0  0  0  0  0  0  0
  141.4380   77.8900  221.8540 C   0  0  0  0  0  0  0  0  0  0  0  0
  138.8790   71.0400  223.6250 C   0  0  0  0  0  0  0  0  0  0  0  0
  138.5170   69.7010  223.5230 C   0  0  0  0  0  0  0  0  0  0  0  0
  138.9220   68.8930  224.5810 C   0  0  0  0  0  0  0  0  0  0  0  0
  139.6340   69.3830  225.6560 C   0  0  0  0  0  0  0  0  0  0  0  0
  140.0330   68.5690  226.7040 C   0  0  0  0  0  0  0  0  0  0  0  0
  140.7530   69.0880  227.7850 C   0  0  0  0  0  0  0  0  0  0  0  0
  141.1280   68.2550  228.7990 F   0  0  0  0  0  0  0  0  0  0  0  0
  141.0580   70.4350  227.7800 C   0  0  0  0  0  0  0  0  0  0  0  0
  140.6790   71.2760  226.7560 C   0  0  0  0  0  0  0  0  0  0  0  0
  139.9680   70.7270  225.7060 C   0  0  0  0  0  0  0  0  0  0  0  0
  139.5750   71.5040  224.6820 N   0  0  0  0  0  0  0  0  0  0  0  0
  137.0280   73.0560  223.6500 H   0  0  0  0  0  0  0  0  0  0  0  0
  137.6926   73.4012  220.6793 H   0  0  0  0  0  0  0  0  0  0  0  0
  136.0969   73.7884  221.4205 H   0  0  0  0  0  0  0  0  0  0  0  0
  138.7829   75.3452  219.3197 H   0  0  0  0  0  0  0  0  0  0  0  0
  139.5210   76.8461  219.8114 H   0  0  0  0  0  0  0  0  0  0  0  0
  140.6834   74.0629  219.6913 H   0  0  0  0  0  0  0  0  0  0  0  0
  141.5395   75.6026  219.5376 H   0  0  0  0  0  0  0  0  0  0  0  0
  142.1700   75.3370  221.7912 H   0  0  0  0  0  0  0  0  0  0  0  0
  140.3500   73.1720  221.4830 H   0  0  0  0  0  0  0  0  0  0  0  0
  140.0522   75.5179  223.3551 H   0  0  0  0  0  0  0  0  0  0  0  0
  138.3287   77.5919  223.0849 H   0  0  0  0  0  0  0  0  0  0  0  0
  138.5949   80.0662  223.0927 H   0  0  0  0  0  0  0  0  0  0  0  0
  142.5547   79.7026  221.4914 H   0  0  0  0  0  0  0  0  0  0  0  0
  142.2714   77.2701  221.4919 H   0  0  0  0  0  0  0  0  0  0  0  0
  137.9502   69.3082  222.6660 H   0  0  0  0  0  0  0  0  0  0  0  0
  138.6648   67.8237  224.5593 H   0  0  0  0  0  0  0  0  0  0  0  0
  139.7797   67.4987  226.6855 H   0  0  0  0  0  0  0  0  0  0  0  0
  141.6248   70.8524  228.6253 H   0  0  0  0  0  0  0  0  0  0  0  0
  140.9334   72.3460  226.7739 H   0  0  0  0  0  0  0  0  0  0  0  0
  1  2  2  0
  2  3  1  0
  3  4  1  0
  4  5  1  0
  5  6  2  0
  5  7  1  0
  7  8  1  0
  8  9  1  0
  9 10  1  0
 10 11  1  0
 10 12  1  0
 12 13  1  0
 13 14  2  0
 14 15  1  0
 15 16  2  0
 16 17  1  0
 16 18  1  0
 18 19  2  0
  2 20  1  0
 20 21  2  0
 21 22  1  0
 22 23  2  0
 23 24  1  0
 24 25  2  0
 25 26  1  0
 25 27  1  0
 27 28  2  0
 28 29  1  0
 29 30  2  0
 12  7  1  0
 19 13  1  0
 30 20  1  0
 29 23  1  0
  3 31  1  0
  4 32  1  0
  4 33  1  0
  8 34  1  0
  8 35  1  0
  9 36  1  0
  9 37  1  0
 10 38  1  6
 11 39  1  0
 12 40  1  1
 14 41  1  0
 15 42  1  0
 18 43  1  0
 19 44  1  0
 21 45  1  0
 22 46  1  0
 24 47  1  0
 27 48  1  0
 28 49  1  0
M  END
>  <smiles>  (20) 
O=C(NCC(=O)N1CC[C@H](O)[C@H]1c1ccc(Cl)cc1)c1ccc2cc(F)ccc2n1

>  <score_type>  (20) 
oracle

>  <origin>  (20) 
autodockgpu

>  <m_score__min__energy>  (20) 
-8.7300000000000004

>  <m_primary>  (20) 
energy

>  <rmsd>  (20) 
2.319523972599474

>  <m_score__min__rmsd>  (20) 
2.319523972599474

>  <meeko>  (20) 
{"free_energy": -7.72, "intermolecular_energy": -9.51, "internal_energy": -2.36, "cluster_size": 36, "cluster_id": 1, "rank_in_cluster": 18}

>  <energy>  (20) 
-7.5

>  <cluster_rmsd>  (20) 
1.61

>  <cluster>  (20) 
1

$$$$

     RDKit          3D

 49 52  0  0  0  0  0  0  0  0999 V2000
  135.4150   71.8730  222.2850 O   0  0  0  0  0  0  0  0  0  0  0  0
  136.5730   72.1780  222.7320 C   0  0  0  0  0  0  0  0  0  0  0  0
  137.0670   73.4510  222.4120 N   0  0  0  0  0  0  0  0  0  0  0  0
  136.2240   74.3230  221.5960 C   0  0  0  0  0  0  0  0  0  0  0  0
  136.8220   75.6640  221.5010 C   0  0  0  0  0  0  0  0  0  0  0  0
  136.0990   76.7000  221.4990 O   0  0  0  0  0  0  0  0  0  0  0  0
  138.2270   75.7800  221.4110 N   0  0  0  0  0  0  0  0  0  0  0  0
  139.0520   75.9550  220.2140 C   0  0  0  0  0  0  0  0  0  0  0  0
  140.1760   74.9860  220.4690 C   0  0  0  0  0  0  0  0  0  0  0  0
  140.2000   74.7730  221.9720 C   0  0  2  0  0  0  0  0  0  0  0  0
  139.7200   73.4750  222.2470 O   0  0  0  0  0  0  0  0  0  0  0  0
  139.2060   75.7520  222.5080 C   0  0  1  0  0  0  0  0  0  0  0  0
  139.6950   77.1260  222.6480 C   0  0  0  0  0  0  0  0  0  0  0  0
  141.0820   77.3020  222.7180 C   0  0  0  0  0  0  0  0  0  0  0  0
  141.5970   78.5950  222.8510 C   0  0  0  0  0  0  0  0  0  0  0  0
  140.7840   79.7000  222.9160 C   0  0  0  0  0  0  0  0  0  0  0  0
  141.4150   81.3310  223.0830 Cl  0  0  0  0  0  0  0  0  0  0  0  0
  139.4170   79.5310  222.8460 C   0  0  0  0  0  0  0  0  0  0  0  0
  138.9330   78.2510  222.7160 C   0  0  0  0  0  0  0  0  0  0  0  0
  137.3370   71.2260  223.5450 C   0  0  0  0  0  0  0  0  0  0  0  0
  136.7230   70.0310  223.9070 C   0  0  0  0  0  0  0  0  0  0  0  0
  137.5010   69.1730  224.6770 C   0  0  0  0  0  0  0  0  0  0  0  0
  138.7910   69.4810  225.0560 C   0  0  0  0  0  0  0  0  0  0  0  0
  139.5570   68.6170  225.8230 C   0  0  0  0  0  0  0  0  0  0  0  0
  140.8620   68.9510  226.1960 C   0  0  0  0  0  0  0  0  0  0  0  0
  141.5860   68.0740  226.9530 F   0  0  0  0  0  0  0  0  0  0  0  0
  141.3710   70.1660  225.7790 C   0  0  0  0  0  0  0  0  0  0  0  0
  140.6400   71.0500  225.0160 C   0  0  0  0  0  0  0  0  0  0  0  0
  139.3530   70.6860  224.6670 C   0  0  0  0  0  0  0  0  0  0  0  0
  138.5990   71.5130  223.9230 N   0  0  0  0  0  0  0  0  0  0  0  0
  138.0160   73.7570  222.7530 H   0  0  0  0  0  0  0  0  0  0  0  0
  136.1284   73.8955  220.5870 H   0  0  0  0  0  0  0  0  0  0  0  0
  135.2322   74.4046  222.0648 H   0  0  0  0  0  0  0  0  0  0  0  0
  138.4956   75.6918  219.3023 H   0  0  0  0  0  0  0  0  0  0  0  0
  139.3855   76.9905  220.0508 H   0  0  0  0  0  0  0  0  0  0  0  0
  139.9879   74.0348  219.9496 H   0  0  0  0  0  0  0  0  0  0  0  0
  141.1370   75.3713  220.0976 H   0  0  0  0  0  0  0  0  0  0  0  0
  141.2052   74.8957  222.4017 H   0  0  0  0  0  0  0  0  0  0  0  0
  139.3990   73.3980  223.1590 H   0  0  0  0  0  0  0  0  0  0  0  0
  138.8743   75.4515  223.5128 H   0  0  0  0  0  0  0  0  0  0  0  0
  141.7573   76.4351  222.6691 H   0  0  0  0  0  0  0  0  0  0  0  0
  142.6871   78.7315  222.9053 H   0  0  0  0  0  0  0  0  0  0  0  0
  138.7356   80.3932  222.8927 H   0  0  0  0  0  0  0  0  0  0  0  0
  137.8414   78.1262  222.6627 H   0  0  0  0  0  0  0  0  0  0  0  0
  135.6948   69.7824  223.6054 H   0  0  0  0  0  0  0  0  0  0  0  0
  137.0711   68.2120  224.9960 H   0  0  0  0  0  0  0  0  0  0  0  0
  139.1316   67.6543  226.1428 H   0  0  0  0  0  0  0  0  0  0  0  0
  142.3974   70.4374  226.0668 H   0  0  0  0  0  0  0  0  0  0  0  0
  141.0658   72.0123  224.6956 H   0  0  0  0  0  0  0  0  0  0  0  0
  1  2  2  0
  2  3  1  0
  3  4  1  0
  4  5  1  0
  5  6  2  0
  5  7  1  0
  7  8  1  0
  8  9  1  0
  9 10  1  0
 10 11  1  0
 10 12  1  0
 12 13  1  0
 13 14  2  0
 14 15  1  0
 15 16  2  0
 16 17  1  0
 16 18  1  0
 18 19  2  0
  2 20  1  0
 20 21  2  0
 21 22  1  0
 22 23  2  0
 23 24  1  0
 24 25  2  0
 25 26  1  0
 25 27  1  0
 27 28  2  0
 28 29  1  0
 29 30  2  0
 12  7  1  0
 19 13  1  0
 30 20  1  0
 29 23  1  0
  3 31  1  0
  4 32  1  0
  4 33  1  0
  8 34  1  0
  8 35  1  0
  9 36  1  0
  9 37  1  0
 10 38  1  1
 11 39  1  0
 12 40  1  1
 14 41  1  0
 15 42  1  0
 18 43  1  0
 19 44  1  0
 21 45  1  0
 22 46  1  0
 24 47  1  0
 27 48  1  0
 28 49  1  0
M  END
>  <smiles>  (21) 
O=C(NCC(=O)N1CC[C@H](O)[C@H]1c1ccc(Cl)cc1)c1ccc2cc(F)ccc2n1

>  <score_type>  (21) 
oracle

>  <origin>  (21) 
autodockgpu

>  <m_score__min__energy>  (21) 
-8.7300000000000004

>  <m_primary>  (21) 
energy

>  <rmsd>  (21) 
3.1015703651250073

>  <m_score__min__rmsd>  (21) 
3.1015703651250073

>  <meeko>  (21) 
{"free_energy": -7.39, "intermolecular_energy": -9.18, "internal_energy": -3.02, "cluster_size": 36, "cluster_id": 1, "rank_in_cluster": 27}

>  <energy>  (21) 
-7.48

>  <cluster_rmsd>  (21) 
1.84

>  <cluster>  (21) 
1

$$$$

     RDKit          3D

 49 52  0  0  0  0  0  0  0  0999 V2000
  138.7830   71.1690  221.2800 O   0  0  0  0  0  0  0  0  0  0  0  0
  139.1440   71.7050  222.3830 C   0  0  0  0  0  0  0  0  0  0  0  0
  139.2430   73.1030  222.4130 N   0  0  0  0  0  0  0  0  0  0  0  0
  138.9280   73.8340  221.1870 C   0  0  0  0  0  0  0  0  0  0  0  0
  138.8490   75.2780  221.4620 C   0  0  0  0  0  0  0  0  0  0  0  0
  137.7570   75.8160  221.8000 O   0  0  0  0  0  0  0  0  0  0  0  0
  140.0180   76.0610  221.3430 N   0  0  0  0  0  0  0  0  0  0  0  0
  140.7470   76.7770  222.3910 C   0  0  0  0  0  0  0  0  0  0  0  0
  141.0290   78.0970  221.7260 C   0  0  0  0  0  0  0  0  0  0  0  0
  140.9480   77.8290  220.2340 C   0  0  2  0  0  0  0  0  0  0  0  0
  139.7710   78.4270  219.7360 O   0  0  0  0  0  0  0  0  0  0  0  0
  140.7910   76.3470  220.1240 C   0  0  1  0  0  0  0  0  0  0  0  0
  142.0310   75.5760  220.2420 C   0  0  0  0  0  0  0  0  0  0  0  0
  141.9120   74.2430  220.6530 C   0  0  0  0  0  0  0  0  0  0  0  0
  143.0680   73.4660  220.7800 C   0  0  0  0  0  0  0  0  0  0  0  0
  144.3180   73.9700  220.5150 C   0  0  0  0  0  0  0  0  0  0  0  0
  145.7790   73.0070  220.6700 Cl  0  0  0  0  0  0  0  0  0  0  0  0
  144.4390   75.2830  220.1090 C   0  0  0  0  0  0  0  0  0  0  0  0
  143.2890   76.0280  219.9910 C   0  0  0  0  0  0  0  0  0  0  0  0
  139.4370   70.8760  223.5580 C   0  0  0  0  0  0  0  0  0  0  0  0
  139.1500   69.5170  223.4900 C   0  0  0  0  0  0  0  0  0  0  0  0
  139.4510   68.7880  224.6360 C   0  0  0  0  0  0  0  0  0  0  0  0
  139.9960   69.3690  225.7620 C   0  0  0  0  0  0  0  0  0  0  0  0
  140.2920   68.6320  226.8980 C   0  0  0  0  0  0  0  0  0  0  0  0
  140.8420   69.2430  228.0280 C   0  0  0  0  0  0  0  0  0  0  0  0
  141.1210   68.4850  229.1290 F   0  0  0  0  0  0  0  0  0  0  0  0
  141.0860   70.6020  227.9840 C   0  0  0  0  0  0  0  0  0  0  0  0
  140.8050   71.3670  226.8730 C   0  0  0  0  0  0  0  0  0  0  0  0
  140.2610   70.7290  225.7750 C   0  0  0  0  0  0  0  0  0  0  0  0
  139.9690   71.4300  224.6660 N   0  0  0  0  0  0  0  0  0  0  0  0
  139.5360   73.5990  223.2950 H   0  0  0  0  0  0  0  0  0  0  0  0
  139.7150   73.6487  220.4411 H   0  0  0  0  0  0  0  0  0  0  0  0
  137.9571   73.4883  220.8024 H   0  0  0  0  0  0  0  0  0  0  0  0
  140.1286   76.9066  223.2915 H   0  0  0  0  0  0  0  0  0  0  0  0
  141.6490   76.2542  222.7417 H   0  0  0  0  0  0  0  0  0  0  0  0
  140.2786   78.8445  222.0230 H   0  0  0  0  0  0  0  0  0  0  0  0
  142.0126   78.4959  222.0147 H   0  0  0  0  0  0  0  0  0  0  0  0
  141.8205   78.2145  219.6861 H   0  0  0  0  0  0  0  0  0  0  0  0
  138.9840   77.9050  219.9560 H   0  0  0  0  0  0  0  0  0  0  0  0
  140.3666   76.0771  219.1457 H   0  0  0  0  0  0  0  0  0  0  0  0
  140.9237   73.8130  220.8728 H   0  0  0  0  0  0  0  0  0  0  0  0
  142.9732   72.4185  221.1022 H   0  0  0  0  0  0  0  0  0  0  0  0
  145.4237   75.7200  219.8868 H   0  0  0  0  0  0  0  0  0  0  0  0
  143.3952   77.0740  219.6675 H   0  0  0  0  0  0  0  0  0  0  0  0
  138.7155   69.0512  222.5932 H   0  0  0  0  0  0  0  0  0  0  0  0
  139.2466   67.7072  224.6445 H   0  0  0  0  0  0  0  0  0  0  0  0
  140.0911   67.5506  226.9102 H   0  0  0  0  0  0  0  0  0  0  0  0
  141.5205   71.0913  228.8682 H   0  0  0  0  0  0  0  0  0  0  0  0
  141.0068   72.4483  226.8607 H   0  0  0  0  0  0  0  0  0  0  0  0
  1  2  2  0
  2  3  1  0
  3  4  1  0
  4  5  1  0
  5  6  2  0
  5  7  1  0
  7  8  1  0
  8  9  1  0
  9 10  1  0
 10 11  1  0
 10 12  1  0
 12 13  1  0
 13 14  2  0
 14 15  1  0
 15 16  2  0
 16 17  1  0
 16 18  1  0
 18 19  2  0
  2 20  1  0
 20 21  2  0
 21 22  1  0
 22 23  2  0
 23 24  1  0
 24 25  2  0
 25 26  1  0
 25 27  1  0
 27 28  2  0
 28 29  1  0
 29 30  2  0
 12  7  1  0
 19 13  1  0
 30 20  1  0
 29 23  1  0
  3 31  1  0
  4 32  1  0
  4 33  1  0
  8 34  1  0
  8 35  1  0
  9 36  1  0
  9 37  1  0
 10 38  1  6
 11 39  1  0
 12 40  1  6
 14 41  1  0
 15 42  1  0
 18 43  1  0
 19 44  1  0
 21 45  1  0
 22 46  1  0
 24 47  1  0
 27 48  1  0
 28 49  1  0
M  END
>  <smiles>  (22) 
O=C(NCC(=O)N1CC[C@H](O)[C@H]1c1ccc(Cl)cc1)c1ccc2cc(F)ccc2n1

>  <score_type>  (22) 
oracle

>  <origin>  (22) 
autodockgpu

>  <m_score__min__energy>  (22) 
-8.7300000000000004

>  <m_primary>  (22) 
energy

>  <rmsd>  (22) 
2.5934549169702756

>  <m_score__min__rmsd>  (22) 
2.5934549169702756

>  <meeko>  (22) 
{"free_energy": -7.82, "intermolecular_energy": -9.61, "internal_energy": -1.66, "cluster_size": 1, "cluster_id": 4, "rank_in_cluster": 1}

>  <energy>  (22) 
-7.47

>  <cluster_rmsd>  (22) 
1.83

>  <cluster>  (22) 
1

$$$$

     RDKit          3D

 49 52  0  0  0  0  0  0  0  0999 V2000
  135.3390   71.9680  222.6120 O   0  0  0  0  0  0  0  0  0  0  0  0
  136.5480   72.2180  222.9460 C   0  0  0  0  0  0  0  0  0  0  0  0
  137.0940   73.4330  222.5100 N   0  0  0  0  0  0  0  0  0  0  0  0
  136.2430   74.3140  221.7120 C   0  0  0  0  0  0  0  0  0  0  0  0
  136.8530   75.6500  221.6050 C   0  0  0  0  0  0  0  0  0  0  0  0
  136.1450   76.6940  221.6580 O   0  0  0  0  0  0  0  0  0  0  0  0
  138.2520   75.7490  221.4410 N   0  0  0  0  0  0  0  0  0  0  0  0
  139.0180   75.8600  220.1980 C   0  0  0  0  0  0  0  0  0  0  0  0
  140.1470   74.8950  220.4430 C   0  0  0  0  0  0  0  0  0  0  0  0
  140.2440   74.7540  221.9520 C   0  0  2  0  0  0  0  0  0  0  0  0
  139.7710   73.4750  222.3120 O   0  0  0  0  0  0  0  0  0  0  0  0
  139.2840   75.7650  222.4880 C   0  0  1  0  0  0  0  0  0  0  0  0
  139.7870   77.1410  222.5380 C   0  0  0  0  0  0  0  0  0  0  0  0
  138.8420   78.1550  222.7300 C   0  0  0  0  0  0  0  0  0  0  0  0
  139.2740   79.4840  222.7850 C   0  0  0  0  0  0  0  0  0  0  0  0
  140.5980   79.8270  222.6560 C   0  0  0  0  0  0  0  0  0  0  0  0
  141.1550   81.4910  222.7220 Cl  0  0  0  0  0  0  0  0  0  0  0  0
  141.5320   78.8300  222.4670 C   0  0  0  0  0  0  0  0  0  0  0  0
  141.0840   77.5300  222.4160 C   0  0  0  0  0  0  0  0  0  0  0  0
  137.3150   71.2620  223.7520 C   0  0  0  0  0  0  0  0  0  0  0  0
  136.6770   70.1010  224.1770 C   0  0  0  0  0  0  0  0  0  0  0  0
  137.4590   69.2370  224.9370 C   0  0  0  0  0  0  0  0  0  0  0  0
  138.7750   69.5090  225.2480 C   0  0  0  0  0  0  0  0  0  0  0  0
  139.5450   68.6400  226.0060 C   0  0  0  0  0  0  0  0  0  0  0  0
  140.8770   68.9370  226.3100 C   0  0  0  0  0  0  0  0  0  0  0  0
  141.6030   68.0570  227.0590 F   0  0  0  0  0  0  0  0  0  0  0  0
  141.4080   70.1200  225.8340 C   0  0  0  0  0  0  0  0  0  0  0  0
  140.6730   71.0090  225.0790 C   0  0  0  0  0  0  0  0  0  0  0  0
  139.3610   70.6810  224.7990 C   0  0  0  0  0  0  0  0  0  0  0  0
  138.6020   71.5140  224.0650 N   0  0  0  0  0  0  0  0  0  0  0  0
  138.0850   73.6920  222.7560 H   0  0  0  0  0  0  0  0  0  0  0  0
  136.1220   73.8881  220.7051 H   0  0  0  0  0  0  0  0  0  0  0  0
  135.2621   74.4054  222.2014 H   0  0  0  0  0  0  0  0  0  0  0  0
  138.4156   75.5587  219.3283 H   0  0  0  0  0  0  0  0  0  0  0  0
  139.3495   76.8837  219.9696 H   0  0  0  0  0  0  0  0  0  0  0  0
  139.9275   73.9217  219.9798 H   0  0  0  0  0  0  0  0  0  0  0  0
  141.0908   75.2536  220.0063 H   0  0  0  0  0  0  0  0  0  0  0  0
  141.2698   74.8890  222.3256 H   0  0  0  0  0  0  0  0  0  0  0  0
  139.4440   73.4580  223.2250 H   0  0  0  0  0  0  0  0  0  0  0  0
  139.0011   75.5150  223.5212 H   0  0  0  0  0  0  0  0  0  0  0  0
  137.7748   77.9103  222.8361 H   0  0  0  0  0  0  0  0  0  0  0  0
  138.5300   80.2800  222.9364 H   0  0  0  0  0  0  0  0  0  0  0  0
  142.6010   79.0665  222.3604 H   0  0  0  0  0  0  0  0  0  0  0  0
  141.8361   76.7417  222.2643 H   0  0  0  0  0  0  0  0  0  0  0  0
  135.6279   69.8816  223.9295 H   0  0  0  0  0  0  0  0  0  0  0  0
  137.0109   68.3017  225.3037 H   0  0  0  0  0  0  0  0  0  0  0  0
  139.1013   67.7030  226.3736 H   0  0  0  0  0  0  0  0  0  0  0  0
  142.4558   70.3616  226.0659 H   0  0  0  0  0  0  0  0  0  0  0  0
  141.1160   71.9467  224.7124 H   0  0  0  0  0  0  0  0  0  0  0  0
  1  2  2  0
  2  3  1  0
  3  4  1  0
  4  5  1  0
  5  6  2  0
  5  7  1  0
  7  8  1  0
  8  9  1  0
  9 10  1  0
 10 11  1  0
 10 12  1  0
 12 13  1  0
 13 14  2  0
 14 15  1  0
 15 16  2  0
 16 17  1  0
 16 18  1  0
 18 19  2  0
  2 20  1  0
 20 21  2  0
 21 22  1  0
 22 23  2  0
 23 24  1  0
 24 25  2  0
 25 26  1  0
 25 27  1  0
 27 28  2  0
 28 29  1  0
 29 30  2  0
 12  7  1  0
 19 13  1  0
 30 20  1  0
 29 23  1  0
  3 31  1  0
  4 32  1  0
  4 33  1  0
  8 34  1  0
  8 35  1  0
  9 36  1  0
  9 37  1  0
 10 38  1  1
 11 39  1  0
 12 40  1  1
 14 41  1  0
 15 42  1  0
 18 43  1  0
 19 44  1  0
 21 45  1  0
 22 46  1  0
 24 47  1  0
 27 48  1  0
 28 49  1  0
M  END
>  <smiles>  (23) 
O=C(NCC(=O)N1CC[C@H](O)[C@H]1c1ccc(Cl)cc1)c1ccc2cc(F)ccc2n1

>  <score_type>  (23) 
oracle

>  <origin>  (23) 
autodockgpu

>  <m_score__min__energy>  (23) 
-8.7300000000000004

>  <m_primary>  (23) 
energy

>  <rmsd>  (23) 
3.1136182740200797

>  <m_score__min__rmsd>  (23) 
3.1136182740200797

>  <meeko>  (23) 
{"free_energy": -7.35, "intermolecular_energy": -9.14, "internal_energy": -2.95, "cluster_size": 2, "cluster_id": 6, "rank_in_cluster": 1}

>  <energy>  (23) 
-7.44

>  <cluster_rmsd>  (23) 
1.84

>  <cluster>  (23) 
1

$$$$

     RDKit          3D

 49 52  0  0  0  0  0  0  0  0999 V2000
  140.3160   71.7530  221.0280 O   0  0  0  0  0  0  0  0  0  0  0  0
  139.9800   72.2250  222.1680 C   0  0  0  0  0  0  0  0  0  0  0  0
  139.6130   73.5770  222.2170 N   0  0  0  0  0  0  0  0  0  0  0  0
  139.6430   74.3370  220.9680 C   0  0  0  0  0  0  0  0  0  0  0  0
  140.9200   75.0560  220.8410 C   0  0  0  0  0  0  0  0  0  0  0  0
  142.0130   74.4980  221.1400 O   0  0  0  0  0  0  0  0  0  0  0  0
  140.9090   76.3910  220.3790 N   0  0  0  0  0  0  0  0  0  0  0  0
  140.0270   77.0030  219.3840 C   0  0  0  0  0  0  0  0  0  0  0  0
  140.9980   77.8080  218.5630 C   0  0  0  0  0  0  0  0  0  0  0  0
  142.2020   78.0350  219.4600 C   0  0  2  0  0  0  0  0  0  0  0  0
  143.2680   77.2430  218.9840 O   0  0  0  0  0  0  0  0  0  0  0  0
  141.7890   77.4950  220.7910 C   0  0  1  0  0  0  0  0  0  0  0  0
  140.9590   78.3920  221.5990 C   0  0  0  0  0  0  0  0  0  0  0  0
  139.9170   77.8070  222.3280 C   0  0  0  0  0  0  0  0  0  0  0  0
  139.0970   78.6220  223.1150 C   0  0  0  0  0  0  0  0  0  0  0  0
  139.2830   79.9810  223.1970 C   0  0  0  0  0  0  0  0  0  0  0  0
  138.2620   81.0180  224.1800 Cl  0  0  0  0  0  0  0  0  0  0  0  0
  140.3090   80.5610  222.4800 C   0  0  0  0  0  0  0  0  0  0  0  0
  141.1020   79.7400  221.7130 C   0  0  0  0  0  0  0  0  0  0  0  0
  139.9840   71.3740  223.3620 C   0  0  0  0  0  0  0  0  0  0  0  0
  139.4960   70.0760  223.2450 C   0  0  0  0  0  0  0  0  0  0  0  0
  139.5280   69.3210  224.4130 C   0  0  0  0  0  0  0  0  0  0  0  0
  140.0090   69.8200  225.6050 C   0  0  0  0  0  0  0  0  0  0  0  0
  140.0350   69.0590  226.7630 C   0  0  0  0  0  0  0  0  0  0  0  0
  140.5260   69.5870  227.9600 C   0  0  0  0  0  0  0  0  0  0  0  0
  140.5360   68.8050  229.0800 F   0  0  0  0  0  0  0  0  0  0  0  0
  140.9870   70.8890  227.9610 C   0  0  0  0  0  0  0  0  0  0  0  0
  140.9760   71.6770  226.8300 C   0  0  0  0  0  0  0  0  0  0  0  0
  140.4830   71.1210  225.6650 C   0  0  0  0  0  0  0  0  0  0  0  0
  140.4510   71.8480  224.5350 N   0  0  0  0  0  0  0  0  0  0  0  0
  139.3270   74.0200  223.1290 H   0  0  0  0  0  0  0  0  0  0  0  0
  139.5291   73.6462  220.1196 H   0  0  0  0  0  0  0  0  0  0  0  0
  138.8195   75.0663  220.9719 H   0  0  0  0  0  0  0  0  0  0  0  0
  139.5226   76.2399  218.7730 H   0  0  0  0  0  0  0  0  0  0  0  0
  139.2114   77.5991  219.8193 H   0  0  0  0  0  0  0  0  0  0  0  0
  141.2911   77.2516  217.6605 H   0  0  0  0  0  0  0  0  0  0  0  0
  140.5566   78.7577  218.2265 H   0  0  0  0  0  0  0  0  0  0  0  0
  142.5106   79.0902  219.4970 H   0  0  0  0  0  0  0  0  0  0  0  0
  144.0870   77.4140  219.4750 H   0  0  0  0  0  0  0  0  0  0  0  0
  142.6730   77.2732  221.4070 H   0  0  0  0  0  0  0  0  0  0  0  0
  139.7455   76.7214  222.2825 H   0  0  0  0  0  0  0  0  0  0  0  0
  138.2777   78.1608  223.6861 H   0  0  0  0  0  0  0  0  0  0  0  0
  140.4871   81.6457  222.5205 H   0  0  0  0  0  0  0  0  0  0  0  0
  141.9180   80.2115  221.1457 H   0  0  0  0  0  0  0  0  0  0  0  0
  139.1119   69.6751  222.2954 H   0  0  0  0  0  0  0  0  0  0  0  0
  139.1554   68.2864  224.3845 H   0  0  0  0  0  0  0  0  0  0  0  0
  139.6636   68.0239  226.7395 H   0  0  0  0  0  0  0  0  0  0  0  0
  141.3771   71.3125  228.8983 H   0  0  0  0  0  0  0  0  0  0  0  0
  141.3468   72.7124  226.8541 H   0  0  0  0  0  0  0  0  0  0  0  0
  1  2  2  0
  2  3  1  0
  3  4  1  0
  4  5  1  0
  5  6  2  0
  5  7  1  0
  7  8  1  0
  8  9  1  0
  9 10  1  0
 10 11  1  0
 10 12  1  0
 12 13  1  0
 13 14  2  0
 14 15  1  0
 15 16  2  0
 16 17  1  0
 16 18  1  0
 18 19  2  0
  2 20  1  0
 20 21  2  0
 21 22  1  0
 22 23  2  0
 23 24  1  0
 24 25  2  0
 25 26  1  0
 25 27  1  0
 27 28  2  0
 28 29  1  0
 29 30  2  0
 12  7  1  0
 19 13  1  0
 30 20  1  0
 29 23  1  0
  3 31  1  0
  4 32  1  0
  4 33  1  0
  8 34  1  0
  8 35  1  0
  9 36  1  0
  9 37  1  0
 10 38  1  1
 11 39  1  0
 12 40  1  1
 14 41  1  0
 15 42  1  0
 18 43  1  0
 19 44  1  0
 21 45  1  0
 22 46  1  0
 24 47  1  0
 27 48  1  0
 28 49  1  0
M  END
>  <smiles>  (24) 
O=C(NCC(=O)N1CC[C@H](O)[C@H]1c1ccc(Cl)cc1)c1ccc2cc(F)ccc2n1

>  <score_type>  (24) 
oracle

>  <origin>  (24) 
autodockgpu

>  <m_score__min__energy>  (24) 
-8.7300000000000004

>  <m_primary>  (24) 
energy

>  <rmsd>  (24) 
1.842879966301266

>  <m_score__min__rmsd>  (24) 
1.842879966301266

>  <meeko>  (24) 
{"free_energy": -8.34, "intermolecular_energy": -10.13, "internal_energy": -1.28, "cluster_size": 3, "cluster_id": 2, "rank_in_cluster": 1}

>  <energy>  (24) 
-7.43

>  <cluster_rmsd>  (24) 
1.71

>  <cluster>  (24) 
1

$$$$

     RDKit          3D

 49 52  0  0  0  0  0  0  0  0999 V2000
  135.9630   71.5580  221.6330 O   0  0  0  0  0  0  0  0  0  0  0  0
  136.8530   72.0170  222.4290 C   0  0  0  0  0  0  0  0  0  0  0  0
  137.1240   73.3910  222.3620 N   0  0  0  0  0  0  0  0  0  0  0  0
  136.3730   74.1860  221.3930 C   0  0  0  0  0  0  0  0  0  0  0  0
  136.9310   75.5460  221.3100 C   0  0  0  0  0  0  0  0  0  0  0  0
  136.1760   76.5570  221.2690 O   0  0  0  0  0  0  0  0  0  0  0  0
  138.3340   75.7060  221.2740 N   0  0  0  0  0  0  0  0  0  0  0  0
  139.2050   75.8540  220.1070 C   0  0  0  0  0  0  0  0  0  0  0  0
  140.3470   74.9370  220.4540 C   0  0  0  0  0  0  0  0  0  0  0  0
  140.3120   74.7940  221.9650 C   0  0  2  0  0  0  0  0  0  0  0  0
  139.8630   73.4950  222.2810 O   0  0  0  0  0  0  0  0  0  0  0  0
  139.2640   75.7620  222.4120 C   0  0  1  0  0  0  0  0  0  0  0  0
  139.7010   77.1570  222.5070 C   0  0  0  0  0  0  0  0  0  0  0  0
  141.0660   77.3810  222.7190 C   0  0  0  0  0  0  0  0  0  0  0  0
  141.5320   78.6960  222.8170 C   0  0  0  0  0  0  0  0  0  0  0  0
  140.6910   79.7770  222.7120 C   0  0  0  0  0  0  0  0  0  0  0  0
  141.2600   81.4340  222.8330 Cl  0  0  0  0  0  0  0  0  0  0  0  0
  139.3450   79.5610  222.5030 C   0  0  0  0  0  0  0  0  0  0  0  0
  138.9100   78.2590  222.4100 C   0  0  0  0  0  0  0  0  0  0  0  0
  137.5490   71.1280  223.3660 C   0  0  0  0  0  0  0  0  0  0  0  0
  136.9810   69.8880  223.6390 C   0  0  0  0  0  0  0  0  0  0  0  0
  137.6900   69.0940  224.5350 C   0  0  0  0  0  0  0  0  0  0  0  0
  138.8740   69.5040  225.1130 C   0  0  0  0  0  0  0  0  0  0  0  0
  139.5720   68.7040  226.0030 C   0  0  0  0  0  0  0  0  0  0  0  0
  140.7690   69.1420  226.5780 C   0  0  0  0  0  0  0  0  0  0  0  0
  141.4280   68.3250  227.4520 F   0  0  0  0  0  0  0  0  0  0  0  0
  141.2400   70.3940  226.2330 C   0  0  0  0  0  0  0  0  0  0  0  0
  140.5740   71.2170  225.3520 C   0  0  0  0  0  0  0  0  0  0  0  0
  139.3940   70.7510  224.8040 C   0  0  0  0  0  0  0  0  0  0  0  0
  138.7070   71.5150  223.9390 N   0  0  0  0  0  0  0  0  0  0  0  0
  137.8470   73.8230  222.9940 H   0  0  0  0  0  0  0  0  0  0  0  0
  136.4343   73.7071  220.4046 H   0  0  0  0  0  0  0  0  0  0  0  0
  135.3232   74.2477  221.7158 H   0  0  0  0  0  0  0  0  0  0  0  0
  138.6981   75.5309  219.1858 H   0  0  0  0  0  0  0  0  0  0  0  0
  139.5121   76.8918  219.9102 H   0  0  0  0  0  0  0  0  0  0  0  0
  140.2125   73.9572  219.9725 H   0  0  0  0  0  0  0  0  0  0  0  0
  141.3105   75.3374  220.1055 H   0  0  0  0  0  0  0  0  0  0  0  0
  141.2931   74.9707  222.4300 H   0  0  0  0  0  0  0  0  0  0  0  0
  139.4060   73.4710  223.1350 H   0  0  0  0  0  0  0  0  0  0  0  0
  138.8988   75.4966  223.4151 H   0  0  0  0  0  0  0  0  0  0  0  0
  141.7628   76.5345  222.8073 H   0  0  0  0  0  0  0  0  0  0  0  0
  142.6053   78.8700  222.9833 H   0  0  0  0  0  0  0  0  0  0  0  0
  138.6420   80.4023  222.4136 H   0  0  0  0  0  0  0  0  0  0  0  0
  137.8349   78.0962  222.2436 H   0  0  0  0  0  0  0  0  0  0  0  0
  136.0378   69.5583  223.1790 H   0  0  0  0  0  0  0  0  0  0  0  0
  137.2915   68.1016  224.7924 H   0  0  0  0  0  0  0  0  0  0  0  0
  139.1788   67.7096  226.2611 H   0  0  0  0  0  0  0  0  0  0  0  0
  142.1819   70.7467  226.6784 H   0  0  0  0  0  0  0  0  0  0  0  0
  140.9678   72.2110  225.0935 H   0  0  0  0  0  0  0  0  0  0  0  0
  1  2  2  0
  2  3  1  0
  3  4  1  0
  4  5  1  0
  5  6  2  0
  5  7  1  0
  7  8  1  0
  8  9  1  0
  9 10  1  0
 10 11  1  0
 10 12  1  0
 12 13  1  0
 13 14  2  0
 14 15  1  0
 15 16  2  0
 16 17  1  0
 16 18  1  0
 18 19  2  0
  2 20  1  0
 20 21  2  0
 21 22  1  0
 22 23  2  0
 23 24  1  0
 24 25  2  0
 25 26  1  0
 25 27  1  0
 27 28  2  0
 28 29  1  0
 29 30  2  0
 12  7  1  0
 19 13  1  0
 30 20  1  0
 29 23  1  0
  3 31  1  0
  4 32  1  0
  4 33  1  0
  8 34  1  0
  8 35  1  0
  9 36  1  0
  9 37  1  0
 10 38  1  1
 11 39  1  0
 12 40  1  1
 14 41  1  0
 15 42  1  0
 18 43  1  0
 19 44  1  0
 21 45  1  0
 22 46  1  0
 24 47  1  0
 27 48  1  0
 28 49  1  0
M  END
>  <smiles>  (25) 
O=C(NCC(=O)N1CC[C@H](O)[C@H]1c1ccc(Cl)cc1)c1ccc2cc(F)ccc2n1

>  <score_type>  (25) 
oracle

>  <origin>  (25) 
autodockgpu

>  <m_score__min__energy>  (25) 
-8.7300000000000004

>  <m_primary>  (25) 
energy

>  <rmsd>  (25) 
2.9327009319414374

>  <m_score__min__rmsd>  (25) 
2.9327009319414374

>  <meeko>  (25) 
{"free_energy": -7.47, "intermolecular_energy": -9.26, "internal_energy": -2.99, "cluster_size": 36, "cluster_id": 1, "rank_in_cluster": 22}

>  <energy>  (25) 
-7.42

>  <cluster_rmsd>  (25) 
1.59

>  <cluster>  (25) 
1

$$$$

     RDKit          3D

 49 52  0  0  0  0  0  0  0  0999 V2000
  141.2320   72.6860  222.0220 O   0  0  0  0  0  0  0  0  0  0  0  0
  140.1450   72.5180  222.6760 C   0  0  0  0  0  0  0  0  0  0  0  0
  139.0470   73.3050  222.3030 N   0  0  0  0  0  0  0  0  0  0  0  0
  139.2290   74.2500  221.2030 C   0  0  0  0  0  0  0  0  0  0  0  0
  138.9810   75.6250  221.6670 C   0  0  0  0  0  0  0  0  0  0  0  0
  138.2220   75.8510  222.6510 O   0  0  0  0  0  0  0  0  0  0  0  0
  139.6070   76.6960  220.9930 N   0  0  0  0  0  0  0  0  0  0  0  0
  138.9860   77.8390  220.3220 C   0  0  0  0  0  0  0  0  0  0  0  0
  139.7800   77.9190  219.0460 C   0  0  0  0  0  0  0  0  0  0  0  0
  141.0940   77.2160  219.3380 C   0  0  2  0  0  0  0  0  0  0  0  0
  141.1040   75.9840  218.6500 O   0  0  0  0  0  0  0  0  0  0  0  0
  141.0480   76.9220  220.8020 C   0  0  1  0  0  0  0  0  0  0  0  0
  141.4010   78.0440  221.6770 C   0  0  0  0  0  0  0  0  0  0  0  0
  141.8300   79.2210  221.0550 C   0  0  0  0  0  0  0  0  0  0  0  0
  142.1770   80.3200  221.8480 C   0  0  0  0  0  0  0  0  0  0  0  0
  142.1100   80.2800  223.2190 C   0  0  0  0  0  0  0  0  0  0  0  0
  142.5430   81.6510  224.2280 Cl  0  0  0  0  0  0  0  0  0  0  0  0
  141.6860   79.1210  223.8360 C   0  0  0  0  0  0  0  0  0  0  0  0
  141.3510   78.0540  223.0360 C   0  0  0  0  0  0  0  0  0  0  0  0
  140.0700   71.5380  223.7650 C   0  0  0  0  0  0  0  0  0  0  0  0
  139.4630   70.3140  223.5050 C   0  0  0  0  0  0  0  0  0  0  0  0
  139.4250   69.4300  224.5790 C   0  0  0  0  0  0  0  0  0  0  0  0
  139.9510   69.7430  225.8150 C   0  0  0  0  0  0  0  0  0  0  0  0
  139.9070   68.8540  226.8780 C   0  0  0  0  0  0  0  0  0  0  0  0
  140.4450   69.1930  228.1220 C   0  0  0  0  0  0  0  0  0  0  0  0
  140.3830   68.2910  229.1460 F   0  0  0  0  0  0  0  0  0  0  0  0
  141.0250   70.4390  228.2670 C   0  0  0  0  0  0  0  0  0  0  0  0
  141.0870   71.3490  227.2330 C   0  0  0  0  0  0  0  0  0  0  0  0
  140.5440   70.9780  226.0180 C   0  0  0  0  0  0  0  0  0  0  0  0
  140.5800   71.8290  224.9790 N   0  0  0  0  0  0  0  0  0  0  0  0
  138.1260   73.2090  222.8060 H   0  0  0  0  0  0  0  0  0  0  0  0
  140.2595   74.1742  220.8258 H   0  0  0  0  0  0  0  0  0  0  0  0
  138.5164   74.0081  220.4007 H   0  0  0  0  0  0  0  0  0  0  0  0
  137.9208   77.6537  220.1194 H   0  0  0  0  0  0  0  0  0  0  0  0
  139.0030   78.7654  220.9149 H   0  0  0  0  0  0  0  0  0  0  0  0
  139.2462   77.4114  218.2291 H   0  0  0  0  0  0  0  0  0  0  0  0
  139.9372   78.9605  218.7291 H   0  0  0  0  0  0  0  0  0  0  0  0
  141.9691   77.8134  219.0426 H   0  0  0  0  0  0  0  0  0  0  0  0
  140.6590   76.0510  217.7900 H   0  0  0  0  0  0  0  0  0  0  0  0
  141.7533   76.1165  221.0543 H   0  0  0  0  0  0  0  0  0  0  0  0
  141.8936   79.2816  219.9585 H   0  0  0  0  0  0  0  0  0  0  0  0
  142.5141   81.2453  221.3579 H   0  0  0  0  0  0  0  0  0  0  0  0
  141.6182   79.0528  224.9318 H   0  0  0  0  0  0  0  0  0  0  0  0
  141.0152   77.1335  223.5360 H   0  0  0  0  0  0  0  0  0  0  0  0
  139.0427   70.0625  222.5201 H   0  0  0  0  0  0  0  0  0  0  0  0
  138.9578   68.4443  224.4369 H   0  0  0  0  0  0  0  0  0  0  0  0
  139.4415   67.8670  226.7399 H   0  0  0  0  0  0  0  0  0  0  0  0
  141.4525   70.7147  229.2423 H   0  0  0  0  0  0  0  0  0  0  0  0
  141.5526   72.3360  227.3707 H   0  0  0  0  0  0  0  0  0  0  0  0
  1  2  2  0
  2  3  1  0
  3  4  1  0
  4  5  1  0
  5  6  2  0
  5  7  1  0
  7  8  1  0
  8  9  1  0
  9 10  1  0
 10 11  1  0
 10 12  1  0
 12 13  1  0
 13 14  2  0
 14 15  1  0
 15 16  2  0
 16 17  1  0
 16 18  1  0
 18 19  2  0
  2 20  1  0
 20 21  2  0
 21 22  1  0
 22 23  2  0
 23 24  1  0
 24 25  2  0
 25 26  1  0
 25 27  1  0
 27 28  2  0
 28 29  1  0
 29 30  2  0
 12  7  1  0
 19 13  1  0
 30 20  1  0
 29 23  1  0
  3 31  1  0
  4 32  1  0
  4 33  1  0
  8 34  1  0
  8 35  1  0
  9 36  1  0
  9 37  1  0
 10 38  1  1
 11 39  1  0
 12 40  1  6
 14 41  1  0
 15 42  1  0
 18 43  1  0
 19 44  1  0
 21 45  1  0
 22 46  1  0
 24 47  1  0
 27 48  1  0
 28 49  1  0
M  END
>  <smiles>  (26) 
O=C(NCC(=O)N1CC[C@H](O)[C@H]1c1ccc(Cl)cc1)c1ccc2cc(F)ccc2n1

>  <score_type>  (26) 
oracle

>  <origin>  (26) 
autodockgpu

>  <m_score__min__energy>  (26) 
-8.7300000000000004

>  <m_primary>  (26) 
energy

>  <rmsd>  (26) 
1.909276968399125

>  <m_score__min__rmsd>  (26) 
1.909276968399125

>  <meeko>  (26) 
{"free_energy": -8.55, "intermolecular_energy": -10.34, "internal_energy": -1.38, "cluster_size": 36, "cluster_id": 1, "rank_in_cluster": 2}

>  <energy>  (26) 
-7.41

>  <cluster_rmsd>  (26) 
1.76

>  <cluster>  (26) 
1

$$$$

     RDKit          3D

 49 52  0  0  0  0  0  0  0  0999 V2000
  135.8640   72.1300  221.7360 O   0  0  0  0  0  0  0  0  0  0  0  0
  136.9030   72.4080  222.4270 C   0  0  0  0  0  0  0  0  0  0  0  0
  137.3790   73.7250  222.3650 N   0  0  0  0  0  0  0  0  0  0  0  0
  136.6540   74.6720  221.5180 C   0  0  0  0  0  0  0  0  0  0  0  0
  137.5270   75.1590  220.4380 C   0  0  0  0  0  0  0  0  0  0  0  0
  137.0750   75.3500  219.2740 O   0  0  0  0  0  0  0  0  0  0  0  0
  138.8870   75.4110  220.7210 N   0  0  0  0  0  0  0  0  0  0  0  0
  140.0120   75.4990  219.7870 C   0  0  0  0  0  0  0  0  0  0  0  0
  141.0710   74.7040  220.5030 C   0  0  0  0  0  0  0  0  0  0  0  0
  140.6710   74.7150  221.9670 C   0  0  2  0  0  0  0  0  0  0  0  0
  140.2130   73.4270  222.3150 O   0  0  0  0  0  0  0  0  0  0  0  0
  139.5060   75.6490  222.0340 C   0  0  1  0  0  0  0  0  0  0  0  0
  139.8470   77.0730  222.0680 C   0  0  0  0  0  0  0  0  0  0  0  0
  141.0520   77.4220  222.6880 C   0  0  0  0  0  0  0  0  0  0  0  0
  141.4210   78.7700  222.7450 C   0  0  0  0  0  0  0  0  0  0  0  0
  140.6370   79.7640  222.2120 C   0  0  0  0  0  0  0  0  0  0  0  0
  141.0860   81.4600  222.2760 Cl  0  0  0  0  0  0  0  0  0  0  0  0
  139.4490   79.4240  221.5990 C   0  0  0  0  0  0  0  0  0  0  0  0
  139.1060   78.0920  221.5550 C   0  0  0  0  0  0  0  0  0  0  0  0
  137.5550   71.3800  223.2460 C   0  0  0  0  0  0  0  0  0  0  0  0
  136.8990   70.1660  223.4200 C   0  0  0  0  0  0  0  0  0  0  0  0
  137.5710   69.2350  224.2060 C   0  0  0  0  0  0  0  0  0  0  0  0
  138.8010   69.4940  224.7740 C   0  0  0  0  0  0  0  0  0  0  0  0
  139.4610   68.5590  225.5550 C   0  0  0  0  0  0  0  0  0  0  0  0
  140.7070   68.8450  226.1210 C   0  0  0  0  0  0  0  0  0  0  0  0
  141.3260   67.8970  226.8850 F   0  0  0  0  0  0  0  0  0  0  0  0
  141.2650   70.0850  225.8810 C   0  0  0  0  0  0  0  0  0  0  0  0
  140.6390   71.0400  225.1100 C   0  0  0  0  0  0  0  0  0  0  0  0
  139.4090   70.7220  224.5670 C   0  0  0  0  0  0  0  0  0  0  0  0
  138.7580   71.6190  223.8070 N   0  0  0  0  0  0  0  0  0  0  0  0
  138.2320   74.0120  222.9130 H   0  0  0  0  0  0  0  0  0  0  0  0
  135.7785   74.1708  221.0795 H   0  0  0  0  0  0  0  0  0  0  0  0
  136.3299   75.5263  222.1305 H   0  0  0  0  0  0  0  0  0  0  0  0
  139.7617   75.0484  218.8152 H   0  0  0  0  0  0  0  0  0  0  0  0
  140.3137   76.5298  219.5496 H   0  0  0  0  0  0  0  0  0  0  0  0
  141.1008   73.6729  220.1210 H   0  0  0  0  0  0  0  0  0  0  0  0
  142.0728   75.1325  220.3520 H   0  0  0  0  0  0  0  0  0  0  0  0
  141.4990   75.0060  222.6301 H   0  0  0  0  0  0  0  0  0  0  0  0
  139.6220   73.4520  223.0840 H   0  0  0  0  0  0  0  0  0  0  0  0
  138.9170   75.4642  222.9444 H   0  0  0  0  0  0  0  0  0  0  0  0
  141.6997   76.6474  223.1243 H   0  0  0  0  0  0  0  0  0  0  0  0
  142.3689   79.0427  223.2320 H   0  0  0  0  0  0  0  0  0  0  0  0
  138.7967   80.1929  221.1594 H   0  0  0  0  0  0  0  0  0  0  0  0
  138.1563   77.8302  221.0656 H   0  0  0  0  0  0  0  0  0  0  0  0
  135.9182   69.9566  222.9682 H   0  0  0  0  0  0  0  0  0  0  0  0
  137.1034   68.2549  224.3811 H   0  0  0  0  0  0  0  0  0  0  0  0
  138.9978   67.5772  225.7323 H   0  0  0  0  0  0  0  0  0  0  0  0
  142.2454   70.3190  226.3216 H   0  0  0  0  0  0  0  0  0  0  0  0
  141.1025   72.0217  224.9329 H   0  0  0  0  0  0  0  0  0  0  0  0
  1  2  2  0
  2  3  1  0
  3  4  1  0
  4  5  1  0
  5  6  2  0
  5  7  1  0
  7  8  1  0
  8  9  1  0
  9 10  1  0
 10 11  1  0
 10 12  1  0
 12 13  1  0
 13 14  2  0
 14 15  1  0
 15 16  2  0
 16 17  1  0
 16 18  1  0
 18 19  2  0
  2 20  1  0
 20 21  2  0
 21 22  1  0
 22 23  2  0
 23 24  1  0
 24 25  2  0
 25 26  1  0
 25 27  1  0
 27 28  2  0
 28 29  1  0
 29 30  2  0
 12  7  1  0
 19 13  1  0
 30 20  1  0
 29 23  1  0
  3 31  1  0
  4 32  1  0
  4 33  1  0
  8 34  1  0
  8 35  1  0
  9 36  1  0
  9 37  1  0
 10 38  1  1
 11 39  1  0
 12 40  1  1
 14 41  1  0
 15 42  1  0
 18 43  1  0
 19 44  1  0
 21 45  1  0
 22 46  1  0
 24 47  1  0
 27 48  1  0
 28 49  1  0
M  END
>  <smiles>  (27) 
O=C(NCC(=O)N1CC[C@H](O)[C@H]1c1ccc(Cl)cc1)c1ccc2cc(F)ccc2n1

>  <score_type>  (27) 
oracle

>  <origin>  (27) 
autodockgpu

>  <m_score__min__energy>  (27) 
-8.7300000000000004

>  <m_primary>  (27) 
energy

>  <rmsd>  (27) 
2.9552951063726276

>  <m_score__min__rmsd>  (27) 
2.9552951063726276

>  <meeko>  (27) 
{"free_energy": -6.89, "intermolecular_energy": -8.68, "internal_energy": -2.99, "cluster_size": 36, "cluster_id": 1, "rank_in_cluster": 33}

>  <energy>  (27) 
-7.39

>  <cluster_rmsd>  (27) 
1.96

>  <cluster>  (27) 
1

$$$$

     RDKit          3D

 49 52  0  0  0  0  0  0  0  0999 V2000
  135.6800   72.0760  222.0160 O   0  0  0  0  0  0  0  0  0  0  0  0
  136.8080   72.3200  222.5670 C   0  0  0  0  0  0  0  0  0  0  0  0
  137.3370   73.6070  222.4000 N   0  0  0  0  0  0  0  0  0  0  0  0
  136.5620   74.5640  221.6110 C   0  0  0  0  0  0  0  0  0  0  0  0
  137.3930   75.1260  220.5340 C   0  0  0  0  0  0  0  0  0  0  0  0
  136.8990   75.3900  219.4030 O   0  0  0  0  0  0  0  0  0  0  0  0
  138.7620   75.3690  220.7850 N   0  0  0  0  0  0  0  0  0  0  0  0
  139.8610   75.4700  219.8230 C   0  0  0  0  0  0  0  0  0  0  0  0
  140.9360   74.6580  220.4940 C   0  0  0  0  0  0  0  0  0  0  0  0
  140.5760   74.6420  221.9690 C   0  0  2  0  0  0  0  0  0  0  0  0
  140.1240   73.3490  222.3040 O   0  0  0  0  0  0  0  0  0  0  0  0
  139.4170   75.5780  222.0850 C   0  0  1  0  0  0  0  0  0  0  0  0
  139.7640   77.0010  222.1370 C   0  0  0  0  0  0  0  0  0  0  0  0
  141.0480   77.3240  222.5920 C   0  0  0  0  0  0  0  0  0  0  0  0
  141.4260   78.6690  222.6590 C   0  0  0  0  0  0  0  0  0  0  0  0
  140.5770   79.6840  222.2930 C   0  0  0  0  0  0  0  0  0  0  0  0
  141.0370   81.3770  222.3710 Cl  0  0  0  0  0  0  0  0  0  0  0  0
  139.3110   79.3700  221.8430 C   0  0  0  0  0  0  0  0  0  0  0  0
  138.9620   78.0410  221.7860 C   0  0  0  0  0  0  0  0  0  0  0  0
  137.5030   71.2850  223.3400 C   0  0  0  0  0  0  0  0  0  0  0  0
  136.8970   70.0390  223.4630 C   0  0  0  0  0  0  0  0  0  0  0  0
  137.6080   69.1020  224.2070 C   0  0  0  0  0  0  0  0  0  0  0  0
  138.8280   69.3860  224.7840 C   0  0  0  0  0  0  0  0  0  0  0  0
  139.5270   68.4450  225.5230 C   0  0  0  0  0  0  0  0  0  0  0  0
  140.7620   68.7560  226.0990 C   0  0  0  0  0  0  0  0  0  0  0  0
  141.4220   67.8030  226.8210 F   0  0  0  0  0  0  0  0  0  0  0  0
  141.2700   70.0270  225.9120 C   0  0  0  0  0  0  0  0  0  0  0  0
  140.6040   70.9890  225.1830 C   0  0  0  0  0  0  0  0  0  0  0  0
  139.3860   70.6450  224.6290 C   0  0  0  0  0  0  0  0  0  0  0  0
  138.6970   71.5470  223.9100 N   0  0  0  0  0  0  0  0  0  0  0  0
  138.2630   73.8650  222.8310 H   0  0  0  0  0  0  0  0  0  0  0  0
  135.6934   74.0527  221.1705 H   0  0  0  0  0  0  0  0  0  0  0  0
  136.2246   75.3800  222.2669 H   0  0  0  0  0  0  0  0  0  0  0  0
  139.5822   75.0387  218.8502 H   0  0  0  0  0  0  0  0  0  0  0  0
  140.1605   76.5040  219.5971 H   0  0  0  0  0  0  0  0  0  0  0  0
  140.9514   73.6344  220.0915 H   0  0  0  0  0  0  0  0  0  0  0  0
  141.9349   75.0860  220.3238 H   0  0  0  0  0  0  0  0  0  0  0  0
  141.4222   74.9178  222.6154 H   0  0  0  0  0  0  0  0  0  0  0  0
  139.5870   73.3560  223.1130 H   0  0  0  0  0  0  0  0  0  0  0  0
  138.8524   75.3764  223.0073 H   0  0  0  0  0  0  0  0  0  0  0  0
  141.7493   76.5316  222.8924 H   0  0  0  0  0  0  0  0  0  0  0  0
  142.4353   78.9215  223.0162 H   0  0  0  0  0  0  0  0  0  0  0  0
  138.6043   80.1566  221.5399 H   0  0  0  0  0  0  0  0  0  0  0  0
  137.9507   77.7997  221.4268 H   0  0  0  0  0  0  0  0  0  0  0  0
  135.9238   69.8102  223.0043 H   0  0  0  0  0  0  0  0  0  0  0  0
  137.1808   68.0971  224.3398 H   0  0  0  0  0  0  0  0  0  0  0  0
  139.1038   67.4387  225.6583 H   0  0  0  0  0  0  0  0  0  0  0  0
  142.2415   70.2807  226.3613 H   0  0  0  0  0  0  0  0  0  0  0  0
  141.0274   71.9951  225.0472 H   0  0  0  0  0  0  0  0  0  0  0  0
  1  2  2  0
  2  3  1  0
  3  4  1  0
  4  5  1  0
  5  6  2  0
  5  7  1  0
  7  8  1  0
  8  9  1  0
  9 10  1  0
 10 11  1  0
 10 12  1  0
 12 13  1  0
 13 14  2  0
 14 15  1  0
 15 16  2  0
 16 17  1  0
 16 18  1  0
 18 19  2  0
  2 20  1  0
 20 21  2  0
 21 22  1  0
 22 23  2  0
 23 24  1  0
 24 25  2  0
 25 26  1  0
 25 27  1  0
 27 28  2  0
 28 29  1  0
 29 30  2  0
 12  7  1  0
 19 13  1  0
 30 20  1  0
 29 23  1  0
  3 31  1  0
  4 32  1  0
  4 33  1  0
  8 34  1  0
  8 35  1  0
  9 36  1  0
  9 37  1  0
 10 38  1  1
 11 39  1  0
 12 40  1  1
 14 41  1  0
 15 42  1  0
 18 43  1  0
 19 44  1  0
 21 45  1  0
 22 46  1  0
 24 47  1  0
 27 48  1  0
 28 49  1  0
M  END
>  <smiles>  (28) 
O=C(NCC(=O)N1CC[C@H](O)[C@H]1c1ccc(Cl)cc1)c1ccc2cc(F)ccc2n1

>  <score_type>  (28) 
oracle

>  <origin>  (28) 
autodockgpu

>  <m_score__min__energy>  (28) 
-8.7300000000000004

>  <m_primary>  (28) 
energy

>  <rmsd>  (28) 
2.976249659739063

>  <m_score__min__rmsd>  (28) 
2.976249659739063

>  <meeko>  (28) 
{"free_energy": -6.91, "intermolecular_energy": -8.7, "internal_energy": -2.97, "cluster_size": 36, "cluster_id": 1, "rank_in_cluster": 30}

>  <energy>  (28) 
-7.24

>  <cluster_rmsd>  (28) 
1.85

>  <cluster>  (28) 
1

$$$$

     RDKit          3D

 49 52  0  0  0  0  0  0  0  0999 V2000
  136.3450   71.2910  221.4540 O   0  0  0  0  0  0  0  0  0  0  0  0
  137.1530   71.8140  222.2960 C   0  0  0  0  0  0  0  0  0  0  0  0
  137.3740   73.1950  222.1980 N   0  0  0  0  0  0  0  0  0  0  0  0
  136.6690   73.9240  221.1450 C   0  0  0  0  0  0  0  0  0  0  0  0
  137.1920   75.2960  221.0390 C   0  0  0  0  0  0  0  0  0  0  0  0
  136.4130   76.2790  220.8930 O   0  0  0  0  0  0  0  0  0  0  0  0
  138.5880   75.5000  221.1010 N   0  0  0  0  0  0  0  0  0  0  0  0
  139.5400   75.6340  219.9960 C   0  0  0  0  0  0  0  0  0  0  0  0
  140.6790   74.7680  220.4630 C   0  0  0  0  0  0  0  0  0  0  0  0
  140.5350   74.6800  221.9720 C   0  0  2  0  0  0  0  0  0  0  0  0
  140.1020   73.3790  222.3040 O   0  0  0  0  0  0  0  0  0  0  0  0
  139.4280   75.6280  222.3010 C   0  0  1  0  0  0  0  0  0  0  0  0
  139.8150   77.0400  222.3740 C   0  0  0  0  0  0  0  0  0  0  0  0
  141.1250   77.3180  222.7790 C   0  0  0  0  0  0  0  0  0  0  0  0
  141.5420   78.6500  222.8640 C   0  0  0  0  0  0  0  0  0  0  0  0
  140.7050   79.6960  222.5630 C   0  0  0  0  0  0  0  0  0  0  0  0
  141.2120   81.3740  222.6650 Cl  0  0  0  0  0  0  0  0  0  0  0  0
  139.4120   79.4260  222.1630 C   0  0  0  0  0  0  0  0  0  0  0  0
  139.0250   78.1090  222.0870 C   0  0  0  0  0  0  0  0  0  0  0  0
  137.8090   70.9890  223.3160 C   0  0  0  0  0  0  0  0  0  0  0  0
  137.3210   69.7050  223.5360 C   0  0  0  0  0  0  0  0  0  0  0  0
  137.9870   68.9750  224.5150 C   0  0  0  0  0  0  0  0  0  0  0  0
  139.0570   69.4860  225.2200 C   0  0  0  0  0  0  0  0  0  0  0  0
  139.7130   68.7490  226.1940 C   0  0  0  0  0  0  0  0  0  0  0  0
  140.7950   69.2880  226.8960 C   0  0  0  0  0  0  0  0  0  0  0  0
  141.4160   68.5310  227.8490 F   0  0  0  0  0  0  0  0  0  0  0  0
  141.1950   70.5750  226.5950 C   0  0  0  0  0  0  0  0  0  0  0  0
  140.5670   71.3380  225.6340 C   0  0  0  0  0  0  0  0  0  0  0  0
  139.5020   70.7720  224.9600 C   0  0  0  0  0  0  0  0  0  0  0  0
  138.8560   71.4740  224.0140 N   0  0  0  0  0  0  0  0  0  0  0  0
  138.0290   73.6800  222.8650 H   0  0  0  0  0  0  0  0  0  0  0  0
  136.8123   73.4054  220.1856 H   0  0  0  0  0  0  0  0  0  0  0  0
  135.5981   73.9662  221.3928 H   0  0  0  0  0  0  0  0  0  0  0  0
  139.1139   75.2609  219.0530 H   0  0  0  0  0  0  0  0  0  0  0  0
  139.8298   76.6733  219.7817 H   0  0  0  0  0  0  0  0  0  0  0  0
  140.6100   73.7671  220.0119 H   0  0  0  0  0  0  0  0  0  0  0  0
  141.6537   75.1864  220.1715 H   0  0  0  0  0  0  0  0  0  0  0  0
  141.4724   74.9060  222.5014 H   0  0  0  0  0  0  0  0  0  0  0  0
  139.5740   73.3730  223.1170 H   0  0  0  0  0  0  0  0  0  0  0  0
  138.9961   75.3873  223.2836 H   0  0  0  0  0  0  0  0  0  0  0  0
  141.8174   76.5000  223.0272 H   0  0  0  0  0  0  0  0  0  0  0  0
  142.5726   78.8666  223.1819 H   0  0  0  0  0  0  0  0  0  0  0  0
  138.7137   80.2383  221.9131 H   0  0  0  0  0  0  0  0  0  0  0  0
  137.9925   77.9033  221.7682 H   0  0  0  0  0  0  0  0  0  0  0  0
  136.4680   69.2956  222.9749 H   0  0  0  0  0  0  0  0  0  0  0  0
  137.6478   67.9520  224.7353 H   0  0  0  0  0  0  0  0  0  0  0  0
  139.3773   67.7256  226.4175 H   0  0  0  0  0  0  0  0  0  0  0  0
  142.0459   71.0071  227.1421 H   0  0  0  0  0  0  0  0  0  0  0  0
  140.9021   72.3618  225.4115 H   0  0  0  0  0  0  0  0  0  0  0  0
  1  2  2  0
  2  3  1  0
  3  4  1  0
  4  5  1  0
  5  6  2  0
  5  7  1  0
  7  8  1  0
  8  9  1  0
  9 10  1  0
 10 11  1  0
 10 12  1  0
 12 13  1  0
 13 14  2  0
 14 15  1  0
 15 16  2  0
 16 17  1  0
 16 18  1  0
 18 19  2  0
  2 20  1  0
 20 21  2  0
 21 22  1  0
 22 23  2  0
 23 24  1  0
 24 25  2  0
 25 26  1  0
 25 27  1  0
 27 28  2  0
 28 29  1  0
 29 30  2  0
 12  7  1  0
 19 13  1  0
 30 20  1  0
 29 23  1  0
  3 31  1  0
  4 32  1  0
  4 33  1  0
  8 34  1  0
  8 35  1  0
  9 36  1  0
  9 37  1  0
 10 38  1  1
 11 39  1  0
 12 40  1  1
 14 41  1  0
 15 42  1  0
 18 43  1  0
 19 44  1  0
 21 45  1  0
 22 46  1  0
 24 47  1  0
 27 48  1  0
 28 49  1  0
M  END
>  <smiles>  (29) 
O=C(NCC(=O)N1CC[C@H](O)[C@H]1c1ccc(Cl)cc1)c1ccc2cc(F)ccc2n1

>  <score_type>  (29) 
oracle

>  <origin>  (29) 
autodockgpu

>  <m_score__min__energy>  (29) 
-8.7300000000000004

>  <m_primary>  (29) 
energy

>  <rmsd>  (29) 
2.7759853878861835

>  <m_score__min__rmsd>  (29) 
2.7759853878861835

>  <meeko>  (29) 
{"free_energy": -7.43, "intermolecular_energy": -9.22, "internal_energy": -3.01, "cluster_size": 36, "cluster_id": 1, "rank_in_cluster": 24}

>  <energy>  (29) 
-6.94

>  <cluster_rmsd>  (29) 
1.81

>  <cluster>  (29) 
1

$$$$

     RDKit          3D

 49 52  0  0  0  0  0  0  0  0999 V2000
  135.8170   72.0620  221.8140 O   0  0  0  0  0  0  0  0  0  0  0  0
  136.8760   72.3410  222.4750 C   0  0  0  0  0  0  0  0  0  0  0  0
  137.3610   73.6530  222.3850 N   0  0  0  0  0  0  0  0  0  0  0  0
  136.6220   74.5950  221.5460 C   0  0  0  0  0  0  0  0  0  0  0  0
  137.4850   75.0980  220.4650 C   0  0  0  0  0  0  0  0  0  0  0  0
  137.0270   75.2890  219.3040 O   0  0  0  0  0  0  0  0  0  0  0  0
  138.8420   75.3670  220.7450 N   0  0  0  0  0  0  0  0  0  0  0  0
  139.9610   75.4840  219.8080 C   0  0  0  0  0  0  0  0  0  0  0  0
  141.0350   74.6950  220.5060 C   0  0  0  0  0  0  0  0  0  0  0  0
  140.6420   74.6780  221.9730 C   0  0  2  0  0  0  0  0  0  0  0  0
  140.2060   73.3790  222.3040 O   0  0  0  0  0  0  0  0  0  0  0  0
  139.4640   75.5930  222.0590 C   0  0  1  0  0  0  0  0  0  0  0  0
  139.7840   77.0230  222.1120 C   0  0  0  0  0  0  0  0  0  0  0  0
  141.0410   77.3720  222.6180 C   0  0  0  0  0  0  0  0  0  0  0  0
  141.3930   78.7240  222.6890 C   0  0  0  0  0  0  0  0  0  0  0  0
  140.5430   79.7210  222.2770 C   0  0  0  0  0  0  0  0  0  0  0  0
  140.9700   81.4220  222.3600 Cl  0  0  0  0  0  0  0  0  0  0  0  0
  139.3030   79.3800  221.7770 C   0  0  0  0  0  0  0  0  0  0  0  0
  138.9790   78.0450  221.7180 C   0  0  0  0  0  0  0  0  0  0  0  0
  137.5410   71.3180  223.2900 C   0  0  0  0  0  0  0  0  0  0  0  0
  136.8920   70.1010  223.4730 C   0  0  0  0  0  0  0  0  0  0  0  0
  137.5760   69.1740  224.2540 C   0  0  0  0  0  0  0  0  0  0  0  0
  138.8110   69.4400  224.8090 C   0  0  0  0  0  0  0  0  0  0  0  0
  139.4820   68.5100  225.5860 C   0  0  0  0  0  0  0  0  0  0  0  0
  140.7320   68.8020  226.1390 C   0  0  0  0  0  0  0  0  0  0  0  0
  141.3630   67.8600  226.8990 F   0  0  0  0  0  0  0  0  0  0  0  0
  141.2830   70.0450  225.8910 C   0  0  0  0  0  0  0  0  0  0  0  0
  140.6450   70.9960  225.1240 C   0  0  0  0  0  0  0  0  0  0  0  0
  139.4110   70.6710  224.5940 C   0  0  0  0  0  0  0  0  0  0  0  0
  138.7480   71.5630  223.8390 N   0  0  0  0  0  0  0  0  0  0  0  0
  138.2290   73.9390  222.9080 H   0  0  0  0  0  0  0  0  0  0  0  0
  135.7508   74.0856  221.1083 H   0  0  0  0  0  0  0  0  0  0  0  0
  136.2902   75.4423  222.1641 H   0  0  0  0  0  0  0  0  0  0  0  0
  139.7123   75.0438  218.8311 H   0  0  0  0  0  0  0  0  0  0  0  0
  140.2468   76.5225  219.5849 H   0  0  0  0  0  0  0  0  0  0  0  0
  141.0784   73.6703  220.1083 H   0  0  0  0  0  0  0  0  0  0  0  0
  142.0295   75.1407  220.3564 H   0  0  0  0  0  0  0  0  0  0  0  0
  141.4687   74.9715  222.6366 H   0  0  0  0  0  0  0  0  0  0  0  0
  139.6160   73.3840  223.0740 H   0  0  0  0  0  0  0  0  0  0  0  0
  138.8828   75.3848  222.9694 H   0  0  0  0  0  0  0  0  0  0  0  0
  141.7423   76.5944  222.9551 H   0  0  0  0  0  0  0  0  0  0  0  0
  142.3814   78.9971  223.0872 H   0  0  0  0  0  0  0  0  0  0  0  0
  138.5964   80.1513  221.4366 H   0  0  0  0  0  0  0  0  0  0  0  0
  137.9878   77.7827  221.3196 H   0  0  0  0  0  0  0  0  0  0  0  0
  135.9076   69.8866  223.0315 H   0  0  0  0  0  0  0  0  0  0  0  0
  137.1146   68.1921  224.4357 H   0  0  0  0  0  0  0  0  0  0  0  0
  139.0242   67.5270  225.7706 H   0  0  0  0  0  0  0  0  0  0  0  0
  142.2666   70.2841  226.3215 H   0  0  0  0  0  0  0  0  0  0  0  0
  141.1023   71.9794  224.9402 H   0  0  0  0  0  0  0  0  0  0  0  0
  1  2  2  0
  2  3  1  0
  3  4  1  0
  4  5  1  0
  5  6  2  0
  5  7  1  0
  7  8  1  0
  8  9  1  0
  9 10  1  0
 10 11  1  0
 10 12  1  0
 12 13  1  0
 13 14  2  0
 14 15  1  0
 15 16  2  0
 16 17  1  0
 16 18  1  0
 18 19  2  0
  2 20  1  0
 20 21  2  0
 21 22  1  0
 22 23  2  0
 23 24  1  0
 24 25  2  0
 25 26  1  0
 25 27  1  0
 27 28  2  0
 28 29  1  0
 29 30  2  0
 12  7  1  0
 19 13  1  0
 30 20  1  0
 29 23  1  0
  3 31  1  0
  4 32  1  0
  4 33  1  0
  8 34  1  0
  8 35  1  0
  9 36  1  0
  9 37  1  0
 10 38  1  1
 11 39  1  0
 12 40  1  1
 14 41  1  0
 15 42  1  0
 18 43  1  0
 19 44  1  0
 21 45  1  0
 22 46  1  0
 24 47  1  0
 27 48  1  0
 28 49  1  0
M  END
>  <smiles>  (30) 
O=C(NCC(=O)N1CC[C@H](O)[C@H]1c1ccc(Cl)cc1)c1ccc2cc(F)ccc2n1

>  <score_type>  (30) 
oracle

>  <origin>  (30) 
autodockgpu

>  <m_score__min__energy>  (30) 
-8.7300000000000004

>  <m_primary>  (30) 
energy

>  <rmsd>  (30) 
2.958374647178427

>  <m_score__min__rmsd>  (30) 
2.958374647178427

>  <meeko>  (30) 
{"free_energy": -6.87, "intermolecular_energy": -8.66, "internal_energy": -2.99, "cluster_size": 36, "cluster_id": 1, "rank_in_cluster": 34}

>  <energy>  (30) 
-6.91

>  <cluster_rmsd>  (30) 
1.85

>  <cluster>  (30) 
1

$$$$

     RDKit          3D

 49 52  0  0  0  0  0  0  0  0999 V2000
  139.9070   73.6410  222.4000 O   0  0  0  0  0  0  0  0  0  0  0  0
  140.2220   72.4070  222.2910 C   0  0  0  0  0  0  0  0  0  0  0  0
  140.6360   71.9600  221.0280 N   0  0  0  0  0  0  0  0  0  0  0  0
  140.6730   72.9360  219.9400 C   0  0  0  0  0  0  0  0  0  0  0  0
  141.7440   73.9180  220.1740 C   0  0  0  0  0  0  0  0  0  0  0  0
  142.7870   73.6020  220.8130 O   0  0  0  0  0  0  0  0  0  0  0  0
  141.5900   75.2290  219.6720 N   0  0  0  0  0  0  0  0  0  0  0  0
  140.5210   75.7610  218.8250 C   0  0  0  0  0  0  0  0  0  0  0  0
  141.2970   76.5670  217.8180 C   0  0  0  0  0  0  0  0  0  0  0  0
  142.6260   76.8800  218.4810 C   0  0  2  0  0  0  0  0  0  0  0  0
  143.6300   76.1110  217.8550 O   0  0  0  0  0  0  0  0  0  0  0  0
  142.4750   76.3840  219.8820 C   0  0  1  0  0  0  0  0  0  0  0  0
  141.7570   77.2830  220.7900 C   0  0  0  0  0  0  0  0  0  0  0  0
  141.8110   78.6510  220.5010 C   0  0  0  0  0  0  0  0  0  0  0  0
  141.1410   79.5490  221.3380 C   0  0  0  0  0  0  0  0  0  0  0  0
  140.4310   79.1300  222.4370 C   0  0  0  0  0  0  0  0  0  0  0  0
  139.5850   80.2450  223.4980 Cl  0  0  0  0  0  0  0  0  0  0  0  0
  140.3760   77.7820  222.7250 C   0  0  0  0  0  0  0  0  0  0  0  0
  141.0430   76.9180  221.8880 C   0  0  0  0  0  0  0  0  0  0  0  0
  140.1500   71.5100  223.4500 C   0  0  0  0  0  0  0  0  0  0  0  0
  139.5790   70.2540  223.2740 C   0  0  0  0  0  0  0  0  0  0  0  0
  139.5410   69.4530  224.4110 C   0  0  0  0  0  0  0  0  0  0  0  0
  140.0350   69.8720  225.6290 C   0  0  0  0  0  0  0  0  0  0  0  0
  139.9920   69.0660  226.7550 C   0  0  0  0  0  0  0  0  0  0  0  0
  140.4970   69.5130  227.9790 C   0  0  0  0  0  0  0  0  0  0  0  0
  140.4370   68.6890  229.0670 F   0  0  0  0  0  0  0  0  0  0  0  0
  141.0420   70.7800  228.0390 C   0  0  0  0  0  0  0  0  0  0  0  0
  141.1020   71.6110  226.9400 C   0  0  0  0  0  0  0  0  0  0  0  0
  140.5920   71.1350  225.7470 C   0  0  0  0  0  0  0  0  0  0  0  0
  140.6270   71.9060  224.6470 N   0  0  0  0  0  0  0  0  0  0  0  0
  140.9070   70.9540  220.8800 H   0  0  0  0  0  0  0  0  0  0  0  0
  140.8599   72.4141  218.9899 H   0  0  0  0  0  0  0  0  0  0  0  0
  139.7076   73.4615  219.8964 H   0  0  0  0  0  0  0  0  0  0  0  0
  139.9547   74.9524  218.3398 H   0  0  0  0  0  0  0  0  0  0  0  0
  139.7659   76.3427  219.3741 H   0  0  0  0  0  0  0  0  0  0  0  0
  141.4546   75.9837  216.8988 H   0  0  0  0  0  0  0  0  0  0  0  0
  140.7605   77.4831  217.5300 H   0  0  0  0  0  0  0  0  0  0  0  0
  142.8872   77.9470  218.4245 H   0  0  0  0  0  0  0  0  0  0  0  0
  144.4650   76.1440  218.3480 H   0  0  0  0  0  0  0  0  0  0  0  0
  143.4618   76.2249  220.3413 H   0  0  0  0  0  0  0  0  0  0  0  0
  142.3725   79.0150  219.6279 H   0  0  0  0  0  0  0  0  0  0  0  0
  141.1838   80.6241  221.1093 H   0  0  0  0  0  0  0  0  0  0  0  0
  139.8167   77.4100  223.5961 H   0  0  0  0  0  0  0  0  0  0  0  0
  140.9949   75.8452  222.1262 H   0  0  0  0  0  0  0  0  0  0  0  0
  139.1850   69.9175  222.3037 H   0  0  0  0  0  0  0  0  0  0  0  0
  139.1005   68.4479  224.3359 H   0  0  0  0  0  0  0  0  0  0  0  0
  139.5540   68.0594  226.6846 H   0  0  0  0  0  0  0  0  0  0  0  0
  141.4429   71.1397  228.9981 H   0  0  0  0  0  0  0  0  0  0  0  0
  141.5404   72.6174  227.0105 H   0  0  0  0  0  0  0  0  0  0  0  0
  1  2  2  0
  2  3  1  0
  3  4  1  0
  4  5  1  0
  5  6  2  0
  5  7  1  0
  7  8  1  0
  8  9  1  0
  9 10  1  0
 10 11  1  0
 10 12  1  0
 12 13  1  0
 13 14  2  0
 14 15  1  0
 15 16  2  0
 16 17  1  0
 16 18  1  0
 18 19  2  0
  2 20  1  0
 20 21  2  0
 21 22  1  0
 22 23  2  0
 23 24  1  0
 24 25  2  0
 25 26  1  0
 25 27  1  0
 27 28  2  0
 28 29  1  0
 29 30  2  0
 12  7  1  0
 19 13  1  0
 30 20  1  0
 29 23  1  0
  3 31  1  0
  4 32  1  0
  4 33  1  0
  8 34  1  0
  8 35  1  0
  9 36  1  0
  9 37  1  0
 10 38  1  1
 11 39  1  0
 12 40  1  1
 14 41  1  0
 15 42  1  0
 18 43  1  0
 19 44  1  0
 21 45  1  0
 22 46  1  0
 24 47  1  0
 27 48  1  0
 28 49  1  0
M  END
>  <smiles>  (31) 
O=C(NCC(=O)N1CC[C@H](O)[C@H]1c1ccc(Cl)cc1)c1ccc2cc(F)ccc2n1

>  <score_type>  (31) 
oracle

>  <origin>  (31) 
autodockgpu

>  <m_score__min__energy>  (31) 
-8.7300000000000004

>  <m_primary>  (31) 
energy

>  <rmsd>  (31) 
1.9415348202637668

>  <m_score__min__rmsd>  (31) 
1.9415348202637668

>  <meeko>  (31) 
{"free_energy": -8.18, "intermolecular_energy": -9.97, "internal_energy": -1.46, "cluster_size": 3, "cluster_id": 2, "rank_in_cluster": 2}

>  <energy>  (31) 
-6.9

>  <cluster_rmsd>  (31) 
1.97

>  <cluster>  (31) 
1

$$$$

     RDKit          3D

 49 52  0  0  0  0  0  0  0  0999 V2000
  135.4480   72.1810  222.5190 O   0  0  0  0  0  0  0  0  0  0  0  0
  136.6830   72.3310  222.8180 C   0  0  0  0  0  0  0  0  0  0  0  0
  137.2910   73.5370  222.4410 N   0  0  0  0  0  0  0  0  0  0  0  0
  136.4710   74.5220  221.7390 C   0  0  0  0  0  0  0  0  0  0  0  0
  137.2560   75.1750  220.6790 C   0  0  0  0  0  0  0  0  0  0  0  0
  136.7090   75.5640  219.6100 O   0  0  0  0  0  0  0  0  0  0  0  0
  138.6420   75.3620  220.8750 N   0  0  0  0  0  0  0  0  0  0  0  0
  139.7050   75.4220  219.8690 C   0  0  0  0  0  0  0  0  0  0  0  0
  140.7730   74.5660  220.4960 C   0  0  0  0  0  0  0  0  0  0  0  0
  140.4720   74.5610  221.9840 C   0  0  2  0  0  0  0  0  0  0  0  0
  139.9820   73.2860  222.3360 O   0  0  0  0  0  0  0  0  0  0  0  0
  139.3570   75.5420  222.1470 C   0  0  1  0  0  0  0  0  0  0  0  0
  139.7630   76.9490  222.1870 C   0  0  0  0  0  0  0  0  0  0  0  0
  141.0320   77.2290  222.7050 C   0  0  0  0  0  0  0  0  0  0  0  0
  141.4650   78.5580  222.7630 C   0  0  0  0  0  0  0  0  0  0  0  0
  140.6820   79.5990  222.3280 C   0  0  0  0  0  0  0  0  0  0  0  0
  141.2100   81.2720  222.3940 Cl  0  0  0  0  0  0  0  0  0  0  0  0
  139.4290   79.3270  221.8170 C   0  0  0  0  0  0  0  0  0  0  0  0
  139.0260   78.0130  221.7700 C   0  0  0  0  0  0  0  0  0  0  0  0
  137.4150   71.2760  223.5280 C   0  0  0  0  0  0  0  0  0  0  0  0
  136.8230   70.0210  223.6290 C   0  0  0  0  0  0  0  0  0  0  0  0
  137.5690   69.0660  224.3130 C   0  0  0  0  0  0  0  0  0  0  0  0
  138.8080   69.3410  224.8540 C   0  0  0  0  0  0  0  0  0  0  0  0
  139.5420   68.3810  225.5330 C   0  0  0  0  0  0  0  0  0  0  0  0
  140.7950   68.6840  226.0740 C   0  0  0  0  0  0  0  0  0  0  0  0
  141.4880   67.7120  226.7370 F   0  0  0  0  0  0  0  0  0  0  0  0
  141.2850   69.9650  225.9130 C   0  0  0  0  0  0  0  0  0  0  0  0
  140.5840   70.9450  225.2440 C   0  0  0  0  0  0  0  0  0  0  0  0
  139.3490   70.6100  224.7240 C   0  0  0  0  0  0  0  0  0  0  0  0
  138.6270   71.5300  224.0620 N   0  0  0  0  0  0  0  0  0  0  0  0
  138.3050   73.7150  222.6620 H   0  0  0  0  0  0  0  0  0  0  0  0
  135.6027   74.0178  221.2897 H   0  0  0  0  0  0  0  0  0  0  0  0
  136.1333   75.2843  222.4565 H   0  0  0  0  0  0  0  0  0  0  0  0
  139.3705   75.0046  218.9078 H   0  0  0  0  0  0  0  0  0  0  0  0
  140.0360   76.4439  219.6319 H   0  0  0  0  0  0  0  0  0  0  0  0
  140.7314   73.5435  220.0925 H   0  0  0  0  0  0  0  0  0  0  0  0
  141.7806   74.9542  220.2862 H   0  0  0  0  0  0  0  0  0  0  0  0
  141.3538   74.8013  222.5961 H   0  0  0  0  0  0  0  0  0  0  0  0
  139.5530   73.2950  223.2060 H   0  0  0  0  0  0  0  0  0  0  0  0
  138.8217   75.3612  223.0908 H   0  0  0  0  0  0  0  0  0  0  0  0
  141.6805   76.4153  223.0618 H   0  0  0  0  0  0  0  0  0  0  0  0
  142.4636   78.7759  223.1696 H   0  0  0  0  0  0  0  0  0  0  0  0
  138.7741   80.1350  221.4590 H   0  0  0  0  0  0  0  0  0  0  0  0
  138.0258   77.8057  221.3618 H   0  0  0  0  0  0  0  0  0  0  0  0
  135.8352   69.7994  223.1986 H   0  0  0  0  0  0  0  0  0  0  0  0
  137.1551   68.0532  224.4267 H   0  0  0  0  0  0  0  0  0  0  0  0
  139.1328   67.3664  225.6478 H   0  0  0  0  0  0  0  0  0  0  0  0
  142.2707   70.2122  226.3340 H   0  0  0  0  0  0  0  0  0  0  0  0
  140.9939   71.9592  225.1281 H   0  0  0  0  0  0  0  0  0  0  0  0
  1  2  2  0
  2  3  1  0
  3  4  1  0
  4  5  1  0
  5  6  2  0
  5  7  1  0
  7  8  1  0
  8  9  1  0
  9 10  1  0
 10 11  1  0
 10 12  1  0
 12 13  1  0
 13 14  2  0
 14 15  1  0
 15 16  2  0
 16 17  1  0
 16 18  1  0
 18 19  2  0
  2 20  1  0
 20 21  2  0
 21 22  1  0
 22 23  2  0
 23 24  1  0
 24 25  2  0
 25 26  1  0
 25 27  1  0
 27 28  2  0
 28 29  1  0
 29 30  2  0
 12  7  1  0
 19 13  1  0
 30 20  1  0
 29 23  1  0
  3 31  1  0
  4 32  1  0
  4 33  1  0
  8 34  1  0
  8 35  1  0
  9 36  1  0
  9 37  1  0
 10 38  1  1
 11 39  1  0
 12 40  1  1
 14 41  1  0
 15 42  1  0
 18 43  1  0
 19 44  1  0
 21 45  1  0
 22 46  1  0
 24 47  1  0
 27 48  1  0
 28 49  1  0
M  END
>  <smiles>  (32) 
O=C(NCC(=O)N1CC[C@H](O)[C@H]1c1ccc(Cl)cc1)c1ccc2cc(F)ccc2n1

>  <score_type>  (32) 
oracle

>  <origin>  (32) 
autodockgpu

>  <m_score__min__energy>  (32) 
-8.7300000000000004

>  <m_primary>  (32) 
energy

>  <rmsd>  (32) 
3.0376388110283923

>  <m_score__min__rmsd>  (32) 
3.0376388110283923

>  <meeko>  (32) 
{"free_energy": -6.8, "intermolecular_energy": -8.59, "internal_energy": -2.93, "cluster_size": 36, "cluster_id": 1, "rank_in_cluster": 35}

>  <energy>  (32) 
-6.89

>  <cluster_rmsd>  (32) 
1.8

>  <cluster>  (32) 
1

$$$$

     RDKit          3D

 49 52  0  0  0  0  0  0  0  0999 V2000
  140.8930   72.0260  221.6570 O   0  0  0  0  0  0  0  0  0  0  0  0
  139.9540   72.0630  222.5240 C   0  0  0  0  0  0  0  0  0  0  0  0
  138.9410   73.0130  222.3320 N   0  0  0  0  0  0  0  0  0  0  0  0
  139.0380   73.8840  221.1620 C   0  0  0  0  0  0  0  0  0  0  0  0
  140.1340   74.8510  221.3370 C   0  0  0  0  0  0  0  0  0  0  0  0
  140.2130   75.5610  222.3780 O   0  0  0  0  0  0  0  0  0  0  0  0
  141.1040   74.9750  220.3180 N   0  0  0  0  0  0  0  0  0  0  0  0
  140.9970   74.6000  218.9070 C   0  0  0  0  0  0  0  0  0  0  0  0
  142.3180   73.9220  218.6660 C   0  0  0  0  0  0  0  0  0  0  0  0
  143.2510   74.4490  219.7420 C   0  0  2  0  0  0  0  0  0  0  0  0
  143.4880   73.4160  220.6740 O   0  0  0  0  0  0  0  0  0  0  0  0
  142.4660   75.5170  220.4320 C   0  0  1  0  0  0  0  0  0  0  0  0
  142.4430   76.8150  219.7510 C   0  0  0  0  0  0  0  0  0  0  0  0
  141.8310   77.8750  220.4290 C   0  0  0  0  0  0  0  0  0  0  0  0
  141.7830   79.1330  219.8200 C   0  0  0  0  0  0  0  0  0  0  0  0
  142.3190   79.3620  218.5760 C   0  0  0  0  0  0  0  0  0  0  0  0
  142.2680   80.9350  217.7990 Cl  0  0  0  0  0  0  0  0  0  0  0  0
  142.9240   78.3190  217.9050 C   0  0  0  0  0  0  0  0  0  0  0  0
  142.9580   77.0910  218.5230 C   0  0  0  0  0  0  0  0  0  0  0  0
  139.9520   71.1400  223.6650 C   0  0  0  0  0  0  0  0  0  0  0  0
  139.3940   69.8780  223.4870 C   0  0  0  0  0  0  0  0  0  0  0  0
  139.4240   69.0510  224.6060 C   0  0  0  0  0  0  0  0  0  0  0  0
  139.9690   69.4520  225.8080 C   0  0  0  0  0  0  0  0  0  0  0  0
  139.9940   68.6200  226.9170 C   0  0  0  0  0  0  0  0  0  0  0  0
  140.5500   69.0480  228.1250 C   0  0  0  0  0  0  0  0  0  0  0  0
  140.5560   68.2000  229.1960 F   0  0  0  0  0  0  0  0  0  0  0  0
  141.0770   70.3230  228.1880 C   0  0  0  0  0  0  0  0  0  0  0  0
  141.0700   71.1790  227.1070 C   0  0  0  0  0  0  0  0  0  0  0  0
  140.5110   70.7210  225.9290 C   0  0  0  0  0  0  0  0  0  0  0  0
  140.4810   71.5170  224.8470 N   0  0  0  0  0  0  0  0  0  0  0  0
  138.1430   73.0880  223.0150 H   0  0  0  0  0  0  0  0  0  0  0  0
  139.2325   73.2722  220.2688 H   0  0  0  0  0  0  0  0  0  0  0  0
  138.0916   74.4320  221.0433 H   0  0  0  0  0  0  0  0  0  0  0  0
  140.1566   73.9104  218.7388 H   0  0  0  0  0  0  0  0  0  0  0  0
  140.8035   75.4488  218.2346 H   0  0  0  0  0  0  0  0  0  0  0  0
  142.2106   72.8306  218.7520 H   0  0  0  0  0  0  0  0  0  0  0  0
  142.7032   74.1292  217.6567 H   0  0  0  0  0  0  0  0  0  0  0  0
  144.2079   74.8076  219.3348 H   0  0  0  0  0  0  0  0  0  0  0  0
  142.6600   73.0660  221.0380 H   0  0  0  0  0  0  0  0  0  0  0  0
  142.8809   75.7141  221.4315 H   0  0  0  0  0  0  0  0  0  0  0  0
  141.3939   77.7210  221.4266 H   0  0  0  0  0  0  0  0  0  0  0  0
  141.3010   79.9653  220.3538 H   0  0  0  0  0  0  0  0  0  0  0  0
  143.3649   78.4651  216.9079 H   0  0  0  0  0  0  0  0  0  0  0  0
  143.4408   76.2651  217.9801 H   0  0  0  0  0  0  0  0  0  0  0  0
  138.9596   69.5564  222.5290 H   0  0  0  0  0  0  0  0  0  0  0  0
  138.9973   68.0401  224.5290 H   0  0  0  0  0  0  0  0  0  0  0  0
  139.5697   67.6077  226.8445 H   0  0  0  0  0  0  0  0  0  0  0  0
  141.5182   70.6681  229.1347 H   0  0  0  0  0  0  0  0  0  0  0  0
  141.4946   72.1912  227.1797 H   0  0  0  0  0  0  0  0  0  0  0  0
  1  2  2  0
  2  3  1  0
  3  4  1  0
  4  5  1  0
  5  6  2  0
  5  7  1  0
  7  8  1  0
  8  9  1  0
  9 10  1  0
 10 11  1  0
 10 12  1  0
 12 13  1  0
 13 14  2  0
 14 15  1  0
 15 16  2  0
 16 17  1  0
 16 18  1  0
 18 19  2  0
  2 20  1  0
 20 21  2  0
 21 22  1  0
 22 23  2  0
 23 24  1  0
 24 25  2  0
 25 26  1  0
 25 27  1  0
 27 28  2  0
 28 29  1  0
 29 30  2  0
 12  7  1  0
 19 13  1  0
 30 20  1  0
 29 23  1  0
  3 31  1  0
  4 32  1  0
  4 33  1  0
  8 34  1  0
  8 35  1  0
  9 36  1  0
  9 37  1  0
 10 38  1  6
 11 39  1  0
 12 40  1  1
 14 41  1  0
 15 42  1  0
 18 43  1  0
 19 44  1  0
 21 45  1  0
 22 46  1  0
 24 47  1  0
 27 48  1  0
 28 49  1  0
M  END
>  <smiles>  (33) 
O=C(NCC(=O)N1CC[C@H](O)[C@H]1c1ccc(Cl)cc1)c1ccc2cc(F)ccc2n1

>  <score_type>  (33) 
oracle

>  <origin>  (33) 
autodockgpu

>  <m_score__min__energy>  (33) 
-8.7300000000000004

>  <m_primary>  (33) 
energy

>  <rmsd>  (33) 
2.036617281161806

>  <m_score__min__rmsd>  (33) 
2.036617281161806

>  <meeko>  (33) 
{"free_energy": -7.83, "intermolecular_energy": -9.62, "internal_energy": -2.11, "cluster_size": 3, "cluster_id": 3, "rank_in_cluster": 2}

>  <energy>  (33) 
-6.89

>  <cluster_rmsd>  (33) 
1.81

>  <cluster>  (33) 
1

$$$$

     RDKit          3D

 49 52  0  0  0  0  0  0  0  0999 V2000
  135.7860   72.1580  221.8670 O   0  0  0  0  0  0  0  0  0  0  0  0
  136.8790   72.4270  222.4740 C   0  0  0  0  0  0  0  0  0  0  0  0
  137.3810   73.7290  222.3430 N   0  0  0  0  0  0  0  0  0  0  0  0
  136.6190   74.6730  221.5260 C   0  0  0  0  0  0  0  0  0  0  0  0
  137.4760   75.2400  220.4720 C   0  0  0  0  0  0  0  0  0  0  0  0
  137.0050   75.5270  219.3360 O   0  0  0  0  0  0  0  0  0  0  0  0
  138.8430   75.4600  220.7490 N   0  0  0  0  0  0  0  0  0  0  0  0
  139.9620   75.5450  219.8090 C   0  0  0  0  0  0  0  0  0  0  0  0
  141.0110   74.7150  220.5000 C   0  0  0  0  0  0  0  0  0  0  0  0
  140.6220   74.7030  221.9680 C   0  0  2  0  0  0  0  0  0  0  0  0
  140.1420   73.4170  222.2920 O   0  0  0  0  0  0  0  0  0  0  0  0
  139.4760   75.6580  222.0620 C   0  0  1  0  0  0  0  0  0  0  0  0
  139.8450   77.0750  222.1230 C   0  0  0  0  0  0  0  0  0  0  0  0
  141.0720   77.3850  222.7200 C   0  0  0  0  0  0  0  0  0  0  0  0
  141.4680   78.7240  222.8020 C   0  0  0  0  0  0  0  0  0  0  0  0
  140.6900   79.7450  222.3150 C   0  0  0  0  0  0  0  0  0  0  0  0
  141.1730   81.4310  222.4100 Cl  0  0  0  0  0  0  0  0  0  0  0  0
  139.4800   79.4430  221.7250 C   0  0  0  0  0  0  0  0  0  0  0  0
  139.1110   78.1200  221.6560 C   0  0  0  0  0  0  0  0  0  0  0  0
  137.5650   71.4030  223.2710 C   0  0  0  0  0  0  0  0  0  0  0  0
  136.9410   70.1700  223.4320 C   0  0  0  0  0  0  0  0  0  0  0  0
  137.6430   69.2440  224.1970 C   0  0  0  0  0  0  0  0  0  0  0  0
  138.8710   69.5260  224.7580 C   0  0  0  0  0  0  0  0  0  0  0  0
  139.5620   68.5950  225.5180 C   0  0  0  0  0  0  0  0  0  0  0  0
  140.8050   68.9030  226.0780 C   0  0  0  0  0  0  0  0  0  0  0  0
  141.4550   67.9600  226.8210 F   0  0  0  0  0  0  0  0  0  0  0  0
  141.3300   70.1610  225.8520 C   0  0  0  0  0  0  0  0  0  0  0  0
  140.6730   71.1120  225.1020 C   0  0  0  0  0  0  0  0  0  0  0  0
  139.4470   70.7710  224.5650 C   0  0  0  0  0  0  0  0  0  0  0  0
  138.7660   71.6630  223.8250 N   0  0  0  0  0  0  0  0  0  0  0  0
  138.2770   74.0070  222.8210 H   0  0  0  0  0  0  0  0  0  0  0  0
  135.7704   74.1492  221.0617 H   0  0  0  0  0  0  0  0  0  0  0  0
  136.2519   75.4879  222.1673 H   0  0  0  0  0  0  0  0  0  0  0  0
  139.6957   75.1195  218.8302 H   0  0  0  0  0  0  0  0  0  0  0  0
  140.2821   76.5745  219.5907 H   0  0  0  0  0  0  0  0  0  0  0  0
  141.0181   73.6917  220.0964 H   0  0  0  0  0  0  0  0  0  0  0  0
  142.0197   75.1273  220.3500 H   0  0  0  0  0  0  0  0  0  0  0  0
  141.4597   74.9639  222.6315 H   0  0  0  0  0  0  0  0  0  0  0  0
  139.6020   73.4290  223.0980 H   0  0  0  0  0  0  0  0  0  0  0  0
  138.8899   75.4653  222.9727 H   0  0  0  0  0  0  0  0  0  0  0  0
  141.7158   76.5873  223.1190 H   0  0  0  0  0  0  0  0  0  0  0  0
  142.4328   78.9665  223.2713 H   0  0  0  0  0  0  0  0  0  0  0  0
  138.8312   80.2350  221.3227 H   0  0  0  0  0  0  0  0  0  0  0  0
  138.1442   77.8885  221.1851 H   0  0  0  0  0  0  0  0  0  0  0  0
  135.9615   69.9432  222.9858 H   0  0  0  0  0  0  0  0  0  0  0  0
  137.2021   68.2496  224.3606 H   0  0  0  0  0  0  0  0  0  0  0  0
  139.1254   67.5989  225.6828 H   0  0  0  0  0  0  0  0  0  0  0  0
  142.3086   70.4126  226.2869 H   0  0  0  0  0  0  0  0  0  0  0  0
  141.1096   72.1080  224.9367 H   0  0  0  0  0  0  0  0  0  0  0  0
  1  2  2  0
  2  3  1  0
  3  4  1  0
  4  5  1  0
  5  6  2  0
  5  7  1  0
  7  8  1  0
  8  9  1  0
  9 10  1  0
 10 11  1  0
 10 12  1  0
 12 13  1  0
 13 14  2  0
 14 15  1  0
 15 16  2  0
 16 17  1  0
 16 18  1  0
 18 19  2  0
  2 20  1  0
 20 21  2  0
 21 22  1  0
 22 23  2  0
 23 24  1  0
 24 25  2  0
 25 26  1  0
 25 27  1  0
 27 28  2  0
 28 29  1  0
 29 30  2  0
 12  7  1  0
 19 13  1  0
 30 20  1  0
 29 23  1  0
  3 31  1  0
  4 32  1  0
  4 33  1  0
  8 34  1  0
  8 35  1  0
  9 36  1  0
  9 37  1  0
 10 38  1  1
 11 39  1  0
 12 40  1  1
 14 41  1  0
 15 42  1  0
 18 43  1  0
 19 44  1  0
 21 45  1  0
 22 46  1  0
 24 47  1  0
 27 48  1  0
 28 49  1  0
M  END
>  <smiles>  (34) 
O=C(NCC(=O)N1CC[C@H](O)[C@H]1c1ccc(Cl)cc1)c1ccc2cc(F)ccc2n1

>  <score_type>  (34) 
oracle

>  <origin>  (34) 
autodockgpu

>  <m_score__min__energy>  (34) 
-8.7300000000000004

>  <m_primary>  (34) 
energy

>  <rmsd>  (34) 
2.9661548266760778

>  <m_score__min__rmsd>  (34) 
2.9661548266760778

>  <meeko>  (34) 
{"free_energy": -6.94, "intermolecular_energy": -8.73, "internal_energy": -2.95, "cluster_size": 36, "cluster_id": 1, "rank_in_cluster": 29}

>  <energy>  (34) 
-6.87

>  <cluster_rmsd>  (34) 
1.83

>  <cluster>  (34) 
1

$$$$

     RDKit          3D

 49 52  0  0  0  0  0  0  0  0999 V2000
  135.2510   72.1520  223.0810 O   0  0  0  0  0  0  0  0  0  0  0  0
  136.5280   72.1910  223.0430 C   0  0  0  0  0  0  0  0  0  0  0  0
  137.1150   73.1920  222.2570 N   0  0  0  0  0  0  0  0  0  0  0  0
  136.2250   74.1080  221.5460 C   0  0  0  0  0  0  0  0  0  0  0  0
  136.7980   75.4640  221.5300 C   0  0  0  0  0  0  0  0  0  0  0  0
  136.0590   76.4830  221.6270 O   0  0  0  0  0  0  0  0  0  0  0  0
  138.1970   75.6110  221.4020 N   0  0  0  0  0  0  0  0  0  0  0  0
  138.9900   75.7660  220.1810 C   0  0  0  0  0  0  0  0  0  0  0  0
  140.1430   74.8350  220.4400 C   0  0  0  0  0  0  0  0  0  0  0  0
  140.2070   74.6730  221.9490 C   0  0  2  0  0  0  0  0  0  0  0  0
  139.7680   73.3740  222.2780 O   0  0  0  0  0  0  0  0  0  0  0  0
  139.2020   75.6450  222.4760 C   0  0  1  0  0  0  0  0  0  0  0  0
  139.6580   77.0350  222.5580 C   0  0  0  0  0  0  0  0  0  0  0  0
  141.0400   77.2460  222.6130 C   0  0  0  0  0  0  0  0  0  0  0  0
  141.5250   78.5560  222.6930 C   0  0  0  0  0  0  0  0  0  0  0  0
  140.6860   79.6430  222.7190 C   0  0  0  0  0  0  0  0  0  0  0  0
  141.2780   81.2930  222.8190 Cl  0  0  0  0  0  0  0  0  0  0  0  0
  139.3230   79.4390  222.6640 C   0  0  0  0  0  0  0  0  0  0  0  0
  138.8700   78.1420  222.5870 C   0  0  0  0  0  0  0  0  0  0  0  0
  137.3300   71.2210  223.7980 C   0  0  0  0  0  0  0  0  0  0  0  0
  136.7250   70.0290  224.1840 C   0  0  0  0  0  0  0  0  0  0  0  0
  137.5390   69.1530  224.8960 C   0  0  0  0  0  0  0  0  0  0  0  0
  138.8530   69.4430  225.1980 C   0  0  0  0  0  0  0  0  0  0  0  0
  139.6540   68.5620  225.9070 C   0  0  0  0  0  0  0  0  0  0  0  0
  140.9830   68.8780  226.2040 C   0  0  0  0  0  0  0  0  0  0  0  0
  141.7420   67.9850  226.9050 F   0  0  0  0  0  0  0  0  0  0  0  0
  141.4800   70.0910  225.7690 C   0  0  0  0  0  0  0  0  0  0  0  0
  140.7140   70.9920  225.0610 C   0  0  0  0  0  0  0  0  0  0  0  0
  139.4040   70.6460  224.7880 C   0  0  0  0  0  0  0  0  0  0  0  0
  138.6160   71.4890  224.1010 N   0  0  0  0  0  0  0  0  0  0  0  0
  138.1630   73.2720  222.1890 H   0  0  0  0  0  0  0  0  0  0  0  0
  136.0933   73.7570  220.5119 H   0  0  0  0  0  0  0  0  0  0  0  0
  135.2530   74.1353  222.0602 H   0  0  0  0  0  0  0  0  0  0  0  0
  138.4198   75.4590  219.2918 H   0  0  0  0  0  0  0  0  0  0  0  0
  139.2934   76.8034  219.9766 H   0  0  0  0  0  0  0  0  0  0  0  0
  139.9673   73.8626  219.9566 H   0  0  0  0  0  0  0  0  0  0  0  0
  141.0851   75.2312  220.0331 H   0  0  0  0  0  0  0  0  0  0  0  0
  141.2183   74.8347  222.3505 H   0  0  0  0  0  0  0  0  0  0  0  0
  139.3520   73.3480  223.1540 H   0  0  0  0  0  0  0  0  0  0  0  0
  138.9025   75.3711  223.4984 H   0  0  0  0  0  0  0  0  0  0  0  0
  141.7355   76.3940  222.5936 H   0  0  0  0  0  0  0  0  0  0  0  0
  142.6118   78.7203  222.7364 H   0  0  0  0  0  0  0  0  0  0  0  0
  138.6209   80.2857  222.6811 H   0  0  0  0  0  0  0  0  0  0  0  0
  137.7815   77.9886  222.5456 H   0  0  0  0  0  0  0  0  0  0  0  0
  135.6773   69.7955  223.9434 H   0  0  0  0  0  0  0  0  0  0  0  0
  137.1185   68.1932  225.2305 H   0  0  0  0  0  0  0  0  0  0  0  0
  139.2380   67.6000  226.2410 H   0  0  0  0  0  0  0  0  0  0  0  0
  142.5254   70.3474  225.9959 H   0  0  0  0  0  0  0  0  0  0  0  0
  141.1307   71.9529  224.7250 H   0  0  0  0  0  0  0  0  0  0  0  0
  1  2  2  0
  2  3  1  0
  3  4  1  0
  4  5  1  0
  5  6  2  0
  5  7  1  0
  7  8  1  0
  8  9  1  0
  9 10  1  0
 10 11  1  0
 10 12  1  0
 12 13  1  0
 13 14  2  0
 14 15  1  0
 15 16  2  0
 16 17  1  0
 16 18  1  0
 18 19  2  0
  2 20  1  0
 20 21  2  0
 21 22  1  0
 22 23  2  0
 23 24  1  0
 24 25  2  0
 25 26  1  0
 25 27  1  0
 27 28  2  0
 28 29  1  0
 29 30  2  0
 12  7  1  0
 19 13  1  0
 30 20  1  0
 29 23  1  0
  3 31  1  0
  4 32  1  0
  4 33  1  0
  8 34  1  0
  8 35  1  0
  9 36  1  0
  9 37  1  0
 10 38  1  1
 11 39  1  0
 12 40  1  1
 14 41  1  0
 15 42  1  0
 18 43  1  0
 19 44  1  0
 21 45  1  0
 22 46  1  0
 24 47  1  0
 27 48  1  0
 28 49  1  0
M  END
>  <smiles>  (35) 
O=C(NCC(=O)N1CC[C@H](O)[C@H]1c1ccc(Cl)cc1)c1ccc2cc(F)ccc2n1

>  <score_type>  (35) 
oracle

>  <origin>  (35) 
autodockgpu

>  <m_score__min__energy>  (35) 
-8.7300000000000004

>  <m_primary>  (35) 
energy

>  <rmsd>  (35) 
3.12496000184729

>  <m_score__min__rmsd>  (35) 
3.12496000184729

>  <meeko>  (35) 
{"free_energy": -6.92, "intermolecular_energy": -8.71, "internal_energy": -3.06, "cluster_size": 2, "cluster_id": 6, "rank_in_cluster": 2}

>  <energy>  (35) 
-6.8

>  <cluster_rmsd>  (35) 
1.88

>  <cluster>  (35) 
1

$$$$

     RDKit          3D

 49 52  0  0  0  0  0  0  0  0999 V2000
  140.6580   73.0750  222.1170 O   0  0  0  0  0  0  0  0  0  0  0  0
  139.6340   72.6000  222.7180 C   0  0  0  0  0  0  0  0  0  0  0  0
  138.3800   73.0960  222.3350 N   0  0  0  0  0  0  0  0  0  0  0  0
  138.3420   74.1130  221.2850 C   0  0  0  0  0  0  0  0  0  0  0  0
  138.7700   75.4140  221.8220 C   0  0  0  0  0  0  0  0  0  0  0  0
  138.3150   75.8470  222.9180 O   0  0  0  0  0  0  0  0  0  0  0  0
  139.7030   76.1810  221.0900 N   0  0  0  0  0  0  0  0  0  0  0  0
  139.4580   77.0830  219.9640 C   0  0  0  0  0  0  0  0  0  0  0  0
  140.5700   76.7100  219.0200 C   0  0  0  0  0  0  0  0  0  0  0  0
  141.6400   76.0660  219.8830 C   0  0  2  0  0  0  0  0  0  0  0  0
  141.6570   74.6810  219.6150 O   0  0  0  0  0  0  0  0  0  0  0  0
  141.1590   76.2550  221.2850 C   0  0  1  0  0  0  0  0  0  0  0  0
  141.4210   77.5760  221.8640 C   0  0  0  0  0  0  0  0  0  0  0  0
  141.1640   77.7310  223.2310 C   0  0  0  0  0  0  0  0  0  0  0  0
  141.3990   78.9730  223.8290 C   0  0  0  0  0  0  0  0  0  0  0  0
  141.8750   80.0470  223.1170 C   0  0  0  0  0  0  0  0  0  0  0  0
  142.1750   81.6130  223.8540 Cl  0  0  0  0  0  0  0  0  0  0  0  0
  142.1300   79.8970  221.7700 C   0  0  0  0  0  0  0  0  0  0  0  0
  141.8910   78.6670  221.2030 C   0  0  0  0  0  0  0  0  0  0  0  0
  139.7840   71.5790  223.7600 C   0  0  0  0  0  0  0  0  0  0  0  0
  139.4080   70.2740  223.4600 C   0  0  0  0  0  0  0  0  0  0  0  0
  139.5760   69.3540  224.4900 C   0  0  0  0  0  0  0  0  0  0  0  0
  140.0810   69.7080  225.7240 C   0  0  0  0  0  0  0  0  0  0  0  0
  140.2440   68.7830  226.7430 C   0  0  0  0  0  0  0  0  0  0  0  0
  140.7560   69.1650  227.9860 C   0  0  0  0  0  0  0  0  0  0  0  0
  140.9030   68.2250  228.9660 F   0  0  0  0  0  0  0  0  0  0  0  0
  141.0980   70.4900  228.1730 C   0  0  0  0  0  0  0  0  0  0  0  0
  140.9500   71.4380  227.1840 C   0  0  0  0  0  0  0  0  0  0  0  0
  140.4400   71.0240  225.9690 C   0  0  0  0  0  0  0  0  0  0  0  0
  140.2760   71.9090  224.9710 N   0  0  0  0  0  0  0  0  0  0  0  0
  137.5020   72.7410  222.7960 H   0  0  0  0  0  0  0  0  0  0  0  0
  139.0168   73.8173  220.4682 H   0  0  0  0  0  0  0  0  0  0  0  0
  137.3124   74.2015  220.9082 H   0  0  0  0  0  0  0  0  0  0  0  0
  138.4717   76.9006  219.5124 H   0  0  0  0  0  0  0  0  0  0  0  0
  139.4483   78.1475  220.2411 H   0  0  0  0  0  0  0  0  0  0  0  0
  140.2083   75.9990  218.2626 H   0  0  0  0  0  0  0  0  0  0  0  0
  140.9563   77.5869  218.4798 H   0  0  0  0  0  0  0  0  0  0  0  0
  142.6393   76.4904  219.7059 H   0  0  0  0  0  0  0  0  0  0  0  0
  141.3400   74.1660  220.3730 H   0  0  0  0  0  0  0  0  0  0  0  0
  141.6461   75.5339  221.9579 H   0  0  0  0  0  0  0  0  0  0  0  0
  140.7827   76.8882  223.8263 H   0  0  0  0  0  0  0  0  0  0  0  0
  141.1963   79.0938  224.9034 H   0  0  0  0  0  0  0  0  0  0  0  0
  142.5124   80.7346  221.1682 H   0  0  0  0  0  0  0  0  0  0  0  0
  142.0967   78.5572  220.1280 H   0  0  0  0  0  0  0  0  0  0  0  0
  139.0057   69.9891  222.4766 H   0  0  0  0  0  0  0  0  0  0  0  0
  139.2957   68.3050  224.3138 H   0  0  0  0  0  0  0  0  0  0  0  0
  139.9663   67.7326  226.5709 H   0  0  0  0  0  0  0  0  0  0  0  0
  141.5035   70.7999  229.1474 H   0  0  0  0  0  0  0  0  0  0  0  0
  141.2284   72.4882  227.3562 H   0  0  0  0  0  0  0  0  0  0  0  0
  1  2  2  0
  2  3  1  0
  3  4  1  0
  4  5  1  0
  5  6  2  0
  5  7  1  0
  7  8  1  0
  8  9  1  0
  9 10  1  0
 10 11  1  0
 10 12  1  0
 12 13  1  0
 13 14  2  0
 14 15  1  0
 15 16  2  0
 16 17  1  0
 16 18  1  0
 18 19  2  0
  2 20  1  0
 20 21  2  0
 21 22  1  0
 22 23  2  0
 23 24  1  0
 24 25  2  0
 25 26  1  0
 25 27  1  0
 27 28  2  0
 28 29  1  0
 29 30  2  0
 12  7  1  0
 19 13  1  0
 30 20  1  0
 29 23  1  0
  3 31  1  0
  4 32  1  0
  4 33  1  0
  8 34  1  0
  8 35  1  0
  9 36  1  0
  9 37  1  0
 10 38  1  1
 11 39  1  0
 12 40  1  1
 14 41  1  0
 15 42  1  0
 18 43  1  0
 19 44  1  0
 21 45  1  0
 22 46  1  0
 24 47  1  0
 27 48  1  0
 28 49  1  0
M  END
>  <smiles>  (36) 
O=C(NCC(=O)N1CC[C@H](O)[C@H]1c1ccc(Cl)cc1)c1ccc2cc(F)ccc2n1

>  <score_type>  (36) 
oracle

>  <origin>  (36) 
autodockgpu

>  <m_score__min__energy>  (36) 
-8.7300000000000004

>  <m_primary>  (36) 
energy

>  <rmsd>  (36) 
1.8773187548979462

>  <m_score__min__rmsd>  (36) 
1.8773187548979462

>  <meeko>  (36) 
{"free_energy": -8.12, "intermolecular_energy": -9.91, "internal_energy": -2.12, "cluster_size": 36, "cluster_id": 1, "rank_in_cluster": 11}

>  <energy>  (36) 
-6.75

>  <cluster_rmsd>  (36) 
1.83

>  <cluster>  (36) 
1

$$$$

     RDKit          3D

 49 52  0  0  0  0  0  0  0  0999 V2000
  138.6440   75.0200  221.3570 O   0  0  0  0  0  0  0  0  0  0  0  0
  139.8240   75.4490  221.6000 C   0  0  0  0  0  0  0  0  0  0  0  0
  140.8930   74.6020  221.2740 N   0  0  0  0  0  0  0  0  0  0  0  0
  140.5750   73.3010  220.6860 C   0  0  0  0  0  0  0  0  0  0  0  0
  140.9580   72.2200  221.6080 C   0  0  0  0  0  0  0  0  0  0  0  0
  142.1720   71.9300  221.8020 O   0  0  0  0  0  0  0  0  0  0  0  0
  139.9420   71.5030  222.2780 N   0  0  0  0  0  0  0  0  0  0  0  0
  139.3500   70.2120  221.9220 C   0  0  0  0  0  0  0  0  0  0  0  0
  137.8830   70.4760  222.1320 C   0  0  0  0  0  0  0  0  0  0  0  0
  137.8120   71.6500  223.0910 C   0  0  2  0  0  0  0  0  0  0  0  0
  137.3750   72.7850  222.3760 O   0  0  0  0  0  0  0  0  0  0  0  0
  139.2280   71.8860  223.5050 C   0  0  1  0  0  0  0  0  0  0  0  0
  139.7290   70.9970  224.5570 C   0  0  0  0  0  0  0  0  0  0  0  0
  138.8160   70.0920  225.1100 C   0  0  0  0  0  0  0  0  0  0  0  0
  139.2460   69.2220  226.1170 C   0  0  0  0  0  0  0  0  0  0  0  0
  140.5380   69.2290  226.5820 C   0  0  0  0  0  0  0  0  0  0  0  0
  141.0940   68.1440  227.8460 Cl  0  0  0  0  0  0  0  0  0  0  0  0
  141.4420   70.1190  226.0400 C   0  0  0  0  0  0  0  0  0  0  0  0
  140.9950   70.9650  225.0510 C   0  0  0  0  0  0  0  0  0  0  0  0
  140.0320   76.7740  222.1940 C   0  0  0  0  0  0  0  0  0  0  0  0
  138.9330   77.4270  222.7430 C   0  0  0  0  0  0  0  0  0  0  0  0
  139.1970   78.6790  223.2900 C   0  0  0  0  0  0  0  0  0  0  0  0
  140.4590   79.2360  223.2890 C   0  0  0  0  0  0  0  0  0  0  0  0
  140.7110   80.4840  223.8360 C   0  0  0  0  0  0  0  0  0  0  0  0
  141.9970   81.0300  223.8230 C   0  0  0  0  0  0  0  0  0  0  0  0
  142.2060   82.2630  224.3720 F   0  0  0  0  0  0  0  0  0  0  0  0
  143.0150   80.2920  223.2500 C   0  0  0  0  0  0  0  0  0  0  0  0
  142.8030   79.0480  222.6960 C   0  0  0  0  0  0  0  0  0  0  0  0
  141.5180   78.5410  222.7270 C   0  0  0  0  0  0  0  0  0  0  0  0
  141.2590   77.3320  222.2000 N   0  0  0  0  0  0  0  0  0  0  0  0
  141.8860   74.9030  221.4520 H   0  0  0  0  0  0  0  0  0  0  0  0
  139.4941   73.2453  220.4896 H   0  0  0  0  0  0  0  0  0  0  0  0
  141.1337   73.1857  219.7455 H   0  0  0  0  0  0  0  0  0  0  0  0
  139.5635   69.9487  220.8756 H   0  0  0  0  0  0  0  0  0  0  0  0
  139.7386   69.3672  222.5095 H   0  0  0  0  0  0  0  0  0  0  0  0
  137.3982   70.7300  221.1778 H   0  0  0  0  0  0  0  0  0  0  0  0
  137.3639   69.5924  222.5317 H   0  0  0  0  0  0  0  0  0  0  0  0
  137.1374   71.4640  223.9397 H   0  0  0  0  0  0  0  0  0  0  0  0
  137.7660   73.6010  222.7260 H   0  0  0  0  0  0  0  0  0  0  0  0
  139.3478   72.9067  223.8971 H   0  0  0  0  0  0  0  0  0  0  0  0
  137.7744   70.0653  224.7574 H   0  0  0  0  0  0  0  0  0  0  0  0
  138.5274   68.5104  226.5497 H   0  0  0  0  0  0  0  0  0  0  0  0
  142.4854   70.1513  226.3868 H   0  0  0  0  0  0  0  0  0  0  0  0
  141.7213   71.6731  224.6255 H   0  0  0  0  0  0  0  0  0  0  0  0
  137.9259   76.9846  222.7446 H   0  0  0  0  0  0  0  0  0  0  0  0
  138.3685   79.2456  223.7399 H   0  0  0  0  0  0  0  0  0  0  0  0
  139.8855   81.0538  224.2876 H   0  0  0  0  0  0  0  0  0  0  0  0
  144.0313   80.7126  223.2355 H   0  0  0  0  0  0  0  0  0  0  0  0
  143.6285   78.4782  222.2446 H   0  0  0  0  0  0  0  0  0  0  0  0
  1  2  2  0
  2  3  1  0
  3  4  1  0
  4  5  1  0
  5  6  2  0
  5  7  1  0
  7  8  1  0
  8  9  1  0
  9 10  1  0
 10 11  1  0
 10 12  1  0
 12 13  1  0
 13 14  2  0
 14 15  1  0
 15 16  2  0
 16 17  1  0
 16 18  1  0
 18 19  2  0
  2 20  1  0
 20 21  2  0
 21 22  1  0
 22 23  2  0
 23 24  1  0
 24 25  2  0
 25 26  1  0
 25 27  1  0
 27 28  2  0
 28 29  1  0
 29 30  2  0
 12  7  1  0
 19 13  1  0
 30 20  1  0
 29 23  1  0
  3 31  1  0
  4 32  1  0
  4 33  1  0
  8 34  1  0
  8 35  1  0
  9 36  1  0
  9 37  1  0
 10 38  1  1
 11 39  1  0
 12 40  1  1
 14 41  1  0
 15 42  1  0
 18 43  1  0
 19 44  1  0
 21 45  1  0
 22 46  1  0
 24 47  1  0
 27 48  1  0
 28 49  1  0
M  END
>  <smiles>  (37) 
O=C(NCC(=O)N1CC[C@H](O)[C@H]1c1ccc(Cl)cc1)c1ccc2cc(F)ccc2n1

>  <score_type>  (37) 
oracle

>  <origin>  (37) 
autodockgpu

>  <m_score__min__energy>  (37) 
-8.7300000000000004

>  <m_primary>  (37) 
energy

>  <rmsd>  (37) 
8.09391114947351

>  <m_score__min__rmsd>  (37) 
8.09391114947351

>  <meeko>  (37) 
{"free_energy": -7.64, "intermolecular_energy": -9.43, "internal_energy": -2.31, "cluster_size": 2, "cluster_id": 5, "rank_in_cluster": 1}

>  <energy>  (37) 
-8.34

>  <cluster_rmsd>  (37) 
0.0

>  <cluster>  (37) 
2

$$$$

     RDKit          3D

 49 52  0  0  0  0  0  0  0  0999 V2000
  138.6230   75.0470  221.3250 O   0  0  0  0  0  0  0  0  0  0  0  0
  139.8030   75.4590  221.5960 C   0  0  0  0  0  0  0  0  0  0  0  0
  140.8660   74.5930  221.3060 N   0  0  0  0  0  0  0  0  0  0  0  0
  140.5440   73.2930  220.7200 C   0  0  0  0  0  0  0  0  0  0  0  0
  140.8690   72.2140  221.6670 C   0  0  0  0  0  0  0  0  0  0  0  0
  142.0690   71.9140  221.9230 O   0  0  0  0  0  0  0  0  0  0  0  0
  139.8140   71.5130  222.2900 N   0  0  0  0  0  0  0  0  0  0  0  0
  139.1910   70.2520  221.8830 C   0  0  0  0  0  0  0  0  0  0  0  0
  137.7280   70.5570  222.0640 C   0  0  0  0  0  0  0  0  0  0  0  0
  137.6690   71.7070  223.0540 C   0  0  2  0  0  0  0  0  0  0  0  0
  137.2880   72.8740  222.3610 O   0  0  0  0  0  0  0  0  0  0  0  0
  139.0810   71.8850  223.5100 C   0  0  1  0  0  0  0  0  0  0  0  0
  139.5260   70.9520  224.5490 C   0  0  0  0  0  0  0  0  0  0  0  0
  140.7960   71.1690  225.0940 C   0  0  0  0  0  0  0  0  0  0  0  0
  141.2650   70.3050  226.0890 C   0  0  0  0  0  0  0  0  0  0  0  0
  140.5180   69.2480  226.5480 C   0  0  0  0  0  0  0  0  0  0  0  0
  141.0920   68.1540  227.7960 Cl  0  0  0  0  0  0  0  0  0  0  0  0
  139.2650   69.0310  226.0130 C   0  0  0  0  0  0  0  0  0  0  0  0
  138.8250   69.8930  225.0360 C   0  0  0  0  0  0  0  0  0  0  0  0
  140.0150   76.7870  222.1840 C   0  0  0  0  0  0  0  0  0  0  0  0
  138.9170   77.4500  222.7210 C   0  0  0  0  0  0  0  0  0  0  0  0
  139.1860   78.7030  223.2630 C   0  0  0  0  0  0  0  0  0  0  0  0
  140.4510   79.2510  223.2690 C   0  0  0  0  0  0  0  0  0  0  0  0
  140.7080   80.5000  223.8120 C   0  0  0  0  0  0  0  0  0  0  0  0
  141.9990   81.0370  223.8050 C   0  0  0  0  0  0  0  0  0  0  0  0
  142.2120   82.2710  224.3500 F   0  0  0  0  0  0  0  0  0  0  0  0
  143.0150   80.2880  223.2450 C   0  0  0  0  0  0  0  0  0  0  0  0
  142.7990   79.0430  222.6950 C   0  0  0  0  0  0  0  0  0  0  0  0
  141.5100   78.5460  222.7190 C   0  0  0  0  0  0  0  0  0  0  0  0
  141.2470   77.3360  222.1970 N   0  0  0  0  0  0  0  0  0  0  0  0
  141.8590   74.8800  221.5070 H   0  0  0  0  0  0  0  0  0  0  0  0
  139.4705   73.2572  220.4829 H   0  0  0  0  0  0  0  0  0  0  0  0
  141.1359   73.1561  219.8030 H   0  0  0  0  0  0  0  0  0  0  0  0
  139.4229   70.0109  220.8351 H   0  0  0  0  0  0  0  0  0  0  0  0
  139.5377   69.3793  222.4559 H   0  0  0  0  0  0  0  0  0  0  0  0
  137.2760   70.8521  221.1055 H   0  0  0  0  0  0  0  0  0  0  0  0
  137.1715   69.6799  222.4260 H   0  0  0  0  0  0  0  0  0  0  0  0
  136.9665   71.5203  223.8796 H   0  0  0  0  0  0  0  0  0  0  0  0
  137.7210   73.6630  222.7220 H   0  0  0  0  0  0  0  0  0  0  0  0
  139.2234   72.8900  223.9340 H   0  0  0  0  0  0  0  0  0  0  0  0
  141.4170   72.0072  224.7450 H   0  0  0  0  0  0  0  0  0  0  0  0
  142.2634   70.4776  226.5172 H   0  0  0  0  0  0  0  0  0  0  0  0
  138.6380   68.1952  226.3569 H   0  0  0  0  0  0  0  0  0  0  0  0
  137.8254   69.7114  224.6143 H   0  0  0  0  0  0  0  0  0  0  0  0
  137.9069   77.0146  222.7176 H   0  0  0  0  0  0  0  0  0  0  0  0
  138.3581   79.2780  223.7033 H   0  0  0  0  0  0  0  0  0  0  0  0
  139.8836   81.0778  224.2553 H   0  0  0  0  0  0  0  0  0  0  0  0
  144.0347   80.7005  223.2376 H   0  0  0  0  0  0  0  0  0  0  0  0
  143.6238   78.4652  222.2525 H   0  0  0  0  0  0  0  0  0  0  0  0
  1  2  2  0
  2  3  1  0
  3  4  1  0
  4  5  1  0
  5  6  2  0
  5  7  1  0
  7  8  1  0
  8  9  1  0
  9 10  1  0
 10 11  1  0
 10 12  1  0
 12 13  1  0
 13 14  2  0
 14 15  1  0
 15 16  2  0
 16 17  1  0
 16 18  1  0
 18 19  2  0
  2 20  1  0
 20 21  2  0
 21 22  1  0
 22 23  2  0
 23 24  1  0
 24 25  2  0
 25 26  1  0
 25 27  1  0
 27 28  2  0
 28 29  1  0
 29 30  2  0
 12  7  1  0
 19 13  1  0
 30 20  1  0
 29 23  1  0
  3 31  1  0
  4 32  1  0
  4 33  1  0
  8 34  1  0
  8 35  1  0
  9 36  1  0
  9 37  1  0
 10 38  1  1
 11 39  1  0
 12 40  1  1
 14 41  1  0
 15 42  1  0
 18 43  1  0
 19 44  1  0
 21 45  1  0
 22 46  1  0
 24 47  1  0
 27 48  1  0
 28 49  1  0
M  END
>  <smiles>  (38) 
O=C(NCC(=O)N1CC[C@H](O)[C@H]1c1ccc(Cl)cc1)c1ccc2cc(F)ccc2n1

>  <score_type>  (38) 
oracle

>  <origin>  (38) 
autodockgpu

>  <m_score__min__energy>  (38) 
-8.7300000000000004

>  <m_primary>  (38) 
energy

>  <rmsd>  (38) 
8.09661548063154

>  <m_score__min__rmsd>  (38) 
8.09661548063154

>  <meeko>  (38) 
{"free_energy": -7.62, "intermolecular_energy": -9.41, "internal_energy": -2.33, "cluster_size": 2, "cluster_id": 5, "rank_in_cluster": 2}

>  <energy>  (38) 
-8.18

>  <cluster_rmsd>  (38) 
1.42

>  <cluster>  (38) 
2

$$$$

     RDKit          3D

 49 52  0  0  0  0  0  0  0  0999 V2000
  139.1900   71.4090  221.1430 O   0  0  0  0  0  0  0  0  0  0  0  0
  139.3930   71.9100  222.3020 C   0  0  0  0  0  0  0  0  0  0  0  0
  139.4080   73.3080  222.4010 N   0  0  0  0  0  0  0  0  0  0  0  0
  139.1930   74.0790  221.1780 C   0  0  0  0  0  0  0  0  0  0  0  0
  138.8600   75.4750  221.5080 C   0  0  0  0  0  0  0  0  0  0  0  0
  138.0280   75.7460  222.4190 O   0  0  0  0  0  0  0  0  0  0  0  0
  139.4880   76.5150  220.7890 N   0  0  0  0  0  0  0  0  0  0  0  0
  138.8700   77.6510  220.1020 C   0  0  0  0  0  0  0  0  0  0  0  0
  139.6310   77.6800  218.8040 C   0  0  0  0  0  0  0  0  0  0  0  0
  140.9390   76.9600  219.0810 C   0  0  2  0  0  0  0  0  0  0  0  0
  140.9080   75.7100  218.4270 O   0  0  0  0  0  0  0  0  0  0  0  0
  140.9270   76.7070  220.5530 C   0  0  1  0  0  0  0  0  0  0  0  0
  141.3240   77.8450  221.3870 C   0  0  0  0  0  0  0  0  0  0  0  0
  141.1760   77.7000  222.7710 C   0  0  0  0  0  0  0  0  0  0  0  0
  141.5410   78.7590  223.6080 C   0  0  0  0  0  0  0  0  0  0  0  0
  142.0410   79.9390  223.1150 C   0  0  0  0  0  0  0  0  0  0  0  0
  142.5040   81.2780  224.1530 Cl  0  0  0  0  0  0  0  0  0  0  0  0
  142.1880   80.0860  221.7510 C   0  0  0  0  0  0  0  0  0  0  0  0
  141.8220   79.0320  220.9480 C   0  0  0  0  0  0  0  0  0  0  0  0
  139.5970   71.0430  223.4680 C   0  0  0  0  0  0  0  0  0  0  0  0
  139.2580   69.6980  223.3530 C   0  0  0  0  0  0  0  0  0  0  0  0
  139.4760   68.9310  224.4920 C   0  0  0  0  0  0  0  0  0  0  0  0
  139.9920   69.4620  225.6560 C   0  0  0  0  0  0  0  0  0  0  0  0
  140.2060   68.6880  226.7860 C   0  0  0  0  0  0  0  0  0  0  0  0
  140.7280   69.2490  227.9540 C   0  0  0  0  0  0  0  0  0  0  0  0
  140.9240   68.4540  229.0470 F   0  0  0  0  0  0  0  0  0  0  0  0
  141.0290   70.5970  227.9550 C   0  0  0  0  0  0  0  0  0  0  0  0
  140.8310   71.3990  226.8520 C   0  0  0  0  0  0  0  0  0  0  0  0
  140.3120   70.8090  225.7150 C   0  0  0  0  0  0  0  0  0  0  0  0
  140.1000   71.5480  224.6120 N   0  0  0  0  0  0  0  0  0  0  0  0
  139.5710   73.7760  223.3310 H   0  0  0  0  0  0  0  0  0  0  0  0
  140.1093   74.0582  220.5697 H   0  0  0  0  0  0  0  0  0  0  0  0
  138.3585   73.6345  220.6159 H   0  0  0  0  0  0  0  0  0  0  0  0
  137.7966   77.4804  219.9327 H   0  0  0  0  0  0  0  0  0  0  0  0
  138.9198   78.5931  220.6676 H   0  0  0  0  0  0  0  0  0  0  0  0
  139.0661   77.1604  218.0161 H   0  0  0  0  0  0  0  0  0  0  0  0
  139.7992   78.7091  218.4539 H   0  0  0  0  0  0  0  0  0  0  0  0
  141.8168   77.5323  218.7465 H   0  0  0  0  0  0  0  0  0  0  0  0
  141.8010   75.3840  218.2350 H   0  0  0  0  0  0  0  0  0  0  0  0
  141.6237   75.8949  220.8080 H   0  0  0  0  0  0  0  0  0  0  0  0
  140.7781   76.7660  223.1945 H   0  0  0  0  0  0  0  0  0  0  0  0
  141.4239   78.6431  224.6956 H   0  0  0  0  0  0  0  0  0  0  0  0
  142.5853   81.0168  221.3199 H   0  0  0  0  0  0  0  0  0  0  0  0
  141.9417   79.1590  219.8619 H   0  0  0  0  0  0  0  0  0  0  0  0
  138.8465   69.2718  222.4262 H   0  0  0  0  0  0  0  0  0  0  0  0
  139.2275   67.8598  224.4639 H   0  0  0  0  0  0  0  0  0  0  0  0
  139.9610   67.6159  226.7626 H   0  0  0  0  0  0  0  0  0  0  0  0
  141.4420   71.0469  228.8699 H   0  0  0  0  0  0  0  0  0  0  0  0
  141.0773   72.4708  226.8756 H   0  0  0  0  0  0  0  0  0  0  0  0
  1  2  2  0
  2  3  1  0
  3  4  1  0
  4  5  1  0
  5  6  2  0
  5  7  1  0
  7  8  1  0
  8  9  1  0
  9 10  1  0
 10 11  1  0
 10 12  1  0
 12 13  1  0
 13 14  2  0
 14 15  1  0
 15 16  2  0
 16 17  1  0
 16 18  1  0
 18 19  2  0
  2 20  1  0
 20 21  2  0
 21 22  1  0
 22 23  2  0
 23 24  1  0
 24 25  2  0
 25 26  1  0
 25 27  1  0
 27 28  2  0
 28 29  1  0
 29 30  2  0
 12  7  1  0
 19 13  1  0
 30 20  1  0
 29 23  1  0
  3 31  1  0
  4 32  1  0
  4 33  1  0
  8 34  1  0
  8 35  1  0
  9 36  1  0
  9 37  1  0
 10 38  1  1
 11 39  1  0
 12 40  1  6
 14 41  1  0
 15 42  1  0
 18 43  1  0
 19 44  1  0
 21 45  1  0
 22 46  1  0
 24 47  1  0
 27 48  1  0
 28 49  1  0
M  END
>  <smiles>  (39) 
O=C(NCC(=O)N1CC[C@H](O)[C@H]1c1ccc(Cl)cc1)c1ccc2cc(F)ccc2n1

>  <score_type>  (39) 
oracle

>  <origin>  (39) 
autodockgpu

>  <m_score__min__energy>  (39) 
-8.7300000000000004

>  <m_primary>  (39) 
energy

>  <rmsd>  (39) 
1.660264793137847

>  <m_score__min__rmsd>  (39) 
1.660264793137847

>  <meeko>  (39) 
{"free_energy": -7.98, "intermolecular_energy": -9.77, "internal_energy": -1.57, "cluster_size": 36, "cluster_id": 1, "rank_in_cluster": 15}

>  <energy>  (39) 
-8.07

>  <cluster_rmsd>  (39) 
1.55

>  <cluster>  (39) 
2

$$$$

     RDKit          3D

 49 52  0  0  0  0  0  0  0  0999 V2000
  140.5880   72.9140  222.3620 O   0  0  0  0  0  0  0  0  0  0  0  0
  139.5730   72.2100  222.6930 C   0  0  0  0  0  0  0  0  0  0  0  0
  138.3960   72.3970  221.9550 N   0  0  0  0  0  0  0  0  0  0  0  0
  138.4210   73.3780  220.8710 C   0  0  0  0  0  0  0  0  0  0  0  0
  138.7550   74.7110  221.3990 C   0  0  0  0  0  0  0  0  0  0  0  0
  138.0780   75.2290  222.3310 O   0  0  0  0  0  0  0  0  0  0  0  0
  139.8510   75.4090  220.8460 N   0  0  0  0  0  0  0  0  0  0  0  0
  139.9850   75.9820  219.5060 C   0  0  0  0  0  0  0  0  0  0  0  0
  141.3780   75.5590  219.1260 C   0  0  0  0  0  0  0  0  0  0  0  0
  142.0960   75.2880  220.4360 C   0  0  2  0  0  0  0  0  0  0  0  0
  142.2750   73.8950  220.5670 O   0  0  0  0  0  0  0  0  0  0  0  0
  141.1340   75.7290  221.4910 C   0  0  1  0  0  0  0  0  0  0  0  0
  141.1070   77.1710  221.7510 C   0  0  0  0  0  0  0  0  0  0  0  0
  140.2240   77.6200  222.7390 C   0  0  0  0  0  0  0  0  0  0  0  0
  140.1620   78.9880  223.0230 C   0  0  0  0  0  0  0  0  0  0  0  0
  140.9410   79.9060  222.3620 C   0  0  0  0  0  0  0  0  0  0  0  0
  140.8750   81.6270  222.7060 Cl  0  0  0  0  0  0  0  0  0  0  0  0
  141.8130   79.4670  221.3870 C   0  0  0  0  0  0  0  0  0  0  0  0
  141.8560   78.1170  221.1250 C   0  0  0  0  0  0  0  0  0  0  0  0
  139.6560   71.2510  223.7990 C   0  0  0  0  0  0  0  0  0  0  0  0
  139.0980   69.9890  223.6180 C   0  0  0  0  0  0  0  0  0  0  0  0
  139.2100   69.1270  224.7040 C   0  0  0  0  0  0  0  0  0  0  0  0
  139.8310   69.4940  225.8800 C   0  0  0  0  0  0  0  0  0  0  0  0
  139.9380   68.6270  226.9550 C   0  0  0  0  0  0  0  0  0  0  0  0
  140.5710   69.0210  228.1380 C   0  0  0  0  0  0  0  0  0  0  0  0
  140.6560   68.1390  229.1760 F   0  0  0  0  0  0  0  0  0  0  0  0
  141.0900   70.3000  228.2070 C   0  0  0  0  0  0  0  0  0  0  0  0
  141.0030   71.1900  227.1580 C   0  0  0  0  0  0  0  0  0  0  0  0
  140.3700   70.7650  226.0060 C   0  0  0  0  0  0  0  0  0  0  0  0
  140.2600   71.5950  224.9550 N   0  0  0  0  0  0  0  0  0  0  0  0
  137.5290   71.8450  222.1830 H   0  0  0  0  0  0  0  0  0  0  0  0
  139.1773   73.0809  220.1296 H   0  0  0  0  0  0  0  0  0  0  0  0
  137.4279   73.4173  220.3996 H   0  0  0  0  0  0  0  0  0  0  0  0
  139.2376   75.5642  218.8155 H   0  0  0  0  0  0  0  0  0  0  0  0
  139.8250   77.0697  219.4695 H   0  0  0  0  0  0  0  0  0  0  0  0
  141.3477   74.6484  218.5096 H   0  0  0  0  0  0  0  0  0  0  0  0
  141.8902   76.3320  218.5343 H   0  0  0  0  0  0  0  0  0  0  0  0
  143.0706   75.7941  220.4990 H   0  0  0  0  0  0  0  0  0  0  0  0
  141.6150   73.5040  221.1620 H   0  0  0  0  0  0  0  0  0  0  0  0
  141.3799   75.2592  222.4548 H   0  0  0  0  0  0  0  0  0  0  0  0
  139.5878   76.9074  223.2845 H   0  0  0  0  0  0  0  0  0  0  0  0
  139.4676   79.3398  223.8001 H   0  0  0  0  0  0  0  0  0  0  0  0
  142.4527   80.1731  220.8373 H   0  0  0  0  0  0  0  0  0  0  0  0
  142.5531   77.7754  220.3457 H   0  0  0  0  0  0  0  0  0  0  0  0
  138.6028   69.6937  222.6812 H   0  0  0  0  0  0  0  0  0  0  0  0
  138.7876   68.1147  224.6220 H   0  0  0  0  0  0  0  0  0  0  0  0
  139.5186   67.6131  226.8769 H   0  0  0  0  0  0  0  0  0  0  0  0
  141.5908   70.6194  229.1328 H   0  0  0  0  0  0  0  0  0  0  0  0
  141.4231   72.2037  227.2355 H   0  0  0  0  0  0  0  0  0  0  0  0
  1  2  2  0
  2  3  1  0
  3  4  1  0
  4  5  1  0
  5  6  2  0
  5  7  1  0
  7  8  1  0
  8  9  1  0
  9 10  1  0
 10 11  1  0
 10 12  1  0
 12 13  1  0
 13 14  2  0
 14 15  1  0
 15 16  2  0
 16 17  1  0
 16 18  1  0
 18 19  2  0
  2 20  1  0
 20 21  2  0
 21 22  1  0
 22 23  2  0
 23 24  1  0
 24 25  2  0
 25 26  1  0
 25 27  1  0
 27 28  2  0
 28 29  1  0
 29 30  2  0
 12  7  1  0
 19 13  1  0
 30 20  1  0
 29 23  1  0
  3 31  1  0
  4 32  1  0
  4 33  1  0
  8 34  1  0
  8 35  1  0
  9 36  1  0
  9 37  1  0
 10 38  1  6
 11 39  1  0
 12 40  1  1
 14 41  1  0
 15 42  1  0
 18 43  1  0
 19 44  1  0
 21 45  1  0
 22 46  1  0
 24 47  1  0
 27 48  1  0
 28 49  1  0
M  END
>  <smiles>  (40) 
O=C(NCC(=O)N1CC[C@H](O)[C@H]1c1ccc(Cl)cc1)c1ccc2cc(F)ccc2n1

>  <score_type>  (40) 
oracle

>  <origin>  (40) 
autodockgpu

>  <m_score__min__energy>  (40) 
-8.7300000000000004

>  <m_primary>  (40) 
energy

>  <rmsd>  (40) 
1.9462407896077532

>  <m_score__min__rmsd>  (40) 
1.9462407896077532

>  <meeko>  (40) 
{"free_energy": -7.76, "intermolecular_energy": -9.55, "internal_energy": -2.12, "cluster_size": 36, "cluster_id": 1, "rank_in_cluster": 17}

>  <energy>  (40) 
-7.83

>  <cluster_rmsd>  (40) 
0.0

>  <cluster>  (40) 
3

$$$$

     RDKit          3D

 49 52  0  0  0  0  0  0  0  0999 V2000
  141.4170   72.3150  221.9090 O   0  0  0  0  0  0  0  0  0  0  0  0
  140.3790   72.3520  222.6530 C   0  0  0  0  0  0  0  0  0  0  0  0
  139.4200   73.3340  222.3680 N   0  0  0  0  0  0  0  0  0  0  0  0
  139.6830   74.2350  221.2470 C   0  0  0  0  0  0  0  0  0  0  0  0
  138.8730   75.4570  221.3760 C   0  0  0  0  0  0  0  0  0  0  0  0
  137.7790   75.4480  222.0070 O   0  0  0  0  0  0  0  0  0  0  0  0
  139.3370   76.6500  220.7800 N   0  0  0  0  0  0  0  0  0  0  0  0
  138.5690   77.8330  220.3890 C   0  0  0  0  0  0  0  0  0  0  0  0
  139.1430   78.1410  219.0320 C   0  0  0  0  0  0  0  0  0  0  0  0
  140.5150   77.4900  219.0110 C   0  0  2  0  0  0  0  0  0  0  0  0
  140.4650   76.3700  218.1550 O   0  0  0  0  0  0  0  0  0  0  0  0
  140.7180   76.9920  220.4050 C   0  0  1  0  0  0  0  0  0  0  0  0
  141.1600   78.0010  221.3720 C   0  0  0  0  0  0  0  0  0  0  0  0
  141.7030   79.1820  220.8520 C   0  0  0  0  0  0  0  0  0  0  0  0
  142.1390   80.1760  221.7340 C   0  0  0  0  0  0  0  0  0  0  0  0
  142.0510   80.0290  223.0970 C   0  0  0  0  0  0  0  0  0  0  0  0
  142.5940   81.2670  224.2190 Cl  0  0  0  0  0  0  0  0  0  0  0  0
  141.5160   78.8670  223.6130 C   0  0  0  0  0  0  0  0  0  0  0  0
  141.0950   77.9040  222.7260 C   0  0  0  0  0  0  0  0  0  0  0  0
  140.2130   71.3970  223.7550 C   0  0  0  0  0  0  0  0  0  0  0  0
  139.5560   70.1990  223.4920 C   0  0  0  0  0  0  0  0  0  0  0  0
  139.4320   69.3380  224.5780 C   0  0  0  0  0  0  0  0  0  0  0  0
  139.9260   69.6470  225.8280 C   0  0  0  0  0  0  0  0  0  0  0  0
  139.7970   68.7810  226.9030 C   0  0  0  0  0  0  0  0  0  0  0  0
  140.3040   69.1160  228.1610 C   0  0  0  0  0  0  0  0  0  0  0  0
  140.1570   68.2370  229.1960 F   0  0  0  0  0  0  0  0  0  0  0  0
  140.9390   70.3340  228.3080 C   0  0  0  0  0  0  0  0  0  0  0  0
  141.0860   71.2210  227.2630 C   0  0  0  0  0  0  0  0  0  0  0  0
  140.5720   70.8550  226.0340 C   0  0  0  0  0  0  0  0  0  0  0  0
  140.6900   71.6850  224.9830 N   0  0  0  0  0  0  0  0  0  0  0  0
  138.5450   73.4110  222.9480 H   0  0  0  0  0  0  0  0  0  0  0  0
  140.7493   74.5050  221.2403 H   0  0  0  0  0  0  0  0  0  0  0  0
  139.4183   73.7265  220.3082 H   0  0  0  0  0  0  0  0  0  0  0  0
  137.4937   77.6096  220.3273 H   0  0  0  0  0  0  0  0  0  0  0  0
  138.6429   78.6668  221.1026 H   0  0  0  0  0  0  0  0  0  0  0  0
  138.5058   77.7191  218.2409 H   0  0  0  0  0  0  0  0  0  0  0  0
  139.2040   79.2245  218.8525 H   0  0  0  0  0  0  0  0  0  0  0  0
  141.3055   78.1778  218.6763 H   0  0  0  0  0  0  0  0  0  0  0  0
  141.3410   76.1490  217.8030 H   0  0  0  0  0  0  0  0  0  0  0  0
  141.4876   76.2062  220.4233 H   0  0  0  0  0  0  0  0  0  0  0  0
  141.7856   79.3262  219.7646 H   0  0  0  0  0  0  0  0  0  0  0  0
  142.5652   81.1034  221.3239 H   0  0  0  0  0  0  0  0  0  0  0  0
  141.4289   78.7155  224.6990 H   0  0  0  0  0  0  0  0  0  0  0  0
  140.6712   76.9802  223.1467 H   0  0  0  0  0  0  0  0  0  0  0  0
  139.1623   69.9500  222.4955 H   0  0  0  0  0  0  0  0  0  0  0  0
  138.9208   68.3747  224.4341 H   0  0  0  0  0  0  0  0  0  0  0  0
  139.2880   67.8159  226.7633 H   0  0  0  0  0  0  0  0  0  0  0  0
  141.3420   70.6060  229.2947 H   0  0  0  0  0  0  0  0  0  0  0  0
  141.5947   72.1863  227.4028 H   0  0  0  0  0  0  0  0  0  0  0  0
  1  2  2  0
  2  3  1  0
  3  4  1  0
  4  5  1  0
  5  6  2  0
  5  7  1  0
  7  8  1  0
  8  9  1  0
  9 10  1  0
 10 11  1  0
 10 12  1  0
 12 13  1  0
 13 14  2  0
 14 15  1  0
 15 16  2  0
 16 17  1  0
 16 18  1  0
 18 19  2  0
  2 20  1  0
 20 21  2  0
 21 22  1  0
 22 23  2  0
 23 24  1  0
 24 25  2  0
 25 26  1  0
 25 27  1  0
 27 28  2  0
 28 29  1  0
 29 30  2  0
 12  7  1  0
 19 13  1  0
 30 20  1  0
 29 23  1  0
  3 31  1  0
  4 32  1  0
  4 33  1  0
  8 34  1  0
  8 35  1  0
  9 36  1  0
  9 37  1  0
 10 38  1  6
 11 39  1  0
 12 40  1  6
 14 41  1  0
 15 42  1  0
 18 43  1  0
 19 44  1  0
 21 45  1  0
 22 46  1  0
 24 47  1  0
 27 48  1  0
 28 49  1  0
M  END
>  <smiles>  (41) 
O=C(NCC(=O)N1CC[C@H](O)[C@H]1c1ccc(Cl)cc1)c1ccc2cc(F)ccc2n1

>  <score_type>  (41) 
oracle

>  <origin>  (41) 
autodockgpu

>  <m_score__min__energy>  (41) 
-8.7300000000000004

>  <m_primary>  (41) 
energy

>  <rmsd>  (41) 
1.9937765304666033

>  <m_score__min__rmsd>  (41) 
1.9937765304666033

>  <meeko>  (41) 
{"free_energy": -8.27, "intermolecular_energy": -10.06, "internal_energy": -1.63, "cluster_size": 36, "cluster_id": 1, "rank_in_cluster": 9}

>  <energy>  (41) 
-7.83

>  <cluster_rmsd>  (41) 
0.33

>  <cluster>  (41) 
3

$$$$

     RDKit          3D

 49 52  0  0  0  0  0  0  0  0999 V2000
  140.5090   71.6520  221.8510 O   0  0  0  0  0  0  0  0  0  0  0  0
  139.6390   71.6830  222.7870 C   0  0  0  0  0  0  0  0  0  0  0  0
  138.6200   72.6400  222.6820 N   0  0  0  0  0  0  0  0  0  0  0  0
  138.6330   73.5230  221.5170 C   0  0  0  0  0  0  0  0  0  0  0  0
  139.6570   74.5670  221.6810 C   0  0  0  0  0  0  0  0  0  0  0  0
  140.8490   74.2690  221.9700 O   0  0  0  0  0  0  0  0  0  0  0  0
  139.2850   75.9190  221.5130 N   0  0  0  0  0  0  0  0  0  0  0  0
  138.2170   76.6620  222.1830 C   0  0  0  0  0  0  0  0  0  0  0  0
  137.5970   77.4150  221.0370 C   0  0  0  0  0  0  0  0  0  0  0  0
  138.6690   77.4820  219.9640 C   0  0  2  0  0  0  0  0  0  0  0  0
  138.3000   76.6210  218.9090 O   0  0  0  0  0  0  0  0  0  0  0  0
  139.8890   76.9140  220.6130 C   0  0  1  0  0  0  0  0  0  0  0  0
  140.6280   77.8410  221.4750 C   0  0  0  0  0  0  0  0  0  0  0  0
  140.8780   79.1190  220.9640 C   0  0  0  0  0  0  0  0  0  0  0  0
  141.5800   80.0400  221.7490 C   0  0  0  0  0  0  0  0  0  0  0  0
  142.0320   79.7290  223.0070 C   0  0  0  0  0  0  0  0  0  0  0  0
  142.9150   80.8730  224.0050 Cl  0  0  0  0  0  0  0  0  0  0  0  0
  141.7880   78.4700  223.5150 C   0  0  0  0  0  0  0  0  0  0  0  0
  141.0960   77.5810  222.7250 C   0  0  0  0  0  0  0  0  0  0  0  0
  139.7190   70.7480  223.9150 C   0  0  0  0  0  0  0  0  0  0  0  0
  139.1710   69.4790  223.7550 C   0  0  0  0  0  0  0  0  0  0  0  0
  139.2800   68.6410  224.8600 C   0  0  0  0  0  0  0  0  0  0  0  0
  139.8870   69.0380  226.0340 C   0  0  0  0  0  0  0  0  0  0  0  0
  139.9900   68.1950  227.1290 C   0  0  0  0  0  0  0  0  0  0  0  0
  140.6090   68.6190  228.3080 C   0  0  0  0  0  0  0  0  0  0  0  0
  140.6910   67.7600  229.3660 F   0  0  0  0  0  0  0  0  0  0  0  0
  141.1180   69.9020  228.3550 C   0  0  0  0  0  0  0  0  0  0  0  0
  141.0350   70.7690  227.2860 C   0  0  0  0  0  0  0  0  0  0  0  0
  140.4160   70.3150  226.1380 C   0  0  0  0  0  0  0  0  0  0  0  0
  140.3090   71.1210  225.0680 N   0  0  0  0  0  0  0  0  0  0  0  0
  137.8760   72.7110  223.4240 H   0  0  0  0  0  0  0  0  0  0  0  0
  138.8572   72.9327  220.6163 H   0  0  0  0  0  0  0  0  0  0  0  0
  137.6469   74.0003  221.4179 H   0  0  0  0  0  0  0  0  0  0  0  0
  137.4917   75.9825  222.6544 H   0  0  0  0  0  0  0  0  0  0  0  0
  138.5700   77.3080  223.0003 H   0  0  0  0  0  0  0  0  0  0  0  0
  136.7111   76.8817  220.6618 H   0  0  0  0  0  0  0  0  0  0  0  0
  137.2637   78.4179  221.3422 H   0  0  0  0  0  0  0  0  0  0  0  0
  138.8178   78.5007  219.5767 H   0  0  0  0  0  0  0  0  0  0  0  0
  138.7020   75.7440  219.0060 H   0  0  0  0  0  0  0  0  0  0  0  0
  140.6085   76.5792  219.8512 H   0  0  0  0  0  0  0  0  0  0  0  0
  140.5275   79.3960  219.9588 H   0  0  0  0  0  0  0  0  0  0  0  0
  141.7757   81.0444  221.3455 H   0  0  0  0  0  0  0  0  0  0  0  0
  142.1354   78.1859  224.5193 H   0  0  0  0  0  0  0  0  0  0  0  0
  140.9060   76.5793  223.1379 H   0  0  0  0  0  0  0  0  0  0  0  0
  138.6858   69.1608  222.8205 H   0  0  0  0  0  0  0  0  0  0  0  0
  138.8668   67.6236  224.7955 H   0  0  0  0  0  0  0  0  0  0  0  0
  139.5783   67.1767  227.0693 H   0  0  0  0  0  0  0  0  0  0  0  0
  141.6073   70.2446  229.2787 H   0  0  0  0  0  0  0  0  0  0  0  0
  141.4475   71.7870  227.3455 H   0  0  0  0  0  0  0  0  0  0  0  0
  1  2  2  0
  2  3  1  0
  3  4  1  0
  4  5  1  0
  5  6  2  0
  5  7  1  0
  7  8  1  0
  8  9  1  0
  9 10  1  0
 10 11  1  0
 10 12  1  0
 12 13  1  0
 13 14  2  0
 14 15  1  0
 15 16  2  0
 16 17  1  0
 16 18  1  0
 18 19  2  0
  2 20  1  0
 20 21  2  0
 21 22  1  0
 22 23  2  0
 23 24  1  0
 24 25  2  0
 25 26  1  0
 25 27  1  0
 27 28  2  0
 28 29  1  0
 29 30  2  0
 12  7  1  0
 19 13  1  0
 30 20  1  0
 29 23  1  0
  3 31  1  0
  4 32  1  0
  4 33  1  0
  8 34  1  0
  8 35  1  0
  9 36  1  0
  9 37  1  0
 10 38  1  6
 11 39  1  0
 12 40  1  6
 14 41  1  0
 15 42  1  0
 18 43  1  0
 19 44  1  0
 21 45  1  0
 22 46  1  0
 24 47  1  0
 27 48  1  0
 28 49  1  0
M  END
>  <smiles>  (42) 
O=C(NCC(=O)N1CC[C@H](O)[C@H]1c1ccc(Cl)cc1)c1ccc2cc(F)ccc2n1

>  <score_type>  (42) 
oracle

>  <origin>  (42) 
autodockgpu

>  <m_score__min__energy>  (42) 
-8.7300000000000004

>  <m_primary>  (42) 
energy

>  <rmsd>  (42) 
2.358069409576986

>  <m_score__min__rmsd>  (42) 
2.358069409576986

>  <meeko>  (42) 
{"free_energy": -8.73, "intermolecular_energy": -10.52, "internal_energy": -1.16, "cluster_size": 36, "cluster_id": 1, "rank_in_cluster": 1}

>  <energy>  (42) 
-7.79

>  <cluster_rmsd>  (42) 
0.1

>  <cluster>  (42) 
3

$$$$

     RDKit          3D

 49 52  0  0  0  0  0  0  0  0999 V2000
  142.0940   71.2280  221.0460 O   0  0  0  0  0  0  0  0  0  0  0  0
  140.9710   71.8380  221.0730 C   0  0  0  0  0  0  0  0  0  0  0  0
  139.8130   71.0520  220.9840 N   0  0  0  0  0  0  0  0  0  0  0  0
  139.9800   69.6050  220.8680 C   0  0  0  0  0  0  0  0  0  0  0  0
  138.9430   68.9090  221.6470 C   0  0  0  0  0  0  0  0  0  0  0  0
  138.4920   67.7900  221.2740 O   0  0  0  0  0  0  0  0  0  0  0  0
  138.4540   69.5140  222.8250 N   0  0  0  0  0  0  0  0  0  0  0  0
  137.2110   69.2330  223.5470 C   0  0  0  0  0  0  0  0  0  0  0  0
  136.7090   70.6190  223.8510 C   0  0  0  0  0  0  0  0  0  0  0  0
  137.9300   71.5200  223.7870 C   0  0  2  0  0  0  0  0  0  0  0  0
  137.8410   72.3120  222.6230 O   0  0  0  0  0  0  0  0  0  0  0  0
  139.0820   70.5830  223.6170 C   0  0  1  0  0  0  0  0  0  0  0  0
  139.5580   69.9460  224.8480 C   0  0  0  0  0  0  0  0  0  0  0  0
  139.9540   70.7950  225.8880 C   0  0  0  0  0  0  0  0  0  0  0  0
  140.4150   70.2350  227.0840 C   0  0  0  0  0  0  0  0  0  0  0  0
  140.4920   68.8760  227.2700 C   0  0  0  0  0  0  0  0  0  0  0  0
  141.0690   68.1570  228.7650 Cl  0  0  0  0  0  0  0  0  0  0  0  0
  140.1020   68.0360  226.2470 C   0  0  0  0  0  0  0  0  0  0  0  0
  139.6520   68.6100  225.0810 C   0  0  0  0  0  0  0  0  0  0  0  0
  140.9150   73.2990  221.1930 C   0  0  0  0  0  0  0  0  0  0  0  0
  141.9590   74.0420  220.6510 C   0  0  0  0  0  0  0  0  0  0  0  0
  141.8450   75.4210  220.7980 C   0  0  0  0  0  0  0  0  0  0  0  0
  140.7750   76.0130  221.4370 C   0  0  0  0  0  0  0  0  0  0  0  0
  140.6730   77.3880  221.5780 C   0  0  0  0  0  0  0  0  0  0  0  0
  139.5790   77.9650  222.2290 C   0  0  0  0  0  0  0  0  0  0  0  0
  139.5140   79.3240  222.3490 F   0  0  0  0  0  0  0  0  0  0  0  0
  138.6000   77.1290  222.7290 C   0  0  0  0  0  0  0  0  0  0  0  0
  138.6670   75.7570  222.6090 C   0  0  0  0  0  0  0  0  0  0  0  0
  139.7630   75.2230  221.9590 C   0  0  0  0  0  0  0  0  0  0  0  0
  139.8760   73.8920  221.8140 N   0  0  0  0  0  0  0  0  0  0  0  0
  138.8600   71.5010  221.0010 H   0  0  0  0  0  0  0  0  0  0  0  0
  139.8970   69.3134  219.8106 H   0  0  0  0  0  0  0  0  0  0  0  0
  140.9698   69.3257  221.2583 H   0  0  0  0  0  0  0  0  0  0  0  0
  136.4992   68.6787  222.9176 H   0  0  0  0  0  0  0  0  0  0  0  0
  137.3474   68.6039  224.4390 H   0  0  0  0  0  0  0  0  0  0  0  0
  135.9634   70.9295  223.1043 H   0  0  0  0  0  0  0  0  0  0  0  0
  136.2191   70.6673  224.8347 H   0  0  0  0  0  0  0  0  0  0  0  0
  138.0248   72.1688  224.6702 H   0  0  0  0  0  0  0  0  0  0  0  0
  138.0900   73.2330  222.7970 H   0  0  0  0  0  0  0  0  0  0  0  0
  139.9513   71.1152  223.2033 H   0  0  0  0  0  0  0  0  0  0  0  0
  139.9034   71.8871  225.7665 H   0  0  0  0  0  0  0  0  0  0  0  0
  140.7254   70.9033  227.9007 H   0  0  0  0  0  0  0  0  0  0  0  0
  140.1495   66.9429  226.3604 H   0  0  0  0  0  0  0  0  0  0  0  0
  139.3430   67.9329  224.2710 H   0  0  0  0  0  0  0  0  0  0  0  0
  142.8139   73.5726  220.1423 H   0  0  0  0  0  0  0  0  0  0  0  0
  142.6384   76.0638  220.3891 H   0  0  0  0  0  0  0  0  0  0  0  0
  141.4646   78.0347  221.1716 H   0  0  0  0  0  0  0  0  0  0  0  0
  137.7347   77.5741  223.2420 H   0  0  0  0  0  0  0  0  0  0  0  0
  137.8758   75.1105  223.0164 H   0  0  0  0  0  0  0  0  0  0  0  0
  1  2  2  0
  2  3  1  0
  3  4  1  0
  4  5  1  0
  5  6  2  0
  5  7  1  0
  7  8  1  0
  8  9  1  0
  9 10  1  0
 10 11  1  0
 10 12  1  0
 12 13  1  0
 13 14  2  0
 14 15  1  0
 15 16  2  0
 16 17  1  0
 16 18  1  0
 18 19  2  0
  2 20  1  0
 20 21  2  0
 21 22  1  0
 22 23  2  0
 23 24  1  0
 24 25  2  0
 25 26  1  0
 25 27  1  0
 27 28  2  0
 28 29  1  0
 29 30  2  0
 12  7  1  0
 19 13  1  0
 30 20  1  0
 29 23  1  0
  3 31  1  0
  4 32  1  0
  4 33  1  0
  8 34  1  0
  8 35  1  0
  9 36  1  0
  9 37  1  0
 10 38  1  1
 11 39  1  0
 12 40  1  6
 14 41  1  0
 15 42  1  0
 18 43  1  0
 19 44  1  0
 21 45  1  0
 22 46  1  0
 24 47  1  0
 27 48  1  0
 28 49  1  0
M  END
>  <smiles>  (43) 
O=C(NCC(=O)N1CC[C@H](O)[C@H]1c1ccc(Cl)cc1)c1ccc2cc(F)ccc2n1

>  <score_type>  (43) 
oracle

>  <origin>  (43) 
autodockgpu

>  <m_score__min__energy>  (43) 
-8.7300000000000004

>  <m_primary>  (43) 
energy

>  <rmsd>  (43) 
7.544405713531978

>  <m_score__min__rmsd>  (43) 
7.544405713531978

>  <meeko>  (43) 
{"free_energy": -6.87, "intermolecular_energy": -8.66, "internal_energy": -2.97, "cluster_size": 1, "cluster_id": 8, "rank_in_cluster": 1}

>  <energy>  (43) 
-7.82

>  <cluster_rmsd>  (43) 
0.0

>  <cluster>  (43) 
4

$$$$

     RDKit          3D

 49 52  0  0  0  0  0  0  0  0999 V2000
  139.0330   70.7000  221.4060 O   0  0  0  0  0  0  0  0  0  0  0  0
  138.7860   71.3610  222.4730 C   0  0  0  0  0  0  0  0  0  0  0  0
  137.9200   72.4580  222.3600 N   0  0  0  0  0  0  0  0  0  0  0  0
  137.3700   72.7580  221.0390 C   0  0  0  0  0  0  0  0  0  0  0  0
  137.5730   74.1800  220.7150 C   0  0  0  0  0  0  0  0  0  0  0  0
  136.6000   74.9170  220.3900 O   0  0  0  0  0  0  0  0  0  0  0  0
  138.8790   74.7130  220.7730 N   0  0  0  0  0  0  0  0  0  0  0  0
  139.6750   75.2950  219.6910 C   0  0  0  0  0  0  0  0  0  0  0  0
  141.0240   74.6700  219.9290 C   0  0  0  0  0  0  0  0  0  0  0  0
  141.0310   74.2570  221.3900 C   0  0  2  0  0  0  0  0  0  0  0  0
  140.9530   72.8500  221.4560 O   0  0  0  0  0  0  0  0  0  0  0  0
  139.7610   74.8130  221.9460 C   0  0  1  0  0  0  0  0  0  0  0  0
  139.8020   76.2340  222.3000 C   0  0  0  0  0  0  0  0  0  0  0  0
  141.0670   76.8080  222.4730 C   0  0  0  0  0  0  0  0  0  0  0  0
  141.1590   78.1620  222.8110 C   0  0  0  0  0  0  0  0  0  0  0  0
  140.0450   78.9480  222.9790 C   0  0  0  0  0  0  0  0  0  0  0  0
  140.1430   80.6490  223.4040 Cl  0  0  0  0  0  0  0  0  0  0  0  0
  138.7960   78.3860  222.8090 C   0  0  0  0  0  0  0  0  0  0  0  0
  138.7310   77.0530  222.4770 C   0  0  0  0  0  0  0  0  0  0  0  0
  139.3910   70.9730  223.7510 C   0  0  0  0  0  0  0  0  0  0  0  0
  140.3010   71.8460  224.3390 C   0  0  0  0  0  0  0  0  0  0  0  0
  140.8380   71.4200  225.5490 C   0  0  0  0  0  0  0  0  0  0  0  0
  140.4940   70.2160  226.1290 C   0  0  0  0  0  0  0  0  0  0  0  0
  141.0350   69.8010  227.3360 C   0  0  0  0  0  0  0  0  0  0  0  0
  140.6730   68.5760  227.9040 C   0  0  0  0  0  0  0  0  0  0  0  0
  141.2280   68.2020  229.0940 F   0  0  0  0  0  0  0  0  0  0  0  0
  139.7590   67.7890  227.2320 C   0  0  0  0  0  0  0  0  0  0  0  0
  139.1990   68.1680  226.0300 C   0  0  0  0  0  0  0  0  0  0  0  0
  139.5820   69.3840  225.4990 C   0  0  0  0  0  0  0  0  0  0  0  0
  139.0650   69.8000  224.3300 N   0  0  0  0  0  0  0  0  0  0  0  0
  137.6810   73.0380  223.2060 H   0  0  0  0  0  0  0  0  0  0  0  0
  137.8765   72.1376  220.2850 H   0  0  0  0  0  0  0  0  0  0  0  0
  136.2917   72.5406  221.0412 H   0  0  0  0  0  0  0  0  0  0  0  0
  139.2737   75.0178  218.7050 H   0  0  0  0  0  0  0  0  0  0  0  0
  139.6880   76.3949  219.6901 H   0  0  0  0  0  0  0  0  0  0  0  0
  141.1598   73.7915  219.2811 H   0  0  0  0  0  0  0  0  0  0  0  0
  141.8422   75.3685  219.6997 H   0  0  0  0  0  0  0  0  0  0  0  0
  141.9271   74.6047  221.9249 H   0  0  0  0  0  0  0  0  0  0  0  0
  140.1660   72.5130  221.0010 H   0  0  0  0  0  0  0  0  0  0  0  0
  139.4835   74.2853  222.8704 H   0  0  0  0  0  0  0  0  0  0  0  0
  141.9763   76.2024  222.3449 H   0  0  0  0  0  0  0  0  0  0  0  0
  142.1539   78.6113  222.9465 H   0  0  0  0  0  0  0  0  0  0  0  0
  137.8820   78.9849  222.9350 H   0  0  0  0  0  0  0  0  0  0  0  0
  137.7314   76.6136  222.3438 H   0  0  0  0  0  0  0  0  0  0  0  0
  140.5765   72.8064  223.8788 H   0  0  0  0  0  0  0  0  0  0  0  0
  141.5641   72.0670  226.0630 H   0  0  0  0  0  0  0  0  0  0  0  0
  141.7601   70.4454  227.8547 H   0  0  0  0  0  0  0  0  0  0  0  0
  139.4666   66.8240  227.6716 H   0  0  0  0  0  0  0  0  0  0  0  0
  138.4727   67.5242  225.5123 H   0  0  0  0  0  0  0  0  0  0  0  0
  1  2  2  0
  2  3  1  0
  3  4  1  0
  4  5  1  0
  5  6  2  0
  5  7  1  0
  7  8  1  0
  8  9  1  0
  9 10  1  0
 10 11  1  0
 10 12  1  0
 12 13  1  0
 13 14  2  0
 14 15  1  0
 15 16  2  0
 16 17  1  0
 16 18  1  0
 18 19  2  0
  2 20  1  0
 20 21  2  0
 21 22  1  0
 22 23  2  0
 23 24  1  0
 24 25  2  0
 25 26  1  0
 25 27  1  0
 27 28  2  0
 28 29  1  0
 29 30  2  0
 12  7  1  0
 19 13  1  0
 30 20  1  0
 29 23  1  0
  3 31  1  0
  4 32  1  0
  4 33  1  0
  8 34  1  0
  8 35  1  0
  9 36  1  0
  9 37  1  0
 10 38  1  1
 11 39  1  0
 12 40  1  1
 14 41  1  0
 15 42  1  0
 18 43  1  0
 19 44  1  0
 21 45  1  0
 22 46  1  0
 24 47  1  0
 27 48  1  0
 28 49  1  0
M  END
>  <smiles>  (44) 
O=C(NCC(=O)N1CC[C@H](O)[C@H]1c1ccc(Cl)cc1)c1ccc2cc(F)ccc2n1

>  <score_type>  (44) 
oracle

>  <origin>  (44) 
autodockgpu

>  <m_score__min__energy>  (44) 
-8.7300000000000004

>  <m_primary>  (44) 
energy

>  <rmsd>  (44) 
3.139777039908637

>  <m_score__min__rmsd>  (44) 
3.139777039908637

>  <meeko>  (44) 
{"free_energy": -7.42, "intermolecular_energy": -9.21, "internal_energy": -2.35, "cluster_size": 36, "cluster_id": 1, "rank_in_cluster": 25}

>  <energy>  (44) 
-7.64

>  <cluster_rmsd>  (44) 
0.0

>  <cluster>  (44) 
5

$$$$

     RDKit          3D

 49 52  0  0  0  0  0  0  0  0999 V2000
  140.4680   72.5800  221.5990 O   0  0  0  0  0  0  0  0  0  0  0  0
  139.5520   72.4210  222.4780 C   0  0  0  0  0  0  0  0  0  0  0  0
  138.3950   73.2010  222.3470 N   0  0  0  0  0  0  0  0  0  0  0  0
  138.3270   74.1320  221.2210 C   0  0  0  0  0  0  0  0  0  0  0  0
  138.6520   75.4960  221.6690 C   0  0  0  0  0  0  0  0  0  0  0  0
  138.0610   76.0140  222.6580 O   0  0  0  0  0  0  0  0  0  0  0  0
  139.6410   76.2250  220.9740 N   0  0  0  0  0  0  0  0  0  0  0  0
  139.4770   77.1230  219.8290 C   0  0  0  0  0  0  0  0  0  0  0  0
  140.6170   76.7050  218.9410 C   0  0  0  0  0  0  0  0  0  0  0  0
  141.6260   76.0370  219.8570 C   0  0  2  0  0  0  0  0  0  0  0  0
  141.6110   74.6490  219.6030 O   0  0  0  0  0  0  0  0  0  0  0  0
  141.0890   76.2560  221.2340 C   0  0  1  0  0  0  0  0  0  0  0  0
  141.3660   77.5740  221.8120 C   0  0  0  0  0  0  0  0  0  0  0  0
  141.0930   77.7380  223.1750 C   0  0  0  0  0  0  0  0  0  0  0  0
  141.3420   78.9780  223.7720 C   0  0  0  0  0  0  0  0  0  0  0  0
  141.8470   80.0410  223.0630 C   0  0  0  0  0  0  0  0  0  0  0  0
  142.1650   81.6030  223.7990 Cl  0  0  0  0  0  0  0  0  0  0  0  0
  142.1180   79.8820  221.7200 C   0  0  0  0  0  0  0  0  0  0  0  0
  141.8650   78.6540  221.1540 C   0  0  0  0  0  0  0  0  0  0  0  0
  139.7230   71.4550  223.5700 C   0  0  0  0  0  0  0  0  0  0  0  0
  139.3810   70.1280  223.3310 C   0  0  0  0  0  0  0  0  0  0  0  0
  139.5670   69.2640  224.4060 C   0  0  0  0  0  0  0  0  0  0  0  0
  140.0550   69.6910  225.6230 C   0  0  0  0  0  0  0  0  0  0  0  0
  140.2360   68.8210  226.6870 C   0  0  0  0  0  0  0  0  0  0  0  0
  140.7310   69.2760  227.9130 C   0  0  0  0  0  0  0  0  0  0  0  0
  140.8960   68.3890  228.9380 F   0  0  0  0  0  0  0  0  0  0  0  0
  141.0380   70.6170  228.0370 C   0  0  0  0  0  0  0  0  0  0  0  0
  140.8710   71.5120  227.0020 C   0  0  0  0  0  0  0  0  0  0  0  0
  140.3790   71.0260  225.8060 C   0  0  0  0  0  0  0  0  0  0  0  0
  140.1990   71.8570  224.7660 N   0  0  0  0  0  0  0  0  0  0  0  0
  137.6090   73.1120  223.0410 H   0  0  0  0  0  0  0  0  0  0  0  0
  139.0467   73.8219  220.4491 H   0  0  0  0  0  0  0  0  0  0  0  0
  137.3072   74.1230  220.8088 H   0  0  0  0  0  0  0  0  0  0  0  0
  138.5068   76.9676  219.3344 H   0  0  0  0  0  0  0  0  0  0  0  0
  139.4896   78.1901  220.0957 H   0  0  0  0  0  0  0  0  0  0  0  0
  140.2671   75.9976  218.1748 H   0  0  0  0  0  0  0  0  0  0  0  0
  141.0552   77.5635  218.4109 H   0  0  0  0  0  0  0  0  0  0  0  0
  142.6452   76.4279  219.7210 H   0  0  0  0  0  0  0  0  0  0  0  0
  141.2120   74.1550  220.3360 H   0  0  0  0  0  0  0  0  0  0  0  0
  141.5227   75.5275  221.9348 H   0  0  0  0  0  0  0  0  0  0  0  0
  140.6887   76.9042  223.7677 H   0  0  0  0  0  0  0  0  0  0  0  0
  141.1267   79.1063  224.8431 H   0  0  0  0  0  0  0  0  0  0  0  0
  142.5234   80.7106  221.1207 H   0  0  0  0  0  0  0  0  0  0  0  0
  142.0842   78.5364  220.0825 H   0  0  0  0  0  0  0  0  0  0  0  0
  138.9911   69.7858  222.3610 H   0  0  0  0  0  0  0  0  0  0  0  0
  139.3153   68.2006  224.2802 H   0  0  0  0  0  0  0  0  0  0  0  0
  139.9864   67.7567  226.5649 H   0  0  0  0  0  0  0  0  0  0  0  0
  141.4301   70.9842  228.9969 H   0  0  0  0  0  0  0  0  0  0  0  0
  141.1208   72.5763  227.1241 H   0  0  0  0  0  0  0  0  0  0  0  0
  1  2  2  0
  2  3  1  0
  3  4  1  0
  4  5  1  0
  5  6  2  0
  5  7  1  0
  7  8  1  0
  8  9  1  0
  9 10  1  0
 10 11  1  0
 10 12  1  0
 12 13  1  0
 13 14  2  0
 14 15  1  0
 15 16  2  0
 16 17  1  0
 16 18  1  0
 18 19  2  0
  2 20  1  0
 20 21  2  0
 21 22  1  0
 22 23  2  0
 23 24  1  0
 24 25  2  0
 25 26  1  0
 25 27  1  0
 27 28  2  0
 28 29  1  0
 29 30  2  0
 12  7  1  0
 19 13  1  0
 30 20  1  0
 29 23  1  0
  3 31  1  0
  4 32  1  0
  4 33  1  0
  8 34  1  0
  8 35  1  0
  9 36  1  0
  9 37  1  0
 10 38  1  1
 11 39  1  0
 12 40  1  1
 14 41  1  0
 15 42  1  0
 18 43  1  0
 19 44  1  0
 21 45  1  0
 22 46  1  0
 24 47  1  0
 27 48  1  0
 28 49  1  0
M  END
>  <smiles>  (45) 
O=C(NCC(=O)N1CC[C@H](O)[C@H]1c1ccc(Cl)cc1)c1ccc2cc(F)ccc2n1

>  <score_type>  (45) 
oracle

>  <origin>  (45) 
autodockgpu

>  <m_score__min__energy>  (45) 
-8.7300000000000004

>  <m_primary>  (45) 
energy

>  <rmsd>  (45) 
1.816040063112739

>  <m_score__min__rmsd>  (45) 
1.816040063112739

>  <meeko>  (45) 
{"free_energy": -8.12, "intermolecular_energy": -9.91, "internal_energy": -2.11, "cluster_size": 36, "cluster_id": 1, "rank_in_cluster": 12}

>  <energy>  (45) 
-7.62

>  <cluster_rmsd>  (45) 
0.12

>  <cluster>  (45) 
5

$$$$

     RDKit          3D

 49 52  0  0  0  0  0  0  0  0999 V2000
  140.9850   72.4150  221.6450 O   0  0  0  0  0  0  0  0  0  0  0  0
  140.0080   72.3770  222.4690 C   0  0  0  0  0  0  0  0  0  0  0  0
  138.9450   73.2630  222.2430 N   0  0  0  0  0  0  0  0  0  0  0  0
  139.0370   74.1560  221.0890 C   0  0  0  0  0  0  0  0  0  0  0  0
  140.1600   75.0920  221.2590 C   0  0  0  0  0  0  0  0  0  0  0  0
  140.3400   75.7000  222.3510 O   0  0  0  0  0  0  0  0  0  0  0  0
  141.0420   75.3040  220.1760 N   0  0  0  0  0  0  0  0  0  0  0  0
  140.8080   75.0670  218.7510 C   0  0  0  0  0  0  0  0  0  0  0  0
  142.0910   74.4010  218.3330 C   0  0  0  0  0  0  0  0  0  0  0  0
  143.1220   74.8120  219.3690 C   0  0  2  0  0  0  0  0  0  0  0  0
  143.4170   73.6920  220.1740 O   0  0  0  0  0  0  0  0  0  0  0  0
  142.4190   75.8170  220.2220 C   0  0  1  0  0  0  0  0  0  0  0  0
  142.3630   77.1740  219.6730 C   0  0  0  0  0  0  0  0  0  0  0  0
  142.9640   77.3790  218.4260 C   0  0  0  0  0  0  0  0  0  0  0  0
  142.9350   78.6570  217.8590 C   0  0  0  0  0  0  0  0  0  0  0  0
  142.3360   79.7200  218.4890 C   0  0  0  0  0  0  0  0  0  0  0  0
  142.2920   81.3310  217.7910 Cl  0  0  0  0  0  0  0  0  0  0  0  0
  141.7410   79.5230  219.7180 C   0  0  0  0  0  0  0  0  0  0  0  0
  141.7820   78.2570  220.2550 C   0  0  0  0  0  0  0  0  0  0  0  0
  140.0160   71.4390  223.5970 C   0  0  0  0  0  0  0  0  0  0  0  0
  139.5110   70.1590  223.3890 C   0  0  0  0  0  0  0  0  0  0  0  0
  139.5480   69.3190  224.4970 C   0  0  0  0  0  0  0  0  0  0  0  0
  140.0490   69.7220  225.7170 C   0  0  0  0  0  0  0  0  0  0  0  0
  140.0810   68.8760  226.8140 C   0  0  0  0  0  0  0  0  0  0  0  0
  140.5920   69.3080  228.0410 C   0  0  0  0  0  0  0  0  0  0  0  0
  140.6060   68.4450  229.1000 F   0  0  0  0  0  0  0  0  0  0  0  0
  141.0680   70.6010  228.1330 C   0  0  0  0  0  0  0  0  0  0  0  0
  141.0530   71.4710  227.0640 C   0  0  0  0  0  0  0  0  0  0  0  0
  140.5390   71.0090  225.8680 C   0  0  0  0  0  0  0  0  0  0  0  0
  140.5030   71.8190  224.7950 N   0  0  0  0  0  0  0  0  0  0  0  0
  138.1140   73.2750  222.8890 H   0  0  0  0  0  0  0  0  0  0  0  0
  139.1963   73.5587  220.1791 H   0  0  0  0  0  0  0  0  0  0  0  0
  138.1020   74.7290  221.0031 H   0  0  0  0  0  0  0  0  0  0  0  0
  139.9435   74.4057  218.5920 H   0  0  0  0  0  0  0  0  0  0  0  0
  140.5738   75.9783  218.1812 H   0  0  0  0  0  0  0  0  0  0  0  0
  141.9707   73.3076  218.3240 H   0  0  0  0  0  0  0  0  0  0  0  0
  142.3926   74.7002  217.3183 H   0  0  0  0  0  0  0  0  0  0  0  0
  144.0476   75.1978  218.9169 H   0  0  0  0  0  0  0  0  0  0  0  0
  142.6390   73.3910  220.6680 H   0  0  0  0  0  0  0  0  0  0  0  0
  142.9216   75.9120  221.1958 H   0  0  0  0  0  0  0  0  0  0  0  0
  143.4526   76.5462  217.8990 H   0  0  0  0  0  0  0  0  0  0  0  0
  143.4066   78.8157  216.8780 H   0  0  0  0  0  0  0  0  0  0  0  0
  141.2501   80.3507  220.2509 H   0  0  0  0  0  0  0  0  0  0  0  0
  141.3058   78.1087  221.2354 H   0  0  0  0  0  0  0  0  0  0  0  0
  139.1109   69.8345  222.4171 H   0  0  0  0  0  0  0  0  0  0  0  0
  139.1628   68.2936  224.3962 H   0  0  0  0  0  0  0  0  0  0  0  0
  139.6985   67.8491  226.7177 H   0  0  0  0  0  0  0  0  0  0  0  0
  141.4738   70.9493  229.0942 H   0  0  0  0  0  0  0  0  0  0  0  0
  141.4369   72.4973  227.1600 H   0  0  0  0  0  0  0  0  0  0  0  0
  1  2  2  0
  2  3  1  0
  3  4  1  0
  4  5  1  0
  5  6  2  0
  5  7  1  0
  7  8  1  0
  8  9  1  0
  9 10  1  0
 10 11  1  0
 10 12  1  0
 12 13  1  0
 13 14  2  0
 14 15  1  0
 15 16  2  0
 16 17  1  0
 16 18  1  0
 18 19  2  0
  2 20  1  0
 20 21  2  0
 21 22  1  0
 22 23  2  0
 23 24  1  0
 24 25  2  0
 25 26  1  0
 25 27  1  0
 27 28  2  0
 28 29  1  0
 29 30  2  0
 12  7  1  0
 19 13  1  0
 30 20  1  0
 29 23  1  0
  3 31  1  0
  4 32  1  0
  4 33  1  0
  8 34  1  0
  8 35  1  0
  9 36  1  0
  9 37  1  0
 10 38  1  6
 11 39  1  0
 12 40  1  1
 14 41  1  0
 15 42  1  0
 18 43  1  0
 19 44  1  0
 21 45  1  0
 22 46  1  0
 24 47  1  0
 27 48  1  0
 28 49  1  0
M  END
>  <smiles>  (46) 
O=C(NCC(=O)N1CC[C@H](O)[C@H]1c1ccc(Cl)cc1)c1ccc2cc(F)ccc2n1

>  <score_type>  (46) 
oracle

>  <origin>  (46) 
autodockgpu

>  <m_score__min__energy>  (46) 
-8.7300000000000004

>  <m_primary>  (46) 
energy

>  <rmsd>  (46) 
1.8939887132539734

>  <m_score__min__rmsd>  (46) 
1.8939887132539734

>  <meeko>  (46) 
{"free_energy": -7.79, "intermolecular_energy": -9.58, "internal_energy": -2.01, "cluster_size": 3, "cluster_id": 3, "rank_in_cluster": 3}

>  <energy>  (46) 
-7.35

>  <cluster_rmsd>  (46) 
0.0

>  <cluster>  (46) 
6

$$$$

     RDKit          3D

 49 52  0  0  0  0  0  0  0  0999 V2000
  141.3660   72.3310  221.6910 O   0  0  0  0  0  0  0  0  0  0  0  0
  140.4210   72.4970  222.5370 C   0  0  0  0  0  0  0  0  0  0  0  0
  139.5740   73.5970  222.3450 N   0  0  0  0  0  0  0  0  0  0  0  0
  139.8370   74.4660  221.1980 C   0  0  0  0  0  0  0  0  0  0  0  0
  139.1490   75.7560  221.3700 C   0  0  0  0  0  0  0  0  0  0  0  0
  138.1290   75.8550  222.1070 O   0  0  0  0  0  0  0  0  0  0  0  0
  139.6480   76.8900  220.6930 N   0  0  0  0  0  0  0  0  0  0  0  0
  138.9010   78.0160  220.1270 C   0  0  0  0  0  0  0  0  0  0  0  0
  139.5750   78.1950  218.7930 C   0  0  0  0  0  0  0  0  0  0  0  0
  140.9500   77.5680  218.9420 C   0  0  2  0  0  0  0  0  0  0  0  0
  140.9760   76.3670  218.2020 O   0  0  0  0  0  0  0  0  0  0  0  0
  141.0500   77.2160  220.3910 C   0  0  1  0  0  0  0  0  0  0  0  0
  141.4070   78.3240  221.2810 C   0  0  0  0  0  0  0  0  0  0  0  0
  141.3430   78.0780  222.6570 C   0  0  0  0  0  0  0  0  0  0  0  0
  141.6750   79.1040  223.5470 C   0  0  0  0  0  0  0  0  0  0  0  0
  142.0630   80.3480  223.1130 C   0  0  0  0  0  0  0  0  0  0  0  0
  142.4840   81.6470  224.2170 Cl  0  0  0  0  0  0  0  0  0  0  0  0
  142.1290   80.5940  221.7570 C   0  0  0  0  0  0  0  0  0  0  0  0
  141.7970   79.5700  220.9010 C   0  0  0  0  0  0  0  0  0  0  0  0
  140.2450   71.5620  223.6540 C   0  0  0  0  0  0  0  0  0  0  0  0
  139.6070   70.3510  223.4020 C   0  0  0  0  0  0  0  0  0  0  0  0
  139.4720   69.5110  224.5030 C   0  0  0  0  0  0  0  0  0  0  0  0
  139.9370   69.8510  225.7560 C   0  0  0  0  0  0  0  0  0  0  0  0
  139.7970   69.0050  226.8450 C   0  0  0  0  0  0  0  0  0  0  0  0
  140.2750   69.3720  228.1070 C   0  0  0  0  0  0  0  0  0  0  0  0
  140.1190   68.5120  229.1560 F   0  0  0  0  0  0  0  0  0  0  0  0
  140.8930   70.5990  228.2410 C   0  0  0  0  0  0  0  0  0  0  0  0
  141.0500   71.4670  227.1810 C   0  0  0  0  0  0  0  0  0  0  0  0
  140.5650   71.0710  225.9500 C   0  0  0  0  0  0  0  0  0  0  0  0
  140.6940   71.8800  224.8850 N   0  0  0  0  0  0  0  0  0  0  0  0
  138.7790   73.7820  223.0100 H   0  0  0  0  0  0  0  0  0  0  0  0
  140.9200   74.6399  221.1145 H   0  0  0  0  0  0  0  0  0  0  0  0
  139.4638   73.9788  220.2852 H   0  0  0  0  0  0  0  0  0  0  0  0
  137.8356   77.7699  220.0074 H   0  0  0  0  0  0  0  0  0  0  0  0
  138.9123   78.9185  220.7558 H   0  0  0  0  0  0  0  0  0  0  0  0
  139.0041   77.6851  218.0030 H   0  0  0  0  0  0  0  0  0  0  0  0
  139.6403   79.2558  218.5093 H   0  0  0  0  0  0  0  0  0  0  0  0
  141.7578   78.2318  218.6002 H   0  0  0  0  0  0  0  0  0  0  0  0
  141.6260   75.7410  218.5580 H   0  0  0  0  0  0  0  0  0  0  0  0
  141.8232   76.4493  220.5472 H   0  0  0  0  0  0  0  0  0  0  0  0
  141.0358   77.0911  223.0333 H   0  0  0  0  0  0  0  0  0  0  0  0
  141.6239   78.9088  224.6283 H   0  0  0  0  0  0  0  0  0  0  0  0
  142.4373   81.5776  221.3729 H   0  0  0  0  0  0  0  0  0  0  0  0
  141.8513   79.7756  219.8217 H   0  0  0  0  0  0  0  0  0  0  0  0
  139.2358   70.0774  222.4033 H   0  0  0  0  0  0  0  0  0  0  0  0
  138.9754   68.5387  224.3689 H   0  0  0  0  0  0  0  0  0  0  0  0
  139.3028   68.0309  226.7147 H   0  0  0  0  0  0  0  0  0  0  0  0
  141.2742   70.8952  229.2294 H   0  0  0  0  0  0  0  0  0  0  0  0
  141.5444   72.4410  227.3114 H   0  0  0  0  0  0  0  0  0  0  0  0
  1  2  2  0
  2  3  1  0
  3  4  1  0
  4  5  1  0
  5  6  2  0
  5  7  1  0
  7  8  1  0
  8  9  1  0
  9 10  1  0
 10 11  1  0
 10 12  1  0
 12 13  1  0
 13 14  2  0
 14 15  1  0
 15 16  2  0
 16 17  1  0
 16 18  1  0
 18 19  2  0
  2 20  1  0
 20 21  2  0
 21 22  1  0
 22 23  2  0
 23 24  1  0
 24 25  2  0
 25 26  1  0
 25 27  1  0
 27 28  2  0
 28 29  1  0
 29 30  2  0
 12  7  1  0
 19 13  1  0
 30 20  1  0
 29 23  1  0
  3 31  1  0
  4 32  1  0
  4 33  1  0
  8 34  1  0
  8 35  1  0
  9 36  1  0
  9 37  1  0
 10 38  1  6
 11 39  1  0
 12 40  1  6
 14 41  1  0
 15 42  1  0
 18 43  1  0
 19 44  1  0
 21 45  1  0
 22 46  1  0
 24 47  1  0
 27 48  1  0
 28 49  1  0
M  END
>  <smiles>  (47) 
O=C(NCC(=O)N1CC[C@H](O)[C@H]1c1ccc(Cl)cc1)c1ccc2cc(F)ccc2n1

>  <score_type>  (47) 
oracle

>  <origin>  (47) 
autodockgpu

>  <m_score__min__energy>  (47) 
-8.7300000000000004

>  <m_primary>  (47) 
energy

>  <rmsd>  (47) 
2.018379171995329

>  <m_score__min__rmsd>  (47) 
2.018379171995329

>  <meeko>  (47) 
{"free_energy": -8.34, "intermolecular_energy": -10.13, "internal_energy": -1.67, "cluster_size": 36, "cluster_id": 1, "rank_in_cluster": 6}

>  <energy>  (47) 
-6.92

>  <cluster_rmsd>  (47) 
0.23

>  <cluster>  (47) 
6

$$$$

     RDKit          3D

 49 52  0  0  0  0  0  0  0  0999 V2000
  139.6330   73.9770  222.2340 O   0  0  0  0  0  0  0  0  0  0  0  0
  140.4900   73.0290  222.2890 C   0  0  0  0  0  0  0  0  0  0  0  0
  141.6150   73.1340  221.4590 N   0  0  0  0  0  0  0  0  0  0  0  0
  141.7190   74.3120  220.5990 C   0  0  0  0  0  0  0  0  0  0  0  0
  143.0790   74.4220  220.0490 C   0  0  0  0  0  0  0  0  0  0  0  0
  143.5520   75.5400  219.7030 O   0  0  0  0  0  0  0  0  0  0  0  0
  143.8550   73.2500  219.9100 N   0  0  0  0  0  0  0  0  0  0  0  0
  144.7130   72.6020  220.9030 C   0  0  0  0  0  0  0  0  0  0  0  0
  145.9380   72.2780  220.0910 C   0  0  0  0  0  0  0  0  0  0  0  0
  145.4740   72.2500  218.6450 C   0  0  2  0  0  0  0  0  0  0  0  0
  145.9840   73.3900  217.9900 O   0  0  0  0  0  0  0  0  0  0  0  0
  143.9880   72.3920  218.7230 C   0  0  1  0  0  0  0  0  0  0  0  0
  143.2570   71.1600  219.0300 C   0  0  0  0  0  0  0  0  0  0  0  0
  141.8610   71.2500  219.0910 C   0  0  0  0  0  0  0  0  0  0  0  0
  141.1180   70.1010  219.3810 C   0  0  0  0  0  0  0  0  0  0  0  0
  141.7160   68.8860  219.6090 C   0  0  0  0  0  0  0  0  0  0  0  0
  140.7970   67.4340  219.9740 Cl  0  0  0  0  0  0  0  0  0  0  0  0
  143.0910   68.7930  219.5500 C   0  0  0  0  0  0  0  0  0  0  0  0
  143.8000   69.9360  219.2630 C   0  0  0  0  0  0  0  0  0  0  0  0
  140.2890   71.8890  223.1900 C   0  0  0  0  0  0  0  0  0  0  0  0
  139.6740   70.7500  222.6810 C   0  0  0  0  0  0  0  0  0  0  0  0
  139.5140   69.7050  223.5850 C   0  0  0  0  0  0  0  0  0  0  0  0
  139.9350   69.7900  224.8960 C   0  0  0  0  0  0  0  0  0  0  0  0
  139.7700   68.7430  225.7890 C   0  0  0  0  0  0  0  0  0  0  0  0
  140.2030   68.8510  227.1140 C   0  0  0  0  0  0  0  0  0  0  0  0
  140.0230   67.7980  227.9640 F   0  0  0  0  0  0  0  0  0  0  0  0
  140.8030   70.0300  227.5110 C   0  0  0  0  0  0  0  0  0  0  0  0
  140.9840   71.0930  226.6520 C   0  0  0  0  0  0  0  0  0  0  0  0
  140.5420   70.9490  225.3510 C   0  0  0  0  0  0  0  0  0  0  0  0
  140.6950   71.9560  224.4740 N   0  0  0  0  0  0  0  0  0  0  0  0
  142.3540   72.3830  221.4630 H   0  0  0  0  0  0  0  0  0  0  0  0
  140.9990   74.2228  219.7722 H   0  0  0  0  0  0  0  0  0  0  0  0
  141.4990   75.2108  221.1938 H   0  0  0  0  0  0  0  0  0  0  0  0
  144.9515   73.2846  221.7320 H   0  0  0  0  0  0  0  0  0  0  0  0
  144.2534   71.7254  221.3830 H   0  0  0  0  0  0  0  0  0  0  0  0
  146.7078   73.0509  220.2323 H   0  0  0  0  0  0  0  0  0  0  0  0
  146.3851   71.3196  220.3936 H   0  0  0  0  0  0  0  0  0  0  0  0
  145.7960   71.3423  218.1135 H   0  0  0  0  0  0  0  0  0  0  0  0
  145.5510   74.2020  218.2950 H   0  0  0  0  0  0  0  0  0  0  0  0
  143.5847   72.7433  217.7618 H   0  0  0  0  0  0  0  0  0  0  0  0
  141.3557   72.2108  218.9134 H   0  0  0  0  0  0  0  0  0  0  0  0
  140.0213   70.1728  219.4279 H   0  0  0  0  0  0  0  0  0  0  0  0
  143.6037   67.8359  219.7267 H   0  0  0  0  0  0  0  0  0  0  0  0
  144.8959   69.8528  219.2184 H   0  0  0  0  0  0  0  0  0  0  0  0
  139.3375   70.6804  221.6360 H   0  0  0  0  0  0  0  0  0  0  0  0
  139.0341   68.7766  223.2419 H   0  0  0  0  0  0  0  0  0  0  0  0
  139.2910   67.8126  225.4500 H   0  0  0  0  0  0  0  0  0  0  0  0
  141.1492   70.1243  228.5508 H   0  0  0  0  0  0  0  0  0  0  0  0
  141.4635   72.0233  226.9906 H   0  0  0  0  0  0  0  0  0  0  0  0
  1  2  2  0
  2  3  1  0
  3  4  1  0
  4  5  1  0
  5  6  2  0
  5  7  1  0
  7  8  1  0
  8  9  1  0
  9 10  1  0
 10 11  1  0
 10 12  1  0
 12 13  1  0
 13 14  2  0
 14 15  1  0
 15 16  2  0
 16 17  1  0
 16 18  1  0
 18 19  2  0
  2 20  1  0
 20 21  2  0
 21 22  1  0
 22 23  2  0
 23 24  1  0
 24 25  2  0
 25 26  1  0
 25 27  1  0
 27 28  2  0
 28 29  1  0
 29 30  2  0
 12  7  1  0
 19 13  1  0
 30 20  1  0
 29 23  1  0
  3 31  1  0
  4 32  1  0
  4 33  1  0
  8 34  1  0
  8 35  1  0
  9 36  1  0
  9 37  1  0
 10 38  1  6
 11 39  1  0
 12 40  1  6
 14 41  1  0
 15 42  1  0
 18 43  1  0
 19 44  1  0
 21 45  1  0
 22 46  1  0
 24 47  1  0
 27 48  1  0
 28 49  1  0
M  END
>  <smiles>  (48) 
O=C(NCC(=O)N1CC[C@H](O)[C@H]1c1ccc(Cl)cc1)c1ccc2cc(F)ccc2n1

>  <score_type>  (48) 
oracle

>  <origin>  (48) 
autodockgpu

>  <m_score__min__energy>  (48) 
-8.7300000000000004

>  <m_primary>  (48) 
energy

>  <rmsd>  (48) 
4.0123558818228275

>  <m_score__min__rmsd>  (48) 
4.0123558818228275

>  <meeko>  (48) 
{"free_energy": -7.26, "intermolecular_energy": -9.05, "internal_energy": -2.1, "cluster_size": 1, "cluster_id": 7, "rank_in_cluster": 1}

>  <energy>  (48) 
-7.26

>  <cluster_rmsd>  (48) 
0.0

>  <cluster>  (48) 
7

$$$$

     RDKit          3D

 49 52  0  0  0  0  0  0  0  0999 V2000
  139.7830   71.5620  221.6480 O   0  0  0  0  0  0  0  0  0  0  0  0
  139.1550   71.7370  222.7480 C   0  0  0  0  0  0  0  0  0  0  0  0
  137.9610   72.4700  222.6940 N   0  0  0  0  0  0  0  0  0  0  0  0
  137.5310   72.9740  221.3910 C   0  0  0  0  0  0  0  0  0  0  0  0
  137.4290   74.4420  221.4220 C   0  0  0  0  0  0  0  0  0  0  0  0
  136.3120   75.0130  221.5670 O   0  0  0  0  0  0  0  0  0  0  0  0
  138.6060   75.2100  221.2850 N   0  0  0  0  0  0  0  0  0  0  0  0
  139.1930   75.7710  220.0670 C   0  0  0  0  0  0  0  0  0  0  0  0
  140.6510   75.4470  220.2480 C   0  0  0  0  0  0  0  0  0  0  0  0
  140.8450   75.2500  221.7410 C   0  0  2  0  0  0  0  0  0  0  0  0
  141.0490   73.8760  221.9870 O   0  0  0  0  0  0  0  0  0  0  0  0
  139.5340   75.6340  222.3450 C   0  0  1  0  0  0  0  0  0  0  0  0
  139.3210   77.0740  222.5150 C   0  0  0  0  0  0  0  0  0  0  0  0
  137.9970   77.5090  222.6430 C   0  0  0  0  0  0  0  0  0  0  0  0
  137.7430   78.8740  222.8080 C   0  0  0  0  0  0  0  0  0  0  0  0
  138.7530   79.8040  222.8480 C   0  0  0  0  0  0  0  0  0  0  0  0
  138.4510   81.5210  223.0550 Cl  0  0  0  0  0  0  0  0  0  0  0  0
  140.0600   79.3790  222.7240 C   0  0  0  0  0  0  0  0  0  0  0  0
  140.2850   78.0320  222.5620 C   0  0  0  0  0  0  0  0  0  0  0  0
  139.6760   71.1860  224.0040 C   0  0  0  0  0  0  0  0  0  0  0  0
  140.6450   71.9130  224.6880 C   0  0  0  0  0  0  0  0  0  0  0  0
  141.0960   71.3360  225.8710 C   0  0  0  0  0  0  0  0  0  0  0  0
  140.6180   70.1290  226.3360 C   0  0  0  0  0  0  0  0  0  0  0  0
  141.0750   69.5640  227.5160 C   0  0  0  0  0  0  0  0  0  0  0  0
  140.5770   68.3380  227.9670 C   0  0  0  0  0  0  0  0  0  0  0  0
  141.0520   67.8130  229.1350 F   0  0  0  0  0  0  0  0  0  0  0  0
  139.6140   67.7030  227.2060 C   0  0  0  0  0  0  0  0  0  0  0  0
  139.1360   68.2340  226.0280 C   0  0  0  0  0  0  0  0  0  0  0  0
  139.6520   69.4470  225.6140 C   0  0  0  0  0  0  0  0  0  0  0  0
  139.2180   70.0070  224.4720 N   0  0  0  0  0  0  0  0  0  0  0  0
  137.4010   72.6450  223.5690 H   0  0  0  0  0  0  0  0  0  0  0  0
  138.2640   72.6768  220.6266 H   0  0  0  0  0  0  0  0  0  0  0  0
  136.5446   72.5508  221.1503 H   0  0  0  0  0  0  0  0  0  0  0  0
  138.7845   75.2883  219.1669 H   0  0  0  0  0  0  0  0  0  0  0  0
  138.9896   76.8431  219.9284 H   0  0  0  0  0  0  0  0  0  0  0  0
  140.9103   74.5275  219.7028 H   0  0  0  0  0  0  0  0  0  0  0  0
  141.2966   76.2469  219.8564 H   0  0  0  0  0  0  0  0  0  0  0  0
  141.6922   75.8278  222.1391 H   0  0  0  0  0  0  0  0  0  0  0  0
  140.5350   73.3230  221.3790 H   0  0  0  0  0  0  0  0  0  0  0  0
  139.4328   75.1984  223.3500 H   0  0  0  0  0  0  0  0  0  0  0  0
  137.1676   76.7870  222.6142 H   0  0  0  0  0  0  0  0  0  0  0  0
  136.7017   79.2137  222.9089 H   0  0  0  0  0  0  0  0  0  0  0  0
  140.8949   80.0945  222.7538 H   0  0  0  0  0  0  0  0  0  0  0  0
  141.3298   77.7027  222.4623 H   0  0  0  0  0  0  0  0  0  0  0  0
  141.0277   72.8762  224.3195 H   0  0  0  0  0  0  0  0  0  0  0  0
  141.8631   71.8627  226.4577 H   0  0  0  0  0  0  0  0  0  0  0  0
  141.8410   70.0880  228.1066 H   0  0  0  0  0  0  0  0  0  0  0  0
  139.2147   66.7387  227.5533 H   0  0  0  0  0  0  0  0  0  0  0  0
  138.3699   67.7103  225.4374 H   0  0  0  0  0  0  0  0  0  0  0  0
  1  2  2  0
  2  3  1  0
  3  4  1  0
  4  5  1  0
  5  6  2  0
  5  7  1  0
  7  8  1  0
  8  9  1  0
  9 10  1  0
 10 11  1  0
 10 12  1  0
 12 13  1  0
 13 14  2  0
 14 15  1  0
 15 16  2  0
 16 17  1  0
 16 18  1  0
 18 19  2  0
  2 20  1  0
 20 21  2  0
 21 22  1  0
 22 23  2  0
 23 24  1  0
 24 25  2  0
 25 26  1  0
 25 27  1  0
 27 28  2  0
 28 29  1  0
 29 30  2  0
 12  7  1  0
 19 13  1  0
 30 20  1  0
 29 23  1  0
  3 31  1  0
  4 32  1  0
  4 33  1  0
  8 34  1  0
  8 35  1  0
  9 36  1  0
  9 37  1  0
 10 38  1  1
 11 39  1  0
 12 40  1  1
 14 41  1  0
 15 42  1  0
 18 43  1  0
 19 44  1  0
 21 45  1  0
 22 46  1  0
 24 47  1  0
 27 48  1  0
 28 49  1  0
M  END
>  <smiles>  (49) 
O=C(NCC(=O)N1CC[C@H](O)[C@H]1c1ccc(Cl)cc1)c1ccc2cc(F)ccc2n1

>  <score_type>  (49) 
oracle

>  <origin>  (49) 
autodockgpu

>  <m_score__min__energy>  (49) 
-8.7300000000000004

>  <m_primary>  (49) 
energy

>  <rmsd>  (49) 
3.221257782860048

>  <m_score__min__rmsd>  (49) 
3.221257782860048

>  <meeko>  (49) 
{"free_energy": -7.44, "intermolecular_energy": -9.23, "internal_energy": -2.34, "cluster_size": 36, "cluster_id": 1, "rank_in_cluster": 23}

>  <energy>  (49) 
-6.87

>  <cluster_rmsd>  (49) 
0.0

>  <cluster>  (49) 
8

$$$$

     RDKit          3D

 49 52  0  0  0  0  0  0  0  0999 V2000
  139.0310   71.6820  221.4130 O   0  0  0  0  0  0  0  0  0  0  0  0
  138.4960   71.8130  222.5670 C   0  0  0  0  0  0  0  0  0  0  0  0
  137.5100   72.8000  222.7080 N   0  0  0  0  0  0  0  0  0  0  0  0
  137.1740   73.5980  221.5300 C   0  0  0  0  0  0  0  0  0  0  0  0
  137.5360   75.0080  221.7520 C   0  0  0  0  0  0  0  0  0  0  0  0
  136.7060   75.8220  222.2450 O   0  0  0  0  0  0  0  0  0  0  0  0
  138.8330   75.4430  221.4010 N   0  0  0  0  0  0  0  0  0  0  0  0
  139.3680   75.7340  220.0700 C   0  0  0  0  0  0  0  0  0  0  0  0
  140.7180   75.0710  220.1270 C   0  0  0  0  0  0  0  0  0  0  0  0
  141.0570   74.9580  221.6030 C   0  0  2  0  0  0  0  0  0  0  0  0
  140.9590   73.6030  221.9820 O   0  0  0  0  0  0  0  0  0  0  0  0
  139.9670   75.7080  222.2990 C   0  0  1  0  0  0  0  0  0  0  0  0
  140.1280   77.1650  222.3250 C   0  0  0  0  0  0  0  0  0  0  0  0
  141.3890   77.6690  221.9850 C   0  0  0  0  0  0  0  0  0  0  0  0
  141.5920   79.0530  221.9950 C   0  0  0  0  0  0  0  0  0  0  0  0
  140.5920   79.9340  222.3290 C   0  0  0  0  0  0  0  0  0  0  0  0
  140.8310   81.6740  222.3470 Cl  0  0  0  0  0  0  0  0  0  0  0  0
  139.3480   79.4400  222.6640 C   0  0  0  0  0  0  0  0  0  0  0  0
  139.1720   78.0760  222.6480 C   0  0  0  0  0  0  0  0  0  0  0  0
  138.9070   70.9560  223.6850 C   0  0  0  0  0  0  0  0  0  0  0  0
  138.5810   69.6040  223.6300 C   0  0  0  0  0  0  0  0  0  0  0  0
  139.0010   68.8480  224.7190 C   0  0  0  0  0  0  0  0  0  0  0  0
  139.6910   69.3950  225.7810 C   0  0  0  0  0  0  0  0  0  0  0  0
  140.1040   68.6310  226.8610 C   0  0  0  0  0  0  0  0  0  0  0  0
  140.8010   69.2090  227.9260 C   0  0  0  0  0  0  0  0  0  0  0  0
  141.1910   68.4230  228.9730 F   0  0  0  0  0  0  0  0  0  0  0  0
  141.0710   70.5620  227.8740 C   0  0  0  0  0  0  0  0  0  0  0  0
  140.6770   71.3540  226.8170 C   0  0  0  0  0  0  0  0  0  0  0  0
  139.9890   70.7490  225.7830 C   0  0  0  0  0  0  0  0  0  0  0  0
  139.5830   71.4770  224.7290 N   0  0  0  0  0  0  0  0  0  0  0  0
  137.0350   72.9520  223.6350 H   0  0  0  0  0  0  0  0  0  0  0  0
  137.7270   73.2133  220.6604 H   0  0  0  0  0  0  0  0  0  0  0  0
  136.0916   73.5295  221.3463 H   0  0  0  0  0  0  0  0  0  0  0  0
  138.7395   75.2949  219.2813 H   0  0  0  0  0  0  0  0  0  0  0  0
  139.4093   76.8072  219.8322 H   0  0  0  0  0  0  0  0  0  0  0  0
  140.6754   74.0734  219.6656 H   0  0  0  0  0  0  0  0  0  0  0  0
  141.4775   75.6475  219.5785 H   0  0  0  0  0  0  0  0  0  0  0  0
  142.0629   75.3366  221.8370 H   0  0  0  0  0  0  0  0  0  0  0  0
  140.0670   73.3820  222.2940 H   0  0  0  0  0  0  0  0  0  0  0  0
  139.8995   75.3976  223.3521 H   0  0  0  0  0  0  0  0  0  0  0  0
  142.2082   76.9867  221.7140 H   0  0  0  0  0  0  0  0  0  0  0  0
  142.5830   79.4482  221.7271 H   0  0  0  0  0  0  0  0  0  0  0  0
  138.5233   80.1155  222.9352 H   0  0  0  0  0  0  0  0  0  0  0  0
  138.1776   77.6912  222.9183 H   0  0  0  0  0  0  0  0  0  0  0  0
  138.0303   69.1647  222.7852 H   0  0  0  0  0  0  0  0  0  0  0  0
  138.7742   67.7717  224.7342 H   0  0  0  0  0  0  0  0  0  0  0  0
  139.8801   67.5542  226.8804 H   0  0  0  0  0  0  0  0  0  0  0  0
  141.6208   71.0249  228.7067 H   0  0  0  0  0  0  0  0  0  0  0  0
  140.9026   72.4304  226.7974 H   0  0  0  0  0  0  0  0  0  0  0  0
  1  2  2  0
  2  3  1  0
  3  4  1  0
  4  5  1  0
  5  6  2  0
  5  7  1  0
  7  8  1  0
  8  9  1  0
  9 10  1  0
 10 11  1  0
 10 12  1  0
 12 13  1  0
 13 14  2  0
 14 15  1  0
 15 16  2  0
 16 17  1  0
 16 18  1  0
 18 19  2  0
  2 20  1  0
 20 21  2  0
 21 22  1  0
 22 23  2  0
 23 24  1  0
 24 25  2  0
 25 26  1  0
 25 27  1  0
 27 28  2  0
 28 29  1  0
 29 30  2  0
 12  7  1  0
 19 13  1  0
 30 20  1  0
 29 23  1  0
  3 31  1  0
  4 32  1  0
  4 33  1  0
  8 34  1  0
  8 35  1  0
  9 36  1  0
  9 37  1  0
 10 38  1  6
 11 39  1  0
 12 40  1  1
 14 41  1  0
 15 42  1  0
 18 43  1  0
 19 44  1  0
 21 45  1  0
 22 46  1  0
 24 47  1  0
 27 48  1  0
 28 49  1  0
M  END
>  <smiles>  (50) 
O=C(NCC(=O)N1CC[C@H](O)[C@H]1c1ccc(Cl)cc1)c1ccc2cc(F)ccc2n1

>  <score_type>  (50) 
oracle

>  <origin>  (50) 
autodockgpu

>  <m_score__min__energy>  (50) 
-8.7300000000000004

>  <m_primary>  (50) 
energy

>  <rmsd>  (50) 
2.3845238619961164

>  <m_score__min__rmsd>  (50) 
2.3845238619961164

>  <meeko>  (50) 
{"free_energy": -7.79, "intermolecular_energy": -9.58, "internal_energy": -2.3, "cluster_size": 36, "cluster_id": 1, "rank_in_cluster": 16}

>  <energy>  (50) 
-6.57

>  <cluster_rmsd>  (50) 
0.0

>  <cluster>  (50) 
9

$$$$
