
     RDKit          3D

 69 74  0  0  0  0  0  0  0  0999 V2000
  141.1280   68.5920  227.3860 C   0  0  0  0  0  0  0  0  0  0  0  0
  140.2170   69.6270  227.3940 C   0  0  0  0  0  0  0  0  0  0  0  0
  139.1570   69.6000  226.5140 C   0  0  0  0  0  0  0  0  0  0  0  0
  138.9530   68.5730  225.6080 C   0  0  0  0  0  0  0  0  0  0  0  0
  137.7920   68.6420  224.7220 C   0  0  0  0  0  0  0  0  0  0  0  0
  137.9270   69.4910  223.5850 N   0  0  0  0  0  0  0  0  0  0  0  0
  137.8010   70.8860  223.8190 C   0  0  0  0  0  0  0  0  0  0  0  0
  139.1680   71.5040  224.0310 C   0  0  0  0  0  0  0  0  0  0  0  0
  139.8510   71.4040  222.7520 N   0  0  0  0  0  0  0  0  0  0  0  0
  140.5720   72.4830  222.1750 C   0  0  0  0  0  0  0  0  0  0  0  0
  141.6950   72.3260  221.4590 N   0  0  0  0  0  0  0  0  0  0  0  0
  142.3600   73.3850  220.9220 C   0  0  0  0  0  0  0  0  0  0  0  0
  143.5560   73.2150  220.1610 N   0  0  0  0  0  0  0  0  0  0  0  0
  143.6620   72.0960  219.2570 C   0  0  0  0  0  0  0  0  0  0  0  0
  145.0520   72.1140  218.6590 C   0  0  0  0  0  0  0  0  0  0  0  0
  146.0050   72.2270  219.7440 N   0  0  0  0  0  0  0  0  0  0  0  0
  145.9910   73.5420  220.3450 C   0  0  0  0  0  0  0  0  0  0  0  0
  144.6170   74.1700  220.3260 C   0  0  0  0  0  0  0  0  0  0  0  0
  141.8500   74.6340  221.1290 N   0  0  0  0  0  0  0  0  0  0  0  0
  140.7270   74.8300  221.8400 C   0  0  0  0  0  0  0  0  0  0  0  0
  140.1780   76.1380  222.0670 N   0  0  0  0  0  0  0  0  0  0  0  0
  138.8140   76.3990  221.6660 C   0  0  0  0  0  0  0  0  0  0  0  0
  138.1250   77.3630  222.6110 C   0  0  0  0  0  0  0  0  0  0  0  0
  138.9940   78.5920  222.6560 C   0  0  0  0  0  0  0  0  0  0  0  0
  138.3930   79.8320  222.6600 C   0  0  0  0  0  0  0  0  0  0  0  0
  139.1850   80.9650  222.7020 C   0  0  0  0  0  0  0  0  0  0  0  0
  140.5630   80.8120  222.7390 C   0  0  0  0  0  0  0  0  0  0  0  0
  141.1340   79.5560  222.7340 C   0  0  0  0  0  0  0  0  0  0  0  0
  140.3570   78.4180  222.6920 C   0  0  0  0  0  0  0  0  0  0  0  0
  141.0410   77.1160  222.6900 C   0  0  0  0  0  0  0  0  0  0  0  0
  140.1260   73.7400  222.3390 N   0  0  0  0  0  0  0  0  0  0  0  0
  139.7710   70.1380  222.0640 C   0  0  0  0  0  0  0  0  0  0  0  0
  139.0910   69.0760  222.8500 C   0  0  0  0  0  0  0  0  0  0  0  0
  139.8800   67.5520  225.6240 C   0  0  0  0  0  0  0  0  0  0  0  0
  140.9600   67.5530  226.5010 C   0  0  0  0  0  0  0  0  0  0  0  0
  141.9808   68.5974  228.0808 H   0  0  0  0  0  0  0  0  0  0  0  0
  140.3352   70.4658  228.0958 H   0  0  0  0  0  0  0  0  0  0  0  0
  138.4392   70.4334  226.5321 H   0  0  0  0  0  0  0  0  0  0  0  0
  137.5831   67.6245  224.3601 H   0  0  0  0  0  0  0  0  0  0  0  0
  136.9823   69.0783  225.3253 H   0  0  0  0  0  0  0  0  0  0  0  0
  137.3189   71.3585  222.9505 H   0  0  0  0  0  0  0  0  0  0  0  0
  137.1899   71.0462  224.7195 H   0  0  0  0  0  0  0  0  0  0  0  0
  139.0696   72.5576  224.3312 H   0  0  0  0  0  0  0  0  0  0  0  0
  139.7250   70.9904  224.8284 H   0  0  0  0  0  0  0  0  0  0  0  0
  143.5027   71.1558  219.8052 H   0  0  0  0  0  0  0  0  0  0  0  0
  142.9022   72.1688  218.4649 H   0  0  0  0  0  0  0  0  0  0  0  0
  145.2303   71.1829  218.1010 H   0  0  0  0  0  0  0  0  0  0  0  0
  145.1590   72.9621  217.9667 H   0  0  0  0  0  0  0  0  0  0  0  0
  146.9620   72.0710  219.3440 H   0  0  0  0  0  0  0  0  0  0  0  0
  146.3258   73.4566  221.3893 H   0  0  0  0  0  0  0  0  0  0  0  0
  146.6620   74.1861  219.7577 H   0  0  0  0  0  0  0  0  0  0  0  0
  144.4632   74.7015  221.2767 H   0  0  0  0  0  0  0  0  0  0  0  0
  144.5815   74.8481  219.4606 H   0  0  0  0  0  0  0  0  0  0  0  0
  138.8167   76.8321  220.6549 H   0  0  0  0  0  0  0  0  0  0  0  0
  138.2631   75.4471  221.6865 H   0  0  0  0  0  0  0  0  0  0  0  0
  137.1231   77.6169  222.2346 H   0  0  0  0  0  0  0  0  0  0  0  0
  137.9959   76.9238  223.6112 H   0  0  0  0  0  0  0  0  0  0  0  0
  137.2969   79.9196  222.6302 H   0  0  0  0  0  0  0  0  0  0  0  0
  138.7313   81.9671  222.7060 H   0  0  0  0  0  0  0  0  0  0  0  0
  141.2081   81.7023  222.7727 H   0  0  0  0  0  0  0  0  0  0  0  0
  142.2295   79.4609  222.7641 H   0  0  0  0  0  0  0  0  0  0  0  0
  141.9813   77.1931  222.1244 H   0  0  0  0  0  0  0  0  0  0  0  0
  141.2677   76.8111  223.7223 H   0  0  0  0  0  0  0  0  0  0  0  0
  139.2155   70.2863  221.1262 H   0  0  0  0  0  0  0  0  0  0  0  0
  140.8031   69.7997  221.8897 H   0  0  0  0  0  0  0  0  0  0  0  0
  138.7846   68.2830  222.1519 H   0  0  0  0  0  0  0  0  0  0  0  0
  139.8209   68.7490  223.6052 H   0  0  0  0  0  0  0  0  0  0  0  0
  139.7620   66.7125  224.9230 H   0  0  0  0  0  0  0  0  0  0  0  0
  141.6803   66.7218  226.4865 H   0  0  0  0  0  0  0  0  0  0  0  0
  1  2  2  0
  2  3  1  0
  3  4  2  0
  4  5  1  0
  5  6  1  0
  6  7  1  0
  7  8  1  0
  8  9  1  0
  9 10  1  0
 10 11  2  0
 11 12  1  0
 12 13  1  0
 13 14  1  0
 14 15  1  0
 15 16  1  0
 16 17  1  0
 17 18  1  0
 12 19  2  0
 19 20  1  0
 20 21  1  0
 21 22  1  0
 22 23  1  0
 23 24  1  0
 24 25  2  0
 25 26  1  0
 26 27  2  0
 27 28  1  0
 28 29  2  0
 29 30  1  0
 20 31  2  0
  9 32  1  0
 32 33  1  0
  4 34  1  0
 34 35  2  0
 35  1  1  0
 33  6  1  0
 31 10  1  0
 18 13  1  0
 30 21  1  0
 29 24  1  0
  1 36  1  0
  2 37  1  0
  3 38  1  0
  5 39  1  0
  5 40  1  0
  7 41  1  0
  7 42  1  0
  8 43  1  0
  8 44  1  0
 14 45  1  0
 14 46  1  0
 15 47  1  0
 15 48  1  0
 16 49  1  0
 17 50  1  0
 17 51  1  0
 18 52  1  0
 18 53  1  0
 22 54  1  0
 22 55  1  0
 23 56  1  0
 23 57  1  0
 25 58  1  0
 26 59  1  0
 27 60  1  0
 28 61  1  0
 30 62  1  0
 30 63  1  0
 32 64  1  0
 32 65  1  0
 33 66  1  0
 33 67  1  0
 34 68  1  0
 35 69  1  0
M  END
>  <smiles>  (1) 
c1ccc(CN2CCN(c3nc(N4CCNCC4)nc(N4CCc5ccccc5C4)n3)CC2)cc1

>  <score_type>  (1) 
oracle

>  <origin>  (1) 
autodockgpu

>  <m_score__min__energy>  (1) 
-9.8499999999999996

>  <m_primary>  (1) 
energy

>  <rmsd>  (1) 
11.166716363101372

>  <m_score__min__rmsd>  (1) 
11.166716363101372

>  <meeko>  (1) 
{"free_energy": -9.06, "intermolecular_energy": -10.55, "internal_energy": -1.24, "cluster_size": 43, "cluster_id": 1, "rank_in_cluster": 37}

>  <energy>  (1) 
-9.85

>  <cluster_rmsd>  (1) 
0.0

>  <cluster>  (1) 
1

$$$$

     RDKit          3D

 69 74  0  0  0  0  0  0  0  0999 V2000
  142.6530   80.3840  223.4410 C   0  0  0  0  0  0  0  0  0  0  0  0
  141.8390   79.4930  224.1080 C   0  0  0  0  0  0  0  0  0  0  0  0
  140.5990   79.1920  223.5880 C   0  0  0  0  0  0  0  0  0  0  0  0
  140.1180   79.7460  222.4130 C   0  0  0  0  0  0  0  0  0  0  0  0
  138.7890   79.3540  221.9470 C   0  0  0  0  0  0  0  0  0  0  0  0
  138.6710   78.0240  221.4500 N   0  0  0  0  0  0  0  0  0  0  0  0
  139.7090   77.5750  220.5920 C   0  0  0  0  0  0  0  0  0  0  0  0
  140.7600   76.8310  221.3900 C   0  0  0  0  0  0  0  0  0  0  0  0
  140.1170   75.6160  221.8590 N   0  0  0  0  0  0  0  0  0  0  0  0
  140.7300   74.3370  221.7780 C   0  0  0  0  0  0  0  0  0  0  0  0
  141.6310   74.0050  220.8420 N   0  0  0  0  0  0  0  0  0  0  0  0
  142.1970   72.7690  220.7950 C   0  0  0  0  0  0  0  0  0  0  0  0
  143.1560   72.4180  219.7960 N   0  0  0  0  0  0  0  0  0  0  0  0
  144.0720   71.3330  220.0490 C   0  0  0  0  0  0  0  0  0  0  0  0
  145.0190   71.2440  218.8720 C   0  0  0  0  0  0  0  0  0  0  0  0
  145.5550   72.5670  218.6260 N   0  0  0  0  0  0  0  0  0  0  0  0
  144.5640   73.4580  218.0630 C   0  0  0  0  0  0  0  0  0  0  0  0
  143.1720   73.1640  218.5680 C   0  0  0  0  0  0  0  0  0  0  0  0
  141.8240   71.8560  221.7380 N   0  0  0  0  0  0  0  0  0  0  0  0
  140.9250   72.1530  222.6910 C   0  0  0  0  0  0  0  0  0  0  0  0
  140.5200   71.2030  223.6900 N   0  0  0  0  0  0  0  0  0  0  0  0
  139.2900   70.4680  223.4950 C   0  0  0  0  0  0  0  0  0  0  0  0
  139.3810   69.0610  224.0510 C   0  0  0  0  0  0  0  0  0  0  0  0
  139.7800   69.2110  225.4950 C   0  0  0  0  0  0  0  0  0  0  0  0
  139.1870   68.3980  226.4360 C   0  0  0  0  0  0  0  0  0  0  0  0
  139.5480   68.5300  227.7650 C   0  0  0  0  0  0  0  0  0  0  0  0
  140.5000   69.4810  228.1040 C   0  0  0  0  0  0  0  0  0  0  0  0
  141.0740   70.2800  227.1380 C   0  0  0  0  0  0  0  0  0  0  0  0
  140.7240   70.1600  225.8100 C   0  0  0  0  0  0  0  0  0  0  0  0
  141.3820   71.0480  224.8390 C   0  0  0  0  0  0  0  0  0  0  0  0
  140.4080   73.3900  222.6760 N   0  0  0  0  0  0  0  0  0  0  0  0
  138.7950   75.7500  222.4240 C   0  0  0  0  0  0  0  0  0  0  0  0
  138.3440   77.1600  222.5520 C   0  0  0  0  0  0  0  0  0  0  0  0
  140.9550   80.6330  221.7690 C   0  0  0  0  0  0  0  0  0  0  0  0
  142.2120   80.9550  222.2710 C   0  0  0  0  0  0  0  0  0  0  0  0
  143.6461   80.6355  223.8415 H   0  0  0  0  0  0  0  0  0  0  0  0
  142.1762   79.0272  225.0457 H   0  0  0  0  0  0  0  0  0  0  0  0
  139.9615   78.4788  224.1311 H   0  0  0  0  0  0  0  0  0  0  0  0
  138.0908   79.4619  222.7902 H   0  0  0  0  0  0  0  0  0  0  0  0
  138.5670   80.0115  221.0935 H   0  0  0  0  0  0  0  0  0  0  0  0
  139.2864   76.9024  219.8311 H   0  0  0  0  0  0  0  0  0  0  0  0
  140.1753   78.4447  220.1060 H   0  0  0  0  0  0  0  0  0  0  0  0
  141.6223   76.5861  220.7525 H   0  0  0  0  0  0  0  0  0  0  0  0
  141.1365   77.4377  222.2267 H   0  0  0  0  0  0  0  0  0  0  0  0
  144.6386   71.5288  220.9713 H   0  0  0  0  0  0  0  0  0  0  0  0
  143.5234   70.3877  220.1734 H   0  0  0  0  0  0  0  0  0  0  0  0
  145.8378   70.5470  219.1038 H   0  0  0  0  0  0  0  0  0  0  0  0
  144.4878   70.8760  217.9818 H   0  0  0  0  0  0  0  0  0  0  0  0
  146.3300   72.4720  217.9270 H   0  0  0  0  0  0  0  0  0  0  0  0
  144.8259   74.4922  218.3312 H   0  0  0  0  0  0  0  0  0  0  0  0
  144.5628   73.3120  216.9727 H   0  0  0  0  0  0  0  0  0  0  0  0
  142.6522   74.1192  218.7335 H   0  0  0  0  0  0  0  0  0  0  0  0
  142.6740   72.5461  217.8062 H   0  0  0  0  0  0  0  0  0  0  0  0
  138.4728   70.9999  224.0042 H   0  0  0  0  0  0  0  0  0  0  0  0
  139.1020   70.3968  222.4135 H   0  0  0  0  0  0  0  0  0  0  0  0
  138.4069   68.5558  223.9740 H   0  0  0  0  0  0  0  0  0  0  0  0
  140.1084   68.4532  223.4928 H   0  0  0  0  0  0  0  0  0  0  0  0
  138.4358   67.6532  226.1344 H   0  0  0  0  0  0  0  0  0  0  0  0
  139.0899   67.8943  228.5370 H   0  0  0  0  0  0  0  0  0  0  0  0
  140.8002   69.5988  229.1557 H   0  0  0  0  0  0  0  0  0  0  0  0
  141.8255   71.0274  227.4325 H   0  0  0  0  0  0  0  0  0  0  0  0
  141.5633   72.0301  225.3001 H   0  0  0  0  0  0  0  0  0  0  0  0
  142.3439   70.6141  224.5283 H   0  0  0  0  0  0  0  0  0  0  0  0
  138.0843   75.2147  221.7772 H   0  0  0  0  0  0  0  0  0  0  0  0
  138.8337   75.3298  223.4398 H   0  0  0  0  0  0  0  0  0  0  0  0
  137.2497   77.1555  222.6642 H   0  0  0  0  0  0  0  0  0  0  0  0
  138.8811   77.5678  223.4210 H   0  0  0  0  0  0  0  0  0  0  0  0
  140.6190   81.0995  220.8312 H   0  0  0  0  0  0  0  0  0  0  0  0
  142.8534   81.6671  221.7311 H   0  0  0  0  0  0  0  0  0  0  0  0
  1  2  2  0
  2  3  1  0
  3  4  2  0
  4  5  1  0
  5  6  1  0
  6  7  1  0
  7  8  1  0
  8  9  1  0
  9 10  1  0
 10 11  2  0
 11 12  1  0
 12 13  1  0
 13 14  1  0
 14 15  1  0
 15 16  1  0
 16 17  1  0
 17 18  1  0
 12 19  2  0
 19 20  1  0
 20 21  1  0
 21 22  1  0
 22 23  1  0
 23 24  1  0
 24 25  2  0
 25 26  1  0
 26 27  2  0
 27 28  1  0
 28 29  2  0
 29 30  1  0
 20 31  2  0
  9 32  1  0
 32 33  1  0
  4 34  1  0
 34 35  2  0
 35  1  1  0
 33  6  1  0
 31 10  1  0
 18 13  1  0
 30 21  1  0
 29 24  1  0
  1 36  1  0
  2 37  1  0
  3 38  1  0
  5 39  1  0
  5 40  1  0
  7 41  1  0
  7 42  1  0
  8 43  1  0
  8 44  1  0
 14 45  1  0
 14 46  1  0
 15 47  1  0
 15 48  1  0
 16 49  1  0
 17 50  1  0
 17 51  1  0
 18 52  1  0
 18 53  1  0
 22 54  1  0
 22 55  1  0
 23 56  1  0
 23 57  1  0
 25 58  1  0
 26 59  1  0
 27 60  1  0
 28 61  1  0
 30 62  1  0
 30 63  1  0
 32 64  1  0
 32 65  1  0
 33 66  1  0
 33 67  1  0
 34 68  1  0
 35 69  1  0
M  END
>  <smiles>  (2) 
c1ccc(CN2CCN(c3nc(N4CCNCC4)nc(N4CCc5ccccc5C4)n3)CC2)cc1

>  <score_type>  (2) 
oracle

>  <origin>  (2) 
autodockgpu

>  <m_score__min__energy>  (2) 
-9.8499999999999996

>  <m_primary>  (2) 
energy

>  <rmsd>  (2) 
3.9995901135098664

>  <m_score__min__rmsd>  (2) 
3.9995901135098664

>  <meeko>  (2) 
{"free_energy": -9.18, "intermolecular_energy": -10.68, "internal_energy": -1.22, "cluster_size": 43, "cluster_id": 1, "rank_in_cluster": 31}

>  <energy>  (2) 
-9.78

>  <cluster_rmsd>  (2) 
0.18

>  <cluster>  (2) 
1

$$$$

     RDKit          3D

 69 74  0  0  0  0  0  0  0  0999 V2000
  142.6000   80.2630  223.7540 C   0  0  0  0  0  0  0  0  0  0  0  0
  141.6630   79.3590  224.2070 C   0  0  0  0  0  0  0  0  0  0  0  0
  140.5480   79.1000  223.4400 C   0  0  0  0  0  0  0  0  0  0  0  0
  140.3140   79.7090  222.2180 C   0  0  0  0  0  0  0  0  0  0  0  0
  139.1010   79.3590  221.4820 C   0  0  0  0  0  0  0  0  0  0  0  0
  139.0980   78.0760  220.8630 N   0  0  0  0  0  0  0  0  0  0  0  0
  140.3430   77.6110  220.3640 C   0  0  0  0  0  0  0  0  0  0  0  0
  141.0280   76.7430  221.4020 C   0  0  0  0  0  0  0  0  0  0  0  0
  140.2090   75.5480  221.5230 N   0  0  0  0  0  0  0  0  0  0  0  0
  140.7540   74.2370  221.5430 C   0  0  0  0  0  0  0  0  0  0  0  0
  141.6120   73.7780  220.6200 N   0  0  0  0  0  0  0  0  0  0  0  0
  142.1130   72.5140  220.6710 C   0  0  0  0  0  0  0  0  0  0  0  0
  143.0260   72.0270  219.6860 N   0  0  0  0  0  0  0  0  0  0  0  0
  143.6980   70.7700  219.9080 C   0  0  0  0  0  0  0  0  0  0  0  0
  144.6590   70.5500  218.7600 C   0  0  0  0  0  0  0  0  0  0  0  0
  145.4560   71.7500  218.6060 N   0  0  0  0  0  0  0  0  0  0  0  0
  144.6870   72.8470  218.0610 C   0  0  0  0  0  0  0  0  0  0  0  0
  143.2430   72.8130  218.5020 C   0  0  0  0  0  0  0  0  0  0  0  0
  141.7200   71.7080  221.6990 N   0  0  0  0  0  0  0  0  0  0  0  0
  140.8630   72.1340  222.6420 C   0  0  0  0  0  0  0  0  0  0  0  0
  140.4370   71.2990  223.7300 N   0  0  0  0  0  0  0  0  0  0  0  0
  139.3140   70.4100  223.5280 C   0  0  0  0  0  0  0  0  0  0  0  0
  139.4740   69.1170  224.3020 C   0  0  0  0  0  0  0  0  0  0  0  0
  139.6870   69.5150  225.7380 C   0  0  0  0  0  0  0  0  0  0  0  0
  139.0700   68.7850  226.7290 C   0  0  0  0  0  0  0  0  0  0  0  0
  139.2600   69.1450  228.0510 C   0  0  0  0  0  0  0  0  0  0  0  0
  140.0710   70.2350  228.3330 C   0  0  0  0  0  0  0  0  0  0  0  0
  140.6750   70.9460  227.3170 C   0  0  0  0  0  0  0  0  0  0  0  0
  140.4940   70.5990  225.9950 C   0  0  0  0  0  0  0  0  0  0  0  0
  141.1720   71.4070  224.9700 C   0  0  0  0  0  0  0  0  0  0  0  0
  140.4090   73.3910  222.5280 N   0  0  0  0  0  0  0  0  0  0  0  0
  138.7820   75.7400  221.6250 C   0  0  0  0  0  0  0  0  0  0  0  0
  138.3780   77.1670  221.7150 C   0  0  0  0  0  0  0  0  0  0  0  0
  141.2700   80.6070  221.7910 C   0  0  0  0  0  0  0  0  0  0  0  0
  142.4050   80.8870  222.5460 C   0  0  0  0  0  0  0  0  0  0  0  0
  143.4953   80.4825  224.3542 H   0  0  0  0  0  0  0  0  0  0  0  0
  141.8041   78.8493  225.1715 H   0  0  0  0  0  0  0  0  0  0  0  0
  139.8096   78.3762  223.8154 H   0  0  0  0  0  0  0  0  0  0  0  0
  138.2569   79.3955  222.1864 H   0  0  0  0  0  0  0  0  0  0  0  0
  139.0308   80.0866  220.6600 H   0  0  0  0  0  0  0  0  0  0  0  0
  140.1719   77.0209  219.4516 H   0  0  0  0  0  0  0  0  0  0  0  0
  140.9850   78.4745  220.1358 H   0  0  0  0  0  0  0  0  0  0  0  0
  142.0434   76.4794  221.0710 H   0  0  0  0  0  0  0  0  0  0  0  0
  141.1262   77.2653  222.3651 H   0  0  0  0  0  0  0  0  0  0  0  0
  144.2515   70.8043  220.8580 H   0  0  0  0  0  0  0  0  0  0  0  0
  142.9684   69.9485  219.9611 H   0  0  0  0  0  0  0  0  0  0  0  0
  145.3130   69.6933  218.9798 H   0  0  0  0  0  0  0  0  0  0  0  0
  144.1050   70.3382  217.8336 H   0  0  0  0  0  0  0  0  0  0  0  0
  146.2260   71.5350  217.9280 H   0  0  0  0  0  0  0  0  0  0  0  0
  145.1363   73.7938  218.3954 H   0  0  0  0  0  0  0  0  0  0  0  0
  144.7051   72.7572  216.9648 H   0  0  0  0  0  0  0  0  0  0  0  0
  142.9154   73.8437  218.7028 H   0  0  0  0  0  0  0  0  0  0  0  0
  142.6667   72.3441  217.6908 H   0  0  0  0  0  0  0  0  0  0  0  0
  138.3957   70.9144  223.8632 H   0  0  0  0  0  0  0  0  0  0  0  0
  139.2611   70.1635  222.4573 H   0  0  0  0  0  0  0  0  0  0  0  0
  138.5681   68.5003  224.2069 H   0  0  0  0  0  0  0  0  0  0  0  0
  140.3163   68.5213  223.9204 H   0  0  0  0  0  0  0  0  0  0  0  0
  138.4334   67.9254  226.4724 H   0  0  0  0  0  0  0  0  0  0  0  0
  138.7782   68.5790  228.8618 H   0  0  0  0  0  0  0  0  0  0  0  0
  140.2341   70.5355  229.3785 H   0  0  0  0  0  0  0  0  0  0  0  0
  141.3134   71.8064  227.5663 H   0  0  0  0  0  0  0  0  0  0  0  0
  141.2043   72.4589  225.2902 H   0  0  0  0  0  0  0  0  0  0  0  0
  142.2004   71.0436  224.8276 H   0  0  0  0  0  0  0  0  0  0  0  0
  138.3076   75.2998  220.7355 H   0  0  0  0  0  0  0  0  0  0  0  0
  138.4572   75.2538  222.5567 H   0  0  0  0  0  0  0  0  0  0  0  0
  137.3114   77.2330  221.4543 H   0  0  0  0  0  0  0  0  0  0  0  0
  138.6065   77.4781  222.7450 H   0  0  0  0  0  0  0  0  0  0  0  0
  141.1313   81.1164  220.8260 H   0  0  0  0  0  0  0  0  0  0  0  0
  143.1471   81.6091  222.1748 H   0  0  0  0  0  0  0  0  0  0  0  0
  1  2  2  0
  2  3  1  0
  3  4  2  0
  4  5  1  0
  5  6  1  0
  6  7  1  0
  7  8  1  0
  8  9  1  0
  9 10  1  0
 10 11  2  0
 11 12  1  0
 12 13  1  0
 13 14  1  0
 14 15  1  0
 15 16  1  0
 16 17  1  0
 17 18  1  0
 12 19  2  0
 19 20  1  0
 20 21  1  0
 21 22  1  0
 22 23  1  0
 23 24  1  0
 24 25  2  0
 25 26  1  0
 26 27  2  0
 27 28  1  0
 28 29  2  0
 29 30  1  0
 20 31  2  0
  9 32  1  0
 32 33  1  0
  4 34  1  0
 34 35  2  0
 35  1  1  0
 33  6  1  0
 31 10  1  0
 18 13  1  0
 30 21  1  0
 29 24  1  0
  1 36  1  0
  2 37  1  0
  3 38  1  0
  5 39  1  0
  5 40  1  0
  7 41  1  0
  7 42  1  0
  8 43  1  0
  8 44  1  0
 14 45  1  0
 14 46  1  0
 15 47  1  0
 15 48  1  0
 16 49  1  0
 17 50  1  0
 17 51  1  0
 18 52  1  0
 18 53  1  0
 22 54  1  0
 22 55  1  0
 23 56  1  0
 23 57  1  0
 25 58  1  0
 26 59  1  0
 27 60  1  0
 28 61  1  0
 30 62  1  0
 30 63  1  0
 32 64  1  0
 32 65  1  0
 33 66  1  0
 33 67  1  0
 34 68  1  0
 35 69  1  0
M  END
>  <smiles>  (3) 
c1ccc(CN2CCN(c3nc(N4CCNCC4)nc(N4CCc5ccccc5C4)n3)CC2)cc1

>  <score_type>  (3) 
oracle

>  <origin>  (3) 
autodockgpu

>  <m_score__min__energy>  (3) 
-9.8499999999999996

>  <m_primary>  (3) 
energy

>  <rmsd>  (3) 
3.793535817789418

>  <m_score__min__rmsd>  (3) 
3.793535817789418

>  <meeko>  (3) 
{"free_energy": -8.99, "intermolecular_energy": -10.49, "internal_energy": -1.21, "cluster_size": 43, "cluster_id": 1, "rank_in_cluster": 38}

>  <energy>  (3) 
-9.77

>  <cluster_rmsd>  (3) 
0.3

>  <cluster>  (3) 
1

$$$$

     RDKit          3D

 69 74  0  0  0  0  0  0  0  0999 V2000
  142.6960   80.5310  223.4960 C   0  0  0  0  0  0  0  0  0  0  0  0
  142.1790   81.0640  222.3340 C   0  0  0  0  0  0  0  0  0  0  0  0
  140.9370   80.6580  221.8980 C   0  0  0  0  0  0  0  0  0  0  0  0
  140.1670   79.7260  222.5750 C   0  0  0  0  0  0  0  0  0  0  0  0
  138.8600   79.3680  222.0270 C   0  0  0  0  0  0  0  0  0  0  0  0
  138.7570   78.0610  221.4690 N   0  0  0  0  0  0  0  0  0  0  0  0
  139.8510   77.6230  220.6770 C   0  0  0  0  0  0  0  0  0  0  0  0
  140.8220   76.8260  221.5250 C   0  0  0  0  0  0  0  0  0  0  0  0
  140.1200   75.6070  221.8920 N   0  0  0  0  0  0  0  0  0  0  0  0
  140.7130   74.3200  221.8080 C   0  0  0  0  0  0  0  0  0  0  0  0
  141.5880   73.9680  220.8540 N   0  0  0  0  0  0  0  0  0  0  0  0
  142.1360   72.7230  220.8040 C   0  0  0  0  0  0  0  0  0  0  0  0
  143.0670   72.3510  219.7870 N   0  0  0  0  0  0  0  0  0  0  0  0
  143.8160   71.1270  219.9310 C   0  0  0  0  0  0  0  0  0  0  0  0
  144.7770   71.0330  218.7650 C   0  0  0  0  0  0  0  0  0  0  0  0
  145.4980   72.2860  218.6770 N   0  0  0  0  0  0  0  0  0  0  0  0
  144.6580   73.3640  218.2020 C   0  0  0  0  0  0  0  0  0  0  0  0
  143.2230   73.2160  218.6500 C   0  0  0  0  0  0  0  0  0  0  0  0
  141.7720   71.8230  221.7630 N   0  0  0  0  0  0  0  0  0  0  0  0
  140.8990   72.1400  222.7340 C   0  0  0  0  0  0  0  0  0  0  0  0
  140.5040   71.2040  223.7500 N   0  0  0  0  0  0  0  0  0  0  0  0
  139.2820   70.4540  223.5680 C   0  0  0  0  0  0  0  0  0  0  0  0
  139.3870   69.0580  224.1490 C   0  0  0  0  0  0  0  0  0  0  0  0
  139.7850   69.2370  225.5900 C   0  0  0  0  0  0  0  0  0  0  0  0
  139.2010   68.4350  226.5450 C   0  0  0  0  0  0  0  0  0  0  0  0
  139.5610   68.5930  227.8720 C   0  0  0  0  0  0  0  0  0  0  0  0
  140.5040   69.5590  228.1930 C   0  0  0  0  0  0  0  0  0  0  0  0
  141.0700   70.3470  227.2130 C   0  0  0  0  0  0  0  0  0  0  0  0
  140.7200   70.2010  225.8870 C   0  0  0  0  0  0  0  0  0  0  0  0
  141.3690   71.0780  224.9010 C   0  0  0  0  0  0  0  0  0  0  0  0
  140.3990   73.3850  222.7200 N   0  0  0  0  0  0  0  0  0  0  0  0
  138.7610   75.7490  222.3570 C   0  0  0  0  0  0  0  0  0  0  0  0
  138.3280   77.1620  222.5060 C   0  0  0  0  0  0  0  0  0  0  0  0
  140.7100   79.2110  223.7340 C   0  0  0  0  0  0  0  0  0  0  0  0
  141.9620   79.6040  224.1970 C   0  0  0  0  0  0  0  0  0  0  0  0
  143.6861   80.8446  223.8584 H   0  0  0  0  0  0  0  0  0  0  0  0
  142.7532   81.8066  221.7605 H   0  0  0  0  0  0  0  0  0  0  0  0
  140.5383   81.0936  220.9699 H   0  0  0  0  0  0  0  0  0  0  0  0
  138.1210   79.4477  222.8379 H   0  0  0  0  0  0  0  0  0  0  0  0
  138.6862   80.0630  221.1923 H   0  0  0  0  0  0  0  0  0  0  0  0
  139.4774   76.9894  219.8591 H   0  0  0  0  0  0  0  0  0  0  0  0
  140.3702   78.5003  220.2637 H   0  0  0  0  0  0  0  0  0  0  0  0
  141.7277   76.5874  220.9481 H   0  0  0  0  0  0  0  0  0  0  0  0
  141.1424   77.3913  222.4126 H   0  0  0  0  0  0  0  0  0  0  0  0
  144.3762   71.1402  220.8776 H   0  0  0  0  0  0  0  0  0  0  0  0
  143.1383   70.2606  219.9413 H   0  0  0  0  0  0  0  0  0  0  0  0
  145.4838   70.2064  218.9295 H   0  0  0  0  0  0  0  0  0  0  0  0
  144.2275   70.8420  217.8314 H   0  0  0  0  0  0  0  0  0  0  0  0
  146.2730   72.1590  217.9820 H   0  0  0  0  0  0  0  0  0  0  0  0
  145.0523   74.3155  218.5882 H   0  0  0  0  0  0  0  0  0  0  0  0
  144.6703   73.3392  217.1023 H   0  0  0  0  0  0  0  0  0  0  0  0
  142.8353   74.2112  218.9131 H   0  0  0  0  0  0  0  0  0  0  0  0
  142.6677   72.7608  217.8167 H   0  0  0  0  0  0  0  0  0  0  0  0
  138.4594   70.9867  224.0676 H   0  0  0  0  0  0  0  0  0  0  0  0
  139.0948   70.3618  222.4880 H   0  0  0  0  0  0  0  0  0  0  0  0
  138.4179   68.5420  224.0814 H   0  0  0  0  0  0  0  0  0  0  0  0
  140.1203   68.4478  223.6013 H   0  0  0  0  0  0  0  0  0  0  0  0
  138.4571   67.6777  226.2566 H   0  0  0  0  0  0  0  0  0  0  0  0
  139.1094   67.9664  228.6552 H   0  0  0  0  0  0  0  0  0  0  0  0
  140.8038   69.6979  229.2422 H   0  0  0  0  0  0  0  0  0  0  0  0
  141.8146   71.1063  227.4942 H   0  0  0  0  0  0  0  0  0  0  0  0
  141.5409   72.0697  225.3447 H   0  0  0  0  0  0  0  0  0  0  0  0
  142.3353   70.6489  224.5975 H   0  0  0  0  0  0  0  0  0  0  0  0
  138.0933   75.2549  221.6359 H   0  0  0  0  0  0  0  0  0  0  0  0
  138.7120   75.2897  223.3553 H   0  0  0  0  0  0  0  0  0  0  0  0
  137.2284   77.1770  222.5320 H   0  0  0  0  0  0  0  0  0  0  0  0
  138.8026   77.5239  223.4300 H   0  0  0  0  0  0  0  0  0  0  0  0
  140.1368   78.4684  224.3085 H   0  0  0  0  0  0  0  0  0  0  0  0
  142.3648   79.1723  225.1251 H   0  0  0  0  0  0  0  0  0  0  0  0
  1  2  2  0
  2  3  1  0
  3  4  2  0
  4  5  1  0
  5  6  1  0
  6  7  1  0
  7  8  1  0
  8  9  1  0
  9 10  1  0
 10 11  2  0
 11 12  1  0
 12 13  1  0
 13 14  1  0
 14 15  1  0
 15 16  1  0
 16 17  1  0
 17 18  1  0
 12 19  2  0
 19 20  1  0
 20 21  1  0
 21 22  1  0
 22 23  1  0
 23 24  1  0
 24 25  2  0
 25 26  1  0
 26 27  2  0
 27 28  1  0
 28 29  2  0
 29 30  1  0
 20 31  2  0
  9 32  1  0
 32 33  1  0
  4 34  1  0
 34 35  2  0
 35  1  1  0
 33  6  1  0
 31 10  1  0
 18 13  1  0
 30 21  1  0
 29 24  1  0
  1 36  1  0
  2 37  1  0
  3 38  1  0
  5 39  1  0
  5 40  1  0
  7 41  1  0
  7 42  1  0
  8 43  1  0
  8 44  1  0
 14 45  1  0
 14 46  1  0
 15 47  1  0
 15 48  1  0
 16 49  1  0
 17 50  1  0
 17 51  1  0
 18 52  1  0
 18 53  1  0
 22 54  1  0
 22 55  1  0
 23 56  1  0
 23 57  1  0
 25 58  1  0
 26 59  1  0
 27 60  1  0
 28 61  1  0
 30 62  1  0
 30 63  1  0
 32 64  1  0
 32 65  1  0
 33 66  1  0
 33 67  1  0
 34 68  1  0
 35 69  1  0
M  END
>  <smiles>  (4) 
c1ccc(CN2CCN(c3nc(N4CCNCC4)nc(N4CCc5ccccc5C4)n3)CC2)cc1

>  <score_type>  (4) 
oracle

>  <origin>  (4) 
autodockgpu

>  <m_score__min__energy>  (4) 
-9.8499999999999996

>  <m_primary>  (4) 
energy

>  <rmsd>  (4) 
3.6040131834142315

>  <m_score__min__rmsd>  (4) 
3.6040131834142315

>  <meeko>  (4) 
{"free_energy": -9.22, "intermolecular_energy": -10.71, "internal_energy": -1.24, "cluster_size": 43, "cluster_id": 1, "rank_in_cluster": 25}

>  <energy>  (4) 
-9.74

>  <cluster_rmsd>  (4) 
0.23

>  <cluster>  (4) 
1

$$$$

     RDKit          3D

 69 74  0  0  0  0  0  0  0  0999 V2000
  141.0530   68.7550  227.4110 C   0  0  0  0  0  0  0  0  0  0  0  0
  140.0720   69.7230  227.4330 C   0  0  0  0  0  0  0  0  0  0  0  0
  139.0420   69.6620  226.5200 C   0  0  0  0  0  0  0  0  0  0  0  0
  138.9380   68.6640  225.5650 C   0  0  0  0  0  0  0  0  0  0  0  0
  137.8010   68.6900  224.6460 C   0  0  0  0  0  0  0  0  0  0  0  0
  137.8980   69.6140  223.5660 N   0  0  0  0  0  0  0  0  0  0  0  0
  137.8680   70.9920  223.9060 C   0  0  0  0  0  0  0  0  0  0  0  0
  139.2800   71.5230  224.0520 C   0  0  0  0  0  0  0  0  0  0  0  0
  139.8580   71.4840  222.7190 N   0  0  0  0  0  0  0  0  0  0  0  0
  140.5930   72.5660  222.1650 C   0  0  0  0  0  0  0  0  0  0  0  0
  141.7290   72.4100  221.4690 N   0  0  0  0  0  0  0  0  0  0  0  0
  142.4070   73.4720  220.9530 C   0  0  0  0  0  0  0  0  0  0  0  0
  143.6170   73.3030  220.2140 N   0  0  0  0  0  0  0  0  0  0  0  0
  143.6660   72.3240  219.1560 C   0  0  0  0  0  0  0  0  0  0  0  0
  145.0780   72.3000  218.6120 C   0  0  0  0  0  0  0  0  0  0  0  0
  145.9870   72.1640  219.7320 N   0  0  0  0  0  0  0  0  0  0  0  0
  146.0600   73.3720  220.5220 C   0  0  0  0  0  0  0  0  0  0  0  0
  144.7490   74.1210  220.5530 C   0  0  0  0  0  0  0  0  0  0  0  0
  141.8980   74.7210  221.1600 N   0  0  0  0  0  0  0  0  0  0  0  0
  140.7620   74.9140  221.8510 C   0  0  0  0  0  0  0  0  0  0  0  0
  140.2120   76.2220  222.0780 N   0  0  0  0  0  0  0  0  0  0  0  0
  138.8470   76.4820  221.6780 C   0  0  0  0  0  0  0  0  0  0  0  0
  138.1590   77.4470  222.6230 C   0  0  0  0  0  0  0  0  0  0  0  0
  139.0270   78.6770  222.6660 C   0  0  0  0  0  0  0  0  0  0  0  0
  138.4260   79.9150  222.6700 C   0  0  0  0  0  0  0  0  0  0  0  0
  139.2170   81.0500  222.7100 C   0  0  0  0  0  0  0  0  0  0  0  0
  140.5960   80.8970  222.7450 C   0  0  0  0  0  0  0  0  0  0  0  0
  141.1670   79.6420  222.7400 C   0  0  0  0  0  0  0  0  0  0  0  0
  140.3910   78.5030  222.7000 C   0  0  0  0  0  0  0  0  0  0  0  0
  141.0750   77.2010  222.6980 C   0  0  0  0  0  0  0  0  0  0  0  0
  140.1480   73.8230  222.3300 N   0  0  0  0  0  0  0  0  0  0  0  0
  139.6560   70.2790  221.9520 C   0  0  0  0  0  0  0  0  0  0  0  0
  138.9780   69.1970  222.7120 C   0  0  0  0  0  0  0  0  0  0  0  0
  139.9340   67.7090  225.5690 C   0  0  0  0  0  0  0  0  0  0  0  0
  140.9850   67.7470  226.4790 C   0  0  0  0  0  0  0  0  0  0  0  0
  141.8826   68.7888  228.1326 H   0  0  0  0  0  0  0  0  0  0  0  0
  140.1111   70.5365  228.1724 H   0  0  0  0  0  0  0  0  0  0  0  0
  138.2666   70.4416  226.5508 H   0  0  0  0  0  0  0  0  0  0  0  0
  137.6889   67.6824  224.2191 H   0  0  0  0  0  0  0  0  0  0  0  0
  136.9398   69.0202  225.2454 H   0  0  0  0  0  0  0  0  0  0  0  0
  137.3491   71.5511  223.1135 H   0  0  0  0  0  0  0  0  0  0  0  0
  137.3361   71.1158  224.8609 H   0  0  0  0  0  0  0  0  0  0  0  0
  139.2636   72.5551  224.4323 H   0  0  0  0  0  0  0  0  0  0  0  0
  139.8659   70.9241  224.7648 H   0  0  0  0  0  0  0  0  0  0  0  0
  143.4005   71.3324  219.5513 H   0  0  0  0  0  0  0  0  0  0  0  0
  142.9522   72.5828  218.3600 H   0  0  0  0  0  0  0  0  0  0  0  0
  145.1997   71.4481  217.9269 H   0  0  0  0  0  0  0  0  0  0  0  0
  145.2899   73.2265  218.0581 H   0  0  0  0  0  0  0  0  0  0  0  0
  146.9440   71.9790  219.3440 H   0  0  0  0  0  0  0  0  0  0  0  0
  146.3379   73.1040  221.5520 H   0  0  0  0  0  0  0  0  0  0  0  0
  146.8107   74.0298  220.0596 H   0  0  0  0  0  0  0  0  0  0  0  0
  144.5995   74.5206  221.5669 H   0  0  0  0  0  0  0  0  0  0  0  0
  144.8120   74.9180  219.7975 H   0  0  0  0  0  0  0  0  0  0  0  0
  138.8483   76.9139  220.6663 H   0  0  0  0  0  0  0  0  0  0  0  0
  138.2964   75.5300  221.7000 H   0  0  0  0  0  0  0  0  0  0  0  0
  137.1564   77.6998  222.2477 H   0  0  0  0  0  0  0  0  0  0  0  0
  138.0320   77.0087  223.6239 H   0  0  0  0  0  0  0  0  0  0  0  0
  137.3298   80.0015  222.6417 H   0  0  0  0  0  0  0  0  0  0  0  0
  138.7625   82.0517  222.7140 H   0  0  0  0  0  0  0  0  0  0  0  0
  141.2410   81.7875  222.7771 H   0  0  0  0  0  0  0  0  0  0  0  0
  142.2626   79.5477  222.7685 H   0  0  0  0  0  0  0  0  0  0  0  0
  142.0143   77.2778  222.1306 H   0  0  0  0  0  0  0  0  0  0  0  0
  141.3031   76.8973  223.7304 H   0  0  0  0  0  0  0  0  0  0  0  0
  139.0413   70.5248  221.0735 H   0  0  0  0  0  0  0  0  0  0  0  0
  140.6516   69.9029  221.6738 H   0  0  0  0  0  0  0  0  0  0  0  0
  138.5749   68.4759  221.9857 H   0  0  0  0  0  0  0  0  0  0  0  0
  139.7433   68.7773  223.3814 H   0  0  0  0  0  0  0  0  0  0  0  0
  139.8956   66.8941  224.8311 H   0  0  0  0  0  0  0  0  0  0  0  0
  141.7627   66.9695  226.4529 H   0  0  0  0  0  0  0  0  0  0  0  0
  1  2  2  0
  2  3  1  0
  3  4  2  0
  4  5  1  0
  5  6  1  0
  6  7  1  0
  7  8  1  0
  8  9  1  0
  9 10  1  0
 10 11  2  0
 11 12  1  0
 12 13  1  0
 13 14  1  0
 14 15  1  0
 15 16  1  0
 16 17  1  0
 17 18  1  0
 12 19  2  0
 19 20  1  0
 20 21  1  0
 21 22  1  0
 22 23  1  0
 23 24  1  0
 24 25  2  0
 25 26  1  0
 26 27  2  0
 27 28  1  0
 28 29  2  0
 29 30  1  0
 20 31  2  0
  9 32  1  0
 32 33  1  0
  4 34  1  0
 34 35  2  0
 35  1  1  0
 33  6  1  0
 31 10  1  0
 18 13  1  0
 30 21  1  0
 29 24  1  0
  1 36  1  0
  2 37  1  0
  3 38  1  0
  5 39  1  0
  5 40  1  0
  7 41  1  0
  7 42  1  0
  8 43  1  0
  8 44  1  0
 14 45  1  0
 14 46  1  0
 15 47  1  0
 15 48  1  0
 16 49  1  0
 17 50  1  0
 17 51  1  0
 18 52  1  0
 18 53  1  0
 22 54  1  0
 22 55  1  0
 23 56  1  0
 23 57  1  0
 25 58  1  0
 26 59  1  0
 27 60  1  0
 28 61  1  0
 30 62  1  0
 30 63  1  0
 32 64  1  0
 32 65  1  0
 33 66  1  0
 33 67  1  0
 34 68  1  0
 35 69  1  0
M  END
>  <smiles>  (5) 
c1ccc(CN2CCN(c3nc(N4CCNCC4)nc(N4CCc5ccccc5C4)n3)CC2)cc1

>  <score_type>  (5) 
oracle

>  <origin>  (5) 
autodockgpu

>  <m_score__min__energy>  (5) 
-9.8499999999999996

>  <m_primary>  (5) 
energy

>  <rmsd>  (5) 
11.065541717629724

>  <m_score__min__rmsd>  (5) 
11.065541717629724

>  <meeko>  (5) 
{"free_energy": -9.14, "intermolecular_energy": -10.63, "internal_energy": -1.19, "cluster_size": 43, "cluster_id": 1, "rank_in_cluster": 34}

>  <energy>  (5) 
-9.65

>  <cluster_rmsd>  (5) 
0.28

>  <cluster>  (5) 
1

$$$$

     RDKit          3D

 69 74  0  0  0  0  0  0  0  0999 V2000
  140.7220   68.8290  226.9170 C   0  0  0  0  0  0  0  0  0  0  0  0
  140.0160   69.9700  226.6020 C   0  0  0  0  0  0  0  0  0  0  0  0
  139.0900   69.9320  225.5830 C   0  0  0  0  0  0  0  0  0  0  0  0
  138.8270   68.7900  224.8440 C   0  0  0  0  0  0  0  0  0  0  0  0
  137.8200   68.8570  223.7860 C   0  0  0  0  0  0  0  0  0  0  0  0
  138.1790   69.6170  222.6350 N   0  0  0  0  0  0  0  0  0  0  0  0
  137.7690   70.9760  222.6200 C   0  0  0  0  0  0  0  0  0  0  0  0
  138.8820   71.8610  223.1440 C   0  0  0  0  0  0  0  0  0  0  0  0
  139.9470   71.7860  222.1580 N   0  0  0  0  0  0  0  0  0  0  0  0
  140.6370   72.9300  221.6780 C   0  0  0  0  0  0  0  0  0  0  0  0
  141.7310   72.8660  220.9040 N   0  0  0  0  0  0  0  0  0  0  0  0
  142.3670   73.9860  220.4640 C   0  0  0  0  0  0  0  0  0  0  0  0
  143.5320   73.9140  219.6400 N   0  0  0  0  0  0  0  0  0  0  0  0
  143.3770   73.7770  218.2130 C   0  0  0  0  0  0  0  0  0  0  0  0
  144.7580   73.6380  217.6090 C   0  0  0  0  0  0  0  0  0  0  0  0
  145.4620   72.6020  218.3370 N   0  0  0  0  0  0  0  0  0  0  0  0
  145.8300   73.0280  219.6690 C   0  0  0  0  0  0  0  0  0  0  0  0
  144.8220   73.9800  220.2680 C   0  0  0  0  0  0  0  0  0  0  0  0
  141.8610   75.1980  220.8320 N   0  0  0  0  0  0  0  0  0  0  0  0
  140.7670   75.3010  221.6050 C   0  0  0  0  0  0  0  0  0  0  0  0
  140.2210   76.5700  222.0020 N   0  0  0  0  0  0  0  0  0  0  0  0
  138.8590   76.8870  221.6350 C   0  0  0  0  0  0  0  0  0  0  0  0
  138.1700   77.7200  222.6960 C   0  0  0  0  0  0  0  0  0  0  0  0
  139.0430   78.9290  222.9070 C   0  0  0  0  0  0  0  0  0  0  0  0
  138.4460   80.1590  223.0730 C   0  0  0  0  0  0  0  0  0  0  0  0
  139.2420   81.2740  223.2660 C   0  0  0  0  0  0  0  0  0  0  0  0
  140.6190   81.1130  223.2880 C   0  0  0  0  0  0  0  0  0  0  0  0
  141.1860   79.8660  223.1180 C   0  0  0  0  0  0  0  0  0  0  0  0
  140.4060   78.7460  222.9230 C   0  0  0  0  0  0  0  0  0  0  0  0
  141.0850   77.4530  222.7510 C   0  0  0  0  0  0  0  0  0  0  0  0
  140.1920   74.1560  222.0020 N   0  0  0  0  0  0  0  0  0  0  0  0
  140.2900   70.4740  221.6630 C   0  0  0  0  0  0  0  0  0  0  0  0
  139.5670   69.3720  222.3490 C   0  0  0  0  0  0  0  0  0  0  0  0
  139.5480   67.6640  225.1820 C   0  0  0  0  0  0  0  0  0  0  0  0
  140.4890   67.6740  226.2070 C   0  0  0  0  0  0  0  0  0  0  0  0
  141.4647   68.8418  227.7284 H   0  0  0  0  0  0  0  0  0  0  0  0
  140.1904   70.9023  227.1592 H   0  0  0  0  0  0  0  0  0  0  0  0
  138.5337   70.8506  225.3450 H   0  0  0  0  0  0  0  0  0  0  0  0
  137.6059   67.8290  223.4583 H   0  0  0  0  0  0  0  0  0  0  0  0
  136.9561   69.3748  224.2283 H   0  0  0  0  0  0  0  0  0  0  0  0
  137.5244   71.2710  221.5889 H   0  0  0  0  0  0  0  0  0  0  0  0
  136.8836   71.0923  223.2623 H   0  0  0  0  0  0  0  0  0  0  0  0
  138.5296   72.8977  223.2486 H   0  0  0  0  0  0  0  0  0  0  0  0
  139.2259   71.5333  224.1361 H   0  0  0  0  0  0  0  0  0  0  0  0
  142.7775   72.8832  217.9858 H   0  0  0  0  0  0  0  0  0  0  0  0
  142.8619   74.6551  217.7963 H   0  0  0  0  0  0  0  0  0  0  0  0
  144.6753   73.3586  216.5483 H   0  0  0  0  0  0  0  0  0  0  0  0
  145.3030   74.5911  217.6772 H   0  0  0  0  0  0  0  0  0  0  0  0
  146.3470   72.3920  217.8150 H   0  0  0  0  0  0  0  0  0  0  0  0
  145.9057   72.1411  220.3153 H   0  0  0  0  0  0  0  0  0  0  0  0
  146.7912   73.5582  219.5980 H   0  0  0  0  0  0  0  0  0  0  0  0
  144.7036   73.7370  221.3343 H   0  0  0  0  0  0  0  0  0  0  0  0
  145.2064   74.9991  220.1141 H   0  0  0  0  0  0  0  0  0  0  0  0
  138.8667   77.4497  220.6898 H   0  0  0  0  0  0  0  0  0  0  0  0
  138.3049   75.9427  221.5284 H   0  0  0  0  0  0  0  0  0  0  0  0
  137.1706   78.0255  222.3527 H   0  0  0  0  0  0  0  0  0  0  0  0
  138.0353   77.1528  223.6288 H   0  0  0  0  0  0  0  0  0  0  0  0
  137.3503   80.2537  223.0524 H   0  0  0  0  0  0  0  0  0  0  0  0
  138.7914   82.2686  223.3994 H   0  0  0  0  0  0  0  0  0  0  0  0
  141.2667   81.9886  223.4426 H   0  0  0  0  0  0  0  0  0  0  0  0
  142.2811   79.7639  223.1385 H   0  0  0  0  0  0  0  0  0  0  0  0
  142.0276   77.6003  222.2034 H   0  0  0  0  0  0  0  0  0  0  0  0
  141.3069   77.0134  223.7346 H   0  0  0  0  0  0  0  0  0  0  0  0
  140.0494   70.4331  220.5904 H   0  0  0  0  0  0  0  0  0  0  0  0
  141.3626   70.3261  221.8570 H   0  0  0  0  0  0  0  0  0  0  0  0
  139.6273   68.4791  221.7094 H   0  0  0  0  0  0  0  0  0  0  0  0
  140.0576   69.2558  223.3267 H   0  0  0  0  0  0  0  0  0  0  0  0
  139.3742   66.7313  224.6254 H   0  0  0  0  0  0  0  0  0  0  0  0
  141.0470   66.7576  226.4497 H   0  0  0  0  0  0  0  0  0  0  0  0
  1  2  2  0
  2  3  1  0
  3  4  2  0
  4  5  1  0
  5  6  1  0
  6  7  1  0
  7  8  1  0
  8  9  1  0
  9 10  1  0
 10 11  2  0
 11 12  1  0
 12 13  1  0
 13 14  1  0
 14 15  1  0
 15 16  1  0
 16 17  1  0
 17 18  1  0
 12 19  2  0
 19 20  1  0
 20 21  1  0
 21 22  1  0
 22 23  1  0
 23 24  1  0
 24 25  2  0
 25 26  1  0
 26 27  2  0
 27 28  1  0
 28 29  2  0
 29 30  1  0
 20 31  2  0
  9 32  1  0
 32 33  1  0
  4 34  1  0
 34 35  2  0
 35  1  1  0
 33  6  1  0
 31 10  1  0
 18 13  1  0
 30 21  1  0
 29 24  1  0
  1 36  1  0
  2 37  1  0
  3 38  1  0
  5 39  1  0
  5 40  1  0
  7 41  1  0
  7 42  1  0
  8 43  1  0
  8 44  1  0
 14 45  1  0
 14 46  1  0
 15 47  1  0
 15 48  1  0
 16 49  1  0
 17 50  1  0
 17 51  1  0
 18 52  1  0
 18 53  1  0
 22 54  1  0
 22 55  1  0
 23 56  1  0
 23 57  1  0
 25 58  1  0
 26 59  1  0
 27 60  1  0
 28 61  1  0
 30 62  1  0
 30 63  1  0
 32 64  1  0
 32 65  1  0
 33 66  1  0
 33 67  1  0
 34 68  1  0
 35 69  1  0
M  END
>  <smiles>  (6) 
c1ccc(CN2CCN(c3nc(N4CCNCC4)nc(N4CCc5ccccc5C4)n3)CC2)cc1

>  <score_type>  (6) 
oracle

>  <origin>  (6) 
autodockgpu

>  <m_score__min__energy>  (6) 
-9.8499999999999996

>  <m_primary>  (6) 
energy

>  <rmsd>  (6) 
10.72115992040658

>  <m_score__min__rmsd>  (6) 
10.72115992040658

>  <meeko>  (6) 
{"free_energy": -8.82, "intermolecular_energy": -10.31, "internal_energy": -1.23, "cluster_size": 43, "cluster_id": 1, "rank_in_cluster": 41}

>  <energy>  (6) 
-9.58

>  <cluster_rmsd>  (6) 
0.36

>  <cluster>  (6) 
1

$$$$

     RDKit          3D

 69 74  0  0  0  0  0  0  0  0999 V2000
  140.9610   68.1140  228.1090 C   0  0  0  0  0  0  0  0  0  0  0  0
  141.0310   67.5400  226.8570 C   0  0  0  0  0  0  0  0  0  0  0  0
  140.2030   68.0000  225.8570 C   0  0  0  0  0  0  0  0  0  0  0  0
  139.2890   69.0240  226.0430 C   0  0  0  0  0  0  0  0  0  0  0  0
  138.4610   69.4380  224.9120 C   0  0  0  0  0  0  0  0  0  0  0  0
  138.5630   70.8090  224.5370 N   0  0  0  0  0  0  0  0  0  0  0  0
  139.7610   71.4780  224.9000 C   0  0  0  0  0  0  0  0  0  0  0  0
  140.7510   71.4320  223.7530 C   0  0  0  0  0  0  0  0  0  0  0  0
  140.1750   72.2510  222.6990 N   0  0  0  0  0  0  0  0  0  0  0  0
  140.9260   73.2140  221.9730 C   0  0  0  0  0  0  0  0  0  0  0  0
  141.9840   72.9070  221.2090 N   0  0  0  0  0  0  0  0  0  0  0  0
  142.6790   73.8580  220.5280 C   0  0  0  0  0  0  0  0  0  0  0  0
  143.8070   73.5280  219.7160 N   0  0  0  0  0  0  0  0  0  0  0  0
  143.6200   73.3270  218.2990 C   0  0  0  0  0  0  0  0  0  0  0  0
  144.9490   72.9070  217.7120 C   0  0  0  0  0  0  0  0  0  0  0  0
  145.4660   71.8130  218.5100 N   0  0  0  0  0  0  0  0  0  0  0  0
  145.9130   72.2540  219.8120 C   0  0  0  0  0  0  0  0  0  0  0  0
  145.0940   73.4060  220.3430 C   0  0  0  0  0  0  0  0  0  0  0  0
  142.2710   75.1550  220.6390 N   0  0  0  0  0  0  0  0  0  0  0  0
  141.2150   75.5000  221.3950 C   0  0  0  0  0  0  0  0  0  0  0  0
  140.7710   76.8610  221.5240 N   0  0  0  0  0  0  0  0  0  0  0  0
  140.0690   77.4710  220.4170 C   0  0  0  0  0  0  0  0  0  0  0  0
  139.0090   78.4440  220.8920 C   0  0  0  0  0  0  0  0  0  0  0  0
  139.7180   79.4290  221.7830 C   0  0  0  0  0  0  0  0  0  0  0  0
  139.3820   80.7620  221.6990 C   0  0  0  0  0  0  0  0  0  0  0  0
  140.0300   81.6730  222.5150 C   0  0  0  0  0  0  0  0  0  0  0  0
  140.9980   81.2090  223.3930 C   0  0  0  0  0  0  0  0  0  0  0  0
  141.3110   79.8670  223.4520 C   0  0  0  0  0  0  0  0  0  0  0  0
  140.6750   78.9470  222.6450 C   0  0  0  0  0  0  0  0  0  0  0  0
  141.0640   77.5340  222.7680 C   0  0  0  0  0  0  0  0  0  0  0  0
  140.5770   74.5110  222.0380 N   0  0  0  0  0  0  0  0  0  0  0  0
  138.7760   72.0530  222.4050 C   0  0  0  0  0  0  0  0  0  0  0  0
  138.1640   70.9290  223.1600 C   0  0  0  0  0  0  0  0  0  0  0  0
  139.2440   69.5790  227.3050 C   0  0  0  0  0  0  0  0  0  0  0  0
  140.0680   69.1340  228.3340 C   0  0  0  0  0  0  0  0  0  0  0  0
  141.6138   67.7587  228.9199 H   0  0  0  0  0  0  0  0  0  0  0  0
  141.7408   66.7233  226.6590 H   0  0  0  0  0  0  0  0  0  0  0  0
  140.2708   67.5321  224.8638 H   0  0  0  0  0  0  0  0  0  0  0  0
  138.7480   68.8282  224.0427 H   0  0  0  0  0  0  0  0  0  0  0  0
  137.4197   69.2938  225.2359 H   0  0  0  0  0  0  0  0  0  0  0  0
  139.5332   72.5265  225.1422 H   0  0  0  0  0  0  0  0  0  0  0  0
  140.2011   70.9788  225.7759 H   0  0  0  0  0  0  0  0  0  0  0  0
  141.7220   71.8413  224.0686 H   0  0  0  0  0  0  0  0  0  0  0  0
  140.9288   70.4011  223.4130 H   0  0  0  0  0  0  0  0  0  0  0  0
  142.8703   72.5403  218.1284 H   0  0  0  0  0  0  0  0  0  0  0  0
  143.2654   74.2532  217.8232 H   0  0  0  0  0  0  0  0  0  0  0  0
  144.8100   72.5771  216.6719 H   0  0  0  0  0  0  0  0  0  0  0  0
  145.6538   73.7515  217.7195 H   0  0  0  0  0  0  0  0  0  0  0  0
  146.2950   71.4170  218.0070 H   0  0  0  0  0  0  0  0  0  0  0  0
  145.8359   71.4120  220.5157 H   0  0  0  0  0  0  0  0  0  0  0  0
  146.9519   72.6006  219.7098 H   0  0  0  0  0  0  0  0  0  0  0  0
  144.9433   73.2582  221.4226 H   0  0  0  0  0  0  0  0  0  0  0  0
  145.6510   74.3288  220.1234 H   0  0  0  0  0  0  0  0  0  0  0  0
  140.7935   78.0115  219.7901 H   0  0  0  0  0  0  0  0  0  0  0  0
  139.5707   76.6735  219.8463 H   0  0  0  0  0  0  0  0  0  0  0  0
  138.5547   78.9625  220.0348 H   0  0  0  0  0  0  0  0  0  0  0  0
  138.1991   77.9271  221.4276 H   0  0  0  0  0  0  0  0  0  0  0  0
  138.6087   81.0982  220.9926 H   0  0  0  0  0  0  0  0  0  0  0  0
  139.7821   82.7437  222.4680 H   0  0  0  0  0  0  0  0  0  0  0  0
  141.5220   81.9191  224.0497 H   0  0  0  0  0  0  0  0  0  0  0  0
  142.0830   79.5238  224.1565 H   0  0  0  0  0  0  0  0  0  0  0  0
  142.1408   77.4641  222.9815 H   0  0  0  0  0  0  0  0  0  0  0  0
  140.5044   77.0622  223.5892 H   0  0  0  0  0  0  0  0  0  0  0  0
  138.2336   72.9766  222.6555 H   0  0  0  0  0  0  0  0  0  0  0  0
  138.7027   71.8023  221.3365 H   0  0  0  0  0  0  0  0  0  0  0  0
  137.0722   71.0607  223.1352 H   0  0  0  0  0  0  0  0  0  0  0  0
  138.5153   70.0110  222.6661 H   0  0  0  0  0  0  0  0  0  0  0  0
  138.5361   70.3972  227.5036 H   0  0  0  0  0  0  0  0  0  0  0  0
  140.0046   69.5992  229.3288 H   0  0  0  0  0  0  0  0  0  0  0  0
  1  2  2  0
  2  3  1  0
  3  4  2  0
  4  5  1  0
  5  6  1  0
  6  7  1  0
  7  8  1  0
  8  9  1  0
  9 10  1  0
 10 11  2  0
 11 12  1  0
 12 13  1  0
 13 14  1  0
 14 15  1  0
 15 16  1  0
 16 17  1  0
 17 18  1  0
 12 19  2  0
 19 20  1  0
 20 21  1  0
 21 22  1  0
 22 23  1  0
 23 24  1  0
 24 25  2  0
 25 26  1  0
 26 27  2  0
 27 28  1  0
 28 29  2  0
 29 30  1  0
 20 31  2  0
  9 32  1  0
 32 33  1  0
  4 34  1  0
 34 35  2  0
 35  1  1  0
 33  6  1  0
 31 10  1  0
 18 13  1  0
 30 21  1  0
 29 24  1  0
  1 36  1  0
  2 37  1  0
  3 38  1  0
  5 39  1  0
  5 40  1  0
  7 41  1  0
  7 42  1  0
  8 43  1  0
  8 44  1  0
 14 45  1  0
 14 46  1  0
 15 47  1  0
 15 48  1  0
 16 49  1  0
 17 50  1  0
 17 51  1  0
 18 52  1  0
 18 53  1  0
 22 54  1  0
 22 55  1  0
 23 56  1  0
 23 57  1  0
 25 58  1  0
 26 59  1  0
 27 60  1  0
 28 61  1  0
 30 62  1  0
 30 63  1  0
 32 64  1  0
 32 65  1  0
 33 66  1  0
 33 67  1  0
 34 68  1  0
 35 69  1  0
M  END
>  <smiles>  (7) 
c1ccc(CN2CCN(c3nc(N4CCNCC4)nc(N4CCc5ccccc5C4)n3)CC2)cc1

>  <score_type>  (7) 
oracle

>  <origin>  (7) 
autodockgpu

>  <m_score__min__energy>  (7) 
-9.8499999999999996

>  <m_primary>  (7) 
energy

>  <rmsd>  (7) 
11.01758192444784

>  <m_score__min__rmsd>  (7) 
11.01758192444784

>  <meeko>  (7) 
{"free_energy": -9.36, "intermolecular_energy": -10.85, "internal_energy": -1.1, "cluster_size": 43, "cluster_id": 1, "rank_in_cluster": 14}

>  <energy>  (7) 
-9.46

>  <cluster_rmsd>  (7) 
1.1

>  <cluster>  (7) 
1

$$$$

     RDKit          3D

 69 74  0  0  0  0  0  0  0  0999 V2000
  142.6650   80.3550  223.4600 C   0  0  0  0  0  0  0  0  0  0  0  0
  141.8410   79.4630  224.1120 C   0  0  0  0  0  0  0  0  0  0  0  0
  140.6030   79.1730  223.5800 C   0  0  0  0  0  0  0  0  0  0  0  0
  140.1350   79.7400  222.4060 C   0  0  0  0  0  0  0  0  0  0  0  0
  138.8070   79.3600  221.9260 C   0  0  0  0  0  0  0  0  0  0  0  0
  138.6880   78.0370  221.4110 N   0  0  0  0  0  0  0  0  0  0  0  0
  139.7410   77.5860  220.5730 C   0  0  0  0  0  0  0  0  0  0  0  0
  140.7650   76.8220  221.3880 C   0  0  0  0  0  0  0  0  0  0  0  0
  140.0970   75.6080  221.8270 N   0  0  0  0  0  0  0  0  0  0  0  0
  140.6980   74.3240  221.7470 C   0  0  0  0  0  0  0  0  0  0  0  0
  141.5810   73.9780  220.7990 N   0  0  0  0  0  0  0  0  0  0  0  0
  142.1360   72.7360  220.7530 C   0  0  0  0  0  0  0  0  0  0  0  0
  143.0760   72.3690  219.7420 N   0  0  0  0  0  0  0  0  0  0  0  0
  143.7390   71.0910  219.8250 C   0  0  0  0  0  0  0  0  0  0  0  0
  144.7320   71.0090  218.6870 C   0  0  0  0  0  0  0  0  0  0  0  0
  145.5360   72.2130  218.7060 N   0  0  0  0  0  0  0  0  0  0  0  0
  144.7860   73.3740  218.2800 C   0  0  0  0  0  0  0  0  0  0  0  0
  143.3290   73.2950  218.6720 C   0  0  0  0  0  0  0  0  0  0  0  0
  141.7710   71.8330  221.7080 N   0  0  0  0  0  0  0  0  0  0  0  0
  140.8890   72.1450  222.6730 C   0  0  0  0  0  0  0  0  0  0  0  0
  140.4920   71.2070  223.6860 N   0  0  0  0  0  0  0  0  0  0  0  0
  139.2850   70.4360  223.4870 C   0  0  0  0  0  0  0  0  0  0  0  0
  139.4030   69.0440  224.0740 C   0  0  0  0  0  0  0  0  0  0  0  0
  139.7740   69.2340  225.5220 C   0  0  0  0  0  0  0  0  0  0  0  0
  139.1870   68.4260  226.4700 C   0  0  0  0  0  0  0  0  0  0  0  0
  139.5220   68.5960  227.8020 C   0  0  0  0  0  0  0  0  0  0  0  0
  140.4430   69.5780  228.1350 C   0  0  0  0  0  0  0  0  0  0  0  0
  141.0130   70.3710  227.1610 C   0  0  0  0  0  0  0  0  0  0  0  0
  140.6880   70.2140  225.8300 C   0  0  0  0  0  0  0  0  0  0  0  0
  141.3390   71.0980  224.8520 C   0  0  0  0  0  0  0  0  0  0  0  0
  140.3830   73.3870  222.6560 N   0  0  0  0  0  0  0  0  0  0  0  0
  138.7640   75.7510  222.3620 C   0  0  0  0  0  0  0  0  0  0  0  0
  138.3250   77.1640  222.4950 C   0  0  0  0  0  0  0  0  0  0  0  0
  140.9830   80.6270  221.7760 C   0  0  0  0  0  0  0  0  0  0  0  0
  142.2370   80.9380  222.2910 C   0  0  0  0  0  0  0  0  0  0  0  0
  143.6558   80.5981  223.8713 H   0  0  0  0  0  0  0  0  0  0  0  0
  142.1683   78.9870  225.0481 H   0  0  0  0  0  0  0  0  0  0  0  0
  139.9572   78.4588  224.1119 H   0  0  0  0  0  0  0  0  0  0  0  0
  138.1035   79.4596  222.7658 H   0  0  0  0  0  0  0  0  0  0  0  0
  138.5926   80.0298  221.0802 H   0  0  0  0  0  0  0  0  0  0  0  0
  139.3295   76.9261  219.7951 H   0  0  0  0  0  0  0  0  0  0  0  0
  140.2279   78.4556  220.1074 H   0  0  0  0  0  0  0  0  0  0  0  0
  141.6401   76.5751  220.7690 H   0  0  0  0  0  0  0  0  0  0  0  0
  141.1277   77.4151  222.2405 H   0  0  0  0  0  0  0  0  0  0  0  0
  144.2650   71.0044  220.7872 H   0  0  0  0  0  0  0  0  0  0  0  0
  143.0064   70.2734  219.7546 H   0  0  0  0  0  0  0  0  0  0  0  0
  145.3770   70.1275  218.8174 H   0  0  0  0  0  0  0  0  0  0  0  0
  144.2046   70.9172  217.7260 H   0  0  0  0  0  0  0  0  0  0  0  0
  146.3250   72.0800  218.0290 H   0  0  0  0  0  0  0  0  0  0  0  0
  145.2280   74.2690  218.7422 H   0  0  0  0  0  0  0  0  0  0  0  0
  144.8356   73.4206  217.1821 H   0  0  0  0  0  0  0  0  0  0  0  0
  142.9987   74.2948  218.9904 H   0  0  0  0  0  0  0  0  0  0  0  0
  142.7748   72.9351  217.7926 H   0  0  0  0  0  0  0  0  0  0  0  0
  138.4459   70.9568  223.9715 H   0  0  0  0  0  0  0  0  0  0  0  0
  139.1170   70.3373  222.4044 H   0  0  0  0  0  0  0  0  0  0  0  0
  138.4437   68.5120  223.9919 H   0  0  0  0  0  0  0  0  0  0  0  0
  140.1552   68.4442  223.5407 H   0  0  0  0  0  0  0  0  0  0  0  0
  138.4609   67.6551  226.1723 H   0  0  0  0  0  0  0  0  0  0  0  0
  139.0673   67.9655  228.5803 H   0  0  0  0  0  0  0  0  0  0  0  0
  140.7223   69.7262  229.1886 H   0  0  0  0  0  0  0  0  0  0  0  0
  141.7406   71.1432  227.4514 H   0  0  0  0  0  0  0  0  0  0  0  0
  141.4877   72.0937  225.2953 H   0  0  0  0  0  0  0  0  0  0  0  0
  142.3167   70.6830  224.5660 H   0  0  0  0  0  0  0  0  0  0  0  0
  138.0630   75.2306  221.6928 H   0  0  0  0  0  0  0  0  0  0  0  0
  138.7746   75.3199  223.3739 H   0  0  0  0  0  0  0  0  0  0  0  0
  137.2283   77.1701  222.5804 H   0  0  0  0  0  0  0  0  0  0  0  0
  138.8450   77.5562  223.3814 H   0  0  0  0  0  0  0  0  0  0  0  0
  140.6579   81.1023  220.8388 H   0  0  0  0  0  0  0  0  0  0  0  0
  142.8868   81.6510  221.7625 H   0  0  0  0  0  0  0  0  0  0  0  0
  1  2  2  0
  2  3  1  0
  3  4  2  0
  4  5  1  0
  5  6  1  0
  6  7  1  0
  7  8  1  0
  8  9  1  0
  9 10  1  0
 10 11  2  0
 11 12  1  0
 12 13  1  0
 13 14  1  0
 14 15  1  0
 15 16  1  0
 16 17  1  0
 17 18  1  0
 12 19  2  0
 19 20  1  0
 20 21  1  0
 21 22  1  0
 22 23  1  0
 23 24  1  0
 24 25  2  0
 25 26  1  0
 26 27  2  0
 27 28  1  0
 28 29  2  0
 29 30  1  0
 20 31  2  0
  9 32  1  0
 32 33  1  0
  4 34  1  0
 34 35  2  0
 35  1  1  0
 33  6  1  0
 31 10  1  0
 18 13  1  0
 30 21  1  0
 29 24  1  0
  1 36  1  0
  2 37  1  0
  3 38  1  0
  5 39  1  0
  5 40  1  0
  7 41  1  0
  7 42  1  0
  8 43  1  0
  8 44  1  0
 14 45  1  0
 14 46  1  0
 15 47  1  0
 15 48  1  0
 16 49  1  0
 17 50  1  0
 17 51  1  0
 18 52  1  0
 18 53  1  0
 22 54  1  0
 22 55  1  0
 23 56  1  0
 23 57  1  0
 25 58  1  0
 26 59  1  0
 27 60  1  0
 28 61  1  0
 30 62  1  0
 30 63  1  0
 32 64  1  0
 32 65  1  0
 33 66  1  0
 33 67  1  0
 34 68  1  0
 35 69  1  0
M  END
>  <smiles>  (8) 
c1ccc(CN2CCN(c3nc(N4CCNCC4)nc(N4CCc5ccccc5C4)n3)CC2)cc1

>  <score_type>  (8) 
oracle

>  <origin>  (8) 
autodockgpu

>  <m_score__min__energy>  (8) 
-9.8499999999999996

>  <m_primary>  (8) 
energy

>  <rmsd>  (8) 
3.988924322432674

>  <m_score__min__rmsd>  (8) 
3.988924322432674

>  <meeko>  (8) 
{"free_energy": -9.19, "intermolecular_energy": -10.68, "internal_energy": -1.23, "cluster_size": 43, "cluster_id": 1, "rank_in_cluster": 30}

>  <energy>  (8) 
-9.45

>  <cluster_rmsd>  (8) 
0.7

>  <cluster>  (8) 
1

$$$$

     RDKit          3D

 69 74  0  0  0  0  0  0  0  0999 V2000
  141.0330   68.2020  228.1160 C   0  0  0  0  0  0  0  0  0  0  0  0
  140.1200   69.2010  228.3830 C   0  0  0  0  0  0  0  0  0  0  0  0
  139.2580   69.6110  227.3890 C   0  0  0  0  0  0  0  0  0  0  0  0
  139.2600   69.0670  226.1160 C   0  0  0  0  0  0  0  0  0  0  0  0
  138.2990   69.5730  225.1370 C   0  0  0  0  0  0  0  0  0  0  0  0
  138.5050   70.9130  224.7000 N   0  0  0  0  0  0  0  0  0  0  0  0
  139.7870   71.4700  224.9470 C   0  0  0  0  0  0  0  0  0  0  0  0
  140.6760   71.2880  223.7330 C   0  0  0  0  0  0  0  0  0  0  0  0
  140.1040   72.1250  222.6930 N   0  0  0  0  0  0  0  0  0  0  0  0
  140.8860   72.9840  221.8760 C   0  0  0  0  0  0  0  0  0  0  0  0
  141.8070   72.5430  221.0060 N   0  0  0  0  0  0  0  0  0  0  0  0
  142.5390   73.3970  220.2400 C   0  0  0  0  0  0  0  0  0  0  0  0
  143.5200   72.9250  219.3140 N   0  0  0  0  0  0  0  0  0  0  0  0
  144.4950   71.9570  219.7550 C   0  0  0  0  0  0  0  0  0  0  0  0
  145.4490   71.7080  218.6070 C   0  0  0  0  0  0  0  0  0  0  0  0
  145.9110   72.9920  218.1210 N   0  0  0  0  0  0  0  0  0  0  0  0
  144.8740   73.7090  217.4120 C   0  0  0  0  0  0  0  0  0  0  0  0
  143.4980   73.4350  217.9710 C   0  0  0  0  0  0  0  0  0  0  0  0
  142.3130   74.7360  220.3750 N   0  0  0  0  0  0  0  0  0  0  0  0
  141.3990   75.2140  221.2360 C   0  0  0  0  0  0  0  0  0  0  0  0
  141.1490   76.6200  221.3920 N   0  0  0  0  0  0  0  0  0  0  0  0
  141.9100   77.5550  220.5930 C   0  0  0  0  0  0  0  0  0  0  0  0
  141.0870   78.7700  220.2130 C   0  0  0  0  0  0  0  0  0  0  0  0
  140.5760   79.3470  221.5070 C   0  0  0  0  0  0  0  0  0  0  0  0
  140.5630   80.7140  221.6650 C   0  0  0  0  0  0  0  0  0  0  0  0
  140.0950   81.2520  222.8510 C   0  0  0  0  0  0  0  0  0  0  0  0
  139.6540   80.3890  223.8430 C   0  0  0  0  0  0  0  0  0  0  0  0
  139.6800   79.0230  223.6530 C   0  0  0  0  0  0  0  0  0  0  0  0
  140.1440   78.4730  222.4770 C   0  0  0  0  0  0  0  0  0  0  0  0
  140.1400   77.0080  222.3510 C   0  0  0  0  0  0  0  0  0  0  0  0
  140.7150   74.3140  221.9580 N   0  0  0  0  0  0  0  0  0  0  0  0
  138.6740   72.0590  222.5100 C   0  0  0  0  0  0  0  0  0  0  0  0
  138.0150   71.0270  223.3530 C   0  0  0  0  0  0  0  0  0  0  0  0
  140.1830   68.0700  225.8790 C   0  0  0  0  0  0  0  0  0  0  0  0
  141.0650   67.6360  226.8640 C   0  0  0  0  0  0  0  0  0  0  0  0
  141.7285   67.8618  228.8974 H   0  0  0  0  0  0  0  0  0  0  0  0
  140.0804   69.6657  229.3792 H   0  0  0  0  0  0  0  0  0  0  0  0
  138.5347   70.4076  227.6178 H   0  0  0  0  0  0  0  0  0  0  0  0
  138.3422   68.9196  224.2531 H   0  0  0  0  0  0  0  0  0  0  0  0
  137.3247   69.5722  225.6475 H   0  0  0  0  0  0  0  0  0  0  0  0
  139.6819   72.5434  225.1635 H   0  0  0  0  0  0  0  0  0  0  0  0
  140.2427   70.9579  225.8073 H   0  0  0  0  0  0  0  0  0  0  0  0
  141.7038   71.6078  223.9597 H   0  0  0  0  0  0  0  0  0  0  0  0
  140.7252   70.2340  223.4223 H   0  0  0  0  0  0  0  0  0  0  0  0
  145.0467   72.3494  220.6220 H   0  0  0  0  0  0  0  0  0  0  0  0
  144.0003   71.0212  220.0543 H   0  0  0  0  0  0  0  0  0  0  0  0
  146.3047   71.1112  218.9557 H   0  0  0  0  0  0  0  0  0  0  0  0
  144.9419   71.1553  217.8024 H   0  0  0  0  0  0  0  0  0  0  0  0
  146.6920   72.8140  217.4460 H   0  0  0  0  0  0  0  0  0  0  0  0
  145.0768   74.7876  217.4859 H   0  0  0  0  0  0  0  0  0  0  0  0
  144.8851   73.3670  216.3666 H   0  0  0  0  0  0  0  0  0  0  0  0
  142.9251   74.3740  217.9637 H   0  0  0  0  0  0  0  0  0  0  0  0
  143.0374   72.6627  217.3374 H   0  0  0  0  0  0  0  0  0  0  0  0
  142.7869   77.8849  221.1695 H   0  0  0  0  0  0  0  0  0  0  0  0
  142.2149   77.0451  219.6673 H   0  0  0  0  0  0  0  0  0  0  0  0
  141.7127   79.5061  219.6871 H   0  0  0  0  0  0  0  0  0  0  0  0
  140.2612   78.5019  219.5376 H   0  0  0  0  0  0  0  0  0  0  0  0
  140.9203   81.3710  220.8584 H   0  0  0  0  0  0  0  0  0  0  0  0
  140.0732   82.3411  223.0037 H   0  0  0  0  0  0  0  0  0  0  0  0
  139.2791   80.7986  224.7925 H   0  0  0  0  0  0  0  0  0  0  0  0
  139.3237   78.3599  224.4551 H   0  0  0  0  0  0  0  0  0  0  0  0
  140.3631   76.5524  223.3271 H   0  0  0  0  0  0  0  0  0  0  0  0
  139.1512   76.6648  222.0125 H   0  0  0  0  0  0  0  0  0  0  0  0
  138.2451   73.0401  222.7620 H   0  0  0  0  0  0  0  0  0  0  0  0
  138.4947   71.7822  221.4606 H   0  0  0  0  0  0  0  0  0  0  0  0
  136.9426   71.2666  223.4031 H   0  0  0  0  0  0  0  0  0  0  0  0
  138.2360   70.0627  222.8721 H   0  0  0  0  0  0  0  0  0  0  0  0
  140.2231   67.6047  224.8831 H   0  0  0  0  0  0  0  0  0  0  0  0
  141.7890   66.8386  226.6402 H   0  0  0  0  0  0  0  0  0  0  0  0
  1  2  2  0
  2  3  1  0
  3  4  2  0
  4  5  1  0
  5  6  1  0
  6  7  1  0
  7  8  1  0
  8  9  1  0
  9 10  1  0
 10 11  2  0
 11 12  1  0
 12 13  1  0
 13 14  1  0
 14 15  1  0
 15 16  1  0
 16 17  1  0
 17 18  1  0
 12 19  2  0
 19 20  1  0
 20 21  1  0
 21 22  1  0
 22 23  1  0
 23 24  1  0
 24 25  2  0
 25 26  1  0
 26 27  2  0
 27 28  1  0
 28 29  2  0
 29 30  1  0
 20 31  2  0
  9 32  1  0
 32 33  1  0
  4 34  1  0
 34 35  2  0
 35  1  1  0
 33  6  1  0
 31 10  1  0
 18 13  1  0
 30 21  1  0
 29 24  1  0
  1 36  1  0
  2 37  1  0
  3 38  1  0
  5 39  1  0
  5 40  1  0
  7 41  1  0
  7 42  1  0
  8 43  1  0
  8 44  1  0
 14 45  1  0
 14 46  1  0
 15 47  1  0
 15 48  1  0
 16 49  1  0
 17 50  1  0
 17 51  1  0
 18 52  1  0
 18 53  1  0
 22 54  1  0
 22 55  1  0
 23 56  1  0
 23 57  1  0
 25 58  1  0
 26 59  1  0
 27 60  1  0
 28 61  1  0
 30 62  1  0
 30 63  1  0
 32 64  1  0
 32 65  1  0
 33 66  1  0
 33 67  1  0
 34 68  1  0
 35 69  1  0
M  END
>  <smiles>  (9) 
c1ccc(CN2CCN(c3nc(N4CCNCC4)nc(N4CCc5ccccc5C4)n3)CC2)cc1

>  <score_type>  (9) 
oracle

>  <origin>  (9) 
autodockgpu

>  <m_score__min__energy>  (9) 
-9.8499999999999996

>  <m_primary>  (9) 
energy

>  <rmsd>  (9) 
11.047370909849525

>  <m_score__min__rmsd>  (9) 
11.047370909849525

>  <meeko>  (9) 
{"free_energy": -9.18, "intermolecular_energy": -10.67, "internal_energy": -1.14, "cluster_size": 43, "cluster_id": 1, "rank_in_cluster": 33}

>  <energy>  (9) 
-9.45

>  <cluster_rmsd>  (9) 
1.11

>  <cluster>  (9) 
1

$$$$

     RDKit          3D

 69 74  0  0  0  0  0  0  0  0999 V2000
  140.8730   68.4770  228.3900 C   0  0  0  0  0  0  0  0  0  0  0  0
  141.3250   67.7840  227.2880 C   0  0  0  0  0  0  0  0  0  0  0  0
  140.6380   67.8840  226.0970 C   0  0  0  0  0  0  0  0  0  0  0  0
  139.4980   68.6560  225.9460 C   0  0  0  0  0  0  0  0  0  0  0  0
  138.8480   68.6950  224.6370 C   0  0  0  0  0  0  0  0  0  0  0  0
  138.6260   69.9930  224.0930 N   0  0  0  0  0  0  0  0  0  0  0  0
  139.3190   71.0660  224.7120 C   0  0  0  0  0  0  0  0  0  0  0  0
  140.6160   71.3420  223.9770 C   0  0  0  0  0  0  0  0  0  0  0  0
  140.2320   71.8530  222.6720 N   0  0  0  0  0  0  0  0  0  0  0  0
  140.8360   72.9950  222.0830 C   0  0  0  0  0  0  0  0  0  0  0  0
  141.8990   72.9340  221.2670 N   0  0  0  0  0  0  0  0  0  0  0  0
  142.4520   74.0510  220.7210 C   0  0  0  0  0  0  0  0  0  0  0  0
  143.5850   73.9820  219.8530 N   0  0  0  0  0  0  0  0  0  0  0  0
  143.3760   73.8380  218.4330 C   0  0  0  0  0  0  0  0  0  0  0  0
  144.7330   73.7040  217.7780 C   0  0  0  0  0  0  0  0  0  0  0  0
  145.4710   72.6760  218.4820 N   0  0  0  0  0  0  0  0  0  0  0  0
  145.8880   73.1090  219.7970 C   0  0  0  0  0  0  0  0  0  0  0  0
  144.8980   74.0580  220.4310 C   0  0  0  0  0  0  0  0  0  0  0  0
  141.8930   75.2580  221.0240 N   0  0  0  0  0  0  0  0  0  0  0  0
  140.8280   75.3580  221.8370 C   0  0  0  0  0  0  0  0  0  0  0  0
  140.2270   76.6210  222.1670 N   0  0  0  0  0  0  0  0  0  0  0  0
  141.0570   77.6580  222.7380 C   0  0  0  0  0  0  0  0  0  0  0  0
  140.6230   79.0380  222.2880 C   0  0  0  0  0  0  0  0  0  0  0  0
  139.1650   79.1540  222.6490 C   0  0  0  0  0  0  0  0  0  0  0  0
  138.7000   80.3440  223.1630 C   0  0  0  0  0  0  0  0  0  0  0  0
  137.3630   80.4570  223.4970 C   0  0  0  0  0  0  0  0  0  0  0  0
  136.5330   79.3630  223.3010 C   0  0  0  0  0  0  0  0  0  0  0  0
  137.0310   78.1850  222.7850 C   0  0  0  0  0  0  0  0  0  0  0  0
  138.3610   78.0570  222.4480 C   0  0  0  0  0  0  0  0  0  0  0  0
  138.8140   76.7680  221.9020 C   0  0  0  0  0  0  0  0  0  0  0  0
  140.3360   74.2160  222.3390 N   0  0  0  0  0  0  0  0  0  0  0  0
  139.1860   71.1460  221.9730 C   0  0  0  0  0  0  0  0  0  0  0  0
  138.7430   69.9060  222.6620 C   0  0  0  0  0  0  0  0  0  0  0  0
  139.0710   69.3380  227.0660 C   0  0  0  0  0  0  0  0  0  0  0  0
  139.7450   69.2560  228.2800 C   0  0  0  0  0  0  0  0  0  0  0  0
  141.4091   68.4078  229.3480 H   0  0  0  0  0  0  0  0  0  0  0  0
  142.2259   67.1567  227.3580 H   0  0  0  0  0  0  0  0  0  0  0  0
  141.0124   67.3251  225.2267 H   0  0  0  0  0  0  0  0  0  0  0  0
  139.4790   68.1363  223.9301 H   0  0  0  0  0  0  0  0  0  0  0  0
  137.8492   68.2591  224.7865 H   0  0  0  0  0  0  0  0  0  0  0  0
  138.6889   71.9674  224.6890 H   0  0  0  0  0  0  0  0  0  0  0  0
  139.5463   70.7945  225.7535 H   0  0  0  0  0  0  0  0  0  0  0  0
  141.2124   72.0896  224.5205 H   0  0  0  0  0  0  0  0  0  0  0  0
  141.2327   70.4352  223.8907 H   0  0  0  0  0  0  0  0  0  0  0  0
  142.7732   72.9400  218.2325 H   0  0  0  0  0  0  0  0  0  0  0  0
  142.8402   74.7113  218.0326 H   0  0  0  0  0  0  0  0  0  0  0  0
  144.6114   73.4195  216.7224 H   0  0  0  0  0  0  0  0  0  0  0  0
  145.2743   74.6606  217.8220 H   0  0  0  0  0  0  0  0  0  0  0  0
  146.3370   72.4680  217.9280 H   0  0  0  0  0  0  0  0  0  0  0  0
  145.9937   72.2250  220.4431 H   0  0  0  0  0  0  0  0  0  0  0  0
  146.8428   73.6440  219.6871 H   0  0  0  0  0  0  0  0  0  0  0  0
  144.8220   73.8185  221.5019 H   0  0  0  0  0  0  0  0  0  0  0  0
  145.2702   75.0787  220.2588 H   0  0  0  0  0  0  0  0  0  0  0  0
  140.9904   77.6038  223.8346 H   0  0  0  0  0  0  0  0  0  0  0  0
  142.0899   77.4961  222.3960 H   0  0  0  0  0  0  0  0  0  0  0  0
  141.2080   79.8110  222.8079 H   0  0  0  0  0  0  0  0  0  0  0  0
  140.7829   79.1783  221.2088 H   0  0  0  0  0  0  0  0  0  0  0  0
  139.3836   81.1939  223.3060 H   0  0  0  0  0  0  0  0  0  0  0  0
  136.9654   81.3958  223.9099 H   0  0  0  0  0  0  0  0  0  0  0  0
  135.4664   79.4358  223.5599 H   0  0  0  0  0  0  0  0  0  0  0  0
  136.3533   77.3309  222.6396 H   0  0  0  0  0  0  0  0  0  0  0  0
  138.2604   75.9479  222.3825 H   0  0  0  0  0  0  0  0  0  0  0  0
  138.6317   76.7365  220.8177 H   0  0  0  0  0  0  0  0  0  0  0  0
  138.3198   71.8166  221.8729 H   0  0  0  0  0  0  0  0  0  0  0  0
  139.5964   70.8443  220.9980 H   0  0  0  0  0  0  0  0  0  0  0  0
  137.7575   69.6296  222.2589 H   0  0  0  0  0  0  0  0  0  0  0  0
  139.5293   69.1608  222.4712 H   0  0  0  0  0  0  0  0  0  0  0  0
  138.1703   69.9657  226.9972 H   0  0  0  0  0  0  0  0  0  0  0  0
  139.3755   69.8146  229.1526 H   0  0  0  0  0  0  0  0  0  0  0  0
  1  2  2  0
  2  3  1  0
  3  4  2  0
  4  5  1  0
  5  6  1  0
  6  7  1  0
  7  8  1  0
  8  9  1  0
  9 10  1  0
 10 11  2  0
 11 12  1  0
 12 13  1  0
 13 14  1  0
 14 15  1  0
 15 16  1  0
 16 17  1  0
 17 18  1  0
 12 19  2  0
 19 20  1  0
 20 21  1  0
 21 22  1  0
 22 23  1  0
 23 24  1  0
 24 25  2  0
 25 26  1  0
 26 27  2  0
 27 28  1  0
 28 29  2  0
 29 30  1  0
 20 31  2  0
  9 32  1  0
 32 33  1  0
  4 34  1  0
 34 35  2  0
 35  1  1  0
 33  6  1  0
 31 10  1  0
 18 13  1  0
 30 21  1  0
 29 24  1  0
  1 36  1  0
  2 37  1  0
  3 38  1  0
  5 39  1  0
  5 40  1  0
  7 41  1  0
  7 42  1  0
  8 43  1  0
  8 44  1  0
 14 45  1  0
 14 46  1  0
 15 47  1  0
 15 48  1  0
 16 49  1  0
 17 50  1  0
 17 51  1  0
 18 52  1  0
 18 53  1  0
 22 54  1  0
 22 55  1  0
 23 56  1  0
 23 57  1  0
 25 58  1  0
 26 59  1  0
 27 60  1  0
 28 61  1  0
 30 62  1  0
 30 63  1  0
 32 64  1  0
 32 65  1  0
 33 66  1  0
 33 67  1  0
 34 68  1  0
 35 69  1  0
M  END
>  <smiles>  (10) 
c1ccc(CN2CCN(c3nc(N4CCNCC4)nc(N4CCc5ccccc5C4)n3)CC2)cc1

>  <score_type>  (10) 
oracle

>  <origin>  (10) 
autodockgpu

>  <m_score__min__energy>  (10) 
-9.8499999999999996

>  <m_primary>  (10) 
energy

>  <rmsd>  (10) 
11.14134204682487

>  <m_score__min__rmsd>  (10) 
11.14134204682487

>  <meeko>  (10) 
{"free_energy": -9.45, "intermolecular_energy": -10.94, "internal_energy": -0.99, "cluster_size": 43, "cluster_id": 1, "rank_in_cluster": 8}

>  <energy>  (10) 
-9.43

>  <cluster_rmsd>  (10) 
1.08

>  <cluster>  (10) 
1

$$$$

     RDKit          3D

 69 74  0  0  0  0  0  0  0  0999 V2000
  142.8970   80.7370  223.4260 C   0  0  0  0  0  0  0  0  0  0  0  0
  142.3110   79.7470  224.1870 C   0  0  0  0  0  0  0  0  0  0  0  0
  141.0540   79.2920  223.8530 C   0  0  0  0  0  0  0  0  0  0  0  0
  140.3350   79.7840  222.7760 C   0  0  0  0  0  0  0  0  0  0  0  0
  139.0100   79.2280  222.5070 C   0  0  0  0  0  0  0  0  0  0  0  0
  138.9740   78.1040  221.6330 N   0  0  0  0  0  0  0  0  0  0  0  0
  140.2280   77.5770  221.2260 C   0  0  0  0  0  0  0  0  0  0  0  0
  140.6350   76.4380  222.1390 C   0  0  0  0  0  0  0  0  0  0  0  0
  139.6850   75.3670  221.8850 N   0  0  0  0  0  0  0  0  0  0  0  0
  140.0780   74.0150  221.6990 C   0  0  0  0  0  0  0  0  0  0  0  0
  140.5740   73.5390  220.5470 N   0  0  0  0  0  0  0  0  0  0  0  0
  140.9390   72.2360  220.4060 C   0  0  0  0  0  0  0  0  0  0  0  0
  141.4660   71.7320  219.1780 N   0  0  0  0  0  0  0  0  0  0  0  0
  140.5990   71.6250  218.0300 C   0  0  0  0  0  0  0  0  0  0  0  0
  141.3910   70.9860  216.9100 C   0  0  0  0  0  0  0  0  0  0  0  0
  142.0120   69.7850  217.4290 N   0  0  0  0  0  0  0  0  0  0  0  0
  143.0940   70.0830  218.3410 C   0  0  0  0  0  0  0  0  0  0  0  0
  142.8500   71.3470  219.1310 C   0  0  0  0  0  0  0  0  0  0  0  0
  140.7890   71.4070  221.4790 N   0  0  0  0  0  0  0  0  0  0  0  0
  140.2960   71.8480  222.6480 C   0  0  0  0  0  0  0  0  0  0  0  0
  140.1300   70.9890  223.7880 N   0  0  0  0  0  0  0  0  0  0  0  0
  139.0400   70.0390  223.7900 C   0  0  0  0  0  0  0  0  0  0  0  0
  139.4150   68.7560  224.5050 C   0  0  0  0  0  0  0  0  0  0  0  0
  139.8710   69.1650  225.8800 C   0  0  0  0  0  0  0  0  0  0  0  0
  139.4930   68.3990  226.9610 C   0  0  0  0  0  0  0  0  0  0  0  0
  139.9090   68.7690  228.2280 C   0  0  0  0  0  0  0  0  0  0  0  0
  140.6970   69.9030  228.3650 C   0  0  0  0  0  0  0  0  0  0  0  0
  141.0580   70.6470  227.2620 C   0  0  0  0  0  0  0  0  0  0  0  0
  140.6500   70.2920  225.9930 C   0  0  0  0  0  0  0  0  0  0  0  0
  141.0780   71.1380  224.8690 C   0  0  0  0  0  0  0  0  0  0  0  0
  139.9570   73.1440  222.7150 N   0  0  0  0  0  0  0  0  0  0  0  0
  138.2900   75.7300  221.8240 C   0  0  0  0  0  0  0  0  0  0  0  0
  138.0310   77.1540  222.1600 C   0  0  0  0  0  0  0  0  0  0  0  0
  140.9470   80.7730  222.0340 C   0  0  0  0  0  0  0  0  0  0  0  0
  142.2150   81.2500  222.3480 C   0  0  0  0  0  0  0  0  0  0  0  0
  143.8996   81.1122  223.6790 H   0  0  0  0  0  0  0  0  0  0  0  0
  142.8423   79.3246  225.0526 H   0  0  0  0  0  0  0  0  0  0  0  0
  140.6007   78.5020  224.4698 H   0  0  0  0  0  0  0  0  0  0  0  0
  138.5711   78.9220  223.4681 H   0  0  0  0  0  0  0  0  0  0  0  0
  138.4515   80.0238  221.9925 H   0  0  0  0  0  0  0  0  0  0  0  0
  140.1488   77.2054  220.1937 H   0  0  0  0  0  0  0  0  0  0  0  0
  140.9872   78.3711  221.2805 H   0  0  0  0  0  0  0  0  0  0  0  0
  141.6574   76.1064  221.9052 H   0  0  0  0  0  0  0  0  0  0  0  0
  140.6269   76.7438  223.1956 H   0  0  0  0  0  0  0  0  0  0  0  0
  139.7278   71.0001  218.2760 H   0  0  0  0  0  0  0  0  0  0  0  0
  140.2384   72.6190  217.7269 H   0  0  0  0  0  0  0  0  0  0  0  0
  140.7195   70.7291  216.0775 H   0  0  0  0  0  0  0  0  0  0  0  0
  142.1573   71.6823  216.5386 H   0  0  0  0  0  0  0  0  0  0  0  0
  142.4170   69.2600  216.6170 H   0  0  0  0  0  0  0  0  0  0  0  0
  143.2054   69.2436  219.0432 H   0  0  0  0  0  0  0  0  0  0  0  0
  144.0051   70.2321  217.7429 H   0  0  0  0  0  0  0  0  0  0  0  0
  143.2031   71.1884  220.1607 H   0  0  0  0  0  0  0  0  0  0  0  0
  143.3956   72.1570  218.6248 H   0  0  0  0  0  0  0  0  0  0  0  0
  138.1749   70.4903  224.2979 H   0  0  0  0  0  0  0  0  0  0  0  0
  138.7993   69.7915  222.7456 H   0  0  0  0  0  0  0  0  0  0  0  0
  138.5435   68.0883  224.5743 H   0  0  0  0  0  0  0  0  0  0  0  0
  140.2026   68.2096  223.9654 H   0  0  0  0  0  0  0  0  0  0  0  0
  138.8685   67.5047  226.8188 H   0  0  0  0  0  0  0  0  0  0  0  0
  139.6208   68.1762  229.1086 H   0  0  0  0  0  0  0  0  0  0  0  0
  141.0373   70.2116  229.3645 H   0  0  0  0  0  0  0  0  0  0  0  0
  141.6839   71.5416  227.3965 H   0  0  0  0  0  0  0  0  0  0  0  0
  141.1114   72.1898  225.1894 H   0  0  0  0  0  0  0  0  0  0  0  0
  142.0802   70.8343  224.5324 H   0  0  0  0  0  0  0  0  0  0  0  0
  137.9259   75.5417  220.8032 H   0  0  0  0  0  0  0  0  0  0  0  0
  137.7649   75.1207  222.5743 H   0  0  0  0  0  0  0  0  0  0  0  0
  137.0355   77.4164  221.7725 H   0  0  0  0  0  0  0  0  0  0  0  0
  138.1181   77.2229  223.2544 H   0  0  0  0  0  0  0  0  0  0  0  0
  140.4164   81.1967  221.1686 H   0  0  0  0  0  0  0  0  0  0  0  0
  142.6729   82.0388  221.7331 H   0  0  0  0  0  0  0  0  0  0  0  0
  1  2  2  0
  2  3  1  0
  3  4  2  0
  4  5  1  0
  5  6  1  0
  6  7  1  0
  7  8  1  0
  8  9  1  0
  9 10  1  0
 10 11  2  0
 11 12  1  0
 12 13  1  0
 13 14  1  0
 14 15  1  0
 15 16  1  0
 16 17  1  0
 17 18  1  0
 12 19  2  0
 19 20  1  0
 20 21  1  0
 21 22  1  0
 22 23  1  0
 23 24  1  0
 24 25  2  0
 25 26  1  0
 26 27  2  0
 27 28  1  0
 28 29  2  0
 29 30  1  0
 20 31  2  0
  9 32  1  0
 32 33  1  0
  4 34  1  0
 34 35  2  0
 35  1  1  0
 33  6  1  0
 31 10  1  0
 18 13  1  0
 30 21  1  0
 29 24  1  0
  1 36  1  0
  2 37  1  0
  3 38  1  0
  5 39  1  0
  5 40  1  0
  7 41  1  0
  7 42  1  0
  8 43  1  0
  8 44  1  0
 14 45  1  0
 14 46  1  0
 15 47  1  0
 15 48  1  0
 16 49  1  0
 17 50  1  0
 17 51  1  0
 18 52  1  0
 18 53  1  0
 22 54  1  0
 22 55  1  0
 23 56  1  0
 23 57  1  0
 25 58  1  0
 26 59  1  0
 27 60  1  0
 28 61  1  0
 30 62  1  0
 30 63  1  0
 32 64  1  0
 32 65  1  0
 33 66  1  0
 33 67  1  0
 34 68  1  0
 35 69  1  0
M  END
>  <smiles>  (11) 
c1ccc(CN2CCN(c3nc(N4CCNCC4)nc(N4CCc5ccccc5C4)n3)CC2)cc1

>  <score_type>  (11) 
oracle

>  <origin>  (11) 
autodockgpu

>  <m_score__min__energy>  (11) 
-9.8499999999999996

>  <m_primary>  (11) 
energy

>  <rmsd>  (11) 
3.8523572028451922

>  <m_score__min__rmsd>  (11) 
3.8523572028451922

>  <meeko>  (11) 
{"free_energy": -8.83, "intermolecular_energy": -10.32, "internal_energy": -1.16, "cluster_size": 1, "cluster_id": 3, "rank_in_cluster": 1}

>  <energy>  (11) 
-9.42

>  <cluster_rmsd>  (11) 
1.14

>  <cluster>  (11) 
1

$$$$

     RDKit          3D

 69 74  0  0  0  0  0  0  0  0999 V2000
  142.6460   80.3420  223.5200 C   0  0  0  0  0  0  0  0  0  0  0  0
  141.8110   79.4450  224.1510 C   0  0  0  0  0  0  0  0  0  0  0  0
  140.5830   79.1580  223.5950 C   0  0  0  0  0  0  0  0  0  0  0  0
  140.1350   79.7330  222.4170 C   0  0  0  0  0  0  0  0  0  0  0  0
  138.8160   79.3560  221.9110 C   0  0  0  0  0  0  0  0  0  0  0  0
  138.7020   78.0300  221.4000 N   0  0  0  0  0  0  0  0  0  0  0  0
  139.7610   77.5800  220.5690 C   0  0  0  0  0  0  0  0  0  0  0  0
  140.7830   76.8210  221.3930 C   0  0  0  0  0  0  0  0  0  0  0  0
  140.1150   75.6060  221.8320 N   0  0  0  0  0  0  0  0  0  0  0  0
  140.7200   74.3230  221.7590 C   0  0  0  0  0  0  0  0  0  0  0  0
  141.6030   73.9730  220.8120 N   0  0  0  0  0  0  0  0  0  0  0  0
  142.1610   72.7330  220.7730 C   0  0  0  0  0  0  0  0  0  0  0  0
  143.1010   72.3630  219.7630 N   0  0  0  0  0  0  0  0  0  0  0  0
  143.8500   71.1390  219.9120 C   0  0  0  0  0  0  0  0  0  0  0  0
  144.8200   71.0470  218.7550 C   0  0  0  0  0  0  0  0  0  0  0  0
  145.5410   72.3010  218.6730 N   0  0  0  0  0  0  0  0  0  0  0  0
  144.7040   73.3780  218.1930 C   0  0  0  0  0  0  0  0  0  0  0  0
  143.2660   73.2290  218.6280 C   0  0  0  0  0  0  0  0  0  0  0  0
  141.8000   71.8360  221.7350 N   0  0  0  0  0  0  0  0  0  0  0  0
  140.9190   72.1510  222.7000 C   0  0  0  0  0  0  0  0  0  0  0  0
  140.5260   71.2190  223.7200 N   0  0  0  0  0  0  0  0  0  0  0  0
  139.3170   70.4480  223.5300 C   0  0  0  0  0  0  0  0  0  0  0  0
  139.4370   69.0590  224.1240 C   0  0  0  0  0  0  0  0  0  0  0  0
  139.8150   69.2560  225.5680 C   0  0  0  0  0  0  0  0  0  0  0  0
  139.2320   68.4540  226.5240 C   0  0  0  0  0  0  0  0  0  0  0  0
  139.5750   68.6290  227.8530 C   0  0  0  0  0  0  0  0  0  0  0  0
  140.4990   69.6120  228.1770 C   0  0  0  0  0  0  0  0  0  0  0  0
  141.0640   70.3990  227.1960 C   0  0  0  0  0  0  0  0  0  0  0  0
  140.7320   70.2370  225.8670 C   0  0  0  0  0  0  0  0  0  0  0  0
  141.3790   71.1150  224.8810 C   0  0  0  0  0  0  0  0  0  0  0  0
  140.4090   73.3910  222.6750 N   0  0  0  0  0  0  0  0  0  0  0  0
  138.7790   75.7480  222.3590 C   0  0  0  0  0  0  0  0  0  0  0  0
  138.3360   77.1600  222.4850 C   0  0  0  0  0  0  0  0  0  0  0  0
  140.9920   80.6260  221.8090 C   0  0  0  0  0  0  0  0  0  0  0  0
  142.2370   80.9340  222.3480 C   0  0  0  0  0  0  0  0  0  0  0  0
  143.6298   80.5820  223.9496 H   0  0  0  0  0  0  0  0  0  0  0  0
  142.1219   78.9627  225.0895 H   0  0  0  0  0  0  0  0  0  0  0  0
  139.9286   78.4394  224.1103 H   0  0  0  0  0  0  0  0  0  0  0  0
  138.0954   79.4629  222.7352 H   0  0  0  0  0  0  0  0  0  0  0  0
  138.6225   80.0222  221.0573 H   0  0  0  0  0  0  0  0  0  0  0  0
  139.3560   76.9166  219.7906 H   0  0  0  0  0  0  0  0  0  0  0  0
  140.2478   78.4496  220.1033 H   0  0  0  0  0  0  0  0  0  0  0  0
  141.6624   76.5744  220.7800 H   0  0  0  0  0  0  0  0  0  0  0  0
  141.1393   77.4177  222.2457 H   0  0  0  0  0  0  0  0  0  0  0  0
  144.4023   71.1516  220.8632 H   0  0  0  0  0  0  0  0  0  0  0  0
  143.1729   70.2721  219.9157 H   0  0  0  0  0  0  0  0  0  0  0  0
  145.5263   70.2210  218.9250 H   0  0  0  0  0  0  0  0  0  0  0  0
  144.2781   70.8563  217.8169 H   0  0  0  0  0  0  0  0  0  0  0  0
  146.3220   72.1750  217.9850 H   0  0  0  0  0  0  0  0  0  0  0  0
  145.0942   74.3293  218.5837 H   0  0  0  0  0  0  0  0  0  0  0  0
  144.7253   73.3539  217.0935 H   0  0  0  0  0  0  0  0  0  0  0  0
  142.8754   74.2238  218.8885 H   0  0  0  0  0  0  0  0  0  0  0  0
  142.7180   72.7743  217.7896 H   0  0  0  0  0  0  0  0  0  0  0  0
  138.4804   70.9719  224.0154 H   0  0  0  0  0  0  0  0  0  0  0  0
  139.1438   70.3440  222.4487 H   0  0  0  0  0  0  0  0  0  0  0  0
  138.4770   68.5272  224.0494 H   0  0  0  0  0  0  0  0  0  0  0  0
  140.1863   68.4560  223.5902 H   0  0  0  0  0  0  0  0  0  0  0  0
  138.5023   67.6835  226.2344 H   0  0  0  0  0  0  0  0  0  0  0  0
  139.1245   68.0018  228.6364 H   0  0  0  0  0  0  0  0  0  0  0  0
  140.7840   69.7652  229.2283 H   0  0  0  0  0  0  0  0  0  0  0  0
  141.7942   71.1716  227.4788 H   0  0  0  0  0  0  0  0  0  0  0  0
  141.5316   72.1128  225.3183 H   0  0  0  0  0  0  0  0  0  0  0  0
  142.3546   70.6973  224.5918 H   0  0  0  0  0  0  0  0  0  0  0  0
  138.0829   75.2238  221.6876 H   0  0  0  0  0  0  0  0  0  0  0  0
  138.7851   75.3204  223.3725 H   0  0  0  0  0  0  0  0  0  0  0  0
  137.2389   77.1636  222.5652 H   0  0  0  0  0  0  0  0  0  0  0  0
  138.8508   77.5565  223.3726 H   0  0  0  0  0  0  0  0  0  0  0  0
  140.6822   81.1089  220.8705 H   0  0  0  0  0  0  0  0  0  0  0  0
  142.8949   81.6518  221.8362 H   0  0  0  0  0  0  0  0  0  0  0  0
  1  2  2  0
  2  3  1  0
  3  4  2  0
  4  5  1  0
  5  6  1  0
  6  7  1  0
  7  8  1  0
  8  9  1  0
  9 10  1  0
 10 11  2  0
 11 12  1  0
 12 13  1  0
 13 14  1  0
 14 15  1  0
 15 16  1  0
 16 17  1  0
 17 18  1  0
 12 19  2  0
 19 20  1  0
 20 21  1  0
 21 22  1  0
 22 23  1  0
 23 24  1  0
 24 25  2  0
 25 26  1  0
 26 27  2  0
 27 28  1  0
 28 29  2  0
 29 30  1  0
 20 31  2  0
  9 32  1  0
 32 33  1  0
  4 34  1  0
 34 35  2  0
 35  1  1  0
 33  6  1  0
 31 10  1  0
 18 13  1  0
 30 21  1  0
 29 24  1  0
  1 36  1  0
  2 37  1  0
  3 38  1  0
  5 39  1  0
  5 40  1  0
  7 41  1  0
  7 42  1  0
  8 43  1  0
  8 44  1  0
 14 45  1  0
 14 46  1  0
 15 47  1  0
 15 48  1  0
 16 49  1  0
 17 50  1  0
 17 51  1  0
 18 52  1  0
 18 53  1  0
 22 54  1  0
 22 55  1  0
 23 56  1  0
 23 57  1  0
 25 58  1  0
 26 59  1  0
 27 60  1  0
 28 61  1  0
 30 62  1  0
 30 63  1  0
 32 64  1  0
 32 65  1  0
 33 66  1  0
 33 67  1  0
 34 68  1  0
 35 69  1  0
M  END
>  <smiles>  (12) 
c1ccc(CN2CCN(c3nc(N4CCNCC4)nc(N4CCc5ccccc5C4)n3)CC2)cc1

>  <score_type>  (12) 
oracle

>  <origin>  (12) 
autodockgpu

>  <m_score__min__energy>  (12) 
-9.8499999999999996

>  <m_primary>  (12) 
energy

>  <rmsd>  (12) 
3.9953288864352414

>  <m_score__min__rmsd>  (12) 
3.9953288864352414

>  <meeko>  (12) 
{"free_energy": -9.21, "intermolecular_energy": -10.71, "internal_energy": -1.22, "cluster_size": 43, "cluster_id": 1, "rank_in_cluster": 27}

>  <energy>  (12) 
-9.4

>  <cluster_rmsd>  (12) 
0.67

>  <cluster>  (12) 
1

$$$$

     RDKit          3D

 69 74  0  0  0  0  0  0  0  0999 V2000
  142.7310   80.5700  223.4980 C   0  0  0  0  0  0  0  0  0  0  0  0
  142.1950   81.0900  222.3390 C   0  0  0  0  0  0  0  0  0  0  0  0
  140.9470   80.6770  221.9260 C   0  0  0  0  0  0  0  0  0  0  0  0
  140.1890   79.7510  222.6240 C   0  0  0  0  0  0  0  0  0  0  0  0
  138.8750   79.3850  222.1000 C   0  0  0  0  0  0  0  0  0  0  0  0
  138.7780   78.0900  221.5130 N   0  0  0  0  0  0  0  0  0  0  0  0
  139.8850   77.6650  220.7330 C   0  0  0  0  0  0  0  0  0  0  0  0
  140.8380   76.8470  221.5820 C   0  0  0  0  0  0  0  0  0  0  0  0
  140.1260   75.6230  221.9110 N   0  0  0  0  0  0  0  0  0  0  0  0
  140.7170   74.3360  221.8110 C   0  0  0  0  0  0  0  0  0  0  0  0
  141.5890   73.9930  220.8510 N   0  0  0  0  0  0  0  0  0  0  0  0
  142.1340   72.7480  220.7870 C   0  0  0  0  0  0  0  0  0  0  0  0
  143.0620   72.3860  219.7630 N   0  0  0  0  0  0  0  0  0  0  0  0
  143.7180   71.1030  219.8290 C   0  0  0  0  0  0  0  0  0  0  0  0
  144.6990   71.0260  218.6800 C   0  0  0  0  0  0  0  0  0  0  0  0
  145.5110   72.2260  218.7020 N   0  0  0  0  0  0  0  0  0  0  0  0
  144.7640   73.3950  218.2940 C   0  0  0  0  0  0  0  0  0  0  0  0
  143.3100   73.3200  218.7000 C   0  0  0  0  0  0  0  0  0  0  0  0
  141.7710   71.8380  221.7360 N   0  0  0  0  0  0  0  0  0  0  0  0
  140.9010   72.1460  222.7120 C   0  0  0  0  0  0  0  0  0  0  0  0
  140.5060   71.2000  223.7190 N   0  0  0  0  0  0  0  0  0  0  0  0
  139.2970   70.4330  223.5180 C   0  0  0  0  0  0  0  0  0  0  0  0
  139.4150   69.0360  224.0930 C   0  0  0  0  0  0  0  0  0  0  0  0
  139.7920   69.2130  225.5400 C   0  0  0  0  0  0  0  0  0  0  0  0
  139.2070   68.3980  226.4840 C   0  0  0  0  0  0  0  0  0  0  0  0
  139.5490   68.5550  227.8160 C   0  0  0  0  0  0  0  0  0  0  0  0
  140.4730   69.5320  228.1540 C   0  0  0  0  0  0  0  0  0  0  0  0
  141.0400   70.3320  227.1840 C   0  0  0  0  0  0  0  0  0  0  0  0
  140.7090   70.1880  225.8540 C   0  0  0  0  0  0  0  0  0  0  0  0
  141.3580   71.0790  224.8800 C   0  0  0  0  0  0  0  0  0  0  0  0
  140.4030   73.3910  222.7140 N   0  0  0  0  0  0  0  0  0  0  0  0
  138.7590   75.7600  222.3530 C   0  0  0  0  0  0  0  0  0  0  0  0
  138.3270   77.1710  222.5240 C   0  0  0  0  0  0  0  0  0  0  0  0
  140.7510   79.2490  223.7800 C   0  0  0  0  0  0  0  0  0  0  0  0
  142.0090   79.6490  224.2200 C   0  0  0  0  0  0  0  0  0  0  0  0
  143.7262   80.8887  223.8416 H   0  0  0  0  0  0  0  0  0  0  0  0
  142.7586   81.8280  221.7493 H   0  0  0  0  0  0  0  0  0  0  0  0
  140.5336   81.1021  220.9995 H   0  0  0  0  0  0  0  0  0  0  0  0
  138.1554   79.4334  222.9306 H   0  0  0  0  0  0  0  0  0  0  0  0
  138.6698   80.0968  221.2868 H   0  0  0  0  0  0  0  0  0  0  0  0
  139.5248   77.0499  219.8952 H   0  0  0  0  0  0  0  0  0  0  0  0
  140.4145   78.5491  220.3482 H   0  0  0  0  0  0  0  0  0  0  0  0
  141.7534   76.6174  221.0169 H   0  0  0  0  0  0  0  0  0  0  0  0
  141.1436   77.3927  222.4868 H   0  0  0  0  0  0  0  0  0  0  0  0
  144.2530   71.0049  220.7851 H   0  0  0  0  0  0  0  0  0  0  0  0
  142.9802   70.2900  219.7597 H   0  0  0  0  0  0  0  0  0  0  0  0
  145.3400   70.1396  218.7955 H   0  0  0  0  0  0  0  0  0  0  0  0
  144.1613   70.9465  217.7237 H   0  0  0  0  0  0  0  0  0  0  0  0
  146.2930   72.0940  218.0160 H   0  0  0  0  0  0  0  0  0  0  0  0
  145.2156   74.2832  218.7600 H   0  0  0  0  0  0  0  0  0  0  0  0
  144.8033   73.4520  217.1962 H   0  0  0  0  0  0  0  0  0  0  0  0
  142.9885   74.3185  219.0311 H   0  0  0  0  0  0  0  0  0  0  0  0
  142.7454   72.9711  217.8228 H   0  0  0  0  0  0  0  0  0  0  0  0
  138.4607   70.9511  224.0100 H   0  0  0  0  0  0  0  0  0  0  0  0
  139.1246   70.3438  222.4353 H   0  0  0  0  0  0  0  0  0  0  0  0
  138.4545   68.5063  224.0104 H   0  0  0  0  0  0  0  0  0  0  0  0
  140.1641   68.4395  223.5516 H   0  0  0  0  0  0  0  0  0  0  0  0
  138.4772   67.6320  226.1830 H   0  0  0  0  0  0  0  0  0  0  0  0
  139.0971   67.9178  228.5904 H   0  0  0  0  0  0  0  0  0  0  0  0
  140.7571   69.6706  229.2076 H   0  0  0  0  0  0  0  0  0  0  0  0
  141.7707   71.1000  227.4778 H   0  0  0  0  0  0  0  0  0  0  0  0
  141.5113   72.0705  225.3310 H   0  0  0  0  0  0  0  0  0  0  0  0
  142.3333   70.6639  224.5860 H   0  0  0  0  0  0  0  0  0  0  0  0
  138.1037   75.2836  221.6089 H   0  0  0  0  0  0  0  0  0  0  0  0
  138.6900   75.2800  223.3403 H   0  0  0  0  0  0  0  0  0  0  0  0
  137.2272   77.1890  222.5303 H   0  0  0  0  0  0  0  0  0  0  0  0
  138.7849   77.5122  223.4641 H   0  0  0  0  0  0  0  0  0  0  0  0
  140.1882   78.5113  224.3708 H   0  0  0  0  0  0  0  0  0  0  0  0
  142.4264   79.2279  225.1465 H   0  0  0  0  0  0  0  0  0  0  0  0
  1  2  2  0
  2  3  1  0
  3  4  2  0
  4  5  1  0
  5  6  1  0
  6  7  1  0
  7  8  1  0
  8  9  1  0
  9 10  1  0
 10 11  2  0
 11 12  1  0
 12 13  1  0
 13 14  1  0
 14 15  1  0
 15 16  1  0
 16 17  1  0
 17 18  1  0
 12 19  2  0
 19 20  1  0
 20 21  1  0
 21 22  1  0
 22 23  1  0
 23 24  1  0
 24 25  2  0
 25 26  1  0
 26 27  2  0
 27 28  1  0
 28 29  2  0
 29 30  1  0
 20 31  2  0
  9 32  1  0
 32 33  1  0
  4 34  1  0
 34 35  2  0
 35  1  1  0
 33  6  1  0
 31 10  1  0
 18 13  1  0
 30 21  1  0
 29 24  1  0
  1 36  1  0
  2 37  1  0
  3 38  1  0
  5 39  1  0
  5 40  1  0
  7 41  1  0
  7 42  1  0
  8 43  1  0
  8 44  1  0
 14 45  1  0
 14 46  1  0
 15 47  1  0
 15 48  1  0
 16 49  1  0
 17 50  1  0
 17 51  1  0
 18 52  1  0
 18 53  1  0
 22 54  1  0
 22 55  1  0
 23 56  1  0
 23 57  1  0
 25 58  1  0
 26 59  1  0
 27 60  1  0
 28 61  1  0
 30 62  1  0
 30 63  1  0
 32 64  1  0
 32 65  1  0
 33 66  1  0
 33 67  1  0
 34 68  1  0
 35 69  1  0
M  END
>  <smiles>  (13) 
c1ccc(CN2CCN(c3nc(N4CCNCC4)nc(N4CCc5ccccc5C4)n3)CC2)cc1

>  <score_type>  (13) 
oracle

>  <origin>  (13) 
autodockgpu

>  <m_score__min__energy>  (13) 
-9.8499999999999996

>  <m_primary>  (13) 
energy

>  <rmsd>  (13) 
3.6084186721958376

>  <m_score__min__rmsd>  (13) 
3.6084186721958376

>  <meeko>  (13) 
{"free_energy": -9.21, "intermolecular_energy": -10.7, "internal_energy": -1.24, "cluster_size": 43, "cluster_id": 1, "rank_in_cluster": 28}

>  <energy>  (13) 
-9.37

>  <cluster_rmsd>  (13) 
1.01

>  <cluster>  (13) 
1

$$$$

     RDKit          3D

 69 74  0  0  0  0  0  0  0  0999 V2000
  141.1390   68.1430  228.4470 C   0  0  0  0  0  0  0  0  0  0  0  0
  141.3840   67.6460  227.1840 C   0  0  0  0  0  0  0  0  0  0  0  0
  140.5260   67.9660  226.1540 C   0  0  0  0  0  0  0  0  0  0  0  0
  139.4130   68.7730  226.3220 C   0  0  0  0  0  0  0  0  0  0  0  0
  138.5700   69.0540  225.1610 C   0  0  0  0  0  0  0  0  0  0  0  0
  138.5250   70.4140  224.7400 N   0  0  0  0  0  0  0  0  0  0  0  0
  139.6160   71.2340  225.1310 C   0  0  0  0  0  0  0  0  0  0  0  0
  140.6590   71.2730  224.0320 C   0  0  0  0  0  0  0  0  0  0  0  0
  140.0420   71.9830  222.9240 N   0  0  0  0  0  0  0  0  0  0  0  0
  140.7060   73.0070  222.1980 C   0  0  0  0  0  0  0  0  0  0  0  0
  141.7360   72.7790  221.3690 N   0  0  0  0  0  0  0  0  0  0  0  0
  142.3480   73.7860  220.6900 C   0  0  0  0  0  0  0  0  0  0  0  0
  143.4450   73.5400  219.8090 N   0  0  0  0  0  0  0  0  0  0  0  0
  143.2100   72.8420  218.5690 C   0  0  0  0  0  0  0  0  0  0  0  0
  144.5460   72.6460  217.8870 C   0  0  0  0  0  0  0  0  0  0  0  0
  145.4610   72.0680  218.8510 N   0  0  0  0  0  0  0  0  0  0  0  0
  145.8520   73.0200  219.8670 C   0  0  0  0  0  0  0  0  0  0  0  0
  144.7510   74.0010  220.1930 C   0  0  0  0  0  0  0  0  0  0  0  0
  141.8850   75.0570  220.8710 N   0  0  0  0  0  0  0  0  0  0  0  0
  140.8560   75.3230  221.6920 C   0  0  0  0  0  0  0  0  0  0  0  0
  140.3570   76.6550  221.8950 N   0  0  0  0  0  0  0  0  0  0  0  0
  139.1740   77.0720  221.1740 C   0  0  0  0  0  0  0  0  0  0  0  0
  138.3220   78.0200  221.9930 C   0  0  0  0  0  0  0  0  0  0  0  0
  139.2280   79.1560  222.3890 C   0  0  0  0  0  0  0  0  0  0  0  0
  138.7350   80.4420  222.3560 C   0  0  0  0  0  0  0  0  0  0  0  0
  139.5610   81.4900  222.7190 C   0  0  0  0  0  0  0  0  0  0  0  0
  140.8640   81.2080  223.1050 C   0  0  0  0  0  0  0  0  0  0  0  0
  141.3260   79.9090  223.1260 C   0  0  0  0  0  0  0  0  0  0  0  0
  140.5150   78.8540  222.7670 C   0  0  0  0  0  0  0  0  0  0  0  0
  141.0820   77.4980  222.8170 C   0  0  0  0  0  0  0  0  0  0  0  0
  140.3010   74.2810  222.3290 N   0  0  0  0  0  0  0  0  0  0  0  0
  138.6930   71.6070  222.5750 C   0  0  0  0  0  0  0  0  0  0  0  0
  138.1830   70.4420  223.3430 C   0  0  0  0  0  0  0  0  0  0  0  0
  139.1950   69.2550  227.5960 C   0  0  0  0  0  0  0  0  0  0  0  0
  140.0440   68.9480  228.6540 C   0  0  0  0  0  0  0  0  0  0  0  0
  141.8133   67.8976  229.2807 H   0  0  0  0  0  0  0  0  0  0  0  0
  142.2556   67.0006  227.0006 H   0  0  0  0  0  0  0  0  0  0  0  0
  140.7348   67.5619  225.1525 H   0  0  0  0  0  0  0  0  0  0  0  0
  138.9442   68.4527  224.3193 H   0  0  0  0  0  0  0  0  0  0  0  0
  137.5444   68.8037  225.4700 H   0  0  0  0  0  0  0  0  0  0  0  0
  139.2531   72.2543  225.3245 H   0  0  0  0  0  0  0  0  0  0  0  0
  140.0696   70.8186  226.0429 H   0  0  0  0  0  0  0  0  0  0  0  0
  141.5575   71.8064  224.3757 H   0  0  0  0  0  0  0  0  0  0  0  0
  140.9749   70.2611  223.7382 H   0  0  0  0  0  0  0  0  0  0  0  0
  142.7467   71.8651  218.7717 H   0  0  0  0  0  0  0  0  0  0  0  0
  142.5318   73.4212  217.9252 H   0  0  0  0  0  0  0  0  0  0  0  0
  144.4309   71.9679  217.0286 H   0  0  0  0  0  0  0  0  0  0  0  0
  144.9335   73.6087  217.5222 H   0  0  0  0  0  0  0  0  0  0  0  0
  146.3270   71.7800  218.3350 H   0  0  0  0  0  0  0  0  0  0  0  0
  146.1175   72.4705  220.7822 H   0  0  0  0  0  0  0  0  0  0  0  0
  146.7065   73.5930  219.4778 H   0  0  0  0  0  0  0  0  0  0  0  0
  144.7528   74.1794  221.2784 H   0  0  0  0  0  0  0  0  0  0  0  0
  144.9532   74.9186  219.6210 H   0  0  0  0  0  0  0  0  0  0  0  0
  139.4817   77.5794  220.2478 H   0  0  0  0  0  0  0  0  0  0  0  0
  138.5743   76.1767  220.9533 H   0  0  0  0  0  0  0  0  0  0  0  0
  137.4805   78.3942  221.3914 H   0  0  0  0  0  0  0  0  0  0  0  0
  137.8955   77.5189  222.8745 H   0  0  0  0  0  0  0  0  0  0  0  0
  137.6973   80.6328  222.0448 H   0  0  0  0  0  0  0  0  0  0  0  0
  139.1927   82.5264  222.7021 H   0  0  0  0  0  0  0  0  0  0  0  0
  141.5350   82.0292  223.3972 H   0  0  0  0  0  0  0  0  0  0  0  0
  142.3628   79.7107  223.4355 H   0  0  0  0  0  0  0  0  0  0  0  0
  142.1437   77.5307  222.5312 H   0  0  0  0  0  0  0  0  0  0  0  0
  140.9970   77.0952  223.8370 H   0  0  0  0  0  0  0  0  0  0  0  0
  138.0323   72.4655  222.7657 H   0  0  0  0  0  0  0  0  0  0  0  0
  138.7035   71.3148  221.5146 H   0  0  0  0  0  0  0  0  0  0  0  0
  137.0858   70.4401  223.2642 H   0  0  0  0  0  0  0  0  0  0  0  0
  138.6653   69.5582  222.8999 H   0  0  0  0  0  0  0  0  0  0  0  0
  138.3241   69.9011  227.7805 H   0  0  0  0  0  0  0  0  0  0  0  0
  139.8391   69.3497  229.6573 H   0  0  0  0  0  0  0  0  0  0  0  0
  1  2  2  0
  2  3  1  0
  3  4  2  0
  4  5  1  0
  5  6  1  0
  6  7  1  0
  7  8  1  0
  8  9  1  0
  9 10  1  0
 10 11  2  0
 11 12  1  0
 12 13  1  0
 13 14  1  0
 14 15  1  0
 15 16  1  0
 16 17  1  0
 17 18  1  0
 12 19  2  0
 19 20  1  0
 20 21  1  0
 21 22  1  0
 22 23  1  0
 23 24  1  0
 24 25  2  0
 25 26  1  0
 26 27  2  0
 27 28  1  0
 28 29  2  0
 29 30  1  0
 20 31  2  0
  9 32  1  0
 32 33  1  0
  4 34  1  0
 34 35  2  0
 35  1  1  0
 33  6  1  0
 31 10  1  0
 18 13  1  0
 30 21  1  0
 29 24  1  0
  1 36  1  0
  2 37  1  0
  3 38  1  0
  5 39  1  0
  5 40  1  0
  7 41  1  0
  7 42  1  0
  8 43  1  0
  8 44  1  0
 14 45  1  0
 14 46  1  0
 15 47  1  0
 15 48  1  0
 16 49  1  0
 17 50  1  0
 17 51  1  0
 18 52  1  0
 18 53  1  0
 22 54  1  0
 22 55  1  0
 23 56  1  0
 23 57  1  0
 25 58  1  0
 26 59  1  0
 27 60  1  0
 28 61  1  0
 30 62  1  0
 30 63  1  0
 32 64  1  0
 32 65  1  0
 33 66  1  0
 33 67  1  0
 34 68  1  0
 35 69  1  0
M  END
>  <smiles>  (14) 
c1ccc(CN2CCN(c3nc(N4CCNCC4)nc(N4CCc5ccccc5C4)n3)CC2)cc1

>  <score_type>  (14) 
oracle

>  <origin>  (14) 
autodockgpu

>  <m_score__min__energy>  (14) 
-9.8499999999999996

>  <m_primary>  (14) 
energy

>  <rmsd>  (14) 
11.251937121378166

>  <m_score__min__rmsd>  (14) 
11.251937121378166

>  <meeko>  (14) 
{"free_energy": -9.58, "intermolecular_energy": -11.07, "internal_energy": -1.13, "cluster_size": 43, "cluster_id": 1, "rank_in_cluster": 6}

>  <energy>  (14) 
-9.36

>  <cluster_rmsd>  (14) 
0.69

>  <cluster>  (14) 
1

$$$$

     RDKit          3D

 69 74  0  0  0  0  0  0  0  0999 V2000
  142.1750   81.5380  223.8930 C   0  0  0  0  0  0  0  0  0  0  0  0
  143.0770   80.5150  223.6940 C   0  0  0  0  0  0  0  0  0  0  0  0
  142.8530   79.6020  222.6860 C   0  0  0  0  0  0  0  0  0  0  0  0
  141.7510   79.6580  221.8490 C   0  0  0  0  0  0  0  0  0  0  0  0
  141.6110   78.6400  220.8080 C   0  0  0  0  0  0  0  0  0  0  0  0
  141.7810   77.2910  221.2310 N   0  0  0  0  0  0  0  0  0  0  0  0
  141.0530   76.8920  222.3830 C   0  0  0  0  0  0  0  0  0  0  0  0
  139.7420   76.2510  221.9730 C   0  0  0  0  0  0  0  0  0  0  0  0
  140.0980   75.0060  221.3120 N   0  0  0  0  0  0  0  0  0  0  0  0
  139.4480   73.7740  221.5840 C   0  0  0  0  0  0  0  0  0  0  0  0
  138.4850   73.2560  220.8080 N   0  0  0  0  0  0  0  0  0  0  0  0
  137.8830   72.0710  221.1020 C   0  0  0  0  0  0  0  0  0  0  0  0
  136.8570   71.5230  220.2730 N   0  0  0  0  0  0  0  0  0  0  0  0
  136.7840   70.0930  220.0960 C   0  0  0  0  0  0  0  0  0  0  0  0
  135.6720   69.8050  219.1110 C   0  0  0  0  0  0  0  0  0  0  0  0
  135.8770   70.6430  217.9470 N   0  0  0  0  0  0  0  0  0  0  0  0
  135.5930   72.0340  218.2220 C   0  0  0  0  0  0  0  0  0  0  0  0
  135.9310   72.4210  219.6420 C   0  0  0  0  0  0  0  0  0  0  0  0
  138.2880   71.4070  222.2230 N   0  0  0  0  0  0  0  0  0  0  0  0
  139.2490   71.8950  223.0240 C   0  0  0  0  0  0  0  0  0  0  0  0
  139.6860   71.2090  224.2090 N   0  0  0  0  0  0  0  0  0  0  0  0
  140.7260   71.8070  225.0160 C   0  0  0  0  0  0  0  0  0  0  0  0
  140.5270   71.5230  226.4910 C   0  0  0  0  0  0  0  0  0  0  0  0
  140.4410   70.0250  226.6180 C   0  0  0  0  0  0  0  0  0  0  0  0
  141.0700   69.4110  227.6780 C   0  0  0  0  0  0  0  0  0  0  0  0
  140.9960   68.0350  227.8010 C   0  0  0  0  0  0  0  0  0  0  0  0
  140.2870   67.3200  226.8470 C   0  0  0  0  0  0  0  0  0  0  0  0
  139.6680   67.9650  225.7970 C   0  0  0  0  0  0  0  0  0  0  0  0
  139.7340   69.3360  225.6610 C   0  0  0  0  0  0  0  0  0  0  0  0
  139.0470   69.9490  224.5150 C   0  0  0  0  0  0  0  0  0  0  0  0
  139.7970   73.0670  222.6730 N   0  0  0  0  0  0  0  0  0  0  0  0
  141.1650   75.0620  220.3420 C   0  0  0  0  0  0  0  0  0  0  0  0
  141.6580   76.4390  220.0790 C   0  0  0  0  0  0  0  0  0  0  0  0
  140.8670   80.6920  222.0720 C   0  0  0  0  0  0  0  0  0  0  0  0
  141.0680   81.6280  223.0810 C   0  0  0  0  0  0  0  0  0  0  0  0
  142.3386   82.2751  224.6930 H   0  0  0  0  0  0  0  0  0  0  0  0
  143.9675   80.4280  224.3338 H   0  0  0  0  0  0  0  0  0  0  0  0
  143.5827   78.7920  222.5397 H   0  0  0  0  0  0  0  0  0  0  0  0
  140.6029   78.7340  220.3780 H   0  0  0  0  0  0  0  0  0  0  0  0
  142.4237   78.8323  220.0921 H   0  0  0  0  0  0  0  0  0  0  0  0
  141.6488   76.1672  222.9572 H   0  0  0  0  0  0  0  0  0  0  0  0
  140.8436   77.7771  223.0017 H   0  0  0  0  0  0  0  0  0  0  0  0
  139.1206   76.0504  222.8582 H   0  0  0  0  0  0  0  0  0  0  0  0
  139.1602   76.9086  221.3104 H   0  0  0  0  0  0  0  0  0  0  0  0
  137.7394   69.7154  219.7027 H   0  0  0  0  0  0  0  0  0  0  0  0
  136.5841   69.5966  221.0570 H   0  0  0  0  0  0  0  0  0  0  0  0
  135.6985   68.7452  218.8174 H   0  0  0  0  0  0  0  0  0  0  0  0
  134.6934   70.0166  219.5667 H   0  0  0  0  0  0  0  0  0  0  0  0
  135.2090   70.3240  217.2040 H   0  0  0  0  0  0  0  0  0  0  0  0
  136.1845   72.6577  217.5356 H   0  0  0  0  0  0  0  0  0  0  0  0
  134.5135   72.1903  218.0798 H   0  0  0  0  0  0  0  0  0  0  0  0
  136.3732   73.4282  219.6330 H   0  0  0  0  0  0  0  0  0  0  0  0
  134.9961   72.3824  220.2203 H   0  0  0  0  0  0  0  0  0  0  0  0
  141.6984   71.3992  224.7029 H   0  0  0  0  0  0  0  0  0  0  0  0
  140.6885   72.8966  224.8695 H   0  0  0  0  0  0  0  0  0  0  0  0
  141.3780   71.9075  227.0724 H   0  0  0  0  0  0  0  0  0  0  0  0
  139.6205   72.0125  226.8766 H   0  0  0  0  0  0  0  0  0  0  0  0
  141.6244   70.0072  228.4177 H   0  0  0  0  0  0  0  0  0  0  0  0
  141.4891   67.5187  228.6378 H   0  0  0  0  0  0  0  0  0  0  0  0
  140.2177   66.2253  226.9290 H   0  0  0  0  0  0  0  0  0  0  0  0
  139.1112   67.3751  225.0540 H   0  0  0  0  0  0  0  0  0  0  0  0
  139.1119   69.2803  223.6440 H   0  0  0  0  0  0  0  0  0  0  0  0
  137.9878   70.1166  224.7599 H   0  0  0  0  0  0  0  0  0  0  0  0
  142.0050   74.4569  220.7137 H   0  0  0  0  0  0  0  0  0  0  0  0
  140.7599   74.6778  219.3942 H   0  0  0  0  0  0  0  0  0  0  0  0
  142.6504   76.3585  219.6114 H   0  0  0  0  0  0  0  0  0  0  0  0
  140.8983   76.9108  219.4385 H   0  0  0  0  0  0  0  0  0  0  0  0
  139.9760   80.7794  221.4329 H   0  0  0  0  0  0  0  0  0  0  0  0
  140.3416   82.4405  223.2298 H   0  0  0  0  0  0  0  0  0  0  0  0
  1  2  2  0
  2  3  1  0
  3  4  2  0
  4  5  1  0
  5  6  1  0
  6  7  1  0
  7  8  1  0
  8  9  1  0
  9 10  1  0
 10 11  2  0
 11 12  1  0
 12 13  1  0
 13 14  1  0
 14 15  1  0
 15 16  1  0
 16 17  1  0
 17 18  1  0
 12 19  2  0
 19 20  1  0
 20 21  1  0
 21 22  1  0
 22 23  1  0
 23 24  1  0
 24 25  2  0
 25 26  1  0
 26 27  2  0
 27 28  1  0
 28 29  2  0
 29 30  1  0
 20 31  2  0
  9 32  1  0
 32 33  1  0
  4 34  1  0
 34 35  2  0
 35  1  1  0
 33  6  1  0
 31 10  1  0
 18 13  1  0
 30 21  1  0
 29 24  1  0
  1 36  1  0
  2 37  1  0
  3 38  1  0
  5 39  1  0
  5 40  1  0
  7 41  1  0
  7 42  1  0
  8 43  1  0
  8 44  1  0
 14 45  1  0
 14 46  1  0
 15 47  1  0
 15 48  1  0
 16 49  1  0
 17 50  1  0
 17 51  1  0
 18 52  1  0
 18 53  1  0
 22 54  1  0
 22 55  1  0
 23 56  1  0
 23 57  1  0
 25 58  1  0
 26 59  1  0
 27 60  1  0
 28 61  1  0
 30 62  1  0
 30 63  1  0
 32 64  1  0
 32 65  1  0
 33 66  1  0
 33 67  1  0
 34 68  1  0
 35 69  1  0
M  END
>  <smiles>  (15) 
c1ccc(CN2CCN(c3nc(N4CCNCC4)nc(N4CCc5ccccc5C4)n3)CC2)cc1

>  <score_type>  (15) 
oracle

>  <origin>  (15) 
autodockgpu

>  <m_score__min__energy>  (15) 
-9.8499999999999996

>  <m_primary>  (15) 
energy

>  <rmsd>  (15) 
3.235533319784287

>  <m_score__min__rmsd>  (15) 
3.235533319784287

>  <meeko>  (15) 
{"free_energy": -8.81, "intermolecular_energy": -10.3, "internal_energy": -1.13, "cluster_size": 6, "cluster_id": 2, "rank_in_cluster": 3}

>  <energy>  (15) 
-9.36

>  <cluster_rmsd>  (15) 
1.17

>  <cluster>  (15) 
1

$$$$

     RDKit          3D

 69 74  0  0  0  0  0  0  0  0999 V2000
  141.1480   68.2940  228.1960 C   0  0  0  0  0  0  0  0  0  0  0  0
  140.1740   69.2320  228.4670 C   0  0  0  0  0  0  0  0  0  0  0  0
  139.2760   69.5780  227.4800 C   0  0  0  0  0  0  0  0  0  0  0  0
  139.3000   69.0250  226.2110 C   0  0  0  0  0  0  0  0  0  0  0  0
  138.2970   69.4600  225.2390 C   0  0  0  0  0  0  0  0  0  0  0  0
  138.4590   70.7790  224.7270 N   0  0  0  0  0  0  0  0  0  0  0  0
  139.7000   71.4150  224.9970 C   0  0  0  0  0  0  0  0  0  0  0  0
  140.6560   71.2040  223.8400 C   0  0  0  0  0  0  0  0  0  0  0  0
  140.0960   71.9460  222.7220 N   0  0  0  0  0  0  0  0  0  0  0  0
  140.8750   72.7910  221.8880 C   0  0  0  0  0  0  0  0  0  0  0  0
  141.7760   72.3350  221.0060 N   0  0  0  0  0  0  0  0  0  0  0  0
  142.5060   73.1770  220.2240 C   0  0  0  0  0  0  0  0  0  0  0  0
  143.4650   72.6890  219.2860 N   0  0  0  0  0  0  0  0  0  0  0  0
  144.4160   71.6880  219.7060 C   0  0  0  0  0  0  0  0  0  0  0  0
  145.3540   71.4260  218.5480 C   0  0  0  0  0  0  0  0  0  0  0  0
  145.8480   72.7030  218.0750 N   0  0  0  0  0  0  0  0  0  0  0  0
  144.8280   73.4580  217.3830 C   0  0  0  0  0  0  0  0  0  0  0  0
  143.4490   73.2160  217.9490 C   0  0  0  0  0  0  0  0  0  0  0  0
  142.2980   74.5190  220.3570 N   0  0  0  0  0  0  0  0  0  0  0  0
  141.4030   75.0120  221.2300 C   0  0  0  0  0  0  0  0  0  0  0  0
  141.1720   76.4210  221.3830 N   0  0  0  0  0  0  0  0  0  0  0  0
  141.0330   77.2370  220.1970 C   0  0  0  0  0  0  0  0  0  0  0  0
  140.0460   78.3680  220.4050 C   0  0  0  0  0  0  0  0  0  0  0  0
  140.5320   79.1250  221.6130 C   0  0  0  0  0  0  0  0  0  0  0  0
  140.4730   80.5010  221.6020 C   0  0  0  0  0  0  0  0  0  0  0  0
  140.9170   81.2040  222.7080 C   0  0  0  0  0  0  0  0  0  0  0  0
  141.4080   80.4930  223.7940 C   0  0  0  0  0  0  0  0  0  0  0  0
  141.4540   79.1150  223.7720 C   0  0  0  0  0  0  0  0  0  0  0  0
  141.0150   78.4020  222.6770 C   0  0  0  0  0  0  0  0  0  0  0  0
  141.0960   76.9340  222.7320 C   0  0  0  0  0  0  0  0  0  0  0  0
  140.7200   74.1240  221.9680 N   0  0  0  0  0  0  0  0  0  0  0  0
  138.6810   71.7940  222.4790 C   0  0  0  0  0  0  0  0  0  0  0  0
  138.0320   70.7840  223.3540 C   0  0  0  0  0  0  0  0  0  0  0  0
  140.2850   68.0900  225.9700 C   0  0  0  0  0  0  0  0  0  0  0  0
  141.2040   67.7220  226.9470 C   0  0  0  0  0  0  0  0  0  0  0  0
  141.8730   68.0063  228.9716 H   0  0  0  0  0  0  0  0  0  0  0  0
  140.1143   69.6995  229.4609 H   0  0  0  0  0  0  0  0  0  0  0  0
  138.5051   70.3278  227.7112 H   0  0  0  0  0  0  0  0  0  0  0  0
  138.3264   68.7624  224.3890 H   0  0  0  0  0  0  0  0  0  0  0  0
  137.3398   69.4662  225.7810 H   0  0  0  0  0  0  0  0  0  0  0  0
  139.5331   72.4929  225.1391 H   0  0  0  0  0  0  0  0  0  0  0  0
  140.1364   70.9805  225.9084 H   0  0  0  0  0  0  0  0  0  0  0  0
  141.6547   71.5892  224.0934 H   0  0  0  0  0  0  0  0  0  0  0  0
  140.7713   70.1367  223.6000 H   0  0  0  0  0  0  0  0  0  0  0  0
  144.9853   72.0534  220.5734 H   0  0  0  0  0  0  0  0  0  0  0  0
  143.8967   70.7628  219.9966 H   0  0  0  0  0  0  0  0  0  0  0  0
  146.1951   70.8011  218.8828 H   0  0  0  0  0  0  0  0  0  0  0  0
  144.8263   70.8973  217.7405 H   0  0  0  0  0  0  0  0  0  0  0  0
  146.6200   72.5120  217.3910 H   0  0  0  0  0  0  0  0  0  0  0  0
  145.0621   74.5294  217.4689 H   0  0  0  0  0  0  0  0  0  0  0  0
  144.8220   73.1297  216.3332 H   0  0  0  0  0  0  0  0  0  0  0  0
  142.9030   74.1709  217.9571 H   0  0  0  0  0  0  0  0  0  0  0  0
  142.9629   72.4644  217.3096 H   0  0  0  0  0  0  0  0  0  0  0  0
  142.0142   77.6632  219.9410 H   0  0  0  0  0  0  0  0  0  0  0  0
  140.6554   76.5985  219.3848 H   0  0  0  0  0  0  0  0  0  0  0  0
  140.0270   79.0259  219.5236 H   0  0  0  0  0  0  0  0  0  0  0  0
  139.0236   77.9893  220.5508 H   0  0  0  0  0  0  0  0  0  0  0  0
  140.0778   81.0344  220.7249 H   0  0  0  0  0  0  0  0  0  0  0  0
  140.8816   82.3033  222.7261 H   0  0  0  0  0  0  0  0  0  0  0  0
  141.7645   81.0348  224.6824 H   0  0  0  0  0  0  0  0  0  0  0  0
  141.8485   78.5744  224.6450 H   0  0  0  0  0  0  0  0  0  0  0  0
  141.9935   76.6340  223.2928 H   0  0  0  0  0  0  0  0  0  0  0  0
  140.2062   76.5292  223.2363 H   0  0  0  0  0  0  0  0  0  0  0  0
  138.1929   72.7652  222.6478 H   0  0  0  0  0  0  0  0  0  0  0  0
  138.5677   71.4431  221.4426 H   0  0  0  0  0  0  0  0  0  0  0  0
  136.9480   70.9705  223.3383 H   0  0  0  0  0  0  0  0  0  0  0  0
  138.3233   69.8045  222.9469 H   0  0  0  0  0  0  0  0  0  0  0  0
  140.3455   67.6219  224.9764 H   0  0  0  0  0  0  0  0  0  0  0  0
  141.9765   66.9725  226.7202 H   0  0  0  0  0  0  0  0  0  0  0  0
  1  2  2  0
  2  3  1  0
  3  4  2  0
  4  5  1  0
  5  6  1  0
  6  7  1  0
  7  8  1  0
  8  9  1  0
  9 10  1  0
 10 11  2  0
 11 12  1  0
 12 13  1  0
 13 14  1  0
 14 15  1  0
 15 16  1  0
 16 17  1  0
 17 18  1  0
 12 19  2  0
 19 20  1  0
 20 21  1  0
 21 22  1  0
 22 23  1  0
 23 24  1  0
 24 25  2  0
 25 26  1  0
 26 27  2  0
 27 28  1  0
 28 29  2  0
 29 30  1  0
 20 31  2  0
  9 32  1  0
 32 33  1  0
  4 34  1  0
 34 35  2  0
 35  1  1  0
 33  6  1  0
 31 10  1  0
 18 13  1  0
 30 21  1  0
 29 24  1  0
  1 36  1  0
  2 37  1  0
  3 38  1  0
  5 39  1  0
  5 40  1  0
  7 41  1  0
  7 42  1  0
  8 43  1  0
  8 44  1  0
 14 45  1  0
 14 46  1  0
 15 47  1  0
 15 48  1  0
 16 49  1  0
 17 50  1  0
 17 51  1  0
 18 52  1  0
 18 53  1  0
 22 54  1  0
 22 55  1  0
 23 56  1  0
 23 57  1  0
 25 58  1  0
 26 59  1  0
 27 60  1  0
 28 61  1  0
 30 62  1  0
 30 63  1  0
 32 64  1  0
 32 65  1  0
 33 66  1  0
 33 67  1  0
 34 68  1  0
 35 69  1  0
M  END
>  <smiles>  (16) 
c1ccc(CN2CCN(c3nc(N4CCNCC4)nc(N4CCc5ccccc5C4)n3)CC2)cc1

>  <score_type>  (16) 
oracle

>  <origin>  (16) 
autodockgpu

>  <m_score__min__energy>  (16) 
-9.8499999999999996

>  <m_primary>  (16) 
energy

>  <rmsd>  (16) 
11.104478503807698

>  <m_score__min__rmsd>  (16) 
11.104478503807698

>  <meeko>  (16) 
{"free_energy": -9.37, "intermolecular_energy": -10.86, "internal_energy": -1.14, "cluster_size": 43, "cluster_id": 1, "rank_in_cluster": 13}

>  <energy>  (16) 
-9.3

>  <cluster_rmsd>  (16) 
0.75

>  <cluster>  (16) 
1

$$$$

     RDKit          3D

 69 74  0  0  0  0  0  0  0  0999 V2000
  141.1290   68.7380  227.5760 C   0  0  0  0  0  0  0  0  0  0  0  0
  141.1060   67.7860  226.5790 C   0  0  0  0  0  0  0  0  0  0  0  0
  140.0610   67.7720  225.6810 C   0  0  0  0  0  0  0  0  0  0  0  0
  139.0150   68.6790  225.7260 C   0  0  0  0  0  0  0  0  0  0  0  0
  137.9580   68.5790  224.7220 C   0  0  0  0  0  0  0  0  0  0  0  0
  137.9560   69.5900  223.7180 N   0  0  0  0  0  0  0  0  0  0  0  0
  138.0610   70.9310  224.1710 C   0  0  0  0  0  0  0  0  0  0  0  0
  139.5100   71.3760  224.1500 C   0  0  0  0  0  0  0  0  0  0  0  0
  139.8890   71.4290  222.7480 N   0  0  0  0  0  0  0  0  0  0  0  0
  140.6030   72.5190  222.1820 C   0  0  0  0  0  0  0  0  0  0  0  0
  141.7370   72.3770  221.4810 N   0  0  0  0  0  0  0  0  0  0  0  0
  142.3950   73.4450  220.9540 C   0  0  0  0  0  0  0  0  0  0  0  0
  143.6040   73.2910  220.2090 N   0  0  0  0  0  0  0  0  0  0  0  0
  143.6780   72.2740  219.1890 C   0  0  0  0  0  0  0  0  0  0  0  0
  145.0850   72.2790  218.6320 C   0  0  0  0  0  0  0  0  0  0  0  0
  146.0080   72.2180  219.7470 N   0  0  0  0  0  0  0  0  0  0  0  0
  146.0460   73.4570  220.4910 C   0  0  0  0  0  0  0  0  0  0  0  0
  144.7090   74.1600  220.5060 C   0  0  0  0  0  0  0  0  0  0  0  0
  141.8660   74.6870  221.1540 N   0  0  0  0  0  0  0  0  0  0  0  0
  140.7310   74.8670  221.8500 C   0  0  0  0  0  0  0  0  0  0  0  0
  140.1610   76.1680  222.0710 N   0  0  0  0  0  0  0  0  0  0  0  0
  138.8020   76.4130  221.6450 C   0  0  0  0  0  0  0  0  0  0  0  0
  138.0830   77.3660  222.5790 C   0  0  0  0  0  0  0  0  0  0  0  0
  138.9350   78.6050  222.6440 C   0  0  0  0  0  0  0  0  0  0  0  0
  138.3190   79.8370  222.6400 C   0  0  0  0  0  0  0  0  0  0  0  0
  139.0960   80.9800  222.6990 C   0  0  0  0  0  0  0  0  0  0  0  0
  140.4750   80.8440  222.7620 C   0  0  0  0  0  0  0  0  0  0  0  0
  141.0610   79.5960  222.7640 C   0  0  0  0  0  0  0  0  0  0  0  0
  140.3000   78.4480  222.7040 C   0  0  0  0  0  0  0  0  0  0  0  0
  141.0000   77.1540  222.7120 C   0  0  0  0  0  0  0  0  0  0  0  0
  140.1380   73.7690  222.3410 N   0  0  0  0  0  0  0  0  0  0  0  0
  139.5040   70.3090  221.9230 C   0  0  0  0  0  0  0  0  0  0  0  0
  138.8750   69.1980  222.6840 C   0  0  0  0  0  0  0  0  0  0  0  0
  139.0660   69.6200  226.7340 C   0  0  0  0  0  0  0  0  0  0  0  0
  140.1090   69.6560  227.6540 C   0  0  0  0  0  0  0  0  0  0  0  0
  141.9553   68.7626  228.3017 H   0  0  0  0  0  0  0  0  0  0  0  0
  141.9146   67.0443  226.5011 H   0  0  0  0  0  0  0  0  0  0  0  0
  140.0572   67.0054  224.8922 H   0  0  0  0  0  0  0  0  0  0  0  0
  138.0609   67.6056  224.2200 H   0  0  0  0  0  0  0  0  0  0  0  0
  137.0130   68.7029  225.2712 H   0  0  0  0  0  0  0  0  0  0  0  0
  137.4701   71.5847  223.5127 H   0  0  0  0  0  0  0  0  0  0  0  0
  137.6799   70.9940  225.2010 H   0  0  0  0  0  0  0  0  0  0  0  0
  139.6122   72.3690  224.6120 H   0  0  0  0  0  0  0  0  0  0  0  0
  140.1529   70.6866  224.7168 H   0  0  0  0  0  0  0  0  0  0  0  0
  143.4516   71.2897  219.6248 H   0  0  0  0  0  0  0  0  0  0  0  0
  142.9482   72.4762  218.3912 H   0  0  0  0  0  0  0  0  0  0  0  0
  145.2309   71.4063  217.9784 H   0  0  0  0  0  0  0  0  0  0  0  0
  145.2590   73.1905  218.0413 H   0  0  0  0  0  0  0  0  0  0  0  0
  146.9670   72.0520  219.3570 H   0  0  0  0  0  0  0  0  0  0  0  0
  146.3417   73.2378  221.5276 H   0  0  0  0  0  0  0  0  0  0  0  0
  146.7698   74.1226  219.9980 H   0  0  0  0  0  0  0  0  0  0  0  0
  144.5536   74.5925  221.5054 H   0  0  0  0  0  0  0  0  0  0  0  0
  144.7377   74.9291  219.7200 H   0  0  0  0  0  0  0  0  0  0  0  0
  138.8184   76.8487  220.6351 H   0  0  0  0  0  0  0  0  0  0  0  0
  138.2628   75.4542  221.6530 H   0  0  0  0  0  0  0  0  0  0  0  0
  137.0854   77.6084  222.1839 H   0  0  0  0  0  0  0  0  0  0  0  0
  137.9402   76.9225  223.5754 H   0  0  0  0  0  0  0  0  0  0  0  0
  137.2226   79.9111  222.5905 H   0  0  0  0  0  0  0  0  0  0  0  0
  138.6298   81.9763  222.6960 H   0  0  0  0  0  0  0  0  0  0  0  0
  141.1083   81.7421  222.8109 H   0  0  0  0  0  0  0  0  0  0  0  0
  142.1568   79.5147  222.8145 H   0  0  0  0  0  0  0  0  0  0  0  0
  141.9497   77.2438  222.1644 H   0  0  0  0  0  0  0  0  0  0  0  0
  141.2112   76.8492  223.7476 H   0  0  0  0  0  0  0  0  0  0  0  0
  138.7866   70.6634  221.1682 H   0  0  0  0  0  0  0  0  0  0  0  0
  140.4240   69.9100  221.4709 H   0  0  0  0  0  0  0  0  0  0  0  0
  138.3286   68.5657  221.9687 H   0  0  0  0  0  0  0  0  0  0  0  0
  139.7001   68.6824  223.1971 H   0  0  0  0  0  0  0  0  0  0  0  0
  138.2587   70.3631  226.8124 H   0  0  0  0  0  0  0  0  0  0  0  0
  140.1174   70.4203  228.4451 H   0  0  0  0  0  0  0  0  0  0  0  0
  1  2  2  0
  2  3  1  0
  3  4  2  0
  4  5  1  0
  5  6  1  0
  6  7  1  0
  7  8  1  0
  8  9  1  0
  9 10  1  0
 10 11  2  0
 11 12  1  0
 12 13  1  0
 13 14  1  0
 14 15  1  0
 15 16  1  0
 16 17  1  0
 17 18  1  0
 12 19  2  0
 19 20  1  0
 20 21  1  0
 21 22  1  0
 22 23  1  0
 23 24  1  0
 24 25  2  0
 25 26  1  0
 26 27  2  0
 27 28  1  0
 28 29  2  0
 29 30  1  0
 20 31  2  0
  9 32  1  0
 32 33  1  0
  4 34  1  0
 34 35  2  0
 35  1  1  0
 33  6  1  0
 31 10  1  0
 18 13  1  0
 30 21  1  0
 29 24  1  0
  1 36  1  0
  2 37  1  0
  3 38  1  0
  5 39  1  0
  5 40  1  0
  7 41  1  0
  7 42  1  0
  8 43  1  0
  8 44  1  0
 14 45  1  0
 14 46  1  0
 15 47  1  0
 15 48  1  0
 16 49  1  0
 17 50  1  0
 17 51  1  0
 18 52  1  0
 18 53  1  0
 22 54  1  0
 22 55  1  0
 23 56  1  0
 23 57  1  0
 25 58  1  0
 26 59  1  0
 27 60  1  0
 28 61  1  0
 30 62  1  0
 30 63  1  0
 32 64  1  0
 32 65  1  0
 33 66  1  0
 33 67  1  0
 34 68  1  0
 35 69  1  0
M  END
>  <smiles>  (17) 
c1ccc(CN2CCN(c3nc(N4CCNCC4)nc(N4CCc5ccccc5C4)n3)CC2)cc1

>  <score_type>  (17) 
oracle

>  <origin>  (17) 
autodockgpu

>  <m_score__min__energy>  (17) 
-9.8499999999999996

>  <m_primary>  (17) 
energy

>  <rmsd>  (17) 
11.153636834219737

>  <m_score__min__rmsd>  (17) 
11.153636834219737

>  <meeko>  (17) 
{"free_energy": -9.23, "intermolecular_energy": -10.72, "internal_energy": -1.12, "cluster_size": 43, "cluster_id": 1, "rank_in_cluster": 22}

>  <energy>  (17) 
-9.26

>  <cluster_rmsd>  (17) 
0.54

>  <cluster>  (17) 
1

$$$$

     RDKit          3D

 69 74  0  0  0  0  0  0  0  0999 V2000
  142.2640   81.5890  224.0720 C   0  0  0  0  0  0  0  0  0  0  0  0
  141.1710   81.6310  223.2320 C   0  0  0  0  0  0  0  0  0  0  0  0
  141.0770   80.7220  222.2000 C   0  0  0  0  0  0  0  0  0  0  0  0
  142.0370   79.7540  221.9570 C   0  0  0  0  0  0  0  0  0  0  0  0
  141.8380   78.8360  220.8370 C   0  0  0  0  0  0  0  0  0  0  0  0
  140.6970   77.9870  220.9250 N   0  0  0  0  0  0  0  0  0  0  0  0
  140.4840   77.0980  219.8390 C   0  0  0  0  0  0  0  0  0  0  0  0
  141.1010   75.7480  220.1430 C   0  0  0  0  0  0  0  0  0  0  0  0
  140.3200   75.1910  221.2350 N   0  0  0  0  0  0  0  0  0  0  0  0
  139.8570   73.8480  221.2470 C   0  0  0  0  0  0  0  0  0  0  0  0
  139.3220   73.2400  220.1780 N   0  0  0  0  0  0  0  0  0  0  0  0
  138.8880   71.9510  220.2280 C   0  0  0  0  0  0  0  0  0  0  0  0
  138.3180   71.3050  219.0880 N   0  0  0  0  0  0  0  0  0  0  0  0
  137.2380   71.9490  218.3810 C   0  0  0  0  0  0  0  0  0  0  0  0
  136.7780   71.0100  217.2870 C   0  0  0  0  0  0  0  0  0  0  0  0
  136.5460   69.7100  217.8800 N   0  0  0  0  0  0  0  0  0  0  0  0
  137.7800   69.0520  218.2490 C   0  0  0  0  0  0  0  0  0  0  0  0
  138.8450   70.0300  218.6860 C   0  0  0  0  0  0  0  0  0  0  0  0
  139.0110   71.2770  221.4080 N   0  0  0  0  0  0  0  0  0  0  0  0
  139.5420   71.8540  222.4980 C   0  0  0  0  0  0  0  0  0  0  0  0
  139.6790   71.1590  223.7490 N   0  0  0  0  0  0  0  0  0  0  0  0
  138.7840   70.0590  224.0340 C   0  0  0  0  0  0  0  0  0  0  0  0
  139.4680   68.9730  224.8390 C   0  0  0  0  0  0  0  0  0  0  0  0
  140.0160   69.6490  226.0680 C   0  0  0  0  0  0  0  0  0  0  0  0
  139.9210   69.0030  227.2810 C   0  0  0  0  0  0  0  0  0  0  0  0
  140.4220   69.6190  228.4140 C   0  0  0  0  0  0  0  0  0  0  0  0
  141.0070   70.8710  228.2870 C   0  0  0  0  0  0  0  0  0  0  0  0
  141.0870   71.4900  227.0580 C   0  0  0  0  0  0  0  0  0  0  0  0
  140.5910   70.8900  225.9200 C   0  0  0  0  0  0  0  0  0  0  0  0
  140.7140   71.6150  224.6470 C   0  0  0  0  0  0  0  0  0  0  0  0
  139.9480   73.1260  222.3770 N   0  0  0  0  0  0  0  0  0  0  0  0
  140.0180   76.0700  222.3390 C   0  0  0  0  0  0  0  0  0  0  0  0
  140.6740   77.3990  222.2370 C   0  0  0  0  0  0  0  0  0  0  0  0
  143.1180   79.7370  222.8140 C   0  0  0  0  0  0  0  0  0  0  0  0
  143.2380   80.6420  223.8640 C   0  0  0  0  0  0  0  0  0  0  0  0
  142.3553   82.3067  224.9006 H   0  0  0  0  0  0  0  0  0  0  0  0
  140.3821   82.3824  223.3840 H   0  0  0  0  0  0  0  0  0  0  0  0
  140.1989   80.7676  221.5390 H   0  0  0  0  0  0  0  0  0  0  0  0
  141.7411   79.4374  219.9211 H   0  0  0  0  0  0  0  0  0  0  0  0
  142.7099   78.1654  220.8425 H   0  0  0  0  0  0  0  0  0  0  0  0
  139.4031   76.9756  219.6756 H   0  0  0  0  0  0  0  0  0  0  0  0
  140.9542   77.5137  218.9356 H   0  0  0  0  0  0  0  0  0  0  0  0
  141.0454   75.0942  219.2602 H   0  0  0  0  0  0  0  0  0  0  0  0
  142.1636   75.8405  220.4120 H   0  0  0  0  0  0  0  0  0  0  0  0
  136.4074   72.1538  219.0724 H   0  0  0  0  0  0  0  0  0  0  0  0
  137.5747   72.9042  217.9518 H   0  0  0  0  0  0  0  0  0  0  0  0
  135.8470   71.3871  216.8387 H   0  0  0  0  0  0  0  0  0  0  0  0
  137.5420   70.9391  216.4988 H   0  0  0  0  0  0  0  0  0  0  0  0
  136.0710   69.1120  217.1620 H   0  0  0  0  0  0  0  0  0  0  0  0
  137.5763   68.3578  219.0776 H   0  0  0  0  0  0  0  0  0  0  0  0
  138.1556   68.5210  217.3619 H   0  0  0  0  0  0  0  0  0  0  0  0
  139.3908   69.5945  219.5360 H   0  0  0  0  0  0  0  0  0  0  0  0
  139.4987   70.2073  217.8193 H   0  0  0  0  0  0  0  0  0  0  0  0
  137.9241   70.4382  224.6056 H   0  0  0  0  0  0  0  0  0  0  0  0
  138.4607   69.6237  223.0769 H   0  0  0  0  0  0  0  0  0  0  0  0
  138.7446   68.1941  225.1219 H   0  0  0  0  0  0  0  0  0  0  0  0
  140.2648   68.4837  224.2596 H   0  0  0  0  0  0  0  0  0  0  0  0
  139.4527   68.0099  227.3479 H   0  0  0  0  0  0  0  0  0  0  0  0
  140.3579   69.1264  229.3955 H   0  0  0  0  0  0  0  0  0  0  0  0
  141.4114   71.3751  229.1771 H   0  0  0  0  0  0  0  0  0  0  0  0
  141.5558   72.4823  226.9837 H   0  0  0  0  0  0  0  0  0  0  0  0
  140.6003   72.6947  224.8241 H   0  0  0  0  0  0  0  0  0  0  0  0
  141.7029   71.4261  224.2037 H   0  0  0  0  0  0  0  0  0  0  0  0
  138.9291   76.2214  222.3753 H   0  0  0  0  0  0  0  0  0  0  0  0
  140.4037   75.5886  223.2498 H   0  0  0  0  0  0  0  0  0  0  0  0
  140.1420   78.0902  222.9072 H   0  0  0  0  0  0  0  0  0  0  0  0
  141.7271   77.2337  222.5086 H   0  0  0  0  0  0  0  0  0  0  0  0
  143.9078   78.9864  222.6628 H   0  0  0  0  0  0  0  0  0  0  0  0
  144.1136   80.5994  224.5285 H   0  0  0  0  0  0  0  0  0  0  0  0
  1  2  2  0
  2  3  1  0
  3  4  2  0
  4  5  1  0
  5  6  1  0
  6  7  1  0
  7  8  1  0
  8  9  1  0
  9 10  1  0
 10 11  2  0
 11 12  1  0
 12 13  1  0
 13 14  1  0
 14 15  1  0
 15 16  1  0
 16 17  1  0
 17 18  1  0
 12 19  2  0
 19 20  1  0
 20 21  1  0
 21 22  1  0
 22 23  1  0
 23 24  1  0
 24 25  2  0
 25 26  1  0
 26 27  2  0
 27 28  1  0
 28 29  2  0
 29 30  1  0
 20 31  2  0
  9 32  1  0
 32 33  1  0
  4 34  1  0
 34 35  2  0
 35  1  1  0
 33  6  1  0
 31 10  1  0
 18 13  1  0
 30 21  1  0
 29 24  1  0
  1 36  1  0
  2 37  1  0
  3 38  1  0
  5 39  1  0
  5 40  1  0
  7 41  1  0
  7 42  1  0
  8 43  1  0
  8 44  1  0
 14 45  1  0
 14 46  1  0
 15 47  1  0
 15 48  1  0
 16 49  1  0
 17 50  1  0
 17 51  1  0
 18 52  1  0
 18 53  1  0
 22 54  1  0
 22 55  1  0
 23 56  1  0
 23 57  1  0
 25 58  1  0
 26 59  1  0
 27 60  1  0
 28 61  1  0
 30 62  1  0
 30 63  1  0
 32 64  1  0
 32 65  1  0
 33 66  1  0
 33 67  1  0
 34 68  1  0
 35 69  1  0
M  END
>  <smiles>  (18) 
c1ccc(CN2CCN(c3nc(N4CCNCC4)nc(N4CCc5ccccc5C4)n3)CC2)cc1

>  <score_type>  (18) 
oracle

>  <origin>  (18) 
autodockgpu

>  <m_score__min__energy>  (18) 
-9.8499999999999996

>  <m_primary>  (18) 
energy

>  <rmsd>  (18) 
3.8075589068465248

>  <m_score__min__rmsd>  (18) 
3.8075589068465248

>  <meeko>  (18) 
{"free_energy": -8.84, "intermolecular_energy": -10.33, "internal_energy": -1.15, "cluster_size": 6, "cluster_id": 2, "rank_in_cluster": 2}

>  <energy>  (18) 
-9.26

>  <cluster_rmsd>  (18) 
1.47

>  <cluster>  (18) 
1

$$$$

     RDKit          3D

 69 74  0  0  0  0  0  0  0  0999 V2000
  141.0470   68.4060  228.4490 C   0  0  0  0  0  0  0  0  0  0  0  0
  139.9150   69.1930  228.4380 C   0  0  0  0  0  0  0  0  0  0  0  0
  139.1880   69.3130  227.2740 C   0  0  0  0  0  0  0  0  0  0  0  0
  139.5380   68.6760  226.0950 C   0  0  0  0  0  0  0  0  0  0  0  0
  138.6930   68.8690  224.9170 C   0  0  0  0  0  0  0  0  0  0  0  0
  138.5610   70.2120  224.4600 N   0  0  0  0  0  0  0  0  0  0  0  0
  139.5130   71.1440  224.9510 C   0  0  0  0  0  0  0  0  0  0  0  0
  140.6650   71.2750  223.9750 C   0  0  0  0  0  0  0  0  0  0  0  0
  140.1110   71.9030  222.7880 N   0  0  0  0  0  0  0  0  0  0  0  0
  140.7480   72.9790  222.1150 C   0  0  0  0  0  0  0  0  0  0  0  0
  141.7780   72.8200  221.2710 N   0  0  0  0  0  0  0  0  0  0  0  0
  142.3640   73.8770  220.6450 C   0  0  0  0  0  0  0  0  0  0  0  0
  143.4620   73.7040  219.7480 N   0  0  0  0  0  0  0  0  0  0  0  0
  143.2270   73.1130  218.4530 C   0  0  0  0  0  0  0  0  0  0  0  0
  144.5640   72.9730  217.7590 C   0  0  0  0  0  0  0  0  0  0  0  0
  145.4760   72.3150  218.6720 N   0  0  0  0  0  0  0  0  0  0  0  0
  145.8680   73.1770  219.7650 C   0  0  0  0  0  0  0  0  0  0  0  0
  144.7680   74.1290  220.1710 C   0  0  0  0  0  0  0  0  0  0  0  0
  141.8730   75.1250  220.8960 N   0  0  0  0  0  0  0  0  0  0  0  0
  140.8420   75.3220  221.7350 C   0  0  0  0  0  0  0  0  0  0  0  0
  140.3140   76.6300  222.0110 N   0  0  0  0  0  0  0  0  0  0  0  0
  138.9930   76.9630  221.5260 C   0  0  0  0  0  0  0  0  0  0  0  0
  138.2590   77.8830  222.4800 C   0  0  0  0  0  0  0  0  0  0  0  0
  139.1560   79.0770  222.6780 C   0  0  0  0  0  0  0  0  0  0  0  0
  138.5910   80.3320  222.7230 C   0  0  0  0  0  0  0  0  0  0  0  0
  139.4090   81.4330  222.9050 C   0  0  0  0  0  0  0  0  0  0  0  0
  140.7760   81.2320  223.0370 C   0  0  0  0  0  0  0  0  0  0  0  0
  141.3090   79.9610  222.9870 C   0  0  0  0  0  0  0  0  0  0  0  0
  140.5070   78.8550  222.8060 C   0  0  0  0  0  0  0  0  0  0  0  0
  141.1520   77.5340  222.7650 C   0  0  0  0  0  0  0  0  0  0  0  0
  140.3150   74.2350  222.3170 N   0  0  0  0  0  0  0  0  0  0  0  0
  138.8550   71.3860  222.2990 C   0  0  0  0  0  0  0  0  0  0  0  0
  138.3800   70.1850  223.0330 C   0  0  0  0  0  0  0  0  0  0  0  0
  140.6740   67.8960  226.1370 C   0  0  0  0  0  0  0  0  0  0  0  0
  141.4280   67.7560  227.2990 C   0  0  0  0  0  0  0  0  0  0  0  0
  141.6398   68.2992  229.3694 H   0  0  0  0  0  0  0  0  0  0  0  0
  139.5956   69.7197  229.3494 H   0  0  0  0  0  0  0  0  0  0  0  0
  138.2873   69.9444  227.2813 H   0  0  0  0  0  0  0  0  0  0  0  0
  139.1184   68.2736  224.0957 H   0  0  0  0  0  0  0  0  0  0  0  0
  137.6828   68.5569  225.2205 H   0  0  0  0  0  0  0  0  0  0  0  0
  139.0304   72.1243  225.0779 H   0  0  0  0  0  0  0  0  0  0  0  0
  139.8990   70.7888  225.9179 H   0  0  0  0  0  0  0  0  0  0  0  0
  141.4605   71.9021  224.4039 H   0  0  0  0  0  0  0  0  0  0  0  0
  141.1117   70.2968  223.7435 H   0  0  0  0  0  0  0  0  0  0  0  0
  142.7618   72.1233  218.5722 H   0  0  0  0  0  0  0  0  0  0  0  0
  142.5503   73.7451  217.8593 H   0  0  0  0  0  0  0  0  0  0  0  0
  144.4494   72.3696  216.8464 H   0  0  0  0  0  0  0  0  0  0  0  0
  144.9534   73.9624  217.4770 H   0  0  0  0  0  0  0  0  0  0  0  0
  146.3430   72.0700  218.1350 H   0  0  0  0  0  0  0  0  0  0  0  0
  146.1314   72.5518  220.6309 H   0  0  0  0  0  0  0  0  0  0  0  0
  146.7243   73.7789  219.4267 H   0  0  0  0  0  0  0  0  0  0  0  0
  144.7686   74.2155  221.2676 H   0  0  0  0  0  0  0  0  0  0  0  0
  144.9723   75.0911  219.6785 H   0  0  0  0  0  0  0  0  0  0  0  0
  139.0873   77.4631  220.5508 H   0  0  0  0  0  0  0  0  0  0  0  0
  138.4159   76.0307  221.4380 H   0  0  0  0  0  0  0  0  0  0  0  0
  137.2975   78.1950  222.0463 H   0  0  0  0  0  0  0  0  0  0  0  0
  138.0390   77.3817  223.4341 H   0  0  0  0  0  0  0  0  0  0  0  0
  137.5035   80.4576  222.6157 H   0  0  0  0  0  0  0  0  0  0  0  0
  138.9845   82.4470  222.9443 H   0  0  0  0  0  0  0  0  0  0  0  0
  141.4414   82.0957  223.1831 H   0  0  0  0  0  0  0  0  0  0  0  0
  142.3956   79.8274  223.0937 H   0  0  0  0  0  0  0  0  0  0  0  0
  142.1357   77.6177  222.2799 H   0  0  0  0  0  0  0  0  0  0  0  0
  141.2879   77.1525  223.7877 H   0  0  0  0  0  0  0  0  0  0  0  0
  138.0940   72.1747  222.3932 H   0  0  0  0  0  0  0  0  0  0  0  0
  139.0160   71.0826  221.2540 H   0  0  0  0  0  0  0  0  0  0  0  0
  137.3049   70.0692  222.8312 H   0  0  0  0  0  0  0  0  0  0  0  0
  138.9957   69.3492  222.6692 H   0  0  0  0  0  0  0  0  0  0  0  0
  140.9939   67.3690  225.2260 H   0  0  0  0  0  0  0  0  0  0  0  0
  142.3290   67.1250  227.2970 H   0  0  0  0  0  0  0  0  0  0  0  0
  1  2  2  0
  2  3  1  0
  3  4  2  0
  4  5  1  0
  5  6  1  0
  6  7  1  0
  7  8  1  0
  8  9  1  0
  9 10  1  0
 10 11  2  0
 11 12  1  0
 12 13  1  0
 13 14  1  0
 14 15  1  0
 15 16  1  0
 16 17  1  0
 17 18  1  0
 12 19  2  0
 19 20  1  0
 20 21  1  0
 21 22  1  0
 22 23  1  0
 23 24  1  0
 24 25  2  0
 25 26  1  0
 26 27  2  0
 27 28  1  0
 28 29  2  0
 29 30  1  0
 20 31  2  0
  9 32  1  0
 32 33  1  0
  4 34  1  0
 34 35  2  0
 35  1  1  0
 33  6  1  0
 31 10  1  0
 18 13  1  0
 30 21  1  0
 29 24  1  0
  1 36  1  0
  2 37  1  0
  3 38  1  0
  5 39  1  0
  5 40  1  0
  7 41  1  0
  7 42  1  0
  8 43  1  0
  8 44  1  0
 14 45  1  0
 14 46  1  0
 15 47  1  0
 15 48  1  0
 16 49  1  0
 17 50  1  0
 17 51  1  0
 18 52  1  0
 18 53  1  0
 22 54  1  0
 22 55  1  0
 23 56  1  0
 23 57  1  0
 25 58  1  0
 26 59  1  0
 27 60  1  0
 28 61  1  0
 30 62  1  0
 30 63  1  0
 32 64  1  0
 32 65  1  0
 33 66  1  0
 33 67  1  0
 34 68  1  0
 35 69  1  0
M  END
>  <smiles>  (19) 
c1ccc(CN2CCN(c3nc(N4CCNCC4)nc(N4CCc5ccccc5C4)n3)CC2)cc1

>  <score_type>  (19) 
oracle

>  <origin>  (19) 
autodockgpu

>  <m_score__min__energy>  (19) 
-9.8499999999999996

>  <m_primary>  (19) 
energy

>  <rmsd>  (19) 
11.22643073719507

>  <m_score__min__rmsd>  (19) 
11.22643073719507

>  <meeko>  (19) 
{"free_energy": -9.78, "intermolecular_energy": -11.27, "internal_energy": -1.04, "cluster_size": 43, "cluster_id": 1, "rank_in_cluster": 2}

>  <energy>  (19) 
-9.26

>  <cluster_rmsd>  (19) 
1.47

>  <cluster>  (19) 
1

$$$$

     RDKit          3D

 69 74  0  0  0  0  0  0  0  0999 V2000
  141.1120   68.6400  227.4390 C   0  0  0  0  0  0  0  0  0  0  0  0
  141.0020   67.6700  226.4660 C   0  0  0  0  0  0  0  0  0  0  0  0
  139.9320   67.7000  225.5990 C   0  0  0  0  0  0  0  0  0  0  0  0
  138.9430   68.6680  225.6530 C   0  0  0  0  0  0  0  0  0  0  0  0
  137.8520   68.6110  224.6820 C   0  0  0  0  0  0  0  0  0  0  0  0
  137.9350   69.5330  223.5990 N   0  0  0  0  0  0  0  0  0  0  0  0
  137.9000   70.9110  223.9380 C   0  0  0  0  0  0  0  0  0  0  0  0
  139.3100   71.4510  224.0720 C   0  0  0  0  0  0  0  0  0  0  0  0
  139.8780   71.4130  222.7350 N   0  0  0  0  0  0  0  0  0  0  0  0
  140.6020   72.4980  222.1730 C   0  0  0  0  0  0  0  0  0  0  0  0
  141.7330   72.3480  221.4680 N   0  0  0  0  0  0  0  0  0  0  0  0
  142.4000   73.4130  220.9450 C   0  0  0  0  0  0  0  0  0  0  0  0
  143.6050   73.2500  220.1950 N   0  0  0  0  0  0  0  0  0  0  0  0
  143.7090   72.1580  219.2580 C   0  0  0  0  0  0  0  0  0  0  0  0
  145.1070   72.1770  218.6790 C   0  0  0  0  0  0  0  0  0  0  0  0
  146.0470   72.2450  219.7790 N   0  0  0  0  0  0  0  0  0  0  0  0
  146.0410   73.5410  220.4210 C   0  0  0  0  0  0  0  0  0  0  0  0
  144.6750   74.1860  220.4020 C   0  0  0  0  0  0  0  0  0  0  0  0
  141.8860   74.6590  221.1550 N   0  0  0  0  0  0  0  0  0  0  0  0
  140.7560   74.8480  221.8560 C   0  0  0  0  0  0  0  0  0  0  0  0
  140.2020   76.1530  222.0880 N   0  0  0  0  0  0  0  0  0  0  0  0
  138.8400   76.4130  221.6780 C   0  0  0  0  0  0  0  0  0  0  0  0
  138.1410   77.3700  222.6230 C   0  0  0  0  0  0  0  0  0  0  0  0
  139.0060   78.6010  222.6830 C   0  0  0  0  0  0  0  0  0  0  0  0
  138.4020   79.8380  222.6900 C   0  0  0  0  0  0  0  0  0  0  0  0
  139.1910   80.9740  222.7440 C   0  0  0  0  0  0  0  0  0  0  0  0
  140.5700   80.8240  222.7900 C   0  0  0  0  0  0  0  0  0  0  0  0
  141.1430   79.5700  222.7810 C   0  0  0  0  0  0  0  0  0  0  0  0
  140.3700   78.4300  222.7270 C   0  0  0  0  0  0  0  0  0  0  0  0
  141.0570   77.1290  222.7220 C   0  0  0  0  0  0  0  0  0  0  0  0
  140.1520   73.7530  222.3420 N   0  0  0  0  0  0  0  0  0  0  0  0
  139.6770   70.2050  221.9710 C   0  0  0  0  0  0  0  0  0  0  0  0
  139.0110   69.1210  222.7380 C   0  0  0  0  0  0  0  0  0  0  0  0
  139.0800   69.6260  226.6370 C   0  0  0  0  0  0  0  0  0  0  0  0
  140.1510   69.6190  227.5260 C   0  0  0  0  0  0  0  0  0  0  0  0
  141.9605   68.6308  228.1390 H   0  0  0  0  0  0  0  0  0  0  0  0
  141.7618   66.8790  226.3826 H   0  0  0  0  0  0  0  0  0  0  0  0
  139.8597   66.9188  224.8279 H   0  0  0  0  0  0  0  0  0  0  0  0
  137.8294   67.5957  224.2594 H   0  0  0  0  0  0  0  0  0  0  0  0
  136.9435   68.8855  225.2381 H   0  0  0  0  0  0  0  0  0  0  0  0
  137.3713   71.4663  223.1493 H   0  0  0  0  0  0  0  0  0  0  0  0
  137.3756   71.0323  224.8973 H   0  0  0  0  0  0  0  0  0  0  0  0
  139.2902   72.4837  224.4504 H   0  0  0  0  0  0  0  0  0  0  0  0
  139.9050   70.8570  224.7814 H   0  0  0  0  0  0  0  0  0  0  0  0
  143.5309   71.2033  219.7746 H   0  0  0  0  0  0  0  0  0  0  0  0
  142.9606   72.2647  218.4589 H   0  0  0  0  0  0  0  0  0  0  0  0
  145.2815   71.2613  218.0951 H   0  0  0  0  0  0  0  0  0  0  0  0
  145.2333   73.0446  218.0146 H   0  0  0  0  0  0  0  0  0  0  0  0
  147.0070   72.0890  219.3880 H   0  0  0  0  0  0  0  0  0  0  0  0
  146.3596   73.4188  221.4667 H   0  0  0  0  0  0  0  0  0  0  0  0
  146.7286   74.1946  219.8643 H   0  0  0  0  0  0  0  0  0  0  0  0
  144.5146   74.6914  221.3657 H   0  0  0  0  0  0  0  0  0  0  0  0
  144.6596   74.8891  219.5562 H   0  0  0  0  0  0  0  0  0  0  0  0
  138.8493   76.8518  220.6693 H   0  0  0  0  0  0  0  0  0  0  0  0
  138.2915   75.4596  221.6891 H   0  0  0  0  0  0  0  0  0  0  0  0
  137.1416   77.6236  222.2398 H   0  0  0  0  0  0  0  0  0  0  0  0
  138.0051   76.9244  223.6195 H   0  0  0  0  0  0  0  0  0  0  0  0
  137.3059   79.9226  222.6531 H   0  0  0  0  0  0  0  0  0  0  0  0
  138.7346   81.9748  222.7503 H   0  0  0  0  0  0  0  0  0  0  0  0
  141.2129   81.7155  222.8341 H   0  0  0  0  0  0  0  0  0  0  0  0
  142.2385   79.4774  222.8176 H   0  0  0  0  0  0  0  0  0  0  0  0
  142.0010   77.2117  222.1635 H   0  0  0  0  0  0  0  0  0  0  0  0
  141.2767   76.8187  223.7542 H   0  0  0  0  0  0  0  0  0  0  0  0
  139.0543   70.4458  221.0968 H   0  0  0  0  0  0  0  0  0  0  0  0
  140.6725   69.8340  221.6856 H   0  0  0  0  0  0  0  0  0  0  0  0
  138.6068   68.3961  222.0161 H   0  0  0  0  0  0  0  0  0  0  0  0
  139.7837   68.7074  223.4028 H   0  0  0  0  0  0  0  0  0  0  0  0
  138.3210   70.4178  226.7211 H   0  0  0  0  0  0  0  0  0  0  0  0
  140.2285   70.3977  228.2990 H   0  0  0  0  0  0  0  0  0  0  0  0
  1  2  2  0
  2  3  1  0
  3  4  2  0
  4  5  1  0
  5  6  1  0
  6  7  1  0
  7  8  1  0
  8  9  1  0
  9 10  1  0
 10 11  2  0
 11 12  1  0
 12 13  1  0
 13 14  1  0
 14 15  1  0
 15 16  1  0
 16 17  1  0
 17 18  1  0
 12 19  2  0
 19 20  1  0
 20 21  1  0
 21 22  1  0
 22 23  1  0
 23 24  1  0
 24 25  2  0
 25 26  1  0
 26 27  2  0
 27 28  1  0
 28 29  2  0
 29 30  1  0
 20 31  2  0
  9 32  1  0
 32 33  1  0
  4 34  1  0
 34 35  2  0
 35  1  1  0
 33  6  1  0
 31 10  1  0
 18 13  1  0
 30 21  1  0
 29 24  1  0
  1 36  1  0
  2 37  1  0
  3 38  1  0
  5 39  1  0
  5 40  1  0
  7 41  1  0
  7 42  1  0
  8 43  1  0
  8 44  1  0
 14 45  1  0
 14 46  1  0
 15 47  1  0
 15 48  1  0
 16 49  1  0
 17 50  1  0
 17 51  1  0
 18 52  1  0
 18 53  1  0
 22 54  1  0
 22 55  1  0
 23 56  1  0
 23 57  1  0
 25 58  1  0
 26 59  1  0
 27 60  1  0
 28 61  1  0
 30 62  1  0
 30 63  1  0
 32 64  1  0
 32 65  1  0
 33 66  1  0
 33 67  1  0
 34 68  1  0
 35 69  1  0
M  END
>  <smiles>  (20) 
c1ccc(CN2CCN(c3nc(N4CCNCC4)nc(N4CCc5ccccc5C4)n3)CC2)cc1

>  <score_type>  (20) 
oracle

>  <origin>  (20) 
autodockgpu

>  <m_score__min__energy>  (20) 
-9.8499999999999996

>  <m_primary>  (20) 
energy

>  <rmsd>  (20) 
11.186504853537775

>  <m_score__min__rmsd>  (20) 
11.186504853537775

>  <meeko>  (20) 
{"free_energy": -9.13, "intermolecular_energy": -10.63, "internal_energy": -1.21, "cluster_size": 43, "cluster_id": 1, "rank_in_cluster": 35}

>  <energy>  (20) 
-9.25

>  <cluster_rmsd>  (20) 
1.47

>  <cluster>  (20) 
1

$$$$

     RDKit          3D

 69 74  0  0  0  0  0  0  0  0999 V2000
  141.0860   68.1360  228.1630 C   0  0  0  0  0  0  0  0  0  0  0  0
  141.0420   67.6170  226.8870 C   0  0  0  0  0  0  0  0  0  0  0  0
  140.1310   68.1210  225.9840 C   0  0  0  0  0  0  0  0  0  0  0  0
  139.2420   69.1370  226.2950 C   0  0  0  0  0  0  0  0  0  0  0  0
  138.3190   69.6000  225.2600 C   0  0  0  0  0  0  0  0  0  0  0  0
  138.5420   70.9220  224.7750 N   0  0  0  0  0  0  0  0  0  0  0  0
  139.8360   71.4640  224.9880 C   0  0  0  0  0  0  0  0  0  0  0  0
  140.7080   71.2260  223.7720 C   0  0  0  0  0  0  0  0  0  0  0  0
  140.1370   72.0370  222.7090 N   0  0  0  0  0  0  0  0  0  0  0  0
  140.9240   72.8550  221.8550 C   0  0  0  0  0  0  0  0  0  0  0  0
  141.7910   72.3670  220.9550 N   0  0  0  0  0  0  0  0  0  0  0  0
  142.5290   73.1820  220.1530 C   0  0  0  0  0  0  0  0  0  0  0  0
  143.4530   72.6590  219.1970 N   0  0  0  0  0  0  0  0  0  0  0  0
  144.4120   71.6660  219.6130 C   0  0  0  0  0  0  0  0  0  0  0  0
  145.3080   71.3640  218.4320 C   0  0  0  0  0  0  0  0  0  0  0  0
  145.7910   72.6230  217.9020 N   0  0  0  0  0  0  0  0  0  0  0  0
  144.7500   73.3630  217.2240 C   0  0  0  0  0  0  0  0  0  0  0  0
  143.3910   73.1460  217.8460 C   0  0  0  0  0  0  0  0  0  0  0  0
  142.3660   74.5300  220.2840 N   0  0  0  0  0  0  0  0  0  0  0  0
  141.5070   75.0540  221.1740 C   0  0  0  0  0  0  0  0  0  0  0  0
  141.3240   76.4710  221.3240 N   0  0  0  0  0  0  0  0  0  0  0  0
  141.4030   77.3120  220.1510 C   0  0  0  0  0  0  0  0  0  0  0  0
  140.4520   78.4890  220.2370 C   0  0  0  0  0  0  0  0  0  0  0  0
  140.7860   79.2000  221.5210 C   0  0  0  0  0  0  0  0  0  0  0  0
  140.7960   80.5770  221.5350 C   0  0  0  0  0  0  0  0  0  0  0  0
  141.1020   81.2380  222.7110 C   0  0  0  0  0  0  0  0  0  0  0  0
  141.3900   80.4850  223.8410 C   0  0  0  0  0  0  0  0  0  0  0  0
  141.3720   79.1070  223.7930 C   0  0  0  0  0  0  0  0  0  0  0  0
  141.0690   78.4350  222.6280 C   0  0  0  0  0  0  0  0  0  0  0  0
  141.0700   76.9650  222.6590 C   0  0  0  0  0  0  0  0  0  0  0  0
  140.8130   74.1920  221.9310 N   0  0  0  0  0  0  0  0  0  0  0  0
  138.7040   71.9890  222.5460 C   0  0  0  0  0  0  0  0  0  0  0  0
  138.0380   70.9980  223.4300 C   0  0  0  0  0  0  0  0  0  0  0  0
  139.3110   69.6360  227.5780 C   0  0  0  0  0  0  0  0  0  0  0  0
  140.2200   69.1460  228.5100 C   0  0  0  0  0  0  0  0  0  0  0  0
  141.8069   67.7460  228.8966 H   0  0  0  0  0  0  0  0  0  0  0  0
  141.7272   66.8085  226.5922 H   0  0  0  0  0  0  0  0  0  0  0  0
  140.1087   67.6969  224.9693 H   0  0  0  0  0  0  0  0  0  0  0  0
  138.3956   68.9102  224.4066 H   0  0  0  0  0  0  0  0  0  0  0  0
  137.3259   69.6191  225.7327 H   0  0  0  0  0  0  0  0  0  0  0  0
  139.7519   72.5457  225.1690 H   0  0  0  0  0  0  0  0  0  0  0  0
  140.2927   70.9725  225.8597 H   0  0  0  0  0  0  0  0  0  0  0  0
  141.7432   71.5366  223.9765 H   0  0  0  0  0  0  0  0  0  0  0  0
  140.7370   70.1613  223.4973 H   0  0  0  0  0  0  0  0  0  0  0  0
  145.0129   72.0534  220.4490 H   0  0  0  0  0  0  0  0  0  0  0  0
  143.8983   70.7530  219.9485 H   0  0  0  0  0  0  0  0  0  0  0  0
  146.1576   70.7453  218.7568 H   0  0  0  0  0  0  0  0  0  0  0  0
  144.7498   70.8138  217.6602 H   0  0  0  0  0  0  0  0  0  0  0  0
  146.5370   72.4060  217.1970 H   0  0  0  0  0  0  0  0  0  0  0  0
  144.9920   74.4351  217.2691 H   0  0  0  0  0  0  0  0  0  0  0  0
  144.7048   73.0033  216.1854 H   0  0  0  0  0  0  0  0  0  0  0  0
  142.8501   74.1038  217.8450 H   0  0  0  0  0  0  0  0  0  0  0  0
  142.8785   72.3786  217.2473 H   0  0  0  0  0  0  0  0  0  0  0  0
  142.4309   77.6912  220.0534 H   0  0  0  0  0  0  0  0  0  0  0  0
  141.1200   76.7070  219.2770 H   0  0  0  0  0  0  0  0  0  0  0  0
  140.5977   79.1615  219.3788 H   0  0  0  0  0  0  0  0  0  0  0  0
  139.4023   78.1606  220.2198 H   0  0  0  0  0  0  0  0  0  0  0  0
  140.5634   81.1446  220.6219 H   0  0  0  0  0  0  0  0  0  0  0  0
  141.1168   82.3372  222.7499 H   0  0  0  0  0  0  0  0  0  0  0  0
  141.6353   80.9932  224.7852 H   0  0  0  0  0  0  0  0  0  0  0  0
  141.6039   78.5327  224.7021 H   0  0  0  0  0  0  0  0  0  0  0  0
  141.8571   76.6101  223.3405 H   0  0  0  0  0  0  0  0  0  0  0  0
  140.0958   76.5980  223.0143 H   0  0  0  0  0  0  0  0  0  0  0  0
  138.2949   72.9852  222.7701 H   0  0  0  0  0  0  0  0  0  0  0  0
  138.5074   71.6797  221.5088 H   0  0  0  0  0  0  0  0  0  0  0  0
  136.9703   71.2572  223.4836 H   0  0  0  0  0  0  0  0  0  0  0  0
  138.2370   70.0142  222.9799 H   0  0  0  0  0  0  0  0  0  0  0  0
  138.6272   70.4454  227.8736 H   0  0  0  0  0  0  0  0  0  0  0  0
  140.2460   69.5671  229.5259 H   0  0  0  0  0  0  0  0  0  0  0  0
  1  2  2  0
  2  3  1  0
  3  4  2  0
  4  5  1  0
  5  6  1  0
  6  7  1  0
  7  8  1  0
  8  9  1  0
  9 10  1  0
 10 11  2  0
 11 12  1  0
 12 13  1  0
 13 14  1  0
 14 15  1  0
 15 16  1  0
 16 17  1  0
 17 18  1  0
 12 19  2  0
 19 20  1  0
 20 21  1  0
 21 22  1  0
 22 23  1  0
 23 24  1  0
 24 25  2  0
 25 26  1  0
 26 27  2  0
 27 28  1  0
 28 29  2  0
 29 30  1  0
 20 31  2  0
  9 32  1  0
 32 33  1  0
  4 34  1  0
 34 35  2  0
 35  1  1  0
 33  6  1  0
 31 10  1  0
 18 13  1  0
 30 21  1  0
 29 24  1  0
  1 36  1  0
  2 37  1  0
  3 38  1  0
  5 39  1  0
  5 40  1  0
  7 41  1  0
  7 42  1  0
  8 43  1  0
  8 44  1  0
 14 45  1  0
 14 46  1  0
 15 47  1  0
 15 48  1  0
 16 49  1  0
 17 50  1  0
 17 51  1  0
 18 52  1  0
 18 53  1  0
 22 54  1  0
 22 55  1  0
 23 56  1  0
 23 57  1  0
 25 58  1  0
 26 59  1  0
 27 60  1  0
 28 61  1  0
 30 62  1  0
 30 63  1  0
 32 64  1  0
 32 65  1  0
 33 66  1  0
 33 67  1  0
 34 68  1  0
 35 69  1  0
M  END
>  <smiles>  (21) 
c1ccc(CN2CCN(c3nc(N4CCNCC4)nc(N4CCc5ccccc5C4)n3)CC2)cc1

>  <score_type>  (21) 
oracle

>  <origin>  (21) 
autodockgpu

>  <m_score__min__energy>  (21) 
-9.8499999999999996

>  <m_primary>  (21) 
energy

>  <rmsd>  (21) 
11.052433315947809

>  <m_score__min__rmsd>  (21) 
11.052433315947809

>  <meeko>  (21) 
{"free_energy": -9.46, "intermolecular_energy": -10.95, "internal_energy": -1.16, "cluster_size": 43, "cluster_id": 1, "rank_in_cluster": 7}

>  <energy>  (21) 
-9.24

>  <cluster_rmsd>  (21) 
1.43

>  <cluster>  (21) 
1

$$$$

     RDKit          3D

 69 74  0  0  0  0  0  0  0  0999 V2000
  141.0780   68.0290  228.0750 C   0  0  0  0  0  0  0  0  0  0  0  0
  141.0460   67.4460  226.8260 C   0  0  0  0  0  0  0  0  0  0  0  0
  140.0860   67.8420  225.9200 C   0  0  0  0  0  0  0  0  0  0  0  0
  139.1360   68.8100  226.2010 C   0  0  0  0  0  0  0  0  0  0  0  0
  138.1650   69.1590  225.1660 C   0  0  0  0  0  0  0  0  0  0  0  0
  138.2460   70.4890  224.6610 N   0  0  0  0  0  0  0  0  0  0  0  0
  139.3750   71.2510  225.0620 C   0  0  0  0  0  0  0  0  0  0  0  0
  140.4720   71.1420  224.0210 C   0  0  0  0  0  0  0  0  0  0  0  0
  139.9680   71.8220  222.8400 N   0  0  0  0  0  0  0  0  0  0  0  0
  140.7440   72.7450  222.0900 C   0  0  0  0  0  0  0  0  0  0  0  0
  141.7850   72.3880  221.3240 N   0  0  0  0  0  0  0  0  0  0  0  0
  142.5060   73.3020  220.6200 C   0  0  0  0  0  0  0  0  0  0  0  0
  143.6150   72.9180  219.8050 N   0  0  0  0  0  0  0  0  0  0  0  0
  144.8260   72.4520  220.4370 C   0  0  0  0  0  0  0  0  0  0  0  0
  145.8490   72.2040  219.3500 C   0  0  0  0  0  0  0  0  0  0  0  0
  145.9080   73.3840  218.5130 N   0  0  0  0  0  0  0  0  0  0  0  0
  144.7260   73.5300  217.6930 C   0  0  0  0  0  0  0  0  0  0  0  0
  143.4830   73.0120  218.3780 C   0  0  0  0  0  0  0  0  0  0  0  0
  142.1430   74.6140  220.7090 N   0  0  0  0  0  0  0  0  0  0  0  0
  141.1050   75.0090  221.4660 C   0  0  0  0  0  0  0  0  0  0  0  0
  140.7090   76.3860  221.5720 N   0  0  0  0  0  0  0  0  0  0  0  0
  139.9890   76.9890  220.4730 C   0  0  0  0  0  0  0  0  0  0  0  0
  138.9760   78.0080  220.9560 C   0  0  0  0  0  0  0  0  0  0  0  0
  139.7450   78.9930  221.7950 C   0  0  0  0  0  0  0  0  0  0  0  0
  139.4490   80.3330  221.6860 C   0  0  0  0  0  0  0  0  0  0  0  0
  140.1520   81.2440  222.4540 C   0  0  0  0  0  0  0  0  0  0  0  0
  141.1350   80.7720  223.3120 C   0  0  0  0  0  0  0  0  0  0  0  0
  141.4080   79.4230  223.3980 C   0  0  0  0  0  0  0  0  0  0  0  0
  140.7160   78.5030  222.6380 C   0  0  0  0  0  0  0  0  0  0  0  0
  141.0650   77.0820  222.7870 C   0  0  0  0  0  0  0  0  0  0  0  0
  140.4400   74.0540  222.1320 N   0  0  0  0  0  0  0  0  0  0  0  0
  138.6130   71.5240  222.4410 C   0  0  0  0  0  0  0  0  0  0  0  0
  137.9770   70.4510  223.2490 C   0  0  0  0  0  0  0  0  0  0  0  0
  139.1950   69.3750  227.4580 C   0  0  0  0  0  0  0  0  0  0  0  0
  140.1530   68.9950  228.3920 C   0  0  0  0  0  0  0  0  0  0  0  0
  141.8366   67.7239  228.8108 H   0  0  0  0  0  0  0  0  0  0  0  0
  141.7796   66.6723  226.5553 H   0  0  0  0  0  0  0  0  0  0  0  0
  140.0736   67.3674  224.9277 H   0  0  0  0  0  0  0  0  0  0  0  0
  138.3089   68.4684  224.3219 H   0  0  0  0  0  0  0  0  0  0  0  0
  137.1778   69.0816  225.6451 H   0  0  0  0  0  0  0  0  0  0  0  0
  139.0818   72.3054  225.1729 H   0  0  0  0  0  0  0  0  0  0  0  0
  139.7487   70.8642  226.0215 H   0  0  0  0  0  0  0  0  0  0  0  0
  141.3905   71.6290  224.3804 H   0  0  0  0  0  0  0  0  0  0  0  0
  140.7233   70.0927  223.8069 H   0  0  0  0  0  0  0  0  0  0  0  0
  145.2003   73.2141  221.1363 H   0  0  0  0  0  0  0  0  0  0  0  0
  144.6336   71.5278  221.0017 H   0  0  0  0  0  0  0  0  0  0  0  0
  146.8347   72.0166  219.8009 H   0  0  0  0  0  0  0  0  0  0  0  0
  145.5656   71.3253  218.7520 H   0  0  0  0  0  0  0  0  0  0  0  0
  146.7290   73.2770  217.8700 H   0  0  0  0  0  0  0  0  0  0  0  0
  144.5846   74.5965  217.4635 H   0  0  0  0  0  0  0  0  0  0  0  0
  144.8767   72.9378  216.7784 H   0  0  0  0  0  0  0  0  0  0  0  0
  142.6495   73.6924  218.1491 H   0  0  0  0  0  0  0  0  0  0  0  0
  143.3047   71.9942  218.0008 H   0  0  0  0  0  0  0  0  0  0  0  0
  140.7082   77.4894  219.8079 H   0  0  0  0  0  0  0  0  0  0  0  0
  139.4469   76.1931  219.9414 H   0  0  0  0  0  0  0  0  0  0  0  0
  138.5089   78.5176  220.1003 H   0  0  0  0  0  0  0  0  0  0  0  0
  138.1692   77.5317  221.5324 H   0  0  0  0  0  0  0  0  0  0  0  0
  138.6631   80.6752  220.9966 H   0  0  0  0  0  0  0  0  0  0  0  0
  139.9361   82.3204  222.3858 H   0  0  0  0  0  0  0  0  0  0  0  0
  141.7031   81.4821  223.9308 H   0  0  0  0  0  0  0  0  0  0  0  0
  142.1924   79.0740  224.0856 H   0  0  0  0  0  0  0  0  0  0  0  0
  142.1458   76.9835  222.9666 H   0  0  0  0  0  0  0  0  0  0  0  0
  140.5195   76.6502  223.6390 H   0  0  0  0  0  0  0  0  0  0  0  0
  138.0112   72.4391  222.5430 H   0  0  0  0  0  0  0  0  0  0  0  0
  138.6544   71.1640  221.4024 H   0  0  0  0  0  0  0  0  0  0  0  0
  136.8882   70.5245  223.1106 H   0  0  0  0  0  0  0  0  0  0  0  0
  138.4109   69.5072  222.8872 H   0  0  0  0  0  0  0  0  0  0  0  0
  138.4625   70.1493  227.7298 H   0  0  0  0  0  0  0  0  0  0  0  0
  140.1704   69.4679  229.3850 H   0  0  0  0  0  0  0  0  0  0  0  0
  1  2  2  0
  2  3  1  0
  3  4  2  0
  4  5  1  0
  5  6  1  0
  6  7  1  0
  7  8  1  0
  8  9  1  0
  9 10  1  0
 10 11  2  0
 11 12  1  0
 12 13  1  0
 13 14  1  0
 14 15  1  0
 15 16  1  0
 16 17  1  0
 17 18  1  0
 12 19  2  0
 19 20  1  0
 20 21  1  0
 21 22  1  0
 22 23  1  0
 23 24  1  0
 24 25  2  0
 25 26  1  0
 26 27  2  0
 27 28  1  0
 28 29  2  0
 29 30  1  0
 20 31  2  0
  9 32  1  0
 32 33  1  0
  4 34  1  0
 34 35  2  0
 35  1  1  0
 33  6  1  0
 31 10  1  0
 18 13  1  0
 30 21  1  0
 29 24  1  0
  1 36  1  0
  2 37  1  0
  3 38  1  0
  5 39  1  0
  5 40  1  0
  7 41  1  0
  7 42  1  0
  8 43  1  0
  8 44  1  0
 14 45  1  0
 14 46  1  0
 15 47  1  0
 15 48  1  0
 16 49  1  0
 17 50  1  0
 17 51  1  0
 18 52  1  0
 18 53  1  0
 22 54  1  0
 22 55  1  0
 23 56  1  0
 23 57  1  0
 25 58  1  0
 26 59  1  0
 27 60  1  0
 28 61  1  0
 30 62  1  0
 30 63  1  0
 32 64  1  0
 32 65  1  0
 33 66  1  0
 33 67  1  0
 34 68  1  0
 35 69  1  0
M  END
>  <smiles>  (22) 
c1ccc(CN2CCN(c3nc(N4CCNCC4)nc(N4CCc5ccccc5C4)n3)CC2)cc1

>  <score_type>  (22) 
oracle

>  <origin>  (22) 
autodockgpu

>  <m_score__min__energy>  (22) 
-9.8499999999999996

>  <m_primary>  (22) 
energy

>  <rmsd>  (22) 
11.237348128874022

>  <m_score__min__rmsd>  (22) 
11.237348128874022

>  <meeko>  (22) 
{"free_energy": -9.3, "intermolecular_energy": -10.79, "internal_energy": -1.1, "cluster_size": 43, "cluster_id": 1, "rank_in_cluster": 16}

>  <energy>  (22) 
-9.23

>  <cluster_rmsd>  (22) 
0.83

>  <cluster>  (22) 
1

$$$$

     RDKit          3D

 69 74  0  0  0  0  0  0  0  0999 V2000
  142.6490   80.3530  223.4800 C   0  0  0  0  0  0  0  0  0  0  0  0
  141.8220   79.4630  224.1310 C   0  0  0  0  0  0  0  0  0  0  0  0
  140.5870   79.1700  223.5940 C   0  0  0  0  0  0  0  0  0  0  0  0
  140.1250   79.7330  222.4150 C   0  0  0  0  0  0  0  0  0  0  0  0
  138.8000   79.3500  221.9300 C   0  0  0  0  0  0  0  0  0  0  0  0
  138.6870   78.0290  221.4070 N   0  0  0  0  0  0  0  0  0  0  0  0
  139.7520   77.5820  220.5820 C   0  0  0  0  0  0  0  0  0  0  0  0
  140.7640   76.8140  221.4080 C   0  0  0  0  0  0  0  0  0  0  0  0
  140.0890   75.5980  221.8310 N   0  0  0  0  0  0  0  0  0  0  0  0
  140.6910   74.3140  221.7520 C   0  0  0  0  0  0  0  0  0  0  0  0
  141.5710   73.9650  220.8030 N   0  0  0  0  0  0  0  0  0  0  0  0
  142.1270   72.7230  220.7590 C   0  0  0  0  0  0  0  0  0  0  0  0
  143.0630   72.3540  219.7450 N   0  0  0  0  0  0  0  0  0  0  0  0
  143.8120   71.1300  219.8910 C   0  0  0  0  0  0  0  0  0  0  0  0
  144.7790   71.0390  218.7310 C   0  0  0  0  0  0  0  0  0  0  0  0
  145.5010   72.2930  218.6490 N   0  0  0  0  0  0  0  0  0  0  0  0
  144.6640   73.3720  218.1730 C   0  0  0  0  0  0  0  0  0  0  0  0
  143.2260   73.2230  218.6120 C   0  0  0  0  0  0  0  0  0  0  0  0
  141.7650   71.8240  221.7190 N   0  0  0  0  0  0  0  0  0  0  0  0
  140.8870   72.1380  222.6860 C   0  0  0  0  0  0  0  0  0  0  0  0
  140.4940   71.2030  223.7030 N   0  0  0  0  0  0  0  0  0  0  0  0
  139.2800   70.4400  223.5160 C   0  0  0  0  0  0  0  0  0  0  0  0
  139.3950   69.0480  224.1040 C   0  0  0  0  0  0  0  0  0  0  0  0
  139.7820   69.2360  225.5470 C   0  0  0  0  0  0  0  0  0  0  0  0
  139.1990   68.4330  226.5010 C   0  0  0  0  0  0  0  0  0  0  0  0
  139.5490   68.6000  227.8300 C   0  0  0  0  0  0  0  0  0  0  0  0
  140.4800   69.5770  228.1540 C   0  0  0  0  0  0  0  0  0  0  0  0
  141.0440   70.3650  227.1730 C   0  0  0  0  0  0  0  0  0  0  0  0
  140.7050   70.2100  225.8460 C   0  0  0  0  0  0  0  0  0  0  0  0
  141.3520   71.0900  224.8600 C   0  0  0  0  0  0  0  0  0  0  0  0
  140.3790   73.3800  222.6670 N   0  0  0  0  0  0  0  0  0  0  0  0
  138.7490   75.7390  222.3470 C   0  0  0  0  0  0  0  0  0  0  0  0
  138.3080   77.1510  222.4810 C   0  0  0  0  0  0  0  0  0  0  0  0
  140.9740   80.6190  221.7870 C   0  0  0  0  0  0  0  0  0  0  0  0
  142.2260   80.9320  222.3070 C   0  0  0  0  0  0  0  0  0  0  0  0
  143.6379   80.5976  223.8950 H   0  0  0  0  0  0  0  0  0  0  0  0
  142.1448   78.9909  225.0706 H   0  0  0  0  0  0  0  0  0  0  0  0
  139.9389   78.4573  224.1251 H   0  0  0  0  0  0  0  0  0  0  0  0
  138.0944   79.4420  222.7688 H   0  0  0  0  0  0  0  0  0  0  0  0
  138.5851   80.0235  221.0872 H   0  0  0  0  0  0  0  0  0  0  0  0
  139.3518   76.9259  219.7950 H   0  0  0  0  0  0  0  0  0  0  0  0
  140.2456   78.4538  220.1276 H   0  0  0  0  0  0  0  0  0  0  0  0
  141.6481   76.5699  220.8006 H   0  0  0  0  0  0  0  0  0  0  0  0
  141.1146   77.4027  222.2685 H   0  0  0  0  0  0  0  0  0  0  0  0
  144.3668   71.1417  220.8408 H   0  0  0  0  0  0  0  0  0  0  0  0
  143.1348   70.2632  219.8959 H   0  0  0  0  0  0  0  0  0  0  0  0
  145.4851   70.2122  218.8978 H   0  0  0  0  0  0  0  0  0  0  0  0
  144.2345   70.8501  217.7941 H   0  0  0  0  0  0  0  0  0  0  0  0
  146.2800   72.1670  217.9590 H   0  0  0  0  0  0  0  0  0  0  0  0
  145.0561   74.3222  218.5646 H   0  0  0  0  0  0  0  0  0  0  0  0
  144.6826   73.3505  217.0734 H   0  0  0  0  0  0  0  0  0  0  0  0
  142.8371   74.2174  218.8763 H   0  0  0  0  0  0  0  0  0  0  0  0
  142.6754   72.7710  217.7738 H   0  0  0  0  0  0  0  0  0  0  0  0
  138.4489   70.9668  224.0076 H   0  0  0  0  0  0  0  0  0  0  0  0
  139.1008   70.3413  222.4352 H   0  0  0  0  0  0  0  0  0  0  0  0
  138.4314   68.5223  224.0324 H   0  0  0  0  0  0  0  0  0  0  0  0
  140.1382   68.4432  223.5637 H   0  0  0  0  0  0  0  0  0  0  0  0
  138.4639   67.6678  226.2109 H   0  0  0  0  0  0  0  0  0  0  0  0
  139.0987   67.9717  228.6126 H   0  0  0  0  0  0  0  0  0  0  0  0
  140.7710   69.7243  229.2045 H   0  0  0  0  0  0  0  0  0  0  0  0
  141.7794   71.1329  227.4552 H   0  0  0  0  0  0  0  0  0  0  0  0
  141.5111   72.0851  225.3009 H   0  0  0  0  0  0  0  0  0  0  0  0
  142.3244   70.6690  224.5645 H   0  0  0  0  0  0  0  0  0  0  0  0
  138.0577   75.2222  221.6650 H   0  0  0  0  0  0  0  0  0  0  0  0
  138.7451   75.3030  223.3569 H   0  0  0  0  0  0  0  0  0  0  0  0
  137.2102   77.1567  222.5503 H   0  0  0  0  0  0  0  0  0  0  0  0
  138.8146   77.5387  223.3771 H   0  0  0  0  0  0  0  0  0  0  0  0
  140.6524   81.0923  220.8476 H   0  0  0  0  0  0  0  0  0  0  0  0
  142.8780   81.6434  221.7791 H   0  0  0  0  0  0  0  0  0  0  0  0
  1  2  2  0
  2  3  1  0
  3  4  2  0
  4  5  1  0
  5  6  1  0
  6  7  1  0
  7  8  1  0
  8  9  1  0
  9 10  1  0
 10 11  2  0
 11 12  1  0
 12 13  1  0
 13 14  1  0
 14 15  1  0
 15 16  1  0
 16 17  1  0
 17 18  1  0
 12 19  2  0
 19 20  1  0
 20 21  1  0
 21 22  1  0
 22 23  1  0
 23 24  1  0
 24 25  2  0
 25 26  1  0
 26 27  2  0
 27 28  1  0
 28 29  2  0
 29 30  1  0
 20 31  2  0
  9 32  1  0
 32 33  1  0
  4 34  1  0
 34 35  2  0
 35  1  1  0
 33  6  1  0
 31 10  1  0
 18 13  1  0
 30 21  1  0
 29 24  1  0
  1 36  1  0
  2 37  1  0
  3 38  1  0
  5 39  1  0
  5 40  1  0
  7 41  1  0
  7 42  1  0
  8 43  1  0
  8 44  1  0
 14 45  1  0
 14 46  1  0
 15 47  1  0
 15 48  1  0
 16 49  1  0
 17 50  1  0
 17 51  1  0
 18 52  1  0
 18 53  1  0
 22 54  1  0
 22 55  1  0
 23 56  1  0
 23 57  1  0
 25 58  1  0
 26 59  1  0
 27 60  1  0
 28 61  1  0
 30 62  1  0
 30 63  1  0
 32 64  1  0
 32 65  1  0
 33 66  1  0
 33 67  1  0
 34 68  1  0
 35 69  1  0
M  END
>  <smiles>  (23) 
c1ccc(CN2CCN(c3nc(N4CCNCC4)nc(N4CCc5ccccc5C4)n3)CC2)cc1

>  <score_type>  (23) 
oracle

>  <origin>  (23) 
autodockgpu

>  <m_score__min__energy>  (23) 
-9.8499999999999996

>  <m_primary>  (23) 
energy

>  <rmsd>  (23) 
3.9870914311628174

>  <m_score__min__rmsd>  (23) 
3.9870914311628174

>  <meeko>  (23) 
{"free_energy": -9.22, "intermolecular_energy": -10.71, "internal_energy": -1.22, "cluster_size": 43, "cluster_id": 1, "rank_in_cluster": 26}

>  <energy>  (23) 
-9.23

>  <cluster_rmsd>  (23) 
1.43

>  <cluster>  (23) 
1

$$$$

     RDKit          3D

 69 74  0  0  0  0  0  0  0  0999 V2000
  142.5970   80.7910  223.5390 C   0  0  0  0  0  0  0  0  0  0  0  0
  142.0330   81.3100  222.3930 C   0  0  0  0  0  0  0  0  0  0  0  0
  140.8270   80.8150  221.9490 C   0  0  0  0  0  0  0  0  0  0  0  0
  140.1390   79.8050  222.6020 C   0  0  0  0  0  0  0  0  0  0  0  0
  138.8630   79.3550  222.0480 C   0  0  0  0  0  0  0  0  0  0  0  0
  138.8900   78.1070  221.3610 N   0  0  0  0  0  0  0  0  0  0  0  0
  140.1340   77.7220  220.7970 C   0  0  0  0  0  0  0  0  0  0  0  0
  140.8900   76.8310  221.7630 C   0  0  0  0  0  0  0  0  0  0  0  0
  140.1240   75.5980  221.8470 N   0  0  0  0  0  0  0  0  0  0  0  0
  140.7220   74.3120  221.7780 C   0  0  0  0  0  0  0  0  0  0  0  0
  141.6000   73.9530  220.8290 N   0  0  0  0  0  0  0  0  0  0  0  0
  142.1520   72.7090  220.7940 C   0  0  0  0  0  0  0  0  0  0  0  0
  143.0860   72.3300  219.7820 N   0  0  0  0  0  0  0  0  0  0  0  0
  143.8540   71.1200  219.9500 C   0  0  0  0  0  0  0  0  0  0  0  0
  144.8130   71.0160  218.7850 C   0  0  0  0  0  0  0  0  0  0  0  0
  145.5150   72.2780  218.6670 N   0  0  0  0  0  0  0  0  0  0  0  0
  144.6580   73.3320  218.1720 C   0  0  0  0  0  0  0  0  0  0  0  0
  143.2270   73.1730  218.6270 C   0  0  0  0  0  0  0  0  0  0  0  0
  141.7900   71.8180  221.7620 N   0  0  0  0  0  0  0  0  0  0  0  0
  140.9140   72.1430  222.7280 C   0  0  0  0  0  0  0  0  0  0  0  0
  140.5210   71.2170  223.7540 N   0  0  0  0  0  0  0  0  0  0  0  0
  139.3260   70.4270  223.5580 C   0  0  0  0  0  0  0  0  0  0  0  0
  139.4560   69.0470  224.1700 C   0  0  0  0  0  0  0  0  0  0  0  0
  139.8120   69.2670  225.6170 C   0  0  0  0  0  0  0  0  0  0  0  0
  139.2280   68.4680  226.5740 C   0  0  0  0  0  0  0  0  0  0  0  0
  139.5500   68.6640  227.9050 C   0  0  0  0  0  0  0  0  0  0  0  0
  140.4560   69.6630  228.2290 C   0  0  0  0  0  0  0  0  0  0  0  0
  141.0230   70.4470  227.2460 C   0  0  0  0  0  0  0  0  0  0  0  0
  140.7110   70.2640  225.9160 C   0  0  0  0  0  0  0  0  0  0  0  0
  141.3590   71.1390  224.9280 C   0  0  0  0  0  0  0  0  0  0  0  0
  140.4100   73.3850  222.7000 N   0  0  0  0  0  0  0  0  0  0  0  0
  138.6950   75.7240  222.0060 C   0  0  0  0  0  0  0  0  0  0  0  0
  138.2380   77.1260  222.1860 C   0  0  0  0  0  0  0  0  0  0  0  0
  140.7270   79.3070  223.7460 C   0  0  0  0  0  0  0  0  0  0  0  0
  141.9450   79.7890  224.2170 C   0  0  0  0  0  0  0  0  0  0  0  0
  143.5597   81.1753  223.9072 H   0  0  0  0  0  0  0  0  0  0  0  0
  142.5417   82.1122  221.8383 H   0  0  0  0  0  0  0  0  0  0  0  0
  140.3898   81.2410  221.0339 H   0  0  0  0  0  0  0  0  0  0  0  0
  138.1468   79.2676  222.8783 H   0  0  0  0  0  0  0  0  0  0  0  0
  138.5843   80.1051  221.2932 H   0  0  0  0  0  0  0  0  0  0  0  0
  139.9548   77.1737  219.8604 H   0  0  0  0  0  0  0  0  0  0  0  0
  140.7319   78.6228  220.5946 H   0  0  0  0  0  0  0  0  0  0  0  0
  141.9026   76.6278  221.3843 H   0  0  0  0  0  0  0  0  0  0  0  0
  141.0020   77.3060  222.7488 H   0  0  0  0  0  0  0  0  0  0  0  0
  144.4159   71.1615  220.8947 H   0  0  0  0  0  0  0  0  0  0  0  0
  143.1894   70.2440  219.9802 H   0  0  0  0  0  0  0  0  0  0  0  0
  145.5329   70.2042  218.9658 H   0  0  0  0  0  0  0  0  0  0  0  0
  144.2640   70.7966  217.8574 H   0  0  0  0  0  0  0  0  0  0  0  0
  146.2900   72.1470  217.9740 H   0  0  0  0  0  0  0  0  0  0  0  0
  145.0392   74.2974  218.5364 H   0  0  0  0  0  0  0  0  0  0  0  0
  144.6675   73.2832  217.0731 H   0  0  0  0  0  0  0  0  0  0  0  0
  142.8259   74.1679  218.8704 H   0  0  0  0  0  0  0  0  0  0  0  0
  142.6763   72.6925  217.8049 H   0  0  0  0  0  0  0  0  0  0  0  0
  138.4761   70.9452  224.0260 H   0  0  0  0  0  0  0  0  0  0  0  0
  139.1694   70.3073  222.4758 H   0  0  0  0  0  0  0  0  0  0  0  0
  138.5041   68.5017  224.0891 H   0  0  0  0  0  0  0  0  0  0  0  0
  140.2200   68.4473  223.6536 H   0  0  0  0  0  0  0  0  0  0  0  0
  138.5139   67.6832  226.2838 H   0  0  0  0  0  0  0  0  0  0  0  0
  139.0970   68.0406  228.6900 H   0  0  0  0  0  0  0  0  0  0  0  0
  140.7254   69.8320  229.2820 H   0  0  0  0  0  0  0  0  0  0  0  0
  141.7380   71.2335  227.5290 H   0  0  0  0  0  0  0  0  0  0  0  0
  141.4915   72.1441  225.3550 H   0  0  0  0  0  0  0  0  0  0  0  0
  142.3442   70.7314  224.6573 H   0  0  0  0  0  0  0  0  0  0  0  0
  138.2077   75.3117  221.1101 H   0  0  0  0  0  0  0  0  0  0  0  0
  138.4226   75.1760  222.9201 H   0  0  0  0  0  0  0  0  0  0  0  0
  137.1610   77.1610  221.9650 H   0  0  0  0  0  0  0  0  0  0  0  0
  138.4905   77.3920  223.2231 H   0  0  0  0  0  0  0  0  0  0  0  0
  140.2187   78.5057  224.3023 H   0  0  0  0  0  0  0  0  0  0  0  0
  142.3859   79.3676  225.1324 H   0  0  0  0  0  0  0  0  0  0  0  0
  1  2  2  0
  2  3  1  0
  3  4  2  0
  4  5  1  0
  5  6  1  0
  6  7  1  0
  7  8  1  0
  8  9  1  0
  9 10  1  0
 10 11  2  0
 11 12  1  0
 12 13  1  0
 13 14  1  0
 14 15  1  0
 15 16  1  0
 16 17  1  0
 17 18  1  0
 12 19  2  0
 19 20  1  0
 20 21  1  0
 21 22  1  0
 22 23  1  0
 23 24  1  0
 24 25  2  0
 25 26  1  0
 26 27  2  0
 27 28  1  0
 28 29  2  0
 29 30  1  0
 20 31  2  0
  9 32  1  0
 32 33  1  0
  4 34  1  0
 34 35  2  0
 35  1  1  0
 33  6  1  0
 31 10  1  0
 18 13  1  0
 30 21  1  0
 29 24  1  0
  1 36  1  0
  2 37  1  0
  3 38  1  0
  5 39  1  0
  5 40  1  0
  7 41  1  0
  7 42  1  0
  8 43  1  0
  8 44  1  0
 14 45  1  0
 14 46  1  0
 15 47  1  0
 15 48  1  0
 16 49  1  0
 17 50  1  0
 17 51  1  0
 18 52  1  0
 18 53  1  0
 22 54  1  0
 22 55  1  0
 23 56  1  0
 23 57  1  0
 25 58  1  0
 26 59  1  0
 27 60  1  0
 28 61  1  0
 30 62  1  0
 30 63  1  0
 32 64  1  0
 32 65  1  0
 33 66  1  0
 33 67  1  0
 34 68  1  0
 35 69  1  0
M  END
>  <smiles>  (24) 
c1ccc(CN2CCN(c3nc(N4CCNCC4)nc(N4CCc5ccccc5C4)n3)CC2)cc1

>  <score_type>  (24) 
oracle

>  <origin>  (24) 
autodockgpu

>  <m_score__min__energy>  (24) 
-9.8499999999999996

>  <m_primary>  (24) 
energy

>  <rmsd>  (24) 
3.452928663256512

>  <m_score__min__rmsd>  (24) 
3.452928663256512

>  <meeko>  (24) 
{"free_energy": -9.18, "intermolecular_energy": -10.67, "internal_energy": -1.19, "cluster_size": 43, "cluster_id": 1, "rank_in_cluster": 32}

>  <energy>  (24) 
-9.23

>  <cluster_rmsd>  (24) 
1.47

>  <cluster>  (24) 
1

$$$$

     RDKit          3D

 69 74  0  0  0  0  0  0  0  0999 V2000
  142.8520   80.5180  223.3580 C   0  0  0  0  0  0  0  0  0  0  0  0
  142.2220   81.0440  222.2510 C   0  0  0  0  0  0  0  0  0  0  0  0
  140.9390   80.6420  221.9490 C   0  0  0  0  0  0  0  0  0  0  0  0
  140.2370   79.7220  222.7110 C   0  0  0  0  0  0  0  0  0  0  0  0
  138.8780   79.3680  222.3040 C   0  0  0  0  0  0  0  0  0  0  0  0
  138.7460   78.1520  221.5730 N   0  0  0  0  0  0  0  0  0  0  0  0
  139.9100   77.6810  220.9120 C   0  0  0  0  0  0  0  0  0  0  0  0
  140.6410   76.6860  221.7920 C   0  0  0  0  0  0  0  0  0  0  0  0
  139.7730   75.5240  221.8840 N   0  0  0  0  0  0  0  0  0  0  0  0
  140.2440   74.1940  221.7280 C   0  0  0  0  0  0  0  0  0  0  0  0
  140.8950   73.7610  220.6390 N   0  0  0  0  0  0  0  0  0  0  0  0
  141.3320   72.4770  220.5250 C   0  0  0  0  0  0  0  0  0  0  0  0
  142.0250   72.0190  219.3620 N   0  0  0  0  0  0  0  0  0  0  0  0
  141.2700   71.6820  218.1800 C   0  0  0  0  0  0  0  0  0  0  0  0
  142.2410   71.1490  217.1490 C   0  0  0  0  0  0  0  0  0  0  0  0
  143.0470   70.1230  217.7790 N   0  0  0  0  0  0  0  0  0  0  0  0
  143.9900   70.6770  218.7250 C   0  0  0  0  0  0  0  0  0  0  0  0
  143.4560   71.9100  219.4150 C   0  0  0  0  0  0  0  0  0  0  0  0
  141.0900   71.6220  221.5600 N   0  0  0  0  0  0  0  0  0  0  0  0
  140.4410   72.0210  222.6670 C   0  0  0  0  0  0  0  0  0  0  0  0
  140.1780   71.1340  223.7670 N   0  0  0  0  0  0  0  0  0  0  0  0
  139.0490   70.2340  223.6800 C   0  0  0  0  0  0  0  0  0  0  0  0
  139.3280   68.9130  224.3680 C   0  0  0  0  0  0  0  0  0  0  0  0
  139.7280   69.2570  225.7790 C   0  0  0  0  0  0  0  0  0  0  0  0
  139.2600   68.4750  226.8120 C   0  0  0  0  0  0  0  0  0  0  0  0
  139.6240   68.7840  228.1100 C   0  0  0  0  0  0  0  0  0  0  0  0
  140.4520   69.8760  228.3260 C   0  0  0  0  0  0  0  0  0  0  0  0
  140.9030   70.6390  227.2700 C   0  0  0  0  0  0  0  0  0  0  0  0
  140.5490   70.3430  225.9710 C   0  0  0  0  0  0  0  0  0  0  0  0
  141.0720   71.2040  224.8990 C   0  0  0  0  0  0  0  0  0  0  0  0
  140.0400   73.3000  222.7100 N   0  0  0  0  0  0  0  0  0  0  0  0
  138.3740   75.7710  222.1440 C   0  0  0  0  0  0  0  0  0  0  0  0
  138.0610   77.2000  222.4050 C   0  0  0  0  0  0  0  0  0  0  0  0
  140.8940   79.2140  223.8120 C   0  0  0  0  0  0  0  0  0  0  0  0
  142.1890   79.6030  224.1400 C   0  0  0  0  0  0  0  0  0  0  0  0
  143.8762   80.8277  223.6133 H   0  0  0  0  0  0  0  0  0  0  0  0
  142.7383   81.7777  221.6146 H   0  0  0  0  0  0  0  0  0  0  0  0
  140.4497   81.0712  221.0622 H   0  0  0  0  0  0  0  0  0  0  0  0
  138.2647   79.2833  223.2133 H   0  0  0  0  0  0  0  0  0  0  0  0
  138.5545   80.1651  221.6184 H   0  0  0  0  0  0  0  0  0  0  0  0
  139.6209   77.1907  219.9707 H   0  0  0  0  0  0  0  0  0  0  0  0
  140.5743   78.5321  220.7015 H   0  0  0  0  0  0  0  0  0  0  0  0
  141.6042   76.4093  221.3385 H   0  0  0  0  0  0  0  0  0  0  0  0
  140.8586   77.1076  222.7844 H   0  0  0  0  0  0  0  0  0  0  0  0
  140.5205   70.9138  218.4208 H   0  0  0  0  0  0  0  0  0  0  0  0
  140.7455   72.5680  217.7928 H   0  0  0  0  0  0  0  0  0  0  0  0
  141.6867   70.7198  216.3014 H   0  0  0  0  0  0  0  0  0  0  0  0
  142.8818   71.9603  216.7732 H   0  0  0  0  0  0  0  0  0  0  0  0
  143.5970   69.6440  217.0260 H   0  0  0  0  0  0  0  0  0  0  0  0
  144.2153   69.9157  219.4864 H   0  0  0  0  0  0  0  0  0  0  0  0
  144.8923   70.9687  218.1676 H   0  0  0  0  0  0  0  0  0  0  0  0
  143.7645   71.8801  220.4704 H   0  0  0  0  0  0  0  0  0  0  0  0
  143.8677   72.7821  218.8859 H   0  0  0  0  0  0  0  0  0  0  0  0
  138.1786   70.7074  224.1578 H   0  0  0  0  0  0  0  0  0  0  0  0
  138.8546   70.0312  222.6165 H   0  0  0  0  0  0  0  0  0  0  0  0
  138.4254   68.2843  224.3689 H   0  0  0  0  0  0  0  0  0  0  0  0
  140.1179   68.3482  223.8513 H   0  0  0  0  0  0  0  0  0  0  0  0
  138.6049   67.6154  226.6070 H   0  0  0  0  0  0  0  0  0  0  0  0
  139.2644   68.1765  228.9536 H   0  0  0  0  0  0  0  0  0  0  0  0
  140.7522   70.1361  229.3518 H   0  0  0  0  0  0  0  0  0  0  0  0
  141.5578   71.5004  227.4678 H   0  0  0  0  0  0  0  0  0  0  0  0
  141.1350   72.2424  225.2566 H   0  0  0  0  0  0  0  0  0  0  0  0
  142.0758   70.8646  224.6037 H   0  0  0  0  0  0  0  0  0  0  0  0
  137.7942   75.4422  221.2689 H   0  0  0  0  0  0  0  0  0  0  0  0
  138.1112   75.2117  223.0540 H   0  0  0  0  0  0  0  0  0  0  0  0
  136.9798   77.3409  222.2596 H   0  0  0  0  0  0  0  0  0  0  0  0
  138.4036   77.3986  223.4312 H   0  0  0  0  0  0  0  0  0  0  0  0
  140.3793   78.4800  224.4494 H   0  0  0  0  0  0  0  0  0  0  0  0
  142.6826   79.1776  225.0262 H   0  0  0  0  0  0  0  0  0  0  0  0
  1  2  2  0
  2  3  1  0
  3  4  2  0
  4  5  1  0
  5  6  1  0
  6  7  1  0
  7  8  1  0
  8  9  1  0
  9 10  1  0
 10 11  2  0
 11 12  1  0
 12 13  1  0
 13 14  1  0
 14 15  1  0
 15 16  1  0
 16 17  1  0
 17 18  1  0
 12 19  2  0
 19 20  1  0
 20 21  1  0
 21 22  1  0
 22 23  1  0
 23 24  1  0
 24 25  2  0
 25 26  1  0
 26 27  2  0
 27 28  1  0
 28 29  2  0
 29 30  1  0
 20 31  2  0
  9 32  1  0
 32 33  1  0
  4 34  1  0
 34 35  2  0
 35  1  1  0
 33  6  1  0
 31 10  1  0
 18 13  1  0
 30 21  1  0
 29 24  1  0
  1 36  1  0
  2 37  1  0
  3 38  1  0
  5 39  1  0
  5 40  1  0
  7 41  1  0
  7 42  1  0
  8 43  1  0
  8 44  1  0
 14 45  1  0
 14 46  1  0
 15 47  1  0
 15 48  1  0
 16 49  1  0
 17 50  1  0
 17 51  1  0
 18 52  1  0
 18 53  1  0
 22 54  1  0
 22 55  1  0
 23 56  1  0
 23 57  1  0
 25 58  1  0
 26 59  1  0
 27 60  1  0
 28 61  1  0
 30 62  1  0
 30 63  1  0
 32 64  1  0
 32 65  1  0
 33 66  1  0
 33 67  1  0
 34 68  1  0
 35 69  1  0
M  END
>  <smiles>  (25) 
c1ccc(CN2CCN(c3nc(N4CCNCC4)nc(N4CCc5ccccc5C4)n3)CC2)cc1

>  <score_type>  (25) 
oracle

>  <origin>  (25) 
autodockgpu

>  <m_score__min__energy>  (25) 
-9.8499999999999996

>  <m_primary>  (25) 
energy

>  <rmsd>  (25) 
3.5975875370978443

>  <m_score__min__rmsd>  (25) 
3.5975875370978443

>  <meeko>  (25) 
{"free_energy": -8.92, "intermolecular_energy": -10.41, "internal_energy": -1.19, "cluster_size": 43, "cluster_id": 1, "rank_in_cluster": 39}

>  <energy>  (25) 
-9.22

>  <cluster_rmsd>  (25) 
1.47

>  <cluster>  (25) 
1

$$$$

     RDKit          3D

 69 74  0  0  0  0  0  0  0  0999 V2000
  142.6540   80.6890  223.5370 C   0  0  0  0  0  0  0  0  0  0  0  0
  142.0710   81.2440  222.4180 C   0  0  0  0  0  0  0  0  0  0  0  0
  140.8410   80.7860  221.9980 C   0  0  0  0  0  0  0  0  0  0  0  0
  140.1480   79.7800  222.6510 C   0  0  0  0  0  0  0  0  0  0  0  0
  138.8460   79.3710  222.1240 C   0  0  0  0  0  0  0  0  0  0  0  0
  138.8090   78.1020  221.4780 N   0  0  0  0  0  0  0  0  0  0  0  0
  139.9870   77.7040  220.7940 C   0  0  0  0  0  0  0  0  0  0  0  0
  140.8520   76.8490  221.6980 C   0  0  0  0  0  0  0  0  0  0  0  0
  140.1110   75.6160  221.9050 N   0  0  0  0  0  0  0  0  0  0  0  0
  140.7090   74.3310  221.8110 C   0  0  0  0  0  0  0  0  0  0  0  0
  141.5840   73.9890  220.8540 N   0  0  0  0  0  0  0  0  0  0  0  0
  142.1360   72.7470  220.7950 C   0  0  0  0  0  0  0  0  0  0  0  0
  143.0670   72.3850  219.7740 N   0  0  0  0  0  0  0  0  0  0  0  0
  143.8260   71.1670  219.9120 C   0  0  0  0  0  0  0  0  0  0  0  0
  144.7840   71.0840  218.7440 C   0  0  0  0  0  0  0  0  0  0  0  0
  145.4960   72.3430  218.6570 N   0  0  0  0  0  0  0  0  0  0  0  0
  144.6470   73.4160  218.1890 C   0  0  0  0  0  0  0  0  0  0  0  0
  143.2140   73.2550  218.6400 C   0  0  0  0  0  0  0  0  0  0  0  0
  141.7770   71.8390  221.7480 N   0  0  0  0  0  0  0  0  0  0  0  0
  140.9040   72.1460  222.7220 C   0  0  0  0  0  0  0  0  0  0  0  0
  140.5140   71.2010  223.7320 N   0  0  0  0  0  0  0  0  0  0  0  0
  139.2980   70.4420  223.5430 C   0  0  0  0  0  0  0  0  0  0  0  0
  139.4130   69.0440  224.1160 C   0  0  0  0  0  0  0  0  0  0  0  0
  139.8050   69.2180  225.5600 C   0  0  0  0  0  0  0  0  0  0  0  0
  139.2250   68.4070  226.5090 C   0  0  0  0  0  0  0  0  0  0  0  0
  139.5800   68.5610  227.8370 C   0  0  0  0  0  0  0  0  0  0  0  0
  140.5140   69.5330  228.1670 C   0  0  0  0  0  0  0  0  0  0  0  0
  141.0760   70.3300  227.1920 C   0  0  0  0  0  0  0  0  0  0  0  0
  140.7310   70.1880  225.8640 C   0  0  0  0  0  0  0  0  0  0  0  0
  141.3760   71.0760  224.8850 C   0  0  0  0  0  0  0  0  0  0  0  0
  140.3990   73.3880  222.7170 N   0  0  0  0  0  0  0  0  0  0  0  0
  138.7070   75.7390  222.2150 C   0  0  0  0  0  0  0  0  0  0  0  0
  138.2600   77.1440  222.4000 C   0  0  0  0  0  0  0  0  0  0  0  0
  140.7560   79.2440  223.7670 C   0  0  0  0  0  0  0  0  0  0  0  0
  141.9970   79.6880  224.2130 C   0  0  0  0  0  0  0  0  0  0  0  0
  143.6352   81.0434  223.8857 H   0  0  0  0  0  0  0  0  0  0  0  0
  142.5830   82.0454  221.8652 H   0  0  0  0  0  0  0  0  0  0  0  0
  140.3891   81.2399  221.1037 H   0  0  0  0  0  0  0  0  0  0  0  0
  138.1358   79.3430  222.9636 H   0  0  0  0  0  0  0  0  0  0  0  0
  138.5930   80.1085  221.3480 H   0  0  0  0  0  0  0  0  0  0  0  0
  139.7106   77.1244  219.9009 H   0  0  0  0  0  0  0  0  0  0  0  0
  140.5518   78.6007  220.4991 H   0  0  0  0  0  0  0  0  0  0  0  0
  141.8184   76.6388  221.2165 H   0  0  0  0  0  0  0  0  0  0  0  0
  141.0677   77.3563  222.6499 H   0  0  0  0  0  0  0  0  0  0  0  0
  144.3887   71.1818  220.8571 H   0  0  0  0  0  0  0  0  0  0  0  0
  143.1552   70.2953  219.9213 H   0  0  0  0  0  0  0  0  0  0  0  0
  145.4974   70.2622  218.9043 H   0  0  0  0  0  0  0  0  0  0  0  0
  144.2331   70.8919  217.8115 H   0  0  0  0  0  0  0  0  0  0  0  0
  146.2700   72.2240  217.9610 H   0  0  0  0  0  0  0  0  0  0  0  0
  145.0349   74.3689  218.5783 H   0  0  0  0  0  0  0  0  0  0  0  0
  144.6568   73.3961  217.0892 H   0  0  0  0  0  0  0  0  0  0  0  0
  142.8192   74.2462  218.9075 H   0  0  0  0  0  0  0  0  0  0  0  0
  142.6606   72.7981  217.8063 H   0  0  0  0  0  0  0  0  0  0  0  0
  138.4701   70.9652  224.0439 H   0  0  0  0  0  0  0  0  0  0  0  0
  139.1138   70.3546  222.4621 H   0  0  0  0  0  0  0  0  0  0  0  0
  138.4485   68.5202  224.0422 H   0  0  0  0  0  0  0  0  0  0  0  0
  140.1532   68.4433  223.5672 H   0  0  0  0  0  0  0  0  0  0  0  0
  138.4879   67.6454  226.2148 H   0  0  0  0  0  0  0  0  0  0  0  0
  139.1313   67.9262  228.6153 H   0  0  0  0  0  0  0  0  0  0  0  0
  140.8093   69.6692  229.2179 H   0  0  0  0  0  0  0  0  0  0  0  0
  141.8138   71.0938  227.4789 H   0  0  0  0  0  0  0  0  0  0  0  0
  141.5381   72.0667  225.3348 H   0  0  0  0  0  0  0  0  0  0  0  0
  142.3469   70.6567  224.5825 H   0  0  0  0  0  0  0  0  0  0  0  0
  138.1287   75.2956  221.3910 H   0  0  0  0  0  0  0  0  0  0  0  0
  138.5405   75.2189  223.1699 H   0  0  0  0  0  0  0  0  0  0  0  0
  137.1650   77.1661  222.2975 H   0  0  0  0  0  0  0  0  0  0  0  0
  138.6224   77.4444  223.3942 H   0  0  0  0  0  0  0  0  0  0  0  0
  140.2451   78.4424  224.3204 H   0  0  0  0  0  0  0  0  0  0  0  0
  142.4528   79.2378  225.1072 H   0  0  0  0  0  0  0  0  0  0  0  0
  1  2  2  0
  2  3  1  0
  3  4  2  0
  4  5  1  0
  5  6  1  0
  6  7  1  0
  7  8  1  0
  8  9  1  0
  9 10  1  0
 10 11  2  0
 11 12  1  0
 12 13  1  0
 13 14  1  0
 14 15  1  0
 15 16  1  0
 16 17  1  0
 17 18  1  0
 12 19  2  0
 19 20  1  0
 20 21  1  0
 21 22  1  0
 22 23  1  0
 23 24  1  0
 24 25  2  0
 25 26  1  0
 26 27  2  0
 27 28  1  0
 28 29  2  0
 29 30  1  0
 20 31  2  0
  9 32  1  0
 32 33  1  0
  4 34  1  0
 34 35  2  0
 35  1  1  0
 33  6  1  0
 31 10  1  0
 18 13  1  0
 30 21  1  0
 29 24  1  0
  1 36  1  0
  2 37  1  0
  3 38  1  0
  5 39  1  0
  5 40  1  0
  7 41  1  0
  7 42  1  0
  8 43  1  0
  8 44  1  0
 14 45  1  0
 14 46  1  0
 15 47  1  0
 15 48  1  0
 16 49  1  0
 17 50  1  0
 17 51  1  0
 18 52  1  0
 18 53  1  0
 22 54  1  0
 22 55  1  0
 23 56  1  0
 23 57  1  0
 25 58  1  0
 26 59  1  0
 27 60  1  0
 28 61  1  0
 30 62  1  0
 30 63  1  0
 32 64  1  0
 32 65  1  0
 33 66  1  0
 33 67  1  0
 34 68  1  0
 35 69  1  0
M  END
>  <smiles>  (26) 
c1ccc(CN2CCN(c3nc(N4CCNCC4)nc(N4CCc5ccccc5C4)n3)CC2)cc1

>  <score_type>  (26) 
oracle

>  <origin>  (26) 
autodockgpu

>  <m_score__min__energy>  (26) 
-9.8499999999999996

>  <m_primary>  (26) 
energy

>  <rmsd>  (26) 
3.5564647189423253

>  <m_score__min__rmsd>  (26) 
3.5564647189423253

>  <meeko>  (26) 
{"free_energy": -9.23, "intermolecular_energy": -10.72, "internal_energy": -1.2, "cluster_size": 43, "cluster_id": 1, "rank_in_cluster": 24}

>  <energy>  (26) 
-9.22

>  <cluster_rmsd>  (26) 
1.47

>  <cluster>  (26) 
1

$$$$

     RDKit          3D

 69 74  0  0  0  0  0  0  0  0999 V2000
  142.1980   81.5580  223.9360 C   0  0  0  0  0  0  0  0  0  0  0  0
  143.0980   80.5370  223.7170 C   0  0  0  0  0  0  0  0  0  0  0  0
  142.8550   79.6260  222.7120 C   0  0  0  0  0  0  0  0  0  0  0  0
  141.7370   79.6810  221.8970 C   0  0  0  0  0  0  0  0  0  0  0  0
  141.5770   78.6660  220.8570 C   0  0  0  0  0  0  0  0  0  0  0  0
  141.7750   77.3170  221.2700 N   0  0  0  0  0  0  0  0  0  0  0  0
  141.0550   76.8940  222.4180 C   0  0  0  0  0  0  0  0  0  0  0  0
  139.7580   76.2290  222.0040 C   0  0  0  0  0  0  0  0  0  0  0  0
  140.1400   74.9980  221.3330 N   0  0  0  0  0  0  0  0  0  0  0  0
  139.5150   73.7500  221.5960 C   0  0  0  0  0  0  0  0  0  0  0  0
  138.5980   73.1960  220.7900 N   0  0  0  0  0  0  0  0  0  0  0  0
  138.0200   71.9970  221.0760 C   0  0  0  0  0  0  0  0  0  0  0  0
  137.0420   71.4100  220.2160 N   0  0  0  0  0  0  0  0  0  0  0  0
  135.8780   70.7850  220.7960 C   0  0  0  0  0  0  0  0  0  0  0  0
  135.0700   70.1780  219.6700 C   0  0  0  0  0  0  0  0  0  0  0  0
  135.9620   69.3740  218.8610 N   0  0  0  0  0  0  0  0  0  0  0  0
  136.8720   70.1870  218.0840 C   0  0  0  0  0  0  0  0  0  0  0  0
  137.2560   71.4630  218.7960 C   0  0  0  0  0  0  0  0  0  0  0  0
  138.4000   71.3570  222.2200 N   0  0  0  0  0  0  0  0  0  0  0  0
  139.3170   71.8820  223.0500 C   0  0  0  0  0  0  0  0  0  0  0  0
  139.7280   71.2220  224.2590 N   0  0  0  0  0  0  0  0  0  0  0  0
  140.7310   71.8520  225.0890 C   0  0  0  0  0  0  0  0  0  0  0  0
  140.4890   71.5870  226.5610 C   0  0  0  0  0  0  0  0  0  0  0  0
  140.4270   70.0890  226.7090 C   0  0  0  0  0  0  0  0  0  0  0  0
  141.0330   69.5030  227.7980 C   0  0  0  0  0  0  0  0  0  0  0  0
  140.9800   68.1280  227.9400 C   0  0  0  0  0  0  0  0  0  0  0  0
  140.3150   67.3850  226.9750 C   0  0  0  0  0  0  0  0  0  0  0  0
  139.7190   68.0030  225.8960 C   0  0  0  0  0  0  0  0  0  0  0  0
  139.7640   69.3720  225.7410 C   0  0  0  0  0  0  0  0  0  0  0  0
  139.1030   69.9560  224.5640 C   0  0  0  0  0  0  0  0  0  0  0  0
  139.8440   73.0660  222.7050 N   0  0  0  0  0  0  0  0  0  0  0  0
  141.2060   75.0830  220.3640 C   0  0  0  0  0  0  0  0  0  0  0  0
  141.6700   76.4720  220.1110 C   0  0  0  0  0  0  0  0  0  0  0  0
  140.8550   80.7140  222.1400 C   0  0  0  0  0  0  0  0  0  0  0  0
  141.0760   81.6480  223.1470 C   0  0  0  0  0  0  0  0  0  0  0  0
  142.3760   82.2935  224.7344 H   0  0  0  0  0  0  0  0  0  0  0  0
  144.0015   80.4503  224.3385 H   0  0  0  0  0  0  0  0  0  0  0  0
  143.5830   78.8175  222.5497 H   0  0  0  0  0  0  0  0  0  0  0  0
  140.5554   78.7501  220.4580 H   0  0  0  0  0  0  0  0  0  0  0  0
  142.3651   78.8701  220.1173 H   0  0  0  0  0  0  0  0  0  0  0  0
  141.6657   76.1774  222.9868 H   0  0  0  0  0  0  0  0  0  0  0  0
  140.8267   77.7702  223.0426 H   0  0  0  0  0  0  0  0  0  0  0  0
  139.1418   76.0079  222.8880 H   0  0  0  0  0  0  0  0  0  0  0  0
  139.1615   76.8794  221.3473 H   0  0  0  0  0  0  0  0  0  0  0  0
  136.1872   69.9990  221.5007 H   0  0  0  0  0  0  0  0  0  0  0  0
  135.2772   71.5255  221.3444 H   0  0  0  0  0  0  0  0  0  0  0  0
  134.2698   69.5464  220.0833 H   0  0  0  0  0  0  0  0  0  0  0  0
  134.6106   70.9697  219.0599 H   0  0  0  0  0  0  0  0  0  0  0  0
  135.3740   68.8250  218.1880 H   0  0  0  0  0  0  0  0  0  0  0  0
  137.7841   69.6050  217.8856 H   0  0  0  0  0  0  0  0  0  0  0  0
  136.3600   70.4648  217.1509 H   0  0  0  0  0  0  0  0  0  0  0  0
  138.3226   71.6582  218.6110 H   0  0  0  0  0  0  0  0  0  0  0  0
  136.6126   72.2625  218.4000 H   0  0  0  0  0  0  0  0  0  0  0  0
  141.7202   71.4574  224.8139 H   0  0  0  0  0  0  0  0  0  0  0  0
  140.6793   72.9383  224.9236 H   0  0  0  0  0  0  0  0  0  0  0  0
  141.3130   71.9967  227.1636 H   0  0  0  0  0  0  0  0  0  0  0  0
  139.5613   72.0648  226.9090 H   0  0  0  0  0  0  0  0  0  0  0  0
  141.5526   70.1205  228.5455 H   0  0  0  0  0  0  0  0  0  0  0  0
  141.4552   67.6338  228.8002 H   0  0  0  0  0  0  0  0  0  0  0  0
  140.2627   66.2905  227.0719 H   0  0  0  0  0  0  0  0  0  0  0  0
  139.1976   67.3919  225.1445 H   0  0  0  0  0  0  0  0  0  0  0  0
  139.2077   69.2759  223.7058 H   0  0  0  0  0  0  0  0  0  0  0  0
  138.0338   70.1080  224.7730 H   0  0  0  0  0  0  0  0  0  0  0  0
  142.0584   74.4931  220.7320 H   0  0  0  0  0  0  0  0  0  0  0  0
  140.8096   74.6969  219.4133 H   0  0  0  0  0  0  0  0  0  0  0  0
  142.6638   76.4160  219.6428 H   0  0  0  0  0  0  0  0  0  0  0  0
  140.9010   76.9328  219.4736 H   0  0  0  0  0  0  0  0  0  0  0  0
  139.9509   80.8015  221.5195 H   0  0  0  0  0  0  0  0  0  0  0  0
  140.3520   82.4595  223.3121 H   0  0  0  0  0  0  0  0  0  0  0  0
  1  2  2  0
  2  3  1  0
  3  4  2  0
  4  5  1  0
  5  6  1  0
  6  7  1  0
  7  8  1  0
  8  9  1  0
  9 10  1  0
 10 11  2  0
 11 12  1  0
 12 13  1  0
 13 14  1  0
 14 15  1  0
 15 16  1  0
 16 17  1  0
 17 18  1  0
 12 19  2  0
 19 20  1  0
 20 21  1  0
 21 22  1  0
 22 23  1  0
 23 24  1  0
 24 25  2  0
 25 26  1  0
 26 27  2  0
 27 28  1  0
 28 29  2  0
 29 30  1  0
 20 31  2  0
  9 32  1  0
 32 33  1  0
  4 34  1  0
 34 35  2  0
 35  1  1  0
 33  6  1  0
 31 10  1  0
 18 13  1  0
 30 21  1  0
 29 24  1  0
  1 36  1  0
  2 37  1  0
  3 38  1  0
  5 39  1  0
  5 40  1  0
  7 41  1  0
  7 42  1  0
  8 43  1  0
  8 44  1  0
 14 45  1  0
 14 46  1  0
 15 47  1  0
 15 48  1  0
 16 49  1  0
 17 50  1  0
 17 51  1  0
 18 52  1  0
 18 53  1  0
 22 54  1  0
 22 55  1  0
 23 56  1  0
 23 57  1  0
 25 58  1  0
 26 59  1  0
 27 60  1  0
 28 61  1  0
 30 62  1  0
 30 63  1  0
 32 64  1  0
 32 65  1  0
 33 66  1  0
 33 67  1  0
 34 68  1  0
 35 69  1  0
M  END
>  <smiles>  (27) 
c1ccc(CN2CCN(c3nc(N4CCNCC4)nc(N4CCc5ccccc5C4)n3)CC2)cc1

>  <score_type>  (27) 
oracle

>  <origin>  (27) 
autodockgpu

>  <m_score__min__energy>  (27) 
-9.8499999999999996

>  <m_primary>  (27) 
energy

>  <rmsd>  (27) 
3.250113012726976

>  <m_score__min__rmsd>  (27) 
3.250113012726976

>  <meeko>  (27) 
{"free_energy": -8.8, "intermolecular_energy": -10.29, "internal_energy": -1.12, "cluster_size": 6, "cluster_id": 2, "rank_in_cluster": 4}

>  <energy>  (27) 
-9.21

>  <cluster_rmsd>  (27) 
1.47

>  <cluster>  (27) 
1

$$$$

     RDKit          3D

 69 74  0  0  0  0  0  0  0  0999 V2000
  142.2010   81.5460  223.8940 C   0  0  0  0  0  0  0  0  0  0  0  0
  143.0870   80.5110  223.6830 C   0  0  0  0  0  0  0  0  0  0  0  0
  142.8350   79.5980  222.6830 C   0  0  0  0  0  0  0  0  0  0  0  0
  141.7190   79.6650  221.8640 C   0  0  0  0  0  0  0  0  0  0  0  0
  141.5490   78.6460  220.8290 C   0  0  0  0  0  0  0  0  0  0  0  0
  141.7680   77.3000  221.2410 N   0  0  0  0  0  0  0  0  0  0  0  0
  141.0540   76.8640  222.3880 C   0  0  0  0  0  0  0  0  0  0  0  0
  139.7670   76.1800  221.9730 C   0  0  0  0  0  0  0  0  0  0  0  0
  140.1670   74.9560  221.3010 N   0  0  0  0  0  0  0  0  0  0  0  0
  139.5620   73.6980  221.5630 C   0  0  0  0  0  0  0  0  0  0  0  0
  138.6670   73.1220  220.7470 N   0  0  0  0  0  0  0  0  0  0  0  0
  138.1070   71.9150  221.0320 C   0  0  0  0  0  0  0  0  0  0  0  0
  137.1530   71.3040  220.1610 N   0  0  0  0  0  0  0  0  0  0  0  0
  136.7870   71.9740  218.9370 C   0  0  0  0  0  0  0  0  0  0  0  0
  135.7070   71.1540  218.2660 C   0  0  0  0  0  0  0  0  0  0  0  0
  134.6770   70.8800  219.2470 N   0  0  0  0  0  0  0  0  0  0  0  0
  135.1130   69.9260  220.2420 C   0  0  0  0  0  0  0  0  0  0  0  0
  136.5890   70.0380  220.5400 C   0  0  0  0  0  0  0  0  0  0  0  0
  138.4820   71.2890  222.1850 N   0  0  0  0  0  0  0  0  0  0  0  0
  139.3760   71.8350  223.0260 C   0  0  0  0  0  0  0  0  0  0  0  0
  139.7820   71.1910  224.2440 N   0  0  0  0  0  0  0  0  0  0  0  0
  140.7180   71.8690  225.1120 C   0  0  0  0  0  0  0  0  0  0  0  0
  140.4410   71.5800  226.5740 C   0  0  0  0  0  0  0  0  0  0  0  0
  140.4580   70.0810  226.7110 C   0  0  0  0  0  0  0  0  0  0  0  0
  141.0570   69.5210  227.8170 C   0  0  0  0  0  0  0  0  0  0  0  0
  141.0770   68.1440  227.9500 C   0  0  0  0  0  0  0  0  0  0  0  0
  140.4880   67.3720  226.9580 C   0  0  0  0  0  0  0  0  0  0  0  0
  139.8960   67.9640  225.8630 C   0  0  0  0  0  0  0  0  0  0  0  0
  139.8690   69.3350  225.7160 C   0  0  0  0  0  0  0  0  0  0  0  0
  139.2180   69.8890  224.5200 C   0  0  0  0  0  0  0  0  0  0  0  0
  139.8870   73.0270  222.6810 N   0  0  0  0  0  0  0  0  0  0  0  0
  141.2320   75.0580  220.3320 C   0  0  0  0  0  0  0  0  0  0  0  0
  141.6750   76.4540  220.0810 C   0  0  0  0  0  0  0  0  0  0  0  0
  140.8520   80.7110  222.0990 C   0  0  0  0  0  0  0  0  0  0  0  0
  141.0820   81.6470  223.1020 C   0  0  0  0  0  0  0  0  0  0  0  0
  142.3877   82.2837  224.6883 H   0  0  0  0  0  0  0  0  0  0  0  0
  143.9873   80.4152  224.3078 H   0  0  0  0  0  0  0  0  0  0  0  0
  143.5521   78.7785  222.5273 H   0  0  0  0  0  0  0  0  0  0  0  0
  140.5192   78.7193  220.4494 H   0  0  0  0  0  0  0  0  0  0  0  0
  142.3207   78.8562  220.0738 H   0  0  0  0  0  0  0  0  0  0  0  0
  141.6755   76.1558  222.9557 H   0  0  0  0  0  0  0  0  0  0  0  0
  140.8122   77.7357  223.0138 H   0  0  0  0  0  0  0  0  0  0  0  0
  139.1541   75.9489  222.8567 H   0  0  0  0  0  0  0  0  0  0  0  0
  139.1611   76.8222  221.3169 H   0  0  0  0  0  0  0  0  0  0  0  0
  136.4069   72.9816  219.1612 H   0  0  0  0  0  0  0  0  0  0  0  0
  137.6611   72.0721  218.2765 H   0  0  0  0  0  0  0  0  0  0  0  0
  135.2795   71.7178  217.4237 H   0  0  0  0  0  0  0  0  0  0  0  0
  136.1264   70.2132  217.8800 H   0  0  0  0  0  0  0  0  0  0  0  0
  133.8600   70.4610  218.7420 H   0  0  0  0  0  0  0  0  0  0  0  0
  134.5508   70.1027  221.1708 H   0  0  0  0  0  0  0  0  0  0  0  0
  134.9272   68.9177  219.8436 H   0  0  0  0  0  0  0  0  0  0  0  0
  136.7380   69.8995  221.6210 H   0  0  0  0  0  0  0  0  0  0  0  0
  137.0996   69.2645  219.9475 H   0  0  0  0  0  0  0  0  0  0  0  0
  141.7367   71.5323  224.8693 H   0  0  0  0  0  0  0  0  0  0  0  0
  140.6106   72.9519  224.9513 H   0  0  0  0  0  0  0  0  0  0  0  0
  141.2198   72.0305  227.2069 H   0  0  0  0  0  0  0  0  0  0  0  0
  139.4768   72.0028  226.8927 H   0  0  0  0  0  0  0  0  0  0  0  0
  141.5144   70.1610  228.5860 H   0  0  0  0  0  0  0  0  0  0  0  0
  141.5496   67.6709  228.8234 H   0  0  0  0  0  0  0  0  0  0  0  0
  140.4938   66.2756  227.0467 H   0  0  0  0  0  0  0  0  0  0  0  0
  139.4358   67.3301  225.0908 H   0  0  0  0  0  0  0  0  0  0  0  0
  139.3906   69.2219  223.6625 H   0  0  0  0  0  0  0  0  0  0  0  0
  138.1352   69.9793  224.6916 H   0  0  0  0  0  0  0  0  0  0  0  0
  142.0931   74.4804  220.6993 H   0  0  0  0  0  0  0  0  0  0  0  0
  140.8417   74.6670  219.3808 H   0  0  0  0  0  0  0  0  0  0  0  0
  142.6694   76.4133  219.6124 H   0  0  0  0  0  0  0  0  0  0  0  0
  140.8985   76.9038  219.4449 H   0  0  0  0  0  0  0  0  0  0  0  0
  139.9516   80.8082  221.4747 H   0  0  0  0  0  0  0  0  0  0  0  0
  140.3680   82.4685  223.2615 H   0  0  0  0  0  0  0  0  0  0  0  0
  1  2  2  0
  2  3  1  0
  3  4  2  0
  4  5  1  0
  5  6  1  0
  6  7  1  0
  7  8  1  0
  8  9  1  0
  9 10  1  0
 10 11  2  0
 11 12  1  0
 12 13  1  0
 13 14  1  0
 14 15  1  0
 15 16  1  0
 16 17  1  0
 17 18  1  0
 12 19  2  0
 19 20  1  0
 20 21  1  0
 21 22  1  0
 22 23  1  0
 23 24  1  0
 24 25  2  0
 25 26  1  0
 26 27  2  0
 27 28  1  0
 28 29  2  0
 29 30  1  0
 20 31  2  0
  9 32  1  0
 32 33  1  0
  4 34  1  0
 34 35  2  0
 35  1  1  0
 33  6  1  0
 31 10  1  0
 18 13  1  0
 30 21  1  0
 29 24  1  0
  1 36  1  0
  2 37  1  0
  3 38  1  0
  5 39  1  0
  5 40  1  0
  7 41  1  0
  7 42  1  0
  8 43  1  0
  8 44  1  0
 14 45  1  0
 14 46  1  0
 15 47  1  0
 15 48  1  0
 16 49  1  0
 17 50  1  0
 17 51  1  0
 18 52  1  0
 18 53  1  0
 22 54  1  0
 22 55  1  0
 23 56  1  0
 23 57  1  0
 25 58  1  0
 26 59  1  0
 27 60  1  0
 28 61  1  0
 30 62  1  0
 30 63  1  0
 32 64  1  0
 32 65  1  0
 33 66  1  0
 33 67  1  0
 34 68  1  0
 35 69  1  0
M  END
>  <smiles>  (28) 
c1ccc(CN2CCN(c3nc(N4CCNCC4)nc(N4CCc5ccccc5C4)n3)CC2)cc1

>  <score_type>  (28) 
oracle

>  <origin>  (28) 
autodockgpu

>  <m_score__min__energy>  (28) 
-9.8499999999999996

>  <m_primary>  (28) 
energy

>  <rmsd>  (28) 
3.240277126949236

>  <m_score__min__rmsd>  (28) 
3.240277126949236

>  <meeko>  (28) 
{"free_energy": -8.85, "intermolecular_energy": -10.34, "internal_energy": -1.14, "cluster_size": 6, "cluster_id": 2, "rank_in_cluster": 1}

>  <energy>  (28) 
-9.21

>  <cluster_rmsd>  (28) 
1.48

>  <cluster>  (28) 
1

$$$$

     RDKit          3D

 69 74  0  0  0  0  0  0  0  0999 V2000
  142.6130   80.4180  223.5220 C   0  0  0  0  0  0  0  0  0  0  0  0
  141.8040   79.5080  224.1680 C   0  0  0  0  0  0  0  0  0  0  0  0
  140.5730   79.1980  223.6320 C   0  0  0  0  0  0  0  0  0  0  0  0
  140.0970   79.7590  222.4580 C   0  0  0  0  0  0  0  0  0  0  0  0
  138.7780   79.3560  221.9740 C   0  0  0  0  0  0  0  0  0  0  0  0
  138.6890   78.0390  221.4380 N   0  0  0  0  0  0  0  0  0  0  0  0
  139.7750   77.6090  220.6310 C   0  0  0  0  0  0  0  0  0  0  0  0
  140.7760   76.8430  221.4720 C   0  0  0  0  0  0  0  0  0  0  0  0
  140.1040   75.6170  221.8710 N   0  0  0  0  0  0  0  0  0  0  0  0
  140.7190   74.3390  221.7940 C   0  0  0  0  0  0  0  0  0  0  0  0
  141.6210   74.0060  220.8590 N   0  0  0  0  0  0  0  0  0  0  0  0
  142.1890   72.7700  220.8170 C   0  0  0  0  0  0  0  0  0  0  0  0
  143.1480   72.4170  219.8190 N   0  0  0  0  0  0  0  0  0  0  0  0
  144.0710   71.3390  220.0790 C   0  0  0  0  0  0  0  0  0  0  0  0
  145.0170   71.2460  218.9010 C   0  0  0  0  0  0  0  0  0  0  0  0
  145.5440   72.5710  218.6450 N   0  0  0  0  0  0  0  0  0  0  0  0
  144.5490   73.4520  218.0770 C   0  0  0  0  0  0  0  0  0  0  0  0
  143.1580   73.1540  218.5850 C   0  0  0  0  0  0  0  0  0  0  0  0
  141.8170   71.8600  221.7630 N   0  0  0  0  0  0  0  0  0  0  0  0
  140.9180   72.1590  222.7150 C   0  0  0  0  0  0  0  0  0  0  0  0
  140.5150   71.2120  223.7180 N   0  0  0  0  0  0  0  0  0  0  0  0
  139.2870   70.4740  223.5250 C   0  0  0  0  0  0  0  0  0  0  0  0
  139.3800   69.0700  224.0870 C   0  0  0  0  0  0  0  0  0  0  0  0
  139.7780   69.2250  225.5310 C   0  0  0  0  0  0  0  0  0  0  0  0
  139.1870   68.4150  226.4740 C   0  0  0  0  0  0  0  0  0  0  0  0
  139.5480   68.5520  227.8030 C   0  0  0  0  0  0  0  0  0  0  0  0
  140.4980   69.5060  228.1390 C   0  0  0  0  0  0  0  0  0  0  0  0
  141.0710   70.3020  227.1690 C   0  0  0  0  0  0  0  0  0  0  0  0
  140.7210   70.1770  225.8410 C   0  0  0  0  0  0  0  0  0  0  0  0
  141.3770   71.0630  224.8680 C   0  0  0  0  0  0  0  0  0  0  0  0
  140.3990   73.3950  222.6960 N   0  0  0  0  0  0  0  0  0  0  0  0
  138.7520   75.7410  222.3590 C   0  0  0  0  0  0  0  0  0  0  0  0
  138.2950   77.1490  222.4960 C   0  0  0  0  0  0  0  0  0  0  0  0
  140.9300   80.6650  221.8340 C   0  0  0  0  0  0  0  0  0  0  0  0
  142.1770   80.9970  222.3530 C   0  0  0  0  0  0  0  0  0  0  0  0
  143.5977   80.6786  223.9373 H   0  0  0  0  0  0  0  0  0  0  0  0
  142.1379   79.0337  225.1026 H   0  0  0  0  0  0  0  0  0  0  0  0
  139.9387   78.4713  224.1608 H   0  0  0  0  0  0  0  0  0  0  0  0
  138.0739   79.4257  222.8162 H   0  0  0  0  0  0  0  0  0  0  0  0
  138.5465   80.0340  221.1393 H   0  0  0  0  0  0  0  0  0  0  0  0
  139.3973   76.9563  219.8302 H   0  0  0  0  0  0  0  0  0  0  0  0
  140.2698   78.4888  220.1939 H   0  0  0  0  0  0  0  0  0  0  0  0
  141.6749   76.6121  220.8815 H   0  0  0  0  0  0  0  0  0  0  0  0
  141.1023   77.4277  222.3447 H   0  0  0  0  0  0  0  0  0  0  0  0
  144.6379   71.5453  220.9988 H   0  0  0  0  0  0  0  0  0  0  0  0
  143.5280   70.3916  220.2116 H   0  0  0  0  0  0  0  0  0  0  0  0
  145.8404   70.5558  219.1369 H   0  0  0  0  0  0  0  0  0  0  0  0
  144.4875   70.8673  218.0144 H   0  0  0  0  0  0  0  0  0  0  0  0
  146.3190   72.4740  217.9450 H   0  0  0  0  0  0  0  0  0  0  0  0
  144.8056   74.4894  218.3379 H   0  0  0  0  0  0  0  0  0  0  0  0
  144.5480   73.2985  216.9878 H   0  0  0  0  0  0  0  0  0  0  0  0
  142.6328   74.1074  218.7437 H   0  0  0  0  0  0  0  0  0  0  0  0
  142.6625   72.5281  217.8283 H   0  0  0  0  0  0  0  0  0  0  0  0
  138.4683   71.0066  224.0310 H   0  0  0  0  0  0  0  0  0  0  0  0
  139.1003   70.3977  222.4436 H   0  0  0  0  0  0  0  0  0  0  0  0
  138.4067   68.5630  224.0114 H   0  0  0  0  0  0  0  0  0  0  0  0
  140.1092   68.4618  223.5317 H   0  0  0  0  0  0  0  0  0  0  0  0
  138.4370   67.6680  226.1750 H   0  0  0  0  0  0  0  0  0  0  0  0
  139.0913   67.9177  228.5770 H   0  0  0  0  0  0  0  0  0  0  0  0
  140.7974   69.6288  229.1903 H   0  0  0  0  0  0  0  0  0  0  0  0
  141.8218   71.0512  227.4605 H   0  0  0  0  0  0  0  0  0  0  0  0
  141.5556   72.0471  225.3260 H   0  0  0  0  0  0  0  0  0  0  0  0
  142.3402   70.6306  224.5593 H   0  0  0  0  0  0  0  0  0  0  0  0
  138.0805   75.2242  221.6576 H   0  0  0  0  0  0  0  0  0  0  0  0
  138.7301   75.2957  223.3646 H   0  0  0  0  0  0  0  0  0  0  0  0
  137.1960   77.1445  222.5419 H   0  0  0  0  0  0  0  0  0  0  0  0
  138.7784   77.5334  223.4062 H   0  0  0  0  0  0  0  0  0  0  0  0
  140.5980   81.1387  220.8984 H   0  0  0  0  0  0  0  0  0  0  0  0
  142.8151   81.7232  221.8281 H   0  0  0  0  0  0  0  0  0  0  0  0
  1  2  2  0
  2  3  1  0
  3  4  2  0
  4  5  1  0
  5  6  1  0
  6  7  1  0
  7  8  1  0
  8  9  1  0
  9 10  1  0
 10 11  2  0
 11 12  1  0
 12 13  1  0
 13 14  1  0
 14 15  1  0
 15 16  1  0
 16 17  1  0
 17 18  1  0
 12 19  2  0
 19 20  1  0
 20 21  1  0
 21 22  1  0
 22 23  1  0
 23 24  1  0
 24 25  2  0
 25 26  1  0
 26 27  2  0
 27 28  1  0
 28 29  2  0
 29 30  1  0
 20 31  2  0
  9 32  1  0
 32 33  1  0
  4 34  1  0
 34 35  2  0
 35  1  1  0
 33  6  1  0
 31 10  1  0
 18 13  1  0
 30 21  1  0
 29 24  1  0
  1 36  1  0
  2 37  1  0
  3 38  1  0
  5 39  1  0
  5 40  1  0
  7 41  1  0
  7 42  1  0
  8 43  1  0
  8 44  1  0
 14 45  1  0
 14 46  1  0
 15 47  1  0
 15 48  1  0
 16 49  1  0
 17 50  1  0
 17 51  1  0
 18 52  1  0
 18 53  1  0
 22 54  1  0
 22 55  1  0
 23 56  1  0
 23 57  1  0
 25 58  1  0
 26 59  1  0
 27 60  1  0
 28 61  1  0
 30 62  1  0
 30 63  1  0
 32 64  1  0
 32 65  1  0
 33 66  1  0
 33 67  1  0
 34 68  1  0
 35 69  1  0
M  END
>  <smiles>  (29) 
c1ccc(CN2CCN(c3nc(N4CCNCC4)nc(N4CCc5ccccc5C4)n3)CC2)cc1

>  <score_type>  (29) 
oracle

>  <origin>  (29) 
autodockgpu

>  <m_score__min__energy>  (29) 
-9.8499999999999996

>  <m_primary>  (29) 
energy

>  <rmsd>  (29) 
3.9836112536371746

>  <m_score__min__rmsd>  (29) 
3.9836112536371746

>  <meeko>  (29) 
{"free_energy": -9.23, "intermolecular_energy": -10.72, "internal_energy": -1.22, "cluster_size": 43, "cluster_id": 1, "rank_in_cluster": 23}

>  <energy>  (29) 
-9.2

>  <cluster_rmsd>  (29) 
1.46

>  <cluster>  (29) 
1

$$$$

     RDKit          3D

 69 74  0  0  0  0  0  0  0  0999 V2000
  141.0740   68.1590  228.1330 C   0  0  0  0  0  0  0  0  0  0  0  0
  141.0280   67.6410  226.8560 C   0  0  0  0  0  0  0  0  0  0  0  0
  140.1130   68.1410  225.9560 C   0  0  0  0  0  0  0  0  0  0  0  0
  139.2210   69.1540  226.2700 C   0  0  0  0  0  0  0  0  0  0  0  0
  138.2940   69.6150  225.2380 C   0  0  0  0  0  0  0  0  0  0  0  0
  138.5170   70.9330  224.7460 N   0  0  0  0  0  0  0  0  0  0  0  0
  139.8040   71.4860  224.9770 C   0  0  0  0  0  0  0  0  0  0  0  0
  140.6980   71.2430  223.7780 C   0  0  0  0  0  0  0  0  0  0  0  0
  140.1410   72.0420  222.6990 N   0  0  0  0  0  0  0  0  0  0  0  0
  140.9380   72.8570  221.8510 C   0  0  0  0  0  0  0  0  0  0  0  0
  141.8070   72.3670  220.9560 N   0  0  0  0  0  0  0  0  0  0  0  0
  142.5550   73.1790  220.1610 C   0  0  0  0  0  0  0  0  0  0  0  0
  143.4810   72.6540  219.2080 N   0  0  0  0  0  0  0  0  0  0  0  0
  144.4640   71.6900  219.6390 C   0  0  0  0  0  0  0  0  0  0  0  0
  145.3560   71.3790  218.4570 C   0  0  0  0  0  0  0  0  0  0  0  0
  145.8100   72.6350  217.8960 N   0  0  0  0  0  0  0  0  0  0  0  0
  144.7490   73.3400  217.2100 C   0  0  0  0  0  0  0  0  0  0  0  0
  143.3990   73.1100  217.8480 C   0  0  0  0  0  0  0  0  0  0  0  0
  142.3990   74.5280  220.2940 N   0  0  0  0  0  0  0  0  0  0  0  0
  141.5370   75.0550  221.1800 C   0  0  0  0  0  0  0  0  0  0  0  0
  141.3610   76.4730  221.3330 N   0  0  0  0  0  0  0  0  0  0  0  0
  141.4850   77.3200  220.1680 C   0  0  0  0  0  0  0  0  0  0  0  0
  140.5420   78.5040  220.2300 C   0  0  0  0  0  0  0  0  0  0  0  0
  140.8400   79.2050  221.5290 C   0  0  0  0  0  0  0  0  0  0  0  0
  140.8610   80.5820  221.5520 C   0  0  0  0  0  0  0  0  0  0  0  0
  141.1350   81.2330  222.7420 C   0  0  0  0  0  0  0  0  0  0  0  0
  141.3790   80.4710  223.8750 C   0  0  0  0  0  0  0  0  0  0  0  0
  141.3510   79.0930  223.8180 C   0  0  0  0  0  0  0  0  0  0  0  0
  141.0810   78.4310  222.6400 C   0  0  0  0  0  0  0  0  0  0  0  0
  141.0690   76.9600  222.6620 C   0  0  0  0  0  0  0  0  0  0  0  0
  140.8340   74.1940  221.9300 N   0  0  0  0  0  0  0  0  0  0  0  0
  138.7120   71.9820  222.5100 C   0  0  0  0  0  0  0  0  0  0  0  0
  138.0360   70.9950  223.3920 C   0  0  0  0  0  0  0  0  0  0  0  0
  139.2920   69.6530  227.5540 C   0  0  0  0  0  0  0  0  0  0  0  0
  140.2060   69.1660  228.4830 C   0  0  0  0  0  0  0  0  0  0  0  0
  141.7980   67.7704  228.8644 H   0  0  0  0  0  0  0  0  0  0  0  0
  141.7158   66.8357  226.5587 H   0  0  0  0  0  0  0  0  0  0  0  0
  140.0892   67.7167  224.9414 H   0  0  0  0  0  0  0  0  0  0  0  0
  138.3644   68.9212  224.3873 H   0  0  0  0  0  0  0  0  0  0  0  0
  137.3037   69.6391  225.7163 H   0  0  0  0  0  0  0  0  0  0  0  0
  139.7096   72.5687  225.1470 H   0  0  0  0  0  0  0  0  0  0  0  0
  140.2488   71.0057  225.8610 H   0  0  0  0  0  0  0  0  0  0  0  0
  141.7279   71.5610  223.9976 H   0  0  0  0  0  0  0  0  0  0  0  0
  140.7374   70.1762  223.5125 H   0  0  0  0  0  0  0  0  0  0  0  0
  145.0638   72.1089  220.4605 H   0  0  0  0  0  0  0  0  0  0  0  0
  143.9721   70.7749  220.0005 H   0  0  0  0  0  0  0  0  0  0  0  0
  146.2200   70.7839  218.7877 H   0  0  0  0  0  0  0  0  0  0  0  0
  144.8025   70.8012  217.7022 H   0  0  0  0  0  0  0  0  0  0  0  0
  146.5540   72.4180  217.1900 H   0  0  0  0  0  0  0  0  0  0  0  0
  144.9702   74.4173  217.2298 H   0  0  0  0  0  0  0  0  0  0  0  0
  144.7030   72.9571  216.1798 H   0  0  0  0  0  0  0  0  0  0  0  0
  142.8393   74.0568  217.8308 H   0  0  0  0  0  0  0  0  0  0  0  0
  142.8971   72.3199  217.2702 H   0  0  0  0  0  0  0  0  0  0  0  0
  142.5187   77.6910  220.1060 H   0  0  0  0  0  0  0  0  0  0  0  0
  141.2255   76.7224  219.2817 H   0  0  0  0  0  0  0  0  0  0  0  0
  140.7212   79.1801  219.3810 H   0  0  0  0  0  0  0  0  0  0  0  0
  139.4907   78.1847  220.1766 H   0  0  0  0  0  0  0  0  0  0  0  0
  140.6624   81.1572  220.6357 H   0  0  0  0  0  0  0  0  0  0  0  0
  141.1588   82.3318  222.7884 H   0  0  0  0  0  0  0  0  0  0  0  0
  141.5974   80.9713  224.8300 H   0  0  0  0  0  0  0  0  0  0  0  0
  141.5480   78.5113  224.7306 H   0  0  0  0  0  0  0  0  0  0  0  0
  141.8313   76.5944  223.3657 H   0  0  0  0  0  0  0  0  0  0  0  0
  140.0813   76.5986  222.9844 H   0  0  0  0  0  0  0  0  0  0  0  0
  138.2919   72.9775  222.7160 H   0  0  0  0  0  0  0  0  0  0  0  0
  138.5371   71.6605  221.4727 H   0  0  0  0  0  0  0  0  0  0  0  0
  136.9663   71.2491  223.4252 H   0  0  0  0  0  0  0  0  0  0  0  0
  138.2482   70.0085  222.9541 H   0  0  0  0  0  0  0  0  0  0  0  0
  138.6060   70.4595  227.8521 H   0  0  0  0  0  0  0  0  0  0  0  0
  140.2342   69.5872  229.4988 H   0  0  0  0  0  0  0  0  0  0  0  0
  1  2  2  0
  2  3  1  0
  3  4  2  0
  4  5  1  0
  5  6  1  0
  6  7  1  0
  7  8  1  0
  8  9  1  0
  9 10  1  0
 10 11  2  0
 11 12  1  0
 12 13  1  0
 13 14  1  0
 14 15  1  0
 15 16  1  0
 16 17  1  0
 17 18  1  0
 12 19  2  0
 19 20  1  0
 20 21  1  0
 21 22  1  0
 22 23  1  0
 23 24  1  0
 24 25  2  0
 25 26  1  0
 26 27  2  0
 27 28  1  0
 28 29  2  0
 29 30  1  0
 20 31  2  0
  9 32  1  0
 32 33  1  0
  4 34  1  0
 34 35  2  0
 35  1  1  0
 33  6  1  0
 31 10  1  0
 18 13  1  0
 30 21  1  0
 29 24  1  0
  1 36  1  0
  2 37  1  0
  3 38  1  0
  5 39  1  0
  5 40  1  0
  7 41  1  0
  7 42  1  0
  8 43  1  0
  8 44  1  0
 14 45  1  0
 14 46  1  0
 15 47  1  0
 15 48  1  0
 16 49  1  0
 17 50  1  0
 17 51  1  0
 18 52  1  0
 18 53  1  0
 22 54  1  0
 22 55  1  0
 23 56  1  0
 23 57  1  0
 25 58  1  0
 26 59  1  0
 27 60  1  0
 28 61  1  0
 30 62  1  0
 30 63  1  0
 32 64  1  0
 32 65  1  0
 33 66  1  0
 33 67  1  0
 34 68  1  0
 35 69  1  0
M  END
>  <smiles>  (30) 
c1ccc(CN2CCN(c3nc(N4CCNCC4)nc(N4CCc5ccccc5C4)n3)CC2)cc1

>  <score_type>  (30) 
oracle

>  <origin>  (30) 
autodockgpu

>  <m_score__min__energy>  (30) 
-9.8499999999999996

>  <m_primary>  (30) 
energy

>  <rmsd>  (30) 
11.028814522170862

>  <m_score__min__rmsd>  (30) 
11.028814522170862

>  <meeko>  (30) 
{"free_energy": -9.45, "intermolecular_energy": -10.94, "internal_energy": -1.16, "cluster_size": 43, "cluster_id": 1, "rank_in_cluster": 9}

>  <energy>  (30) 
-9.19

>  <cluster_rmsd>  (30) 
1.48

>  <cluster>  (30) 
1

$$$$

     RDKit          3D

 69 74  0  0  0  0  0  0  0  0999 V2000
  142.9620   80.1100  223.3890 C   0  0  0  0  0  0  0  0  0  0  0  0
  142.5680   80.5870  222.1570 C   0  0  0  0  0  0  0  0  0  0  0  0
  141.2840   80.3460  221.7180 C   0  0  0  0  0  0  0  0  0  0  0  0
  140.3530   79.6380  222.4600 C   0  0  0  0  0  0  0  0  0  0  0  0
  139.0160   79.4420  221.9030 C   0  0  0  0  0  0  0  0  0  0  0  0
  138.7350   78.1370  221.4050 N   0  0  0  0  0  0  0  0  0  0  0  0
  139.6790   77.5890  220.4960 C   0  0  0  0  0  0  0  0  0  0  0  0
  140.6820   76.7310  221.2400 C   0  0  0  0  0  0  0  0  0  0  0  0
  139.9350   75.5850  221.7330 N   0  0  0  0  0  0  0  0  0  0  0  0
  140.4050   74.2500  221.6160 C   0  0  0  0  0  0  0  0  0  0  0  0
  141.0750   73.7900  220.5490 N   0  0  0  0  0  0  0  0  0  0  0  0
  141.5090   72.5030  220.4720 C   0  0  0  0  0  0  0  0  0  0  0  0
  142.2220   72.0160  219.3340 N   0  0  0  0  0  0  0  0  0  0  0  0
  141.4820   71.5210  218.1990 C   0  0  0  0  0  0  0  0  0  0  0  0
  142.4790   70.9950  217.1900 C   0  0  0  0  0  0  0  0  0  0  0  0
  143.3830   70.0970  217.8800 N   0  0  0  0  0  0  0  0  0  0  0  0
  144.2880   70.8050  218.7580 C   0  0  0  0  0  0  0  0  0  0  0  0
  143.6580   72.0370  219.3620 C   0  0  0  0  0  0  0  0  0  0  0  0
  141.2460   71.6730  221.5230 N   0  0  0  0  0  0  0  0  0  0  0  0
  140.5780   72.0980  222.6080 C   0  0  0  0  0  0  0  0  0  0  0  0
  140.2920   71.2380  223.7230 N   0  0  0  0  0  0  0  0  0  0  0  0
  139.2460   70.2490  223.5880 C   0  0  0  0  0  0  0  0  0  0  0  0
  139.5660   68.9830  224.3560 C   0  0  0  0  0  0  0  0  0  0  0  0
  139.8200   69.4130  225.7770 C   0  0  0  0  0  0  0  0  0  0  0  0
  139.3280   68.6380  226.8040 C   0  0  0  0  0  0  0  0  0  0  0  0
  139.5570   69.0270  228.1120 C   0  0  0  0  0  0  0  0  0  0  0  0
  140.2800   70.1890  228.3430 C   0  0  0  0  0  0  0  0  0  0  0  0
  140.7590   70.9420  227.2920 C   0  0  0  0  0  0  0  0  0  0  0  0
  140.5370   70.5680  225.9840 C   0  0  0  0  0  0  0  0  0  0  0  0
  141.0810   71.4240  224.9190 C   0  0  0  0  0  0  0  0  0  0  0  0
  140.1810   73.3790  222.6150 N   0  0  0  0  0  0  0  0  0  0  0  0
  138.6630   75.8520  222.3600 C   0  0  0  0  0  0  0  0  0  0  0  0
  138.3700   77.3010  222.5170 C   0  0  0  0  0  0  0  0  0  0  0  0
  140.7770   79.1740  223.6880 C   0  0  0  0  0  0  0  0  0  0  0  0
  142.0670   79.4030  224.1560 C   0  0  0  0  0  0  0  0  0  0  0  0
  143.9831   80.2935  223.7547 H   0  0  0  0  0  0  0  0  0  0  0  0
  143.2717   81.1545  221.5303 H   0  0  0  0  0  0  0  0  0  0  0  0
  140.9848   80.7337  220.7331 H   0  0  0  0  0  0  0  0  0  0  0  0
  138.2851   79.6656  222.6941 H   0  0  0  0  0  0  0  0  0  0  0  0
  138.9545   80.1124  221.0331 H   0  0  0  0  0  0  0  0  0  0  0  0
  139.1526   76.9717  219.7532 H   0  0  0  0  0  0  0  0  0  0  0  0
  140.2111   78.4093  219.9921 H   0  0  0  0  0  0  0  0  0  0  0  0
  141.4832   76.4028  220.5614 H   0  0  0  0  0  0  0  0  0  0  0  0
  141.1596   77.2863  222.0607 H   0  0  0  0  0  0  0  0  0  0  0  0
  140.8080   70.7115  218.5160 H   0  0  0  0  0  0  0  0  0  0  0  0
  140.8751   72.3245  217.7562 H   0  0  0  0  0  0  0  0  0  0  0  0
  141.9513   70.4527  216.3916 H   0  0  0  0  0  0  0  0  0  0  0  0
  143.0385   71.8264  216.7365 H   0  0  0  0  0  0  0  0  0  0  0  0
  143.9610   69.6090  217.1550 H   0  0  0  0  0  0  0  0  0  0  0  0
  144.5925   70.1293  219.5708 H   0  0  0  0  0  0  0  0  0  0  0  0
  145.1515   71.1294  218.1587 H   0  0  0  0  0  0  0  0  0  0  0  0
  143.9851   72.1181  220.4091 H   0  0  0  0  0  0  0  0  0  0  0  0
  143.9819   72.8968  218.7572 H   0  0  0  0  0  0  0  0  0  0  0  0
  138.3056   70.6706  223.9726 H   0  0  0  0  0  0  0  0  0  0  0  0
  139.1565   69.9893  222.5228 H   0  0  0  0  0  0  0  0  0  0  0  0
  138.7167   68.2852  224.3138 H   0  0  0  0  0  0  0  0  0  0  0  0
  140.4368   68.4626  223.9305 H   0  0  0  0  0  0  0  0  0  0  0  0
  138.7601   67.7213  226.5870 H   0  0  0  0  0  0  0  0  0  0  0  0
  139.1740   68.4278  228.9512 H   0  0  0  0  0  0  0  0  0  0  0  0
  140.4731   70.5129  229.3764 H   0  0  0  0  0  0  0  0  0  0  0  0
  141.3294   71.8590  227.5014 H   0  0  0  0  0  0  0  0  0  0  0  0
  141.0351   72.4776  225.2319 H   0  0  0  0  0  0  0  0  0  0  0  0
  142.1288   71.1538  224.7211 H   0  0  0  0  0  0  0  0  0  0  0  0
  137.8704   75.4015  221.7445 H   0  0  0  0  0  0  0  0  0  0  0  0
  138.7041   75.4196  223.3706 H   0  0  0  0  0  0  0  0  0  0  0  0
  137.2878   77.4108  222.6810 H   0  0  0  0  0  0  0  0  0  0  0  0
  138.9870   77.6410  223.3618 H   0  0  0  0  0  0  0  0  0  0  0  0
  140.0744   78.6062  224.3157 H   0  0  0  0  0  0  0  0  0  0  0  0
  142.3709   79.0180  225.1406 H   0  0  0  0  0  0  0  0  0  0  0  0
  1  2  2  0
  2  3  1  0
  3  4  2  0
  4  5  1  0
  5  6  1  0
  6  7  1  0
  7  8  1  0
  8  9  1  0
  9 10  1  0
 10 11  2  0
 11 12  1  0
 12 13  1  0
 13 14  1  0
 14 15  1  0
 15 16  1  0
 16 17  1  0
 17 18  1  0
 12 19  2  0
 19 20  1  0
 20 21  1  0
 21 22  1  0
 22 23  1  0
 23 24  1  0
 24 25  2  0
 25 26  1  0
 26 27  2  0
 27 28  1  0
 28 29  2  0
 29 30  1  0
 20 31  2  0
  9 32  1  0
 32 33  1  0
  4 34  1  0
 34 35  2  0
 35  1  1  0
 33  6  1  0
 31 10  1  0
 18 13  1  0
 30 21  1  0
 29 24  1  0
  1 36  1  0
  2 37  1  0
  3 38  1  0
  5 39  1  0
  5 40  1  0
  7 41  1  0
  7 42  1  0
  8 43  1  0
  8 44  1  0
 14 45  1  0
 14 46  1  0
 15 47  1  0
 15 48  1  0
 16 49  1  0
 17 50  1  0
 17 51  1  0
 18 52  1  0
 18 53  1  0
 22 54  1  0
 22 55  1  0
 23 56  1  0
 23 57  1  0
 25 58  1  0
 26 59  1  0
 27 60  1  0
 28 61  1  0
 30 62  1  0
 30 63  1  0
 32 64  1  0
 32 65  1  0
 33 66  1  0
 33 67  1  0
 34 68  1  0
 35 69  1  0
M  END
>  <smiles>  (31) 
c1ccc(CN2CCN(c3nc(N4CCNCC4)nc(N4CCc5ccccc5C4)n3)CC2)cc1

>  <score_type>  (31) 
oracle

>  <origin>  (31) 
autodockgpu

>  <m_score__min__energy>  (31) 
-9.8499999999999996

>  <m_primary>  (31) 
energy

>  <rmsd>  (31) 
3.6788885691103537

>  <m_score__min__rmsd>  (31) 
3.6788885691103537

>  <meeko>  (31) 
{"free_energy": -8.8, "intermolecular_energy": -10.29, "internal_energy": -1.26, "cluster_size": 43, "cluster_id": 1, "rank_in_cluster": 42}

>  <energy>  (31) 
-9.18

>  <cluster_rmsd>  (31) 
1.43

>  <cluster>  (31) 
1

$$$$

     RDKit          3D

 69 74  0  0  0  0  0  0  0  0999 V2000
  141.1080   68.6990  227.3240 C   0  0  0  0  0  0  0  0  0  0  0  0
  140.9730   67.6520  226.4370 C   0  0  0  0  0  0  0  0  0  0  0  0
  139.9410   67.6670  225.5250 C   0  0  0  0  0  0  0  0  0  0  0  0
  139.0150   68.6950  225.4500 C   0  0  0  0  0  0  0  0  0  0  0  0
  137.9600   68.6150  224.4410 C   0  0  0  0  0  0  0  0  0  0  0  0
  138.0710   69.5270  223.3520 N   0  0  0  0  0  0  0  0  0  0  0  0
  137.9280   70.9040  223.6620 C   0  0  0  0  0  0  0  0  0  0  0  0
  139.2880   71.5310  223.8940 C   0  0  0  0  0  0  0  0  0  0  0  0
  139.9600   71.5100  222.6060 N   0  0  0  0  0  0  0  0  0  0  0  0
  140.6590   72.6300  222.0820 C   0  0  0  0  0  0  0  0  0  0  0  0
  141.7780   72.5290  221.3500 N   0  0  0  0  0  0  0  0  0  0  0  0
  142.4220   73.6250  220.8660 C   0  0  0  0  0  0  0  0  0  0  0  0
  143.6150   73.5140  220.0880 N   0  0  0  0  0  0  0  0  0  0  0  0
  143.5410   73.6800  218.6570 C   0  0  0  0  0  0  0  0  0  0  0  0
  144.9200   73.4240  218.0890 C   0  0  0  0  0  0  0  0  0  0  0  0
  145.3980   72.1650  218.6220 N   0  0  0  0  0  0  0  0  0  0  0  0
  145.7350   72.2610  220.0250 C   0  0  0  0  0  0  0  0  0  0  0  0
  144.8530   73.2390  220.7640 C   0  0  0  0  0  0  0  0  0  0  0  0
  141.8960   74.8530  221.1420 N   0  0  0  0  0  0  0  0  0  0  0  0
  140.7760   74.9930  221.8710 C   0  0  0  0  0  0  0  0  0  0  0  0
  140.2090   76.2780  222.1720 N   0  0  0  0  0  0  0  0  0  0  0  0
  141.0650   77.3060  222.7220 C   0  0  0  0  0  0  0  0  0  0  0  0
  140.6680   78.6860  222.2400 C   0  0  0  0  0  0  0  0  0  0  0  0
  139.2140   78.8490  222.5960 C   0  0  0  0  0  0  0  0  0  0  0  0
  138.7800   80.0620  223.0830 C   0  0  0  0  0  0  0  0  0  0  0  0
  137.4460   80.2180  223.4130 C   0  0  0  0  0  0  0  0  0  0  0  0
  136.5880   79.1420  223.2400 C   0  0  0  0  0  0  0  0  0  0  0  0
  137.0540   77.9400  222.7500 C   0  0  0  0  0  0  0  0  0  0  0  0
  138.3810   77.7690  222.4180 C   0  0  0  0  0  0  0  0  0  0  0  0
  138.8010   76.4570  221.9010 C   0  0  0  0  0  0  0  0  0  0  0  0
  140.1950   73.8690  222.3160 N   0  0  0  0  0  0  0  0  0  0  0  0
  139.8910   70.2820  221.8500 C   0  0  0  0  0  0  0  0  0  0  0  0
  139.2330   69.1690  222.5830 C   0  0  0  0  0  0  0  0  0  0  0  0
  139.1770   69.7290  226.3480 C   0  0  0  0  0  0  0  0  0  0  0  0
  140.2100   69.7390  227.2800 C   0  0  0  0  0  0  0  0  0  0  0  0
  141.9260   68.7021  228.0594 H   0  0  0  0  0  0  0  0  0  0  0  0
  141.6832   66.8122  226.4576 H   0  0  0  0  0  0  0  0  0  0  0  0
  139.8476   66.8243  224.8241 H   0  0  0  0  0  0  0  0  0  0  0  0
  137.9645   67.5952  224.0286 H   0  0  0  0  0  0  0  0  0  0  0  0
  137.0290   68.8841  224.9613 H   0  0  0  0  0  0  0  0  0  0  0  0
  137.4299   71.4153  222.8250 H   0  0  0  0  0  0  0  0  0  0  0  0
  137.3246   71.0059  224.5761 H   0  0  0  0  0  0  0  0  0  0  0  0
  139.1767   72.5655  224.2509 H   0  0  0  0  0  0  0  0  0  0  0  0
  139.8604   70.9840  224.6576 H   0  0  0  0  0  0  0  0  0  0  0  0
  142.8229   72.9622  218.2338 H   0  0  0  0  0  0  0  0  0  0  0  0
  143.2048   74.6967  218.4053 H   0  0  0  0  0  0  0  0  0  0  0  0
  144.8672   73.3686  216.9917 H   0  0  0  0  0  0  0  0  0  0  0  0
  145.6041   74.2398  218.3654 H   0  0  0  0  0  0  0  0  0  0  0  0
  146.2720   71.9110  218.1020 H   0  0  0  0  0  0  0  0  0  0  0  0
  145.6227   71.2676  220.4839 H   0  0  0  0  0  0  0  0  0  0  0  0
  146.7710   72.6237  220.0967 H   0  0  0  0  0  0  0  0  0  0  0  0
  144.6237   72.8215  221.7555 H   0  0  0  0  0  0  0  0  0  0  0  0
  145.4048   74.1883  220.8303 H   0  0  0  0  0  0  0  0  0  0  0  0
  140.9948   77.2783  223.8194 H   0  0  0  0  0  0  0  0  0  0  0  0
  142.0940   77.1096  222.3866 H   0  0  0  0  0  0  0  0  0  0  0  0
  141.2729   79.4549  222.7429 H   0  0  0  0  0  0  0  0  0  0  0  0
  140.8323   78.7970  221.1580 H   0  0  0  0  0  0  0  0  0  0  0  0
  139.4857   80.8965  223.2079 H   0  0  0  0  0  0  0  0  0  0  0  0
  137.0731   81.1759  223.8047 H   0  0  0  0  0  0  0  0  0  0  0  0
  135.5237   79.2486  223.4966 H   0  0  0  0  0  0  0  0  0  0  0  0
  136.3534   77.1017  222.6216 H   0  0  0  0  0  0  0  0  0  0  0  0
  138.2251   75.6624  222.3978 H   0  0  0  0  0  0  0  0  0  0  0  0
  138.6200   76.4073  220.8171 H   0  0  0  0  0  0  0  0  0  0  0  0
  139.3246   70.4733  220.9266 H   0  0  0  0  0  0  0  0  0  0  0  0
  140.9259   69.9685  221.6482 H   0  0  0  0  0  0  0  0  0  0  0  0
  138.9294   68.4118  221.8452 H   0  0  0  0  0  0  0  0  0  0  0  0
  139.9751   68.8109  223.3117 H   0  0  0  0  0  0  0  0  0  0  0  0
  138.4688   70.5704  226.3268 H   0  0  0  0  0  0  0  0  0  0  0  0
  140.3083   70.5799  227.9823 H   0  0  0  0  0  0  0  0  0  0  0  0
  1  2  2  0
  2  3  1  0
  3  4  2  0
  4  5  1  0
  5  6  1  0
  6  7  1  0
  7  8  1  0
  8  9  1  0
  9 10  1  0
 10 11  2  0
 11 12  1  0
 12 13  1  0
 13 14  1  0
 14 15  1  0
 15 16  1  0
 16 17  1  0
 17 18  1  0
 12 19  2  0
 19 20  1  0
 20 21  1  0
 21 22  1  0
 22 23  1  0
 23 24  1  0
 24 25  2  0
 25 26  1  0
 26 27  2  0
 27 28  1  0
 28 29  2  0
 29 30  1  0
 20 31  2  0
  9 32  1  0
 32 33  1  0
  4 34  1  0
 34 35  2  0
 35  1  1  0
 33  6  1  0
 31 10  1  0
 18 13  1  0
 30 21  1  0
 29 24  1  0
  1 36  1  0
  2 37  1  0
  3 38  1  0
  5 39  1  0
  5 40  1  0
  7 41  1  0
  7 42  1  0
  8 43  1  0
  8 44  1  0
 14 45  1  0
 14 46  1  0
 15 47  1  0
 15 48  1  0
 16 49  1  0
 17 50  1  0
 17 51  1  0
 18 52  1  0
 18 53  1  0
 22 54  1  0
 22 55  1  0
 23 56  1  0
 23 57  1  0
 25 58  1  0
 26 59  1  0
 27 60  1  0
 28 61  1  0
 30 62  1  0
 30 63  1  0
 32 64  1  0
 32 65  1  0
 33 66  1  0
 33 67  1  0
 34 68  1  0
 35 69  1  0
M  END
>  <smiles>  (32) 
c1ccc(CN2CCN(c3nc(N4CCNCC4)nc(N4CCc5ccccc5C4)n3)CC2)cc1

>  <score_type>  (32) 
oracle

>  <origin>  (32) 
autodockgpu

>  <m_score__min__energy>  (32) 
-9.8499999999999996

>  <m_primary>  (32) 
energy

>  <rmsd>  (32) 
11.107213989670539

>  <m_score__min__rmsd>  (32) 
11.107213989670539

>  <meeko>  (32) 
{"free_energy": -8.56, "intermolecular_energy": -10.05, "internal_energy": -1.16, "cluster_size": 43, "cluster_id": 1, "rank_in_cluster": 43}

>  <energy>  (32) 
-9.18

>  <cluster_rmsd>  (32) 
1.47

>  <cluster>  (32) 
1

$$$$

     RDKit          3D

 69 74  0  0  0  0  0  0  0  0999 V2000
  142.6710   80.4490  223.5320 C   0  0  0  0  0  0  0  0  0  0  0  0
  141.8750   79.5440  224.2010 C   0  0  0  0  0  0  0  0  0  0  0  0
  140.6380   79.2230  223.6870 C   0  0  0  0  0  0  0  0  0  0  0  0
  140.1420   79.7700  222.5150 C   0  0  0  0  0  0  0  0  0  0  0  0
  138.8170   79.3570  222.0560 C   0  0  0  0  0  0  0  0  0  0  0  0
  138.7380   78.0610  221.4680 N   0  0  0  0  0  0  0  0  0  0  0  0
  139.8610   77.6430  220.7070 C   0  0  0  0  0  0  0  0  0  0  0  0
  140.8040   76.8310  221.5720 C   0  0  0  0  0  0  0  0  0  0  0  0
  140.0950   75.6030  221.8900 N   0  0  0  0  0  0  0  0  0  0  0  0
  140.6950   74.3190  221.8010 C   0  0  0  0  0  0  0  0  0  0  0  0
  141.5740   73.9770  220.8480 N   0  0  0  0  0  0  0  0  0  0  0  0
  142.1290   72.7360  220.7930 C   0  0  0  0  0  0  0  0  0  0  0  0
  143.0640   72.3740  219.7760 N   0  0  0  0  0  0  0  0  0  0  0  0
  143.7830   71.1290  219.8920 C   0  0  0  0  0  0  0  0  0  0  0  0
  144.7570   71.0480  218.7360 C   0  0  0  0  0  0  0  0  0  0  0  0
  145.5070   72.2870  218.6950 N   0  0  0  0  0  0  0  0  0  0  0  0
  144.6990   73.3980  218.2440 C   0  0  0  0  0  0  0  0  0  0  0  0
  143.2550   73.2700  218.6690 C   0  0  0  0  0  0  0  0  0  0  0  0
  141.7670   71.8290  221.7470 N   0  0  0  0  0  0  0  0  0  0  0  0
  140.8900   72.1360  222.7170 C   0  0  0  0  0  0  0  0  0  0  0  0
  140.4980   71.1930  223.7270 N   0  0  0  0  0  0  0  0  0  0  0  0
  139.2830   70.4330  223.5360 C   0  0  0  0  0  0  0  0  0  0  0  0
  139.3970   69.0360  224.1120 C   0  0  0  0  0  0  0  0  0  0  0  0
  139.7850   69.2130  225.5560 C   0  0  0  0  0  0  0  0  0  0  0  0
  139.2030   68.4020  226.5050 C   0  0  0  0  0  0  0  0  0  0  0  0
  139.5550   68.5590  227.8340 C   0  0  0  0  0  0  0  0  0  0  0  0
  140.4870   69.5310  228.1640 C   0  0  0  0  0  0  0  0  0  0  0  0
  141.0520   70.3270  227.1900 C   0  0  0  0  0  0  0  0  0  0  0  0
  140.7100   70.1830  225.8620 C   0  0  0  0  0  0  0  0  0  0  0  0
  141.3570   71.0700  224.8820 C   0  0  0  0  0  0  0  0  0  0  0  0
  140.3840   73.3780  222.7080 N   0  0  0  0  0  0  0  0  0  0  0  0
  138.7190   75.7310  222.3090 C   0  0  0  0  0  0  0  0  0  0  0  0
  138.2760   77.1400  222.4710 C   0  0  0  0  0  0  0  0  0  0  0  0
  140.9610   80.6710  221.8680 C   0  0  0  0  0  0  0  0  0  0  0  0
  142.2150   81.0130  222.3640 C   0  0  0  0  0  0  0  0  0  0  0  0
  143.6613   80.7173  223.9287 H   0  0  0  0  0  0  0  0  0  0  0  0
  142.2243   79.0826  225.1364 H   0  0  0  0  0  0  0  0  0  0  0  0
  140.0152   78.4987  224.2325 H   0  0  0  0  0  0  0  0  0  0  0  0
  138.1392   79.3761  222.9221 H   0  0  0  0  0  0  0  0  0  0  0  0
  138.5449   80.0632  221.2577 H   0  0  0  0  0  0  0  0  0  0  0  0
  139.5191   77.0258  219.8631 H   0  0  0  0  0  0  0  0  0  0  0  0
  140.3915   78.5304  220.3313 H   0  0  0  0  0  0  0  0  0  0  0  0
  141.7301   76.6068  221.0223 H   0  0  0  0  0  0  0  0  0  0  0  0
  141.0905   77.3791  222.4817 H   0  0  0  0  0  0  0  0  0  0  0  0
  144.3307   71.1006  220.8455 H   0  0  0  0  0  0  0  0  0  0  0  0
  143.0856   70.2787  219.8673 H   0  0  0  0  0  0  0  0  0  0  0  0
  145.4430   70.2011  218.8845 H   0  0  0  0  0  0  0  0  0  0  0  0
  144.2160   70.8973  217.7902 H   0  0  0  0  0  0  0  0  0  0  0  0
  146.2890   72.1630  218.0070 H   0  0  0  0  0  0  0  0  0  0  0  0
  145.1100   74.3275  218.6649 H   0  0  0  0  0  0  0  0  0  0  0  0
  144.7254   73.4072  217.1444 H   0  0  0  0  0  0  0  0  0  0  0  0
  142.8870   74.2654  218.9584 H   0  0  0  0  0  0  0  0  0  0  0  0
  142.7004   72.8543  217.8149 H   0  0  0  0  0  0  0  0  0  0  0  0
  138.4534   70.9567  224.0335 H   0  0  0  0  0  0  0  0  0  0  0  0
  139.1020   70.3434  222.4547 H   0  0  0  0  0  0  0  0  0  0  0  0
  138.4329   68.5117  224.0368 H   0  0  0  0  0  0  0  0  0  0  0  0
  140.1388   68.4344  223.5663 H   0  0  0  0  0  0  0  0  0  0  0  0
  138.4675   67.6390  226.2101 H   0  0  0  0  0  0  0  0  0  0  0  0
  139.1047   67.9257  228.6126 H   0  0  0  0  0  0  0  0  0  0  0  0
  140.7793   69.6688  229.2155 H   0  0  0  0  0  0  0  0  0  0  0  0
  141.7892   71.0910  227.4778 H   0  0  0  0  0  0  0  0  0  0  0  0
  141.5178   72.0615  225.3304 H   0  0  0  0  0  0  0  0  0  0  0  0
  142.3285   70.6502  224.5822 H   0  0  0  0  0  0  0  0  0  0  0  0
  138.0794   75.2497  221.5545 H   0  0  0  0  0  0  0  0  0  0  0  0
  138.6357   75.2509  223.2952 H   0  0  0  0  0  0  0  0  0  0  0  0
  137.1761   77.1514  222.4586 H   0  0  0  0  0  0  0  0  0  0  0  0
  138.7166   77.4844  223.4182 H   0  0  0  0  0  0  0  0  0  0  0  0
  140.6127   81.1329  220.9324 H   0  0  0  0  0  0  0  0  0  0  0  0
  142.8423   81.7354  221.8211 H   0  0  0  0  0  0  0  0  0  0  0  0
  1  2  2  0
  2  3  1  0
  3  4  2  0
  4  5  1  0
  5  6  1  0
  6  7  1  0
  7  8  1  0
  8  9  1  0
  9 10  1  0
 10 11  2  0
 11 12  1  0
 12 13  1  0
 13 14  1  0
 14 15  1  0
 15 16  1  0
 16 17  1  0
 17 18  1  0
 12 19  2  0
 19 20  1  0
 20 21  1  0
 21 22  1  0
 22 23  1  0
 23 24  1  0
 24 25  2  0
 25 26  1  0
 26 27  2  0
 27 28  1  0
 28 29  2  0
 29 30  1  0
 20 31  2  0
  9 32  1  0
 32 33  1  0
  4 34  1  0
 34 35  2  0
 35  1  1  0
 33  6  1  0
 31 10  1  0
 18 13  1  0
 30 21  1  0
 29 24  1  0
  1 36  1  0
  2 37  1  0
  3 38  1  0
  5 39  1  0
  5 40  1  0
  7 41  1  0
  7 42  1  0
  8 43  1  0
  8 44  1  0
 14 45  1  0
 14 46  1  0
 15 47  1  0
 15 48  1  0
 16 49  1  0
 17 50  1  0
 17 51  1  0
 18 52  1  0
 18 53  1  0
 22 54  1  0
 22 55  1  0
 23 56  1  0
 23 57  1  0
 25 58  1  0
 26 59  1  0
 27 60  1  0
 28 61  1  0
 30 62  1  0
 30 63  1  0
 32 64  1  0
 32 65  1  0
 33 66  1  0
 33 67  1  0
 34 68  1  0
 35 69  1  0
M  END
>  <smiles>  (33) 
c1ccc(CN2CCN(c3nc(N4CCNCC4)nc(N4CCc5ccccc5C4)n3)CC2)cc1

>  <score_type>  (33) 
oracle

>  <origin>  (33) 
autodockgpu

>  <m_score__min__energy>  (33) 
-9.8499999999999996

>  <m_primary>  (33) 
energy

>  <rmsd>  (33) 
3.9768020331838554

>  <m_score__min__rmsd>  (33) 
3.9768020331838554

>  <meeko>  (33) 
{"free_energy": -9.25, "intermolecular_energy": -10.74, "internal_energy": -1.23, "cluster_size": 43, "cluster_id": 1, "rank_in_cluster": 20}

>  <energy>  (33) 
-9.18

>  <cluster_rmsd>  (33) 
1.05

>  <cluster>  (33) 
1

$$$$

     RDKit          3D

 69 74  0  0  0  0  0  0  0  0999 V2000
  142.1940   81.6270  223.8620 C   0  0  0  0  0  0  0  0  0  0  0  0
  141.0830   81.6690  223.0470 C   0  0  0  0  0  0  0  0  0  0  0  0
  140.9120   80.6960  222.0870 C   0  0  0  0  0  0  0  0  0  0  0  0
  141.8110   79.6600  221.8930 C   0  0  0  0  0  0  0  0  0  0  0  0
  141.5320   78.6770  220.8480 C   0  0  0  0  0  0  0  0  0  0  0  0
  141.7250   77.3120  221.2100 N   0  0  0  0  0  0  0  0  0  0  0  0
  141.0640   76.8700  222.3860 C   0  0  0  0  0  0  0  0  0  0  0  0
  139.7310   76.2430  222.0300 C   0  0  0  0  0  0  0  0  0  0  0  0
  140.0480   75.0240  221.3030 N   0  0  0  0  0  0  0  0  0  0  0  0
  139.4140   73.7810  221.5680 C   0  0  0  0  0  0  0  0  0  0  0  0
  138.4600   73.2550  220.7850 N   0  0  0  0  0  0  0  0  0  0  0  0
  137.8740   72.0600  221.0720 C   0  0  0  0  0  0  0  0  0  0  0  0
  136.8580   71.5020  220.2370 N   0  0  0  0  0  0  0  0  0  0  0  0
  137.2260   70.5390  219.2280 C   0  0  0  0  0  0  0  0  0  0  0  0
  135.9780   70.1900  218.4450 C   0  0  0  0  0  0  0  0  0  0  0  0
  135.3470   71.4270  218.0330 N   0  0  0  0  0  0  0  0  0  0  0  0
  134.7400   72.1250  219.1440 C   0  0  0  0  0  0  0  0  0  0  0  0
  135.4990   71.9240  220.4340 C   0  0  0  0  0  0  0  0  0  0  0  0
  138.2850   71.3950  222.1900 N   0  0  0  0  0  0  0  0  0  0  0  0
  139.2370   71.8920  222.9970 C   0  0  0  0  0  0  0  0  0  0  0  0
  139.6800   71.2050  224.1790 N   0  0  0  0  0  0  0  0  0  0  0  0
  140.7100   71.8130  224.9910 C   0  0  0  0  0  0  0  0  0  0  0  0
  140.5110   71.5190  226.4650 C   0  0  0  0  0  0  0  0  0  0  0  0
  140.4450   70.0190  226.5830 C   0  0  0  0  0  0  0  0  0  0  0  0
  141.0790   69.4080  227.6420 C   0  0  0  0  0  0  0  0  0  0  0  0
  141.0240   68.0300  227.7570 C   0  0  0  0  0  0  0  0  0  0  0  0
  140.3260   67.3100  226.7980 C   0  0  0  0  0  0  0  0  0  0  0  0
  139.7020   67.9530  225.7500 C   0  0  0  0  0  0  0  0  0  0  0  0
  139.7500   69.3250  225.6210 C   0  0  0  0  0  0  0  0  0  0  0  0
  139.0580   69.9360  224.4760 C   0  0  0  0  0  0  0  0  0  0  0  0
  139.7700   73.0730  222.6530 N   0  0  0  0  0  0  0  0  0  0  0  0
  141.0570   75.1170  220.2760 C   0  0  0  0  0  0  0  0  0  0  0  0
  141.5350   76.5040  220.0360 C   0  0  0  0  0  0  0  0  0  0  0  0
  142.9120   79.6440  222.7240 C   0  0  0  0  0  0  0  0  0  0  0  0
  143.1090   80.6140  223.7020 C   0  0  0  0  0  0  0  0  0  0  0  0
  142.3467   82.3967  224.6329 H   0  0  0  0  0  0  0  0  0  0  0  0
  140.3400   82.4719  223.1622 H   0  0  0  0  0  0  0  0  0  0  0  0
  140.0203   80.7439  221.4447 H   0  0  0  0  0  0  0  0  0  0  0  0
  140.4826   78.7993  220.5417 H   0  0  0  0  0  0  0  0  0  0  0  0
  142.2594   78.8785  220.0478 H   0  0  0  0  0  0  0  0  0  0  0  0
  141.6912   76.1252  222.8978 H   0  0  0  0  0  0  0  0  0  0  0  0
  140.8912   77.7319  223.0473 H   0  0  0  0  0  0  0  0  0  0  0  0
  139.1624   76.0082  222.9419 H   0  0  0  0  0  0  0  0  0  0  0  0
  139.1113   76.9238  221.4280 H   0  0  0  0  0  0  0  0  0  0  0  0
  137.9811   70.9717  218.5553 H   0  0  0  0  0  0  0  0  0  0  0  0
  137.6522   69.6381  219.6936 H   0  0  0  0  0  0  0  0  0  0  0  0
  136.2470   69.5953  217.5596 H   0  0  0  0  0  0  0  0  0  0  0  0
  135.2897   69.5988  219.0670 H   0  0  0  0  0  0  0  0  0  0  0  0
  134.5850   71.1850  217.3550 H   0  0  0  0  0  0  0  0  0  0  0  0
  134.7134   73.2003  218.9136 H   0  0  0  0  0  0  0  0  0  0  0  0
  133.7278   71.7176  219.2834 H   0  0  0  0  0  0  0  0  0  0  0  0
  135.5059   72.8753  220.9862 H   0  0  0  0  0  0  0  0  0  0  0  0
  134.9881   71.1240  220.9899 H   0  0  0  0  0  0  0  0  0  0  0  0
  141.6885   71.4197  224.6783 H   0  0  0  0  0  0  0  0  0  0  0  0
  140.6586   72.9026  224.8495 H   0  0  0  0  0  0  0  0  0  0  0  0
  141.3552   71.9118  227.0506 H   0  0  0  0  0  0  0  0  0  0  0  0
  139.5974   71.9945  226.8513 H   0  0  0  0  0  0  0  0  0  0  0  0
  141.6223   70.0078  228.3871 H   0  0  0  0  0  0  0  0  0  0  0  0
  141.5234   67.5160  228.5915 H   0  0  0  0  0  0  0  0  0  0  0  0
  140.2699   66.2141  226.8747 H   0  0  0  0  0  0  0  0  0  0  0  0
  139.1552   67.3599  225.0022 H   0  0  0  0  0  0  0  0  0  0  0  0
  139.1343   69.2732  223.6014 H   0  0  0  0  0  0  0  0  0  0  0  0
  137.9961   70.0883  224.7192 H   0  0  0  0  0  0  0  0  0  0  0  0
  141.9167   74.4998  220.5761 H   0  0  0  0  0  0  0  0  0  0  0  0
  140.5978   74.7672  219.3396 H   0  0  0  0  0  0  0  0  0  0  0  0
  142.4986   76.4425  219.5090 H   0  0  0  0  0  0  0  0  0  0  0  0
  140.7400   76.9984  219.4584 H   0  0  0  0  0  0  0  0  0  0  0  0
  143.6555   78.8414  222.6102 H   0  0  0  0  0  0  0  0  0  0  0  0
  143.9983   80.5700  224.3480 H   0  0  0  0  0  0  0  0  0  0  0  0
  1  2  2  0
  2  3  1  0
  3  4  2  0
  4  5  1  0
  5  6  1  0
  6  7  1  0
  7  8  1  0
  8  9  1  0
  9 10  1  0
 10 11  2  0
 11 12  1  0
 12 13  1  0
 13 14  1  0
 14 15  1  0
 15 16  1  0
 16 17  1  0
 17 18  1  0
 12 19  2  0
 19 20  1  0
 20 21  1  0
 21 22  1  0
 22 23  1  0
 23 24  1  0
 24 25  2  0
 25 26  1  0
 26 27  2  0
 27 28  1  0
 28 29  2  0
 29 30  1  0
 20 31  2  0
  9 32  1  0
 32 33  1  0
  4 34  1  0
 34 35  2  0
 35  1  1  0
 33  6  1  0
 31 10  1  0
 18 13  1  0
 30 21  1  0
 29 24  1  0
  1 36  1  0
  2 37  1  0
  3 38  1  0
  5 39  1  0
  5 40  1  0
  7 41  1  0
  7 42  1  0
  8 43  1  0
  8 44  1  0
 14 45  1  0
 14 46  1  0
 15 47  1  0
 15 48  1  0
 16 49  1  0
 17 50  1  0
 17 51  1  0
 18 52  1  0
 18 53  1  0
 22 54  1  0
 22 55  1  0
 23 56  1  0
 23 57  1  0
 25 58  1  0
 26 59  1  0
 27 60  1  0
 28 61  1  0
 30 62  1  0
 30 63  1  0
 32 64  1  0
 32 65  1  0
 33 66  1  0
 33 67  1  0
 34 68  1  0
 35 69  1  0
M  END
>  <smiles>  (34) 
c1ccc(CN2CCN(c3nc(N4CCNCC4)nc(N4CCc5ccccc5C4)n3)CC2)cc1

>  <score_type>  (34) 
oracle

>  <origin>  (34) 
autodockgpu

>  <m_score__min__energy>  (34) 
-9.8499999999999996

>  <m_primary>  (34) 
energy

>  <rmsd>  (34) 
3.295643074020081

>  <m_score__min__rmsd>  (34) 
3.295643074020081

>  <meeko>  (34) 
{"free_energy": -8.77, "intermolecular_energy": -10.26, "internal_energy": -1.12, "cluster_size": 6, "cluster_id": 2, "rank_in_cluster": 5}

>  <energy>  (34) 
-9.14

>  <cluster_rmsd>  (34) 
0.84

>  <cluster>  (34) 
1

$$$$

     RDKit          3D

 69 74  0  0  0  0  0  0  0  0999 V2000
  140.9920   68.1410  228.3110 C   0  0  0  0  0  0  0  0  0  0  0  0
  141.0030   67.6360  227.0280 C   0  0  0  0  0  0  0  0  0  0  0  0
  140.1250   68.1430  226.0950 C   0  0  0  0  0  0  0  0  0  0  0  0
  139.2170   69.1490  226.3810 C   0  0  0  0  0  0  0  0  0  0  0  0
  138.3320   69.6170  225.3150 C   0  0  0  0  0  0  0  0  0  0  0  0
  138.5620   70.9470  224.8570 N   0  0  0  0  0  0  0  0  0  0  0  0
  139.8730   71.4610  225.0360 C   0  0  0  0  0  0  0  0  0  0  0  0
  140.6950   71.2390  223.7820 C   0  0  0  0  0  0  0  0  0  0  0  0
  140.1010   72.0880  222.7630 N   0  0  0  0  0  0  0  0  0  0  0  0
  140.8720   72.9140  221.9010 C   0  0  0  0  0  0  0  0  0  0  0  0
  141.7400   72.4360  220.9980 N   0  0  0  0  0  0  0  0  0  0  0  0
  142.4620   73.2580  220.1890 C   0  0  0  0  0  0  0  0  0  0  0  0
  143.3860   72.7460  219.2280 N   0  0  0  0  0  0  0  0  0  0  0  0
  144.2630   71.6630  219.6020 C   0  0  0  0  0  0  0  0  0  0  0  0
  145.1830   71.3880  218.4330 C   0  0  0  0  0  0  0  0  0  0  0  0
  145.7670   72.6470  218.0160 N   0  0  0  0  0  0  0  0  0  0  0  0
  144.8030   73.5020  217.3610 C   0  0  0  0  0  0  0  0  0  0  0  0
  143.4090   73.3320  217.9170 C   0  0  0  0  0  0  0  0  0  0  0  0
  142.2810   74.6050  220.3170 N   0  0  0  0  0  0  0  0  0  0  0  0
  141.4190   75.1190  221.2100 C   0  0  0  0  0  0  0  0  0  0  0  0
  141.2170   76.5340  221.3580 N   0  0  0  0  0  0  0  0  0  0  0  0
  141.1740   77.3590  220.1710 C   0  0  0  0  0  0  0  0  0  0  0  0
  140.2070   78.5160  220.3240 C   0  0  0  0  0  0  0  0  0  0  0  0
  140.6360   79.2530  221.5650 C   0  0  0  0  0  0  0  0  0  0  0  0
  140.6150   80.6300  221.5600 C   0  0  0  0  0  0  0  0  0  0  0  0
  141.0070   81.3150  222.6970 C   0  0  0  0  0  0  0  0  0  0  0  0
  141.4100   80.5860  223.8060 C   0  0  0  0  0  0  0  0  0  0  0  0
  141.4200   79.2070  223.7780 C   0  0  0  0  0  0  0  0  0  0  0  0
  141.0320   78.5110  222.6530 C   0  0  0  0  0  0  0  0  0  0  0  0
  141.0700   77.0420  222.7030 C   0  0  0  0  0  0  0  0  0  0  0  0
  140.7420   74.2490  221.9740 N   0  0  0  0  0  0  0  0  0  0  0  0
  138.6630   72.0690  222.6510 C   0  0  0  0  0  0  0  0  0  0  0  0
  138.0110   71.0670  223.5340 C   0  0  0  0  0  0  0  0  0  0  0  0
  139.2300   69.6340  227.6720 C   0  0  0  0  0  0  0  0  0  0  0  0
  140.1050   69.1410  228.6340 C   0  0  0  0  0  0  0  0  0  0  0  0
  141.6859   67.7479  229.0686 H   0  0  0  0  0  0  0  0  0  0  0  0
  141.7059   66.8361  226.7520 H   0  0  0  0  0  0  0  0  0  0  0  0
  140.1462   67.7297  225.0758 H   0  0  0  0  0  0  0  0  0  0  0  0
  138.4499   68.9393  224.4566 H   0  0  0  0  0  0  0  0  0  0  0  0
  137.3202   69.6204  225.7466 H   0  0  0  0  0  0  0  0  0  0  0  0
  139.8155   72.5390  225.2473 H   0  0  0  0  0  0  0  0  0  0  0  0
  140.3523   70.9398  225.8778 H   0  0  0  0  0  0  0  0  0  0  0  0
  141.7429   71.5249  223.9555 H   0  0  0  0  0  0  0  0  0  0  0  0
  140.6933   70.1816  223.4790 H   0  0  0  0  0  0  0  0  0  0  0  0
  144.8544   71.9482  220.4846 H   0  0  0  0  0  0  0  0  0  0  0  0
  143.6793   70.7645  219.8511 H   0  0  0  0  0  0  0  0  0  0  0  0
  145.9774   70.6914  218.7391 H   0  0  0  0  0  0  0  0  0  0  0  0
  144.6210   70.9344  217.6033 H   0  0  0  0  0  0  0  0  0  0  0  0
  146.5240   72.4320  217.3240 H   0  0  0  0  0  0  0  0  0  0  0  0
  145.1113   74.5493  217.4953 H   0  0  0  0  0  0  0  0  0  0  0  0
  144.7756   73.2224  216.2975 H   0  0  0  0  0  0  0  0  0  0  0  0
  142.9311   74.3214  217.9688 H   0  0  0  0  0  0  0  0  0  0  0  0
  142.8725   72.6461  217.2450 H   0  0  0  0  0  0  0  0  0  0  0  0
  142.1804   77.7592  219.9790 H   0  0  0  0  0  0  0  0  0  0  0  0
  140.8301   76.7347  219.3332 H   0  0  0  0  0  0  0  0  0  0  0  0
  140.2618   79.1786  219.4476 H   0  0  0  0  0  0  0  0  0  0  0  0
  139.1675   78.1650  220.4025 H   0  0  0  0  0  0  0  0  0  0  0  0
  140.2907   81.1787  220.6635 H   0  0  0  0  0  0  0  0  0  0  0  0
  140.9991   82.4147  222.7206 H   0  0  0  0  0  0  0  0  0  0  0  0
  141.7252   81.1136  224.7183 H   0  0  0  0  0  0  0  0  0  0  0  0
  141.7439   78.6518  224.6707 H   0  0  0  0  0  0  0  0  0  0  0  0
  141.9221   76.7149  223.3170 H   0  0  0  0  0  0  0  0  0  0  0  0
  140.1397   76.6589  223.1477 H   0  0  0  0  0  0  0  0  0  0  0  0
  138.2804   73.0661  222.9145 H   0  0  0  0  0  0  0  0  0  0  0  0
  138.4237   71.7898  221.6143 H   0  0  0  0  0  0  0  0  0  0  0  0
  136.9510   71.3436  223.6335 H   0  0  0  0  0  0  0  0  0  0  0  0
  138.1752   70.0919  223.0521 H   0  0  0  0  0  0  0  0  0  0  0  0
  138.5278   70.4341  227.9489 H   0  0  0  0  0  0  0  0  0  0  0  0
  140.0875   69.5514  229.6544 H   0  0  0  0  0  0  0  0  0  0  0  0
  1  2  2  0
  2  3  1  0
  3  4  2  0
  4  5  1  0
  5  6  1  0
  6  7  1  0
  7  8  1  0
  8  9  1  0
  9 10  1  0
 10 11  2  0
 11 12  1  0
 12 13  1  0
 13 14  1  0
 14 15  1  0
 15 16  1  0
 16 17  1  0
 17 18  1  0
 12 19  2  0
 19 20  1  0
 20 21  1  0
 21 22  1  0
 22 23  1  0
 23 24  1  0
 24 25  2  0
 25 26  1  0
 26 27  2  0
 27 28  1  0
 28 29  2  0
 29 30  1  0
 20 31  2  0
  9 32  1  0
 32 33  1  0
  4 34  1  0
 34 35  2  0
 35  1  1  0
 33  6  1  0
 31 10  1  0
 18 13  1  0
 30 21  1  0
 29 24  1  0
  1 36  1  0
  2 37  1  0
  3 38  1  0
  5 39  1  0
  5 40  1  0
  7 41  1  0
  7 42  1  0
  8 43  1  0
  8 44  1  0
 14 45  1  0
 14 46  1  0
 15 47  1  0
 15 48  1  0
 16 49  1  0
 17 50  1  0
 17 51  1  0
 18 52  1  0
 18 53  1  0
 22 54  1  0
 22 55  1  0
 23 56  1  0
 23 57  1  0
 25 58  1  0
 26 59  1  0
 27 60  1  0
 28 61  1  0
 30 62  1  0
 30 63  1  0
 32 64  1  0
 32 65  1  0
 33 66  1  0
 33 67  1  0
 34 68  1  0
 35 69  1  0
M  END
>  <smiles>  (35) 
c1ccc(CN2CCN(c3nc(N4CCNCC4)nc(N4CCc5ccccc5C4)n3)CC2)cc1

>  <score_type>  (35) 
oracle

>  <origin>  (35) 
autodockgpu

>  <m_score__min__energy>  (35) 
-9.8499999999999996

>  <m_primary>  (35) 
energy

>  <rmsd>  (35) 
11.078381123845361

>  <m_score__min__rmsd>  (35) 
11.078381123845361

>  <meeko>  (35) 
{"free_energy": -9.43, "intermolecular_energy": -10.92, "internal_energy": -1.16, "cluster_size": 43, "cluster_id": 1, "rank_in_cluster": 10}

>  <energy>  (35) 
-9.13

>  <cluster_rmsd>  (35) 
0.87

>  <cluster>  (35) 
1

$$$$

     RDKit          3D

 69 74  0  0  0  0  0  0  0  0999 V2000
  142.6190   80.4400  223.5470 C   0  0  0  0  0  0  0  0  0  0  0  0
  141.8330   79.4930  224.1680 C   0  0  0  0  0  0  0  0  0  0  0  0
  140.6090   79.1690  223.6250 C   0  0  0  0  0  0  0  0  0  0  0  0
  140.1170   79.7530  222.4700 C   0  0  0  0  0  0  0  0  0  0  0  0
  138.8060   79.3340  221.9760 C   0  0  0  0  0  0  0  0  0  0  0  0
  138.7490   78.0360  221.3910 N   0  0  0  0  0  0  0  0  0  0  0  0
  139.8950   77.6180  220.6650 C   0  0  0  0  0  0  0  0  0  0  0  0
  140.8150   76.8120  221.5610 C   0  0  0  0  0  0  0  0  0  0  0  0
  140.0990   75.5830  221.8610 N   0  0  0  0  0  0  0  0  0  0  0  0
  140.7050   74.3010  221.7940 C   0  0  0  0  0  0  0  0  0  0  0  0
  141.5880   73.9470  220.8490 N   0  0  0  0  0  0  0  0  0  0  0  0
  142.1480   72.7070  220.8160 C   0  0  0  0  0  0  0  0  0  0  0  0
  143.0870   72.3330  219.8070 N   0  0  0  0  0  0  0  0  0  0  0  0
  143.8470   71.1170  219.9680 C   0  0  0  0  0  0  0  0  0  0  0  0
  144.8140   71.0190  218.8080 C   0  0  0  0  0  0  0  0  0  0  0  0
  145.5240   72.2780  218.7090 N   0  0  0  0  0  0  0  0  0  0  0  0
  144.6770   73.3430  218.2190 C   0  0  0  0  0  0  0  0  0  0  0  0
  143.2410   73.1870  218.6610 C   0  0  0  0  0  0  0  0  0  0  0  0
  141.7890   71.8150  221.7840 N   0  0  0  0  0  0  0  0  0  0  0  0
  140.9090   72.1340  222.7470 C   0  0  0  0  0  0  0  0  0  0  0  0
  140.5190   71.2060  223.7720 N   0  0  0  0  0  0  0  0  0  0  0  0
  139.3060   70.4400  223.5930 C   0  0  0  0  0  0  0  0  0  0  0  0
  139.4240   69.0520  224.1910 C   0  0  0  0  0  0  0  0  0  0  0  0
  139.8110   69.2530  225.6320 C   0  0  0  0  0  0  0  0  0  0  0  0
  139.2310   68.4560  226.5940 C   0  0  0  0  0  0  0  0  0  0  0  0
  139.5820   68.6350  227.9200 C   0  0  0  0  0  0  0  0  0  0  0  0
  140.5120   69.6150  228.2350 C   0  0  0  0  0  0  0  0  0  0  0  0
  141.0740   70.3970  227.2480 C   0  0  0  0  0  0  0  0  0  0  0  0
  140.7330   70.2310  225.9220 C   0  0  0  0  0  0  0  0  0  0  0  0
  141.3780   71.1030  224.9290 C   0  0  0  0  0  0  0  0  0  0  0  0
  140.3970   73.3730  222.7160 N   0  0  0  0  0  0  0  0  0  0  0  0
  138.7120   75.7090  222.2390 C   0  0  0  0  0  0  0  0  0  0  0  0
  138.2600   77.1170  222.3830 C   0  0  0  0  0  0  0  0  0  0  0  0
  140.9260   80.6960  221.8700 C   0  0  0  0  0  0  0  0  0  0  0  0
  142.1670   81.0420  222.3970 C   0  0  0  0  0  0  0  0  0  0  0  0
  143.5985   80.7113  223.9677 H   0  0  0  0  0  0  0  0  0  0  0  0
  142.1798   79.0006  225.0885 H   0  0  0  0  0  0  0  0  0  0  0  0
  139.9941   78.4112  224.1326 H   0  0  0  0  0  0  0  0  0  0  0  0
  138.1043   79.3535  222.8229 H   0  0  0  0  0  0  0  0  0  0  0  0
  138.5528   80.0367  221.1685 H   0  0  0  0  0  0  0  0  0  0  0  0
  139.5797   76.9963  219.8141 H   0  0  0  0  0  0  0  0  0  0  0  0
  140.4338   78.5054  220.3013 H   0  0  0  0  0  0  0  0  0  0  0  0
  141.7578   76.5886  221.0402 H   0  0  0  0  0  0  0  0  0  0  0  0
  141.0736   77.3637  222.4768 H   0  0  0  0  0  0  0  0  0  0  0  0
  144.4026   71.1458  220.9169 H   0  0  0  0  0  0  0  0  0  0  0  0
  143.1772   70.2446  219.9847 H   0  0  0  0  0  0  0  0  0  0  0  0
  145.5277   70.2009  218.9851 H   0  0  0  0  0  0  0  0  0  0  0  0
  144.2706   70.8124  217.8741 H   0  0  0  0  0  0  0  0  0  0  0  0
  146.3030   72.1500  218.0200 H   0  0  0  0  0  0  0  0  0  0  0  0
  145.0608   74.3019  218.5974 H   0  0  0  0  0  0  0  0  0  0  0  0
  144.6951   73.3068  217.1197 H   0  0  0  0  0  0  0  0  0  0  0  0
  142.8429   74.1815  218.9110 H   0  0  0  0  0  0  0  0  0  0  0  0
  142.6941   72.7177  217.8299 H   0  0  0  0  0  0  0  0  0  0  0  0
  138.4751   70.9692  224.0824 H   0  0  0  0  0  0  0  0  0  0  0  0
  139.1250   70.3331  222.5133 H   0  0  0  0  0  0  0  0  0  0  0  0
  138.4615   68.5237  224.1238 H   0  0  0  0  0  0  0  0  0  0  0  0
  140.1676   68.4440  223.6549 H   0  0  0  0  0  0  0  0  0  0  0  0
  138.4976   67.6865  226.3113 H   0  0  0  0  0  0  0  0  0  0  0  0
  139.1330   68.0131  228.7084 H   0  0  0  0  0  0  0  0  0  0  0  0
  140.8044   69.7700  229.2840 H   0  0  0  0  0  0  0  0  0  0  0  0
  141.8085   71.1681  227.5236 H   0  0  0  0  0  0  0  0  0  0  0  0
  141.5367   72.1018  225.3617 H   0  0  0  0  0  0  0  0  0  0  0  0
  142.3504   70.6804  224.6361 H   0  0  0  0  0  0  0  0  0  0  0  0
  138.0960   75.2232  221.4680 H   0  0  0  0  0  0  0  0  0  0  0  0
  138.6018   75.2326  223.2243 H   0  0  0  0  0  0  0  0  0  0  0  0
  137.1610   77.1249  222.3377 H   0  0  0  0  0  0  0  0  0  0  0  0
  138.6709   77.4660  223.3418 H   0  0  0  0  0  0  0  0  0  0  0  0
  140.5804   81.1884  220.9490 H   0  0  0  0  0  0  0  0  0  0  0  0
  142.7867   81.7980  221.8926 H   0  0  0  0  0  0  0  0  0  0  0  0
  1  2  2  0
  2  3  1  0
  3  4  2  0
  4  5  1  0
  5  6  1  0
  6  7  1  0
  7  8  1  0
  8  9  1  0
  9 10  1  0
 10 11  2  0
 11 12  1  0
 12 13  1  0
 13 14  1  0
 14 15  1  0
 15 16  1  0
 16 17  1  0
 17 18  1  0
 12 19  2  0
 19 20  1  0
 20 21  1  0
 21 22  1  0
 22 23  1  0
 23 24  1  0
 24 25  2  0
 25 26  1  0
 26 27  2  0
 27 28  1  0
 28 29  2  0
 29 30  1  0
 20 31  2  0
  9 32  1  0
 32 33  1  0
  4 34  1  0
 34 35  2  0
 35  1  1  0
 33  6  1  0
 31 10  1  0
 18 13  1  0
 30 21  1  0
 29 24  1  0
  1 36  1  0
  2 37  1  0
  3 38  1  0
  5 39  1  0
  5 40  1  0
  7 41  1  0
  7 42  1  0
  8 43  1  0
  8 44  1  0
 14 45  1  0
 14 46  1  0
 15 47  1  0
 15 48  1  0
 16 49  1  0
 17 50  1  0
 17 51  1  0
 18 52  1  0
 18 53  1  0
 22 54  1  0
 22 55  1  0
 23 56  1  0
 23 57  1  0
 25 58  1  0
 26 59  1  0
 27 60  1  0
 28 61  1  0
 30 62  1  0
 30 63  1  0
 32 64  1  0
 32 65  1  0
 33 66  1  0
 33 67  1  0
 34 68  1  0
 35 69  1  0
M  END
>  <smiles>  (36) 
c1ccc(CN2CCN(c3nc(N4CCNCC4)nc(N4CCc5ccccc5C4)n3)CC2)cc1

>  <score_type>  (36) 
oracle

>  <origin>  (36) 
autodockgpu

>  <m_score__min__energy>  (36) 
-9.8499999999999996

>  <m_primary>  (36) 
energy

>  <rmsd>  (36) 
3.941132567684062

>  <m_score__min__rmsd>  (36) 
3.941132567684062

>  <meeko>  (36) 
{"free_energy": -9.26, "intermolecular_energy": -10.75, "internal_energy": -1.2, "cluster_size": 43, "cluster_id": 1, "rank_in_cluster": 19}

>  <energy>  (36) 
-9.11

>  <cluster_rmsd>  (36) 
0.71

>  <cluster>  (36) 
1

$$$$

     RDKit          3D

 69 74  0  0  0  0  0  0  0  0999 V2000
  142.6320   80.4020  223.5870 C   0  0  0  0  0  0  0  0  0  0  0  0
  141.8430   79.4490  224.1940 C   0  0  0  0  0  0  0  0  0  0  0  0
  140.6190   79.1350  223.6460 C   0  0  0  0  0  0  0  0  0  0  0  0
  140.1300   79.7370  222.4980 C   0  0  0  0  0  0  0  0  0  0  0  0
  138.8180   79.3280  221.9970 C   0  0  0  0  0  0  0  0  0  0  0  0
  138.7530   78.0300  221.4140 N   0  0  0  0  0  0  0  0  0  0  0  0
  139.8900   77.6110  220.6730 C   0  0  0  0  0  0  0  0  0  0  0  0
  140.8210   76.8060  221.5580 C   0  0  0  0  0  0  0  0  0  0  0  0
  140.1090   75.5770  221.8690 N   0  0  0  0  0  0  0  0  0  0  0  0
  140.7150   74.2950  221.7950 C   0  0  0  0  0  0  0  0  0  0  0  0
  141.5970   73.9450  220.8470 N   0  0  0  0  0  0  0  0  0  0  0  0
  142.1560   72.7050  220.8080 C   0  0  0  0  0  0  0  0  0  0  0  0
  143.0950   72.3350  219.7970 N   0  0  0  0  0  0  0  0  0  0  0  0
  143.8390   71.1080  219.9410 C   0  0  0  0  0  0  0  0  0  0  0  0
  144.8090   71.0170  218.7840 C   0  0  0  0  0  0  0  0  0  0  0  0
  145.5350   72.2680  218.7080 N   0  0  0  0  0  0  0  0  0  0  0  0
  144.7040   73.3510  218.2320 C   0  0  0  0  0  0  0  0  0  0  0  0
  143.2640   73.2060  218.6660 C   0  0  0  0  0  0  0  0  0  0  0  0
  141.7960   71.8080  221.7710 N   0  0  0  0  0  0  0  0  0  0  0  0
  140.9160   72.1230  222.7360 C   0  0  0  0  0  0  0  0  0  0  0  0
  140.5260   71.1900  223.7570 N   0  0  0  0  0  0  0  0  0  0  0  0
  139.3170   70.4190  223.5690 C   0  0  0  0  0  0  0  0  0  0  0  0
  139.4390   69.0300  224.1630 C   0  0  0  0  0  0  0  0  0  0  0  0
  139.8180   69.2280  225.6070 C   0  0  0  0  0  0  0  0  0  0  0  0
  139.2370   68.4250  226.5630 C   0  0  0  0  0  0  0  0  0  0  0  0
  139.5810   68.6010  227.8920 C   0  0  0  0  0  0  0  0  0  0  0  0
  140.5050   69.5850  228.2150 C   0  0  0  0  0  0  0  0  0  0  0  0
  141.0680   70.3720  227.2330 C   0  0  0  0  0  0  0  0  0  0  0  0
  140.7350   70.2090  225.9050 C   0  0  0  0  0  0  0  0  0  0  0  0
  141.3800   71.0880  224.9180 C   0  0  0  0  0  0  0  0  0  0  0  0
  140.4050   73.3630  222.7120 N   0  0  0  0  0  0  0  0  0  0  0  0
  138.7270   75.7030  222.2640 C   0  0  0  0  0  0  0  0  0  0  0  0
  138.2770   77.1110  222.4130 C   0  0  0  0  0  0  0  0  0  0  0  0
  140.9420   80.6860  221.9130 C   0  0  0  0  0  0  0  0  0  0  0  0
  142.1820   81.0220  222.4450 C   0  0  0  0  0  0  0  0  0  0  0  0
  143.6122   80.6642  224.0119 H   0  0  0  0  0  0  0  0  0  0  0  0
  142.1877   78.9435  225.1081 H   0  0  0  0  0  0  0  0  0  0  0  0
  140.0018   78.3717  224.1423 H   0  0  0  0  0  0  0  0  0  0  0  0
  138.1117   79.3549  222.8399 H   0  0  0  0  0  0  0  0  0  0  0  0
  138.5756   80.0314  221.1867 H   0  0  0  0  0  0  0  0  0  0  0  0
  139.5636   76.9884  219.8269 H   0  0  0  0  0  0  0  0  0  0  0  0
  140.4241   78.4978  220.3011 H   0  0  0  0  0  0  0  0  0  0  0  0
  141.7570   76.5820  221.0254 H   0  0  0  0  0  0  0  0  0  0  0  0
  141.0910   77.3589  222.4698 H   0  0  0  0  0  0  0  0  0  0  0  0
  144.3910   71.1145  220.8925 H   0  0  0  0  0  0  0  0  0  0  0  0
  143.1585   70.2437  219.9408 H   0  0  0  0  0  0  0  0  0  0  0  0
  145.5117   70.1873  218.9506 H   0  0  0  0  0  0  0  0  0  0  0  0
  144.2668   70.8326  217.8448 H   0  0  0  0  0  0  0  0  0  0  0  0
  146.3160   72.1410  218.0200 H   0  0  0  0  0  0  0  0  0  0  0  0
  145.0983   74.2988  218.6272 H   0  0  0  0  0  0  0  0  0  0  0  0
  144.7263   73.3324  217.1324 H   0  0  0  0  0  0  0  0  0  0  0  0
  142.8776   74.2012  218.9311 H   0  0  0  0  0  0  0  0  0  0  0  0
  142.7143   72.7578  217.8252 H   0  0  0  0  0  0  0  0  0  0  0  0
  138.4811   70.9426  224.0559 H   0  0  0  0  0  0  0  0  0  0  0  0
  139.1415   70.3151  222.4881 H   0  0  0  0  0  0  0  0  0  0  0  0
  138.4795   68.4971  224.0893 H   0  0  0  0  0  0  0  0  0  0  0  0
  140.1884   68.4276  223.6286 H   0  0  0  0  0  0  0  0  0  0  0  0
  138.5085   67.6532  226.2740 H   0  0  0  0  0  0  0  0  0  0  0  0
  139.1314   67.9740  228.6760 H   0  0  0  0  0  0  0  0  0  0  0  0
  140.7912   69.7386  229.2659 H   0  0  0  0  0  0  0  0  0  0  0  0
  141.7976   71.1456  227.5146 H   0  0  0  0  0  0  0  0  0  0  0  0
  141.5310   72.0862  225.3548 H   0  0  0  0  0  0  0  0  0  0  0  0
  142.3562   70.6719  224.6285 H   0  0  0  0  0  0  0  0  0  0  0  0
  138.1015   75.2169  221.5008 H   0  0  0  0  0  0  0  0  0  0  0  0
  138.6289   75.2269  223.2507 H   0  0  0  0  0  0  0  0  0  0  0  0
  137.1775   77.1188  222.3821 H   0  0  0  0  0  0  0  0  0  0  0  0
  138.7006   77.4605  223.3661 H   0  0  0  0  0  0  0  0  0  0  0  0
  140.5986   81.1920  220.9986 H   0  0  0  0  0  0  0  0  0  0  0  0
  142.8034   81.7842  221.9521 H   0  0  0  0  0  0  0  0  0  0  0  0
  1  2  2  0
  2  3  1  0
  3  4  2  0
  4  5  1  0
  5  6  1  0
  6  7  1  0
  7  8  1  0
  8  9  1  0
  9 10  1  0
 10 11  2  0
 11 12  1  0
 12 13  1  0
 13 14  1  0
 14 15  1  0
 15 16  1  0
 16 17  1  0
 17 18  1  0
 12 19  2  0
 19 20  1  0
 20 21  1  0
 21 22  1  0
 22 23  1  0
 23 24  1  0
 24 25  2  0
 25 26  1  0
 26 27  2  0
 27 28  1  0
 28 29  2  0
 29 30  1  0
 20 31  2  0
  9 32  1  0
 32 33  1  0
  4 34  1  0
 34 35  2  0
 35  1  1  0
 33  6  1  0
 31 10  1  0
 18 13  1  0
 30 21  1  0
 29 24  1  0
  1 36  1  0
  2 37  1  0
  3 38  1  0
  5 39  1  0
  5 40  1  0
  7 41  1  0
  7 42  1  0
  8 43  1  0
  8 44  1  0
 14 45  1  0
 14 46  1  0
 15 47  1  0
 15 48  1  0
 16 49  1  0
 17 50  1  0
 17 51  1  0
 18 52  1  0
 18 53  1  0
 22 54  1  0
 22 55  1  0
 23 56  1  0
 23 57  1  0
 25 58  1  0
 26 59  1  0
 27 60  1  0
 28 61  1  0
 30 62  1  0
 30 63  1  0
 32 64  1  0
 32 65  1  0
 33 66  1  0
 33 67  1  0
 34 68  1  0
 35 69  1  0
M  END
>  <smiles>  (37) 
c1ccc(CN2CCN(c3nc(N4CCNCC4)nc(N4CCc5ccccc5C4)n3)CC2)cc1

>  <score_type>  (37) 
oracle

>  <origin>  (37) 
autodockgpu

>  <m_score__min__energy>  (37) 
-9.8499999999999996

>  <m_primary>  (37) 
energy

>  <rmsd>  (37) 
3.9629370107016917

>  <m_score__min__rmsd>  (37) 
3.9629370107016917

>  <meeko>  (37) 
{"free_energy": -9.26, "intermolecular_energy": -10.75, "internal_energy": -1.2, "cluster_size": 43, "cluster_id": 1, "rank_in_cluster": 18}

>  <energy>  (37) 
-9.06

>  <cluster_rmsd>  (37) 
0.89

>  <cluster>  (37) 
1

$$$$

     RDKit          3D

 69 74  0  0  0  0  0  0  0  0999 V2000
  140.9670   68.8570  228.3040 C   0  0  0  0  0  0  0  0  0  0  0  0
  141.4040   68.1180  227.2260 C   0  0  0  0  0  0  0  0  0  0  0  0
  140.6380   68.0740  226.0810 C   0  0  0  0  0  0  0  0  0  0  0  0
  139.4310   68.7430  225.9550 C   0  0  0  0  0  0  0  0  0  0  0  0
  138.6990   68.6330  224.6940 C   0  0  0  0  0  0  0  0  0  0  0  0
  138.4880   69.8530  223.9890 N   0  0  0  0  0  0  0  0  0  0  0  0
  139.0040   71.0300  224.5930 C   0  0  0  0  0  0  0  0  0  0  0  0
  140.3830   71.3360  224.0450 C   0  0  0  0  0  0  0  0  0  0  0  0
  140.1860   71.6920  222.6490 N   0  0  0  0  0  0  0  0  0  0  0  0
  140.8060   72.8170  222.0450 C   0  0  0  0  0  0  0  0  0  0  0  0
  141.8680   72.7300  221.2300 N   0  0  0  0  0  0  0  0  0  0  0  0
  142.4360   73.8320  220.6690 C   0  0  0  0  0  0  0  0  0  0  0  0
  143.5680   73.7350  219.8030 N   0  0  0  0  0  0  0  0  0  0  0  0
  143.3570   73.5450  218.3880 C   0  0  0  0  0  0  0  0  0  0  0  0
  144.7130   73.3900  217.7350 C   0  0  0  0  0  0  0  0  0  0  0  0
  145.4530   72.3860  218.4720 N   0  0  0  0  0  0  0  0  0  0  0  0
  145.8720   72.8640  219.7720 C   0  0  0  0  0  0  0  0  0  0  0  0
  144.8820   73.8320  220.3750 C   0  0  0  0  0  0  0  0  0  0  0  0
  141.8940   75.0500  220.9570 N   0  0  0  0  0  0  0  0  0  0  0  0
  140.8310   75.1760  221.7680 C   0  0  0  0  0  0  0  0  0  0  0  0
  140.2480   76.4520  222.0820 N   0  0  0  0  0  0  0  0  0  0  0  0
  138.8850   76.7120  221.6780 C   0  0  0  0  0  0  0  0  0  0  0  0
  138.1590   77.5890  222.6790 C   0  0  0  0  0  0  0  0  0  0  0  0
  138.9990   78.8300  222.8290 C   0  0  0  0  0  0  0  0  0  0  0  0
  138.3700   80.0520  222.9130 C   0  0  0  0  0  0  0  0  0  0  0  0
  139.1350   81.1970  223.0510 C   0  0  0  0  0  0  0  0  0  0  0  0
  140.5160   81.0710  223.1000 C   0  0  0  0  0  0  0  0  0  0  0  0
  141.1150   79.8320  223.0130 C   0  0  0  0  0  0  0  0  0  0  0  0
  140.3660   78.6830  222.8740 C   0  0  0  0  0  0  0  0  0  0  0  0
  141.0790   77.4000  222.7880 C   0  0  0  0  0  0  0  0  0  0  0  0
  140.3230   74.0480  222.2850 N   0  0  0  0  0  0  0  0  0  0  0  0
  139.3130   70.8440  221.8740 C   0  0  0  0  0  0  0  0  0  0  0  0
  138.8420   69.6430  222.6110 C   0  0  0  0  0  0  0  0  0  0  0  0
  139.0210   69.4740  227.0500 C   0  0  0  0  0  0  0  0  0  0  0  0
  139.7750   69.5360  228.2170 C   0  0  0  0  0  0  0  0  0  0  0  0
  141.5663   68.9031  229.2252 H   0  0  0  0  0  0  0  0  0  0  0  0
  142.3554   67.5683  227.2789 H   0  0  0  0  0  0  0  0  0  0  0  0
  141.0012   67.4810  225.2287 H   0  0  0  0  0  0  0  0  0  0  0  0
  139.2624   67.9560  224.0351 H   0  0  0  0  0  0  0  0  0  0  0  0
  137.6970   68.2668  224.9622 H   0  0  0  0  0  0  0  0  0  0  0  0
  138.3318   71.8737  224.3780 H   0  0  0  0  0  0  0  0  0  0  0  0
  139.0751   70.8750  225.6797 H   0  0  0  0  0  0  0  0  0  0  0  0
  140.8355   72.1751  224.5938 H   0  0  0  0  0  0  0  0  0  0  0  0
  141.0603   70.4757  224.1512 H   0  0  0  0  0  0  0  0  0  0  0  0
  142.7541   72.6409  218.2176 H   0  0  0  0  0  0  0  0  0  0  0  0
  142.8207   74.4050  217.9606 H   0  0  0  0  0  0  0  0  0  0  0  0
  144.5896   73.0703  216.6898 H   0  0  0  0  0  0  0  0  0  0  0  0
  145.2539   74.3478  217.7458 H   0  0  0  0  0  0  0  0  0  0  0  0
  146.3180   72.1620  217.9230 H   0  0  0  0  0  0  0  0  0  0  0  0
  145.9801   72.0025  220.4473 H   0  0  0  0  0  0  0  0  0  0  0  0
  146.8259   73.3963  219.6426 H   0  0  0  0  0  0  0  0  0  0  0  0
  144.8086   73.6289  221.4536 H   0  0  0  0  0  0  0  0  0  0  0  0
  145.2524   74.8467  220.1671 H   0  0  0  0  0  0  0  0  0  0  0  0
  138.8934   77.2181  220.7014 H   0  0  0  0  0  0  0  0  0  0  0  0
  138.3560   75.7493  221.6197 H   0  0  0  0  0  0  0  0  0  0  0  0
  137.1576   77.8481  222.3047 H   0  0  0  0  0  0  0  0  0  0  0  0
  138.0240   77.0748  223.6420 H   0  0  0  0  0  0  0  0  0  0  0  0
  137.2727   80.1173  222.8709 H   0  0  0  0  0  0  0  0  0  0  0  0
  138.6584   82.1860  223.1204 H   0  0  0  0  0  0  0  0  0  0  0  0
  141.1403   81.9700  223.2096 H   0  0  0  0  0  0  0  0  0  0  0  0
  142.2118   79.7590  223.0553 H   0  0  0  0  0  0  0  0  0  0  0  0
  142.0253   77.5386  222.2446 H   0  0  0  0  0  0  0  0  0  0  0  0
  141.2975   77.0253  223.7989 H   0  0  0  0  0  0  0  0  0  0  0  0
  138.4346   71.4330  221.5715 H   0  0  0  0  0  0  0  0  0  0  0  0
  139.8939   70.4858  221.0113 H   0  0  0  0  0  0  0  0  0  0  0  0
  137.9547   69.2539  222.0902 H   0  0  0  0  0  0  0  0  0  0  0  0
  139.6941   68.9474  222.6242 H   0  0  0  0  0  0  0  0  0  0  0  0
  138.0698   70.0241  226.9990 H   0  0  0  0  0  0  0  0  0  0  0  0
  139.4170   70.1291  229.0714 H   0  0  0  0  0  0  0  0  0  0  0  0
  1  2  2  0
  2  3  1  0
  3  4  2  0
  4  5  1  0
  5  6  1  0
  6  7  1  0
  7  8  1  0
  8  9  1  0
  9 10  1  0
 10 11  2  0
 11 12  1  0
 12 13  1  0
 13 14  1  0
 14 15  1  0
 15 16  1  0
 16 17  1  0
 17 18  1  0
 12 19  2  0
 19 20  1  0
 20 21  1  0
 21 22  1  0
 22 23  1  0
 23 24  1  0
 24 25  2  0
 25 26  1  0
 26 27  2  0
 27 28  1  0
 28 29  2  0
 29 30  1  0
 20 31  2  0
  9 32  1  0
 32 33  1  0
  4 34  1  0
 34 35  2  0
 35  1  1  0
 33  6  1  0
 31 10  1  0
 18 13  1  0
 30 21  1  0
 29 24  1  0
  1 36  1  0
  2 37  1  0
  3 38  1  0
  5 39  1  0
  5 40  1  0
  7 41  1  0
  7 42  1  0
  8 43  1  0
  8 44  1  0
 14 45  1  0
 14 46  1  0
 15 47  1  0
 15 48  1  0
 16 49  1  0
 17 50  1  0
 17 51  1  0
 18 52  1  0
 18 53  1  0
 22 54  1  0
 22 55  1  0
 23 56  1  0
 23 57  1  0
 25 58  1  0
 26 59  1  0
 27 60  1  0
 28 61  1  0
 30 62  1  0
 30 63  1  0
 32 64  1  0
 32 65  1  0
 33 66  1  0
 33 67  1  0
 34 68  1  0
 35 69  1  0
M  END
>  <smiles>  (38) 
c1ccc(CN2CCN(c3nc(N4CCNCC4)nc(N4CCc5ccccc5C4)n3)CC2)cc1

>  <score_type>  (38) 
oracle

>  <origin>  (38) 
autodockgpu

>  <m_score__min__energy>  (38) 
-9.8499999999999996

>  <m_primary>  (38) 
energy

>  <rmsd>  (38) 
11.050810416436017

>  <m_score__min__rmsd>  (38) 
11.050810416436017

>  <meeko>  (38) 
{"free_energy": -9.77, "intermolecular_energy": -11.26, "internal_energy": -1.0, "cluster_size": 43, "cluster_id": 1, "rank_in_cluster": 3}

>  <energy>  (38) 
-8.99

>  <cluster_rmsd>  (38) 
1.56

>  <cluster>  (38) 
1

$$$$

     RDKit          3D

 69 74  0  0  0  0  0  0  0  0999 V2000
  141.0740   67.9430  227.9350 C   0  0  0  0  0  0  0  0  0  0  0  0
  140.9290   67.4690  226.6490 C   0  0  0  0  0  0  0  0  0  0  0  0
  140.0360   68.0830  225.7980 C   0  0  0  0  0  0  0  0  0  0  0  0
  139.2620   69.1690  226.1730 C   0  0  0  0  0  0  0  0  0  0  0  0
  138.3470   69.7490  225.1910 C   0  0  0  0  0  0  0  0  0  0  0  0
  138.6470   71.0770  224.7710 N   0  0  0  0  0  0  0  0  0  0  0  0
  139.9950   71.4980  224.9150 C   0  0  0  0  0  0  0  0  0  0  0  0
  140.7520   71.2720  223.6210 C   0  0  0  0  0  0  0  0  0  0  0  0
  140.1770   72.1960  222.6580 N   0  0  0  0  0  0  0  0  0  0  0  0
  140.9660   73.0020  221.7960 C   0  0  0  0  0  0  0  0  0  0  0  0
  141.8130   72.5020  220.8840 N   0  0  0  0  0  0  0  0  0  0  0  0
  142.5550   73.3070  220.0750 C   0  0  0  0  0  0  0  0  0  0  0  0
  143.4570   72.7720  219.1050 N   0  0  0  0  0  0  0  0  0  0  0  0
  144.3330   71.6890  219.4800 C   0  0  0  0  0  0  0  0  0  0  0  0
  145.2280   71.3870  218.2980 C   0  0  0  0  0  0  0  0  0  0  0  0
  145.8120   72.6340  217.8490 N   0  0  0  0  0  0  0  0  0  0  0  0
  144.8420   73.4860  217.1970 C   0  0  0  0  0  0  0  0  0  0  0  0
  143.4580   73.3350  217.7830 C   0  0  0  0  0  0  0  0  0  0  0  0
  142.4160   74.6570  220.2100 N   0  0  0  0  0  0  0  0  0  0  0  0
  141.5770   75.1940  221.1120 C   0  0  0  0  0  0  0  0  0  0  0  0
  141.4190   76.6130  221.2690 N   0  0  0  0  0  0  0  0  0  0  0  0
  141.6120   77.4660  220.1170 C   0  0  0  0  0  0  0  0  0  0  0  0
  140.6880   78.6670  220.1450 C   0  0  0  0  0  0  0  0  0  0  0  0
  140.9400   79.3530  221.4620 C   0  0  0  0  0  0  0  0  0  0  0  0
  140.9840   80.7290  221.4970 C   0  0  0  0  0  0  0  0  0  0  0  0
  141.2150   81.3670  222.7030 C   0  0  0  0  0  0  0  0  0  0  0  0
  141.3930   80.5930  223.8400 C   0  0  0  0  0  0  0  0  0  0  0  0
  141.3430   79.2160  223.7710 C   0  0  0  0  0  0  0  0  0  0  0  0
  141.1150   78.5670  222.5770 C   0  0  0  0  0  0  0  0  0  0  0  0
  141.0760   77.0970  222.5860 C   0  0  0  0  0  0  0  0  0  0  0  0
  140.8790   74.3410  221.8760 N   0  0  0  0  0  0  0  0  0  0  0  0
  138.7370   72.2750  222.6050 C   0  0  0  0  0  0  0  0  0  0  0  0
  138.0540   71.2840  223.4770 C   0  0  0  0  0  0  0  0  0  0  0  0
  139.4290   69.6210  227.4650 C   0  0  0  0  0  0  0  0  0  0  0  0
  140.3240   69.0200  228.3450 C   0  0  0  0  0  0  0  0  0  0  0  0
  141.7829   67.4643  228.6267 H   0  0  0  0  0  0  0  0  0  0  0  0
  141.5210   66.6081  226.3050 H   0  0  0  0  0  0  0  0  0  0  0  0
  139.9330   67.6932  224.7746 H   0  0  0  0  0  0  0  0  0  0  0  0
  138.3549   69.1036  224.3002 H   0  0  0  0  0  0  0  0  0  0  0  0
  137.3698   69.8084  225.6925 H   0  0  0  0  0  0  0  0  0  0  0  0
  140.0169   72.5685  225.1672 H   0  0  0  0  0  0  0  0  0  0  0  0
  140.4708   70.9148  225.7172 H   0  0  0  0  0  0  0  0  0  0  0  0
  141.8224   71.4828  223.7618 H   0  0  0  0  0  0  0  0  0  0  0  0
  140.6686   70.2293  223.2806 H   0  0  0  0  0  0  0  0  0  0  0  0
  144.9437   71.9845  220.3458 H   0  0  0  0  0  0  0  0  0  0  0  0
  143.7476   70.7994  219.7556 H   0  0  0  0  0  0  0  0  0  0  0  0
  146.0233   70.6898  218.6004 H   0  0  0  0  0  0  0  0  0  0  0  0
  144.6470   70.9232  217.4872 H   0  0  0  0  0  0  0  0  0  0  0  0
  146.5540   72.4030  217.1450 H   0  0  0  0  0  0  0  0  0  0  0  0
  145.1603   74.5331  217.3077 H   0  0  0  0  0  0  0  0  0  0  0  0
  144.7926   73.1899  216.1388 H   0  0  0  0  0  0  0  0  0  0  0  0
  142.9874   74.3283  217.8266 H   0  0  0  0  0  0  0  0  0  0  0  0
  142.9041   72.6410  217.1338 H   0  0  0  0  0  0  0  0  0  0  0  0
  142.6539   77.8185  220.1055 H   0  0  0  0  0  0  0  0  0  0  0  0
  141.3832   76.8795  219.2150 H   0  0  0  0  0  0  0  0  0  0  0  0
  140.9176   79.3456  219.3103 H   0  0  0  0  0  0  0  0  0  0  0  0
  139.6346   78.3678  220.0412 H   0  0  0  0  0  0  0  0  0  0  0  0
  140.8372   81.3140  220.5771 H   0  0  0  0  0  0  0  0  0  0  0  0
  141.2566   82.4648  222.7587 H   0  0  0  0  0  0  0  0  0  0  0  0
  141.5761   81.0826  224.8078 H   0  0  0  0  0  0  0  0  0  0  0  0
  141.4880   78.6246  224.6871 H   0  0  0  0  0  0  0  0  0  0  0  0
  141.7989   76.7127  223.3207 H   0  0  0  0  0  0  0  0  0  0  0  0
  140.0679   76.7521  222.8596 H   0  0  0  0  0  0  0  0  0  0  0  0
  138.4323   73.2839  222.9202 H   0  0  0  0  0  0  0  0  0  0  0  0
  138.4397   72.0524  221.5696 H   0  0  0  0  0  0  0  0  0  0  0  0
  137.0195   71.6252  223.6302 H   0  0  0  0  0  0  0  0  0  0  0  0
  138.1334   70.3198  222.9536 H   0  0  0  0  0  0  0  0  0  0  0  0
  138.8375   70.4818  227.8102 H   0  0  0  0  0  0  0  0  0  0  0  0
  140.4315   69.4068  229.3691 H   0  0  0  0  0  0  0  0  0  0  0  0
  1  2  2  0
  2  3  1  0
  3  4  2  0
  4  5  1  0
  5  6  1  0
  6  7  1  0
  7  8  1  0
  8  9  1  0
  9 10  1  0
 10 11  2  0
 11 12  1  0
 12 13  1  0
 13 14  1  0
 14 15  1  0
 15 16  1  0
 16 17  1  0
 17 18  1  0
 12 19  2  0
 19 20  1  0
 20 21  1  0
 21 22  1  0
 22 23  1  0
 23 24  1  0
 24 25  2  0
 25 26  1  0
 26 27  2  0
 27 28  1  0
 28 29  2  0
 29 30  1  0
 20 31  2  0
  9 32  1  0
 32 33  1  0
  4 34  1  0
 34 35  2  0
 35  1  1  0
 33  6  1  0
 31 10  1  0
 18 13  1  0
 30 21  1  0
 29 24  1  0
  1 36  1  0
  2 37  1  0
  3 38  1  0
  5 39  1  0
  5 40  1  0
  7 41  1  0
  7 42  1  0
  8 43  1  0
  8 44  1  0
 14 45  1  0
 14 46  1  0
 15 47  1  0
 15 48  1  0
 16 49  1  0
 17 50  1  0
 17 51  1  0
 18 52  1  0
 18 53  1  0
 22 54  1  0
 22 55  1  0
 23 56  1  0
 23 57  1  0
 25 58  1  0
 26 59  1  0
 27 60  1  0
 28 61  1  0
 30 62  1  0
 30 63  1  0
 32 64  1  0
 32 65  1  0
 33 66  1  0
 33 67  1  0
 34 68  1  0
 35 69  1  0
M  END
>  <smiles>  (39) 
c1ccc(CN2CCN(c3nc(N4CCNCC4)nc(N4CCc5ccccc5C4)n3)CC2)cc1

>  <score_type>  (39) 
oracle

>  <origin>  (39) 
autodockgpu

>  <m_score__min__energy>  (39) 
-9.8499999999999996

>  <m_primary>  (39) 
energy

>  <rmsd>  (39) 
11.015320105239999

>  <m_score__min__rmsd>  (39) 
11.015320105239999

>  <meeko>  (39) 
{"free_energy": -9.36, "intermolecular_energy": -10.85, "internal_energy": -1.16, "cluster_size": 43, "cluster_id": 1, "rank_in_cluster": 15}

>  <energy>  (39) 
-8.92

>  <cluster_rmsd>  (39) 
1.89

>  <cluster>  (39) 
1

$$$$

     RDKit          3D

 69 74  0  0  0  0  0  0  0  0999 V2000
  140.9090   68.1240  228.3780 C   0  0  0  0  0  0  0  0  0  0  0  0
  139.9070   69.0700  228.4050 C   0  0  0  0  0  0  0  0  0  0  0  0
  139.1700   69.3080  227.2650 C   0  0  0  0  0  0  0  0  0  0  0  0
  139.3870   68.6360  226.0730 C   0  0  0  0  0  0  0  0  0  0  0  0
  138.5450   68.9620  224.9230 C   0  0  0  0  0  0  0  0  0  0  0  0
  138.4960   70.3380  224.5590 N   0  0  0  0  0  0  0  0  0  0  0  0
  139.5700   71.1510  225.0090 C   0  0  0  0  0  0  0  0  0  0  0  0
  140.6360   71.2460  223.9360 C   0  0  0  0  0  0  0  0  0  0  0  0
  140.0370   71.9960  222.8450 N   0  0  0  0  0  0  0  0  0  0  0  0
  140.7060   73.0560  222.1780 C   0  0  0  0  0  0  0  0  0  0  0  0
  141.7740   72.8760  221.3860 N   0  0  0  0  0  0  0  0  0  0  0  0
  142.3910   73.9170  220.7630 C   0  0  0  0  0  0  0  0  0  0  0  0
  143.5290   73.7220  219.9220 N   0  0  0  0  0  0  0  0  0  0  0  0
  143.3300   73.3140  218.5530 C   0  0  0  0  0  0  0  0  0  0  0  0
  144.6930   73.1000  217.9310 C   0  0  0  0  0  0  0  0  0  0  0  0
  145.4570   72.2400  218.8120 N   0  0  0  0  0  0  0  0  0  0  0  0
  145.8560   72.9200  220.0250 C   0  0  0  0  0  0  0  0  0  0  0  0
  144.8370   73.9400  220.4740 C   0  0  0  0  0  0  0  0  0  0  0  0
  141.8920   75.1710  220.9620 N   0  0  0  0  0  0  0  0  0  0  0  0
  140.8240   75.3890  221.7470 C   0  0  0  0  0  0  0  0  0  0  0  0
  140.2860   76.7030  221.9680 N   0  0  0  0  0  0  0  0  0  0  0  0
  138.9770   77.0170  221.4390 C   0  0  0  0  0  0  0  0  0  0  0  0
  138.2170   77.9650  222.3450 C   0  0  0  0  0  0  0  0  0  0  0  0
  139.1060   79.1670  222.5270 C   0  0  0  0  0  0  0  0  0  0  0  0
  138.5390   80.4220  222.5170 C   0  0  0  0  0  0  0  0  0  0  0  0
  139.3490   81.5310  222.6830 C   0  0  0  0  0  0  0  0  0  0  0  0
  140.7120   81.3380  222.8560 C   0  0  0  0  0  0  0  0  0  0  0  0
  141.2490   80.0670  222.8600 C   0  0  0  0  0  0  0  0  0  0  0  0
  140.4540   78.9530  222.6950 C   0  0  0  0  0  0  0  0  0  0  0  0
  141.1030   77.6330  222.7120 C   0  0  0  0  0  0  0  0  0  0  0  0
  140.2670   74.3170  222.3290 N   0  0  0  0  0  0  0  0  0  0  0  0
  138.6990   71.6230  222.4510 C   0  0  0  0  0  0  0  0  0  0  0  0
  138.1840   70.4220  223.1570 C   0  0  0  0  0  0  0  0  0  0  0  0
  140.3960   67.6950  226.0770 C   0  0  0  0  0  0  0  0  0  0  0  0
  141.1540   67.4350  227.2140 C   0  0  0  0  0  0  0  0  0  0  0  0
  141.5068   67.9223  229.2791 H   0  0  0  0  0  0  0  0  0  0  0  0
  139.6974   69.6301  229.3282 H   0  0  0  0  0  0  0  0  0  0  0  0
  138.3735   70.0657  227.3032 H   0  0  0  0  0  0  0  0  0  0  0  0
  138.9228   68.3976  224.0577 H   0  0  0  0  0  0  0  0  0  0  0  0
  137.5197   68.6954  225.2192 H   0  0  0  0  0  0  0  0  0  0  0  0
  139.1927   72.1587  225.2373 H   0  0  0  0  0  0  0  0  0  0  0  0
  140.0077   70.7017  225.9127 H   0  0  0  0  0  0  0  0  0  0  0  0
  141.5213   71.7728  224.3217 H   0  0  0  0  0  0  0  0  0  0  0  0
  140.9680   70.2502  223.6072 H   0  0  0  0  0  0  0  0  0  0  0  0
  142.7533   72.3778  218.5216 H   0  0  0  0  0  0  0  0  0  0  0  0
  142.7720   74.0839  218.0000 H   0  0  0  0  0  0  0  0  0  0  0  0
  144.5831   72.6225  216.9462 H   0  0  0  0  0  0  0  0  0  0  0  0
  145.2072   74.0631  217.7966 H   0  0  0  0  0  0  0  0  0  0  0  0
  146.3300   71.9590  218.3040 H   0  0  0  0  0  0  0  0  0  0  0  0
  145.9841   72.1736  220.8228 H   0  0  0  0  0  0  0  0  0  0  0  0
  146.7956   73.4530  219.8176 H   0  0  0  0  0  0  0  0  0  0  0  0
  144.7635   73.8998  221.5708 H   0  0  0  0  0  0  0  0  0  0  0  0
  145.1809   74.9215  220.1156 H   0  0  0  0  0  0  0  0  0  0  0  0
  139.0953   77.4864  220.4512 H   0  0  0  0  0  0  0  0  0  0  0  0
  138.4041   76.0809  221.3655 H   0  0  0  0  0  0  0  0  0  0  0  0
  137.2659   78.2602  221.8778 H   0  0  0  0  0  0  0  0  0  0  0  0
  137.9742   77.4936  223.3088 H   0  0  0  0  0  0  0  0  0  0  0  0
  137.4543   80.5412  222.3786 H   0  0  0  0  0  0  0  0  0  0  0  0
  138.9215   82.5445  222.6779 H   0  0  0  0  0  0  0  0  0  0  0  0
  141.3717   82.2077  222.9915 H   0  0  0  0  0  0  0  0  0  0  0  0
  142.3330   79.9402  222.9976 H   0  0  0  0  0  0  0  0  0  0  0  0
  142.0979   77.7042  222.2482 H   0  0  0  0  0  0  0  0  0  0  0  0
  141.2151   77.2850  223.7495 H   0  0  0  0  0  0  0  0  0  0  0  0
  138.0260   72.4667  222.6637 H   0  0  0  0  0  0  0  0  0  0  0  0
  138.7353   71.3764  221.3796 H   0  0  0  0  0  0  0  0  0  0  0  0
  137.0889   70.4136  223.0539 H   0  0  0  0  0  0  0  0  0  0  0  0
  138.6842   69.5621  222.6876 H   0  0  0  0  0  0  0  0  0  0  0  0
  140.6071   67.1342  225.1545 H   0  0  0  0  0  0  0  0  0  0  0  0
  141.9505   66.6770  227.1816 H   0  0  0  0  0  0  0  0  0  0  0  0
  1  2  2  0
  2  3  1  0
  3  4  2  0
  4  5  1  0
  5  6  1  0
  6  7  1  0
  7  8  1  0
  8  9  1  0
  9 10  1  0
 10 11  2  0
 11 12  1  0
 12 13  1  0
 13 14  1  0
 14 15  1  0
 15 16  1  0
 16 17  1  0
 17 18  1  0
 12 19  2  0
 19 20  1  0
 20 21  1  0
 21 22  1  0
 22 23  1  0
 23 24  1  0
 24 25  2  0
 25 26  1  0
 26 27  2  0
 27 28  1  0
 28 29  2  0
 29 30  1  0
 20 31  2  0
  9 32  1  0
 32 33  1  0
  4 34  1  0
 34 35  2  0
 35  1  1  0
 33  6  1  0
 31 10  1  0
 18 13  1  0
 30 21  1  0
 29 24  1  0
  1 36  1  0
  2 37  1  0
  3 38  1  0
  5 39  1  0
  5 40  1  0
  7 41  1  0
  7 42  1  0
  8 43  1  0
  8 44  1  0
 14 45  1  0
 14 46  1  0
 15 47  1  0
 15 48  1  0
 16 49  1  0
 17 50  1  0
 17 51  1  0
 18 52  1  0
 18 53  1  0
 22 54  1  0
 22 55  1  0
 23 56  1  0
 23 57  1  0
 25 58  1  0
 26 59  1  0
 27 60  1  0
 28 61  1  0
 30 62  1  0
 30 63  1  0
 32 64  1  0
 32 65  1  0
 33 66  1  0
 33 67  1  0
 34 68  1  0
 35 69  1  0
M  END
>  <smiles>  (40) 
c1ccc(CN2CCN(c3nc(N4CCNCC4)nc(N4CCc5ccccc5C4)n3)CC2)cc1

>  <score_type>  (40) 
oracle

>  <origin>  (40) 
autodockgpu

>  <m_score__min__energy>  (40) 
-9.8499999999999996

>  <m_primary>  (40) 
energy

>  <rmsd>  (40) 
11.275203530129854

>  <m_score__min__rmsd>  (40) 
11.275203530129854

>  <meeko>  (40) 
{"free_energy": -9.74, "intermolecular_energy": -11.23, "internal_energy": -0.99, "cluster_size": 43, "cluster_id": 1, "rank_in_cluster": 4}

>  <energy>  (40) 
-8.85

>  <cluster_rmsd>  (40) 
1.73

>  <cluster>  (40) 
1

$$$$

     RDKit          3D

 69 74  0  0  0  0  0  0  0  0999 V2000
  141.1830   68.4280  228.3540 C   0  0  0  0  0  0  0  0  0  0  0  0
  140.0420   69.1930  228.4630 C   0  0  0  0  0  0  0  0  0  0  0  0
  139.1900   69.2940  227.3840 C   0  0  0  0  0  0  0  0  0  0  0  0
  139.4240   68.6570  226.1760 C   0  0  0  0  0  0  0  0  0  0  0  0
  138.4530   68.8270  225.0970 C   0  0  0  0  0  0  0  0  0  0  0  0
  138.3200   70.1500  224.5840 N   0  0  0  0  0  0  0  0  0  0  0  0
  139.2890   71.0950  225.0100 C   0  0  0  0  0  0  0  0  0  0  0  0
  140.4190   71.1730  224.0030 C   0  0  0  0  0  0  0  0  0  0  0  0
  139.8410   71.7530  222.8020 N   0  0  0  0  0  0  0  0  0  0  0  0
  140.4690   72.7930  222.0670 C   0  0  0  0  0  0  0  0  0  0  0  0
  141.4150   72.5790  221.1410 N   0  0  0  0  0  0  0  0  0  0  0  0
  141.9950   73.6030  220.4570 C   0  0  0  0  0  0  0  0  0  0  0  0
  143.0030   73.3720  219.4710 N   0  0  0  0  0  0  0  0  0  0  0  0
  144.3310   73.0000  219.8940 C   0  0  0  0  0  0  0  0  0  0  0  0
  145.2010   72.9080  218.6600 C   0  0  0  0  0  0  0  0  0  0  0  0
  145.0270   74.1270  217.8970 N   0  0  0  0  0  0  0  0  0  0  0  0
  143.7290   74.1920  217.2640 C   0  0  0  0  0  0  0  0  0  0  0  0
  142.6540   73.5190  218.0850 C   0  0  0  0  0  0  0  0  0  0  0  0
  141.5890   74.8750  220.7370 N   0  0  0  0  0  0  0  0  0  0  0  0
  140.6440   75.1270  221.6580 C   0  0  0  0  0  0  0  0  0  0  0  0
  140.2050   76.4600  221.9660 N   0  0  0  0  0  0  0  0  0  0  0  0
  138.9060   76.8900  221.4970 C   0  0  0  0  0  0  0  0  0  0  0  0
  138.2400   77.8360  222.4760 C   0  0  0  0  0  0  0  0  0  0  0  0
  139.2150   78.9630  222.6930 C   0  0  0  0  0  0  0  0  0  0  0  0
  138.7350   80.2520  222.7690 C   0  0  0  0  0  0  0  0  0  0  0  0
  139.6250   81.2920  222.9680 C   0  0  0  0  0  0  0  0  0  0  0  0
  140.9760   80.9980  223.0860 C   0  0  0  0  0  0  0  0  0  0  0  0
  141.4240   79.6960  223.0050 C   0  0  0  0  0  0  0  0  0  0  0  0
  140.5490   78.6500  222.8060 C   0  0  0  0  0  0  0  0  0  0  0  0
  141.1050   77.2900  222.7320 C   0  0  0  0  0  0  0  0  0  0  0  0
  140.1160   74.0700  222.2930 N   0  0  0  0  0  0  0  0  0  0  0  0
  138.5690   71.2260  222.3670 C   0  0  0  0  0  0  0  0  0  0  0  0
  138.1030   70.0620  223.1650 C   0  0  0  0  0  0  0  0  0  0  0  0
  140.5730   67.8980  226.0980 C   0  0  0  0  0  0  0  0  0  0  0  0
  141.4500   67.7790  227.1720 C   0  0  0  0  0  0  0  0  0  0  0  0
  141.8739   68.3375  229.2052 H   0  0  0  0  0  0  0  0  0  0  0  0
  139.8132   69.7181  229.4021 H   0  0  0  0  0  0  0  0  0  0  0  0
  138.2832   69.9082  227.4867 H   0  0  0  0  0  0  0  0  0  0  0  0
  138.7537   68.1717  224.2662 H   0  0  0  0  0  0  0  0  0  0  0  0
  137.4749   68.5765  225.5336 H   0  0  0  0  0  0  0  0  0  0  0  0
  138.8162   72.0838  225.1035 H   0  0  0  0  0  0  0  0  0  0  0  0
  139.6950   70.7805  225.9828 H   0  0  0  0  0  0  0  0  0  0  0  0
  141.2290   71.8117  224.3851 H   0  0  0  0  0  0  0  0  0  0  0  0
  140.8534   70.1820  223.8049 H   0  0  0  0  0  0  0  0  0  0  0  0
  144.7325   73.7614  220.5789 H   0  0  0  0  0  0  0  0  0  0  0  0
  144.3098   72.0351  220.4218 H   0  0  0  0  0  0  0  0  0  0  0  0
  146.2554   72.7991  218.9540 H   0  0  0  0  0  0  0  0  0  0  0  0
  144.9149   72.0348  218.0553 H   0  0  0  0  0  0  0  0  0  0  0  0
  145.7510   74.1340  217.1380 H   0  0  0  0  0  0  0  0  0  0  0  0
  143.4569   75.2485  217.1235 H   0  0  0  0  0  0  0  0  0  0  0  0
  143.7977   73.6624  216.3023 H   0  0  0  0  0  0  0  0  0  0  0  0
  141.7360   74.1214  218.0185 H   0  0  0  0  0  0  0  0  0  0  0  0
  142.5178   72.5073  217.6752 H   0  0  0  0  0  0  0  0  0  0  0  0
  139.0278   77.4037  220.5320 H   0  0  0  0  0  0  0  0  0  0  0  0
  138.2679   76.0001  221.3928 H   0  0  0  0  0  0  0  0  0  0  0  0
  137.2988   78.2204  222.0559 H   0  0  0  0  0  0  0  0  0  0  0  0
  137.9928   77.3297  223.4207 H   0  0  0  0  0  0  0  0  0  0  0  0
  137.6576   80.4517  222.6726 H   0  0  0  0  0  0  0  0  0  0  0  0
  139.2691   82.3309  223.0314 H   0  0  0  0  0  0  0  0  0  0  0  0
  141.6978   81.8125  223.2459 H   0  0  0  0  0  0  0  0  0  0  0  0
  142.5000   79.4886  223.1011 H   0  0  0  0  0  0  0  0  0  0  0  0
  142.0890   77.3191  222.2412 H   0  0  0  0  0  0  0  0  0  0  0  0
  141.2216   76.8784  223.7454 H   0  0  0  0  0  0  0  0  0  0  0  0
  137.8167   72.0247  222.4450 H   0  0  0  0  0  0  0  0  0  0  0  0
  138.7016   70.8757  221.3327 H   0  0  0  0  0  0  0  0  0  0  0  0
  137.0223   69.9470  222.9951 H   0  0  0  0  0  0  0  0  0  0  0  0
  138.7027   69.2055  222.8231 H   0  0  0  0  0  0  0  0  0  0  0  0
  140.8028   67.3716  225.1599 H   0  0  0  0  0  0  0  0  0  0  0  0
  142.3576   67.1651  227.0750 H   0  0  0  0  0  0  0  0  0  0  0  0
  1  2  2  0
  2  3  1  0
  3  4  2  0
  4  5  1  0
  5  6  1  0
  6  7  1  0
  7  8  1  0
  8  9  1  0
  9 10  1  0
 10 11  2  0
 11 12  1  0
 12 13  1  0
 13 14  1  0
 14 15  1  0
 15 16  1  0
 16 17  1  0
 17 18  1  0
 12 19  2  0
 19 20  1  0
 20 21  1  0
 21 22  1  0
 22 23  1  0
 23 24  1  0
 24 25  2  0
 25 26  1  0
 26 27  2  0
 27 28  1  0
 28 29  2  0
 29 30  1  0
 20 31  2  0
  9 32  1  0
 32 33  1  0
  4 34  1  0
 34 35  2  0
 35  1  1  0
 33  6  1  0
 31 10  1  0
 18 13  1  0
 30 21  1  0
 29 24  1  0
  1 36  1  0
  2 37  1  0
  3 38  1  0
  5 39  1  0
  5 40  1  0
  7 41  1  0
  7 42  1  0
  8 43  1  0
  8 44  1  0
 14 45  1  0
 14 46  1  0
 15 47  1  0
 15 48  1  0
 16 49  1  0
 17 50  1  0
 17 51  1  0
 18 52  1  0
 18 53  1  0
 22 54  1  0
 22 55  1  0
 23 56  1  0
 23 57  1  0
 25 58  1  0
 26 59  1  0
 27 60  1  0
 28 61  1  0
 30 62  1  0
 30 63  1  0
 32 64  1  0
 32 65  1  0
 33 66  1  0
 33 67  1  0
 34 68  1  0
 35 69  1  0
M  END
>  <smiles>  (41) 
c1ccc(CN2CCN(c3nc(N4CCNCC4)nc(N4CCc5ccccc5C4)n3)CC2)cc1

>  <score_type>  (41) 
oracle

>  <origin>  (41) 
autodockgpu

>  <m_score__min__energy>  (41) 
-9.8499999999999996

>  <m_primary>  (41) 
energy

>  <rmsd>  (41) 
11.288436991441102

>  <m_score__min__rmsd>  (41) 
11.288436991441102

>  <meeko>  (41) 
{"free_energy": -9.11, "intermolecular_energy": -10.6, "internal_energy": -1.05, "cluster_size": 43, "cluster_id": 1, "rank_in_cluster": 36}

>  <energy>  (41) 
-8.82

>  <cluster_rmsd>  (41) 
0.82

>  <cluster>  (41) 
1

$$$$

     RDKit          3D

 69 74  0  0  0  0  0  0  0  0999 V2000
  141.1020   68.4010  228.4000 C   0  0  0  0  0  0  0  0  0  0  0  0
  141.4440   67.7600  227.2280 C   0  0  0  0  0  0  0  0  0  0  0  0
  140.6570   67.9330  226.1100 C   0  0  0  0  0  0  0  0  0  0  0  0
  139.5230   68.7280  226.1000 C   0  0  0  0  0  0  0  0  0  0  0  0
  138.7620   68.8450  224.8570 C   0  0  0  0  0  0  0  0  0  0  0  0
  138.5960   70.1670  224.3530 N   0  0  0  0  0  0  0  0  0  0  0  0
  139.4530   71.1620  224.8910 C   0  0  0  0  0  0  0  0  0  0  0  0
  140.6730   71.3330  224.0070 C   0  0  0  0  0  0  0  0  0  0  0  0
  140.1840   71.9010  222.7620 N   0  0  0  0  0  0  0  0  0  0  0  0
  140.8150   72.9950  222.1120 C   0  0  0  0  0  0  0  0  0  0  0  0
  141.8790   72.8640  221.3070 N   0  0  0  0  0  0  0  0  0  0  0  0
  142.4590   73.9360  220.7010 C   0  0  0  0  0  0  0  0  0  0  0  0
  143.5930   73.7930  219.8440 N   0  0  0  0  0  0  0  0  0  0  0  0
  143.3870   73.5800  218.4330 C   0  0  0  0  0  0  0  0  0  0  0  0
  144.7430   73.3780  217.7930 C   0  0  0  0  0  0  0  0  0  0  0  0
  145.4530   72.3710  218.5550 N   0  0  0  0  0  0  0  0  0  0  0  0
  145.8740   72.8630  219.8470 C   0  0  0  0  0  0  0  0  0  0  0  0
  144.9050   73.8680  220.4240 C   0  0  0  0  0  0  0  0  0  0  0  0
  141.9250   75.1700  220.9330 N   0  0  0  0  0  0  0  0  0  0  0  0
  140.8590   75.3390  221.7330 C   0  0  0  0  0  0  0  0  0  0  0  0
  140.2850   76.6310  221.9880 N   0  0  0  0  0  0  0  0  0  0  0  0
  138.9510   76.9080  221.5040 C   0  0  0  0  0  0  0  0  0  0  0  0
  138.1890   77.8190  222.4450 C   0  0  0  0  0  0  0  0  0  0  0  0
  139.0430   79.0470  222.6170 C   0  0  0  0  0  0  0  0  0  0  0  0
  138.4340   80.2820  222.6420 C   0  0  0  0  0  0  0  0  0  0  0  0
  139.2120   81.4150  222.8000 C   0  0  0  0  0  0  0  0  0  0  0  0
  140.5860   81.2650  222.9280 C   0  0  0  0  0  0  0  0  0  0  0  0
  141.1640   80.0140  222.8980 C   0  0  0  0  0  0  0  0  0  0  0  0
  140.4020   78.8760  222.7410 C   0  0  0  0  0  0  0  0  0  0  0  0
  141.0940   77.5790  222.7210 C   0  0  0  0  0  0  0  0  0  0  0  0
  140.3400   74.2380  222.2960 N   0  0  0  0  0  0  0  0  0  0  0  0
  139.0010   71.3040  222.1900 C   0  0  0  0  0  0  0  0  0  0  0  0
  138.5320   70.0970  222.9180 C   0  0  0  0  0  0  0  0  0  0  0  0
  139.2070   69.3560  227.2860 C   0  0  0  0  0  0  0  0  0  0  0  0
  139.9830   69.2000  228.4300 C   0  0  0  0  0  0  0  0  0  0  0  0
  141.7183   68.2745  229.3023 H   0  0  0  0  0  0  0  0  0  0  0  0
  142.3357   67.1173  227.1859 H   0  0  0  0  0  0  0  0  0  0  0  0
  140.9428   67.4155  225.1823 H   0  0  0  0  0  0  0  0  0  0  0  0
  139.2795   68.2532  224.0876 H   0  0  0  0  0  0  0  0  0  0  0  0
  137.7492   68.4860  225.0922 H   0  0  0  0  0  0  0  0  0  0  0  0
  138.9098   72.1167  224.9500 H   0  0  0  0  0  0  0  0  0  0  0  0
  139.7771   70.8528  225.8957 H   0  0  0  0  0  0  0  0  0  0  0  0
  141.3965   72.0132  224.4802 H   0  0  0  0  0  0  0  0  0  0  0  0
  141.1890   70.3760  223.8400 H   0  0  0  0  0  0  0  0  0  0  0  0
  142.7627   72.6880  218.2764 H   0  0  0  0  0  0  0  0  0  0  0  0
  142.8754   74.4444  217.9846 H   0  0  0  0  0  0  0  0  0  0  0  0
  144.6184   73.0404  216.7535 H   0  0  0  0  0  0  0  0  0  0  0  0
  145.3076   74.3220  217.7887 H   0  0  0  0  0  0  0  0  0  0  0  0
  146.3150   72.1130  218.0160 H   0  0  0  0  0  0  0  0  0  0  0  0
  145.9550   72.0124  220.5397 H   0  0  0  0  0  0  0  0  0  0  0  0
  146.8420   73.3683  219.7144 H   0  0  0  0  0  0  0  0  0  0  0  0
  144.8189   73.6881  221.5058 H   0  0  0  0  0  0  0  0  0  0  0  0
  145.3027   74.8687  220.1995 H   0  0  0  0  0  0  0  0  0  0  0  0
  139.0230   77.3931  220.5193 H   0  0  0  0  0  0  0  0  0  0  0  0
  138.4070   75.9544  221.4360 H   0  0  0  0  0  0  0  0  0  0  0  0
  137.2151   78.0887  222.0105 H   0  0  0  0  0  0  0  0  0  0  0  0
  137.9915   77.3276  223.4091 H   0  0  0  0  0  0  0  0  0  0  0  0
  137.3422   80.3665  222.5376 H   0  0  0  0  0  0  0  0  0  0  0  0
  138.7515   82.4137  222.8237 H   0  0  0  0  0  0  0  0  0  0  0  0
  141.2207   82.1544  223.0548 H   0  0  0  0  0  0  0  0  0  0  0  0
  142.2552   79.9219  223.0014 H   0  0  0  0  0  0  0  0  0  0  0  0
  142.0717   77.6891  222.2290 H   0  0  0  0  0  0  0  0  0  0  0  0
  141.2487   77.2218  223.7498 H   0  0  0  0  0  0  0  0  0  0  0  0
  138.1943   72.0518  222.2007 H   0  0  0  0  0  0  0  0  0  0  0  0
  139.2620   70.9843  221.1704 H   0  0  0  0  0  0  0  0  0  0  0  0
  137.4841   69.9184  222.6353 H   0  0  0  0  0  0  0  0  0  0  0  0
  139.2181   69.2877  222.6276 H   0  0  0  0  0  0  0  0  0  0  0  0
  138.3155   69.9990  227.3289 H   0  0  0  0  0  0  0  0  0  0  0  0
  139.7013   69.7163  229.3596 H   0  0  0  0  0  0  0  0  0  0  0  0
  1  2  2  0
  2  3  1  0
  3  4  2  0
  4  5  1  0
  5  6  1  0
  6  7  1  0
  7  8  1  0
  8  9  1  0
  9 10  1  0
 10 11  2  0
 11 12  1  0
 12 13  1  0
 13 14  1  0
 14 15  1  0
 15 16  1  0
 16 17  1  0
 17 18  1  0
 12 19  2  0
 19 20  1  0
 20 21  1  0
 21 22  1  0
 22 23  1  0
 23 24  1  0
 24 25  2  0
 25 26  1  0
 26 27  2  0
 27 28  1  0
 28 29  2  0
 29 30  1  0
 20 31  2  0
  9 32  1  0
 32 33  1  0
  4 34  1  0
 34 35  2  0
 35  1  1  0
 33  6  1  0
 31 10  1  0
 18 13  1  0
 30 21  1  0
 29 24  1  0
  1 36  1  0
  2 37  1  0
  3 38  1  0
  5 39  1  0
  5 40  1  0
  7 41  1  0
  7 42  1  0
  8 43  1  0
  8 44  1  0
 14 45  1  0
 14 46  1  0
 15 47  1  0
 15 48  1  0
 16 49  1  0
 17 50  1  0
 17 51  1  0
 18 52  1  0
 18 53  1  0
 22 54  1  0
 22 55  1  0
 23 56  1  0
 23 57  1  0
 25 58  1  0
 26 59  1  0
 27 60  1  0
 28 61  1  0
 30 62  1  0
 30 63  1  0
 32 64  1  0
 32 65  1  0
 33 66  1  0
 33 67  1  0
 34 68  1  0
 35 69  1  0
M  END
>  <smiles>  (42) 
c1ccc(CN2CCN(c3nc(N4CCNCC4)nc(N4CCc5ccccc5C4)n3)CC2)cc1

>  <score_type>  (42) 
oracle

>  <origin>  (42) 
autodockgpu

>  <m_score__min__energy>  (42) 
-9.8499999999999996

>  <m_primary>  (42) 
energy

>  <rmsd>  (42) 
11.161816776658718

>  <m_score__min__rmsd>  (42) 
11.161816776658718

>  <meeko>  (42) 
{"free_energy": -9.85, "intermolecular_energy": -11.34, "internal_energy": -1.06, "cluster_size": 43, "cluster_id": 1, "rank_in_cluster": 1}

>  <energy>  (42) 
-8.8

>  <cluster_rmsd>  (42) 
1.87

>  <cluster>  (42) 
1

$$$$

     RDKit          3D

 69 74  0  0  0  0  0  0  0  0999 V2000
  141.1440   68.2850  228.3990 C   0  0  0  0  0  0  0  0  0  0  0  0
  140.0220   69.0790  228.5070 C   0  0  0  0  0  0  0  0  0  0  0  0
  139.2270   69.2800  227.4000 C   0  0  0  0  0  0  0  0  0  0  0  0
  139.4990   68.7180  226.1630 C   0  0  0  0  0  0  0  0  0  0  0  0
  138.5870   68.9920  225.0540 C   0  0  0  0  0  0  0  0  0  0  0  0
  138.5270   70.3470  224.6190 N   0  0  0  0  0  0  0  0  0  0  0  0
  139.5730   71.2000  225.0590 C   0  0  0  0  0  0  0  0  0  0  0  0
  140.6710   71.2600  224.0160 C   0  0  0  0  0  0  0  0  0  0  0  0
  140.0930   71.9440  222.8710 N   0  0  0  0  0  0  0  0  0  0  0  0
  140.7660   72.9810  222.1710 C   0  0  0  0  0  0  0  0  0  0  0  0
  141.8110   72.7690  221.3580 N   0  0  0  0  0  0  0  0  0  0  0  0
  142.4320   73.7880  220.7040 C   0  0  0  0  0  0  0  0  0  0  0  0
  143.5460   73.5590  219.8400 N   0  0  0  0  0  0  0  0  0  0  0  0
  143.3120   73.0650  218.5050 C   0  0  0  0  0  0  0  0  0  0  0  0
  144.6590   72.8340  217.8550 C   0  0  0  0  0  0  0  0  0  0  0  0
  145.4640   72.0410  218.7610 N   0  0  0  0  0  0  0  0  0  0  0  0
  145.8880   72.8000  219.9170 C   0  0  0  0  0  0  0  0  0  0  0  0
  144.8670   73.8300  220.3360 C   0  0  0  0  0  0  0  0  0  0  0  0
  141.9600   75.0540  220.8940 N   0  0  0  0  0  0  0  0  0  0  0  0
  140.9140   75.3040  221.6990 C   0  0  0  0  0  0  0  0  0  0  0  0
  140.4050   76.6310  221.9110 N   0  0  0  0  0  0  0  0  0  0  0  0
  139.1840   77.0220  221.2430 C   0  0  0  0  0  0  0  0  0  0  0  0
  138.3570   77.9680  222.0910 C   0  0  0  0  0  0  0  0  0  0  0  0
  139.2630   79.1210  222.4300 C   0  0  0  0  0  0  0  0  0  0  0  0
  138.7500   80.3990  222.4070 C   0  0  0  0  0  0  0  0  0  0  0  0
  139.5770   81.4640  222.7170 C   0  0  0  0  0  0  0  0  0  0  0  0
  140.9010   81.2050  223.0440 C   0  0  0  0  0  0  0  0  0  0  0  0
  141.3840   79.9130  223.0580 C   0  0  0  0  0  0  0  0  0  0  0  0
  140.5720   78.8420  222.7500 C   0  0  0  0  0  0  0  0  0  0  0  0
  141.1610   77.4950  222.7880 C   0  0  0  0  0  0  0  0  0  0  0  0
  140.3520   74.2520  222.3120 N   0  0  0  0  0  0  0  0  0  0  0  0
  138.7740   71.5280  222.4560 C   0  0  0  0  0  0  0  0  0  0  0  0
  138.2570   70.3550  223.2060 C   0  0  0  0  0  0  0  0  0  0  0  0
  140.6270   67.9280  226.0870 C   0  0  0  0  0  0  0  0  0  0  0  0
  141.4470   67.7080  227.1890 C   0  0  0  0  0  0  0  0  0  0  0  0
  141.7903   68.1150  229.2727 H   0  0  0  0  0  0  0  0  0  0  0  0
  139.7640   69.5476  229.4682 H   0  0  0  0  0  0  0  0  0  0  0  0
  138.3353   69.9159  227.5028 H   0  0  0  0  0  0  0  0  0  0  0  0
  138.9023   68.3768  224.1983 H   0  0  0  0  0  0  0  0  0  0  0  0
  137.5808   68.7549  225.4301 H   0  0  0  0  0  0  0  0  0  0  0  0
  139.1725   72.2111  225.2240 H   0  0  0  0  0  0  0  0  0  0  0  0
  139.9893   70.8041  225.9971 H   0  0  0  0  0  0  0  0  0  0  0  0
  141.5350   71.8212  224.4013 H   0  0  0  0  0  0  0  0  0  0  0  0
  141.0303   70.2554  223.7483 H   0  0  0  0  0  0  0  0  0  0  0  0
  142.7505   72.1201  218.5486 H   0  0  0  0  0  0  0  0  0  0  0  0
  142.7242   73.7909  217.9240 H   0  0  0  0  0  0  0  0  0  0  0  0
  144.5273   72.2960  216.9046 H   0  0  0  0  0  0  0  0  0  0  0  0
  145.1525   73.7949  217.6473 H   0  0  0  0  0  0  0  0  0  0  0  0
  146.3250   71.7430  218.2430 H   0  0  0  0  0  0  0  0  0  0  0  0
  146.0533   72.1058  220.7541 H   0  0  0  0  0  0  0  0  0  0  0  0
  146.8113   73.3337  219.6473 H   0  0  0  0  0  0  0  0  0  0  0  0
  144.8283   73.8555  221.4350 H   0  0  0  0  0  0  0  0  0  0  0  0
  145.1831   74.7930  219.9085 H   0  0  0  0  0  0  0  0  0  0  0  0
  139.4399   77.5226  220.2975 H   0  0  0  0  0  0  0  0  0  0  0  0
  138.5880   76.1155  221.0614 H   0  0  0  0  0  0  0  0  0  0  0  0
  137.4824   78.3225  221.5258 H   0  0  0  0  0  0  0  0  0  0  0  0
  137.9802   77.4717  222.9975 H   0  0  0  0  0  0  0  0  0  0  0  0
  137.6955   80.5709  222.1453 H   0  0  0  0  0  0  0  0  0  0  0  0
  139.1932   82.4948  222.7046 H   0  0  0  0  0  0  0  0  0  0  0  0
  141.5725   82.0394  223.2948 H   0  0  0  0  0  0  0  0  0  0  0  0
  142.4372   79.7337  223.3199 H   0  0  0  0  0  0  0  0  0  0  0  0
  142.2072   77.5394  222.4512 H   0  0  0  0  0  0  0  0  0  0  0  0
  141.1311   77.1030  223.8154 H   0  0  0  0  0  0  0  0  0  0  0  0
  138.0811   72.3692  222.6053 H   0  0  0  0  0  0  0  0  0  0  0  0
  138.8475   71.2288  221.4000 H   0  0  0  0  0  0  0  0  0  0  0  0
  137.1659   70.3220  223.0707 H   0  0  0  0  0  0  0  0  0  0  0  0
  138.7852   69.4816  222.7959 H   0  0  0  0  0  0  0  0  0  0  0  0
  140.8859   67.4581  225.1267 H   0  0  0  0  0  0  0  0  0  0  0  0
  142.3389   67.0715  227.0918 H   0  0  0  0  0  0  0  0  0  0  0  0
  1  2  2  0
  2  3  1  0
  3  4  2  0
  4  5  1  0
  5  6  1  0
  6  7  1  0
  7  8  1  0
  8  9  1  0
  9 10  1  0
 10 11  2  0
 11 12  1  0
 12 13  1  0
 13 14  1  0
 14 15  1  0
 15 16  1  0
 16 17  1  0
 17 18  1  0
 12 19  2  0
 19 20  1  0
 20 21  1  0
 21 22  1  0
 22 23  1  0
 23 24  1  0
 24 25  2  0
 25 26  1  0
 26 27  2  0
 27 28  1  0
 28 29  2  0
 29 30  1  0
 20 31  2  0
  9 32  1  0
 32 33  1  0
  4 34  1  0
 34 35  2  0
 35  1  1  0
 33  6  1  0
 31 10  1  0
 18 13  1  0
 30 21  1  0
 29 24  1  0
  1 36  1  0
  2 37  1  0
  3 38  1  0
  5 39  1  0
  5 40  1  0
  7 41  1  0
  7 42  1  0
  8 43  1  0
  8 44  1  0
 14 45  1  0
 14 46  1  0
 15 47  1  0
 15 48  1  0
 16 49  1  0
 17 50  1  0
 17 51  1  0
 18 52  1  0
 18 53  1  0
 22 54  1  0
 22 55  1  0
 23 56  1  0
 23 57  1  0
 25 58  1  0
 26 59  1  0
 27 60  1  0
 28 61  1  0
 30 62  1  0
 30 63  1  0
 32 64  1  0
 32 65  1  0
 33 66  1  0
 33 67  1  0
 34 68  1  0
 35 69  1  0
M  END
>  <smiles>  (43) 
c1ccc(CN2CCN(c3nc(N4CCNCC4)nc(N4CCc5ccccc5C4)n3)CC2)cc1

>  <score_type>  (43) 
oracle

>  <origin>  (43) 
autodockgpu

>  <m_score__min__energy>  (43) 
-9.8499999999999996

>  <m_primary>  (43) 
energy

>  <rmsd>  (43) 
11.26285712382402

>  <m_score__min__rmsd>  (43) 
11.26285712382402

>  <meeko>  (43) 
{"free_energy": -9.65, "intermolecular_energy": -11.14, "internal_energy": -1.08, "cluster_size": 43, "cluster_id": 1, "rank_in_cluster": 5}

>  <energy>  (43) 
-8.56

>  <cluster_rmsd>  (43) 
0.96

>  <cluster>  (43) 
1

$$$$

     RDKit          3D

 69 74  0  0  0  0  0  0  0  0999 V2000
  142.6580   80.5960  223.5100 C   0  0  0  0  0  0  0  0  0  0  0  0
  141.9330   79.6460  224.1980 C   0  0  0  0  0  0  0  0  0  0  0  0
  140.6880   79.2810  223.7350 C   0  0  0  0  0  0  0  0  0  0  0  0
  140.1160   79.8270  222.5970 C   0  0  0  0  0  0  0  0  0  0  0  0
  138.7890   79.3650  222.1910 C   0  0  0  0  0  0  0  0  0  0  0  0
  138.7430   78.0900  221.5560 N   0  0  0  0  0  0  0  0  0  0  0  0
  139.8980   77.7030  220.8280 C   0  0  0  0  0  0  0  0  0  0  0  0
  140.8090   76.8660  221.7030 C   0  0  0  0  0  0  0  0  0  0  0  0
  140.0940   75.6250  221.9490 N   0  0  0  0  0  0  0  0  0  0  0  0
  140.7050   74.3470  221.8400 C   0  0  0  0  0  0  0  0  0  0  0  0
  141.6060   74.0340  220.8980 N   0  0  0  0  0  0  0  0  0  0  0  0
  142.1690   72.7980  220.8240 C   0  0  0  0  0  0  0  0  0  0  0  0
  143.1290   72.4670  219.8180 N   0  0  0  0  0  0  0  0  0  0  0  0
  144.0400   71.3730  220.0470 C   0  0  0  0  0  0  0  0  0  0  0  0
  144.9890   71.3080  218.8700 C   0  0  0  0  0  0  0  0  0  0  0  0
  145.5300   72.6340  218.6560 N   0  0  0  0  0  0  0  0  0  0  0  0
  144.5450   73.5430  218.1140 C   0  0  0  0  0  0  0  0  0  0  0  0
  143.1500   73.2420  218.6090 C   0  0  0  0  0  0  0  0  0  0  0  0
  141.7940   71.8650  221.7470 N   0  0  0  0  0  0  0  0  0  0  0  0
  140.8950   72.1430  222.7060 C   0  0  0  0  0  0  0  0  0  0  0  0
  140.4880   71.1730  223.6840 N   0  0  0  0  0  0  0  0  0  0  0  0
  139.2450   70.4610  223.4830 C   0  0  0  0  0  0  0  0  0  0  0  0
  139.3220   69.0390  224.0000 C   0  0  0  0  0  0  0  0  0  0  0  0
  139.7390   69.1430  225.4430 C   0  0  0  0  0  0  0  0  0  0  0  0
  139.1460   68.3140  226.3690 C   0  0  0  0  0  0  0  0  0  0  0  0
  139.5240   68.4040  227.6970 C   0  0  0  0  0  0  0  0  0  0  0  0
  140.4940   69.3320  228.0500 C   0  0  0  0  0  0  0  0  0  0  0  0
  141.0690   70.1480  227.0980 C   0  0  0  0  0  0  0  0  0  0  0  0
  140.7010   70.0700  225.7720 C   0  0  0  0  0  0  0  0  0  0  0  0
  141.3610   70.9740  224.8180 C   0  0  0  0  0  0  0  0  0  0  0  0
  140.3810   73.3820  222.7170 N   0  0  0  0  0  0  0  0  0  0  0  0
  138.7020   75.7320  222.3150 C   0  0  0  0  0  0  0  0  0  0  0  0
  138.2440   77.1330  222.5070 C   0  0  0  0  0  0  0  0  0  0  0  0
  140.8650   80.7730  221.9310 C   0  0  0  0  0  0  0  0  0  0  0  0
  142.1250   81.1600  222.3760 C   0  0  0  0  0  0  0  0  0  0  0  0
  143.6537   80.8995  223.8656 H   0  0  0  0  0  0  0  0  0  0  0  0
  142.3447   79.1842  225.1075 H   0  0  0  0  0  0  0  0  0  0  0  0
  140.1220   78.5214  224.2942 H   0  0  0  0  0  0  0  0  0  0  0  0
  138.1586   79.3165  223.0911 H   0  0  0  0  0  0  0  0  0  0  0  0
  138.4393   80.0864  221.4378 H   0  0  0  0  0  0  0  0  0  0  0  0
  139.5943   77.1135  219.9503 H   0  0  0  0  0  0  0  0  0  0  0  0
  140.4385   78.6048  220.5045 H   0  0  0  0  0  0  0  0  0  0  0  0
  141.7582   76.6646  221.1849 H   0  0  0  0  0  0  0  0  0  0  0  0
  141.0550   77.3836  222.6419 H   0  0  0  0  0  0  0  0  0  0  0  0
  144.6055   71.5448  220.9747 H   0  0  0  0  0  0  0  0  0  0  0  0
  143.4874   70.4272  220.1481 H   0  0  0  0  0  0  0  0  0  0  0  0
  145.8048   70.6028  219.0871 H   0  0  0  0  0  0  0  0  0  0  0  0
  144.4582   70.9627  217.9705 H   0  0  0  0  0  0  0  0  0  0  0  0
  146.3060   72.5520  217.9560 H   0  0  0  0  0  0  0  0  0  0  0  0
  144.8108   74.5688  218.4089 H   0  0  0  0  0  0  0  0  0  0  0  0
  144.5456   73.4252  217.0203 H   0  0  0  0  0  0  0  0  0  0  0  0
  142.6333   74.1948  218.7965 H   0  0  0  0  0  0  0  0  0  0  0  0
  142.6512   72.6447  217.8315 H   0  0  0  0  0  0  0  0  0  0  0  0
  138.4411   70.9905  224.0153 H   0  0  0  0  0  0  0  0  0  0  0  0
  139.0440   70.4218  222.4022 H   0  0  0  0  0  0  0  0  0  0  0  0
  138.3400   68.5499  223.9204 H   0  0  0  0  0  0  0  0  0  0  0  0
  140.0349   68.4370  223.4174 H   0  0  0  0  0  0  0  0  0  0  0  0
  138.3805   67.5885  226.0565 H   0  0  0  0  0  0  0  0  0  0  0  0
  139.0656   67.7540  228.4568 H   0  0  0  0  0  0  0  0  0  0  0  0
  140.8077   69.4177  229.1008 H   0  0  0  0  0  0  0  0  0  0  0  0
  141.8361   70.8750  227.4030 H   0  0  0  0  0  0  0  0  0  0  0  0
  141.5625   71.9403  225.3033 H   0  0  0  0  0  0  0  0  0  0  0  0
  142.3126   70.5347  224.4842 H   0  0  0  0  0  0  0  0  0  0  0  0
  138.0967   75.2741  221.5188 H   0  0  0  0  0  0  0  0  0  0  0  0
  138.5813   75.2177  223.2799 H   0  0  0  0  0  0  0  0  0  0  0  0
  137.1456   77.1401  222.4485 H   0  0  0  0  0  0  0  0  0  0  0  0
  138.6418   77.4465  223.4835 H   0  0  0  0  0  0  0  0  0  0  0  0
  140.4546   81.2354  221.0212 H   0  0  0  0  0  0  0  0  0  0  0  0
  142.6952   81.9184  221.8195 H   0  0  0  0  0  0  0  0  0  0  0  0
  1  2  2  0
  2  3  1  0
  3  4  2  0
  4  5  1  0
  5  6  1  0
  6  7  1  0
  7  8  1  0
  8  9  1  0
  9 10  1  0
 10 11  2  0
 11 12  1  0
 12 13  1  0
 13 14  1  0
 14 15  1  0
 15 16  1  0
 16 17  1  0
 17 18  1  0
 12 19  2  0
 19 20  1  0
 20 21  1  0
 21 22  1  0
 22 23  1  0
 23 24  1  0
 24 25  2  0
 25 26  1  0
 26 27  2  0
 27 28  1  0
 28 29  2  0
 29 30  1  0
 20 31  2  0
  9 32  1  0
 32 33  1  0
  4 34  1  0
 34 35  2  0
 35  1  1  0
 33  6  1  0
 31 10  1  0
 18 13  1  0
 30 21  1  0
 29 24  1  0
  1 36  1  0
  2 37  1  0
  3 38  1  0
  5 39  1  0
  5 40  1  0
  7 41  1  0
  7 42  1  0
  8 43  1  0
  8 44  1  0
 14 45  1  0
 14 46  1  0
 15 47  1  0
 15 48  1  0
 16 49  1  0
 17 50  1  0
 17 51  1  0
 18 52  1  0
 18 53  1  0
 22 54  1  0
 22 55  1  0
 23 56  1  0
 23 57  1  0
 25 58  1  0
 26 59  1  0
 27 60  1  0
 28 61  1  0
 30 62  1  0
 30 63  1  0
 32 64  1  0
 32 65  1  0
 33 66  1  0
 33 67  1  0
 34 68  1  0
 35 69  1  0
M  END
>  <smiles>  (44) 
c1ccc(CN2CCN(c3nc(N4CCNCC4)nc(N4CCc5ccccc5C4)n3)CC2)cc1

>  <score_type>  (44) 
oracle

>  <origin>  (44) 
autodockgpu

>  <m_score__min__energy>  (44) 
-9.8499999999999996

>  <m_primary>  (44) 
energy

>  <rmsd>  (44) 
3.954297885511011

>  <m_score__min__rmsd>  (44) 
3.954297885511011

>  <meeko>  (44) 
{"free_energy": -9.24, "intermolecular_energy": -10.73, "internal_energy": -1.21, "cluster_size": 43, "cluster_id": 1, "rank_in_cluster": 21}

>  <energy>  (44) 
-8.85

>  <cluster_rmsd>  (44) 
0.0

>  <cluster>  (44) 
2

$$$$

     RDKit          3D

 69 74  0  0  0  0  0  0  0  0999 V2000
  141.0390   69.2800  227.8880 C   0  0  0  0  0  0  0  0  0  0  0  0
  141.4200   68.5890  226.7570 C   0  0  0  0  0  0  0  0  0  0  0  0
  140.5140   68.4150  225.7340 C   0  0  0  0  0  0  0  0  0  0  0  0
  139.2190   68.9040  225.7810 C   0  0  0  0  0  0  0  0  0  0  0  0
  138.3390   68.6670  224.6380 C   0  0  0  0  0  0  0  0  0  0  0  0
  138.2390   69.7340  223.6990 N   0  0  0  0  0  0  0  0  0  0  0  0
  138.3920   71.0480  224.2140 C   0  0  0  0  0  0  0  0  0  0  0  0
  139.8330   71.4980  224.0730 C   0  0  0  0  0  0  0  0  0  0  0  0
  140.0680   71.6320  222.6450 N   0  0  0  0  0  0  0  0  0  0  0  0
  140.7240   72.7540  222.0720 C   0  0  0  0  0  0  0  0  0  0  0  0
  141.8140   72.6590  221.2970 N   0  0  0  0  0  0  0  0  0  0  0  0
  142.4170   73.7580  220.7660 C   0  0  0  0  0  0  0  0  0  0  0  0
  143.5780   73.6530  219.9420 N   0  0  0  0  0  0  0  0  0  0  0  0
  143.4220   73.5910  218.5090 C   0  0  0  0  0  0  0  0  0  0  0  0
  144.7940   73.3970  217.9020 C   0  0  0  0  0  0  0  0  0  0  0  0
  145.4330   72.2890  218.5830 N   0  0  0  0  0  0  0  0  0  0  0  0
  145.8200   72.6310  219.9330 C   0  0  0  0  0  0  0  0  0  0  0  0
  144.8680   73.6140  220.5740 C   0  0  0  0  0  0  0  0  0  0  0  0
  141.8790   74.9810  221.0420 N   0  0  0  0  0  0  0  0  0  0  0  0
  140.7870   75.1140  221.8140 C   0  0  0  0  0  0  0  0  0  0  0  0
  140.2090   76.3940  222.1150 N   0  0  0  0  0  0  0  0  0  0  0  0
  138.8430   76.6510  221.7170 C   0  0  0  0  0  0  0  0  0  0  0  0
  138.1250   77.5420  222.7110 C   0  0  0  0  0  0  0  0  0  0  0  0
  138.9680   78.7840  222.8400 C   0  0  0  0  0  0  0  0  0  0  0  0
  138.3410   80.0080  222.9130 C   0  0  0  0  0  0  0  0  0  0  0  0
  139.1090   81.1530  223.0300 C   0  0  0  0  0  0  0  0  0  0  0  0
  140.4900   81.0260  223.0710 C   0  0  0  0  0  0  0  0  0  0  0  0
  141.0860   79.7850  222.9960 C   0  0  0  0  0  0  0  0  0  0  0  0
  140.3340   78.6360  222.8770 C   0  0  0  0  0  0  0  0  0  0  0  0
  141.0450   77.3500  222.8030 C   0  0  0  0  0  0  0  0  0  0  0  0
  140.2470   73.9880  222.3030 N   0  0  0  0  0  0  0  0  0  0  0  0
  139.5990   70.5590  221.8000 C   0  0  0  0  0  0  0  0  0  0  0  0
  139.0480   69.4050  222.5560 C   0  0  0  0  0  0  0  0  0  0  0  0
  138.8670   69.5920  226.9230 C   0  0  0  0  0  0  0  0  0  0  0  0
  139.7620   69.7830  227.9720 C   0  0  0  0  0  0  0  0  0  0  0  0
  141.7496   69.4273  228.7147 H   0  0  0  0  0  0  0  0  0  0  0  0
  142.4379   68.1806  226.6725 H   0  0  0  0  0  0  0  0  0  0  0  0
  140.8338   67.8622  224.8384 H   0  0  0  0  0  0  0  0  0  0  0  0
  138.7120   67.7810  224.1032 H   0  0  0  0  0  0  0  0  0  0  0  0
  137.3301   68.5447  225.0588 H   0  0  0  0  0  0  0  0  0  0  0  0
  137.7397   71.7358  223.6559 H   0  0  0  0  0  0  0  0  0  0  0  0
  138.1160   71.0519  225.2788 H   0  0  0  0  0  0  0  0  0  0  0  0
  139.9840   72.4633  224.5783 H   0  0  0  0  0  0  0  0  0  0  0  0
  140.5282   70.7798  224.5321 H   0  0  0  0  0  0  0  0  0  0  0  0
  142.7709   72.7462  218.2398 H   0  0  0  0  0  0  0  0  0  0  0  0
  142.9628   74.5169  218.1323 H   0  0  0  0  0  0  0  0  0  0  0  0
  144.6991   73.1712  216.8296 H   0  0  0  0  0  0  0  0  0  0  0  0
  145.3943   74.3119  218.0147 H   0  0  0  0  0  0  0  0  0  0  0  0
  146.3050   72.0500  218.0530 H   0  0  0  0  0  0  0  0  0  0  0  0
  145.8398   71.7126  220.5381 H   0  0  0  0  0  0  0  0  0  0  0  0
  146.8114   73.1054  219.8876 H   0  0  0  0  0  0  0  0  0  0  0  0
  144.7316   73.3307  221.6281 H   0  0  0  0  0  0  0  0  0  0  0  0
  145.3128   74.6143  220.4669 H   0  0  0  0  0  0  0  0  0  0  0  0
  138.8455   77.1442  220.7338 H   0  0  0  0  0  0  0  0  0  0  0  0
  138.3123   75.6884  221.6752 H   0  0  0  0  0  0  0  0  0  0  0  0
  137.1217   77.7979  222.3397 H   0  0  0  0  0  0  0  0  0  0  0  0
  137.9955   77.0404  223.6814 H   0  0  0  0  0  0  0  0  0  0  0  0
  137.2436   80.0745  222.8787 H   0  0  0  0  0  0  0  0  0  0  0  0
  138.6344   82.1436  223.0893 H   0  0  0  0  0  0  0  0  0  0  0  0
  141.1164   81.9254  223.1644 H   0  0  0  0  0  0  0  0  0  0  0  0
  142.1829   79.7104  223.0318 H   0  0  0  0  0  0  0  0  0  0  0  0
  141.9880   77.4803  222.2519 H   0  0  0  0  0  0  0  0  0  0  0  0
  141.2690   76.9883  223.8174 H   0  0  0  0  0  0  0  0  0  0  0  0
  138.8098   70.9532  221.1429 H   0  0  0  0  0  0  0  0  0  0  0  0
  140.4676   70.1898  221.2350 H   0  0  0  0  0  0  0  0  0  0  0  0
  138.4305   68.8126  221.8648 H   0  0  0  0  0  0  0  0  0  0  0  0
  139.9198   68.8642  222.9528 H   0  0  0  0  0  0  0  0  0  0  0  0
  137.8497   70.0017  227.0075 H   0  0  0  0  0  0  0  0  0  0  0  0
  139.4474   70.3368  228.8689 H   0  0  0  0  0  0  0  0  0  0  0  0
  1  2  2  0
  2  3  1  0
  3  4  2  0
  4  5  1  0
  5  6  1  0
  6  7  1  0
  7  8  1  0
  8  9  1  0
  9 10  1  0
 10 11  2  0
 11 12  1  0
 12 13  1  0
 13 14  1  0
 14 15  1  0
 15 16  1  0
 16 17  1  0
 17 18  1  0
 12 19  2  0
 19 20  1  0
 20 21  1  0
 21 22  1  0
 22 23  1  0
 23 24  1  0
 24 25  2  0
 25 26  1  0
 26 27  2  0
 27 28  1  0
 28 29  2  0
 29 30  1  0
 20 31  2  0
  9 32  1  0
 32 33  1  0
  4 34  1  0
 34 35  2  0
 35  1  1  0
 33  6  1  0
 31 10  1  0
 18 13  1  0
 30 21  1  0
 29 24  1  0
  1 36  1  0
  2 37  1  0
  3 38  1  0
  5 39  1  0
  5 40  1  0
  7 41  1  0
  7 42  1  0
  8 43  1  0
  8 44  1  0
 14 45  1  0
 14 46  1  0
 15 47  1  0
 15 48  1  0
 16 49  1  0
 17 50  1  0
 17 51  1  0
 18 52  1  0
 18 53  1  0
 22 54  1  0
 22 55  1  0
 23 56  1  0
 23 57  1  0
 25 58  1  0
 26 59  1  0
 27 60  1  0
 28 61  1  0
 30 62  1  0
 30 63  1  0
 32 64  1  0
 32 65  1  0
 33 66  1  0
 33 67  1  0
 34 68  1  0
 35 69  1  0
M  END
>  <smiles>  (45) 
c1ccc(CN2CCN(c3nc(N4CCNCC4)nc(N4CCc5ccccc5C4)n3)CC2)cc1

>  <score_type>  (45) 
oracle

>  <origin>  (45) 
autodockgpu

>  <m_score__min__energy>  (45) 
-9.8499999999999996

>  <m_primary>  (45) 
energy

>  <rmsd>  (45) 
10.849200364747448

>  <m_score__min__rmsd>  (45) 
10.849200364747448

>  <meeko>  (45) 
{"free_energy": -9.26, "intermolecular_energy": -10.75, "internal_energy": -1.19, "cluster_size": 43, "cluster_id": 1, "rank_in_cluster": 17}

>  <energy>  (45) 
-8.84

>  <cluster_rmsd>  (45) 
1.25

>  <cluster>  (45) 
2

$$$$

     RDKit          3D

 69 74  0  0  0  0  0  0  0  0999 V2000
  141.1030   68.1390  228.2050 C   0  0  0  0  0  0  0  0  0  0  0  0
  141.0510   67.6120  226.9320 C   0  0  0  0  0  0  0  0  0  0  0  0
  140.1440   68.1180  226.0280 C   0  0  0  0  0  0  0  0  0  0  0  0
  139.2660   69.1440  226.3330 C   0  0  0  0  0  0  0  0  0  0  0  0
  138.3450   69.6100  225.2970 C   0  0  0  0  0  0  0  0  0  0  0  0
  138.5770   70.9280  224.8070 N   0  0  0  0  0  0  0  0  0  0  0  0
  139.8810   71.4540  224.9970 C   0  0  0  0  0  0  0  0  0  0  0  0
  140.7290   71.2030  223.7670 C   0  0  0  0  0  0  0  0  0  0  0  0
  140.1510   72.0210  222.7130 N   0  0  0  0  0  0  0  0  0  0  0  0
  140.9340   72.8270  221.8440 C   0  0  0  0  0  0  0  0  0  0  0  0
  141.7810   72.3270  220.9320 N   0  0  0  0  0  0  0  0  0  0  0  0
  142.5160   73.1320  220.1170 C   0  0  0  0  0  0  0  0  0  0  0  0
  143.4180   72.5960  219.1470 N   0  0  0  0  0  0  0  0  0  0  0  0
  144.3230   71.5410  219.5340 C   0  0  0  0  0  0  0  0  0  0  0  0
  145.2100   71.2350  218.3470 C   0  0  0  0  0  0  0  0  0  0  0  0
  145.7600   72.4850  217.8640 N   0  0  0  0  0  0  0  0  0  0  0  0
  144.7630   73.3010  217.2080 C   0  0  0  0  0  0  0  0  0  0  0  0
  143.3910   73.1320  217.8140 C   0  0  0  0  0  0  0  0  0  0  0  0
  142.3710   74.4820  220.2470 N   0  0  0  0  0  0  0  0  0  0  0  0
  141.5310   75.0180  221.1490 C   0  0  0  0  0  0  0  0  0  0  0  0
  141.3670   76.4370  221.2990 N   0  0  0  0  0  0  0  0  0  0  0  0
  141.5190   77.2830  220.1360 C   0  0  0  0  0  0  0  0  0  0  0  0
  140.5870   78.4760  220.1820 C   0  0  0  0  0  0  0  0  0  0  0  0
  140.8710   79.1750  221.4850 C   0  0  0  0  0  0  0  0  0  0  0  0
  140.9050   80.5510  221.5080 C   0  0  0  0  0  0  0  0  0  0  0  0
  141.1650   81.2000  222.7020 C   0  0  0  0  0  0  0  0  0  0  0  0
  141.3830   80.4360  223.8400 C   0  0  0  0  0  0  0  0  0  0  0  0
  141.3430   79.0590  223.7830 C   0  0  0  0  0  0  0  0  0  0  0  0
  141.0850   78.3990  222.6000 C   0  0  0  0  0  0  0  0  0  0  0  0
  141.0580   76.9290  222.6220 C   0  0  0  0  0  0  0  0  0  0  0  0
  140.8400   74.1650  221.9180 N   0  0  0  0  0  0  0  0  0  0  0  0
  138.7150   71.9900  222.5730 C   0  0  0  0  0  0  0  0  0  0  0  0
  138.0510   71.0090  223.4700 C   0  0  0  0  0  0  0  0  0  0  0  0
  139.3410   69.6520  227.6130 C   0  0  0  0  0  0  0  0  0  0  0  0
  140.2480   69.1600  228.5470 C   0  0  0  0  0  0  0  0  0  0  0  0
  141.8214   67.7465  228.9397 H   0  0  0  0  0  0  0  0  0  0  0  0
  141.7277   66.7950  226.6413 H   0  0  0  0  0  0  0  0  0  0  0  0
  140.1157   67.6869  225.0164 H   0  0  0  0  0  0  0  0  0  0  0  0
  138.4156   68.9165  224.4461 H   0  0  0  0  0  0  0  0  0  0  0  0
  137.3526   69.6382  225.7707 H   0  0  0  0  0  0  0  0  0  0  0  0
  139.8135   72.5370  225.1773 H   0  0  0  0  0  0  0  0  0  0  0  0
  140.3462   70.9583  225.8618 H   0  0  0  0  0  0  0  0  0  0  0  0
  141.7717   71.4996  223.9537 H   0  0  0  0  0  0  0  0  0  0  0  0
  140.7390   70.1377  223.4929 H   0  0  0  0  0  0  0  0  0  0  0  0
  144.9372   71.8684  220.3858 H   0  0  0  0  0  0  0  0  0  0  0  0
  143.7618   70.6444  219.8359 H   0  0  0  0  0  0  0  0  0  0  0  0
  146.0248   70.5626  218.6536 H   0  0  0  0  0  0  0  0  0  0  0  0
  144.6293   70.7416  217.5537 H   0  0  0  0  0  0  0  0  0  0  0  0
  146.4990   72.2550  217.1560 H   0  0  0  0  0  0  0  0  0  0  0  0
  145.0591   74.3570  217.2932 H   0  0  0  0  0  0  0  0  0  0  0  0
  144.7069   72.9814  216.1569 H   0  0  0  0  0  0  0  0  0  0  0  0
  142.8993   74.1156  217.8436 H   0  0  0  0  0  0  0  0  0  0  0  0
  142.8449   72.4129  217.1858 H   0  0  0  0  0  0  0  0  0  0  0  0
  142.5572   77.6438  220.0915 H   0  0  0  0  0  0  0  0  0  0  0  0
  141.2685   76.6879  219.2455 H   0  0  0  0  0  0  0  0  0  0  0  0
  140.7865   79.1496  219.3356 H   0  0  0  0  0  0  0  0  0  0  0  0
  139.5336   78.1671  220.1119 H   0  0  0  0  0  0  0  0  0  0  0  0
  140.7276   81.1276  220.5882 H   0  0  0  0  0  0  0  0  0  0  0  0
  141.1982   82.2985  222.7483 H   0  0  0  0  0  0  0  0  0  0  0  0
  141.5900   80.9348  224.7983 H   0  0  0  0  0  0  0  0  0  0  0  0
  141.5203   78.4757  224.6986 H   0  0  0  0  0  0  0  0  0  0  0  0
  141.8047   76.5563  223.3386 H   0  0  0  0  0  0  0  0  0  0  0  0
  140.0611   76.5784  222.9274 H   0  0  0  0  0  0  0  0  0  0  0  0
  138.3216   72.9916  222.8011 H   0  0  0  0  0  0  0  0  0  0  0  0
  138.4982   71.6807  221.5399 H   0  0  0  0  0  0  0  0  0  0  0  0
  136.9879   71.2824  223.5414 H   0  0  0  0  0  0  0  0  0  0  0  0
  138.2293   70.0221  223.0181 H   0  0  0  0  0  0  0  0  0  0  0  0
  138.6647   70.4693  227.9040 H   0  0  0  0  0  0  0  0  0  0  0  0
  140.2808   69.5884  229.5596 H   0  0  0  0  0  0  0  0  0  0  0  0
  1  2  2  0
  2  3  1  0
  3  4  2  0
  4  5  1  0
  5  6  1  0
  6  7  1  0
  7  8  1  0
  8  9  1  0
  9 10  1  0
 10 11  2  0
 11 12  1  0
 12 13  1  0
 13 14  1  0
 14 15  1  0
 15 16  1  0
 16 17  1  0
 17 18  1  0
 12 19  2  0
 19 20  1  0
 20 21  1  0
 21 22  1  0
 22 23  1  0
 23 24  1  0
 24 25  2  0
 25 26  1  0
 26 27  2  0
 27 28  1  0
 28 29  2  0
 29 30  1  0
 20 31  2  0
  9 32  1  0
 32 33  1  0
  4 34  1  0
 34 35  2  0
 35  1  1  0
 33  6  1  0
 31 10  1  0
 18 13  1  0
 30 21  1  0
 29 24  1  0
  1 36  1  0
  2 37  1  0
  3 38  1  0
  5 39  1  0
  5 40  1  0
  7 41  1  0
  7 42  1  0
  8 43  1  0
  8 44  1  0
 14 45  1  0
 14 46  1  0
 15 47  1  0
 15 48  1  0
 16 49  1  0
 17 50  1  0
 17 51  1  0
 18 52  1  0
 18 53  1  0
 22 54  1  0
 22 55  1  0
 23 56  1  0
 23 57  1  0
 25 58  1  0
 26 59  1  0
 27 60  1  0
 28 61  1  0
 30 62  1  0
 30 63  1  0
 32 64  1  0
 32 65  1  0
 33 66  1  0
 33 67  1  0
 34 68  1  0
 35 69  1  0
M  END
>  <smiles>  (46) 
c1ccc(CN2CCN(c3nc(N4CCNCC4)nc(N4CCc5ccccc5C4)n3)CC2)cc1

>  <score_type>  (46) 
oracle

>  <origin>  (46) 
autodockgpu

>  <m_score__min__energy>  (46) 
-9.8499999999999996

>  <m_primary>  (46) 
energy

>  <rmsd>  (46) 
11.064955422041843

>  <m_score__min__rmsd>  (46) 
11.064955422041843

>  <meeko>  (46) 
{"free_energy": -9.42, "intermolecular_energy": -10.91, "internal_energy": -1.16, "cluster_size": 43, "cluster_id": 1, "rank_in_cluster": 11}

>  <energy>  (46) 
-8.81

>  <cluster_rmsd>  (46) 
0.58

>  <cluster>  (46) 
2

$$$$

     RDKit          3D

 69 74  0  0  0  0  0  0  0  0999 V2000
  142.5890   80.9440  223.4900 C   0  0  0  0  0  0  0  0  0  0  0  0
  141.9380   81.4390  222.3800 C   0  0  0  0  0  0  0  0  0  0  0  0
  140.7290   80.8950  222.0080 C   0  0  0  0  0  0  0  0  0  0  0  0
  140.1220   79.8590  222.6990 C   0  0  0  0  0  0  0  0  0  0  0  0
  138.8340   79.3580  222.2210 C   0  0  0  0  0  0  0  0  0  0  0  0
  138.8760   78.1330  221.4940 N   0  0  0  0  0  0  0  0  0  0  0  0
  140.1320   77.7680  220.9410 C   0  0  0  0  0  0  0  0  0  0  0  0
  140.8710   76.8470  221.8900 C   0  0  0  0  0  0  0  0  0  0  0  0
  140.1070   75.6110  221.9210 N   0  0  0  0  0  0  0  0  0  0  0  0
  140.7090   74.3280  221.8200 C   0  0  0  0  0  0  0  0  0  0  0  0
  141.5900   73.9960  220.8650 N   0  0  0  0  0  0  0  0  0  0  0  0
  142.1460   72.7550  220.8000 C   0  0  0  0  0  0  0  0  0  0  0  0
  143.0820   72.4040  219.7800 N   0  0  0  0  0  0  0  0  0  0  0  0
  143.8050   71.1600  219.8860 C   0  0  0  0  0  0  0  0  0  0  0  0
  144.7790   71.0910  218.7300 C   0  0  0  0  0  0  0  0  0  0  0  0
  145.5260   72.3310  218.7000 N   0  0  0  0  0  0  0  0  0  0  0  0
  144.7150   73.4440  218.2570 C   0  0  0  0  0  0  0  0  0  0  0  0
  143.2720   73.3090  218.6800 C   0  0  0  0  0  0  0  0  0  0  0  0
  141.7840   71.8400  221.7440 N   0  0  0  0  0  0  0  0  0  0  0  0
  140.9060   72.1370  222.7170 C   0  0  0  0  0  0  0  0  0  0  0  0
  140.5140   71.1850  223.7180 N   0  0  0  0  0  0  0  0  0  0  0  0
  139.2970   70.4290  223.5220 C   0  0  0  0  0  0  0  0  0  0  0  0
  139.4090   69.0260  224.0830 C   0  0  0  0  0  0  0  0  0  0  0  0
  139.8010   69.1870  225.5280 C   0  0  0  0  0  0  0  0  0  0  0  0
  139.2190   68.3680  226.4700 C   0  0  0  0  0  0  0  0  0  0  0  0
  139.5740   68.5100  227.7990 C   0  0  0  0  0  0  0  0  0  0  0  0
  140.5090   69.4770  228.1380 C   0  0  0  0  0  0  0  0  0  0  0  0
  141.0730   70.2820  227.1700 C   0  0  0  0  0  0  0  0  0  0  0  0
  140.7290   70.1520  225.8420 C   0  0  0  0  0  0  0  0  0  0  0  0
  141.3750   71.0480  224.8700 C   0  0  0  0  0  0  0  0  0  0  0  0
  140.3980   73.3790  222.7190 N   0  0  0  0  0  0  0  0  0  0  0  0
  138.6750   75.7290  222.0580 C   0  0  0  0  0  0  0  0  0  0  0  0
  138.2120   77.1240  222.2750 C   0  0  0  0  0  0  0  0  0  0  0  0
  140.7960   79.3860  223.8050 C   0  0  0  0  0  0  0  0  0  0  0  0
  142.0190   79.9180  224.2040 C   0  0  0  0  0  0  0  0  0  0  0  0
  143.5558   81.3666  223.8010 H   0  0  0  0  0  0  0  0  0  0  0  0
  142.3801   82.2605  221.7973 H   0  0  0  0  0  0  0  0  0  0  0  0
  140.2216   81.3019  221.1209 H   0  0  0  0  0  0  0  0  0  0  0  0
  138.1841   79.2091  223.0959 H   0  0  0  0  0  0  0  0  0  0  0  0
  138.4641   80.1135  221.5122 H   0  0  0  0  0  0  0  0  0  0  0  0
  139.9714   77.2509  219.9835 H   0  0  0  0  0  0  0  0  0  0  0  0
  140.7320   78.6758  220.7802 H   0  0  0  0  0  0  0  0  0  0  0  0
  141.8905   76.6575  221.5230 H   0  0  0  0  0  0  0  0  0  0  0  0
  140.9635   77.2899  222.8926 H   0  0  0  0  0  0  0  0  0  0  0  0
  144.3527   71.1256  220.8393 H   0  0  0  0  0  0  0  0  0  0  0  0
  143.1101   70.3079  219.8543 H   0  0  0  0  0  0  0  0  0  0  0  0
  145.4667   70.2442  218.8713 H   0  0  0  0  0  0  0  0  0  0  0  0
  144.2385   70.9474  217.7828 H   0  0  0  0  0  0  0  0  0  0  0  0
  146.3080   72.2150  218.0110 H   0  0  0  0  0  0  0  0  0  0  0  0
  145.1234   74.3712  218.6853 H   0  0  0  0  0  0  0  0  0  0  0  0
  144.7419   73.4619  217.1575 H   0  0  0  0  0  0  0  0  0  0  0  0
  142.9014   74.3012  218.9768 H   0  0  0  0  0  0  0  0  0  0  0  0
  142.7193   72.8981  217.8223 H   0  0  0  0  0  0  0  0  0  0  0  0
  138.4696   70.9492  224.0268 H   0  0  0  0  0  0  0  0  0  0  0  0
  139.1138   70.3508  222.4402 H   0  0  0  0  0  0  0  0  0  0  0  0
  138.4435   68.5048  224.0047 H   0  0  0  0  0  0  0  0  0  0  0  0
  140.1480   68.4284  223.5292 H   0  0  0  0  0  0  0  0  0  0  0  0
  138.4808   67.6101  226.1689 H   0  0  0  0  0  0  0  0  0  0  0  0
  139.1241   67.8692  228.5716 H   0  0  0  0  0  0  0  0  0  0  0  0
  140.8040   69.6033  229.1902 H   0  0  0  0  0  0  0  0  0  0  0  0
  141.8116   71.0423  227.4639 H   0  0  0  0  0  0  0  0  0  0  0  0
  141.5385   72.0344  225.3285 H   0  0  0  0  0  0  0  0  0  0  0  0
  142.3449   70.6293  224.5635 H   0  0  0  0  0  0  0  0  0  0  0  0
  138.2049   75.3451  221.1406 H   0  0  0  0  0  0  0  0  0  0  0  0
  138.3871   75.1510  222.9485 H   0  0  0  0  0  0  0  0  0  0  0  0
  137.1390   77.1644  222.0363 H   0  0  0  0  0  0  0  0  0  0  0  0
  138.4462   77.3565  223.3243 H   0  0  0  0  0  0  0  0  0  0  0  0
  140.3547   78.5648  224.3888 H   0  0  0  0  0  0  0  0  0  0  0  0
  142.5295   79.5165  225.0918 H   0  0  0  0  0  0  0  0  0  0  0  0
  1  2  2  0
  2  3  1  0
  3  4  2  0
  4  5  1  0
  5  6  1  0
  6  7  1  0
  7  8  1  0
  8  9  1  0
  9 10  1  0
 10 11  2  0
 11 12  1  0
 12 13  1  0
 13 14  1  0
 14 15  1  0
 15 16  1  0
 16 17  1  0
 17 18  1  0
 12 19  2  0
 19 20  1  0
 20 21  1  0
 21 22  1  0
 22 23  1  0
 23 24  1  0
 24 25  2  0
 25 26  1  0
 26 27  2  0
 27 28  1  0
 28 29  2  0
 29 30  1  0
 20 31  2  0
  9 32  1  0
 32 33  1  0
  4 34  1  0
 34 35  2  0
 35  1  1  0
 33  6  1  0
 31 10  1  0
 18 13  1  0
 30 21  1  0
 29 24  1  0
  1 36  1  0
  2 37  1  0
  3 38  1  0
  5 39  1  0
  5 40  1  0
  7 41  1  0
  7 42  1  0
  8 43  1  0
  8 44  1  0
 14 45  1  0
 14 46  1  0
 15 47  1  0
 15 48  1  0
 16 49  1  0
 17 50  1  0
 17 51  1  0
 18 52  1  0
 18 53  1  0
 22 54  1  0
 22 55  1  0
 23 56  1  0
 23 57  1  0
 25 58  1  0
 26 59  1  0
 27 60  1  0
 28 61  1  0
 30 62  1  0
 30 63  1  0
 32 64  1  0
 32 65  1  0
 33 66  1  0
 33 67  1  0
 34 68  1  0
 35 69  1  0
M  END
>  <smiles>  (47) 
c1ccc(CN2CCN(c3nc(N4CCNCC4)nc(N4CCc5ccccc5C4)n3)CC2)cc1

>  <score_type>  (47) 
oracle

>  <origin>  (47) 
autodockgpu

>  <m_score__min__energy>  (47) 
-9.8499999999999996

>  <m_primary>  (47) 
energy

>  <rmsd>  (47) 
3.4680448906497623

>  <m_score__min__rmsd>  (47) 
3.4680448906497623

>  <meeko>  (47) 
{"free_energy": -9.2, "intermolecular_energy": -10.69, "internal_energy": -1.18, "cluster_size": 43, "cluster_id": 1, "rank_in_cluster": 29}

>  <energy>  (47) 
-8.8

>  <cluster_rmsd>  (47) 
0.62

>  <cluster>  (47) 
2

$$$$

     RDKit          3D

 69 74  0  0  0  0  0  0  0  0999 V2000
  140.8260   68.4120  228.4220 C   0  0  0  0  0  0  0  0  0  0  0  0
  139.6880   69.1820  228.3010 C   0  0  0  0  0  0  0  0  0  0  0  0
  139.0650   69.2790  227.0760 C   0  0  0  0  0  0  0  0  0  0  0  0
  139.5280   68.6350  225.9400 C   0  0  0  0  0  0  0  0  0  0  0  0
  138.7890   68.8030  224.6900 C   0  0  0  0  0  0  0  0  0  0  0  0
  138.6140   70.1460  224.2470 N   0  0  0  0  0  0  0  0  0  0  0  0
  139.4810   71.1170  224.8120 C   0  0  0  0  0  0  0  0  0  0  0  0
  140.6840   71.3260  223.9150 C   0  0  0  0  0  0  0  0  0  0  0  0
  140.1730   71.9480  222.7040 N   0  0  0  0  0  0  0  0  0  0  0  0
  140.7930   73.0690  222.0910 C   0  0  0  0  0  0  0  0  0  0  0  0
  141.8490   72.9740  221.2700 N   0  0  0  0  0  0  0  0  0  0  0  0
  142.4170   74.0720  220.7000 C   0  0  0  0  0  0  0  0  0  0  0  0
  143.5430   73.9690  219.8270 N   0  0  0  0  0  0  0  0  0  0  0  0
  143.3250   73.6980  218.4270 C   0  0  0  0  0  0  0  0  0  0  0  0
  144.6790   73.5550  217.7670 C   0  0  0  0  0  0  0  0  0  0  0  0
  145.4600   72.6160  218.5460 N   0  0  0  0  0  0  0  0  0  0  0  0
  145.8740   73.1730  219.8140 C   0  0  0  0  0  0  0  0  0  0  0  0
  144.8580   74.1380  220.3790 C   0  0  0  0  0  0  0  0  0  0  0  0
  141.8810   75.2940  220.9860 N   0  0  0  0  0  0  0  0  0  0  0  0
  140.8230   75.4260  221.8040 C   0  0  0  0  0  0  0  0  0  0  0  0
  140.2470   76.7050  222.1160 N   0  0  0  0  0  0  0  0  0  0  0  0
  141.1050   77.7490  222.6300 C   0  0  0  0  0  0  0  0  0  0  0  0
  140.6710   79.1200  222.1530 C   0  0  0  0  0  0  0  0  0  0  0  0
  139.2270   79.2630  222.5570 C   0  0  0  0  0  0  0  0  0  0  0  0
  138.7920   80.4720  223.0500 C   0  0  0  0  0  0  0  0  0  0  0  0
  137.4670   80.6110  223.4240 C   0  0  0  0  0  0  0  0  0  0  0  0
  136.6200   79.5200  223.2860 C   0  0  0  0  0  0  0  0  0  0  0  0
  137.0880   78.3220  222.7890 C   0  0  0  0  0  0  0  0  0  0  0  0
  138.4060   78.1690  222.4130 C   0  0  0  0  0  0  0  0  0  0  0  0
  138.8280   76.8600  221.8910 C   0  0  0  0  0  0  0  0  0  0  0  0
  140.3150   74.3020  222.3290 N   0  0  0  0  0  0  0  0  0  0  0  0
  138.9800   71.3750  222.1280 C   0  0  0  0  0  0  0  0  0  0  0  0
  138.5240   70.1370  222.8110 C   0  0  0  0  0  0  0  0  0  0  0  0
  140.6670   67.8720  226.0920 C   0  0  0  0  0  0  0  0  0  0  0  0
  141.3160   67.7560  227.3170 C   0  0  0  0  0  0  0  0  0  0  0  0
  141.3364   68.3235  229.3924 H   0  0  0  0  0  0  0  0  0  0  0  0
  139.2818   69.7135  229.1742 H   0  0  0  0  0  0  0  0  0  0  0  0
  138.1580   69.8963  226.9962 H   0  0  0  0  0  0  0  0  0  0  0  0
  139.3288   68.2560  223.9030 H   0  0  0  0  0  0  0  0  0  0  0  0
  137.7770   68.4204  224.8884 H   0  0  0  0  0  0  0  0  0  0  0  0
  138.9395   72.0682  224.9219 H   0  0  0  0  0  0  0  0  0  0  0  0
  139.8229   70.7649  225.7964 H   0  0  0  0  0  0  0  0  0  0  0  0
  141.4165   71.9850  224.4041 H   0  0  0  0  0  0  0  0  0  0  0  0
  141.1960   70.3771  223.6973 H   0  0  0  0  0  0  0  0  0  0  0  0
  142.7520   72.7662  218.3111 H   0  0  0  0  0  0  0  0  0  0  0  0
  142.7553   74.5158  217.9616 H   0  0  0  0  0  0  0  0  0  0  0  0
  144.5562   73.1776  216.7411 H   0  0  0  0  0  0  0  0  0  0  0  0
  145.1870   74.5297  217.7221 H   0  0  0  0  0  0  0  0  0  0  0  0
  146.3260   72.3920  217.9990 H   0  0  0  0  0  0  0  0  0  0  0  0
  146.0172   72.3511  220.5309 H   0  0  0  0  0  0  0  0  0  0  0  0
  146.8079   73.7295  219.6467 H   0  0  0  0  0  0  0  0  0  0  0  0
  144.8015   73.9874  221.4672 H   0  0  0  0  0  0  0  0  0  0  0  0
  145.1926   75.1525  220.1167 H   0  0  0  0  0  0  0  0  0  0  0  0
  141.0723   77.7277  223.7293 H   0  0  0  0  0  0  0  0  0  0  0  0
  142.1250   77.5658  222.2611 H   0  0  0  0  0  0  0  0  0  0  0  0
  141.2805   79.9013  222.6305 H   0  0  0  0  0  0  0  0  0  0  0  0
  140.7973   79.2266  221.0655 H   0  0  0  0  0  0  0  0  0  0  0  0
  139.4891   81.3175  223.1456 H   0  0  0  0  0  0  0  0  0  0  0  0
  137.0929   81.5657  223.8222 H   0  0  0  0  0  0  0  0  0  0  0  0
  135.5631   79.6122  223.5765 H   0  0  0  0  0  0  0  0  0  0  0  0
  136.3968   77.4720  222.6905 H   0  0  0  0  0  0  0  0  0  0  0  0
  138.2814   76.0603  222.4123 H   0  0  0  0  0  0  0  0  0  0  0  0
  138.6112   76.7992  220.8143 H   0  0  0  0  0  0  0  0  0  0  0  0
  138.1735   72.1208  222.1855 H   0  0  0  0  0  0  0  0  0  0  0  0
  139.2231   71.0999  221.0911 H   0  0  0  0  0  0  0  0  0  0  0  0
  137.4712   69.9698  222.5396 H   0  0  0  0  0  0  0  0  0  0  0  0
  139.2042   69.3411  222.4735 H   0  0  0  0  0  0  0  0  0  0  0  0
  141.0739   67.3399  225.2194 H   0  0  0  0  0  0  0  0  0  0  0  0
  142.2224   67.1386  227.4020 H   0  0  0  0  0  0  0  0  0  0  0  0
  1  2  2  0
  2  3  1  0
  3  4  2  0
  4  5  1  0
  5  6  1  0
  6  7  1  0
  7  8  1  0
  8  9  1  0
  9 10  1  0
 10 11  2  0
 11 12  1  0
 12 13  1  0
 13 14  1  0
 14 15  1  0
 15 16  1  0
 16 17  1  0
 17 18  1  0
 12 19  2  0
 19 20  1  0
 20 21  1  0
 21 22  1  0
 22 23  1  0
 23 24  1  0
 24 25  2  0
 25 26  1  0
 26 27  2  0
 27 28  1  0
 28 29  2  0
 29 30  1  0
 20 31  2  0
  9 32  1  0
 32 33  1  0
  4 34  1  0
 34 35  2  0
 35  1  1  0
 33  6  1  0
 31 10  1  0
 18 13  1  0
 30 21  1  0
 29 24  1  0
  1 36  1  0
  2 37  1  0
  3 38  1  0
  5 39  1  0
  5 40  1  0
  7 41  1  0
  7 42  1  0
  8 43  1  0
  8 44  1  0
 14 45  1  0
 14 46  1  0
 15 47  1  0
 15 48  1  0
 16 49  1  0
 17 50  1  0
 17 51  1  0
 18 52  1  0
 18 53  1  0
 22 54  1  0
 22 55  1  0
 23 56  1  0
 23 57  1  0
 25 58  1  0
 26 59  1  0
 27 60  1  0
 28 61  1  0
 30 62  1  0
 30 63  1  0
 32 64  1  0
 32 65  1  0
 33 66  1  0
 33 67  1  0
 34 68  1  0
 35 69  1  0
M  END
>  <smiles>  (48) 
c1ccc(CN2CCN(c3nc(N4CCNCC4)nc(N4CCc5ccccc5C4)n3)CC2)cc1

>  <score_type>  (48) 
oracle

>  <origin>  (48) 
autodockgpu

>  <m_score__min__energy>  (48) 
-9.8499999999999996

>  <m_primary>  (48) 
energy

>  <rmsd>  (48) 
11.178129921611006

>  <m_score__min__rmsd>  (48) 
11.178129921611006

>  <meeko>  (48) 
{"free_energy": -9.4, "intermolecular_energy": -10.89, "internal_energy": -1.01, "cluster_size": 43, "cluster_id": 1, "rank_in_cluster": 12}

>  <energy>  (48) 
-8.77

>  <cluster_rmsd>  (48) 
0.67

>  <cluster>  (48) 
2

$$$$

     RDKit          3D

 69 74  0  0  0  0  0  0  0  0999 V2000
  142.8390   80.4210  223.3870 C   0  0  0  0  0  0  0  0  0  0  0  0
  142.2250   80.9920  222.2930 C   0  0  0  0  0  0  0  0  0  0  0  0
  140.9370   80.6220  221.9710 C   0  0  0  0  0  0  0  0  0  0  0  0
  140.2140   79.6920  222.7010 C   0  0  0  0  0  0  0  0  0  0  0  0
  138.8520   79.3750  222.2750 C   0  0  0  0  0  0  0  0  0  0  0  0
  138.6860   78.1340  221.5950 N   0  0  0  0  0  0  0  0  0  0  0  0
  139.8020   77.6650  220.8530 C   0  0  0  0  0  0  0  0  0  0  0  0
  140.6270   76.7150  221.6970 C   0  0  0  0  0  0  0  0  0  0  0  0
  139.7960   75.5390  221.8980 N   0  0  0  0  0  0  0  0  0  0  0  0
  140.2830   74.2140  221.7430 C   0  0  0  0  0  0  0  0  0  0  0  0
  140.9650   73.7960  220.6670 N   0  0  0  0  0  0  0  0  0  0  0  0
  141.4150   72.5170  220.5530 C   0  0  0  0  0  0  0  0  0  0  0  0
  142.1400   72.0750  219.4040 N   0  0  0  0  0  0  0  0  0  0  0  0
  143.5810   72.0250  219.4570 C   0  0  0  0  0  0  0  0  0  0  0  0
  144.0800   71.6110  218.0900 C   0  0  0  0  0  0  0  0  0  0  0  0
  143.4460   72.4630  217.1040 N   0  0  0  0  0  0  0  0  0  0  0  0
  142.0420   72.1580  216.9440 C   0  0  0  0  0  0  0  0  0  0  0  0
  141.4030   71.6930  218.2320 C   0  0  0  0  0  0  0  0  0  0  0  0
  141.1570   71.6520  221.5760 N   0  0  0  0  0  0  0  0  0  0  0  0
  140.4770   72.0350  222.6700 C   0  0  0  0  0  0  0  0  0  0  0  0
  140.1960   71.1370  223.7550 N   0  0  0  0  0  0  0  0  0  0  0  0
  139.0600   70.2480  223.6460 C   0  0  0  0  0  0  0  0  0  0  0  0
  139.3220   68.9170  224.3210 C   0  0  0  0  0  0  0  0  0  0  0  0
  139.7100   69.2390  225.7400 C   0  0  0  0  0  0  0  0  0  0  0  0
  139.2260   68.4490  226.7580 C   0  0  0  0  0  0  0  0  0  0  0  0
  139.5780   68.7400  228.0640 C   0  0  0  0  0  0  0  0  0  0  0  0
  140.4130   69.8220  228.3020 C   0  0  0  0  0  0  0  0  0  0  0  0
  140.8810   70.5940  227.2590 C   0  0  0  0  0  0  0  0  0  0  0  0
  140.5380   70.3170  225.9530 C   0  0  0  0  0  0  0  0  0  0  0  0
  141.0790   71.1870  224.8980 C   0  0  0  0  0  0  0  0  0  0  0  0
  140.0640   73.3100  222.7130 N   0  0  0  0  0  0  0  0  0  0  0  0
  138.4190   75.7650  222.2680 C   0  0  0  0  0  0  0  0  0  0  0  0
  138.0960   77.1950  222.5110 C   0  0  0  0  0  0  0  0  0  0  0  0
  140.8540   79.1390  223.7900 C   0  0  0  0  0  0  0  0  0  0  0  0
  142.1540   79.4940  224.1370 C   0  0  0  0  0  0  0  0  0  0  0  0
  143.8670   80.7041  223.6575 H   0  0  0  0  0  0  0  0  0  0  0  0
  142.7580   81.7360  221.6827 H   0  0  0  0  0  0  0  0  0  0  0  0
  140.4612   81.0861  221.0945 H   0  0  0  0  0  0  0  0  0  0  0  0
  138.2143   79.3563  223.1711 H   0  0  0  0  0  0  0  0  0  0  0  0
  138.5792   80.1527  221.5464 H   0  0  0  0  0  0  0  0  0  0  0  0
  139.4464   77.1385  219.9550 H   0  0  0  0  0  0  0  0  0  0  0  0
  140.4265   78.5224  220.5618 H   0  0  0  0  0  0  0  0  0  0  0  0
  141.5545   76.4432  221.1718 H   0  0  0  0  0  0  0  0  0  0  0  0
  140.9183   77.1728  222.6538 H   0  0  0  0  0  0  0  0  0  0  0  0
  143.9805   73.0164  219.7167 H   0  0  0  0  0  0  0  0  0  0  0  0
  143.9127   71.3064  220.2210 H   0  0  0  0  0  0  0  0  0  0  0  0
  145.1723   71.7307  218.0395 H   0  0  0  0  0  0  0  0  0  0  0  0
  143.8347   70.5562  217.8974 H   0  0  0  0  0  0  0  0  0  0  0  0
  143.9160   72.2880  216.1840 H   0  0  0  0  0  0  0  0  0  0  0  0
  141.5212   73.0629  216.5979 H   0  0  0  0  0  0  0  0  0  0  0  0
  141.9577   71.3400  216.2134 H   0  0  0  0  0  0  0  0  0  0  0  0
  140.3943   72.1269  218.2974 H   0  0  0  0  0  0  0  0  0  0  0  0
  141.3814   70.5935  218.2057 H   0  0  0  0  0  0  0  0  0  0  0  0
  138.1889   70.7230  224.1210 H   0  0  0  0  0  0  0  0  0  0  0  0
  138.8736   70.0598  222.5784 H   0  0  0  0  0  0  0  0  0  0  0  0
  138.4147   68.2953  224.3048 H   0  0  0  0  0  0  0  0  0  0  0  0
  140.1135   68.3533  223.8055 H   0  0  0  0  0  0  0  0  0  0  0  0
  138.5672   67.5965  226.5358 H   0  0  0  0  0  0  0  0  0  0  0  0
  139.2035   68.1261  228.8964 H   0  0  0  0  0  0  0  0  0  0  0  0
  140.7051   70.0670  229.3338 H   0  0  0  0  0  0  0  0  0  0  0  0
  141.5409   71.4475  227.4737 H   0  0  0  0  0  0  0  0  0  0  0  0
  141.1455   72.2204  225.2689 H   0  0  0  0  0  0  0  0  0  0  0  0
  142.0836   70.8443  224.6095 H   0  0  0  0  0  0  0  0  0  0  0  0
  137.7755   75.3962  221.4557 H   0  0  0  0  0  0  0  0  0  0  0  0
  138.2467   75.2299  223.2135 H   0  0  0  0  0  0  0  0  0  0  0  0
  137.0034   77.3087  222.4539 H   0  0  0  0  0  0  0  0  0  0  0  0
  138.5194   77.4336  223.4978 H   0  0  0  0  0  0  0  0  0  0  0  0
  140.3217   78.3959  224.4020 H   0  0  0  0  0  0  0  0  0  0  0  0
  142.6343   79.0325  225.0124 H   0  0  0  0  0  0  0  0  0  0  0  0
  1  2  2  0
  2  3  1  0
  3  4  2  0
  4  5  1  0
  5  6  1  0
  6  7  1  0
  7  8  1  0
  8  9  1  0
  9 10  1  0
 10 11  2  0
 11 12  1  0
 12 13  1  0
 13 14  1  0
 14 15  1  0
 15 16  1  0
 16 17  1  0
 17 18  1  0
 12 19  2  0
 19 20  1  0
 20 21  1  0
 21 22  1  0
 22 23  1  0
 23 24  1  0
 24 25  2  0
 25 26  1  0
 26 27  2  0
 27 28  1  0
 28 29  2  0
 29 30  1  0
 20 31  2  0
  9 32  1  0
 32 33  1  0
  4 34  1  0
 34 35  2  0
 35  1  1  0
 33  6  1  0
 31 10  1  0
 18 13  1  0
 30 21  1  0
 29 24  1  0
  1 36  1  0
  2 37  1  0
  3 38  1  0
  5 39  1  0
  5 40  1  0
  7 41  1  0
  7 42  1  0
  8 43  1  0
  8 44  1  0
 14 45  1  0
 14 46  1  0
 15 47  1  0
 15 48  1  0
 16 49  1  0
 17 50  1  0
 17 51  1  0
 18 52  1  0
 18 53  1  0
 22 54  1  0
 22 55  1  0
 23 56  1  0
 23 57  1  0
 25 58  1  0
 26 59  1  0
 27 60  1  0
 28 61  1  0
 30 62  1  0
 30 63  1  0
 32 64  1  0
 32 65  1  0
 33 66  1  0
 33 67  1  0
 34 68  1  0
 35 69  1  0
M  END
>  <smiles>  (49) 
c1ccc(CN2CCN(c3nc(N4CCNCC4)nc(N4CCc5ccccc5C4)n3)CC2)cc1

>  <score_type>  (49) 
oracle

>  <origin>  (49) 
autodockgpu

>  <m_score__min__energy>  (49) 
-9.8499999999999996

>  <m_primary>  (49) 
energy

>  <rmsd>  (49) 
3.6526148689901063

>  <m_score__min__rmsd>  (49) 
3.6526148689901063

>  <meeko>  (49) 
{"free_energy": -8.85, "intermolecular_energy": -10.34, "internal_energy": -1.19, "cluster_size": 43, "cluster_id": 1, "rank_in_cluster": 40}

>  <energy>  (49) 
-8.57

>  <cluster_rmsd>  (49) 
1.35

>  <cluster>  (49) 
2

$$$$

     RDKit          3D

 69 74  0  0  0  0  0  0  0  0999 V2000
  142.2370   81.3890  224.2390 C   0  0  0  0  0  0  0  0  0  0  0  0
  140.9760   81.2880  223.6900 C   0  0  0  0  0  0  0  0  0  0  0  0
  140.7560   80.3980  222.6610 C   0  0  0  0  0  0  0  0  0  0  0  0
  141.7500   79.5860  222.1410 C   0  0  0  0  0  0  0  0  0  0  0  0
  141.4080   78.6730  221.0510 C   0  0  0  0  0  0  0  0  0  0  0  0
  141.7040   77.2980  221.2770 N   0  0  0  0  0  0  0  0  0  0  0  0
  141.0470   76.6800  222.3730 C   0  0  0  0  0  0  0  0  0  0  0  0
  139.7830   75.9900  221.9010 C   0  0  0  0  0  0  0  0  0  0  0  0
  140.2230   74.8850  221.0650 N   0  0  0  0  0  0  0  0  0  0  0  0
  139.6880   73.5740  221.1730 C   0  0  0  0  0  0  0  0  0  0  0  0
  139.0280   72.9590  220.1800 N   0  0  0  0  0  0  0  0  0  0  0  0
  138.5280   71.7010  220.3210 C   0  0  0  0  0  0  0  0  0  0  0  0
  137.8250   71.0490  219.2620 N   0  0  0  0  0  0  0  0  0  0  0  0
  137.1040   69.8310  219.5410 C   0  0  0  0  0  0  0  0  0  0  0  0
  136.5360   69.3200  218.2350 C   0  0  0  0  0  0  0  0  0  0  0  0
  137.6100   69.2890  217.2620 N   0  0  0  0  0  0  0  0  0  0  0  0
  138.0030   70.6160  216.8440 C   0  0  0  0  0  0  0  0  0  0  0  0
  137.8620   71.6340  217.9500 C   0  0  0  0  0  0  0  0  0  0  0  0
  138.7160   71.0650  221.5130 N   0  0  0  0  0  0  0  0  0  0  0  0
  139.3720   71.6500  222.5290 C   0  0  0  0  0  0  0  0  0  0  0  0
  139.5780   70.9950  223.7910 N   0  0  0  0  0  0  0  0  0  0  0  0
  138.7350   69.8730  224.1390 C   0  0  0  0  0  0  0  0  0  0  0  0
  139.4860   68.8340  224.9470 C   0  0  0  0  0  0  0  0  0  0  0  0
  140.0530   69.5620  226.1360 C   0  0  0  0  0  0  0  0  0  0  0  0
  140.0250   68.9480  227.3680 C   0  0  0  0  0  0  0  0  0  0  0  0
  140.5440   69.6110  228.4650 C   0  0  0  0  0  0  0  0  0  0  0  0
  141.0790   70.8780  228.2840 C   0  0  0  0  0  0  0  0  0  0  0  0
  141.0920   71.4660  227.0360 C   0  0  0  0  0  0  0  0  0  0  0  0
  140.5770   70.8180  225.9340 C   0  0  0  0  0  0  0  0  0  0  0  0
  140.6290   71.5110  224.6380 C   0  0  0  0  0  0  0  0  0  0  0  0
  139.8370   72.8900  222.3200 N   0  0  0  0  0  0  0  0  0  0  0  0
  141.2530   75.1690  220.0940 C   0  0  0  0  0  0  0  0  0  0  0  0
  141.6200   76.6070  220.0190 C   0  0  0  0  0  0  0  0  0  0  0  0
  143.0000   79.7090  222.7110 C   0  0  0  0  0  0  0  0  0  0  0  0
  143.2500   80.5990  223.7500 C   0  0  0  0  0  0  0  0  0  0  0  0
  142.4303   82.0949  225.0602 H   0  0  0  0  0  0  0  0  0  0  0  0
  140.1535   81.9119  224.0698 H   0  0  0  0  0  0  0  0  0  0  0  0
  139.7449   80.3295  222.2333 H   0  0  0  0  0  0  0  0  0  0  0  0
  140.3272   78.7593  220.8652 H   0  0  0  0  0  0  0  0  0  0  0  0
  142.0345   78.9770  220.1995 H   0  0  0  0  0  0  0  0  0  0  0  0
  141.7187   75.9372  222.8280 H   0  0  0  0  0  0  0  0  0  0  0  0
  140.7822   77.4488  223.1139 H   0  0  0  0  0  0  0  0  0  0  0  0
  139.2078   75.6147  222.7603 H   0  0  0  0  0  0  0  0  0  0  0  0
  139.1277   76.6795  221.3485 H   0  0  0  0  0  0  0  0  0  0  0  0
  137.7860   69.0825  219.9707 H   0  0  0  0  0  0  0  0  0  0  0  0
  136.2963   70.0196  220.2635 H   0  0  0  0  0  0  0  0  0  0  0  0
  136.1298   68.3074  218.3752 H   0  0  0  0  0  0  0  0  0  0  0  0
  135.7244   69.9764  217.8880 H   0  0  0  0  0  0  0  0  0  0  0  0
  137.2570   68.7810  216.4150 H   0  0  0  0  0  0  0  0  0  0  0  0
  139.0544   70.5879  216.5219 H   0  0  0  0  0  0  0  0  0  0  0  0
  137.3374   70.9194  216.0225 H   0  0  0  0  0  0  0  0  0  0  0  0
  138.7170   72.3242  217.8998 H   0  0  0  0  0  0  0  0  0  0  0  0
  136.9024   72.1495  217.7968 H   0  0  0  0  0  0  0  0  0  0  0  0
  137.8834   70.2379  224.7320 H   0  0  0  0  0  0  0  0  0  0  0  0
  138.3936   69.3997  223.2066 H   0  0  0  0  0  0  0  0  0  0  0  0
  138.8015   68.0386  225.2768 H   0  0  0  0  0  0  0  0  0  0  0  0
  140.2785   68.3568  224.3518 H   0  0  0  0  0  0  0  0  0  0  0  0
  139.5947   67.9417  227.4784 H   0  0  0  0  0  0  0  0  0  0  0  0
  140.5328   69.1433  229.4606 H   0  0  0  0  0  0  0  0  0  0  0  0
  141.4975   71.4198  229.1450 H   0  0  0  0  0  0  0  0  0  0  0  0
  141.5218   72.4717  226.9182 H   0  0  0  0  0  0  0  0  0  0  0  0
  140.4844   72.5908  224.7902 H   0  0  0  0  0  0  0  0  0  0  0  0
  141.6072   71.3433  224.1637 H   0  0  0  0  0  0  0  0  0  0  0  0
  142.1518   74.5943  220.3623 H   0  0  0  0  0  0  0  0  0  0  0  0
  140.8541   74.8862  219.1087 H   0  0  0  0  0  0  0  0  0  0  0  0
  142.6016   76.6796  219.5279 H   0  0  0  0  0  0  0  0  0  0  0  0
  140.8049   77.0947  219.4642 H   0  0  0  0  0  0  0  0  0  0  0  0
  143.8231   79.0850  222.3327 H   0  0  0  0  0  0  0  0  0  0  0  0
  144.2595   80.6708  224.1810 H   0  0  0  0  0  0  0  0  0  0  0  0
  1  2  2  0
  2  3  1  0
  3  4  2  0
  4  5  1  0
  5  6  1  0
  6  7  1  0
  7  8  1  0
  8  9  1  0
  9 10  1  0
 10 11  2  0
 11 12  1  0
 12 13  1  0
 13 14  1  0
 14 15  1  0
 15 16  1  0
 16 17  1  0
 17 18  1  0
 12 19  2  0
 19 20  1  0
 20 21  1  0
 21 22  1  0
 22 23  1  0
 23 24  1  0
 24 25  2  0
 25 26  1  0
 26 27  2  0
 27 28  1  0
 28 29  2  0
 29 30  1  0
 20 31  2  0
  9 32  1  0
 32 33  1  0
  4 34  1  0
 34 35  2  0
 35  1  1  0
 33  6  1  0
 31 10  1  0
 18 13  1  0
 30 21  1  0
 29 24  1  0
  1 36  1  0
  2 37  1  0
  3 38  1  0
  5 39  1  0
  5 40  1  0
  7 41  1  0
  7 42  1  0
  8 43  1  0
  8 44  1  0
 14 45  1  0
 14 46  1  0
 15 47  1  0
 15 48  1  0
 16 49  1  0
 17 50  1  0
 17 51  1  0
 18 52  1  0
 18 53  1  0
 22 54  1  0
 22 55  1  0
 23 56  1  0
 23 57  1  0
 25 58  1  0
 26 59  1  0
 27 60  1  0
 28 61  1  0
 30 62  1  0
 30 63  1  0
 32 64  1  0
 32 65  1  0
 33 66  1  0
 33 67  1  0
 34 68  1  0
 35 69  1  0
M  END
>  <smiles>  (50) 
c1ccc(CN2CCN(c3nc(N4CCNCC4)nc(N4CCc5ccccc5C4)n3)CC2)cc1

>  <score_type>  (50) 
oracle

>  <origin>  (50) 
autodockgpu

>  <m_score__min__energy>  (50) 
-9.8499999999999996

>  <m_primary>  (50) 
energy

>  <rmsd>  (50) 
3.4783020592866785

>  <m_score__min__rmsd>  (50) 
3.4783020592866785

>  <meeko>  (50) 
{"free_energy": -8.57, "intermolecular_energy": -10.06, "internal_energy": -1.15, "cluster_size": 6, "cluster_id": 2, "rank_in_cluster": 6}

>  <energy>  (50) 
-8.83

>  <cluster_rmsd>  (50) 
0.0

>  <cluster>  (50) 
3

$$$$
