
     RDKit          3D

 53 56  0  0  0  0  0  0  0  0999 V2000
  138.7110   75.4110  222.2210 O   0  0  0  0  0  0  0  0  0  0  0  0
  139.8520   75.9010  221.9990 C   0  0  0  0  0  0  0  0  0  0  0  0
  140.8840   75.1880  221.3200 N   0  0  0  0  0  0  0  0  0  0  0  0
  140.6150   73.8200  220.8530 C   0  0  0  0  0  0  0  0  0  0  0  0
  141.8310   73.0010  221.0480 C   0  0  0  0  0  0  0  0  0  0  0  0
  141.7640   71.9680  221.7600 O   0  0  0  0  0  0  0  0  0  0  0  0
  143.0990   73.3030  220.4780 N   0  0  0  0  0  0  0  0  0  0  0  0
  143.9090   72.2760  219.8360 C   0  0  0  0  0  0  0  0  0  0  0  0
  145.2540   72.6550  220.5040 C   0  0  1  0  0  0  0  0  0  0  0  0
  146.3220   72.0210  219.9280 O   0  0  0  0  0  0  0  0  0  0  0  0
  145.2230   74.1670  220.2070 C   0  0  0  0  0  0  0  0  0  0  0  0
  143.7860   74.6020  220.4380 C   0  0  1  0  0  0  0  0  0  0  0  0
  143.2560   75.3710  219.2360 C   0  0  0  0  0  0  0  0  0  0  0  0
  142.7730   76.5700  219.4400 O   0  0  0  0  0  0  0  0  0  0  0  0
  141.8280   77.4620  219.3460 C   0  0  0  0  0  0  0  0  0  0  0  0
  142.1870   78.8090  219.6280 C   0  0  0  0  0  0  0  0  0  0  0  0
  141.3040   79.8400  219.5690 C   0  0  0  0  0  0  0  0  0  0  0  0
  139.9990   79.6190  219.2260 C   0  0  0  0  0  0  0  0  0  0  0  0
  139.5930   78.3440  218.9430 C   0  0  0  0  0  0  0  0  0  0  0  0
  140.4960   77.3090  219.0060 C   0  0  0  0  0  0  0  0  0  0  0  0
  140.1300   77.2590  222.4590 C   0  0  0  0  0  0  0  0  0  0  0  0
  139.1100   78.1190  222.8030 C   0  0  0  0  0  0  0  0  0  0  0  0
  139.3210   79.4100  223.2420 C   0  0  0  0  0  0  0  0  0  0  0  0
  140.6280   79.8700  223.3440 C   0  0  0  0  0  0  0  0  0  0  0  0
  140.9030   81.1640  223.7820 C   0  0  0  0  0  0  0  0  0  0  0  0
  142.2320   81.5290  223.8500 C   0  0  0  0  0  0  0  0  0  0  0  0
  143.2600   80.6710  223.5070 C   0  0  0  0  0  0  0  0  0  0  0  0
  142.9540   79.3910  223.0750 C   0  0  0  0  0  0  0  0  0  0  0  0
  141.6420   78.9900  222.9940 C   0  0  0  0  0  0  0  0  0  0  0  0
  141.3910   77.7340  222.5690 N   0  0  0  0  0  0  0  0  0  0  0  0
  141.7920   75.6620  221.1770 H   0  0  0  0  0  0  0  0  0  0  0  0
  139.7831   73.3895  221.4298 H   0  0  0  0  0  0  0  0  0  0  0  0
  140.3427   73.8361  219.7874 H   0  0  0  0  0  0  0  0  0  0  0  0
  143.5819   71.2583  220.0954 H   0  0  0  0  0  0  0  0  0  0  0  0
  143.8940   72.2518  218.7364 H   0  0  0  0  0  0  0  0  0  0  0  0
  145.3639   72.3780  221.5629 H   0  0  0  0  0  0  0  0  0  0  0  0
  146.7170   71.4090  220.6010 H   0  0  0  0  0  0  0  0  0  0  0  0
  145.9005   74.7052  220.8862 H   0  0  0  0  0  0  0  0  0  0  0  0
  145.5535   74.3860  219.1809 H   0  0  0  0  0  0  0  0  0  0  0  0
  143.6599   75.2445  221.3219 H   0  0  0  0  0  0  0  0  0  0  0  0
  144.0844   75.4693  218.5189 H   0  0  0  0  0  0  0  0  0  0  0  0
  142.3939   74.7818  218.8902 H   0  0  0  0  0  0  0  0  0  0  0  0
  143.2286   79.0264  219.9070 H   0  0  0  0  0  0  0  0  0  0  0  0
  141.6419   80.8612  219.7991 H   0  0  0  0  0  0  0  0  0  0  0  0
  139.2856   80.4550  219.1783 H   0  0  0  0  0  0  0  0  0  0  0  0
  138.5469   78.1471  218.6657 H   0  0  0  0  0  0  0  0  0  0  0  0
  140.1367   76.2961  218.7714 H   0  0  0  0  0  0  0  0  0  0  0  0
  138.0740   77.7578  222.7236 H   0  0  0  0  0  0  0  0  0  0  0  0
  138.4737   80.0602  223.5052 H   0  0  0  0  0  0  0  0  0  0  0  0
  140.0990   81.8612  224.0603 H   0  0  0  0  0  0  0  0  0  0  0  0
  142.4836   82.5441  224.1911 H   0  0  0  0  0  0  0  0  0  0  0  0
  144.3073   81.0003  223.5762 H   0  0  0  0  0  0  0  0  0  0  0  0
  143.7602   78.6962  222.7971 H   0  0  0  0  0  0  0  0  0  0  0  0
  1  2  2  0
  2  3  1  0
  3  4  1  0
  4  5  1  0
  5  6  2  0
  5  7  1  0
  7  8  1  0
  8  9  1  0
  9 10  1  0
  9 11  1  0
 11 12  1  0
 12 13  1  0
 13 14  1  0
 14 15  1  0
 15 16  2  0
 16 17  1  0
 17 18  2  0
 18 19  1  0
 19 20  2  0
  2 21  1  0
 21 22  2  0
 22 23  1  0
 23 24  2  0
 24 25  1  0
 25 26  2  0
 26 27  1  0
 27 28  2  0
 28 29  1  0
 29 30  2  0
 12  7  1  0
 20 15  1  0
 30 21  1  0
 29 24  1  0
  3 31  1  0
  4 32  1  0
  4 33  1  0
  8 34  1  0
  8 35  1  0
  9 36  1  1
 10 37  1  0
 11 38  1  0
 11 39  1  0
 12 40  1  1
 13 41  1  0
 13 42  1  0
 16 43  1  0
 17 44  1  0
 18 45  1  0
 19 46  1  0
 20 47  1  0
 22 48  1  0
 23 49  1  0
 25 50  1  0
 26 51  1  0
 27 52  1  0
 28 53  1  0
M  END
>  <smiles>  (1) 
O=C(NCC(=O)N1C[C@@H](O)C[C@H]1COc1ccccc1)c1ccc2ccccc2n1

>  <score_type>  (1) 
oracle

>  <origin>  (1) 
autodockgpu

>  <m_score__min__energy>  (1) 
-9.0899999999999999

>  <m_primary>  (1) 
energy

>  <rmsd>  (1) 
7.772421093322938

>  <m_score__min__rmsd>  (1) 
7.772421093322938

>  <meeko>  (1) 
{"free_energy": -6.84, "intermolecular_energy": -9.23, "internal_energy": -3.61, "cluster_size": 24, "cluster_id": 4, "rank_in_cluster": 11}

>  <energy>  (1) 
-9.09

>  <cluster_rmsd>  (1) 
0.0

>  <cluster>  (1) 
1

$$$$

     RDKit          3D

 53 56  0  0  0  0  0  0  0  0999 V2000
  138.8610   75.1030  222.3370 O   0  0  0  0  0  0  0  0  0  0  0  0
  139.9860   75.6390  222.1360 C   0  0  0  0  0  0  0  0  0  0  0  0
  141.1020   74.9220  221.6130 N   0  0  0  0  0  0  0  0  0  0  0  0
  140.9460   73.4960  221.2910 C   0  0  0  0  0  0  0  0  0  0  0  0
  141.7470   73.1870  220.0880 C   0  0  0  0  0  0  0  0  0  0  0  0
  141.1930   72.6230  219.1110 O   0  0  0  0  0  0  0  0  0  0  0  0
  143.1320   73.4850  219.9500 N   0  0  0  0  0  0  0  0  0  0  0  0
  144.0250   72.6190  219.1900 C   0  0  0  0  0  0  0  0  0  0  0  0
  145.1750   72.5830  220.2270 C   0  0  1  0  0  0  0  0  0  0  0  0
  146.3210   72.0310  219.7200 O   0  0  0  0  0  0  0  0  0  0  0  0
  145.2970   74.1000  220.4660 C   0  0  0  0  0  0  0  0  0  0  0  0
  143.8720   74.6250  220.5090 C   0  0  1  0  0  0  0  0  0  0  0  0
  143.7010   75.8010  219.5580 C   0  0  0  0  0  0  0  0  0  0  0  0
  142.6420   76.5570  219.7010 O   0  0  0  0  0  0  0  0  0  0  0  0
  141.8700   77.5390  219.3300 C   0  0  0  0  0  0  0  0  0  0  0  0
  142.5130   78.7350  218.9080 C   0  0  0  0  0  0  0  0  0  0  0  0
  141.8340   79.8370  218.4960 C   0  0  0  0  0  0  0  0  0  0  0  0
  140.4670   79.8410  218.4690 C   0  0  0  0  0  0  0  0  0  0  0  0
  139.7910   78.7190  218.8640 C   0  0  0  0  0  0  0  0  0  0  0  0
  140.4900   77.6100  219.2780 C   0  0  0  0  0  0  0  0  0  0  0  0
  140.1530   77.0540  222.4530 C   0  0  0  0  0  0  0  0  0  0  0  0
  139.0630   77.8830  222.6110 C   0  0  0  0  0  0  0  0  0  0  0  0
  139.1690   79.2260  222.9100 C   0  0  0  0  0  0  0  0  0  0  0  0
  140.4360   79.7740  223.0600 C   0  0  0  0  0  0  0  0  0  0  0  0
  140.6060   81.1240  223.3630 C   0  0  0  0  0  0  0  0  0  0  0  0
  141.9030   81.5750  223.4920 C   0  0  0  0  0  0  0  0  0  0  0  0
  142.9990   80.7480  223.3360 C   0  0  0  0  0  0  0  0  0  0  0  0
  142.7980   79.4110  223.0360 C   0  0  0  0  0  0  0  0  0  0  0  0
  141.5210   78.9240  222.8980 C   0  0  0  0  0  0  0  0  0  0  0  0
  141.3720   77.6150  222.6060 N   0  0  0  0  0  0  0  0  0  0  0  0
  141.9900   75.4340  221.4770 H   0  0  0  0  0  0  0  0  0  0  0  0
  141.2981   72.8859  222.1359 H   0  0  0  0  0  0  0  0  0  0  0  0
  139.8862   73.2703  221.1015 H   0  0  0  0  0  0  0  0  0  0  0  0
  143.5921   71.6246  219.0062 H   0  0  0  0  0  0  0  0  0  0  0  0
  144.2867   72.9496  218.1740 H   0  0  0  0  0  0  0  0  0  0  0  0
  144.9991   71.9701  221.1234 H   0  0  0  0  0  0  0  0  0  0  0  0
  146.7250   71.4590  220.4220 H   0  0  0  0  0  0  0  0  0  0  0  0
  145.8077   74.2982  221.4199 H   0  0  0  0  0  0  0  0  0  0  0  0
  145.8864   74.5894  219.6767 H   0  0  0  0  0  0  0  0  0  0  0  0
  143.5605   74.9622  221.5086 H   0  0  0  0  0  0  0  0  0  0  0  0
  144.5831   76.4477  219.6753 H   0  0  0  0  0  0  0  0  0  0  0  0
  143.5771   75.3383  218.5678 H   0  0  0  0  0  0  0  0  0  0  0  0
  143.6124   78.7695  218.9155 H   0  0  0  0  0  0  0  0  0  0  0  0
  142.3885   80.7335  218.1815 H   0  0  0  0  0  0  0  0  0  0  0  0
  139.9184   80.7338  218.1344 H   0  0  0  0  0  0  0  0  0  0  0  0
  138.6912   78.7043  218.8504 H   0  0  0  0  0  0  0  0  0  0  0  0
  139.9159   76.7241  219.5871 H   0  0  0  0  0  0  0  0  0  0  0  0
  138.0578   77.4522  222.4927 H   0  0  0  0  0  0  0  0  0  0  0  0
  138.2697   79.8486  223.0269 H   0  0  0  0  0  0  0  0  0  0  0  0
  139.7463   81.7978  223.4931 H   0  0  0  0  0  0  0  0  0  0  0  0
  142.0718   82.6359  223.7286 H   0  0  0  0  0  0  0  0  0  0  0  0
  144.0181   81.1465  223.4487 H   0  0  0  0  0  0  0  0  0  0  0  0
  143.6600   78.7397  222.9084 H   0  0  0  0  0  0  0  0  0  0  0  0
  1  2  2  0
  2  3  1  0
  3  4  1  0
  4  5  1  0
  5  6  2  0
  5  7  1  0
  7  8  1  0
  8  9  1  0
  9 10  1  0
  9 11  1  0
 11 12  1  0
 12 13  1  0
 13 14  1  0
 14 15  1  0
 15 16  2  0
 16 17  1  0
 17 18  2  0
 18 19  1  0
 19 20  2  0
  2 21  1  0
 21 22  2  0
 22 23  1  0
 23 24  2  0
 24 25  1  0
 25 26  2  0
 26 27  1  0
 27 28  2  0
 28 29  1  0
 29 30  2  0
 12  7  1  0
 20 15  1  0
 30 21  1  0
 29 24  1  0
  3 31  1  0
  4 32  1  0
  4 33  1  0
  8 34  1  0
  8 35  1  0
  9 36  1  1
 10 37  1  0
 11 38  1  0
 11 39  1  0
 12 40  1  1
 13 41  1  0
 13 42  1  0
 16 43  1  0
 17 44  1  0
 18 45  1  0
 19 46  1  0
 20 47  1  0
 22 48  1  0
 23 49  1  0
 25 50  1  0
 26 51  1  0
 27 52  1  0
 28 53  1  0
M  END
>  <smiles>  (2) 
O=C(NCC(=O)N1C[C@@H](O)C[C@H]1COc1ccccc1)c1ccc2ccccc2n1

>  <score_type>  (2) 
oracle

>  <origin>  (2) 
autodockgpu

>  <m_score__min__energy>  (2) 
-9.0899999999999999

>  <m_primary>  (2) 
energy

>  <rmsd>  (2) 
7.7536615431314795

>  <m_score__min__rmsd>  (2) 
7.7536615431314795

>  <meeko>  (2) 
{"free_energy": -6.87, "intermolecular_energy": -9.26, "internal_energy": -3.52, "cluster_size": 24, "cluster_id": 4, "rank_in_cluster": 10}

>  <energy>  (2) 
-9.06

>  <cluster_rmsd>  (2) 
0.19

>  <cluster>  (2) 
1

$$$$

     RDKit          3D

 53 56  0  0  0  0  0  0  0  0999 V2000
  140.6580   71.5350  221.3420 O   0  0  0  0  0  0  0  0  0  0  0  0
  140.0420   72.0370  222.3220 C   0  0  0  0  0  0  0  0  0  0  0  0
  139.3210   73.2650  222.2360 N   0  0  0  0  0  0  0  0  0  0  0  0
  139.2900   73.9850  220.9550 C   0  0  0  0  0  0  0  0  0  0  0  0
  139.1840   75.4360  221.2250 C   0  0  0  0  0  0  0  0  0  0  0  0
  138.0630   75.9230  221.5140 O   0  0  0  0  0  0  0  0  0  0  0  0
  140.2810   76.3410  221.1770 N   0  0  0  0  0  0  0  0  0  0  0  0
  141.0740   76.6380  222.3630 C   0  0  0  0  0  0  0  0  0  0  0  0
  141.1100   78.1760  222.1820 C   0  0  1  0  0  0  0  0  0  0  0  0
  142.0050   78.7820  223.0220 O   0  0  0  0  0  0  0  0  0  0  0  0
  141.5550   78.2080  220.7070 C   0  0  0  0  0  0  0  0  0  0  0  0
  140.7810   77.0960  220.0200 C   0  0  1  0  0  0  0  0  0  0  0  0
  141.7210   76.1860  219.2420 C   0  0  0  0  0  0  0  0  0  0  0  0
  142.1790   75.1180  219.8430 O   0  0  0  0  0  0  0  0  0  0  0  0
  143.1460   74.3120  220.1790 C   0  0  0  0  0  0  0  0  0  0  0  0
  144.4510   74.8710  220.2500 C   0  0  0  0  0  0  0  0  0  0  0  0
  145.5520   74.1480  220.5870 C   0  0  0  0  0  0  0  0  0  0  0  0
  145.4450   72.8170  220.8820 C   0  0  0  0  0  0  0  0  0  0  0  0
  144.2140   72.2220  220.8310 C   0  0  0  0  0  0  0  0  0  0  0  0
  143.1090   72.9640  220.4890 C   0  0  0  0  0  0  0  0  0  0  0  0
  140.0660   71.3300  223.5990 C   0  0  0  0  0  0  0  0  0  0  0  0
  139.5840   70.0440  223.7120 C   0  0  0  0  0  0  0  0  0  0  0  0
  139.5850   69.3350  224.8960 C   0  0  0  0  0  0  0  0  0  0  0  0
  140.0970   69.9460  226.0340 C   0  0  0  0  0  0  0  0  0  0  0  0
  140.1250   69.2790  227.2580 C   0  0  0  0  0  0  0  0  0  0  0  0
  140.6520   69.9690  228.3300 C   0  0  0  0  0  0  0  0  0  0  0  0
  141.1370   71.2590  228.2230 C   0  0  0  0  0  0  0  0  0  0  0  0
  141.0950   71.8940  226.9930 C   0  0  0  0  0  0  0  0  0  0  0  0
  140.5780   71.2410  225.9000 C   0  0  0  0  0  0  0  0  0  0  0  0
  140.5580   71.8990  224.7220 N   0  0  0  0  0  0  0  0  0  0  0  0
  138.8410   73.6090  223.0860 H   0  0  0  0  0  0  0  0  0  0  0  0
  140.2134   73.7801  220.3935 H   0  0  0  0  0  0  0  0  0  0  0  0
  138.4267   73.6519  220.3602 H   0  0  0  0  0  0  0  0  0  0  0  0
  140.5708   76.3349  223.2930 H   0  0  0  0  0  0  0  0  0  0  0  0
  142.0451   76.1283  222.4476 H   0  0  0  0  0  0  0  0  0  0  0  0
  140.1778   78.7128  222.4119 H   0  0  0  0  0  0  0  0  0  0  0  0
  142.9190   78.5860  222.6910 H   0  0  0  0  0  0  0  0  0  0  0  0
  141.3123   79.1806  220.2542 H   0  0  0  0  0  0  0  0  0  0  0  0
  142.6415   78.0679  220.6076 H   0  0  0  0  0  0  0  0  0  0  0  0
  140.0202   77.4632  219.3154 H   0  0  0  0  0  0  0  0  0  0  0  0
  141.1821   75.8501  218.3438 H   0  0  0  0  0  0  0  0  0  0  0  0
  142.6133   76.8032  219.0606 H   0  0  0  0  0  0  0  0  0  0  0  0
  144.5761   75.9397  220.0213 H   0  0  0  0  0  0  0  0  0  0  0  0
  146.5365   74.6375  220.6226 H   0  0  0  0  0  0  0  0  0  0  0  0
  146.3359   72.2331  221.1564 H   0  0  0  0  0  0  0  0  0  0  0  0
  144.1090   71.1519  221.0632 H   0  0  0  0  0  0  0  0  0  0  0  0
  142.1345   72.4546  220.4599 H   0  0  0  0  0  0  0  0  0  0  0  0
  139.1778   69.5578  222.8128 H   0  0  0  0  0  0  0  0  0  0  0  0
  139.1894   68.3094  224.9378 H   0  0  0  0  0  0  0  0  0  0  0  0
  139.7452   68.2521  227.3638 H   0  0  0  0  0  0  0  0  0  0  0  0
  140.6877   69.4720  229.3107 H   0  0  0  0  0  0  0  0  0  0  0  0
  141.5505   71.7740  229.1026 H   0  0  0  0  0  0  0  0  0  0  0  0
  141.4755   72.9210  226.8909 H   0  0  0  0  0  0  0  0  0  0  0  0
  1  2  2  0
  2  3  1  0
  3  4  1  0
  4  5  1  0
  5  6  2  0
  5  7  1  0
  7  8  1  0
  8  9  1  0
  9 10  1  0
  9 11  1  0
 11 12  1  0
 12 13  1  0
 13 14  1  0
 14 15  1  0
 15 16  2  0
 16 17  1  0
 17 18  2  0
 18 19  1  0
 19 20  2  0
  2 21  1  0
 21 22  2  0
 22 23  1  0
 23 24  2  0
 24 25  1  0
 25 26  2  0
 26 27  1  0
 27 28  2  0
 28 29  1  0
 29 30  2  0
 12  7  1  0
 20 15  1  0
 30 21  1  0
 29 24  1  0
  3 31  1  0
  4 32  1  0
  4 33  1  0
  8 34  1  0
  8 35  1  0
  9 36  1  6
 10 37  1  0
 11 38  1  0
 11 39  1  0
 12 40  1  6
 13 41  1  0
 13 42  1  0
 16 43  1  0
 17 44  1  0
 18 45  1  0
 19 46  1  0
 20 47  1  0
 22 48  1  0
 23 49  1  0
 25 50  1  0
 26 51  1  0
 27 52  1  0
 28 53  1  0
M  END
>  <smiles>  (3) 
O=C(NCC(=O)N1C[C@@H](O)C[C@H]1COc1ccccc1)c1ccc2ccccc2n1

>  <score_type>  (3) 
oracle

>  <origin>  (3) 
autodockgpu

>  <m_score__min__energy>  (3) 
-9.0899999999999999

>  <m_primary>  (3) 
energy

>  <rmsd>  (3) 
2.469725427596703

>  <m_score__min__rmsd>  (3) 
2.469725427596703

>  <meeko>  (3) 
{"free_energy": -8.46, "intermolecular_energy": -10.85, "internal_energy": -1.97, "cluster_size": 9, "cluster_id": 3, "rank_in_cluster": 1}

>  <energy>  (3) 
-9.05

>  <cluster_rmsd>  (3) 
0.18

>  <cluster>  (3) 
1

$$$$

     RDKit          3D

 53 56  0  0  0  0  0  0  0  0999 V2000
  138.7380   75.4540  221.9860 O   0  0  0  0  0  0  0  0  0  0  0  0
  139.9290   75.8630  222.0700 C   0  0  0  0  0  0  0  0  0  0  0  0
  141.0540   75.0310  221.7940 N   0  0  0  0  0  0  0  0  0  0  0  0
  140.8260   73.6350  221.3940 C   0  0  0  0  0  0  0  0  0  0  0  0
  141.6630   73.3340  220.2120 C   0  0  0  0  0  0  0  0  0  0  0  0
  141.1610   72.6970  219.2530 O   0  0  0  0  0  0  0  0  0  0  0  0
  143.0270   73.7180  220.0790 N   0  0  0  0  0  0  0  0  0  0  0  0
  144.0740   72.7340  219.8320 C   0  0  0  0  0  0  0  0  0  0  0  0
  145.0810   73.2700  220.8800 C   0  0  1  0  0  0  0  0  0  0  0  0
  146.3220   72.7050  220.7510 O   0  0  0  0  0  0  0  0  0  0  0  0
  145.0530   74.7540  220.4670 C   0  0  0  0  0  0  0  0  0  0  0  0
  143.5980   75.0690  220.1650 C   0  0  1  0  0  0  0  0  0  0  0  0
  143.4600   75.7210  218.7970 C   0  0  0  0  0  0  0  0  0  0  0  0
  142.6570   76.7480  218.6840 O   0  0  0  0  0  0  0  0  0  0  0  0
  142.3750   78.0100  218.8400 C   0  0  0  0  0  0  0  0  0  0  0  0
  142.9130   78.9110  217.8800 C   0  0  0  0  0  0  0  0  0  0  0  0
  142.7000   80.2530  217.9190 C   0  0  0  0  0  0  0  0  0  0  0  0
  141.9380   80.8060  218.9110 C   0  0  0  0  0  0  0  0  0  0  0  0
  141.3920   79.9900  219.8640 C   0  0  0  0  0  0  0  0  0  0  0  0
  141.6150   78.6350  219.8130 C   0  0  0  0  0  0  0  0  0  0  0  0
  140.1670   77.2470  222.4680 C   0  0  0  0  0  0  0  0  0  0  0  0
  139.1190   78.1110  222.7060 C   0  0  0  0  0  0  0  0  0  0  0  0
  139.2930   79.4270  223.0840 C   0  0  0  0  0  0  0  0  0  0  0  0
  140.5870   79.9090  223.2320 C   0  0  0  0  0  0  0  0  0  0  0  0
  140.8240   81.2290  223.6120 C   0  0  0  0  0  0  0  0  0  0  0  0
  142.1430   81.6150  223.7320 C   0  0  0  0  0  0  0  0  0  0  0  0
  143.1970   80.7530  223.4950 C   0  0  0  0  0  0  0  0  0  0  0  0
  142.9290   79.4480  223.1190 C   0  0  0  0  0  0  0  0  0  0  0  0
  141.6280   79.0250  222.9880 C   0  0  0  0  0  0  0  0  0  0  0  0
  141.4140   77.7440  222.6210 N   0  0  0  0  0  0  0  0  0  0  0  0
  141.9980   75.4420  221.8860 H   0  0  0  0  0  0  0  0  0  0  0  0
  141.1001   72.9640  222.2214 H   0  0  0  0  0  0  0  0  0  0  0  0
  139.7644   73.4859  221.1474 H   0  0  0  0  0  0  0  0  0  0  0  0
  143.7466   71.7065  220.0490 H   0  0  0  0  0  0  0  0  0  0  0  0
  144.4368   72.6478  218.7971 H   0  0  0  0  0  0  0  0  0  0  0  0
  144.8399   73.0625  221.9330 H   0  0  0  0  0  0  0  0  0  0  0  0
  146.3030   71.8160  221.1890 H   0  0  0  0  0  0  0  0  0  0  0  0
  145.4202   75.3876  221.2878 H   0  0  0  0  0  0  0  0  0  0  0  0
  145.6989   74.9458  219.5975 H   0  0  0  0  0  0  0  0  0  0  0  0
  143.1350   75.7448  220.8991 H   0  0  0  0  0  0  0  0  0  0  0  0
  144.4626   76.0545  218.4910 H   0  0  0  0  0  0  0  0  0  0  0  0
  143.0023   74.9439  218.1673 H   0  0  0  0  0  0  0  0  0  0  0  0
  143.5311   78.5023  217.0670 H   0  0  0  0  0  0  0  0  0  0  0  0
  143.1438   80.8989  217.1471 H   0  0  0  0  0  0  0  0  0  0  0  0
  141.7664   81.8921  218.9423 H   0  0  0  0  0  0  0  0  0  0  0  0
  140.7761   80.4175  220.6689 H   0  0  0  0  0  0  0  0  0  0  0  0
  141.1610   78.0080  220.5945 H   0  0  0  0  0  0  0  0  0  0  0  0
  138.0929   77.7324  222.5887 H   0  0  0  0  0  0  0  0  0  0  0  0
  138.4260   80.0796  223.2640 H   0  0  0  0  0  0  0  0  0  0  0  0
  139.9986   81.9295  223.8069 H   0  0  0  0  0  0  0  0  0  0  0  0
  142.3648   82.6508  224.0283 H   0  0  0  0  0  0  0  0  0  0  0  0
  144.2354   81.0994  223.6037 H   0  0  0  0  0  0  0  0  0  0  0  0
  143.7568   78.7500  222.9252 H   0  0  0  0  0  0  0  0  0  0  0  0
  1  2  2  0
  2  3  1  0
  3  4  1  0
  4  5  1  0
  5  6  2  0
  5  7  1  0
  7  8  1  0
  8  9  1  0
  9 10  1  0
  9 11  1  0
 11 12  1  0
 12 13  1  0
 13 14  1  0
 14 15  1  0
 15 16  2  0
 16 17  1  0
 17 18  2  0
 18 19  1  0
 19 20  2  0
  2 21  1  0
 21 22  2  0
 22 23  1  0
 23 24  2  0
 24 25  1  0
 25 26  2  0
 26 27  1  0
 27 28  2  0
 28 29  1  0
 29 30  2  0
 12  7  1  0
 20 15  1  0
 30 21  1  0
 29 24  1  0
  3 31  1  0
  4 32  1  0
  4 33  1  0
  8 34  1  0
  8 35  1  0
  9 36  1  1
 10 37  1  0
 11 38  1  0
 11 39  1  0
 12 40  1  1
 13 41  1  0
 13 42  1  0
 16 43  1  0
 17 44  1  0
 18 45  1  0
 19 46  1  0
 20 47  1  0
 22 48  1  0
 23 49  1  0
 25 50  1  0
 26 51  1  0
 27 52  1  0
 28 53  1  0
M  END
>  <smiles>  (4) 
O=C(NCC(=O)N1C[C@@H](O)C[C@H]1COc1ccccc1)c1ccc2ccccc2n1

>  <score_type>  (4) 
oracle

>  <origin>  (4) 
autodockgpu

>  <m_score__min__energy>  (4) 
-9.0899999999999999

>  <m_primary>  (4) 
energy

>  <rmsd>  (4) 
7.759888955997397

>  <m_score__min__rmsd>  (4) 
7.759888955997397

>  <meeko>  (4) 
{"free_energy": -7.43, "intermolecular_energy": -9.81, "internal_energy": -2.6, "cluster_size": 24, "cluster_id": 4, "rank_in_cluster": 6}

>  <energy>  (4) 
-8.94

>  <cluster_rmsd>  (4) 
0.27

>  <cluster>  (4) 
1

$$$$

     RDKit          3D

 53 56  0  0  0  0  0  0  0  0999 V2000
  140.9030   71.4620  221.4130 O   0  0  0  0  0  0  0  0  0  0  0  0
  140.3490   72.0410  222.3880 C   0  0  0  0  0  0  0  0  0  0  0  0
  139.8560   73.3770  222.3160 N   0  0  0  0  0  0  0  0  0  0  0  0
  139.9950   74.1210  221.0560 C   0  0  0  0  0  0  0  0  0  0  0  0
  140.3700   75.5180  221.3640 C   0  0  0  0  0  0  0  0  0  0  0  0
  140.1910   75.9580  222.5270 O   0  0  0  0  0  0  0  0  0  0  0  0
  140.9310   76.4230  220.4200 N   0  0  0  0  0  0  0  0  0  0  0  0
  141.8530   77.4750  220.8290 C   0  0  0  0  0  0  0  0  0  0  0  0
  141.2020   78.6200  220.0140 C   0  0  1  0  0  0  0  0  0  0  0  0
  141.9810   79.7450  219.9750 O   0  0  0  0  0  0  0  0  0  0  0  0
  141.1230   77.8980  218.6540 C   0  0  0  0  0  0  0  0  0  0  0  0
  140.7020   76.4730  218.9690 C   0  0  1  0  0  0  0  0  0  0  0  0
  141.6460   75.4750  218.3140 C   0  0  0  0  0  0  0  0  0  0  0  0
  142.2580   74.6120  219.0840 O   0  0  0  0  0  0  0  0  0  0  0  0
  143.2990   74.1980  219.7480 C   0  0  0  0  0  0  0  0  0  0  0  0
  143.3050   72.8320  220.1460 C   0  0  0  0  0  0  0  0  0  0  0  0
  144.3250   72.2660  220.8420 C   0  0  0  0  0  0  0  0  0  0  0  0
  145.4180   73.0060  221.1990 C   0  0  0  0  0  0  0  0  0  0  0  0
  145.4710   74.3270  220.8450 C   0  0  0  0  0  0  0  0  0  0  0  0
  144.4330   74.8880  220.1400 C   0  0  0  0  0  0  0  0  0  0  0  0
  140.2070   71.3120  223.6440 C   0  0  0  0  0  0  0  0  0  0  0  0
  139.5770   70.0870  223.6910 C   0  0  0  0  0  0  0  0  0  0  0  0
  139.4170   69.3600  224.8530 C   0  0  0  0  0  0  0  0  0  0  0  0
  139.9150   69.8860  226.0380 C   0  0  0  0  0  0  0  0  0  0  0  0
  139.7840   69.1970  227.2430 C   0  0  0  0  0  0  0  0  0  0  0  0
  140.3110   69.8010  228.3650 C   0  0  0  0  0  0  0  0  0  0  0  0
  140.9440   71.0290  228.3250 C   0  0  0  0  0  0  0  0  0  0  0  0
  141.0580   71.6880  227.1120 C   0  0  0  0  0  0  0  0  0  0  0  0
  140.5470   71.1200  225.9710 C   0  0  0  0  0  0  0  0  0  0  0  0
  140.6810   71.7980  224.8120 N   0  0  0  0  0  0  0  0  0  0  0  0
  139.4140   73.7800  223.1600 H   0  0  0  0  0  0  0  0  0  0  0  0
  140.7769   73.6566  220.4372 H   0  0  0  0  0  0  0  0  0  0  0  0
  139.0428   74.1032  220.5055 H   0  0  0  0  0  0  0  0  0  0  0  0
  141.8258   77.6611  221.9128 H   0  0  0  0  0  0  0  0  0  0  0  0
  142.9227   77.2898  220.6518 H   0  0  0  0  0  0  0  0  0  0  0  0
  140.2507   79.0112  220.4038 H   0  0  0  0  0  0  0  0  0  0  0  0
  142.7380   79.6170  220.6020 H   0  0  0  0  0  0  0  0  0  0  0  0
  140.3791   78.3831  218.0049 H   0  0  0  0  0  0  0  0  0  0  0  0
  142.0850   77.9288  218.1215 H   0  0  0  0  0  0  0  0  0  0  0  0
  139.6832   76.2327  218.6310 H   0  0  0  0  0  0  0  0  0  0  0  0
  141.0588   74.9013  217.5818 H   0  0  0  0  0  0  0  0  0  0  0  0
  142.4546   76.0939  217.8979 H   0  0  0  0  0  0  0  0  0  0  0  0
  142.4425   72.2044  219.8773 H   0  0  0  0  0  0  0  0  0  0  0  0
  144.2712   71.2033  221.1208 H   0  0  0  0  0  0  0  0  0  0  0  0
  146.2430   72.5461  221.7628 H   0  0  0  0  0  0  0  0  0  0  0  0
  146.3420   74.9381  221.1240 H   0  0  0  0  0  0  0  0  0  0  0  0
  144.5082   75.9518  219.8705 H   0  0  0  0  0  0  0  0  0  0  0  0
  139.1815   69.6673  222.7543 H   0  0  0  0  0  0  0  0  0  0  0  0
  138.9065   68.3857  224.8410 H   0  0  0  0  0  0  0  0  0  0  0  0
  139.2842   68.2185  227.2961 H   0  0  0  0  0  0  0  0  0  0  0  0
  140.2240   69.2840  229.3320 H   0  0  0  0  0  0  0  0  0  0  0  0
  141.3515   71.4767  229.2434 H   0  0  0  0  0  0  0  0  0  0  0  0
  141.5580   72.6666  227.0627 H   0  0  0  0  0  0  0  0  0  0  0  0
  1  2  2  0
  2  3  1  0
  3  4  1  0
  4  5  1  0
  5  6  2  0
  5  7  1  0
  7  8  1  0
  8  9  1  0
  9 10  1  0
  9 11  1  0
 11 12  1  0
 12 13  1  0
 13 14  1  0
 14 15  1  0
 15 16  2  0
 16 17  1  0
 17 18  2  0
 18 19  1  0
 19 20  2  0
  2 21  1  0
 21 22  2  0
 22 23  1  0
 23 24  2  0
 24 25  1  0
 25 26  2  0
 26 27  1  0
 27 28  2  0
 28 29  1  0
 29 30  2  0
 12  7  1  0
 20 15  1  0
 30 21  1  0
 29 24  1  0
  3 31  1  0
  4 32  1  0
  4 33  1  0
  8 34  1  0
  8 35  1  0
  9 36  1  1
 10 37  1  0
 11 38  1  0
 11 39  1  0
 12 40  1  1
 13 41  1  0
 13 42  1  0
 16 43  1  0
 17 44  1  0
 18 45  1  0
 19 46  1  0
 20 47  1  0
 22 48  1  0
 23 49  1  0
 25 50  1  0
 26 51  1  0
 27 52  1  0
 28 53  1  0
M  END
>  <smiles>  (5) 
O=C(NCC(=O)N1C[C@@H](O)C[C@H]1COc1ccccc1)c1ccc2ccccc2n1

>  <score_type>  (5) 
oracle

>  <origin>  (5) 
autodockgpu

>  <m_score__min__energy>  (5) 
-9.0899999999999999

>  <m_primary>  (5) 
energy

>  <rmsd>  (5) 
2.2278530026087506

>  <m_score__min__rmsd>  (5) 
2.2278530026087506

>  <meeko>  (5) 
{"free_energy": -7.95, "intermolecular_energy": -10.33, "internal_energy": -2.35, "cluster_size": 9, "cluster_id": 3, "rank_in_cluster": 6}

>  <energy>  (5) 
-8.94

>  <cluster_rmsd>  (5) 
0.41

>  <cluster>  (5) 
1

$$$$

     RDKit          3D

 53 56  0  0  0  0  0  0  0  0999 V2000
  140.7270   71.4610  221.3270 O   0  0  0  0  0  0  0  0  0  0  0  0
  140.2290   72.0520  222.3240 C   0  0  0  0  0  0  0  0  0  0  0  0
  139.7320   73.3880  222.2630 N   0  0  0  0  0  0  0  0  0  0  0  0
  139.8010   74.1160  220.9880 C   0  0  0  0  0  0  0  0  0  0  0  0
  140.7540   75.2390  221.1290 C   0  0  0  0  0  0  0  0  0  0  0  0
  140.7270   75.9360  222.1730 O   0  0  0  0  0  0  0  0  0  0  0  0
  141.7190   75.5970  220.1470 N   0  0  0  0  0  0  0  0  0  0  0  0
  141.9860   74.7440  218.9960 C   0  0  0  0  0  0  0  0  0  0  0  0
  143.5320   74.8070  219.0720 C   0  0  1  0  0  0  0  0  0  0  0  0
  144.1340   74.2900  217.9560 O   0  0  0  0  0  0  0  0  0  0  0  0
  143.6790   76.3370  219.1770 C   0  0  0  0  0  0  0  0  0  0  0  0
  142.5710   76.7940  220.1100 C   0  0  1  0  0  0  0  0  0  0  0  0
  141.7640   77.9190  219.4780 C   0  0  0  0  0  0  0  0  0  0  0  0
  141.5440   78.9930  220.1930 O   0  0  0  0  0  0  0  0  0  0  0  0
  141.6970   79.7100  221.2700 C   0  0  0  0  0  0  0  0  0  0  0  0
  142.0140   79.0110  222.4670 C   0  0  0  0  0  0  0  0  0  0  0  0
  142.2010   79.6310  223.6620 C   0  0  0  0  0  0  0  0  0  0  0  0
  142.0900   80.9900  223.7640 C   0  0  0  0  0  0  0  0  0  0  0  0
  141.7880   81.7180  222.6460 C   0  0  0  0  0  0  0  0  0  0  0  0
  141.6010   81.0800  221.4440 C   0  0  0  0  0  0  0  0  0  0  0  0
  140.1560   71.3390  223.5960 C   0  0  0  0  0  0  0  0  0  0  0  0
  139.6050   70.0780  223.6760 C   0  0  0  0  0  0  0  0  0  0  0  0
  139.5130   69.3640  224.8540 C   0  0  0  0  0  0  0  0  0  0  0  0
  140.0000   69.9430  226.0190 C   0  0  0  0  0  0  0  0  0  0  0  0
  139.9350   69.2700  227.2380 C   0  0  0  0  0  0  0  0  0  0  0  0
  140.4440   69.9260  228.3390 C   0  0  0  0  0  0  0  0  0  0  0  0
  140.9980   71.1900  228.2650 C   0  0  0  0  0  0  0  0  0  0  0  0
  141.0470   71.8330  227.0390 C   0  0  0  0  0  0  0  0  0  0  0  0
  140.5510   71.2130  225.9180 C   0  0  0  0  0  0  0  0  0  0  0  0
  140.6210   71.8760  224.7450 N   0  0  0  0  0  0  0  0  0  0  0  0
  139.3380   73.8020  223.1250 H   0  0  0  0  0  0  0  0  0  0  0  0
  140.1447   73.4374  220.1934 H   0  0  0  0  0  0  0  0  0  0  0  0
  138.8053   74.5026  220.7249 H   0  0  0  0  0  0  0  0  0  0  0  0
  141.5990   73.7230  219.1296 H   0  0  0  0  0  0  0  0  0  0  0  0
  141.5264   75.0440  218.0427 H   0  0  0  0  0  0  0  0  0  0  0  0
  144.0011   74.2244  219.8786 H   0  0  0  0  0  0  0  0  0  0  0  0
  144.8750   74.8950  217.6970 H   0  0  0  0  0  0  0  0  0  0  0  0
  144.6630   76.6000  219.5925 H   0  0  0  0  0  0  0  0  0  0  0  0
  143.6048   76.8203  218.1916 H   0  0  0  0  0  0  0  0  0  0  0  0
  142.9388   77.1576  221.0809 H   0  0  0  0  0  0  0  0  0  0  0  0
  142.2979   78.2344  218.5694 H   0  0  0  0  0  0  0  0  0  0  0  0
  140.7657   77.4855  219.3183 H   0  0  0  0  0  0  0  0  0  0  0  0
  142.1126   77.9163  222.4238 H   0  0  0  0  0  0  0  0  0  0  0  0
  142.4435   79.0348  224.5540 H   0  0  0  0  0  0  0  0  0  0  0  0
  142.2414   81.4909  224.7316 H   0  0  0  0  0  0  0  0  0  0  0  0
  141.6951   82.8122  222.7094 H   0  0  0  0  0  0  0  0  0  0  0  0
  141.3600   81.6960  220.5651 H   0  0  0  0  0  0  0  0  0  0  0  0
  139.2191   69.6173  222.7547 H   0  0  0  0  0  0  0  0  0  0  0  0
  139.0644   68.3598  224.8697 H   0  0  0  0  0  0  0  0  0  0  0  0
  139.4984   68.2635  227.3179 H   0  0  0  0  0  0  0  0  0  0  0  0
  140.4076   69.4225  229.3164 H   0  0  0  0  0  0  0  0  0  0  0  0
  141.3946   71.6787  229.1672 H   0  0  0  0  0  0  0  0  0  0  0  0
  141.4831   72.8400  226.9631 H   0  0  0  0  0  0  0  0  0  0  0  0
  1  2  2  0
  2  3  1  0
  3  4  1  0
  4  5  1  0
  5  6  2  0
  5  7  1  0
  7  8  1  0
  8  9  1  0
  9 10  1  0
  9 11  1  0
 11 12  1  0
 12 13  1  0
 13 14  1  0
 14 15  1  0
 15 16  2  0
 16 17  1  0
 17 18  2  0
 18 19  1  0
 19 20  2  0
  2 21  1  0
 21 22  2  0
 22 23  1  0
 23 24  2  0
 24 25  1  0
 25 26  2  0
 26 27  1  0
 27 28  2  0
 28 29  1  0
 29 30  2  0
 12  7  1  0
 20 15  1  0
 30 21  1  0
 29 24  1  0
  3 31  1  0
  4 32  1  0
  4 33  1  0
  8 34  1  0
  8 35  1  0
  9 36  1  1
 10 37  1  0
 11 38  1  0
 11 39  1  0
 12 40  1  1
 13 41  1  0
 13 42  1  0
 16 43  1  0
 17 44  1  0
 18 45  1  0
 19 46  1  0
 20 47  1  0
 22 48  1  0
 23 49  1  0
 25 50  1  0
 26 51  1  0
 27 52  1  0
 28 53  1  0
M  END
>  <smiles>  (6) 
O=C(NCC(=O)N1C[C@@H](O)C[C@H]1COc1ccccc1)c1ccc2ccccc2n1

>  <score_type>  (6) 
oracle

>  <origin>  (6) 
autodockgpu

>  <m_score__min__energy>  (6) 
-9.0899999999999999

>  <m_primary>  (6) 
energy

>  <rmsd>  (6) 
2.0658977870491793

>  <m_score__min__rmsd>  (6) 
2.0658977870491793

>  <meeko>  (6) 
{"free_energy": -9.06, "intermolecular_energy": -11.44, "internal_energy": -1.56, "cluster_size": 13, "cluster_id": 1, "rank_in_cluster": 2}

>  <energy>  (6) 
-8.78

>  <cluster_rmsd>  (6) 
1.92

>  <cluster>  (6) 
1

$$$$

     RDKit          3D

 53 56  0  0  0  0  0  0  0  0999 V2000
  141.1240   71.8070  221.3460 O   0  0  0  0  0  0  0  0  0  0  0  0
  140.5110   72.3270  222.3180 C   0  0  0  0  0  0  0  0  0  0  0  0
  140.0460   73.6750  222.3080 N   0  0  0  0  0  0  0  0  0  0  0  0
  140.2860   74.5020  221.1170 C   0  0  0  0  0  0  0  0  0  0  0  0
  140.2790   75.9270  221.5140 C   0  0  0  0  0  0  0  0  0  0  0  0
  139.5740   76.2870  222.4890 O   0  0  0  0  0  0  0  0  0  0  0  0
  141.0280   76.9440  220.8590 N   0  0  0  0  0  0  0  0  0  0  0  0
  141.7870   77.9350  221.6110 C   0  0  0  0  0  0  0  0  0  0  0  0
  141.3220   79.1750  220.8080 C   0  0  1  0  0  0  0  0  0  0  0  0
  142.0520   80.2950  221.1040 O   0  0  0  0  0  0  0  0  0  0  0  0
  141.6050   78.6320  219.3930 C   0  0  0  0  0  0  0  0  0  0  0  0
  141.1630   77.1790  219.4140 C   0  0  1  0  0  0  0  0  0  0  0  0
  142.2700   76.2710  218.8970 C   0  0  0  0  0  0  0  0  0  0  0  0
  142.7130   75.3300  219.6900 O   0  0  0  0  0  0  0  0  0  0  0  0
  143.5820   74.4170  220.0200 C   0  0  0  0  0  0  0  0  0  0  0  0
  144.8510   74.8740  220.4700 C   0  0  0  0  0  0  0  0  0  0  0  0
  145.8520   74.0340  220.8460 C   0  0  0  0  0  0  0  0  0  0  0  0
  145.6730   72.6790  220.8060 C   0  0  0  0  0  0  0  0  0  0  0  0
  144.4730   72.1790  220.3820 C   0  0  0  0  0  0  0  0  0  0  0  0
  143.4690   73.0390  220.0050 C   0  0  0  0  0  0  0  0  0  0  0  0
  140.2680   71.5150  223.5070 C   0  0  0  0  0  0  0  0  0  0  0  0
  139.5760   70.3260  223.4290 C   0  0  0  0  0  0  0  0  0  0  0  0
  139.3210   69.5240  224.5220 C   0  0  0  0  0  0  0  0  0  0  0  0
  139.7830   69.9330  225.7670 C   0  0  0  0  0  0  0  0  0  0  0  0
  139.5560   69.1640  226.9070 C   0  0  0  0  0  0  0  0  0  0  0  0
  140.0530   69.6540  228.0970 C   0  0  0  0  0  0  0  0  0  0  0  0
  140.7480   70.8460  228.1820 C   0  0  0  0  0  0  0  0  0  0  0  0
  140.9570   71.5860  227.0300 C   0  0  0  0  0  0  0  0  0  0  0  0
  140.4780   71.1330  225.8260 C   0  0  0  0  0  0  0  0  0  0  0  0
  140.7050   71.8870  224.7300 N   0  0  0  0  0  0  0  0  0  0  0  0
  139.5520   74.0270  223.1450 H   0  0  0  0  0  0  0  0  0  0  0  0
  141.2622   74.2453  220.6797 H   0  0  0  0  0  0  0  0  0  0  0  0
  139.4984   74.3189  220.3712 H   0  0  0  0  0  0  0  0  0  0  0  0
  141.4874   77.9814  222.6684 H   0  0  0  0  0  0  0  0  0  0  0  0
  142.8726   77.7734  221.6837 H   0  0  0  0  0  0  0  0  0  0  0  0
  140.2922   79.5141  220.9934 H   0  0  0  0  0  0  0  0  0  0  0  0
  143.0040   80.0320  221.1780 H   0  0  0  0  0  0  0  0  0  0  0  0
  141.0309   79.1967  218.6437 H   0  0  0  0  0  0  0  0  0  0  0  0
  142.6677   78.7291  219.1260 H   0  0  0  0  0  0  0  0  0  0  0  0
  140.2673   76.9854  218.8055 H   0  0  0  0  0  0  0  0  0  0  0  0
  141.8931   75.7813  217.9870 H   0  0  0  0  0  0  0  0  0  0  0  0
  143.1315   76.9405  218.7572 H   0  0  0  0  0  0  0  0  0  0  0  0
  145.0315   75.9581  220.5161 H   0  0  0  0  0  0  0  0  0  0  0  0
  146.8132   74.4477  221.1850 H   0  0  0  0  0  0  0  0  0  0  0  0
  146.4833   72.0004  221.1108 H   0  0  0  0  0  0  0  0  0  0  0  0
  144.3115   71.0916  220.3427 H   0  0  0  0  0  0  0  0  0  0  0  0
  142.5159   72.6036  219.6704 H   0  0  0  0  0  0  0  0  0  0  0  0
  139.2082   69.9997  222.4450 H   0  0  0  0  0  0  0  0  0  0  0  0
  138.7644   68.5818  224.4105 H   0  0  0  0  0  0  0  0  0  0  0  0
  139.0069   68.2120  226.8601 H   0  0  0  0  0  0  0  0  0  0  0  0
  139.8895   69.0722  229.0161 H   0  0  0  0  0  0  0  0  0  0  0  0
  141.1295   71.2016  229.1505 H   0  0  0  0  0  0  0  0  0  0  0  0
  141.5071   72.5372  227.0799 H   0  0  0  0  0  0  0  0  0  0  0  0
  1  2  2  0
  2  3  1  0
  3  4  1  0
  4  5  1  0
  5  6  2  0
  5  7  1  0
  7  8  1  0
  8  9  1  0
  9 10  1  0
  9 11  1  0
 11 12  1  0
 12 13  1  0
 13 14  1  0
 14 15  1  0
 15 16  2  0
 16 17  1  0
 17 18  2  0
 18 19  1  0
 19 20  2  0
  2 21  1  0
 21 22  2  0
 22 23  1  0
 23 24  2  0
 24 25  1  0
 25 26  2  0
 26 27  1  0
 27 28  2  0
 28 29  1  0
 29 30  2  0
 12  7  1  0
 20 15  1  0
 30 21  1  0
 29 24  1  0
  3 31  1  0
  4 32  1  0
  4 33  1  0
  8 34  1  0
  8 35  1  0
  9 36  1  6
 10 37  1  0
 11 38  1  0
 11 39  1  0
 12 40  1  6
 13 41  1  0
 13 42  1  0
 16 43  1  0
 17 44  1  0
 18 45  1  0
 19 46  1  0
 20 47  1  0
 22 48  1  0
 23 49  1  0
 25 50  1  0
 26 51  1  0
 27 52  1  0
 28 53  1  0
M  END
>  <smiles>  (7) 
O=C(NCC(=O)N1C[C@@H](O)C[C@H]1COc1ccccc1)c1ccc2ccccc2n1

>  <score_type>  (7) 
oracle

>  <origin>  (7) 
autodockgpu

>  <m_score__min__energy>  (7) 
-9.0899999999999999

>  <m_primary>  (7) 
energy

>  <rmsd>  (7) 
2.549151166037053

>  <m_score__min__rmsd>  (7) 
2.549151166037053

>  <meeko>  (7) 
{"free_energy": -8.23, "intermolecular_energy": -10.62, "internal_energy": -2.21, "cluster_size": 9, "cluster_id": 3, "rank_in_cluster": 2}

>  <energy>  (7) 
-8.65

>  <cluster_rmsd>  (7) 
1.34

>  <cluster>  (7) 
1

$$$$

     RDKit          3D

 53 56  0  0  0  0  0  0  0  0999 V2000
  141.3880   72.1260  221.7570 O   0  0  0  0  0  0  0  0  0  0  0  0
  140.3810   72.3320  222.4880 C   0  0  0  0  0  0  0  0  0  0  0  0
  139.4030   73.3280  222.1960 N   0  0  0  0  0  0  0  0  0  0  0  0
  139.5680   74.1570  220.9930 C   0  0  0  0  0  0  0  0  0  0  0  0
  140.6560   75.1310  221.2290 C   0  0  0  0  0  0  0  0  0  0  0  0
  140.7380   75.6980  222.3470 O   0  0  0  0  0  0  0  0  0  0  0  0
  141.6380   75.4830  220.2610 N   0  0  0  0  0  0  0  0  0  0  0  0
  141.8900   74.6480  219.0940 C   0  0  0  0  0  0  0  0  0  0  0  0
  143.4360   74.6670  219.1820 C   0  0  1  0  0  0  0  0  0  0  0  0
  144.0320   74.1570  218.0600 O   0  0  0  0  0  0  0  0  0  0  0  0
  143.6240   76.1900  219.3210 C   0  0  0  0  0  0  0  0  0  0  0  0
  142.5220   76.6570  220.2550 C   0  0  1  0  0  0  0  0  0  0  0  0
  141.7510   77.8170  219.6420 C   0  0  0  0  0  0  0  0  0  0  0  0
  141.5350   78.8720  220.3860 O   0  0  0  0  0  0  0  0  0  0  0  0
  141.6750   79.5510  221.4890 C   0  0  0  0  0  0  0  0  0  0  0  0
  141.4150   80.9470  221.4200 C   0  0  0  0  0  0  0  0  0  0  0  0
  141.5220   81.7760  222.4920 C   0  0  0  0  0  0  0  0  0  0  0  0
  141.8930   81.2880  223.7140 C   0  0  0  0  0  0  0  0  0  0  0  0
  142.1560   79.9510  223.8430 C   0  0  0  0  0  0  0  0  0  0  0  0
  142.0450   79.1230  222.7520 C   0  0  0  0  0  0  0  0  0  0  0  0
  140.2070   71.5150  223.6850 C   0  0  0  0  0  0  0  0  0  0  0  0
  139.5430   70.3090  223.6360 C   0  0  0  0  0  0  0  0  0  0  0  0
  139.3530   69.5010  224.7390 C   0  0  0  0  0  0  0  0  0  0  0  0
  139.8560   69.9240  225.9630 C   0  0  0  0  0  0  0  0  0  0  0  0
  139.6950   69.1510  227.1120 C   0  0  0  0  0  0  0  0  0  0  0  0
  140.2280   69.6550  228.2810 C   0  0  0  0  0  0  0  0  0  0  0  0
  140.8950   70.8640  228.3360 C   0  0  0  0  0  0  0  0  0  0  0  0
  141.0380   71.6080  227.1780 C   0  0  0  0  0  0  0  0  0  0  0  0
  140.5210   71.1410  225.9940 C   0  0  0  0  0  0  0  0  0  0  0  0
  140.6840   71.9000  224.8890 N   0  0  0  0  0  0  0  0  0  0  0  0
  138.6050   73.4350  222.8450 H   0  0  0  0  0  0  0  0  0  0  0  0
  139.8245   73.5172  220.1358 H   0  0  0  0  0  0  0  0  0  0  0  0
  138.6306   74.6901  220.7758 H   0  0  0  0  0  0  0  0  0  0  0  0
  141.4743   73.6354  219.2029 H   0  0  0  0  0  0  0  0  0  0  0  0
  141.4459   74.9807  218.1442 H   0  0  0  0  0  0  0  0  0  0  0  0
  143.8831   74.0550  219.9792 H   0  0  0  0  0  0  0  0  0  0  0  0
  144.8370   74.7010  217.8640 H   0  0  0  0  0  0  0  0  0  0  0  0
  144.6114   76.4170  219.7493 H   0  0  0  0  0  0  0  0  0  0  0  0
  143.5709   76.6961  218.3458 H   0  0  0  0  0  0  0  0  0  0  0  0
  142.8919   76.9900  221.2360 H   0  0  0  0  0  0  0  0  0  0  0  0
  142.3113   78.1505  218.7561 H   0  0  0  0  0  0  0  0  0  0  0  0
  140.7486   77.4083  219.4466 H   0  0  0  0  0  0  0  0  0  0  0  0
  141.1129   81.3766  220.4535 H   0  0  0  0  0  0  0  0  0  0  0  0
  141.3082   82.8487  222.3752 H   0  0  0  0  0  0  0  0  0  0  0  0
  141.9789   81.9599  224.5807 H   0  0  0  0  0  0  0  0  0  0  0  0
  142.4557   79.5400  224.8183 H   0  0  0  0  0  0  0  0  0  0  0  0
  142.2637   78.0540  222.8911 H   0  0  0  0  0  0  0  0  0  0  0  0
  139.1436   69.9725  222.6679 H   0  0  0  0  0  0  0  0  0  0  0  0
  138.8161   68.5450  224.6509 H   0  0  0  0  0  0  0  0  0  0  0  0
  139.1684   68.1856  227.0880 H   0  0  0  0  0  0  0  0  0  0  0  0
  140.1174   69.0707  229.2064 H   0  0  0  0  0  0  0  0  0  0  0  0
  141.3069   71.2302  229.2879 H   0  0  0  0  0  0  0  0  0  0  0  0
  141.5654   72.5729  227.2055 H   0  0  0  0  0  0  0  0  0  0  0  0
  1  2  2  0
  2  3  1  0
  3  4  1  0
  4  5  1  0
  5  6  2  0
  5  7  1  0
  7  8  1  0
  8  9  1  0
  9 10  1  0
  9 11  1  0
 11 12  1  0
 12 13  1  0
 13 14  1  0
 14 15  1  0
 15 16  2  0
 16 17  1  0
 17 18  2  0
 18 19  1  0
 19 20  2  0
  2 21  1  0
 21 22  2  0
 22 23  1  0
 23 24  2  0
 24 25  1  0
 25 26  2  0
 26 27  1  0
 27 28  2  0
 28 29  1  0
 29 30  2  0
 12  7  1  0
 20 15  1  0
 30 21  1  0
 29 24  1  0
  3 31  1  0
  4 32  1  0
  4 33  1  0
  8 34  1  0
  8 35  1  0
  9 36  1  1
 10 37  1  0
 11 38  1  0
 11 39  1  0
 12 40  1  1
 13 41  1  0
 13 42  1  0
 16 43  1  0
 17 44  1  0
 18 45  1  0
 19 46  1  0
 20 47  1  0
 22 48  1  0
 23 49  1  0
 25 50  1  0
 26 51  1  0
 27 52  1  0
 28 53  1  0
M  END
>  <smiles>  (8) 
O=C(NCC(=O)N1C[C@@H](O)C[C@H]1COc1ccccc1)c1ccc2ccccc2n1

>  <score_type>  (8) 
oracle

>  <origin>  (8) 
autodockgpu

>  <m_score__min__energy>  (8) 
-9.0899999999999999

>  <m_primary>  (8) 
energy

>  <rmsd>  (8) 
2.0698504028285885

>  <m_score__min__rmsd>  (8) 
2.0698504028285885

>  <meeko>  (8) 
{"free_energy": -8.94, "intermolecular_energy": -11.33, "internal_energy": -1.44, "cluster_size": 13, "cluster_id": 1, "rank_in_cluster": 4}

>  <energy>  (8) 
-8.48

>  <cluster_rmsd>  (8) 
0.39

>  <cluster>  (8) 
1

$$$$

     RDKit          3D

 53 56  0  0  0  0  0  0  0  0999 V2000
  140.8840   71.4330  221.3660 O   0  0  0  0  0  0  0  0  0  0  0  0
  140.3870   72.0370  222.3560 C   0  0  0  0  0  0  0  0  0  0  0  0
  139.9620   73.3980  222.2980 N   0  0  0  0  0  0  0  0  0  0  0  0
  140.1070   74.1360  221.0350 C   0  0  0  0  0  0  0  0  0  0  0  0
  140.2680   75.5750  221.3380 C   0  0  0  0  0  0  0  0  0  0  0  0
  139.8980   76.0100  222.4570 O   0  0  0  0  0  0  0  0  0  0  0  0
  140.8230   76.5250  220.4360 N   0  0  0  0  0  0  0  0  0  0  0  0
  141.8190   77.4960  220.8710 C   0  0  0  0  0  0  0  0  0  0  0  0
  141.1840   78.7330  220.1870 C   0  0  1  0  0  0  0  0  0  0  0  0
  142.0170   79.8190  220.1900 O   0  0  0  0  0  0  0  0  0  0  0  0
  140.9940   78.1280  218.7820 C   0  0  0  0  0  0  0  0  0  0  0  0
  140.5170   76.7030  219.0090 C   0  0  1  0  0  0  0  0  0  0  0  0
  141.3700   75.7170  218.2240 C   0  0  0  0  0  0  0  0  0  0  0  0
  142.5360   75.3850  218.7180 O   0  0  0  0  0  0  0  0  0  0  0  0
  143.3090   74.6040  219.4180 C   0  0  0  0  0  0  0  0  0  0  0  0
  142.9580   73.2270  219.4620 C   0  0  0  0  0  0  0  0  0  0  0  0
  143.6740   72.3010  220.1530 C   0  0  0  0  0  0  0  0  0  0  0  0
  144.7910   72.6650  220.8530 C   0  0  0  0  0  0  0  0  0  0  0  0
  145.1790   73.9770  220.8480 C   0  0  0  0  0  0  0  0  0  0  0  0
  144.4470   74.9050  220.1450 C   0  0  0  0  0  0  0  0  0  0  0  0
  140.2390   71.3140  223.6150 C   0  0  0  0  0  0  0  0  0  0  0  0
  139.6240   70.0810  223.6620 C   0  0  0  0  0  0  0  0  0  0  0  0
  139.4600   69.3590  224.8260 C   0  0  0  0  0  0  0  0  0  0  0  0
  139.9370   69.9000  226.0140 C   0  0  0  0  0  0  0  0  0  0  0  0
  139.8010   69.2160  227.2210 C   0  0  0  0  0  0  0  0  0  0  0  0
  140.3060   69.8340  228.3470 C   0  0  0  0  0  0  0  0  0  0  0  0
  140.9230   71.0700  228.3060 C   0  0  0  0  0  0  0  0  0  0  0  0
  141.0430   71.7230  227.0910 C   0  0  0  0  0  0  0  0  0  0  0  0
  140.5530   71.1410  225.9470 C   0  0  0  0  0  0  0  0  0  0  0  0
  140.6930   71.8140  224.7850 N   0  0  0  0  0  0  0  0  0  0  0  0
  139.5640   73.8210  223.1530 H   0  0  0  0  0  0  0  0  0  0  0  0
  140.9922   73.7712  220.4934 H   0  0  0  0  0  0  0  0  0  0  0  0
  139.2151   73.9839  220.4094 H   0  0  0  0  0  0  0  0  0  0  0  0
  141.8607   77.5951  221.9657 H   0  0  0  0  0  0  0  0  0  0  0  0
  142.8665   77.2756  220.6176 H   0  0  0  0  0  0  0  0  0  0  0  0
  140.2768   79.1357  220.6612 H   0  0  0  0  0  0  0  0  0  0  0  0
  142.8060   79.6010  220.7480 H   0  0  0  0  0  0  0  0  0  0  0  0
  140.2422   78.6987  218.2171 H   0  0  0  0  0  0  0  0  0  0  0  0
  141.9260   78.1561  218.1984 H   0  0  0  0  0  0  0  0  0  0  0  0
  139.4700   76.5399  218.7136 H   0  0  0  0  0  0  0  0  0  0  0  0
  140.7849   74.7918  218.1159 H   0  0  0  0  0  0  0  0  0  0  0  0
  141.6076   76.2433  217.2877 H   0  0  0  0  0  0  0  0  0  0  0  0
  142.0654   72.8955  218.9112 H   0  0  0  0  0  0  0  0  0  0  0  0
  143.3520   71.2492  220.1491 H   0  0  0  0  0  0  0  0  0  0  0  0
  145.3689   71.9141  221.4117 H   0  0  0  0  0  0  0  0  0  0  0  0
  146.0747   74.2889  221.4052 H   0  0  0  0  0  0  0  0  0  0  0  0
  144.7872   75.9509  220.1617 H   0  0  0  0  0  0  0  0  0  0  0  0
  139.2446   69.6509  222.7233 H   0  0  0  0  0  0  0  0  0  0  0  0
  138.9632   68.3777  224.8141 H   0  0  0  0  0  0  0  0  0  0  0  0
  139.3145   68.2308  227.2735 H   0  0  0  0  0  0  0  0  0  0  0  0
  140.2137   69.3221  229.3162 H   0  0  0  0  0  0  0  0  0  0  0  0
  141.3135   71.5288  229.2263 H   0  0  0  0  0  0  0  0  0  0  0  0
  141.5307   72.7078  227.0417 H   0  0  0  0  0  0  0  0  0  0  0  0
  1  2  2  0
  2  3  1  0
  3  4  1  0
  4  5  1  0
  5  6  2  0
  5  7  1  0
  7  8  1  0
  8  9  1  0
  9 10  1  0
  9 11  1  0
 11 12  1  0
 12 13  1  0
 13 14  1  0
 14 15  1  0
 15 16  2  0
 16 17  1  0
 17 18  2  0
 18 19  1  0
 19 20  2  0
  2 21  1  0
 21 22  2  0
 22 23  1  0
 23 24  2  0
 24 25  1  0
 25 26  2  0
 26 27  1  0
 27 28  2  0
 28 29  1  0
 29 30  2  0
 12  7  1  0
 20 15  1  0
 30 21  1  0
 29 24  1  0
  3 31  1  0
  4 32  1  0
  4 33  1  0
  8 34  1  0
  8 35  1  0
  9 36  1  1
 10 37  1  0
 11 38  1  0
 11 39  1  0
 12 40  1  1
 13 41  1  0
 13 42  1  0
 16 43  1  0
 17 44  1  0
 18 45  1  0
 19 46  1  0
 20 47  1  0
 22 48  1  0
 23 49  1  0
 25 50  1  0
 26 51  1  0
 27 52  1  0
 28 53  1  0
M  END
>  <smiles>  (9) 
O=C(NCC(=O)N1C[C@@H](O)C[C@H]1COc1ccccc1)c1ccc2ccccc2n1

>  <score_type>  (9) 
oracle

>  <origin>  (9) 
autodockgpu

>  <m_score__min__energy>  (9) 
-9.0899999999999999

>  <m_primary>  (9) 
energy

>  <rmsd>  (9) 
2.274637467292642

>  <m_score__min__rmsd>  (9) 
2.274637467292642

>  <meeko>  (9) 
{"free_energy": -7.7, "intermolecular_energy": -10.08, "internal_energy": -2.47, "cluster_size": 9, "cluster_id": 3, "rank_in_cluster": 8}

>  <energy>  (9) 
-8.39

>  <cluster_rmsd>  (9) 
0.49

>  <cluster>  (9) 
1

$$$$

     RDKit          3D

 53 56  0  0  0  0  0  0  0  0999 V2000
  138.5530   75.5380  222.3190 O   0  0  0  0  0  0  0  0  0  0  0  0
  139.7270   75.9660  222.1500 C   0  0  0  0  0  0  0  0  0  0  0  0
  140.7590   75.1810  221.5550 N   0  0  0  0  0  0  0  0  0  0  0  0
  140.4500   73.8120  221.1190 C   0  0  0  0  0  0  0  0  0  0  0  0
  141.6910   73.0070  221.1530 C   0  0  0  0  0  0  0  0  0  0  0  0
  141.6720   71.8780  221.7050 O   0  0  0  0  0  0  0  0  0  0  0  0
  142.9320   73.4260  220.5970 N   0  0  0  0  0  0  0  0  0  0  0  0
  143.8860   72.4650  220.0570 C   0  0  0  0  0  0  0  0  0  0  0  0
  145.1480   73.0580  220.7320 C   0  0  1  0  0  0  0  0  0  0  0  0
  146.3070   72.5250  220.2350 O   0  0  0  0  0  0  0  0  0  0  0  0
  144.9410   74.5290  220.3200 C   0  0  0  0  0  0  0  0  0  0  0  0
  143.4540   74.7940  220.4780 C   0  0  1  0  0  0  0  0  0  0  0  0
  142.8760   75.4030  219.2080 C   0  0  0  0  0  0  0  0  0  0  0  0
  141.9220   76.2890  219.3310 O   0  0  0  0  0  0  0  0  0  0  0  0
  141.4930   77.5180  219.3990 C   0  0  0  0  0  0  0  0  0  0  0  0
  140.0880   77.7120  219.3090 C   0  0  0  0  0  0  0  0  0  0  0  0
  139.5030   78.9380  219.3650 C   0  0  0  0  0  0  0  0  0  0  0  0
  140.2630   80.0640  219.5150 C   0  0  0  0  0  0  0  0  0  0  0  0
  141.6220   79.9410  219.6070 C   0  0  0  0  0  0  0  0  0  0  0  0
  142.2020   78.6960  219.5500 C   0  0  0  0  0  0  0  0  0  0  0  0
  140.0460   77.3240  222.5810 C   0  0  0  0  0  0  0  0  0  0  0  0
  139.0540   78.2020  222.9600 C   0  0  0  0  0  0  0  0  0  0  0  0
  139.3040   79.4950  223.3750 C   0  0  0  0  0  0  0  0  0  0  0  0
  140.6210   79.9360  223.4120 C   0  0  0  0  0  0  0  0  0  0  0  0
  140.9340   81.2310  223.8230 C   0  0  0  0  0  0  0  0  0  0  0  0
  142.2700   81.5760  223.8260 C   0  0  0  0  0  0  0  0  0  0  0  0
  143.2690   80.6990  223.4460 C   0  0  0  0  0  0  0  0  0  0  0  0
  142.9240   79.4200  223.0440 C   0  0  0  0  0  0  0  0  0  0  0  0
  141.6050   79.0370  223.0270 C   0  0  0  0  0  0  0  0  0  0  0  0
  141.3160   77.7810  222.6280 N   0  0  0  0  0  0  0  0  0  0  0  0
  141.6970   75.6050  221.4520 H   0  0  0  0  0  0  0  0  0  0  0  0
  139.7037   73.3688  221.7947 H   0  0  0  0  0  0  0  0  0  0  0  0
  140.0444   73.8289  220.0967 H   0  0  0  0  0  0  0  0  0  0  0  0
  143.6778   71.4355  220.3836 H   0  0  0  0  0  0  0  0  0  0  0  0
  143.9149   72.3598  218.9624 H   0  0  0  0  0  0  0  0  0  0  0  0
  145.2516   72.8736  221.8115 H   0  0  0  0  0  0  0  0  0  0  0  0
  146.6330   71.8440  220.8780 H   0  0  0  0  0  0  0  0  0  0  0  0
  145.5212   75.1960  220.9746 H   0  0  0  0  0  0  0  0  0  0  0  0
  145.2794   74.7138  219.2898 H   0  0  0  0  0  0  0  0  0  0  0  0
  143.2177   75.4768  221.3074 H   0  0  0  0  0  0  0  0  0  0  0  0
  143.7049   75.8873  218.6709 H   0  0  0  0  0  0  0  0  0  0  0  0
  142.4004   74.5574  218.6896 H   0  0  0  0  0  0  0  0  0  0  0  0
  139.4436   76.8287  219.1884 H   0  0  0  0  0  0  0  0  0  0  0  0
  138.4090   79.0244  219.2890 H   0  0  0  0  0  0  0  0  0  0  0  0
  139.7883   81.0552  219.5611 H   0  0  0  0  0  0  0  0  0  0  0  0
  142.2496   80.8365  219.7263 H   0  0  0  0  0  0  0  0  0  0  0  0
  143.2973   78.6327  219.6294 H   0  0  0  0  0  0  0  0  0  0  0  0
  138.0104   77.8554  222.9305 H   0  0  0  0  0  0  0  0  0  0  0  0
  138.4793   80.1607  223.6696 H   0  0  0  0  0  0  0  0  0  0  0  0
  140.1538   81.9431  224.1299 H   0  0  0  0  0  0  0  0  0  0  0  0
  142.5519   82.5906  224.1439 H   0  0  0  0  0  0  0  0  0  0  0  0
  144.3231   81.0131  223.4628 H   0  0  0  0  0  0  0  0  0  0  0  0
  143.7066   78.7101  222.7381 H   0  0  0  0  0  0  0  0  0  0  0  0
  1  2  2  0
  2  3  1  0
  3  4  1  0
  4  5  1  0
  5  6  2  0
  5  7  1  0
  7  8  1  0
  8  9  1  0
  9 10  1  0
  9 11  1  0
 11 12  1  0
 12 13  1  0
 13 14  1  0
 14 15  1  0
 15 16  2  0
 16 17  1  0
 17 18  2  0
 18 19  1  0
 19 20  2  0
  2 21  1  0
 21 22  2  0
 22 23  1  0
 23 24  2  0
 24 25  1  0
 25 26  2  0
 26 27  1  0
 27 28  2  0
 28 29  1  0
 29 30  2  0
 12  7  1  0
 20 15  1  0
 30 21  1  0
 29 24  1  0
  3 31  1  0
  4 32  1  0
  4 33  1  0
  8 34  1  0
  8 35  1  0
  9 36  1  1
 10 37  1  0
 11 38  1  0
 11 39  1  0
 12 40  1  1
 13 41  1  0
 13 42  1  0
 16 43  1  0
 17 44  1  0
 18 45  1  0
 19 46  1  0
 20 47  1  0
 22 48  1  0
 23 49  1  0
 25 50  1  0
 26 51  1  0
 27 52  1  0
 28 53  1  0
M  END
>  <smiles>  (10) 
O=C(NCC(=O)N1C[C@@H](O)C[C@H]1COc1ccccc1)c1ccc2ccccc2n1

>  <score_type>  (10) 
oracle

>  <origin>  (10) 
autodockgpu

>  <m_score__min__energy>  (10) 
-9.0899999999999999

>  <m_primary>  (10) 
energy

>  <rmsd>  (10) 
7.7518558541693645

>  <m_score__min__rmsd>  (10) 
7.7518558541693645

>  <meeko>  (10) 
{"free_energy": -6.79, "intermolecular_energy": -9.17, "internal_energy": -3.57, "cluster_size": 24, "cluster_id": 4, "rank_in_cluster": 17}

>  <energy>  (10) 
-8.21

>  <cluster_rmsd>  (10) 
1.85

>  <cluster>  (10) 
1

$$$$

     RDKit          3D

 53 56  0  0  0  0  0  0  0  0999 V2000
  139.5870   74.6220  222.4500 O   0  0  0  0  0  0  0  0  0  0  0  0
  140.1040   75.5140  221.7220 C   0  0  0  0  0  0  0  0  0  0  0  0
  140.5780   75.2570  220.4020 N   0  0  0  0  0  0  0  0  0  0  0  0
  140.4650   73.8970  219.8570 C   0  0  0  0  0  0  0  0  0  0  0  0
  141.6430   73.1110  220.2840 C   0  0  0  0  0  0  0  0  0  0  0  0
  141.4670   72.0060  220.8550 O   0  0  0  0  0  0  0  0  0  0  0  0
  142.9920   73.5230  220.0950 N   0  0  0  0  0  0  0  0  0  0  0  0
  144.0070   72.6010  219.6030 C   0  0  0  0  0  0  0  0  0  0  0  0
  145.1070   72.9690  220.6300 C   0  0  1  0  0  0  0  0  0  0  0  0
  146.3280   72.4430  220.3030 O   0  0  0  0  0  0  0  0  0  0  0  0
  145.0510   74.5010  220.4650 C   0  0  0  0  0  0  0  0  0  0  0  0
  143.5770   74.8480  220.3470 C   0  0  1  0  0  0  0  0  0  0  0  0
  143.3220   75.7100  219.1190 C   0  0  0  0  0  0  0  0  0  0  0  0
  142.5750   76.7750  219.2600 O   0  0  0  0  0  0  0  0  0  0  0  0
  142.2590   78.0060  218.9730 C   0  0  0  0  0  0  0  0  0  0  0  0
  141.0170   78.4820  219.4740 C   0  0  0  0  0  0  0  0  0  0  0  0
  140.5610   79.7430  219.2510 C   0  0  0  0  0  0  0  0  0  0  0  0
  141.3000   80.6290  218.5170 C   0  0  0  0  0  0  0  0  0  0  0  0
  142.5050   80.2290  218.0080 C   0  0  0  0  0  0  0  0  0  0  0  0
  142.9550   78.9510  218.2410 C   0  0  0  0  0  0  0  0  0  0  0  0
  140.2220   76.8690  222.2540 C   0  0  0  0  0  0  0  0  0  0  0  0
  139.1140   77.5610  222.6920 C   0  0  0  0  0  0  0  0  0  0  0  0
  139.1740   78.8430  223.2020 C   0  0  0  0  0  0  0  0  0  0  0  0
  140.4120   79.4690  223.2780 C   0  0  0  0  0  0  0  0  0  0  0  0
  140.5340   80.7620  223.7850 C   0  0  0  0  0  0  0  0  0  0  0  0
  141.8040   81.2990  223.8200 C   0  0  0  0  0  0  0  0  0  0  0  0
  142.9190   80.6080  223.3810 C   0  0  0  0  0  0  0  0  0  0  0  0
  142.7640   79.3250  222.8840 C   0  0  0  0  0  0  0  0  0  0  0  0
  141.5150   78.7550  222.8320 C   0  0  0  0  0  0  0  0  0  0  0  0
  141.4120   77.5030  222.3400 N   0  0  0  0  0  0  0  0  0  0  0  0
  140.9890   76.0430  219.8690 H   0  0  0  0  0  0  0  0  0  0  0  0
  139.5475   73.4225  220.2353 H   0  0  0  0  0  0  0  0  0  0  0  0
  140.4220   73.9378  218.7586 H   0  0  0  0  0  0  0  0  0  0  0  0
  143.6936   71.5494  219.6801 H   0  0  0  0  0  0  0  0  0  0  0  0
  144.2766   72.6860  218.5399 H   0  0  0  0  0  0  0  0  0  0  0  0
  144.9595   72.5920  221.6528 H   0  0  0  0  0  0  0  0  0  0  0  0
  146.5800   71.7910  221.0050 H   0  0  0  0  0  0  0  0  0  0  0  0
  145.4930   74.9976  221.3414 H   0  0  0  0  0  0  0  0  0  0  0  0
  145.6186   74.8355  219.5842 H   0  0  0  0  0  0  0  0  0  0  0  0
  143.1851   75.3930  221.2184 H   0  0  0  0  0  0  0  0  0  0  0  0
  144.3010   76.0444  218.7452 H   0  0  0  0  0  0  0  0  0  0  0  0
  142.7485   75.0601  218.4417 H   0  0  0  0  0  0  0  0  0  0  0  0
  140.3955   77.7977  220.0703 H   0  0  0  0  0  0  0  0  0  0  0  0
  139.5899   80.0531  219.6643 H   0  0  0  0  0  0  0  0  0  0  0  0
  140.9305   81.6495  218.3383 H   0  0  0  0  0  0  0  0  0  0  0  0
  143.1122   80.9279  217.4140 H   0  0  0  0  0  0  0  0  0  0  0  0
  143.9289   78.6620  217.8191 H   0  0  0  0  0  0  0  0  0  0  0  0
  138.1326   77.0677  222.6325 H   0  0  0  0  0  0  0  0  0  0  0  0
  138.2622   79.3569  223.5404 H   0  0  0  0  0  0  0  0  0  0  0  0
  139.6594   81.3268  224.1401 H   0  0  0  0  0  0  0  0  0  0  0  0
  141.9355   82.3180  224.2129 H   0  0  0  0  0  0  0  0  0  0  0  0
  143.9155   81.0716  223.4261 H   0  0  0  0  0  0  0  0  0  0  0  0
  143.6407   78.7622  222.5309 H   0  0  0  0  0  0  0  0  0  0  0  0
  1  2  2  0
  2  3  1  0
  3  4  1  0
  4  5  1  0
  5  6  2  0
  5  7  1  0
  7  8  1  0
  8  9  1  0
  9 10  1  0
  9 11  1  0
 11 12  1  0
 12 13  1  0
 13 14  1  0
 14 15  1  0
 15 16  2  0
 16 17  1  0
 17 18  2  0
 18 19  1  0
 19 20  2  0
  2 21  1  0
 21 22  2  0
 22 23  1  0
 23 24  2  0
 24 25  1  0
 25 26  2  0
 26 27  1  0
 27 28  2  0
 28 29  1  0
 29 30  2  0
 12  7  1  0
 20 15  1  0
 30 21  1  0
 29 24  1  0
  3 31  1  0
  4 32  1  0
  4 33  1  0
  8 34  1  0
  8 35  1  0
  9 36  1  1
 10 37  1  0
 11 38  1  0
 11 39  1  0
 12 40  1  1
 13 41  1  0
 13 42  1  0
 16 43  1  0
 17 44  1  0
 18 45  1  0
 19 46  1  0
 20 47  1  0
 22 48  1  0
 23 49  1  0
 25 50  1  0
 26 51  1  0
 27 52  1  0
 28 53  1  0
M  END
>  <smiles>  (11) 
O=C(NCC(=O)N1C[C@@H](O)C[C@H]1COc1ccccc1)c1ccc2ccccc2n1

>  <score_type>  (11) 
oracle

>  <origin>  (11) 
autodockgpu

>  <m_score__min__energy>  (11) 
-9.0899999999999999

>  <m_primary>  (11) 
energy

>  <rmsd>  (11) 
7.546945427861959

>  <m_score__min__rmsd>  (11) 
7.546945427861959

>  <meeko>  (11) 
{"free_energy": -7.26, "intermolecular_energy": -9.64, "internal_energy": -3.23, "cluster_size": 24, "cluster_id": 4, "rank_in_cluster": 9}

>  <energy>  (11) 
-7.75

>  <cluster_rmsd>  (11) 
1.79

>  <cluster>  (11) 
1

$$$$

     RDKit          3D

 53 56  0  0  0  0  0  0  0  0999 V2000
  138.2490   72.1930  222.7150 O   0  0  0  0  0  0  0  0  0  0  0  0
  139.3260   71.5440  222.8120 C   0  0  0  0  0  0  0  0  0  0  0  0
  140.3740   71.6350  221.8490 N   0  0  0  0  0  0  0  0  0  0  0  0
  140.2010   72.5210  220.6900 C   0  0  0  0  0  0  0  0  0  0  0  0
  140.7940   73.8400  221.0030 C   0  0  0  0  0  0  0  0  0  0  0  0
  140.4140   74.4530  222.0310 O   0  0  0  0  0  0  0  0  0  0  0  0
  141.7840   74.4810  220.2060 N   0  0  0  0  0  0  0  0  0  0  0  0
  142.2730   73.8810  218.9720 C   0  0  0  0  0  0  0  0  0  0  0  0
  143.7810   74.1220  219.2330 C   0  0  1  0  0  0  0  0  0  0  0  0
  144.5490   73.8860  218.1240 O   0  0  0  0  0  0  0  0  0  0  0  0
  143.6990   75.6170  219.5970 C   0  0  0  0  0  0  0  0  0  0  0  0
  142.4560   75.7630  220.4580 C   0  0  1  0  0  0  0  0  0  0  0  0
  141.5580   76.8720  219.9270 C   0  0  0  0  0  0  0  0  0  0  0  0
  141.3720   77.9250  220.6810 O   0  0  0  0  0  0  0  0  0  0  0  0
  141.6170   78.6370  221.7440 C   0  0  0  0  0  0  0  0  0  0  0  0
  142.1260   79.9480  221.5340 C   0  0  0  0  0  0  0  0  0  0  0  0
  142.4260   80.8000  222.5500 C   0  0  0  0  0  0  0  0  0  0  0  0
  142.2440   80.4200  223.8510 C   0  0  0  0  0  0  0  0  0  0  0  0
  141.7560   79.1700  224.1170 C   0  0  0  0  0  0  0  0  0  0  0  0
  141.4560   78.3180  223.0810 C   0  0  0  0  0  0  0  0  0  0  0  0
  139.5090   70.6590  223.9590 C   0  0  0  0  0  0  0  0  0  0  0  0
  139.0390   69.3640  223.9430 C   0  0  0  0  0  0  0  0  0  0  0  0
  139.1870   68.4900  225.0010 C   0  0  0  0  0  0  0  0  0  0  0  0
  139.8410   68.9360  226.1430 C   0  0  0  0  0  0  0  0  0  0  0  0
  140.0210   68.0990  227.2430 C   0  0  0  0  0  0  0  0  0  0  0  0
  140.6820   68.6330  228.3290 C   0  0  0  0  0  0  0  0  0  0  0  0
  141.1560   69.9310  228.3510 C   0  0  0  0  0  0  0  0  0  0  0  0
  140.9620   70.7380  227.2420 C   0  0  0  0  0  0  0  0  0  0  0  0
  140.3070   70.2430  226.1400 C   0  0  0  0  0  0  0  0  0  0  0  0
  140.1410   71.0650  225.0820 N   0  0  0  0  0  0  0  0  0  0  0  0
  141.2270   71.0700  222.0010 H   0  0  0  0  0  0  0  0  0  0  0  0
  140.7065   72.0871  219.8147 H   0  0  0  0  0  0  0  0  0  0  0  0
  139.1304   72.6372  220.4659 H   0  0  0  0  0  0  0  0  0  0  0  0
  142.0242   72.8122  218.8958 H   0  0  0  0  0  0  0  0  0  0  0  0
  141.8646   74.2822  218.0327 H   0  0  0  0  0  0  0  0  0  0  0  0
  144.2526   73.4716  219.9844 H   0  0  0  0  0  0  0  0  0  0  0  0
  145.1650   74.6530  218.0070 H   0  0  0  0  0  0  0  0  0  0  0  0
  144.5932   75.9245  220.1591 H   0  0  0  0  0  0  0  0  0  0  0  0
  143.6480   76.2511  218.6996 H   0  0  0  0  0  0  0  0  0  0  0  0
  142.6775   75.9956  221.5100 H   0  0  0  0  0  0  0  0  0  0  0  0
  141.9944   77.2210  218.9795 H   0  0  0  0  0  0  0  0  0  0  0  0
  140.5633   76.4083  219.8520 H   0  0  0  0  0  0  0  0  0  0  0  0
  142.2846   80.2890  220.5003 H   0  0  0  0  0  0  0  0  0  0  0  0
  142.8181   81.8026  222.3239 H   0  0  0  0  0  0  0  0  0  0  0  0
  142.4867   81.1101  224.6725 H   0  0  0  0  0  0  0  0  0  0  0  0
  141.6040   78.8475  225.1576 H   0  0  0  0  0  0  0  0  0  0  0  0
  141.0637   77.3210  223.3300 H   0  0  0  0  0  0  0  0  0  0  0  0
  138.5193   69.0085  223.0410 H   0  0  0  0  0  0  0  0  0  0  0  0
  138.7960   67.4635  224.9415 H   0  0  0  0  0  0  0  0  0  0  0  0
  139.6534   67.0622  227.2447 H   0  0  0  0  0  0  0  0  0  0  0  0
  140.8385   67.9996  229.2146 H   0  0  0  0  0  0  0  0  0  0  0  0
  141.6803   70.3180  229.2372 H   0  0  0  0  0  0  0  0  0  0  0  0
  141.3318   71.7740  227.2434 H   0  0  0  0  0  0  0  0  0  0  0  0
  1  2  2  0
  2  3  1  0
  3  4  1  0
  4  5  1  0
  5  6  2  0
  5  7  1  0
  7  8  1  0
  8  9  1  0
  9 10  1  0
  9 11  1  0
 11 12  1  0
 12 13  1  0
 13 14  1  0
 14 15  1  0
 15 16  2  0
 16 17  1  0
 17 18  2  0
 18 19  1  0
 19 20  2  0
  2 21  1  0
 21 22  2  0
 22 23  1  0
 23 24  2  0
 24 25  1  0
 25 26  2  0
 26 27  1  0
 27 28  2  0
 28 29  1  0
 29 30  2  0
 12  7  1  0
 20 15  1  0
 30 21  1  0
 29 24  1  0
  3 31  1  0
  4 32  1  0
  4 33  1  0
  8 34  1  0
  8 35  1  0
  9 36  1  1
 10 37  1  0
 11 38  1  0
 11 39  1  0
 12 40  1  1
 13 41  1  0
 13 42  1  0
 16 43  1  0
 17 44  1  0
 18 45  1  0
 19 46  1  0
 20 47  1  0
 22 48  1  0
 23 49  1  0
 25 50  1  0
 26 51  1  0
 27 52  1  0
 28 53  1  0
M  END
>  <smiles>  (12) 
O=C(NCC(=O)N1C[C@@H](O)C[C@H]1COc1ccccc1)c1ccc2ccccc2n1

>  <score_type>  (12) 
oracle

>  <origin>  (12) 
autodockgpu

>  <m_score__min__energy>  (12) 
-9.0899999999999999

>  <m_primary>  (12) 
energy

>  <rmsd>  (12) 
2.3391401639080294

>  <m_score__min__rmsd>  (12) 
2.3391401639080294

>  <meeko>  (12) 
{"free_energy": -8.65, "intermolecular_energy": -11.04, "internal_energy": -1.21, "cluster_size": 13, "cluster_id": 1, "rank_in_cluster": 7}

>  <energy>  (12) 
-7.66

>  <cluster_rmsd>  (12) 
1.91

>  <cluster>  (12) 
1

$$$$

     RDKit          3D

 53 56  0  0  0  0  0  0  0  0999 V2000
  138.8490   75.0680  222.3600 O   0  0  0  0  0  0  0  0  0  0  0  0
  139.9620   75.6180  222.1370 C   0  0  0  0  0  0  0  0  0  0  0  0
  141.0650   74.9250  221.5560 N   0  0  0  0  0  0  0  0  0  0  0  0
  140.9080   73.5080  221.1990 C   0  0  0  0  0  0  0  0  0  0  0  0
  141.7560   73.2140  220.0230 C   0  0  0  0  0  0  0  0  0  0  0  0
  141.2360   72.6790  219.0120 O   0  0  0  0  0  0  0  0  0  0  0  0
  143.1490   73.4980  219.9500 N   0  0  0  0  0  0  0  0  0  0  0  0
  144.0560   72.6590  219.1770 C   0  0  0  0  0  0  0  0  0  0  0  0
  145.1680   72.5510  220.2500 C   0  0  1  0  0  0  0  0  0  0  0  0
  146.3230   72.0080  219.7550 O   0  0  0  0  0  0  0  0  0  0  0  0
  145.3010   74.0520  220.5730 C   0  0  0  0  0  0  0  0  0  0  0  0
  143.8830   74.5960  220.5930 C   0  0  1  0  0  0  0  0  0  0  0  0
  143.7630   75.8220  219.7000 C   0  0  0  0  0  0  0  0  0  0  0  0
  142.5640   76.2880  219.4550 O   0  0  0  0  0  0  0  0  0  0  0  0
  141.6980   77.2580  219.3870 C   0  0  0  0  0  0  0  0  0  0  0  0
  142.1990   78.5780  219.5630 C   0  0  0  0  0  0  0  0  0  0  0  0
  141.4090   79.6830  219.5180 C   0  0  0  0  0  0  0  0  0  0  0  0
  140.0650   79.5690  219.2950 C   0  0  0  0  0  0  0  0  0  0  0  0
  139.5250   78.3250  219.1180 C   0  0  0  0  0  0  0  0  0  0  0  0
  140.3330   77.2140  219.1650 C   0  0  0  0  0  0  0  0  0  0  0  0
  140.1290   77.0250  222.4890 C   0  0  0  0  0  0  0  0  0  0  0  0
  139.0400   77.8460  222.6840 C   0  0  0  0  0  0  0  0  0  0  0  0
  139.1460   79.1810  223.0180 C   0  0  0  0  0  0  0  0  0  0  0  0
  140.4140   79.7280  223.1640 C   0  0  0  0  0  0  0  0  0  0  0  0
  140.5840   81.0700  223.5010 C   0  0  0  0  0  0  0  0  0  0  0  0
  141.8820   81.5220  223.6230 C   0  0  0  0  0  0  0  0  0  0  0  0
  142.9780   80.7030  223.4280 C   0  0  0  0  0  0  0  0  0  0  0  0
  142.7760   79.3740  223.0960 C   0  0  0  0  0  0  0  0  0  0  0  0
  141.4990   78.8860  222.9640 C   0  0  0  0  0  0  0  0  0  0  0  0
  141.3500   77.5850  222.6390 N   0  0  0  0  0  0  0  0  0  0  0  0
  141.9450   75.4480  221.4060 H   0  0  0  0  0  0  0  0  0  0  0  0
  141.2184   72.8773  222.0451 H   0  0  0  0  0  0  0  0  0  0  0  0
  139.8548   73.2977  220.9613 H   0  0  0  0  0  0  0  0  0  0  0  0
  143.6161   71.6825  218.9263 H   0  0  0  0  0  0  0  0  0  0  0  0
  144.3581   73.0379  218.1895 H   0  0  0  0  0  0  0  0  0  0  0  0
  144.9529   71.8950  221.1064 H   0  0  0  0  0  0  0  0  0  0  0  0
  146.7410   71.4650  220.4720 H   0  0  0  0  0  0  0  0  0  0  0  0
  145.7793   74.1923  221.5536 H   0  0  0  0  0  0  0  0  0  0  0  0
  145.9249   74.5728  219.8317 H   0  0  0  0  0  0  0  0  0  0  0  0
  143.5396   74.8861  221.5970 H   0  0  0  0  0  0  0  0  0  0  0  0
  144.3376   76.6306  220.1753 H   0  0  0  0  0  0  0  0  0  0  0  0
  144.1332   75.4861  218.7202 H   0  0  0  0  0  0  0  0  0  0  0  0
  143.2759   78.7103  219.7439 H   0  0  0  0  0  0  0  0  0  0  0  0
  141.8550   80.6781  219.6623 H   0  0  0  0  0  0  0  0  0  0  0  0
  139.4274   80.4646  219.2585 H   0  0  0  0  0  0  0  0  0  0  0  0
  138.4455   78.2137  218.9383 H   0  0  0  0  0  0  0  0  0  0  0  0
  139.8656   76.2293  219.0170 H   0  0  0  0  0  0  0  0  0  0  0  0
  138.0345   77.4155  222.5675 H   0  0  0  0  0  0  0  0  0  0  0  0
  138.2469   79.7974  223.1651 H   0  0  0  0  0  0  0  0  0  0  0  0
  139.7242   81.7369  223.6620 H   0  0  0  0  0  0  0  0  0  0  0  0
  142.0512   82.5766  223.8860 H   0  0  0  0  0  0  0  0  0  0  0  0
  143.9976   81.1017  223.5351 H   0  0  0  0  0  0  0  0  0  0  0  0
  143.6381   78.7092  222.9380 H   0  0  0  0  0  0  0  0  0  0  0  0
  1  2  2  0
  2  3  1  0
  3  4  1  0
  4  5  1  0
  5  6  2  0
  5  7  1  0
  7  8  1  0
  8  9  1  0
  9 10  1  0
  9 11  1  0
 11 12  1  0
 12 13  1  0
 13 14  1  0
 14 15  1  0
 15 16  2  0
 16 17  1  0
 17 18  2  0
 18 19  1  0
 19 20  2  0
  2 21  1  0
 21 22  2  0
 22 23  1  0
 23 24  2  0
 24 25  1  0
 25 26  2  0
 26 27  1  0
 27 28  2  0
 28 29  1  0
 29 30  2  0
 12  7  1  0
 20 15  1  0
 30 21  1  0
 29 24  1  0
  3 31  1  0
  4 32  1  0
  4 33  1  0
  8 34  1  0
  8 35  1  0
  9 36  1  1
 10 37  1  0
 11 38  1  0
 11 39  1  0
 12 40  1  1
 13 41  1  0
 13 42  1  0
 16 43  1  0
 17 44  1  0
 18 45  1  0
 19 46  1  0
 20 47  1  0
 22 48  1  0
 23 49  1  0
 25 50  1  0
 26 51  1  0
 27 52  1  0
 28 53  1  0
M  END
>  <smiles>  (13) 
O=C(NCC(=O)N1C[C@@H](O)C[C@H]1COc1ccccc1)c1ccc2ccccc2n1

>  <score_type>  (13) 
oracle

>  <origin>  (13) 
autodockgpu

>  <m_score__min__energy>  (13) 
-9.0899999999999999

>  <m_primary>  (13) 
energy

>  <rmsd>  (13) 
7.721714313021429

>  <m_score__min__rmsd>  (13) 
7.721714313021429

>  <meeko>  (13) 
{"free_energy": -6.72, "intermolecular_energy": -9.1, "internal_energy": -3.8, "cluster_size": 24, "cluster_id": 4, "rank_in_cluster": 20}

>  <energy>  (13) 
-7.58

>  <cluster_rmsd>  (13) 
1.97

>  <cluster>  (13) 
1

$$$$

     RDKit          3D

 53 56  0  0  0  0  0  0  0  0999 V2000
  138.4160   75.2990  221.7780 O   0  0  0  0  0  0  0  0  0  0  0  0
  139.6040   75.6380  222.0380 C   0  0  0  0  0  0  0  0  0  0  0  0
  140.7030   74.7330  221.9520 N   0  0  0  0  0  0  0  0  0  0  0  0
  140.4520   73.3440  221.5450 C   0  0  0  0  0  0  0  0  0  0  0  0
  141.7230   72.7430  221.0860 C   0  0  0  0  0  0  0  0  0  0  0  0
  141.9140   71.5130  221.2550 O   0  0  0  0  0  0  0  0  0  0  0  0
  142.7700   73.4700  220.4530 N   0  0  0  0  0  0  0  0  0  0  0  0
  143.8370   72.7920  219.7290 C   0  0  0  0  0  0  0  0  0  0  0  0
  145.0130   73.6020  220.3300 C   0  0  1  0  0  0  0  0  0  0  0  0
  146.1920   73.3820  219.6700 O   0  0  0  0  0  0  0  0  0  0  0  0
  144.4460   75.0150  220.0880 C   0  0  0  0  0  0  0  0  0  0  0  0
  142.9660   74.9260  220.4180 C   0  0  1  0  0  0  0  0  0  0  0  0
  142.1250   75.4810  219.2770 C   0  0  0  0  0  0  0  0  0  0  0  0
  142.4520   76.6480  218.7840 O   0  0  0  0  0  0  0  0  0  0  0  0
  142.3560   77.9460  218.7380 C   0  0  0  0  0  0  0  0  0  0  0  0
  141.7080   78.5810  219.8330 C   0  0  0  0  0  0  0  0  0  0  0  0
  141.5370   79.9260  219.9160 C   0  0  0  0  0  0  0  0  0  0  0  0
  141.9940   80.7470  218.9230 C   0  0  0  0  0  0  0  0  0  0  0  0
  142.6260   80.1960  217.8430 C   0  0  0  0  0  0  0  0  0  0  0  0
  142.7930   78.8330  217.7700 C   0  0  0  0  0  0  0  0  0  0  0  0
  139.8650   77.0160  222.4460 C   0  0  0  0  0  0  0  0  0  0  0  0
  138.8320   77.8980  222.6810 C   0  0  0  0  0  0  0  0  0  0  0  0
  139.0280   79.2080  223.0660 C   0  0  0  0  0  0  0  0  0  0  0  0
  140.3300   79.6650  223.2270 C   0  0  0  0  0  0  0  0  0  0  0  0
  140.5890   80.9780  223.6160 C   0  0  0  0  0  0  0  0  0  0  0  0
  141.9140   81.3380  223.7480 C   0  0  0  0  0  0  0  0  0  0  0  0
  142.9530   80.4580  223.5140 C   0  0  0  0  0  0  0  0  0  0  0  0
  142.6630   79.1600  223.1290 C   0  0  0  0  0  0  0  0  0  0  0  0
  141.3560   78.7620  222.9860 C   0  0  0  0  0  0  0  0  0  0  0  0
  141.1200   77.4880  222.6100 N   0  0  0  0  0  0  0  0  0  0  0  0
  141.6470   75.0890  222.1820 H   0  0  0  0  0  0  0  0  0  0  0  0
  140.0612   72.7733  222.4003 H   0  0  0  0  0  0  0  0  0  0  0  0
  139.7132   73.3217  220.7303 H   0  0  0  0  0  0  0  0  0  0  0  0
  143.8960   71.7207  219.9714 H   0  0  0  0  0  0  0  0  0  0  0  0
  143.7573   72.7778  218.6320 H   0  0  0  0  0  0  0  0  0  0  0  0
  145.2820   73.3660  221.3702 H   0  0  0  0  0  0  0  0  0  0  0  0
  146.7100   74.2270  219.6730 H   0  0  0  0  0  0  0  0  0  0  0  0
  144.9421   75.7450  220.7445 H   0  0  0  0  0  0  0  0  0  0  0  0
  144.6119   75.3472  219.0526 H   0  0  0  0  0  0  0  0  0  0  0  0
  142.6871   75.4747  221.3296 H   0  0  0  0  0  0  0  0  0  0  0  0
  142.1706   74.7535  218.4532 H   0  0  0  0  0  0  0  0  0  0  0  0
  141.1307   75.6389  219.7202 H   0  0  0  0  0  0  0  0  0  0  0  0
  141.3270   77.9531  220.6519 H   0  0  0  0  0  0  0  0  0  0  0  0
  141.0266   80.3581  220.7894 H   0  0  0  0  0  0  0  0  0  0  0  0
  141.8552   81.8360  218.9920 H   0  0  0  0  0  0  0  0  0  0  0  0
  143.0000   80.8414  217.0345 H   0  0  0  0  0  0  0  0  0  0  0  0
  143.3056   78.4225  216.8876 H   0  0  0  0  0  0  0  0  0  0  0  0
  137.7998   77.5392  222.5552 H   0  0  0  0  0  0  0  0  0  0  0  0
  138.1721   79.8762  223.2417 H   0  0  0  0  0  0  0  0  0  0  0  0
  139.7756   81.6931  223.8086 H   0  0  0  0  0  0  0  0  0  0  0  0
  142.1531   82.3678  224.0520 H   0  0  0  0  0  0  0  0  0  0  0  0
  143.9969   80.7842  223.6320 H   0  0  0  0  0  0  0  0  0  0  0  0
  143.4790   78.4476  222.9377 H   0  0  0  0  0  0  0  0  0  0  0  0
  1  2  2  0
  2  3  1  0
  3  4  1  0
  4  5  1  0
  5  6  2  0
  5  7  1  0
  7  8  1  0
  8  9  1  0
  9 10  1  0
  9 11  1  0
 11 12  1  0
 12 13  1  0
 13 14  1  0
 14 15  1  0
 15 16  2  0
 16 17  1  0
 17 18  2  0
 18 19  1  0
 19 20  2  0
  2 21  1  0
 21 22  2  0
 22 23  1  0
 23 24  2  0
 24 25  1  0
 25 26  2  0
 26 27  1  0
 27 28  2  0
 28 29  1  0
 29 30  2  0
 12  7  1  0
 20 15  1  0
 30 21  1  0
 29 24  1  0
  3 31  1  0
  4 32  1  0
  4 33  1  0
  8 34  1  0
  8 35  1  0
  9 36  1  1
 10 37  1  0
 11 38  1  0
 11 39  1  0
 12 40  1  1
 13 41  1  0
 13 42  1  0
 16 43  1  0
 17 44  1  0
 18 45  1  0
 19 46  1  0
 20 47  1  0
 22 48  1  0
 23 49  1  0
 25 50  1  0
 26 51  1  0
 27 52  1  0
 28 53  1  0
M  END
>  <smiles>  (14) 
O=C(NCC(=O)N1C[C@@H](O)C[C@H]1COc1ccccc1)c1ccc2ccccc2n1

>  <score_type>  (14) 
oracle

>  <origin>  (14) 
autodockgpu

>  <m_score__min__energy>  (14) 
-9.0899999999999999

>  <m_primary>  (14) 
energy

>  <rmsd>  (14) 
7.484027171669401

>  <m_score__min__rmsd>  (14) 
7.484027171669401

>  <meeko>  (14) 
{"free_energy": -7.43, "intermolecular_energy": -9.81, "internal_energy": -2.39, "cluster_size": 24, "cluster_id": 4, "rank_in_cluster": 7}

>  <energy>  (14) 
-8.73

>  <cluster_rmsd>  (14) 
0.0

>  <cluster>  (14) 
2

$$$$

     RDKit          3D

 53 56  0  0  0  0  0  0  0  0999 V2000
  138.8550   75.0840  222.3380 O   0  0  0  0  0  0  0  0  0  0  0  0
  139.9700   75.6320  222.1180 C   0  0  0  0  0  0  0  0  0  0  0  0
  141.0740   74.9360  221.5420 N   0  0  0  0  0  0  0  0  0  0  0  0
  140.9150   73.5190  221.1860 C   0  0  0  0  0  0  0  0  0  0  0  0
  141.7420   73.2290  219.9940 C   0  0  0  0  0  0  0  0  0  0  0  0
  141.2070   72.6850  218.9970 O   0  0  0  0  0  0  0  0  0  0  0  0
  143.1300   73.5260  219.8920 N   0  0  0  0  0  0  0  0  0  0  0  0
  144.0360   72.6730  219.1340 C   0  0  0  0  0  0  0  0  0  0  0  0
  145.1650   72.6140  220.1940 C   0  0  1  0  0  0  0  0  0  0  0  0
  146.3190   72.0690  219.7010 O   0  0  0  0  0  0  0  0  0  0  0  0
  145.2840   74.1270  220.4640 C   0  0  0  0  0  0  0  0  0  0  0  0
  143.8600   74.6540  220.4870 C   0  0  1  0  0  0  0  0  0  0  0  0
  143.7110   75.8480  219.5560 C   0  0  0  0  0  0  0  0  0  0  0  0
  142.5510   76.4510  219.5110 O   0  0  0  0  0  0  0  0  0  0  0  0
  141.8120   77.5210  219.4240 C   0  0  0  0  0  0  0  0  0  0  0  0
  140.4220   77.3230  219.2010 C   0  0  0  0  0  0  0  0  0  0  0  0
  139.5350   78.3460  219.0890 C   0  0  0  0  0  0  0  0  0  0  0  0
  139.9540   79.6440  219.1910 C   0  0  0  0  0  0  0  0  0  0  0  0
  141.2810   79.8980  219.4070 C   0  0  0  0  0  0  0  0  0  0  0  0
  142.1680   78.8540  219.5180 C   0  0  0  0  0  0  0  0  0  0  0  0
  140.1390   77.0390  222.4680 C   0  0  0  0  0  0  0  0  0  0  0  0
  139.0500   77.8600  222.6700 C   0  0  0  0  0  0  0  0  0  0  0  0
  139.1580   79.1950  223.0020 C   0  0  0  0  0  0  0  0  0  0  0  0
  140.4270   79.7430  223.1400 C   0  0  0  0  0  0  0  0  0  0  0  0
  140.5990   81.0860  223.4740 C   0  0  0  0  0  0  0  0  0  0  0  0
  141.8970   81.5380  223.5890 C   0  0  0  0  0  0  0  0  0  0  0  0
  142.9920   80.7200  223.3880 C   0  0  0  0  0  0  0  0  0  0  0  0
  142.7890   79.3900  223.0570 C   0  0  0  0  0  0  0  0  0  0  0  0
  141.5110   78.9020  222.9330 C   0  0  0  0  0  0  0  0  0  0  0  0
  141.3600   77.6000  222.6100 N   0  0  0  0  0  0  0  0  0  0  0  0
  141.9550   75.4570  221.3930 H   0  0  0  0  0  0  0  0  0  0  0  0
  141.2430   72.8883  222.0254 H   0  0  0  0  0  0  0  0  0  0  0  0
  139.8582   73.3058  220.9674 H   0  0  0  0  0  0  0  0  0  0  0  0
  143.6048   71.6835  218.9221 H   0  0  0  0  0  0  0  0  0  0  0  0
  144.3191   73.0225  218.1302 H   0  0  0  0  0  0  0  0  0  0  0  0
  144.9702   71.9845  221.0748 H   0  0  0  0  0  0  0  0  0  0  0  0
  146.7110   71.4890  220.4030 H   0  0  0  0  0  0  0  0  0  0  0  0
  145.7749   74.3063  221.4319 H   0  0  0  0  0  0  0  0  0  0  0  0
  145.8904   74.6298  219.6962 H   0  0  0  0  0  0  0  0  0  0  0  0
  143.5280   74.9733  221.4859 H   0  0  0  0  0  0  0  0  0  0  0  0
  144.4569   76.5963  219.8619 H   0  0  0  0  0  0  0  0  0  0  0  0
  143.8414   75.4280  218.5477 H   0  0  0  0  0  0  0  0  0  0  0  0
  140.0468   76.2925  219.1151 H   0  0  0  0  0  0  0  0  0  0  0  0
  138.4709   78.1285  218.9148 H   0  0  0  0  0  0  0  0  0  0  0  0
  139.2348   80.4714  219.1007 H   0  0  0  0  0  0  0  0  0  0  0  0
  141.6371   80.9353  219.4916 H   0  0  0  0  0  0  0  0  0  0  0  0
  143.2273   79.0937  219.6925 H   0  0  0  0  0  0  0  0  0  0  0  0
  138.0439   77.4289  222.5610 H   0  0  0  0  0  0  0  0  0  0  0  0
  138.2596   79.8113  223.1539 H   0  0  0  0  0  0  0  0  0  0  0  0
  139.7400   81.7533  223.6380 H   0  0  0  0  0  0  0  0  0  0  0  0
  142.0672   82.5926  223.8514 H   0  0  0  0  0  0  0  0  0  0  0  0
  144.0119   81.1194  223.4894 H   0  0  0  0  0  0  0  0  0  0  0  0
  143.6503   78.7256  222.8937 H   0  0  0  0  0  0  0  0  0  0  0  0
  1  2  2  0
  2  3  1  0
  3  4  1  0
  4  5  1  0
  5  6  2  0
  5  7  1  0
  7  8  1  0
  8  9  1  0
  9 10  1  0
  9 11  1  0
 11 12  1  0
 12 13  1  0
 13 14  1  0
 14 15  1  0
 15 16  2  0
 16 17  1  0
 17 18  2  0
 18 19  1  0
 19 20  2  0
  2 21  1  0
 21 22  2  0
 22 23  1  0
 23 24  2  0
 24 25  1  0
 25 26  2  0
 26 27  1  0
 27 28  2  0
 28 29  1  0
 29 30  2  0
 12  7  1  0
 20 15  1  0
 30 21  1  0
 29 24  1  0
  3 31  1  0
  4 32  1  0
  4 33  1  0
  8 34  1  0
  8 35  1  0
  9 36  1  1
 10 37  1  0
 11 38  1  0
 11 39  1  0
 12 40  1  1
 13 41  1  0
 13 42  1  0
 16 43  1  0
 17 44  1  0
 18 45  1  0
 19 46  1  0
 20 47  1  0
 22 48  1  0
 23 49  1  0
 25 50  1  0
 26 51  1  0
 27 52  1  0
 28 53  1  0
M  END
>  <smiles>  (15) 
O=C(NCC(=O)N1C[C@@H](O)C[C@H]1COc1ccccc1)c1ccc2ccccc2n1

>  <score_type>  (15) 
oracle

>  <origin>  (15) 
autodockgpu

>  <m_score__min__energy>  (15) 
-9.0899999999999999

>  <m_primary>  (15) 
energy

>  <rmsd>  (15) 
7.722449558592274

>  <m_score__min__rmsd>  (15) 
7.722449558592274

>  <meeko>  (15) 
{"free_energy": -6.8, "intermolecular_energy": -9.19, "internal_energy": -3.77, "cluster_size": 24, "cluster_id": 4, "rank_in_cluster": 14}

>  <energy>  (15) 
-8.39

>  <cluster_rmsd>  (15) 
0.88

>  <cluster>  (15) 
2

$$$$

     RDKit          3D

 53 56  0  0  0  0  0  0  0  0999 V2000
  139.5660   74.5130  222.5000 O   0  0  0  0  0  0  0  0  0  0  0  0
  140.0720   75.4000  221.7610 C   0  0  0  0  0  0  0  0  0  0  0  0
  140.5730   75.1260  220.4540 N   0  0  0  0  0  0  0  0  0  0  0  0
  140.5010   73.7520  219.9370 C   0  0  0  0  0  0  0  0  0  0  0  0
  141.6750   72.9960  220.4240 C   0  0  0  0  0  0  0  0  0  0  0  0
  141.4950   71.9840  221.1450 O   0  0  0  0  0  0  0  0  0  0  0  0
  143.0250   73.3380  220.1290 N   0  0  0  0  0  0  0  0  0  0  0  0
  143.9550   72.3610  219.5780 C   0  0  0  0  0  0  0  0  0  0  0  0
  145.1440   72.6860  220.5160 C   0  0  1  0  0  0  0  0  0  0  0  0
  146.3100   72.0960  220.1080 O   0  0  0  0  0  0  0  0  0  0  0  0
  145.1510   74.2160  220.3320 C   0  0  0  0  0  0  0  0  0  0  0  0
  143.6910   74.6350  220.3180 C   0  0  1  0  0  0  0  0  0  0  0  0
  143.3880   75.4940  219.0990 C   0  0  0  0  0  0  0  0  0  0  0  0
  142.7310   76.6110  219.2830 O   0  0  0  0  0  0  0  0  0  0  0  0
  142.4260   77.8350  218.9560 C   0  0  0  0  0  0  0  0  0  0  0  0
  141.3950   78.4610  219.7070 C   0  0  0  0  0  0  0  0  0  0  0  0
  140.9750   79.7330  219.4760 C   0  0  0  0  0  0  0  0  0  0  0  0
  141.5430   80.4820  218.4830 C   0  0  0  0  0  0  0  0  0  0  0  0
  142.5420   79.9340  217.7250 C   0  0  0  0  0  0  0  0  0  0  0  0
  142.9580   78.6470  217.9700 C   0  0  0  0  0  0  0  0  0  0  0  0
  140.1500   76.7690  222.2640 C   0  0  0  0  0  0  0  0  0  0  0  0
  139.0120   77.4780  222.5800 C   0  0  0  0  0  0  0  0  0  0  0  0
  139.0330   78.7730  223.0580 C   0  0  0  0  0  0  0  0  0  0  0  0
  140.2630   79.3950  223.2300 C   0  0  0  0  0  0  0  0  0  0  0  0
  140.3470   80.7020  223.7100 C   0  0  0  0  0  0  0  0  0  0  0  0
  141.6120   81.2340  223.8470 C   0  0  0  0  0  0  0  0  0  0  0  0
  142.7570   80.5270  223.5320 C   0  0  0  0  0  0  0  0  0  0  0  0
  142.6400   79.2320  223.0570 C   0  0  0  0  0  0  0  0  0  0  0  0
  141.3980   78.6650  222.9070 C   0  0  0  0  0  0  0  0  0  0  0  0
  141.3310   77.4000  222.4420 N   0  0  0  0  0  0  0  0  0  0  0  0
  140.9730   75.9100  219.9100 H   0  0  0  0  0  0  0  0  0  0  0  0
  139.5781   73.2711  220.2933 H   0  0  0  0  0  0  0  0  0  0  0  0
  140.4968   73.7669  218.8371 H   0  0  0  0  0  0  0  0  0  0  0  0
  143.5975   71.3272  219.6938 H   0  0  0  0  0  0  0  0  0  0  0  0
  144.1492   72.4201  218.4969 H   0  0  0  0  0  0  0  0  0  0  0  0
  145.0542   72.3293  221.5527 H   0  0  0  0  0  0  0  0  0  0  0  0
  146.6390   71.5210  220.8450 H   0  0  0  0  0  0  0  0  0  0  0  0
  145.6810   74.7001  221.1655 H   0  0  0  0  0  0  0  0  0  0  0  0
  145.6670   74.5113  219.4065 H   0  0  0  0  0  0  0  0  0  0  0  0
  143.3923   75.2087  221.2077 H   0  0  0  0  0  0  0  0  0  0  0  0
  144.3506   75.7533  218.6340 H   0  0  0  0  0  0  0  0  0  0  0  0
  142.7139   74.8760  218.4877 H   0  0  0  0  0  0  0  0  0  0  0  0
  140.9137   77.8890  220.5139 H   0  0  0  0  0  0  0  0  0  0  0  0
  140.1720   80.1631  220.0926 H   0  0  0  0  0  0  0  0  0  0  0  0
  141.2017   81.5108  218.2960 H   0  0  0  0  0  0  0  0  0  0  0  0
  143.0107   80.5218  216.9220 H   0  0  0  0  0  0  0  0  0  0  0  0
  143.7638   78.2372  217.3433 H   0  0  0  0  0  0  0  0  0  0  0  0
  138.0368   76.9873  222.4446 H   0  0  0  0  0  0  0  0  0  0  0  0
  138.0975   79.3000  223.2971 H   0  0  0  0  0  0  0  0  0  0  0  0
  139.4474   81.2806  223.9669 H   0  0  0  0  0  0  0  0  0  0  0  0
  141.7138   82.2630  224.2223 H   0  0  0  0  0  0  0  0  0  0  0  0
  143.7482   80.9873  223.6571 H   0  0  0  0  0  0  0  0  0  0  0  0
  143.5418   78.6570  222.7997 H   0  0  0  0  0  0  0  0  0  0  0  0
  1  2  2  0
  2  3  1  0
  3  4  1  0
  4  5  1  0
  5  6  2  0
  5  7  1  0
  7  8  1  0
  8  9  1  0
  9 10  1  0
  9 11  1  0
 11 12  1  0
 12 13  1  0
 13 14  1  0
 14 15  1  0
 15 16  2  0
 16 17  1  0
 17 18  2  0
 18 19  1  0
 19 20  2  0
  2 21  1  0
 21 22  2  0
 22 23  1  0
 23 24  2  0
 24 25  1  0
 25 26  2  0
 26 27  1  0
 27 28  2  0
 28 29  1  0
 29 30  2  0
 12  7  1  0
 20 15  1  0
 30 21  1  0
 29 24  1  0
  3 31  1  0
  4 32  1  0
  4 33  1  0
  8 34  1  0
  8 35  1  0
  9 36  1  1
 10 37  1  0
 11 38  1  0
 11 39  1  0
 12 40  1  1
 13 41  1  0
 13 42  1  0
 16 43  1  0
 17 44  1  0
 18 45  1  0
 19 46  1  0
 20 47  1  0
 22 48  1  0
 23 49  1  0
 25 50  1  0
 26 51  1  0
 27 52  1  0
 28 53  1  0
M  END
>  <smiles>  (16) 
O=C(NCC(=O)N1C[C@@H](O)C[C@H]1COc1ccccc1)c1ccc2ccccc2n1

>  <score_type>  (16) 
oracle

>  <origin>  (16) 
autodockgpu

>  <m_score__min__energy>  (16) 
-9.0899999999999999

>  <m_primary>  (16) 
energy

>  <rmsd>  (16) 
7.511928749838645

>  <m_score__min__rmsd>  (16) 
7.511928749838645

>  <meeko>  (16) 
{"free_energy": -7.46, "intermolecular_energy": -9.85, "internal_energy": -3.07, "cluster_size": 24, "cluster_id": 4, "rank_in_cluster": 3}

>  <energy>  (16) 
-7.89

>  <cluster_rmsd>  (16) 
0.74

>  <cluster>  (16) 
2

$$$$

     RDKit          3D

 53 56  0  0  0  0  0  0  0  0999 V2000
  140.4010   73.3920  222.4420 O   0  0  0  0  0  0  0  0  0  0  0  0
  140.3520   72.1320  222.3860 C   0  0  0  0  0  0  0  0  0  0  0  0
  140.4020   71.4090  221.1570 N   0  0  0  0  0  0  0  0  0  0  0  0
  140.5130   72.1560  219.8960 C   0  0  0  0  0  0  0  0  0  0  0  0
  141.8660   71.9480  219.3340 C   0  0  0  0  0  0  0  0  0  0  0  0
  142.1160   70.8790  218.7230 O   0  0  0  0  0  0  0  0  0  0  0  0
  142.9290   72.8870  219.4390 N   0  0  0  0  0  0  0  0  0  0  0  0
  144.1720   72.7150  218.6980 C   0  0  0  0  0  0  0  0  0  0  0  0
  145.1330   73.0290  219.8710 C   0  0  1  0  0  0  0  0  0  0  0  0
  146.4280   73.1970  219.4590 O   0  0  0  0  0  0  0  0  0  0  0  0
  144.4780   74.3430  220.3390 C   0  0  0  0  0  0  0  0  0  0  0  0
  142.9800   74.1090  220.2540 C   0  0  1  0  0  0  0  0  0  0  0  0
  142.3040   75.2220  219.4660 C   0  0  0  0  0  0  0  0  0  0  0  0
  141.6100   76.1110  220.1310 O   0  0  0  0  0  0  0  0  0  0  0  0
  141.5170   77.1760  220.8750 C   0  0  0  0  0  0  0  0  0  0  0  0
  141.0420   76.9910  222.2020 C   0  0  0  0  0  0  0  0  0  0  0  0
  140.8940   78.0120  223.0870 C   0  0  0  0  0  0  0  0  0  0  0  0
  141.2050   79.2940  222.7270 C   0  0  0  0  0  0  0  0  0  0  0  0
  141.6660   79.5350  221.4620 C   0  0  0  0  0  0  0  0  0  0  0  0
  141.8120   78.4940  220.5760 C   0  0  0  0  0  0  0  0  0  0  0  0
  140.2410   71.3800  223.6330 C   0  0  0  0  0  0  0  0  0  0  0  0
  139.6450   70.1380  223.6650 C   0  0  0  0  0  0  0  0  0  0  0  0
  139.5160   69.3890  224.8170 C   0  0  0  0  0  0  0  0  0  0  0  0
  140.0090   69.9110  226.0060 C   0  0  0  0  0  0  0  0  0  0  0  0
  139.9080   69.2000  227.2010 C   0  0  0  0  0  0  0  0  0  0  0  0
  140.4270   69.8020  228.3290 C   0  0  0  0  0  0  0  0  0  0  0  0
  141.0250   71.0470  228.3020 C   0  0  0  0  0  0  0  0  0  0  0  0
  141.1110   71.7280  227.0990 C   0  0  0  0  0  0  0  0  0  0  0  0
  140.6060   71.1630  225.9530 C   0  0  0  0  0  0  0  0  0  0  0  0
  140.7120   71.8620  224.8040 N   0  0  0  0  0  0  0  0  0  0  0  0
  140.3570   70.3770  221.1960 H   0  0  0  0  0  0  0  0  0  0  0  0
  139.7574   71.7929  219.1838 H   0  0  0  0  0  0  0  0  0  0  0  0
  140.3468   73.2275  220.0813 H   0  0  0  0  0  0  0  0  0  0  0  0
  144.2956   71.6914  218.3146 H   0  0  0  0  0  0  0  0  0  0  0  0
  144.2911   73.3203  217.7873 H   0  0  0  0  0  0  0  0  0  0  0  0
  145.2343   72.2454  220.6364 H   0  0  0  0  0  0  0  0  0  0  0  0
  146.5880   74.1670  219.3330 H   0  0  0  0  0  0  0  0  0  0  0  0
  144.7724   74.5708  221.3741 H   0  0  0  0  0  0  0  0  0  0  0  0
  144.7913   75.1959  219.7190 H   0  0  0  0  0  0  0  0  0  0  0  0
  142.4890   74.0569  221.2370 H   0  0  0  0  0  0  0  0  0  0  0  0
  143.0921   75.7627  218.9214 H   0  0  0  0  0  0  0  0  0  0  0  0
  141.5613   74.7046  218.8410 H   0  0  0  0  0  0  0  0  0  0  0  0
  140.7819   75.9732  222.5281 H   0  0  0  0  0  0  0  0  0  0  0  0
  140.5210   77.8053  224.1010 H   0  0  0  0  0  0  0  0  0  0  0  0
  141.0862   80.1194  223.4443 H   0  0  0  0  0  0  0  0  0  0  0  0
  141.9195   80.5601  221.1541 H   0  0  0  0  0  0  0  0  0  0  0  0
  142.1864   78.7232  219.5674 H   0  0  0  0  0  0  0  0  0  0  0  0
  139.2523   69.7227  222.7252 H   0  0  0  0  0  0  0  0  0  0  0  0
  139.0335   68.4007  224.7941 H   0  0  0  0  0  0  0  0  0  0  0  0
  139.4372   68.2067  227.2427 H   0  0  0  0  0  0  0  0  0  0  0  0
  140.3619   69.2687  229.2889 H   0  0  0  0  0  0  0  0  0  0  0  0
  141.4276   71.4918  229.2240 H   0  0  0  0  0  0  0  0  0  0  0  0
  141.5834   72.7207  227.0611 H   0  0  0  0  0  0  0  0  0  0  0  0
  1  2  2  0
  2  3  1  0
  3  4  1  0
  4  5  1  0
  5  6  2  0
  5  7  1  0
  7  8  1  0
  8  9  1  0
  9 10  1  0
  9 11  1  0
 11 12  1  0
 12 13  1  0
 13 14  1  0
 14 15  1  0
 15 16  2  0
 16 17  1  0
 17 18  2  0
 18 19  1  0
 19 20  2  0
  2 21  1  0
 21 22  2  0
 22 23  1  0
 23 24  2  0
 24 25  1  0
 25 26  2  0
 26 27  1  0
 27 28  2  0
 28 29  1  0
 29 30  2  0
 12  7  1  0
 20 15  1  0
 30 21  1  0
 29 24  1  0
  3 31  1  0
  4 32  1  0
  4 33  1  0
  8 34  1  0
  8 35  1  0
  9 36  1  1
 10 37  1  0
 11 38  1  0
 11 39  1  0
 12 40  1  1
 13 41  1  0
 13 42  1  0
 16 43  1  0
 17 44  1  0
 18 45  1  0
 19 46  1  0
 20 47  1  0
 22 48  1  0
 23 49  1  0
 25 50  1  0
 26 51  1  0
 27 52  1  0
 28 53  1  0
M  END
>  <smiles>  (17) 
O=C(NCC(=O)N1C[C@@H](O)C[C@H]1COc1ccccc1)c1ccc2ccccc2n1

>  <score_type>  (17) 
oracle

>  <origin>  (17) 
autodockgpu

>  <m_score__min__energy>  (17) 
-9.0899999999999999

>  <m_primary>  (17) 
energy

>  <rmsd>  (17) 
3.48375535759952

>  <m_score__min__rmsd>  (17) 
3.48375535759952

>  <meeko>  (17) 
{"free_energy": -8.78, "intermolecular_energy": -11.16, "internal_energy": -1.45, "cluster_size": 13, "cluster_id": 1, "rank_in_cluster": 6}

>  <energy>  (17) 
-8.46

>  <cluster_rmsd>  (17) 
0.0

>  <cluster>  (17) 
3

$$$$

     RDKit          3D

 53 56  0  0  0  0  0  0  0  0999 V2000
  139.1310   74.9830  222.5340 O   0  0  0  0  0  0  0  0  0  0  0  0
  139.9990   75.7150  221.9860 C   0  0  0  0  0  0  0  0  0  0  0  0
  140.8390   75.2610  220.9260 N   0  0  0  0  0  0  0  0  0  0  0  0
  140.6930   73.8800  220.4450 C   0  0  0  0  0  0  0  0  0  0  0  0
  141.8850   73.1030  220.8520 C   0  0  0  0  0  0  0  0  0  0  0  0
  141.7610   72.2030  221.7200 O   0  0  0  0  0  0  0  0  0  0  0  0
  143.1910   73.3060  220.3250 N   0  0  0  0  0  0  0  0  0  0  0  0
  143.9440   72.2140  219.7210 C   0  0  0  0  0  0  0  0  0  0  0  0
  145.2900   72.5030  220.4320 C   0  0  1  0  0  0  0  0  0  0  0  0
  146.3280   71.7860  219.9000 O   0  0  0  0  0  0  0  0  0  0  0  0
  145.3800   74.0090  220.1200 C   0  0  0  0  0  0  0  0  0  0  0  0
  143.9720   74.5500  220.2960 C   0  0  1  0  0  0  0  0  0  0  0  0
  143.5400   75.3420  219.0700 C   0  0  0  0  0  0  0  0  0  0  0  0
  142.6700   76.3050  219.2360 O   0  0  0  0  0  0  0  0  0  0  0  0
  142.2700   77.5350  219.0770 C   0  0  0  0  0  0  0  0  0  0  0  0
  142.9370   78.3020  218.0830 C   0  0  0  0  0  0  0  0  0  0  0  0
  142.6230   79.5960  217.8100 C   0  0  0  0  0  0  0  0  0  0  0  0
  141.6260   80.2300  218.4990 C   0  0  0  0  0  0  0  0  0  0  0  0
  140.9470   79.5430  219.4680 C   0  0  0  0  0  0  0  0  0  0  0  0
  141.2740   78.2340  219.7340 C   0  0  0  0  0  0  0  0  0  0  0  0
  140.1530   77.0890  222.4570 C   0  0  0  0  0  0  0  0  0  0  0  0
  139.0570   77.8590  222.7790 C   0  0  0  0  0  0  0  0  0  0  0  0
  139.1500   79.1610  223.2280 C   0  0  0  0  0  0  0  0  0  0  0  0
  140.4120   79.7270  223.3620 C   0  0  0  0  0  0  0  0  0  0  0  0
  140.5680   81.0380  223.8110 C   0  0  0  0  0  0  0  0  0  0  0  0
  141.8600   81.5110  223.9110 C   0  0  0  0  0  0  0  0  0  0  0  0
  142.9630   80.7430  223.5890 C   0  0  0  0  0  0  0  0  0  0  0  0
  142.7740   79.4440  223.1460 C   0  0  0  0  0  0  0  0  0  0  0  0
  141.5030   78.9360  223.0330 C   0  0  0  0  0  0  0  0  0  0  0  0
  141.3670   77.6660  222.5970 N   0  0  0  0  0  0  0  0  0  0  0  0
  141.5260   75.9240  220.5300 H   0  0  0  0  0  0  0  0  0  0  0  0
  139.7907   73.4294  220.8841 H   0  0  0  0  0  0  0  0  0  0  0  0
  140.6005   73.8745  219.3489 H   0  0  0  0  0  0  0  0  0  0  0  0
  143.5345   71.2262  219.9791 H   0  0  0  0  0  0  0  0  0  0  0  0
  143.9641   72.1765  218.6218 H   0  0  0  0  0  0  0  0  0  0  0  0
  145.3429   72.2319  221.4968 H   0  0  0  0  0  0  0  0  0  0  0  0
  146.7280   71.2400  220.6240 H   0  0  0  0  0  0  0  0  0  0  0  0
  146.0713   74.5046  220.8176 H   0  0  0  0  0  0  0  0  0  0  0  0
  145.7609   74.1911  219.1042 H   0  0  0  0  0  0  0  0  0  0  0  0
  143.8638   75.2108  221.1687 H   0  0  0  0  0  0  0  0  0  0  0  0
  144.4452   75.7904  218.6346 H   0  0  0  0  0  0  0  0  0  0  0  0
  143.0195   74.6075  218.4379 H   0  0  0  0  0  0  0  0  0  0  0  0
  143.7449   77.8260  217.5080 H   0  0  0  0  0  0  0  0  0  0  0  0
  143.1755   80.1379  217.0283 H   0  0  0  0  0  0  0  0  0  0  0  0
  141.3736   81.2774  218.2772 H   0  0  0  0  0  0  0  0  0  0  0  0
  140.1420   80.0362  220.0326 H   0  0  0  0  0  0  0  0  0  0  0  0
  140.7079   77.7103  220.5184 H   0  0  0  0  0  0  0  0  0  0  0  0
  138.0568   77.4136  222.6729 H   0  0  0  0  0  0  0  0  0  0  0  0
  138.2459   79.7372  223.4741 H   0  0  0  0  0  0  0  0  0  0  0  0
  139.7027   81.6646  224.0728 H   0  0  0  0  0  0  0  0  0  0  0  0
  142.0188   82.5416  224.2613 H   0  0  0  0  0  0  0  0  0  0  0  0
  143.9775   81.1576  223.6832 H   0  0  0  0  0  0  0  0  0  0  0  0
  143.6414   78.8199  222.8849 H   0  0  0  0  0  0  0  0  0  0  0  0
  1  2  2  0
  2  3  1  0
  3  4  1  0
  4  5  1  0
  5  6  2  0
  5  7  1  0
  7  8  1  0
  8  9  1  0
  9 10  1  0
  9 11  1  0
 11 12  1  0
 12 13  1  0
 13 14  1  0
 14 15  1  0
 15 16  2  0
 16 17  1  0
 17 18  2  0
 18 19  1  0
 19 20  2  0
  2 21  1  0
 21 22  2  0
 22 23  1  0
 23 24  2  0
 24 25  1  0
 25 26  2  0
 26 27  1  0
 27 28  2  0
 28 29  1  0
 29 30  2  0
 12  7  1  0
 20 15  1  0
 30 21  1  0
 29 24  1  0
  3 31  1  0
  4 32  1  0
  4 33  1  0
  8 34  1  0
  8 35  1  0
  9 36  1  1
 10 37  1  0
 11 38  1  0
 11 39  1  0
 12 40  1  1
 13 41  1  0
 13 42  1  0
 16 43  1  0
 17 44  1  0
 18 45  1  0
 19 46  1  0
 20 47  1  0
 22 48  1  0
 23 49  1  0
 25 50  1  0
 26 51  1  0
 27 52  1  0
 28 53  1  0
M  END
>  <smiles>  (18) 
O=C(NCC(=O)N1C[C@@H](O)C[C@H]1COc1ccccc1)c1ccc2ccccc2n1

>  <score_type>  (18) 
oracle

>  <origin>  (18) 
autodockgpu

>  <m_score__min__energy>  (18) 
-9.0899999999999999

>  <m_primary>  (18) 
energy

>  <rmsd>  (18) 
7.720073937738042

>  <m_score__min__rmsd>  (18) 
7.720073937738042

>  <meeko>  (18) 
{"free_energy": -7.31, "intermolecular_energy": -9.69, "internal_energy": -3.02, "cluster_size": 24, "cluster_id": 4, "rank_in_cluster": 8}

>  <energy>  (18) 
-8.23

>  <cluster_rmsd>  (18) 
0.94

>  <cluster>  (18) 
3

$$$$

     RDKit          3D

 53 56  0  0  0  0  0  0  0  0999 V2000
  138.8960   75.0840  222.3400 O   0  0  0  0  0  0  0  0  0  0  0  0
  140.0150   75.6310  222.1380 C   0  0  0  0  0  0  0  0  0  0  0  0
  141.1360   74.9270  221.6070 N   0  0  0  0  0  0  0  0  0  0  0  0
  140.9910   73.5020  221.2780 C   0  0  0  0  0  0  0  0  0  0  0  0
  141.8050   73.2020  220.0800 C   0  0  0  0  0  0  0  0  0  0  0  0
  141.2490   72.6940  219.0740 O   0  0  0  0  0  0  0  0  0  0  0  0
  143.2030   73.4500  219.9800 N   0  0  0  0  0  0  0  0  0  0  0  0
  144.0740   72.5860  219.1930 C   0  0  0  0  0  0  0  0  0  0  0  0
  145.2030   72.4540  220.2460 C   0  0  1  0  0  0  0  0  0  0  0  0
  146.3350   71.8810  219.7310 O   0  0  0  0  0  0  0  0  0  0  0  0
  145.3800   73.9520  220.5610 C   0  0  0  0  0  0  0  0  0  0  0  0
  143.9760   74.5310  220.6060 C   0  0  1  0  0  0  0  0  0  0  0  0
  143.8700   75.7580  219.7110 C   0  0  0  0  0  0  0  0  0  0  0  0
  142.6900   76.3030  219.5540 O   0  0  0  0  0  0  0  0  0  0  0  0
  141.9160   77.3220  219.3100 C   0  0  0  0  0  0  0  0  0  0  0  0
  142.5560   78.5450  218.9670 C   0  0  0  0  0  0  0  0  0  0  0  0
  141.8740   79.6870  218.6880 C   0  0  0  0  0  0  0  0  0  0  0  0
  140.5070   79.7060  218.7260 C   0  0  0  0  0  0  0  0  0  0  0  0
  139.8350   78.5600  219.0500 C   0  0  0  0  0  0  0  0  0  0  0  0
  140.5360   77.4110  219.3300 C   0  0  0  0  0  0  0  0  0  0  0  0
  140.1710   77.0460  222.4630 C   0  0  0  0  0  0  0  0  0  0  0  0
  139.0740   77.8620  222.6410 C   0  0  0  0  0  0  0  0  0  0  0  0
  139.1700   79.2040  222.9480 C   0  0  0  0  0  0  0  0  0  0  0  0
  140.4330   79.7640  223.0850 C   0  0  0  0  0  0  0  0  0  0  0  0
  140.5920   81.1140  223.3950 C   0  0  0  0  0  0  0  0  0  0  0  0
  141.8860   81.5780  223.5100 C   0  0  0  0  0  0  0  0  0  0  0  0
  142.9890   80.7650  223.3330 C   0  0  0  0  0  0  0  0  0  0  0  0
  142.7980   79.4280  223.0260 C   0  0  0  0  0  0  0  0  0  0  0  0
  141.5250   78.9270  222.9020 C   0  0  0  0  0  0  0  0  0  0  0  0
  141.3870   77.6190  222.6030 N   0  0  0  0  0  0  0  0  0  0  0  0
  142.0190   75.4470  221.4710 H   0  0  0  0  0  0  0  0  0  0  0  0
  141.3390   72.8905  222.1236 H   0  0  0  0  0  0  0  0  0  0  0  0
  139.9342   73.2712  221.0781 H   0  0  0  0  0  0  0  0  0  0  0  0
  143.6053   71.6199  218.9542 H   0  0  0  0  0  0  0  0  0  0  0  0
  144.3667   72.9537  218.1985 H   0  0  0  0  0  0  0  0  0  0  0  0
  144.9872   71.8066  221.1087 H   0  0  0  0  0  0  0  0  0  0  0  0
  146.7330   71.3030  220.4310 H   0  0  0  0  0  0  0  0  0  0  0  0
  145.8804   74.0833  221.5318 H   0  0  0  0  0  0  0  0  0  0  0  0
  146.0027   74.4549  219.8064 H   0  0  0  0  0  0  0  0  0  0  0  0
  143.6585   74.8318  221.6153 H   0  0  0  0  0  0  0  0  0  0  0  0
  144.5330   76.5283  220.1318 H   0  0  0  0  0  0  0  0  0  0  0  0
  144.1397   75.3921  218.7093 H   0  0  0  0  0  0  0  0  0  0  0  0
  143.6550   78.5676  218.9256 H   0  0  0  0  0  0  0  0  0  0  0  0
  142.4256   80.6029  218.4297 H   0  0  0  0  0  0  0  0  0  0  0  0
  139.9557   80.6304  218.4990 H   0  0  0  0  0  0  0  0  0  0  0  0
  138.7356   78.5575  219.0865 H   0  0  0  0  0  0  0  0  0  0  0  0
  139.9641   76.5068  219.5857 H   0  0  0  0  0  0  0  0  0  0  0  0
  138.0720   77.4212  222.5329 H   0  0  0  0  0  0  0  0  0  0  0  0
  138.2660   79.8164  223.0812 H   0  0  0  0  0  0  0  0  0  0  0  0
  139.7268   81.7775  223.5409 H   0  0  0  0  0  0  0  0  0  0  0  0
  142.0463   82.6389  223.7526 H   0  0  0  0  0  0  0  0  0  0  0  0
  144.0051   81.1740  223.4345 H   0  0  0  0  0  0  0  0  0  0  0  0
  143.6656   78.7674  222.8815 H   0  0  0  0  0  0  0  0  0  0  0  0
  1  2  2  0
  2  3  1  0
  3  4  1  0
  4  5  1  0
  5  6  2  0
  5  7  1  0
  7  8  1  0
  8  9  1  0
  9 10  1  0
  9 11  1  0
 11 12  1  0
 12 13  1  0
 13 14  1  0
 14 15  1  0
 15 16  2  0
 16 17  1  0
 17 18  2  0
 18 19  1  0
 19 20  2  0
  2 21  1  0
 21 22  2  0
 22 23  1  0
 23 24  2  0
 24 25  1  0
 25 26  2  0
 26 27  1  0
 27 28  2  0
 28 29  1  0
 29 30  2  0
 12  7  1  0
 20 15  1  0
 30 21  1  0
 29 24  1  0
  3 31  1  0
  4 32  1  0
  4 33  1  0
  8 34  1  0
  8 35  1  0
  9 36  1  1
 10 37  1  0
 11 38  1  0
 11 39  1  0
 12 40  1  1
 13 41  1  0
 13 42  1  0
 16 43  1  0
 17 44  1  0
 18 45  1  0
 19 46  1  0
 20 47  1  0
 22 48  1  0
 23 49  1  0
 25 50  1  0
 26 51  1  0
 27 52  1  0
 28 53  1  0
M  END
>  <smiles>  (19) 
O=C(NCC(=O)N1C[C@@H](O)C[C@H]1COc1ccccc1)c1ccc2ccccc2n1

>  <score_type>  (19) 
oracle

>  <origin>  (19) 
autodockgpu

>  <m_score__min__energy>  (19) 
-9.0899999999999999

>  <m_primary>  (19) 
energy

>  <rmsd>  (19) 
7.778381477856683

>  <m_score__min__rmsd>  (19) 
7.778381477856683

>  <meeko>  (19) 
{"free_energy": -6.8, "intermolecular_energy": -9.18, "internal_energy": -3.62, "cluster_size": 24, "cluster_id": 4, "rank_in_cluster": 15}

>  <energy>  (19) 
-8.1

>  <cluster_rmsd>  (19) 
0.59

>  <cluster>  (19) 
3

$$$$

     RDKit          3D

 53 56  0  0  0  0  0  0  0  0999 V2000
  139.7650   74.4780  222.3350 O   0  0  0  0  0  0  0  0  0  0  0  0
  140.1280   75.4180  221.5760 C   0  0  0  0  0  0  0  0  0  0  0  0
  140.5040   75.2140  220.2150 N   0  0  0  0  0  0  0  0  0  0  0  0
  140.4720   73.8510  219.6650 C   0  0  0  0  0  0  0  0  0  0  0  0
  141.6160   73.0880  220.2100 C   0  0  0  0  0  0  0  0  0  0  0  0
  141.3980   72.0170  220.8280 O   0  0  0  0  0  0  0  0  0  0  0  0
  142.9760   73.4870  220.0840 N   0  0  0  0  0  0  0  0  0  0  0  0
  144.0380   72.5120  219.8700 C   0  0  0  0  0  0  0  0  0  0  0  0
  145.0270   73.0820  220.9170 C   0  0  1  0  0  0  0  0  0  0  0  0
  146.2760   72.5300  220.8140 O   0  0  0  0  0  0  0  0  0  0  0  0
  144.9850   74.5570  220.4730 C   0  0  0  0  0  0  0  0  0  0  0  0
  143.5300   74.8470  220.1490 C   0  0  1  0  0  0  0  0  0  0  0  0
  143.3990   75.4690  218.7660 C   0  0  0  0  0  0  0  0  0  0  0  0
  142.6220   76.5140  218.6330 O   0  0  0  0  0  0  0  0  0  0  0  0
  142.4280   77.7970  218.5250 C   0  0  0  0  0  0  0  0  0  0  0  0
  141.9620   78.4750  219.6850 C   0  0  0  0  0  0  0  0  0  0  0  0
  141.7160   79.8120  219.7160 C   0  0  0  0  0  0  0  0  0  0  0  0
  141.9130   80.5800  218.6020 C   0  0  0  0  0  0  0  0  0  0  0  0
  142.3610   79.9840  217.4540 C   0  0  0  0  0  0  0  0  0  0  0  0
  142.6060   78.6320  217.4360 C   0  0  0  0  0  0  0  0  0  0  0  0
  140.1640   76.7760  222.1120 C   0  0  0  0  0  0  0  0  0  0  0  0
  139.0030   77.4570  222.4070 C   0  0  0  0  0  0  0  0  0  0  0  0
  138.9850   78.7410  222.9140 C   0  0  0  0  0  0  0  0  0  0  0  0
  140.1970   79.3800  223.1420 C   0  0  0  0  0  0  0  0  0  0  0  0
  140.2410   80.6760  223.6540 C   0  0  0  0  0  0  0  0  0  0  0  0
  141.4910   81.2270  223.8450 C   0  0  0  0  0  0  0  0  0  0  0  0
  142.6590   80.5480  223.5520 C   0  0  0  0  0  0  0  0  0  0  0  0
  142.5810   79.2620  223.0440 C   0  0  0  0  0  0  0  0  0  0  0  0
  141.3550   78.6780  222.8400 C   0  0  0  0  0  0  0  0  0  0  0  0
  141.3270   77.4230  222.3440 N   0  0  0  0  0  0  0  0  0  0  0  0
  140.7890   76.0370  219.6590 H   0  0  0  0  0  0  0  0  0  0  0  0
  139.5304   73.3594  219.9508 H   0  0  0  0  0  0  0  0  0  0  0  0
  140.5386   73.8900  218.5677 H   0  0  0  0  0  0  0  0  0  0  0  0
  143.7210   71.4853  220.1051 H   0  0  0  0  0  0  0  0  0  0  0  0
  144.4135   72.4092  218.8412 H   0  0  0  0  0  0  0  0  0  0  0  0
  144.7771   72.8932  221.9715 H   0  0  0  0  0  0  0  0  0  0  0  0
  146.3990   71.9020  221.5710 H   0  0  0  0  0  0  0  0  0  0  0  0
  145.3352   75.2120  221.2844 H   0  0  0  0  0  0  0  0  0  0  0  0
  145.6381   74.7391  219.6068 H   0  0  0  0  0  0  0  0  0  0  0  0
  143.0509   75.5315  220.8645 H   0  0  0  0  0  0  0  0  0  0  0  0
  144.4077   75.7685  218.4452 H   0  0  0  0  0  0  0  0  0  0  0  0
  142.9165   74.6890  218.1587 H   0  0  0  0  0  0  0  0  0  0  0  0
  141.7925   77.8899  220.6009 H   0  0  0  0  0  0  0  0  0  0  0  0
  141.3558   80.2793  220.6444 H   0  0  0  0  0  0  0  0  0  0  0  0
  141.7143   81.6616  218.6280 H   0  0  0  0  0  0  0  0  0  0  0  0
  142.5245   80.5860  216.5480 H   0  0  0  0  0  0  0  0  0  0  0  0
  142.9661   78.1856  216.4973 H   0  0  0  0  0  0  0  0  0  0  0  0
  138.0420   76.9521  222.2296 H   0  0  0  0  0  0  0  0  0  0  0  0
  138.0327   79.2464  223.1324 H   0  0  0  0  0  0  0  0  0  0  0  0
  139.3230   81.2324  223.8941 H   0  0  0  0  0  0  0  0  0  0  0  0
  141.5614   82.2485  224.2469 H   0  0  0  0  0  0  0  0  0  0  0  0
  143.6370   81.0227  223.7201 H   0  0  0  0  0  0  0  0  0  0  0  0
  143.5008   78.7085  222.8040 H   0  0  0  0  0  0  0  0  0  0  0  0
  1  2  2  0
  2  3  1  0
  3  4  1  0
  4  5  1  0
  5  6  2  0
  5  7  1  0
  7  8  1  0
  8  9  1  0
  9 10  1  0
  9 11  1  0
 11 12  1  0
 12 13  1  0
 13 14  1  0
 14 15  1  0
 15 16  2  0
 16 17  1  0
 17 18  2  0
 18 19  1  0
 19 20  2  0
  2 21  1  0
 21 22  2  0
 22 23  1  0
 23 24  2  0
 24 25  1  0
 25 26  2  0
 26 27  1  0
 27 28  2  0
 28 29  1  0
 29 30  2  0
 12  7  1  0
 20 15  1  0
 30 21  1  0
 29 24  1  0
  3 31  1  0
  4 32  1  0
  4 33  1  0
  8 34  1  0
  8 35  1  0
  9 36  1  1
 10 37  1  0
 11 38  1  0
 11 39  1  0
 12 40  1  1
 13 41  1  0
 13 42  1  0
 16 43  1  0
 17 44  1  0
 18 45  1  0
 19 46  1  0
 20 47  1  0
 22 48  1  0
 23 49  1  0
 25 50  1  0
 26 51  1  0
 27 52  1  0
 28 53  1  0
M  END
>  <smiles>  (20) 
O=C(NCC(=O)N1C[C@@H](O)C[C@H]1COc1ccccc1)c1ccc2ccccc2n1

>  <score_type>  (20) 
oracle

>  <origin>  (20) 
autodockgpu

>  <m_score__min__energy>  (20) 
-9.0899999999999999

>  <m_primary>  (20) 
energy

>  <rmsd>  (20) 
7.4966135314699995

>  <m_score__min__rmsd>  (20) 
7.4966135314699995

>  <meeko>  (20) 
{"free_energy": -7.46, "intermolecular_energy": -9.84, "internal_energy": -3.04, "cluster_size": 24, "cluster_id": 4, "rank_in_cluster": 4}

>  <energy>  (20) 
-8.07

>  <cluster_rmsd>  (20) 
1.03

>  <cluster>  (20) 
3

$$$$

     RDKit          3D

 53 56  0  0  0  0  0  0  0  0999 V2000
  138.9000   75.1020  222.3000 O   0  0  0  0  0  0  0  0  0  0  0  0
  140.0310   75.6410  222.1520 C   0  0  0  0  0  0  0  0  0  0  0  0
  141.1730   74.9270  221.6800 N   0  0  0  0  0  0  0  0  0  0  0  0
  141.0350   73.5010  221.3500 C   0  0  0  0  0  0  0  0  0  0  0  0
  141.8220   73.2140  220.1310 C   0  0  0  0  0  0  0  0  0  0  0  0
  141.2410   72.7350  219.1260 O   0  0  0  0  0  0  0  0  0  0  0  0
  143.2210   73.4440  220.0100 N   0  0  0  0  0  0  0  0  0  0  0  0
  144.0700   72.5670  219.2130 C   0  0  0  0  0  0  0  0  0  0  0  0
  145.2120   72.4220  220.2490 C   0  0  1  0  0  0  0  0  0  0  0  0
  146.3290   71.8330  219.7190 O   0  0  0  0  0  0  0  0  0  0  0  0
  145.4130   73.9180  220.5580 C   0  0  0  0  0  0  0  0  0  0  0  0
  144.0180   74.5160  220.6230 C   0  0  1  0  0  0  0  0  0  0  0  0
  143.9150   75.7420  219.7270 C   0  0  0  0  0  0  0  0  0  0  0  0
  142.9390   76.5850  219.9510 O   0  0  0  0  0  0  0  0  0  0  0  0
  141.9570   77.3410  219.5510 C   0  0  0  0  0  0  0  0  0  0  0  0
  142.1750   78.7460  219.5830 C   0  0  0  0  0  0  0  0  0  0  0  0
  141.2380   79.6510  219.1950 C   0  0  0  0  0  0  0  0  0  0  0  0
  140.0150   79.2370  218.7460 C   0  0  0  0  0  0  0  0  0  0  0  0
  139.7460   77.8970  218.6930 C   0  0  0  0  0  0  0  0  0  0  0  0
  140.7010   76.9910  219.0870 C   0  0  0  0  0  0  0  0  0  0  0  0
  140.1800   77.0560  222.4780 C   0  0  0  0  0  0  0  0  0  0  0  0
  139.0800   77.8710  222.6350 C   0  0  0  0  0  0  0  0  0  0  0  0
  139.1680   79.2140  222.9420 C   0  0  0  0  0  0  0  0  0  0  0  0
  140.4290   79.7750  223.1020 C   0  0  0  0  0  0  0  0  0  0  0  0
  140.5810   81.1260  223.4140 C   0  0  0  0  0  0  0  0  0  0  0  0
  141.8720   81.5910  223.5520 C   0  0  0  0  0  0  0  0  0  0  0  0
  142.9790   80.7780  223.3960 C   0  0  0  0  0  0  0  0  0  0  0  0
  142.7950   79.4410  223.0870 C   0  0  0  0  0  0  0  0  0  0  0  0
  141.5250   78.9390  222.9410 C   0  0  0  0  0  0  0  0  0  0  0  0
  141.3930   77.6300  222.6400 N   0  0  0  0  0  0  0  0  0  0  0  0
  142.0650   75.4410  221.5860 H   0  0  0  0  0  0  0  0  0  0  0  0
  141.4107   72.8907  222.1845 H   0  0  0  0  0  0  0  0  0  0  0  0
  139.9761   73.2590  221.1761 H   0  0  0  0  0  0  0  0  0  0  0  0
  143.5854   71.6066  218.9830 H   0  0  0  0  0  0  0  0  0  0  0  0
  144.3534   72.9294  218.2138 H   0  0  0  0  0  0  0  0  0  0  0  0
  145.0005   71.7789  221.1160 H   0  0  0  0  0  0  0  0  0  0  0  0
  146.7210   71.2390  220.4090 H   0  0  0  0  0  0  0  0  0  0  0  0
  145.9297   74.0446  221.5208 H   0  0  0  0  0  0  0  0  0  0  0  0
  146.0305   74.4110  219.7927 H   0  0  0  0  0  0  0  0  0  0  0  0
  143.7200   74.8229  221.6364 H   0  0  0  0  0  0  0  0  0  0  0  0
  144.8582   76.2995  219.8253 H   0  0  0  0  0  0  0  0  0  0  0  0
  143.7036   75.3353  218.7270 H   0  0  0  0  0  0  0  0  0  0  0  0
  143.1474   79.1177  219.9384 H   0  0  0  0  0  0  0  0  0  0  0  0
  141.4659   80.7261  219.2427 H   0  0  0  0  0  0  0  0  0  0  0  0
  139.2582   79.9709  218.4319 H   0  0  0  0  0  0  0  0  0  0  0  0
  138.7669   77.5453  218.3356 H   0  0  0  0  0  0  0  0  0  0  0  0
  140.4517   75.9211  219.0301 H   0  0  0  0  0  0  0  0  0  0  0  0
  138.0807   77.4288  222.5093 H   0  0  0  0  0  0  0  0  0  0  0  0
  138.2610   79.8257  223.0573 H   0  0  0  0  0  0  0  0  0  0  0  0
  139.7127   81.7888  223.5438 H   0  0  0  0  0  0  0  0  0  0  0  0
  142.0271   82.6523  223.7962 H   0  0  0  0  0  0  0  0  0  0  0  0
  143.9927   81.1879  223.5158 H   0  0  0  0  0  0  0  0  0  0  0  0
  143.6656   78.7811  222.9585 H   0  0  0  0  0  0  0  0  0  0  0  0
  1  2  2  0
  2  3  1  0
  3  4  1  0
  4  5  1  0
  5  6  2  0
  5  7  1  0
  7  8  1  0
  8  9  1  0
  9 10  1  0
  9 11  1  0
 11 12  1  0
 12 13  1  0
 13 14  1  0
 14 15  1  0
 15 16  2  0
 16 17  1  0
 17 18  2  0
 18 19  1  0
 19 20  2  0
  2 21  1  0
 21 22  2  0
 22 23  1  0
 23 24  2  0
 24 25  1  0
 25 26  2  0
 26 27  1  0
 27 28  2  0
 28 29  1  0
 29 30  2  0
 12  7  1  0
 20 15  1  0
 30 21  1  0
 29 24  1  0
  3 31  1  0
  4 32  1  0
  4 33  1  0
  8 34  1  0
  8 35  1  0
  9 36  1  1
 10 37  1  0
 11 38  1  0
 11 39  1  0
 12 40  1  1
 13 41  1  0
 13 42  1  0
 16 43  1  0
 17 44  1  0
 18 45  1  0
 19 46  1  0
 20 47  1  0
 22 48  1  0
 23 49  1  0
 25 50  1  0
 26 51  1  0
 27 52  1  0
 28 53  1  0
M  END
>  <smiles>  (21) 
O=C(NCC(=O)N1C[C@@H](O)C[C@H]1COc1ccccc1)c1ccc2ccccc2n1

>  <score_type>  (21) 
oracle

>  <origin>  (21) 
autodockgpu

>  <m_score__min__energy>  (21) 
-9.0899999999999999

>  <m_primary>  (21) 
energy

>  <rmsd>  (21) 
7.7863468547032815

>  <m_score__min__rmsd>  (21) 
7.7863468547032815

>  <meeko>  (21) 
{"free_energy": -6.68, "intermolecular_energy": -9.06, "internal_energy": -3.78, "cluster_size": 24, "cluster_id": 4, "rank_in_cluster": 21}

>  <energy>  (21) 
-8.05

>  <cluster_rmsd>  (21) 
1.08

>  <cluster>  (21) 
3

$$$$

     RDKit          3D

 53 56  0  0  0  0  0  0  0  0999 V2000
  140.9780   71.6300  221.4410 O   0  0  0  0  0  0  0  0  0  0  0  0
  140.3170   72.1460  222.3830 C   0  0  0  0  0  0  0  0  0  0  0  0
  139.6900   73.4230  222.2800 N   0  0  0  0  0  0  0  0  0  0  0  0
  139.8140   74.1780  221.0240 C   0  0  0  0  0  0  0  0  0  0  0  0
  140.8680   75.2030  221.1850 C   0  0  0  0  0  0  0  0  0  0  0  0
  141.0040   75.7710  222.2970 O   0  0  0  0  0  0  0  0  0  0  0  0
  141.7580   75.6050  220.1500 N   0  0  0  0  0  0  0  0  0  0  0  0
  141.9480   74.7950  218.9540 C   0  0  0  0  0  0  0  0  0  0  0  0
  143.4950   74.8710  218.9220 C   0  0  1  0  0  0  0  0  0  0  0  0
  144.0200   74.3980  217.7490 O   0  0  0  0  0  0  0  0  0  0  0  0
  143.6380   76.3980  219.0700 C   0  0  0  0  0  0  0  0  0  0  0  0
  142.5960   76.8110  220.0950 C   0  0  1  0  0  0  0  0  0  0  0  0
  141.7380   77.9500  219.5620 C   0  0  0  0  0  0  0  0  0  0  0  0
  141.5120   78.9690  220.3510 O   0  0  0  0  0  0  0  0  0  0  0  0
  141.6750   79.6170  221.4690 C   0  0  0  0  0  0  0  0  0  0  0  0
  141.3970   81.0120  221.4480 C   0  0  0  0  0  0  0  0  0  0  0  0
  141.5250   81.8110  222.5400 C   0  0  0  0  0  0  0  0  0  0  0  0
  141.9360   81.2920  223.7360 C   0  0  0  0  0  0  0  0  0  0  0  0
  142.2180   79.9560  223.8190 C   0  0  0  0  0  0  0  0  0  0  0  0
  142.0850   79.1580  222.7080 C   0  0  0  0  0  0  0  0  0  0  0  0
  140.1880   71.4060  223.6350 C   0  0  0  0  0  0  0  0  0  0  0  0
  139.5690   70.1750  223.6750 C   0  0  0  0  0  0  0  0  0  0  0  0
  139.4220   69.4380  224.8320 C   0  0  0  0  0  0  0  0  0  0  0  0
  139.9220   69.9590  226.0180 C   0  0  0  0  0  0  0  0  0  0  0  0
  139.8040   69.2590  227.2180 C   0  0  0  0  0  0  0  0  0  0  0  0
  140.3320   69.8590  228.3430 C   0  0  0  0  0  0  0  0  0  0  0  0
  140.9550   71.0920  228.3080 C   0  0  0  0  0  0  0  0  0  0  0  0
  141.0560   71.7620  227.1010 C   0  0  0  0  0  0  0  0  0  0  0  0
  140.5430   71.1990  225.9580 C   0  0  0  0  0  0  0  0  0  0  0  0
  140.6650   71.8870  224.8040 N   0  0  0  0  0  0  0  0  0  0  0  0
  139.1660   73.7770  223.0980 H   0  0  0  0  0  0  0  0  0  0  0  0
  140.0858   73.4937  220.2068 H   0  0  0  0  0  0  0  0  0  0  0  0
  138.8560   74.6622  220.7833 H   0  0  0  0  0  0  0  0  0  0  0  0
  141.5792   73.7662  219.0790 H   0  0  0  0  0  0  0  0  0  0  0  0
  141.4190   75.1228  218.0469 H   0  0  0  0  0  0  0  0  0  0  0  0
  144.0248   74.2659  219.6724 H   0  0  0  0  0  0  0  0  0  0  0  0
  144.8330   74.9250  217.5410 H   0  0  0  0  0  0  0  0  0  0  0  0
  144.6471   76.6562  219.4235 H   0  0  0  0  0  0  0  0  0  0  0  0
  143.4903   76.9145  218.1101 H   0  0  0  0  0  0  0  0  0  0  0  0
  143.0289   77.1440  221.0498 H   0  0  0  0  0  0  0  0  0  0  0  0
  142.2332   78.3382  218.6597 H   0  0  0  0  0  0  0  0  0  0  0  0
  140.7474   77.4982  219.4054 H   0  0  0  0  0  0  0  0  0  0  0  0
  141.0626   81.4655  220.5032 H   0  0  0  0  0  0  0  0  0  0  0  0
  141.2960   82.8840  222.4608 H   0  0  0  0  0  0  0  0  0  0  0  0
  142.0385   81.9396  224.6192 H   0  0  0  0  0  0  0  0  0  0  0  0
  142.5506   79.5212  224.7731 H   0  0  0  0  0  0  0  0  0  0  0  0
  142.3191   78.0881  222.8103 H   0  0  0  0  0  0  0  0  0  0  0  0
  139.1722   69.7593  222.7371 H   0  0  0  0  0  0  0  0  0  0  0  0
  138.9199   68.4594  224.8153 H   0  0  0  0  0  0  0  0  0  0  0  0
  139.3135   68.2756  227.2657 H   0  0  0  0  0  0  0  0  0  0  0  0
  140.2538   69.3345  229.3067 H   0  0  0  0  0  0  0  0  0  0  0  0
  141.3653   71.5353  229.2273 H   0  0  0  0  0  0  0  0  0  0  0  0
  141.5471   72.7453  227.0572 H   0  0  0  0  0  0  0  0  0  0  0  0
  1  2  2  0
  2  3  1  0
  3  4  1  0
  4  5  1  0
  5  6  2  0
  5  7  1  0
  7  8  1  0
  8  9  1  0
  9 10  1  0
  9 11  1  0
 11 12  1  0
 12 13  1  0
 13 14  1  0
 14 15  1  0
 15 16  2  0
 16 17  1  0
 17 18  2  0
 18 19  1  0
 19 20  2  0
  2 21  1  0
 21 22  2  0
 22 23  1  0
 23 24  2  0
 24 25  1  0
 25 26  2  0
 26 27  1  0
 27 28  2  0
 28 29  1  0
 29 30  2  0
 12  7  1  0
 20 15  1  0
 30 21  1  0
 29 24  1  0
  3 31  1  0
  4 32  1  0
  4 33  1  0
  8 34  1  0
  8 35  1  0
  9 36  1  1
 10 37  1  0
 11 38  1  0
 11 39  1  0
 12 40  1  1
 13 41  1  0
 13 42  1  0
 16 43  1  0
 17 44  1  0
 18 45  1  0
 19 46  1  0
 20 47  1  0
 22 48  1  0
 23 49  1  0
 25 50  1  0
 26 51  1  0
 27 52  1  0
 28 53  1  0
M  END
>  <smiles>  (22) 
O=C(NCC(=O)N1C[C@@H](O)C[C@H]1COc1ccccc1)c1ccc2ccccc2n1

>  <score_type>  (22) 
oracle

>  <origin>  (22) 
autodockgpu

>  <m_score__min__energy>  (22) 
-9.0899999999999999

>  <m_primary>  (22) 
energy

>  <rmsd>  (22) 
2.0509046833828304

>  <m_score__min__rmsd>  (22) 
2.0509046833828304

>  <meeko>  (22) 
{"free_energy": -9.09, "intermolecular_energy": -11.47, "internal_energy": -1.48, "cluster_size": 13, "cluster_id": 1, "rank_in_cluster": 1}

>  <energy>  (22) 
-7.95

>  <cluster_rmsd>  (22) 
1.03

>  <cluster>  (22) 
3

$$$$

     RDKit          3D

 53 56  0  0  0  0  0  0  0  0999 V2000
  140.6450   73.3970  222.4170 O   0  0  0  0  0  0  0  0  0  0  0  0
  140.5010   72.1440  222.3680 C   0  0  0  0  0  0  0  0  0  0  0  0
  140.5430   71.4070  221.1470 N   0  0  0  0  0  0  0  0  0  0  0  0
  140.7630   72.1300  219.8860 C   0  0  0  0  0  0  0  0  0  0  0  0
  142.1620   71.9250  219.4550 C   0  0  0  0  0  0  0  0  0  0  0  0
  142.4940   70.8190  218.9600 O   0  0  0  0  0  0  0  0  0  0  0  0
  143.1850   72.9080  219.5630 N   0  0  0  0  0  0  0  0  0  0  0  0
  144.4640   72.7530  218.8810 C   0  0  0  0  0  0  0  0  0  0  0  0
  145.3620   73.1520  220.0780 C   0  0  1  0  0  0  0  0  0  0  0  0
  146.6660   73.3530  219.7110 O   0  0  0  0  0  0  0  0  0  0  0  0
  144.6400   74.4580  220.4630 C   0  0  0  0  0  0  0  0  0  0  0  0
  143.1570   74.1630  220.3270 C   0  0  1  0  0  0  0  0  0  0  0  0
  142.4730   75.2160  219.4660 C   0  0  0  0  0  0  0  0  0  0  0  0
  141.3910   75.7840  219.9330 O   0  0  0  0  0  0  0  0  0  0  0  0
  140.3810   75.8350  220.7540 C   0  0  0  0  0  0  0  0  0  0  0  0
  139.2330   75.0720  220.4050 C   0  0  0  0  0  0  0  0  0  0  0  0
  138.1080   75.0320  221.1670 C   0  0  0  0  0  0  0  0  0  0  0  0
  138.0330   75.7430  222.3330 C   0  0  0  0  0  0  0  0  0  0  0  0
  139.1070   76.4960  222.7220 C   0  0  0  0  0  0  0  0  0  0  0  0
  140.2380   76.5280  221.9430 C   0  0  0  0  0  0  0  0  0  0  0  0
  140.2810   71.4160  223.6140 C   0  0  0  0  0  0  0  0  0  0  0  0
  139.6270   70.2030  223.6260 C   0  0  0  0  0  0  0  0  0  0  0  0
  139.3950   69.4770  224.7770 C   0  0  0  0  0  0  0  0  0  0  0  0
  139.8420   69.9940  225.9870 C   0  0  0  0  0  0  0  0  0  0  0  0
  139.6380   69.3050  227.1820 C   0  0  0  0  0  0  0  0  0  0  0  0
  140.1170   69.8990  228.3310 C   0  0  0  0  0  0  0  0  0  0  0  0
  140.7730   71.1150  228.3260 C   0  0  0  0  0  0  0  0  0  0  0  0
  140.9610   71.7730  227.1220 C   0  0  0  0  0  0  0  0  0  0  0  0
  140.4980   71.2160  225.9550 C   0  0  0  0  0  0  0  0  0  0  0  0
  140.7040   71.8930  224.8060 N   0  0  0  0  0  0  0  0  0  0  0  0
  140.4160   70.3820  221.1920 H   0  0  0  0  0  0  0  0  0  0  0  0
  140.0789   71.7451  219.1154 H   0  0  0  0  0  0  0  0  0  0  0  0
  140.5715   73.2032  220.0331 H   0  0  0  0  0  0  0  0  0  0  0  0
  144.6411   71.7199  218.5474 H   0  0  0  0  0  0  0  0  0  0  0  0
  144.5995   73.3239  217.9506 H   0  0  0  0  0  0  0  0  0  0  0  0
  145.4595   72.4054  220.8799 H   0  0  0  0  0  0  0  0  0  0  0  0
  146.7490   74.2770  219.3640 H   0  0  0  0  0  0  0  0  0  0  0  0
  144.8818   74.7389  221.4987 H   0  0  0  0  0  0  0  0  0  0  0  0
  144.9477   75.2965  219.8209 H   0  0  0  0  0  0  0  0  0  0  0  0
  142.6279   74.1321  221.2909 H   0  0  0  0  0  0  0  0  0  0  0  0
  143.2071   76.0139  219.2806 H   0  0  0  0  0  0  0  0  0  0  0  0
  142.1318   74.6645  218.5775 H   0  0  0  0  0  0  0  0  0  0  0  0
  139.2564   74.4863  219.4742 H   0  0  0  0  0  0  0  0  0  0  0  0
  137.2511   74.4229  220.8433 H   0  0  0  0  0  0  0  0  0  0  0  0
  137.1223   75.7099  222.9491 H   0  0  0  0  0  0  0  0  0  0  0  0
  139.0649   77.0746  223.6566 H   0  0  0  0  0  0  0  0  0  0  0  0
  141.0830   77.1431  222.2860 H   0  0  0  0  0  0  0  0  0  0  0  0
  139.2716   69.7923  222.6694 H   0  0  0  0  0  0  0  0  0  0  0  0
  138.8687   68.5119  224.7373 H   0  0  0  0  0  0  0  0  0  0  0  0
  139.1202   68.3348  227.2072 H   0  0  0  0  0  0  0  0  0  0  0  0
  139.9706   69.3831  229.2914 H   0  0  0  0  0  0  0  0  0  0  0  0
  141.1407   71.5542  229.2651 H   0  0  0  0  0  0  0  0  0  0  0  0
  141.4813   72.7420  227.1003 H   0  0  0  0  0  0  0  0  0  0  0  0
  1  2  2  0
  2  3  1  0
  3  4  1  0
  4  5  1  0
  5  6  2  0
  5  7  1  0
  7  8  1  0
  8  9  1  0
  9 10  1  0
  9 11  1  0
 11 12  1  0
 12 13  1  0
 13 14  1  0
 14 15  1  0
 15 16  2  0
 16 17  1  0
 17 18  2  0
 18 19  1  0
 19 20  2  0
  2 21  1  0
 21 22  2  0
 22 23  1  0
 23 24  2  0
 24 25  1  0
 25 26  2  0
 26 27  1  0
 27 28  2  0
 28 29  1  0
 29 30  2  0
 12  7  1  0
 20 15  1  0
 30 21  1  0
 29 24  1  0
  3 31  1  0
  4 32  1  0
  4 33  1  0
  8 34  1  0
  8 35  1  0
  9 36  1  1
 10 37  1  0
 11 38  1  0
 11 39  1  0
 12 40  1  1
 13 41  1  0
 13 42  1  0
 16 43  1  0
 17 44  1  0
 18 45  1  0
 19 46  1  0
 20 47  1  0
 22 48  1  0
 23 49  1  0
 25 50  1  0
 26 51  1  0
 27 52  1  0
 28 53  1  0
M  END
>  <smiles>  (23) 
O=C(NCC(=O)N1C[C@@H](O)C[C@H]1COc1ccccc1)c1ccc2ccccc2n1

>  <score_type>  (23) 
oracle

>  <origin>  (23) 
autodockgpu

>  <m_score__min__energy>  (23) 
-9.0899999999999999

>  <m_primary>  (23) 
energy

>  <rmsd>  (23) 
3.601500572789623

>  <m_score__min__rmsd>  (23) 
3.601500572789623

>  <meeko>  (23) 
{"free_energy": -7.89, "intermolecular_energy": -10.28, "internal_energy": -1.99, "cluster_size": 3, "cluster_id": 2, "rank_in_cluster": 3}

>  <energy>  (23) 
-7.76

>  <cluster_rmsd>  (23) 
0.95

>  <cluster>  (23) 
3

$$$$

     RDKit          3D

 53 56  0  0  0  0  0  0  0  0999 V2000
  138.7420   75.3940  222.3200 O   0  0  0  0  0  0  0  0  0  0  0  0
  139.8700   75.9010  222.0660 C   0  0  0  0  0  0  0  0  0  0  0  0
  140.8940   75.1990  221.3660 N   0  0  0  0  0  0  0  0  0  0  0  0
  140.6350   73.8230  220.9150 C   0  0  0  0  0  0  0  0  0  0  0  0
  141.8560   73.0150  221.1200 C   0  0  0  0  0  0  0  0  0  0  0  0
  141.8010   71.9990  221.8560 O   0  0  0  0  0  0  0  0  0  0  0  0
  143.1180   73.3100  220.5320 N   0  0  0  0  0  0  0  0  0  0  0  0
  143.9180   72.2750  219.8890 C   0  0  0  0  0  0  0  0  0  0  0  0
  145.2720   72.6570  220.5380 C   0  0  1  0  0  0  0  0  0  0  0  0
  146.3320   72.0160  219.9550 O   0  0  0  0  0  0  0  0  0  0  0  0
  145.2410   74.1660  220.2280 C   0  0  0  0  0  0  0  0  0  0  0  0
  143.8080   74.6060  220.4720 C   0  0  1  0  0  0  0  0  0  0  0  0
  143.2640   75.3660  219.2700 C   0  0  0  0  0  0  0  0  0  0  0  0
  142.7840   76.5670  219.4700 O   0  0  0  0  0  0  0  0  0  0  0  0
  141.8350   77.4550  219.3850 C   0  0  0  0  0  0  0  0  0  0  0  0
  142.1920   78.8030  219.6640 C   0  0  0  0  0  0  0  0  0  0  0  0
  141.3050   79.8320  219.6140 C   0  0  0  0  0  0  0  0  0  0  0  0
  139.9970   79.6060  219.2850 C   0  0  0  0  0  0  0  0  0  0  0  0
  139.5930   78.3290  219.0060 C   0  0  0  0  0  0  0  0  0  0  0  0
  140.4990   77.2980  219.0590 C   0  0  0  0  0  0  0  0  0  0  0  0
  140.1380   77.2660  222.5100 C   0  0  0  0  0  0  0  0  0  0  0  0
  139.1120   78.1210  222.8490 C   0  0  0  0  0  0  0  0  0  0  0  0
  139.3140   79.4180  223.2730 C   0  0  0  0  0  0  0  0  0  0  0  0
  140.6180   79.8900  223.3630 C   0  0  0  0  0  0  0  0  0  0  0  0
  140.8840   81.1920  223.7860 C   0  0  0  0  0  0  0  0  0  0  0  0
  142.2100   81.5680  223.8430 C   0  0  0  0  0  0  0  0  0  0  0  0
  143.2440   80.7150  223.5040 C   0  0  0  0  0  0  0  0  0  0  0  0
  142.9460   79.4280  223.0880 C   0  0  0  0  0  0  0  0  0  0  0  0
  141.6380   79.0150  223.0180 C   0  0  0  0  0  0  0  0  0  0  0  0
  141.3950   77.7520  222.6080 N   0  0  0  0  0  0  0  0  0  0  0  0
  141.7910   75.6850  221.1970 H   0  0  0  0  0  0  0  0  0  0  0  0
  139.8059   73.3935  221.4965 H   0  0  0  0  0  0  0  0  0  0  0  0
  140.3633   73.8247  219.8491 H   0  0  0  0  0  0  0  0  0  0  0  0
  143.5917   71.2604  220.1612 H   0  0  0  0  0  0  0  0  0  0  0  0
  143.8898   72.2410  218.7899 H   0  0  0  0  0  0  0  0  0  0  0  0
  145.3934   72.3889  221.5979 H   0  0  0  0  0  0  0  0  0  0  0  0
  146.7290   71.4040  220.6260 H   0  0  0  0  0  0  0  0  0  0  0  0
  145.9276   74.7087  220.8944 H   0  0  0  0  0  0  0  0  0  0  0  0
  145.5600   74.3753  219.1963 H   0  0  0  0  0  0  0  0  0  0  0  0
  143.6951   75.2567  221.3517 H   0  0  0  0  0  0  0  0  0  0  0  0
  144.0839   75.4581  218.5424 H   0  0  0  0  0  0  0  0  0  0  0  0
  142.3975   74.7746  218.9393 H   0  0  0  0  0  0  0  0  0  0  0  0
  143.2355   79.0236  219.9331 H   0  0  0  0  0  0  0  0  0  0  0  0
  141.6420   80.8544  219.8399 H   0  0  0  0  0  0  0  0  0  0  0  0
  139.2799   80.4392  219.2453 H   0  0  0  0  0  0  0  0  0  0  0  0
  138.5447   78.1284  218.7398 H   0  0  0  0  0  0  0  0  0  0  0  0
  140.1404   76.2841  218.8279 H   0  0  0  0  0  0  0  0  0  0  0  0
  138.0788   77.7502  222.7779 H   0  0  0  0  0  0  0  0  0  0  0  0
  138.4626   80.0638  223.5338 H   0  0  0  0  0  0  0  0  0  0  0  0
  140.0756   81.8855  224.0609 H   0  0  0  0  0  0  0  0  0  0  0  0
  142.4549   82.5888  224.1718 H   0  0  0  0  0  0  0  0  0  0  0  0
  144.2888   81.0538  223.5639 H   0  0  0  0  0  0  0  0  0  0  0  0
  143.7566   78.7369  222.8138 H   0  0  0  0  0  0  0  0  0  0  0  0
  1  2  2  0
  2  3  1  0
  3  4  1  0
  4  5  1  0
  5  6  2  0
  5  7  1  0
  7  8  1  0
  8  9  1  0
  9 10  1  0
  9 11  1  0
 11 12  1  0
 12 13  1  0
 13 14  1  0
 14 15  1  0
 15 16  2  0
 16 17  1  0
 17 18  2  0
 18 19  1  0
 19 20  2  0
  2 21  1  0
 21 22  2  0
 22 23  1  0
 23 24  2  0
 24 25  1  0
 25 26  2  0
 26 27  1  0
 27 28  2  0
 28 29  1  0
 29 30  2  0
 12  7  1  0
 20 15  1  0
 30 21  1  0
 29 24  1  0
  3 31  1  0
  4 32  1  0
  4 33  1  0
  8 34  1  0
  8 35  1  0
  9 36  1  1
 10 37  1  0
 11 38  1  0
 11 39  1  0
 12 40  1  1
 13 41  1  0
 13 42  1  0
 16 43  1  0
 17 44  1  0
 18 45  1  0
 19 46  1  0
 20 47  1  0
 22 48  1  0
 23 49  1  0
 25 50  1  0
 26 51  1  0
 27 52  1  0
 28 53  1  0
M  END
>  <smiles>  (24) 
O=C(NCC(=O)N1C[C@@H](O)C[C@H]1COc1ccccc1)c1ccc2ccccc2n1

>  <score_type>  (24) 
oracle

>  <origin>  (24) 
autodockgpu

>  <m_score__min__energy>  (24) 
-9.0899999999999999

>  <m_primary>  (24) 
energy

>  <rmsd>  (24) 
7.78856674749867

>  <m_score__min__rmsd>  (24) 
7.78856674749867

>  <meeko>  (24) 
{"free_energy": -6.82, "intermolecular_energy": -9.21, "internal_energy": -3.63, "cluster_size": 24, "cluster_id": 4, "rank_in_cluster": 13}

>  <energy>  (24) 
-7.7

>  <cluster_rmsd>  (24) 
1.03

>  <cluster>  (24) 
3

$$$$

     RDKit          3D

 53 56  0  0  0  0  0  0  0  0999 V2000
  140.1450   71.2730  221.2780 O   0  0  0  0  0  0  0  0  0  0  0  0
  139.9650   71.9310  222.3400 C   0  0  0  0  0  0  0  0  0  0  0  0
  139.7270   73.3370  222.3480 N   0  0  0  0  0  0  0  0  0  0  0  0
  139.6880   74.0610  221.0690 C   0  0  0  0  0  0  0  0  0  0  0  0
  140.5850   75.2330  221.1550 C   0  0  0  0  0  0  0  0  0  0  0  0
  140.5690   75.9410  222.1930 O   0  0  0  0  0  0  0  0  0  0  0  0
  141.4850   75.6300  220.1260 N   0  0  0  0  0  0  0  0  0  0  0  0
  141.6430   74.8430  218.9100 C   0  0  0  0  0  0  0  0  0  0  0  0
  143.1910   74.8670  218.8730 C   0  0  1  0  0  0  0  0  0  0  0  0
  143.6950   74.4060  217.6860 O   0  0  0  0  0  0  0  0  0  0  0  0
  143.3870   76.3840  219.0580 C   0  0  0  0  0  0  0  0  0  0  0  0
  142.3630   76.8070  220.0970 C   0  0  1  0  0  0  0  0  0  0  0  0
  141.5430   77.9870  219.5960 C   0  0  0  0  0  0  0  0  0  0  0  0
  141.6260   79.1160  220.2530 O   0  0  0  0  0  0  0  0  0  0  0  0
  141.7630   79.7990  221.3540 C   0  0  0  0  0  0  0  0  0  0  0  0
  142.0880   79.0660  222.5280 C   0  0  0  0  0  0  0  0  0  0  0  0
  142.2600   79.6490  223.7440 C   0  0  0  0  0  0  0  0  0  0  0  0
  142.1250   81.0010  223.8910 C   0  0  0  0  0  0  0  0  0  0  0  0
  141.8130   81.7610  222.7970 C   0  0  0  0  0  0  0  0  0  0  0  0
  141.6420   81.1600  221.5730 C   0  0  0  0  0  0  0  0  0  0  0  0
  140.0020   71.2230  223.6160 C   0  0  0  0  0  0  0  0  0  0  0  0
  139.5480   69.9270  223.7260 C   0  0  0  0  0  0  0  0  0  0  0  0
  139.5620   69.2160  224.9090 C   0  0  0  0  0  0  0  0  0  0  0  0
  140.0590   69.8360  226.0490 C   0  0  0  0  0  0  0  0  0  0  0  0
  140.0990   69.1670  227.2710 C   0  0  0  0  0  0  0  0  0  0  0  0
  140.6090   69.8660  228.3460 C   0  0  0  0  0  0  0  0  0  0  0  0
  141.0660   71.1660  228.2420 C   0  0  0  0  0  0  0  0  0  0  0  0
  141.0130   71.8020  227.0130 C   0  0  0  0  0  0  0  0  0  0  0  0
  140.5120   71.1410  225.9180 C   0  0  0  0  0  0  0  0  0  0  0  0
  140.4800   71.8000  224.7410 N   0  0  0  0  0  0  0  0  0  0  0  0
  139.5890   73.8030  223.2610 H   0  0  0  0  0  0  0  0  0  0  0  0
  140.0240   73.3974  220.2586 H   0  0  0  0  0  0  0  0  0  0  0  0
  138.6603   74.3926  220.8595 H   0  0  0  0  0  0  0  0  0  0  0  0
  141.2398   73.8247  219.0119 H   0  0  0  0  0  0  0  0  0  0  0  0
  141.1223   75.2104  218.0134 H   0  0  0  0  0  0  0  0  0  0  0  0
  143.7024   74.2257  219.6059 H   0  0  0  0  0  0  0  0  0  0  0  0
  142.9510   74.0000  217.1730 H   0  0  0  0  0  0  0  0  0  0  0  0
  144.4055   76.5986  219.4138 H   0  0  0  0  0  0  0  0  0  0  0  0
  143.2542   76.9289  218.1117 H   0  0  0  0  0  0  0  0  0  0  0  0
  142.8103   77.1015  221.0579 H   0  0  0  0  0  0  0  0  0  0  0  0
  141.8565   78.1872  218.5608 H   0  0  0  0  0  0  0  0  0  0  0  0
  140.4977   77.6699  219.7255 H   0  0  0  0  0  0  0  0  0  0  0  0
  142.2059   77.9752  222.4487 H   0  0  0  0  0  0  0  0  0  0  0  0
  142.5098   79.0276  224.6166 H   0  0  0  0  0  0  0  0  0  0  0  0
  142.2653   81.4716  224.8753 H   0  0  0  0  0  0  0  0  0  0  0  0
  141.6993   82.8505  222.8969 H   0  0  0  0  0  0  0  0  0  0  0  0
  141.3935   81.8006  220.7140 H   0  0  0  0  0  0  0  0  0  0  0  0
  139.1543   69.4336  222.8251 H   0  0  0  0  0  0  0  0  0  0  0  0
  139.1882   68.1822  224.9485 H   0  0  0  0  0  0  0  0  0  0  0  0
  139.7413   68.1318  227.3736 H   0  0  0  0  0  0  0  0  0  0  0  0
  140.6536   69.3680  229.3258 H   0  0  0  0  0  0  0  0  0  0  0  0
  141.4664   71.6884  229.1233 H   0  0  0  0  0  0  0  0  0  0  0  0
  141.3722   72.8369  226.9136 H   0  0  0  0  0  0  0  0  0  0  0  0
  1  2  2  0
  2  3  1  0
  3  4  1  0
  4  5  1  0
  5  6  2  0
  5  7  1  0
  7  8  1  0
  8  9  1  0
  9 10  1  0
  9 11  1  0
 11 12  1  0
 12 13  1  0
 13 14  1  0
 14 15  1  0
 15 16  2  0
 16 17  1  0
 17 18  2  0
 18 19  1  0
 19 20  2  0
  2 21  1  0
 21 22  2  0
 22 23  1  0
 23 24  2  0
 24 25  1  0
 25 26  2  0
 26 27  1  0
 27 28  2  0
 28 29  1  0
 29 30  2  0
 12  7  1  0
 20 15  1  0
 30 21  1  0
 29 24  1  0
  3 31  1  0
  4 32  1  0
  4 33  1  0
  8 34  1  0
  8 35  1  0
  9 36  1  1
 10 37  1  0
 11 38  1  0
 11 39  1  0
 12 40  1  1
 13 41  1  0
 13 42  1  0
 16 43  1  0
 17 44  1  0
 18 45  1  0
 19 46  1  0
 20 47  1  0
 22 48  1  0
 23 49  1  0
 25 50  1  0
 26 51  1  0
 27 52  1  0
 28 53  1  0
M  END
>  <smiles>  (25) 
O=C(NCC(=O)N1C[C@@H](O)C[C@H]1COc1ccccc1)c1ccc2ccccc2n1

>  <score_type>  (25) 
oracle

>  <origin>  (25) 
autodockgpu

>  <m_score__min__energy>  (25) 
-9.0899999999999999

>  <m_primary>  (25) 
energy

>  <rmsd>  (25) 
1.872678269487136

>  <m_score__min__rmsd>  (25) 
1.872678269487136

>  <meeko>  (25) 
{"free_energy": -8.39, "intermolecular_energy": -10.78, "internal_energy": -1.65, "cluster_size": 13, "cluster_id": 1, "rank_in_cluster": 9}

>  <energy>  (25) 
-6.96

>  <cluster_rmsd>  (25) 
1.55

>  <cluster>  (25) 
3

$$$$

     RDKit          3D

 53 56  0  0  0  0  0  0  0  0999 V2000
  139.8730   71.1600  221.2740 O   0  0  0  0  0  0  0  0  0  0  0  0
  139.8010   71.8430  222.3320 C   0  0  0  0  0  0  0  0  0  0  0  0
  139.6330   73.2590  222.3290 N   0  0  0  0  0  0  0  0  0  0  0  0
  139.5380   73.9620  221.0410 C   0  0  0  0  0  0  0  0  0  0  0  0
  139.7690   75.4060  221.2660 C   0  0  0  0  0  0  0  0  0  0  0  0
  139.9370   75.8230  222.4390 O   0  0  0  0  0  0  0  0  0  0  0  0
  139.8140   76.3800  220.2300 N   0  0  0  0  0  0  0  0  0  0  0  0
  138.8030   77.4240  220.1230 C   0  0  0  0  0  0  0  0  0  0  0  0
  138.5600   77.2920  218.5990 C   0  0  1  0  0  0  0  0  0  0  0  0
  137.8120   78.3220  218.0950 O   0  0  0  0  0  0  0  0  0  0  0  0
  140.0310   77.3410  218.1420 C   0  0  0  0  0  0  0  0  0  0  0  0
  140.8030   76.5070  219.1500 C   0  0  1  0  0  0  0  0  0  0  0  0
  141.9910   77.2840  219.6970 C   0  0  0  0  0  0  0  0  0  0  0  0
  141.9100   77.7540  220.9150 O   0  0  0  0  0  0  0  0  0  0  0  0
  141.8620   78.7370  221.7690 C   0  0  0  0  0  0  0  0  0  0  0  0
  141.4600   78.4160  223.0940 C   0  0  0  0  0  0  0  0  0  0  0  0
  141.3650   79.3400  224.0860 C   0  0  0  0  0  0  0  0  0  0  0  0
  141.6620   80.6530  223.8430 C   0  0  0  0  0  0  0  0  0  0  0  0
  142.0550   81.0240  222.5870 C   0  0  0  0  0  0  0  0  0  0  0  0
  142.1470   80.0790  221.5920 C   0  0  0  0  0  0  0  0  0  0  0  0
  139.8950   71.1550  223.6170 C   0  0  0  0  0  0  0  0  0  0  0  0
  139.4960   69.8430  223.7530 C   0  0  0  0  0  0  0  0  0  0  0  0
  139.5640   69.1500  224.9450 C   0  0  0  0  0  0  0  0  0  0  0  0
  140.0590   69.8060  226.0660 C   0  0  0  0  0  0  0  0  0  0  0  0
  140.1530   69.1570  227.2960 C   0  0  0  0  0  0  0  0  0  0  0  0
  140.6560   69.8920  228.3500 C   0  0  0  0  0  0  0  0  0  0  0  0
  141.0570   71.2070  228.2180 C   0  0  0  0  0  0  0  0  0  0  0  0
  140.9520   71.8230  226.9820 C   0  0  0  0  0  0  0  0  0  0  0  0
  140.4560   71.1260  225.9080 C   0  0  0  0  0  0  0  0  0  0  0  0
  140.3720   71.7670  224.7230 N   0  0  0  0  0  0  0  0  0  0  0  0
  139.5820   73.7470  223.2390 H   0  0  0  0  0  0  0  0  0  0  0  0
  140.2979   73.5697  220.3491 H   0  0  0  0  0  0  0  0  0  0  0  0
  138.5403   73.8074  220.6043 H   0  0  0  0  0  0  0  0  0  0  0  0
  137.9026   77.2006  220.7141 H   0  0  0  0  0  0  0  0  0  0  0  0
  139.0826   78.4213  220.4934 H   0  0  0  0  0  0  0  0  0  0  0  0
  137.9871   76.4105  218.2753 H   0  0  0  0  0  0  0  0  0  0  0  0
  138.1200   79.1630  218.5210 H   0  0  0  0  0  0  0  0  0  0  0  0
  140.1335   76.9149  217.1331 H   0  0  0  0  0  0  0  0  0  0  0  0
  140.4076   78.3735  218.0963 H   0  0  0  0  0  0  0  0  0  0  0  0
  141.1900   75.5654  218.7333 H   0  0  0  0  0  0  0  0  0  0  0  0
  142.8634   76.6148  219.6621 H   0  0  0  0  0  0  0  0  0  0  0  0
  142.0497   78.1794  219.0607 H   0  0  0  0  0  0  0  0  0  0  0  0
  141.2140   77.3696  223.3276 H   0  0  0  0  0  0  0  0  0  0  0  0
  141.0468   79.0296  225.0922 H   0  0  0  0  0  0  0  0  0  0  0  0
  141.5857   81.4000  224.6469 H   0  0  0  0  0  0  0  0  0  0  0  0
  142.2969   82.0755  222.3730 H   0  0  0  0  0  0  0  0  0  0  0  0
  142.4671   80.4110  220.5933 H   0  0  0  0  0  0  0  0  0  0  0  0
  139.1037   69.3218  222.8673 H   0  0  0  0  0  0  0  0  0  0  0  0
  139.2339   68.1025  225.0063 H   0  0  0  0  0  0  0  0  0  0  0  0
  139.8412   68.1095  227.4205 H   0  0  0  0  0  0  0  0  0  0  0  0
  140.7411   69.4109  229.3356 H   0  0  0  0  0  0  0  0  0  0  0  0
  141.4546   71.7579  229.0832 H   0  0  0  0  0  0  0  0  0  0  0  0
  141.2659   72.8703  226.8608 H   0  0  0  0  0  0  0  0  0  0  0  0
  1  2  2  0
  2  3  1  0
  3  4  1  0
  4  5  1  0
  5  6  2  0
  5  7  1  0
  7  8  1  0
  8  9  1  0
  9 10  1  0
  9 11  1  0
 11 12  1  0
 12 13  1  0
 13 14  1  0
 14 15  1  0
 15 16  2  0
 16 17  1  0
 17 18  2  0
 18 19  1  0
 19 20  2  0
  2 21  1  0
 21 22  2  0
 22 23  1  0
 23 24  2  0
 24 25  1  0
 25 26  2  0
 26 27  1  0
 27 28  2  0
 28 29  1  0
 29 30  2  0
 12  7  1  0
 20 15  1  0
 30 21  1  0
 29 24  1  0
  3 31  1  0
  4 32  1  0
  4 33  1  0
  8 34  1  0
  8 35  1  0
  9 36  1  1
 10 37  1  0
 11 38  1  0
 11 39  1  0
 12 40  1  6
 13 41  1  0
 13 42  1  0
 16 43  1  0
 17 44  1  0
 18 45  1  0
 19 46  1  0
 20 47  1  0
 22 48  1  0
 23 49  1  0
 25 50  1  0
 26 51  1  0
 27 52  1  0
 28 53  1  0
M  END
>  <smiles>  (26) 
O=C(NCC(=O)N1C[C@@H](O)C[C@H]1COc1ccccc1)c1ccc2ccccc2n1

>  <score_type>  (26) 
oracle

>  <origin>  (26) 
autodockgpu

>  <m_score__min__energy>  (26) 
-9.0899999999999999

>  <m_primary>  (26) 
energy

>  <rmsd>  (26) 
1.6160739577355112

>  <m_score__min__rmsd>  (26) 
1.6160739577355112

>  <meeko>  (26) 
{"free_energy": -7.66, "intermolecular_energy": -10.04, "internal_energy": -2.22, "cluster_size": 13, "cluster_id": 1, "rank_in_cluster": 12}

>  <energy>  (26) 
-7.59

>  <cluster_rmsd>  (26) 
0.0

>  <cluster>  (26) 
4

$$$$

     RDKit          3D

 53 56  0  0  0  0  0  0  0  0999 V2000
  138.7080   75.3870  222.2260 O   0  0  0  0  0  0  0  0  0  0  0  0
  139.8440   75.8860  221.9990 C   0  0  0  0  0  0  0  0  0  0  0  0
  140.8800   75.1770  221.3220 N   0  0  0  0  0  0  0  0  0  0  0  0
  140.6220   73.8040  220.8660 C   0  0  0  0  0  0  0  0  0  0  0  0
  141.8470   72.9980  221.0580 C   0  0  0  0  0  0  0  0  0  0  0  0
  141.7930   71.9620  221.7680 O   0  0  0  0  0  0  0  0  0  0  0  0
  143.1110   73.3150  220.4880 N   0  0  0  0  0  0  0  0  0  0  0  0
  143.9140   72.3060  219.8090 C   0  0  0  0  0  0  0  0  0  0  0  0
  145.2650   72.6630  220.4780 C   0  0  1  0  0  0  0  0  0  0  0  0
  146.3280   72.0460  219.8760 O   0  0  0  0  0  0  0  0  0  0  0  0
  145.2340   74.1840  220.2260 C   0  0  0  0  0  0  0  0  0  0  0  0
  143.8000   74.6130  220.4810 C   0  0  1  0  0  0  0  0  0  0  0  0
  143.2610   75.4190  219.3080 C   0  0  0  0  0  0  0  0  0  0  0  0
  142.8640   76.6450  219.5360 O   0  0  0  0  0  0  0  0  0  0  0  0
  142.0080   77.6190  219.4120 C   0  0  0  0  0  0  0  0  0  0  0  0
  140.6780   77.2630  219.0580 C   0  0  0  0  0  0  0  0  0  0  0  0
  139.6830   78.1750  218.8950 C   0  0  0  0  0  0  0  0  0  0  0  0
  139.9280   79.5090  219.0690 C   0  0  0  0  0  0  0  0  0  0  0  0
  141.1900   79.9140  219.4110 C   0  0  0  0  0  0  0  0  0  0  0  0
  142.1870   78.9820  219.5730 C   0  0  0  0  0  0  0  0  0  0  0  0
  140.1120   77.2500  222.4480 C   0  0  0  0  0  0  0  0  0  0  0  0
  139.0840   78.1080  222.7740 C   0  0  0  0  0  0  0  0  0  0  0  0
  139.2850   79.4040  223.2030 C   0  0  0  0  0  0  0  0  0  0  0  0
  140.5890   79.8710  223.3130 C   0  0  0  0  0  0  0  0  0  0  0  0
  140.8540   81.1710  223.7410 C   0  0  0  0  0  0  0  0  0  0  0  0
  142.1810   81.5420  223.8180 C   0  0  0  0  0  0  0  0  0  0  0  0
  143.2150   80.6850  223.4930 C   0  0  0  0  0  0  0  0  0  0  0  0
  142.9190   79.4000  223.0710 C   0  0  0  0  0  0  0  0  0  0  0  0
  141.6100   78.9920  222.9810 C   0  0  0  0  0  0  0  0  0  0  0  0
  141.3690   77.7310  222.5650 N   0  0  0  0  0  0  0  0  0  0  0  0
  141.7840   75.6570  221.1750 H   0  0  0  0  0  0  0  0  0  0  0  0
  139.7982   73.3691  221.4511 H   0  0  0  0  0  0  0  0  0  0  0  0
  140.3428   73.8106  219.8020 H   0  0  0  0  0  0  0  0  0  0  0  0
  143.5870   71.2815  220.0404 H   0  0  0  0  0  0  0  0  0  0  0  0
  143.8904   72.3145  218.7093 H   0  0  0  0  0  0  0  0  0  0  0  0
  145.3820   72.3538  221.5271 H   0  0  0  0  0  0  0  0  0  0  0  0
  146.7190   71.4050  220.5220 H   0  0  0  0  0  0  0  0  0  0  0  0
  145.9175   74.7011  220.9155 H   0  0  0  0  0  0  0  0  0  0  0  0
  145.5570   74.4332  219.2044 H   0  0  0  0  0  0  0  0  0  0  0  0
  143.6825   75.2287  221.3849 H   0  0  0  0  0  0  0  0  0  0  0  0
  144.0579   75.4686  218.5514 H   0  0  0  0  0  0  0  0  0  0  0  0
  142.3476   74.8862  219.0050 H   0  0  0  0  0  0  0  0  0  0  0  0
  140.4427   76.1989  218.9088 H   0  0  0  0  0  0  0  0  0  0  0  0
  138.6727   77.8371  218.6209 H   0  0  0  0  0  0  0  0  0  0  0  0
  139.1224   80.2461  218.9360 H   0  0  0  0  0  0  0  0  0  0  0  0
  141.4057   80.9829  219.5558 H   0  0  0  0  0  0  0  0  0  0  0  0
  143.1896   79.3417  219.8477 H   0  0  0  0  0  0  0  0  0  0  0  0
  138.0506   77.7410  222.6878 H   0  0  0  0  0  0  0  0  0  0  0  0
  138.4323   80.0527  223.4522 H   0  0  0  0  0  0  0  0  0  0  0  0
  140.0444   81.8675  224.0046 H   0  0  0  0  0  0  0  0  0  0  0  0
  142.4255   82.5613  224.1516 H   0  0  0  0  0  0  0  0  0  0  0  0
  144.2602   81.0195  223.5686 H   0  0  0  0  0  0  0  0  0  0  0  0
  143.7311   78.7062  222.8080 H   0  0  0  0  0  0  0  0  0  0  0  0
  1  2  2  0
  2  3  1  0
  3  4  1  0
  4  5  1  0
  5  6  2  0
  5  7  1  0
  7  8  1  0
  8  9  1  0
  9 10  1  0
  9 11  1  0
 11 12  1  0
 12 13  1  0
 13 14  1  0
 14 15  1  0
 15 16  2  0
 16 17  1  0
 17 18  2  0
 18 19  1  0
 19 20  2  0
  2 21  1  0
 21 22  2  0
 22 23  1  0
 23 24  2  0
 24 25  1  0
 25 26  2  0
 26 27  1  0
 27 28  2  0
 28 29  1  0
 29 30  2  0
 12  7  1  0
 20 15  1  0
 30 21  1  0
 29 24  1  0
  3 31  1  0
  4 32  1  0
  4 33  1  0
  8 34  1  0
  8 35  1  0
  9 36  1  1
 10 37  1  0
 11 38  1  0
 11 39  1  0
 12 40  1  1
 13 41  1  0
 13 42  1  0
 16 43  1  0
 17 44  1  0
 18 45  1  0
 19 46  1  0
 20 47  1  0
 22 48  1  0
 23 49  1  0
 25 50  1  0
 26 51  1  0
 27 52  1  0
 28 53  1  0
M  END
>  <smiles>  (27) 
O=C(NCC(=O)N1C[C@@H](O)C[C@H]1COc1ccccc1)c1ccc2ccccc2n1

>  <score_type>  (27) 
oracle

>  <origin>  (27) 
autodockgpu

>  <m_score__min__energy>  (27) 
-9.0899999999999999

>  <m_primary>  (27) 
energy

>  <rmsd>  (27) 
7.772126412157358

>  <m_score__min__rmsd>  (27) 
7.772126412157358

>  <meeko>  (27) 
{"free_energy": -6.83, "intermolecular_energy": -9.22, "internal_energy": -3.6, "cluster_size": 24, "cluster_id": 4, "rank_in_cluster": 12}

>  <energy>  (27) 
-7.55

>  <cluster_rmsd>  (27) 
0.67

>  <cluster>  (27) 
4

$$$$

     RDKit          3D

 53 56  0  0  0  0  0  0  0  0999 V2000
  139.1470   74.7350  222.4300 O   0  0  0  0  0  0  0  0  0  0  0  0
  139.9970   75.4680  221.8520 C   0  0  0  0  0  0  0  0  0  0  0  0
  140.8310   75.0000  220.7940 N   0  0  0  0  0  0  0  0  0  0  0  0
  140.7040   73.6040  220.3520 C   0  0  0  0  0  0  0  0  0  0  0  0
  141.7520   73.3230  219.3460 C   0  0  0  0  0  0  0  0  0  0  0  0
  141.4350   72.7450  218.2770 O   0  0  0  0  0  0  0  0  0  0  0  0
  143.1240   73.6660  219.5040 N   0  0  0  0  0  0  0  0  0  0  0  0
  144.1850   72.8230  218.9680 C   0  0  0  0  0  0  0  0  0  0  0  0
  145.0870   72.8350  220.2270 C   0  0  1  0  0  0  0  0  0  0  0  0
  146.3310   72.3170  219.9870 O   0  0  0  0  0  0  0  0  0  0  0  0
  145.1080   74.3580  220.4620 C   0  0  0  0  0  0  0  0  0  0  0  0
  143.6920   74.8350  220.1900 C   0  0  1  0  0  0  0  0  0  0  0  0
  143.6930   75.9960  219.2060 C   0  0  0  0  0  0  0  0  0  0  0  0
  142.5480   76.5640  218.9240 O   0  0  0  0  0  0  0  0  0  0  0  0
  141.6790   77.5260  219.0490 C   0  0  0  0  0  0  0  0  0  0  0  0
  142.1920   78.8220  219.3270 C   0  0  0  0  0  0  0  0  0  0  0  0
  141.4020   79.9170  219.4830 C   0  0  0  0  0  0  0  0  0  0  0  0
  140.0430   79.8130  219.3750 C   0  0  0  0  0  0  0  0  0  0  0  0
  139.4890   78.5910  219.1080 C   0  0  0  0  0  0  0  0  0  0  0  0
  140.2990   77.4910  218.9530 C   0  0  0  0  0  0  0  0  0  0  0  0
  140.1320   76.8560  222.2840 C   0  0  0  0  0  0  0  0  0  0  0  0
  139.0280   77.6100  222.6180 C   0  0  0  0  0  0  0  0  0  0  0  0
  139.1040   78.9250  223.0310 C   0  0  0  0  0  0  0  0  0  0  0  0
  140.3560   79.5210  223.1160 C   0  0  0  0  0  0  0  0  0  0  0  0
  140.4950   80.8450  223.5290 C   0  0  0  0  0  0  0  0  0  0  0  0
  141.7790   81.3490  223.5810 C   0  0  0  0  0  0  0  0  0  0  0  0
  142.8900   80.5970  223.2480 C   0  0  0  0  0  0  0  0  0  0  0  0
  142.7180   79.2840  222.8430 C   0  0  0  0  0  0  0  0  0  0  0  0
  141.4560   78.7460  222.7770 C   0  0  0  0  0  0  0  0  0  0  0  0
  141.3360   77.4620  222.3770 N   0  0  0  0  0  0  0  0  0  0  0  0
  141.5030   75.6640  220.3720 H   0  0  0  0  0  0  0  0  0  0  0  0
  140.8288   72.9311  221.2132 H   0  0  0  0  0  0  0  0  0  0  0  0
  139.7098   73.4418  219.9101 H   0  0  0  0  0  0  0  0  0  0  0  0
  143.8319   71.8130  218.7125 H   0  0  0  0  0  0  0  0  0  0  0  0
  144.6483   73.1526  218.0264 H   0  0  0  0  0  0  0  0  0  0  0  0
  144.7421   72.2245  221.0745 H   0  0  0  0  0  0  0  0  0  0  0  0
  146.6250   71.8320  220.8000 H   0  0  0  0  0  0  0  0  0  0  0  0
  145.3955   74.5821  221.4998 H   0  0  0  0  0  0  0  0  0  0  0  0
  145.8379   74.8596  219.8096 H   0  0  0  0  0  0  0  0  0  0  0  0
  143.1631   75.1705  221.0942 H   0  0  0  0  0  0  0  0  0  0  0  0
  144.3511   76.7744  219.6194 H   0  0  0  0  0  0  0  0  0  0  0  0
  144.0196   75.5497  218.2551 H   0  0  0  0  0  0  0  0  0  0  0  0
  143.2811   78.9448  219.4204 H   0  0  0  0  0  0  0  0  0  0  0  0
  141.8594   80.8941  219.6977 H   0  0  0  0  0  0  0  0  0  0  0  0
  139.4041   80.6995  219.5010 H   0  0  0  0  0  0  0  0  0  0  0  0
  138.3975   78.4887  219.0175 H   0  0  0  0  0  0  0  0  0  0  0  0
  139.8207   76.5237  218.7396 H   0  0  0  0  0  0  0  0  0  0  0  0
  138.0356   77.1401  222.5522 H   0  0  0  0  0  0  0  0  0  0  0  0
  138.1943   79.4879  223.2869 H   0  0  0  0  0  0  0  0  0  0  0  0
  139.6234   81.4587  223.8005 H   0  0  0  0  0  0  0  0  0  0  0  0
  141.9240   82.3916  223.9004 H   0  0  0  0  0  0  0  0  0  0  0  0
  143.8972   81.0357  223.3040 H   0  0  0  0  0  0  0  0  0  0  0  0
  143.5917   78.6721  222.5743 H   0  0  0  0  0  0  0  0  0  0  0  0
  1  2  2  0
  2  3  1  0
  3  4  1  0
  4  5  1  0
  5  6  2  0
  5  7  1  0
  7  8  1  0
  8  9  1  0
  9 10  1  0
  9 11  1  0
 11 12  1  0
 12 13  1  0
 13 14  1  0
 14 15  1  0
 15 16  2  0
 16 17  1  0
 17 18  2  0
 18 19  1  0
 19 20  2  0
  2 21  1  0
 21 22  2  0
 22 23  1  0
 23 24  2  0
 24 25  1  0
 25 26  2  0
 26 27  1  0
 27 28  2  0
 28 29  1  0
 29 30  2  0
 12  7  1  0
 20 15  1  0
 30 21  1  0
 29 24  1  0
  3 31  1  0
  4 32  1  0
  4 33  1  0
  8 34  1  0
  8 35  1  0
  9 36  1  1
 10 37  1  0
 11 38  1  0
 11 39  1  0
 12 40  1  1
 13 41  1  0
 13 42  1  0
 16 43  1  0
 17 44  1  0
 18 45  1  0
 19 46  1  0
 20 47  1  0
 22 48  1  0
 23 49  1  0
 25 50  1  0
 26 51  1  0
 27 52  1  0
 28 53  1  0
M  END
>  <smiles>  (28) 
O=C(NCC(=O)N1C[C@@H](O)C[C@H]1COc1ccccc1)c1ccc2ccccc2n1

>  <score_type>  (28) 
oracle

>  <origin>  (28) 
autodockgpu

>  <m_score__min__energy>  (28) 
-9.0899999999999999

>  <m_primary>  (28) 
energy

>  <rmsd>  (28) 
7.598924544763286

>  <m_score__min__rmsd>  (28) 
7.598924544763286

>  <meeko>  (28) 
{"free_energy": -6.52, "intermolecular_energy": -8.91, "internal_energy": -3.74, "cluster_size": 24, "cluster_id": 4, "rank_in_cluster": 24}

>  <energy>  (28) 
-7.46

>  <cluster_rmsd>  (28) 
0.8

>  <cluster>  (28) 
4

$$$$

     RDKit          3D

 53 56  0  0  0  0  0  0  0  0999 V2000
  140.7820   71.4510  221.3370 O   0  0  0  0  0  0  0  0  0  0  0  0
  140.2350   72.0360  222.3120 C   0  0  0  0  0  0  0  0  0  0  0  0
  139.6910   73.3510  222.2190 N   0  0  0  0  0  0  0  0  0  0  0  0
  139.7670   74.0640  220.9350 C   0  0  0  0  0  0  0  0  0  0  0  0
  140.6720   75.2240  221.0850 C   0  0  0  0  0  0  0  0  0  0  0  0
  140.5910   75.9340  222.1180 O   0  0  0  0  0  0  0  0  0  0  0  0
  141.6490   75.6050  220.1230 N   0  0  0  0  0  0  0  0  0  0  0  0
  141.9050   74.7980  218.9370 C   0  0  0  0  0  0  0  0  0  0  0  0
  143.4510   74.8270  219.0230 C   0  0  1  0  0  0  0  0  0  0  0  0
  144.0480   74.3470  217.8880 O   0  0  0  0  0  0  0  0  0  0  0  0
  143.6280   76.3480  219.1950 C   0  0  0  0  0  0  0  0  0  0  0  0
  142.5240   76.7850  220.1420 C   0  0  1  0  0  0  0  0  0  0  0  0
  141.7430   77.9530  219.5570 C   0  0  0  0  0  0  0  0  0  0  0  0
  141.4070   78.9300  220.3600 O   0  0  0  0  0  0  0  0  0  0  0  0
  141.6110   79.6880  221.4000 C   0  0  0  0  0  0  0  0  0  0  0  0
  141.9370   79.0310  222.6180 C   0  0  0  0  0  0  0  0  0  0  0  0
  142.1750   79.6950  223.7800 C   0  0  0  0  0  0  0  0  0  0  0  0
  142.1100   81.0600  223.8250 C   0  0  0  0  0  0  0  0  0  0  0  0
  141.8010   81.7490  222.6850 C   0  0  0  0  0  0  0  0  0  0  0  0
  141.5630   81.0660  221.5160 C   0  0  0  0  0  0  0  0  0  0  0  0
  140.1550   71.3380  223.5920 C   0  0  0  0  0  0  0  0  0  0  0  0
  139.5770   70.0910  223.6890 C   0  0  0  0  0  0  0  0  0  0  0  0
  139.4770   69.3910  224.8740 C   0  0  0  0  0  0  0  0  0  0  0  0
  139.9850   69.9710  226.0310 C   0  0  0  0  0  0  0  0  0  0  0  0
  139.9140   69.3120  227.2570 C   0  0  0  0  0  0  0  0  0  0  0  0
  140.4440   69.9690  228.3480 C   0  0  0  0  0  0  0  0  0  0  0  0
  141.0260   71.2190  228.2560 C   0  0  0  0  0  0  0  0  0  0  0  0
  141.0810   71.8470  227.0230 C   0  0  0  0  0  0  0  0  0  0  0  0
  140.5640   71.2270  225.9130 C   0  0  0  0  0  0  0  0  0  0  0  0
  140.6400   71.8760  224.7320 N   0  0  0  0  0  0  0  0  0  0  0  0
  139.2590   73.7610  223.0640 H   0  0  0  0  0  0  0  0  0  0  0  0
  140.1578   73.3884  220.1599 H   0  0  0  0  0  0  0  0  0  0  0  0
  138.7649   74.4084  220.6396 H   0  0  0  0  0  0  0  0  0  0  0  0
  141.4972   73.7801  219.0240 H   0  0  0  0  0  0  0  0  0  0  0  0
  141.4565   75.1482  217.9956 H   0  0  0  0  0  0  0  0  0  0  0  0
  143.9043   74.2011  219.8058 H   0  0  0  0  0  0  0  0  0  0  0  0
  144.8550   74.8930  217.7090 H   0  0  0  0  0  0  0  0  0  0  0  0
  144.6147   76.5731  219.6261 H   0  0  0  0  0  0  0  0  0  0  0  0
  143.5692   76.8754  218.2315 H   0  0  0  0  0  0  0  0  0  0  0  0
  142.8934   77.0980  221.1297 H   0  0  0  0  0  0  0  0  0  0  0  0
  142.3557   78.3864  218.7528 H   0  0  0  0  0  0  0  0  0  0  0  0
  140.7849   77.5134  219.2426 H   0  0  0  0  0  0  0  0  0  0  0  0
  141.9996   77.9328  222.6201 H   0  0  0  0  0  0  0  0  0  0  0  0
  142.4217   79.1299  224.6909 H   0  0  0  0  0  0  0  0  0  0  0  0
  142.3037   81.5966  224.7655 H   0  0  0  0  0  0  0  0  0  0  0  0
  141.7430   82.8473  222.7033 H   0  0  0  0  0  0  0  0  0  0  0  0
  141.3193   81.6512  220.6170 H   0  0  0  0  0  0  0  0  0  0  0  0
  139.1746   69.6298  222.7750 H   0  0  0  0  0  0  0  0  0  0  0  0
  139.0063   68.3972  224.9026 H   0  0  0  0  0  0  0  0  0  0  0  0
  139.4572   68.3157  227.3502 H   0  0  0  0  0  0  0  0  0  0  0  0
  140.4016   69.4779  229.3314 H   0  0  0  0  0  0  0  0  0  0  0  0
  141.4399   71.7085  229.1499 H   0  0  0  0  0  0  0  0  0  0  0  0
  141.5391   72.8430  226.9332 H   0  0  0  0  0  0  0  0  0  0  0  0
  1  2  2  0
  2  3  1  0
  3  4  1  0
  4  5  1  0
  5  6  2  0
  5  7  1  0
  7  8  1  0
  8  9  1  0
  9 10  1  0
  9 11  1  0
 11 12  1  0
 12 13  1  0
 13 14  1  0
 14 15  1  0
 15 16  2  0
 16 17  1  0
 17 18  2  0
 18 19  1  0
 19 20  2  0
  2 21  1  0
 21 22  2  0
 22 23  1  0
 23 24  2  0
 24 25  1  0
 25 26  2  0
 26 27  1  0
 27 28  2  0
 28 29  1  0
 29 30  2  0
 12  7  1  0
 20 15  1  0
 30 21  1  0
 29 24  1  0
  3 31  1  0
  4 32  1  0
  4 33  1  0
  8 34  1  0
  8 35  1  0
  9 36  1  1
 10 37  1  0
 11 38  1  0
 11 39  1  0
 12 40  1  1
 13 41  1  0
 13 42  1  0
 16 43  1  0
 17 44  1  0
 18 45  1  0
 19 46  1  0
 20 47  1  0
 22 48  1  0
 23 49  1  0
 25 50  1  0
 26 51  1  0
 27 52  1  0
 28 53  1  0
M  END
>  <smiles>  (29) 
O=C(NCC(=O)N1C[C@@H](O)C[C@H]1COc1ccccc1)c1ccc2ccccc2n1

>  <score_type>  (29) 
oracle

>  <origin>  (29) 
autodockgpu

>  <m_score__min__energy>  (29) 
-9.0899999999999999

>  <m_primary>  (29) 
energy

>  <rmsd>  (29) 
2.032787010994335

>  <m_score__min__rmsd>  (29) 
2.032787010994335

>  <meeko>  (29) 
{"free_energy": -9.05, "intermolecular_energy": -11.43, "internal_energy": -1.53, "cluster_size": 13, "cluster_id": 1, "rank_in_cluster": 3}

>  <energy>  (29) 
-7.46

>  <cluster_rmsd>  (29) 
0.93

>  <cluster>  (29) 
4

$$$$

     RDKit          3D

 53 56  0  0  0  0  0  0  0  0999 V2000
  138.8550   75.1040  222.3380 O   0  0  0  0  0  0  0  0  0  0  0  0
  139.9670   75.6470  222.0940 C   0  0  0  0  0  0  0  0  0  0  0  0
  141.0570   74.9460  221.4990 N   0  0  0  0  0  0  0  0  0  0  0  0
  140.8880   73.5280  221.1530 C   0  0  0  0  0  0  0  0  0  0  0  0
  141.7280   73.2190  219.9760 C   0  0  0  0  0  0  0  0  0  0  0  0
  141.2040   72.6590  218.9800 O   0  0  0  0  0  0  0  0  0  0  0  0
  143.1170   73.5140  219.8850 N   0  0  0  0  0  0  0  0  0  0  0  0
  144.0310   72.6520  219.1460 C   0  0  0  0  0  0  0  0  0  0  0  0
  145.1480   72.6030  220.2180 C   0  0  1  0  0  0  0  0  0  0  0  0
  146.3080   72.0520  219.7420 O   0  0  0  0  0  0  0  0  0  0  0  0
  145.2660   74.1180  220.4740 C   0  0  0  0  0  0  0  0  0  0  0  0
  143.8420   74.6470  220.4770 C   0  0  1  0  0  0  0  0  0  0  0  0
  143.7050   75.8320  219.5310 C   0  0  0  0  0  0  0  0  0  0  0  0
  142.5460   76.4360  219.4690 O   0  0  0  0  0  0  0  0  0  0  0  0
  141.8090   77.5070  219.3780 C   0  0  0  0  0  0  0  0  0  0  0  0
  140.4180   77.3120  219.1590 C   0  0  0  0  0  0  0  0  0  0  0  0
  139.5330   78.3370  219.0440 C   0  0  0  0  0  0  0  0  0  0  0  0
  139.9570   79.6340  219.1370 C   0  0  0  0  0  0  0  0  0  0  0  0
  141.2850   79.8860  219.3480 C   0  0  0  0  0  0  0  0  0  0  0  0
  142.1700   78.8400  219.4630 C   0  0  0  0  0  0  0  0  0  0  0  0
  140.1470   77.0560  222.4340 C   0  0  0  0  0  0  0  0  0  0  0  0
  139.0640   77.8870  222.6250 C   0  0  0  0  0  0  0  0  0  0  0  0
  139.1820   79.2240  222.9470 C   0  0  0  0  0  0  0  0  0  0  0  0
  140.4560   79.7620  223.0880 C   0  0  0  0  0  0  0  0  0  0  0  0
  140.6370   81.1050  223.4130 C   0  0  0  0  0  0  0  0  0  0  0  0
  141.9390   81.5470  223.5310 C   0  0  0  0  0  0  0  0  0  0  0  0
  143.0280   80.7170  223.3410 C   0  0  0  0  0  0  0  0  0  0  0  0
  142.8140   79.3870  223.0190 C   0  0  0  0  0  0  0  0  0  0  0  0
  141.5330   78.9090  222.8930 C   0  0  0  0  0  0  0  0  0  0  0  0
  141.3720   77.6070  222.5780 N   0  0  0  0  0  0  0  0  0  0  0  0
  141.9370   75.4640  221.3310 H   0  0  0  0  0  0  0  0  0  0  0  0
  141.1975   72.9012  222.0023 H   0  0  0  0  0  0  0  0  0  0  0  0
  139.8322   73.3241  220.9213 H   0  0  0  0  0  0  0  0  0  0  0  0
  143.6012   71.6607  218.9398 H   0  0  0  0  0  0  0  0  0  0  0  0
  144.3255   72.9909  218.1418 H   0  0  0  0  0  0  0  0  0  0  0  0
  144.9429   71.9826  221.1029 H   0  0  0  0  0  0  0  0  0  0  0  0
  146.6850   71.4690  220.4500 H   0  0  0  0  0  0  0  0  0  0  0  0
  145.7471   74.3065  221.4451 H   0  0  0  0  0  0  0  0  0  0  0  0
  145.8809   74.6124  219.7076 H   0  0  0  0  0  0  0  0  0  0  0  0
  143.4997   74.9765  221.4691 H   0  0  0  0  0  0  0  0  0  0  0  0
  144.4493   76.5823  219.8361 H   0  0  0  0  0  0  0  0  0  0  0  0
  143.8454   75.4017  218.5284 H   0  0  0  0  0  0  0  0  0  0  0  0
  140.0398   76.2822  219.0788 H   0  0  0  0  0  0  0  0  0  0  0  0
  138.4676   78.1218  218.8749 H   0  0  0  0  0  0  0  0  0  0  0  0
  139.2401   80.4631  219.0434 H   0  0  0  0  0  0  0  0  0  0  0  0
  141.6439   80.9229  219.4255 H   0  0  0  0  0  0  0  0  0  0  0  0
  143.2305   79.0776  219.6331 H   0  0  0  0  0  0  0  0  0  0  0  0
  138.0548   77.4633  222.5153 H   0  0  0  0  0  0  0  0  0  0  0  0
  138.2883   79.8495  223.0888 H   0  0  0  0  0  0  0  0  0  0  0  0
  139.7828   81.7805  223.5681 H   0  0  0  0  0  0  0  0  0  0  0  0
  142.1174   82.6019  223.7865 H   0  0  0  0  0  0  0  0  0  0  0  0
  144.0511   81.1077  223.4442 H   0  0  0  0  0  0  0  0  0  0  0  0
  143.6701   78.7138  222.8642 H   0  0  0  0  0  0  0  0  0  0  0  0
  1  2  2  0
  2  3  1  0
  3  4  1  0
  4  5  1  0
  5  6  2  0
  5  7  1  0
  7  8  1  0
  8  9  1  0
  9 10  1  0
  9 11  1  0
 11 12  1  0
 12 13  1  0
 13 14  1  0
 14 15  1  0
 15 16  2  0
 16 17  1  0
 17 18  2  0
 18 19  1  0
 19 20  2  0
  2 21  1  0
 21 22  2  0
 22 23  1  0
 23 24  2  0
 24 25  1  0
 25 26  2  0
 26 27  1  0
 27 28  2  0
 28 29  1  0
 29 30  2  0
 12  7  1  0
 20 15  1  0
 30 21  1  0
 29 24  1  0
  3 31  1  0
  4 32  1  0
  4 33  1  0
  8 34  1  0
  8 35  1  0
  9 36  1  1
 10 37  1  0
 11 38  1  0
 11 39  1  0
 12 40  1  1
 13 41  1  0
 13 42  1  0
 16 43  1  0
 17 44  1  0
 18 45  1  0
 19 46  1  0
 20 47  1  0
 22 48  1  0
 23 49  1  0
 25 50  1  0
 26 51  1  0
 27 52  1  0
 28 53  1  0
M  END
>  <smiles>  (30) 
O=C(NCC(=O)N1C[C@@H](O)C[C@H]1COc1ccccc1)c1ccc2ccccc2n1

>  <score_type>  (30) 
oracle

>  <origin>  (30) 
autodockgpu

>  <m_score__min__energy>  (30) 
-9.0899999999999999

>  <m_primary>  (30) 
energy

>  <rmsd>  (30) 
7.738395672582432

>  <m_score__min__rmsd>  (30) 
7.738395672582432

>  <meeko>  (30) 
{"free_energy": -6.8, "intermolecular_energy": -9.18, "internal_energy": -3.77, "cluster_size": 24, "cluster_id": 4, "rank_in_cluster": 16}

>  <energy>  (30) 
-7.45

>  <cluster_rmsd>  (30) 
0.34

>  <cluster>  (30) 
4

$$$$

     RDKit          3D

 53 56  0  0  0  0  0  0  0  0999 V2000
  141.2240   71.8230  221.3010 O   0  0  0  0  0  0  0  0  0  0  0  0
  140.5860   72.3370  222.2600 C   0  0  0  0  0  0  0  0  0  0  0  0
  140.1120   73.6820  222.2420 N   0  0  0  0  0  0  0  0  0  0  0  0
  140.3740   74.5130  221.0580 C   0  0  0  0  0  0  0  0  0  0  0  0
  140.4860   75.9260  221.4810 C   0  0  0  0  0  0  0  0  0  0  0  0
  139.9970   76.2760  222.5840 O   0  0  0  0  0  0  0  0  0  0  0  0
  141.1200   76.9430  220.7130 N   0  0  0  0  0  0  0  0  0  0  0  0
  141.8240   78.0490  221.3500 C   0  0  0  0  0  0  0  0  0  0  0  0
  141.2250   79.1790  220.4750 C   0  0  1  0  0  0  0  0  0  0  0  0
  141.8690   80.3740  220.6480 O   0  0  0  0  0  0  0  0  0  0  0  0
  141.4940   78.5470  219.0950 C   0  0  0  0  0  0  0  0  0  0  0  0
  141.1760   77.0700  219.2500 C   0  0  1  0  0  0  0  0  0  0  0  0
  142.3330   76.2140  218.7540 C   0  0  0  0  0  0  0  0  0  0  0  0
  142.9700   75.4770  219.6270 O   0  0  0  0  0  0  0  0  0  0  0  0
  143.7870   74.5110  219.9400 C   0  0  0  0  0  0  0  0  0  0  0  0
  145.0500   74.8880  220.4740 C   0  0  0  0  0  0  0  0  0  0  0  0
  145.9980   73.9870  220.8430 C   0  0  0  0  0  0  0  0  0  0  0  0
  145.7700   72.6450  220.7140 C   0  0  0  0  0  0  0  0  0  0  0  0
  144.5720   72.2210  220.2070 C   0  0  0  0  0  0  0  0  0  0  0  0
  143.6210   73.1420  219.8370 C   0  0  0  0  0  0  0  0  0  0  0  0
  140.3210   71.5210  223.4420 C   0  0  0  0  0  0  0  0  0  0  0  0
  139.6450   70.3240  223.3450 C   0  0  0  0  0  0  0  0  0  0  0  0
  139.3710   69.5180  224.4310 C   0  0  0  0  0  0  0  0  0  0  0  0
  139.7950   69.9310  225.6870 C   0  0  0  0  0  0  0  0  0  0  0  0
  139.5480   69.1580  226.8210 C   0  0  0  0  0  0  0  0  0  0  0  0
  140.0080   69.6530  228.0230 C   0  0  0  0  0  0  0  0  0  0  0  0
  140.6870   70.8520  228.1270 C   0  0  0  0  0  0  0  0  0  0  0  0
  140.9180   71.5960  226.9820 C   0  0  0  0  0  0  0  0  0  0  0  0
  140.4750   71.1390  225.7650 C   0  0  0  0  0  0  0  0  0  0  0  0
  140.7220   71.8970  224.6760 N   0  0  0  0  0  0  0  0  0  0  0  0
  139.5970   74.0290  223.0690 H   0  0  0  0  0  0  0  0  0  0  0  0
  141.3135   74.1939  220.5832 H   0  0  0  0  0  0  0  0  0  0  0  0
  139.5514   74.4037  220.3359 H   0  0  0  0  0  0  0  0  0  0  0  0
  141.5643   78.1571  222.4134 H   0  0  0  0  0  0  0  0  0  0  0  0
  142.9213   77.9809  221.3847 H   0  0  0  0  0  0  0  0  0  0  0  0
  140.1789   79.4487  220.6820 H   0  0  0  0  0  0  0  0  0  0  0  0
  142.8250   80.1850  220.8310 H   0  0  0  0  0  0  0  0  0  0  0  0
  140.8446   79.0011  218.3321 H   0  0  0  0  0  0  0  0  0  0  0  0
  142.5330   78.7066  218.7711 H   0  0  0  0  0  0  0  0  0  0  0  0
  140.2756   76.7570  218.7012 H   0  0  0  0  0  0  0  0  0  0  0  0
  141.9329   75.5373  217.9846 H   0  0  0  0  0  0  0  0  0  0  0  0
  143.0833   76.9401  218.4079 H   0  0  0  0  0  0  0  0  0  0  0  0
  145.2698   75.9591  220.5940 H   0  0  0  0  0  0  0  0  0  0  0  0
  146.9573   74.3404  221.2491 H   0  0  0  0  0  0  0  0  0  0  0  0
  146.5384   71.9170  221.0134 H   0  0  0  0  0  0  0  0  0  0  0  0
  144.3703   71.1454  220.0957 H   0  0  0  0  0  0  0  0  0  0  0  0
  142.6688   72.7667  219.4340 H   0  0  0  0  0  0  0  0  0  0  0  0
  139.3067   69.9944  222.3516 H   0  0  0  0  0  0  0  0  0  0  0  0
  138.8287   68.5694  224.3045 H   0  0  0  0  0  0  0  0  0  0  0  0
  139.0120   68.1994  226.7596 H   0  0  0  0  0  0  0  0  0  0  0  0
  139.8268   69.0690  228.9374 H   0  0  0  0  0  0  0  0  0  0  0  0
  141.0391   71.2105  229.1055 H   0  0  0  0  0  0  0  0  0  0  0  0
  141.4563   72.5530  227.0473 H   0  0  0  0  0  0  0  0  0  0  0  0
  1  2  2  0
  2  3  1  0
  3  4  1  0
  4  5  1  0
  5  6  2  0
  5  7  1  0
  7  8  1  0
  8  9  1  0
  9 10  1  0
  9 11  1  0
 11 12  1  0
 12 13  1  0
 13 14  1  0
 14 15  1  0
 15 16  2  0
 16 17  1  0
 17 18  2  0
 18 19  1  0
 19 20  2  0
  2 21  1  0
 21 22  2  0
 22 23  1  0
 23 24  2  0
 24 25  1  0
 25 26  2  0
 26 27  1  0
 27 28  2  0
 28 29  1  0
 29 30  2  0
 12  7  1  0
 20 15  1  0
 30 21  1  0
 29 24  1  0
  3 31  1  0
  4 32  1  0
  4 33  1  0
  8 34  1  0
  8 35  1  0
  9 36  1  1
 10 37  1  0
 11 38  1  0
 11 39  1  0
 12 40  1  6
 13 41  1  0
 13 42  1  0
 16 43  1  0
 17 44  1  0
 18 45  1  0
 19 46  1  0
 20 47  1  0
 22 48  1  0
 23 49  1  0
 25 50  1  0
 26 51  1  0
 27 52  1  0
 28 53  1  0
M  END
>  <smiles>  (31) 
O=C(NCC(=O)N1C[C@@H](O)C[C@H]1COc1ccccc1)c1ccc2ccccc2n1

>  <score_type>  (31) 
oracle

>  <origin>  (31) 
autodockgpu

>  <m_score__min__energy>  (31) 
-9.0899999999999999

>  <m_primary>  (31) 
energy

>  <rmsd>  (31) 
2.510971741571374

>  <m_score__min__rmsd>  (31) 
2.510971741571374

>  <meeko>  (31) 
{"free_energy": -8.05, "intermolecular_energy": -10.43, "internal_energy": -2.25, "cluster_size": 9, "cluster_id": 3, "rank_in_cluster": 5}

>  <energy>  (31) 
-7.43

>  <cluster_rmsd>  (31) 
0.73

>  <cluster>  (31) 
4

$$$$

     RDKit          3D

 53 56  0  0  0  0  0  0  0  0999 V2000
  141.3440   72.1900  221.6910 O   0  0  0  0  0  0  0  0  0  0  0  0
  140.4200   72.4480  222.5110 C   0  0  0  0  0  0  0  0  0  0  0  0
  139.5490   73.5680  222.3680 N   0  0  0  0  0  0  0  0  0  0  0  0
  139.7290   74.4680  221.2200 C   0  0  0  0  0  0  0  0  0  0  0  0
  139.0180   75.7370  221.4900 C   0  0  0  0  0  0  0  0  0  0  0  0
  138.0830   75.7470  222.3300 O   0  0  0  0  0  0  0  0  0  0  0  0
  139.3190   76.9740  220.8550 N   0  0  0  0  0  0  0  0  0  0  0  0
  138.7180   78.2240  221.3010 C   0  0  0  0  0  0  0  0  0  0  0  0
  138.3390   78.7600  219.8980 C   0  0  1  0  0  0  0  0  0  0  0  0
  137.9530   80.0730  219.9240 O   0  0  0  0  0  0  0  0  0  0  0  0
  139.7040   78.5500  219.2130 C   0  0  0  0  0  0  0  0  0  0  0  0
  140.2140   77.2100  219.7130 C   0  0  1  0  0  0  0  0  0  0  0  0
  141.6310   77.3390  220.2530 C   0  0  0  0  0  0  0  0  0  0  0  0
  141.8110   78.0330  221.3470 O   0  0  0  0  0  0  0  0  0  0  0  0
  141.8980   79.1600  221.9950 C   0  0  0  0  0  0  0  0  0  0  0  0
  142.2570   79.0850  223.3680 C   0  0  0  0  0  0  0  0  0  0  0  0
  142.3850   80.1790  224.1640 C   0  0  0  0  0  0  0  0  0  0  0  0
  142.1680   81.4320  223.6610 C   0  0  0  0  0  0  0  0  0  0  0  0
  141.8210   81.5700  222.3450 C   0  0  0  0  0  0  0  0  0  0  0  0
  141.6950   80.4550  221.5510 C   0  0  0  0  0  0  0  0  0  0  0  0
  140.2330   71.5610  223.6560 C   0  0  0  0  0  0  0  0  0  0  0  0
  139.5840   70.3530  223.5230 C   0  0  0  0  0  0  0  0  0  0  0  0
  139.3830   69.4810  224.5740 C   0  0  0  0  0  0  0  0  0  0  0  0
  139.8570   69.8370  225.8310 C   0  0  0  0  0  0  0  0  0  0  0  0
  139.6840   68.9970  226.9290 C   0  0  0  0  0  0  0  0  0  0  0  0
  140.1890   69.4370  228.1350 C   0  0  0  0  0  0  0  0  0  0  0  0
  140.8420   70.6480  228.2740 C   0  0  0  0  0  0  0  0  0  0  0  0
  140.9980   71.4600  227.1630 C   0  0  0  0  0  0  0  0  0  0  0  0
  140.5080   71.0570  225.9440 C   0  0  0  0  0  0  0  0  0  0  0  0
  140.6840   71.8800  224.8890 N   0  0  0  0  0  0  0  0  0  0  0  0
  138.8160   73.7100  223.0830 H   0  0  0  0  0  0  0  0  0  0  0  0
  140.8004   74.6691  221.0729 H   0  0  0  0  0  0  0  0  0  0  0  0
  139.3229   73.9992  220.3115 H   0  0  0  0  0  0  0  0  0  0  0  0
  137.8387   78.0633  221.9421 H   0  0  0  0  0  0  0  0  0  0  0  0
  139.3450   78.8773  221.9256 H   0  0  0  0  0  0  0  0  0  0  0  0
  137.4793   78.2765  219.4110 H   0  0  0  0  0  0  0  0  0  0  0  0
  138.7640   80.6300  220.0480 H   0  0  0  0  0  0  0  0  0  0  0  0
  139.5853   78.5313  218.1196 H   0  0  0  0  0  0  0  0  0  0  0  0
  140.4053   79.3642  219.4481 H   0  0  0  0  0  0  0  0  0  0  0  0
  140.2272   76.4302  218.9373 H   0  0  0  0  0  0  0  0  0  0  0  0
  142.0010   76.3214  220.4468 H   0  0  0  0  0  0  0  0  0  0  0  0
  142.1697   77.9038  219.4779 H   0  0  0  0  0  0  0  0  0  0  0  0
  142.4401   78.0935  223.8077 H   0  0  0  0  0  0  0  0  0  0  0  0
  142.6652   80.0557  225.2206 H   0  0  0  0  0  0  0  0  0  0  0  0
  142.2711   82.3171  224.3060 H   0  0  0  0  0  0  0  0  0  0  0  0
  141.6433   82.5703  221.9234 H   0  0  0  0  0  0  0  0  0  0  0  0
  141.4155   80.6011  220.4972 H   0  0  0  0  0  0  0  0  0  0  0  0
  139.2071   70.0691  222.5293 H   0  0  0  0  0  0  0  0  0  0  0  0
  138.8595   68.5259  224.4201 H   0  0  0  0  0  0  0  0  0  0  0  0
  139.1693   68.0291  226.8386 H   0  0  0  0  0  0  0  0  0  0  0  0
  140.0673   68.7984  229.0224 H   0  0  0  0  0  0  0  0  0  0  0  0
  141.2321   70.9620  229.2534 H   0  0  0  0  0  0  0  0  0  0  0  0
  141.5139   72.4270  227.2563 H   0  0  0  0  0  0  0  0  0  0  0  0
  1  2  2  0
  2  3  1  0
  3  4  1  0
  4  5  1  0
  5  6  2  0
  5  7  1  0
  7  8  1  0
  8  9  1  0
  9 10  1  0
  9 11  1  0
 11 12  1  0
 12 13  1  0
 13 14  1  0
 14 15  1  0
 15 16  2  0
 16 17  1  0
 17 18  2  0
 18 19  1  0
 19 20  2  0
  2 21  1  0
 21 22  2  0
 22 23  1  0
 23 24  2  0
 24 25  1  0
 25 26  2  0
 26 27  1  0
 27 28  2  0
 28 29  1  0
 29 30  2  0
 12  7  1  0
 20 15  1  0
 30 21  1  0
 29 24  1  0
  3 31  1  0
  4 32  1  0
  4 33  1  0
  8 34  1  0
  8 35  1  0
  9 36  1  6
 10 37  1  0
 11 38  1  0
 11 39  1  0
 12 40  1  6
 13 41  1  0
 13 42  1  0
 16 43  1  0
 17 44  1  0
 18 45  1  0
 19 46  1  0
 20 47  1  0
 22 48  1  0
 23 49  1  0
 25 50  1  0
 26 51  1  0
 27 52  1  0
 28 53  1  0
M  END
>  <smiles>  (32) 
O=C(NCC(=O)N1C[C@@H](O)C[C@H]1COc1ccccc1)c1ccc2ccccc2n1

>  <score_type>  (32) 
oracle

>  <origin>  (32) 
autodockgpu

>  <m_score__min__energy>  (32) 
-9.0899999999999999

>  <m_primary>  (32) 
energy

>  <rmsd>  (32) 
2.270882819426209

>  <m_score__min__rmsd>  (32) 
2.270882819426209

>  <meeko>  (32) 
{"free_energy": -7.55, "intermolecular_energy": -9.93, "internal_energy": -1.99, "cluster_size": 1, "cluster_id": 5, "rank_in_cluster": 1}

>  <energy>  (32) 
-7.43

>  <cluster_rmsd>  (32) 
0.73

>  <cluster>  (32) 
4

$$$$

     RDKit          3D

 53 56  0  0  0  0  0  0  0  0999 V2000
  140.5820   73.0170  222.6920 O   0  0  0  0  0  0  0  0  0  0  0  0
  140.5450   71.7590  222.7900 C   0  0  0  0  0  0  0  0  0  0  0  0
  140.5580   70.8930  221.6570 N   0  0  0  0  0  0  0  0  0  0  0  0
  140.6170   71.4830  220.3110 C   0  0  0  0  0  0  0  0  0  0  0  0
  141.9900   71.3310  219.7820 C   0  0  0  0  0  0  0  0  0  0  0  0
  142.3450   70.2230  219.3100 O   0  0  0  0  0  0  0  0  0  0  0  0
  142.9620   72.3710  219.7700 N   0  0  0  0  0  0  0  0  0  0  0  0
  144.0030   72.4270  218.7510 C   0  0  0  0  0  0  0  0  0  0  0  0
  145.1850   72.7180  219.7090 C   0  0  1  0  0  0  0  0  0  0  0  0
  146.3240   73.0800  219.0420 O   0  0  0  0  0  0  0  0  0  0  0  0
  144.5490   73.8870  220.4860 C   0  0  0  0  0  0  0  0  0  0  0  0
  143.0990   73.4920  220.7100 C   0  0  1  0  0  0  0  0  0  0  0  0
  142.1610   74.5990  220.2530 C   0  0  0  0  0  0  0  0  0  0  0  0
  141.8160   75.5110  221.1260 O   0  0  0  0  0  0  0  0  0  0  0  0
  140.9410   76.3030  221.6780 C   0  0  0  0  0  0  0  0  0  0  0  0
  139.6270   75.7880  221.8490 C   0  0  0  0  0  0  0  0  0  0  0  0
  138.6160   76.5020  222.4100 C   0  0  0  0  0  0  0  0  0  0  0  0
  138.8280   77.7810  222.8450 C   0  0  0  0  0  0  0  0  0  0  0  0
  140.0720   78.3320  222.7080 C   0  0  0  0  0  0  0  0  0  0  0  0
  141.0870   77.5990  222.1400 C   0  0  0  0  0  0  0  0  0  0  0  0
  140.4850   71.1630  224.1210 C   0  0  0  0  0  0  0  0  0  0  0  0
  140.7900   71.8990  225.2460 C   0  0  0  0  0  0  0  0  0  0  0  0
  140.7480   71.3810  226.5250 C   0  0  0  0  0  0  0  0  0  0  0  0
  140.3820   70.0510  226.6900 C   0  0  0  0  0  0  0  0  0  0  0  0
  140.3220   69.4740  227.9580 C   0  0  0  0  0  0  0  0  0  0  0  0
  139.9490   68.1470  228.0200 C   0  0  0  0  0  0  0  0  0  0  0  0
  139.6420   67.4050  226.8950 C   0  0  0  0  0  0  0  0  0  0  0  0
  139.7110   68.0080  225.6500 C   0  0  0  0  0  0  0  0  0  0  0  0
  140.0790   69.3270  225.5460 C   0  0  0  0  0  0  0  0  0  0  0  0
  140.1330   69.8730  224.3130 N   0  0  0  0  0  0  0  0  0  0  0  0
  140.5250   69.8730  221.8220 H   0  0  0  0  0  0  0  0  0  0  0  0
  139.9068   70.9655  219.6494 H   0  0  0  0  0  0  0  0  0  0  0  0
  140.3517   72.5494  220.3592 H   0  0  0  0  0  0  0  0  0  0  0  0
  144.1199   71.4734  218.2152 H   0  0  0  0  0  0  0  0  0  0  0  0
  143.8490   73.1391  217.9268 H   0  0  0  0  0  0  0  0  0  0  0  0
  145.5333   71.8713  220.3188 H   0  0  0  0  0  0  0  0  0  0  0  0
  146.3240   74.0660  218.9440 H   0  0  0  0  0  0  0  0  0  0  0  0
  145.0605   74.0305  221.4492 H   0  0  0  0  0  0  0  0  0  0  0  0
  144.6307   74.8341  219.9326 H   0  0  0  0  0  0  0  0  0  0  0  0
  142.8625   73.2746  221.7621 H   0  0  0  0  0  0  0  0  0  0  0  0
  142.6500   75.1169  219.4148 H   0  0  0  0  0  0  0  0  0  0  0  0
  141.2214   74.0807  220.0110 H   0  0  0  0  0  0  0  0  0  0  0  0
  139.4186   74.7622  221.5109 H   0  0  0  0  0  0  0  0  0  0  0  0
  137.6197   76.0478  222.5150 H   0  0  0  0  0  0  0  0  0  0  0  0
  138.0092   78.3586  223.2988 H   0  0  0  0  0  0  0  0  0  0  0  0
  140.2603   79.3599  223.0516 H   0  0  0  0  0  0  0  0  0  0  0  0
  142.0758   78.0719  222.0472 H   0  0  0  0  0  0  0  0  0  0  0  0
  141.0815   72.9520  225.1182 H   0  0  0  0  0  0  0  0  0  0  0  0
  140.9987   72.0072  227.3939 H   0  0  0  0  0  0  0  0  0  0  0  0
  140.5605   70.0489  228.8650 H   0  0  0  0  0  0  0  0  0  0  0  0
  139.8937   67.6599  229.0047 H   0  0  0  0  0  0  0  0  0  0  0  0
  139.3467   66.3494  226.9872 H   0  0  0  0  0  0  0  0  0  0  0  0
  139.4711   67.4307  224.7449 H   0  0  0  0  0  0  0  0  0  0  0  0
  1  2  2  0
  2  3  1  0
  3  4  1  0
  4  5  1  0
  5  6  2  0
  5  7  1  0
  7  8  1  0
  8  9  1  0
  9 10  1  0
  9 11  1  0
 11 12  1  0
 12 13  1  0
 13 14  1  0
 14 15  1  0
 15 16  2  0
 16 17  1  0
 17 18  2  0
 18 19  1  0
 19 20  2  0
  2 21  1  0
 21 22  2  0
 22 23  1  0
 23 24  2  0
 24 25  1  0
 25 26  2  0
 26 27  1  0
 27 28  2  0
 28 29  1  0
 29 30  2  0
 12  7  1  0
 20 15  1  0
 30 21  1  0
 29 24  1  0
  3 31  1  0
  4 32  1  0
  4 33  1  0
  8 34  1  0
  8 35  1  0
  9 36  1  1
 10 37  1  0
 11 38  1  0
 11 39  1  0
 12 40  1  1
 13 41  1  0
 13 42  1  0
 16 43  1  0
 17 44  1  0
 18 45  1  0
 19 46  1  0
 20 47  1  0
 22 48  1  0
 23 49  1  0
 25 50  1  0
 26 51  1  0
 27 52  1  0
 28 53  1  0
M  END
>  <smiles>  (33) 
O=C(NCC(=O)N1C[C@@H](O)C[C@H]1COc1ccccc1)c1ccc2ccccc2n1

>  <score_type>  (33) 
oracle

>  <origin>  (33) 
autodockgpu

>  <m_score__min__energy>  (33) 
-9.0899999999999999

>  <m_primary>  (33) 
energy

>  <rmsd>  (33) 
4.292482791137504

>  <m_score__min__rmsd>  (33) 
4.292482791137504

>  <meeko>  (33) 
{"free_energy": -8.39, "intermolecular_energy": -10.78, "internal_energy": -1.86, "cluster_size": 3, "cluster_id": 2, "rank_in_cluster": 2}

>  <energy>  (33) 
-7.31

>  <cluster_rmsd>  (33) 
0.59

>  <cluster>  (33) 
4

$$$$

     RDKit          3D

 53 56  0  0  0  0  0  0  0  0999 V2000
  138.8680   75.0840  222.3000 O   0  0  0  0  0  0  0  0  0  0  0  0
  139.9970   75.6190  222.1220 C   0  0  0  0  0  0  0  0  0  0  0  0
  141.1320   74.8960  221.6510 N   0  0  0  0  0  0  0  0  0  0  0  0
  140.9910   73.4620  221.3590 C   0  0  0  0  0  0  0  0  0  0  0  0
  141.7600   73.1460  220.1350 C   0  0  0  0  0  0  0  0  0  0  0  0
  141.1720   72.6020  219.1670 O   0  0  0  0  0  0  0  0  0  0  0  0
  143.1470   73.4160  219.9700 N   0  0  0  0  0  0  0  0  0  0  0  0
  143.9870   72.5870  219.1150 C   0  0  0  0  0  0  0  0  0  0  0  0
  145.1710   72.4420  220.1030 C   0  0  1  0  0  0  0  0  0  0  0  0
  146.2820   71.8990  219.5150 O   0  0  0  0  0  0  0  0  0  0  0  0
  145.3450   73.9330  220.4500 C   0  0  0  0  0  0  0  0  0  0  0  0
  143.9390   74.4910  220.5850 C   0  0  1  0  0  0  0  0  0  0  0  0
  143.7700   75.7400  219.7310 C   0  0  0  0  0  0  0  0  0  0  0  0
  142.5610   76.2130  219.5690 O   0  0  0  0  0  0  0  0  0  0  0  0
  141.7280   77.1860  219.3270 C   0  0  0  0  0  0  0  0  0  0  0  0
  142.1990   78.5060  219.5620 C   0  0  0  0  0  0  0  0  0  0  0  0
  141.4400   79.6140  219.3530 C   0  0  0  0  0  0  0  0  0  0  0  0
  140.1570   79.5000  218.8950 C   0  0  0  0  0  0  0  0  0  0  0  0
  139.6470   78.2540  218.6500 C   0  0  0  0  0  0  0  0  0  0  0  0
  140.4250   77.1420  218.8650 C   0  0  0  0  0  0  0  0  0  0  0  0
  140.1480   77.0430  222.4100 C   0  0  0  0  0  0  0  0  0  0  0  0
  139.0520   77.8750  222.4880 C   0  0  0  0  0  0  0  0  0  0  0  0
  139.1440   79.2260  222.7570 C   0  0  0  0  0  0  0  0  0  0  0  0
  140.4020   79.7770  222.9610 C   0  0  0  0  0  0  0  0  0  0  0  0
  140.5570   81.1350  223.2370 C   0  0  0  0  0  0  0  0  0  0  0  0
  141.8460   81.5890  223.4240 C   0  0  0  0  0  0  0  0  0  0  0  0
  142.9480   80.7590  223.3470 C   0  0  0  0  0  0  0  0  0  0  0  0
  142.7620   79.4150  223.0710 C   0  0  0  0  0  0  0  0  0  0  0  0
  141.4930   78.9230  222.8790 C   0  0  0  0  0  0  0  0  0  0  0  0
  141.3590   77.6070  222.6130 N   0  0  0  0  0  0  0  0  0  0  0  0
  142.0220   75.4080  221.5320 H   0  0  0  0  0  0  0  0  0  0  0  0
  141.3804   72.8730  222.2025 H   0  0  0  0  0  0  0  0  0  0  0  0
  139.9300   73.2143  221.2078 H   0  0  0  0  0  0  0  0  0  0  0  0
  143.5191   71.6212  218.8735 H   0  0  0  0  0  0  0  0  0  0  0  0
  144.2226   72.9867  218.1176 H   0  0  0  0  0  0  0  0  0  0  0  0
  145.0089   71.7678  220.9569 H   0  0  0  0  0  0  0  0  0  0  0  0
  146.6220   71.1790  220.1040 H   0  0  0  0  0  0  0  0  0  0  0  0
  145.8944   74.0448  221.3964 H   0  0  0  0  0  0  0  0  0  0  0  0
  145.9202   74.4648  219.6778 H   0  0  0  0  0  0  0  0  0  0  0  0
  143.6721   74.7600  221.6177 H   0  0  0  0  0  0  0  0  0  0  0  0
  144.3738   76.5357  220.1917 H   0  0  0  0  0  0  0  0  0  0  0  0
  144.0811   75.4284  218.7230 H   0  0  0  0  0  0  0  0  0  0  0  0
  143.2270   78.6373  219.9307 H   0  0  0  0  0  0  0  0  0  0  0  0
  141.8613   80.6100  219.5539 H   0  0  0  0  0  0  0  0  0  0  0  0
  139.5433   80.3971  218.7258 H   0  0  0  0  0  0  0  0  0  0  0  0
  138.6165   78.1429  218.2817 H   0  0  0  0  0  0  0  0  0  0  0  0
  139.9844   76.1558  218.6569 H   0  0  0  0  0  0  0  0  0  0  0  0
  138.0540   77.4409  222.3279 H   0  0  0  0  0  0  0  0  0  0  0  0
  138.2409   79.8519  222.8086 H   0  0  0  0  0  0  0  0  0  0  0  0
  139.6925   81.8120  223.3025 H   0  0  0  0  0  0  0  0  0  0  0  0
  142.0031   82.6554  223.6434 H   0  0  0  0  0  0  0  0  0  0  0  0
  143.9600   81.1608  223.5030 H   0  0  0  0  0  0  0  0  0  0  0  0
  143.6292   78.7415  223.0054 H   0  0  0  0  0  0  0  0  0  0  0  0
  1  2  2  0
  2  3  1  0
  3  4  1  0
  4  5  1  0
  5  6  2  0
  5  7  1  0
  7  8  1  0
  8  9  1  0
  9 10  1  0
  9 11  1  0
 11 12  1  0
 12 13  1  0
 13 14  1  0
 14 15  1  0
 15 16  2  0
 16 17  1  0
 17 18  2  0
 18 19  1  0
 19 20  2  0
  2 21  1  0
 21 22  2  0
 22 23  1  0
 23 24  2  0
 24 25  1  0
 25 26  2  0
 26 27  1  0
 27 28  2  0
 28 29  1  0
 29 30  2  0
 12  7  1  0
 20 15  1  0
 30 21  1  0
 29 24  1  0
  3 31  1  0
  4 32  1  0
  4 33  1  0
  8 34  1  0
  8 35  1  0
  9 36  1  1
 10 37  1  0
 11 38  1  0
 11 39  1  0
 12 40  1  1
 13 41  1  0
 13 42  1  0
 16 43  1  0
 17 44  1  0
 18 45  1  0
 19 46  1  0
 20 47  1  0
 22 48  1  0
 23 49  1  0
 25 50  1  0
 26 51  1  0
 27 52  1  0
 28 53  1  0
M  END
>  <smiles>  (34) 
O=C(NCC(=O)N1C[C@@H](O)C[C@H]1COc1ccccc1)c1ccc2ccccc2n1

>  <score_type>  (34) 
oracle

>  <origin>  (34) 
autodockgpu

>  <m_score__min__energy>  (34) 
-9.0899999999999999

>  <m_primary>  (34) 
energy

>  <rmsd>  (34) 
7.772580619410955

>  <m_score__min__rmsd>  (34) 
7.772580619410955

>  <meeko>  (34) 
{"free_energy": -6.63, "intermolecular_energy": -9.01, "internal_energy": -3.8, "cluster_size": 24, "cluster_id": 4, "rank_in_cluster": 22}

>  <energy>  (34) 
-7.26

>  <cluster_rmsd>  (34) 
0.86

>  <cluster>  (34) 
4

$$$$

     RDKit          3D

 53 56  0  0  0  0  0  0  0  0999 V2000
  140.7840   71.5760  221.4050 O   0  0  0  0  0  0  0  0  0  0  0  0
  140.2180   72.1160  222.3940 C   0  0  0  0  0  0  0  0  0  0  0  0
  139.6530   73.4240  222.3440 N   0  0  0  0  0  0  0  0  0  0  0  0
  139.7290   74.1850  221.0890 C   0  0  0  0  0  0  0  0  0  0  0  0
  140.7860   75.2130  221.2160 C   0  0  0  0  0  0  0  0  0  0  0  0
  140.9520   75.7850  222.3220 O   0  0  0  0  0  0  0  0  0  0  0  0
  141.6450   75.6120  220.1550 N   0  0  0  0  0  0  0  0  0  0  0  0
  141.8240   74.7850  218.9680 C   0  0  0  0  0  0  0  0  0  0  0  0
  143.3680   74.8880  218.9010 C   0  0  1  0  0  0  0  0  0  0  0  0
  143.8750   74.4050  217.7240 O   0  0  0  0  0  0  0  0  0  0  0  0
  143.4870   76.4200  219.0200 C   0  0  0  0  0  0  0  0  0  0  0  0
  142.4600   76.8320  220.0610 C   0  0  1  0  0  0  0  0  0  0  0  0
  141.5690   77.9460  219.5290 C   0  0  0  0  0  0  0  0  0  0  0  0
  141.3380   78.9720  220.3070 O   0  0  0  0  0  0  0  0  0  0  0  0
  141.5610   79.6750  221.3810 C   0  0  0  0  0  0  0  0  0  0  0  0
  141.8480   78.9540  222.5720 C   0  0  0  0  0  0  0  0  0  0  0  0
  142.1000   79.5580  223.7630 C   0  0  0  0  0  0  0  0  0  0  0  0
  142.0870   80.9210  223.8680 C   0  0  0  0  0  0  0  0  0  0  0  0
  141.8170   81.6700  222.7550 C   0  0  0  0  0  0  0  0  0  0  0  0
  141.5640   81.0480  221.5560 C   0  0  0  0  0  0  0  0  0  0  0  0
  140.1370   71.3690  223.6470 C   0  0  0  0  0  0  0  0  0  0  0  0
  139.5680   70.1150  223.6940 C   0  0  0  0  0  0  0  0  0  0  0  0
  139.4670   69.3710  224.8520 C   0  0  0  0  0  0  0  0  0  0  0  0
  139.9640   69.9110  226.0320 C   0  0  0  0  0  0  0  0  0  0  0  0
  139.8910   69.2050  227.2320 C   0  0  0  0  0  0  0  0  0  0  0  0
  140.4110   69.8250  228.3500 C   0  0  0  0  0  0  0  0  0  0  0  0
  140.9820   71.0820  228.3090 C   0  0  0  0  0  0  0  0  0  0  0  0
  141.0400   71.7570  227.1010 C   0  0  0  0  0  0  0  0  0  0  0  0
  140.5330   71.1740  225.9640 C   0  0  0  0  0  0  0  0  0  0  0  0
  140.6110   71.8680  224.8090 N   0  0  0  0  0  0  0  0  0  0  0  0
  139.2050   73.7960  223.1990 H   0  0  0  0  0  0  0  0  0  0  0  0
  139.9725   73.5054  220.2591 H   0  0  0  0  0  0  0  0  0  0  0  0
  138.7616   74.6677  220.8862 H   0  0  0  0  0  0  0  0  0  0  0  0
  141.4768   73.7521  219.1179 H   0  0  0  0  0  0  0  0  0  0  0  0
  141.2698   75.0879  218.0674 H   0  0  0  0  0  0  0  0  0  0  0  0
  143.9248   74.3055  219.6498 H   0  0  0  0  0  0  0  0  0  0  0  0
  143.1460   73.9360  217.2440 H   0  0  0  0  0  0  0  0  0  0  0  0
  144.4988   76.7019  219.3467 H   0  0  0  0  0  0  0  0  0  0  0  0
  143.3094   76.9174  218.0551 H   0  0  0  0  0  0  0  0  0  0  0  0
  142.9084   77.1892  220.9998 H   0  0  0  0  0  0  0  0  0  0  0  0
  142.0385   78.3304  218.6115 H   0  0  0  0  0  0  0  0  0  0  0  0
  140.5847   77.4723  219.3994 H   0  0  0  0  0  0  0  0  0  0  0  0
  141.8670   77.8551  222.5275 H   0  0  0  0  0  0  0  0  0  0  0  0
  142.3163   78.9449  224.6503 H   0  0  0  0  0  0  0  0  0  0  0  0
  142.2906   81.4084  224.8329 H   0  0  0  0  0  0  0  0  0  0  0  0
  141.8025   82.7680  222.8200 H   0  0  0  0  0  0  0  0  0  0  0  0
  141.3507   81.6802  220.6815 H   0  0  0  0  0  0  0  0  0  0  0  0
  139.1743   69.6850  222.7612 H   0  0  0  0  0  0  0  0  0  0  0  0
  139.0037   68.3734  224.8412 H   0  0  0  0  0  0  0  0  0  0  0  0
  139.4409   68.2027  227.2851 H   0  0  0  0  0  0  0  0  0  0  0  0
  140.3690   69.2962  229.3136 H   0  0  0  0  0  0  0  0  0  0  0  0
  141.3854   71.5409  229.2237 H   0  0  0  0  0  0  0  0  0  0  0  0
  141.4914   72.7589  227.0514 H   0  0  0  0  0  0  0  0  0  0  0  0
  1  2  2  0
  2  3  1  0
  3  4  1  0
  4  5  1  0
  5  6  2  0
  5  7  1  0
  7  8  1  0
  8  9  1  0
  9 10  1  0
  9 11  1  0
 11 12  1  0
 12 13  1  0
 13 14  1  0
 14 15  1  0
 15 16  2  0
 16 17  1  0
 17 18  2  0
 18 19  1  0
 19 20  2  0
  2 21  1  0
 21 22  2  0
 22 23  1  0
 23 24  2  0
 24 25  1  0
 25 26  2  0
 26 27  1  0
 27 28  2  0
 28 29  1  0
 29 30  2  0
 12  7  1  0
 20 15  1  0
 30 21  1  0
 29 24  1  0
  3 31  1  0
  4 32  1  0
  4 33  1  0
  8 34  1  0
  8 35  1  0
  9 36  1  1
 10 37  1  0
 11 38  1  0
 11 39  1  0
 12 40  1  1
 13 41  1  0
 13 42  1  0
 16 43  1  0
 17 44  1  0
 18 45  1  0
 19 46  1  0
 20 47  1  0
 22 48  1  0
 23 49  1  0
 25 50  1  0
 26 51  1  0
 27 52  1  0
 28 53  1  0
M  END
>  <smiles>  (35) 
O=C(NCC(=O)N1C[C@@H](O)C[C@H]1COc1ccccc1)c1ccc2ccccc2n1

>  <score_type>  (35) 
oracle

>  <origin>  (35) 
autodockgpu

>  <m_score__min__energy>  (35) 
-9.0899999999999999

>  <m_primary>  (35) 
energy

>  <rmsd>  (35) 
1.969218968407563

>  <m_score__min__rmsd>  (35) 
1.969218968407563

>  <meeko>  (35) 
{"free_energy": -8.48, "intermolecular_energy": -10.87, "internal_energy": -1.54, "cluster_size": 13, "cluster_id": 1, "rank_in_cluster": 8}

>  <energy>  (35) 
-6.87

>  <cluster_rmsd>  (35) 
0.96

>  <cluster>  (35) 
4

$$$$

     RDKit          3D

 53 56  0  0  0  0  0  0  0  0999 V2000
  140.3350   73.4200  222.4280 O   0  0  0  0  0  0  0  0  0  0  0  0
  140.3720   72.1600  222.3850 C   0  0  0  0  0  0  0  0  0  0  0  0
  140.5310   71.4300  221.1700 N   0  0  0  0  0  0  0  0  0  0  0  0
  140.6550   72.1700  219.9060 C   0  0  0  0  0  0  0  0  0  0  0  0
  142.0260   71.9910  219.3810 C   0  0  0  0  0  0  0  0  0  0  0  0
  142.3000   70.9540  218.7260 O   0  0  0  0  0  0  0  0  0  0  0  0
  143.0830   72.9260  219.5670 N   0  0  0  0  0  0  0  0  0  0  0  0
  144.2390   72.9540  218.6790 C   0  0  0  0  0  0  0  0  0  0  0  0
  145.3190   73.0530  219.7840 C   0  0  1  0  0  0  0  0  0  0  0  0
  146.5580   73.3480  219.2820 O   0  0  0  0  0  0  0  0  0  0  0  0
  144.7040   74.2180  220.5830 C   0  0  0  0  0  0  0  0  0  0  0  0
  143.2080   73.9540  220.6090 C   0  0  1  0  0  0  0  0  0  0  0  0
  142.4350   75.1810  220.1470 C   0  0  0  0  0  0  0  0  0  0  0  0
  141.4930   75.6430  220.9290 O   0  0  0  0  0  0  0  0  0  0  0  0
  140.9250   76.6010  221.6050 C   0  0  0  0  0  0  0  0  0  0  0  0
  139.5760   76.3920  222.0020 C   0  0  0  0  0  0  0  0  0  0  0  0
  138.8600   77.3050  222.7110 C   0  0  0  0  0  0  0  0  0  0  0  0
  139.4250   78.4940  223.0800 C   0  0  0  0  0  0  0  0  0  0  0  0
  140.7210   78.7530  222.7270 C   0  0  0  0  0  0  0  0  0  0  0  0
  141.4340   77.8210  222.0110 C   0  0  0  0  0  0  0  0  0  0  0  0
  140.2480   71.4140  223.6350 C   0  0  0  0  0  0  0  0  0  0  0  0
  139.6210   70.1880  223.6740 C   0  0  0  0  0  0  0  0  0  0  0  0
  139.4780   69.4450  224.8290 C   0  0  0  0  0  0  0  0  0  0  0  0
  139.9930   69.9580  226.0140 C   0  0  0  0  0  0  0  0  0  0  0  0
  139.8800   69.2530  227.2110 C   0  0  0  0  0  0  0  0  0  0  0  0
  140.4210   69.8440  228.3340 C   0  0  0  0  0  0  0  0  0  0  0  0
  141.0520   71.0730  228.3010 C   0  0  0  0  0  0  0  0  0  0  0  0
  141.1480   71.7480  227.0950 C   0  0  0  0  0  0  0  0  0  0  0  0
  140.6210   71.1930  225.9540 C   0  0  0  0  0  0  0  0  0  0  0  0
  140.7380   71.8860  224.8020 N   0  0  0  0  0  0  0  0  0  0  0  0
  140.5520   70.3970  221.2210 H   0  0  0  0  0  0  0  0  0  0  0  0
  139.9269   71.7827  219.1780 H   0  0  0  0  0  0  0  0  0  0  0  0
  140.4572   73.2384  220.0776 H   0  0  0  0  0  0  0  0  0  0  0  0
  144.3323   72.0363  218.0797 H   0  0  0  0  0  0  0  0  0  0  0  0
  144.2495   73.7375  217.9070 H   0  0  0  0  0  0  0  0  0  0  0  0
  145.5134   72.1324  220.3538 H   0  0  0  0  0  0  0  0  0  0  0  0
  146.6810   74.3300  219.3230 H   0  0  0  0  0  0  0  0  0  0  0  0
  145.1080   74.2369  221.6060 H   0  0  0  0  0  0  0  0  0  0  0  0
  144.9367   75.1912  220.1261 H   0  0  0  0  0  0  0  0  0  0  0  0
  142.8291   73.6829  221.6055 H   0  0  0  0  0  0  0  0  0  0  0  0
  143.1645   75.9910  219.9995 H   0  0  0  0  0  0  0  0  0  0  0  0
  141.9036   74.8474  219.2435 H   0  0  0  0  0  0  0  0  0  0  0  0
  139.0882   75.4466  221.7223 H   0  0  0  0  0  0  0  0  0  0  0  0
  137.8188   77.0854  222.9896 H   0  0  0  0  0  0  0  0  0  0  0  0
  138.8452   79.2325  223.6531 H   0  0  0  0  0  0  0  0  0  0  0  0
  141.1914   79.7046  223.0154 H   0  0  0  0  0  0  0  0  0  0  0  0
  142.4740   78.0605  221.7445 H   0  0  0  0  0  0  0  0  0  0  0  0
  139.2135   69.7801  222.7372 H   0  0  0  0  0  0  0  0  0  0  0  0
  138.9686   68.4702  224.8119 H   0  0  0  0  0  0  0  0  0  0  0  0
  139.3834   68.2726  227.2580 H   0  0  0  0  0  0  0  0  0  0  0  0
  140.3470   69.3150  229.2956 H   0  0  0  0  0  0  0  0  0  0  0  0
  141.4721   71.5091  229.2193 H   0  0  0  0  0  0  0  0  0  0  0  0
  141.6459   72.7279  227.0510 H   0  0  0  0  0  0  0  0  0  0  0  0
  1  2  2  0
  2  3  1  0
  3  4  1  0
  4  5  1  0
  5  6  2  0
  5  7  1  0
  7  8  1  0
  8  9  1  0
  9 10  1  0
  9 11  1  0
 11 12  1  0
 12 13  1  0
 13 14  1  0
 14 15  1  0
 15 16  2  0
 16 17  1  0
 17 18  2  0
 18 19  1  0
 19 20  2  0
  2 21  1  0
 21 22  2  0
 22 23  1  0
 23 24  2  0
 24 25  1  0
 25 26  2  0
 26 27  1  0
 27 28  2  0
 28 29  1  0
 29 30  2  0
 12  7  1  0
 20 15  1  0
 30 21  1  0
 29 24  1  0
  3 31  1  0
  4 32  1  0
  4 33  1  0
  8 34  1  0
  8 35  1  0
  9 36  1  1
 10 37  1  0
 11 38  1  0
 11 39  1  0
 12 40  1  1
 13 41  1  0
 13 42  1  0
 16 43  1  0
 17 44  1  0
 18 45  1  0
 19 46  1  0
 20 47  1  0
 22 48  1  0
 23 49  1  0
 25 50  1  0
 26 51  1  0
 27 52  1  0
 28 53  1  0
M  END
>  <smiles>  (36) 
O=C(NCC(=O)N1C[C@@H](O)C[C@H]1COc1ccccc1)c1ccc2ccccc2n1

>  <score_type>  (36) 
oracle

>  <origin>  (36) 
autodockgpu

>  <m_score__min__energy>  (36) 
-9.0899999999999999

>  <m_primary>  (36) 
energy

>  <rmsd>  (36) 
3.5722980935303745

>  <m_score__min__rmsd>  (36) 
3.5722980935303745

>  <meeko>  (36) 
{"free_energy": -8.73, "intermolecular_energy": -11.11, "internal_energy": -1.55, "cluster_size": 3, "cluster_id": 2, "rank_in_cluster": 1}

>  <energy>  (36) 
-6.84

>  <cluster_rmsd>  (36) 
0.71

>  <cluster>  (36) 
4

$$$$

     RDKit          3D

 53 56  0  0  0  0  0  0  0  0999 V2000
  140.1920   71.2560  221.2900 O   0  0  0  0  0  0  0  0  0  0  0  0
  139.9850   71.9060  222.3510 C   0  0  0  0  0  0  0  0  0  0  0  0
  139.7210   73.3070  222.3620 N   0  0  0  0  0  0  0  0  0  0  0  0
  139.6880   74.0350  221.0860 C   0  0  0  0  0  0  0  0  0  0  0  0
  139.5680   75.4830  221.3640 C   0  0  0  0  0  0  0  0  0  0  0  0
  139.3820   75.8660  222.5460 O   0  0  0  0  0  0  0  0  0  0  0  0
  139.6500   76.4980  220.3700 N   0  0  0  0  0  0  0  0  0  0  0  0
  138.7570   77.6500  220.3840 C   0  0  0  0  0  0  0  0  0  0  0  0
  138.3940   77.6230  218.8790 C   0  0  1  0  0  0  0  0  0  0  0  0
  137.7330   78.7530  218.4780 O   0  0  0  0  0  0  0  0  0  0  0  0
  139.8260   77.5350  218.3150 C   0  0  0  0  0  0  0  0  0  0  0  0
  140.5680   76.5710  219.2250 C   0  0  1  0  0  0  0  0  0  0  0  0
  141.8720   77.1860  219.7130 C   0  0  0  0  0  0  0  0  0  0  0  0
  141.8130   78.3310  220.3430 O   0  0  0  0  0  0  0  0  0  0  0  0
  141.8690   79.0530  221.4260 C   0  0  0  0  0  0  0  0  0  0  0  0
  141.4910   78.4180  222.6410 C   0  0  0  0  0  0  0  0  0  0  0  0
  141.5010   79.0500  223.8440 C   0  0  0  0  0  0  0  0  0  0  0  0
  141.8860   80.3580  223.9380 C   0  0  0  0  0  0  0  0  0  0  0  0
  142.2610   81.0240  222.8030 C   0  0  0  0  0  0  0  0  0  0  0  0
  142.2470   80.3740  221.5920 C   0  0  0  0  0  0  0  0  0  0  0  0
  140.0160   71.1920  223.6250 C   0  0  0  0  0  0  0  0  0  0  0  0
  139.5680   69.8930  223.7260 C   0  0  0  0  0  0  0  0  0  0  0  0
  139.5770   69.1770  224.9060 C   0  0  0  0  0  0  0  0  0  0  0  0
  140.0610   69.7950  226.0520 C   0  0  0  0  0  0  0  0  0  0  0  0
  140.0960   69.1220  227.2720 C   0  0  0  0  0  0  0  0  0  0  0  0
  140.5940   69.8190  228.3540 C   0  0  0  0  0  0  0  0  0  0  0  0
  141.0450   71.1220  228.2580 C   0  0  0  0  0  0  0  0  0  0  0  0
  140.9980   71.7630  227.0310 C   0  0  0  0  0  0  0  0  0  0  0  0
  140.5090   71.1030  225.9300 C   0  0  0  0  0  0  0  0  0  0  0  0
  140.4820   71.7670  224.7560 N   0  0  0  0  0  0  0  0  0  0  0  0
  139.5610   73.7660  223.2750 H   0  0  0  0  0  0  0  0  0  0  0  0
  140.6152   73.8419  220.5265 H   0  0  0  0  0  0  0  0  0  0  0  0
  138.8295   73.6980  220.4865 H   0  0  0  0  0  0  0  0  0  0  0  0
  137.8811   77.4960  221.0313 H   0  0  0  0  0  0  0  0  0  0  0  0
  139.1721   78.5909  220.7743 H   0  0  0  0  0  0  0  0  0  0  0  0
  137.7044   76.8269  218.5616 H   0  0  0  0  0  0  0  0  0  0  0  0
  138.1570   79.0780  217.6430 H   0  0  0  0  0  0  0  0  0  0  0  0
  139.8092   77.1528  217.2837 H   0  0  0  0  0  0  0  0  0  0  0  0
  140.3121   78.5213  218.2859 H   0  0  0  0  0  0  0  0  0  0  0  0
  140.8159   75.6149  218.7408 H   0  0  0  0  0  0  0  0  0  0  0  0
  142.3405   76.4611  220.3950 H   0  0  0  0  0  0  0  0  0  0  0  0
  142.4327   77.4072  218.7929 H   0  0  0  0  0  0  0  0  0  0  0  0
  141.1754   77.3648  222.6054 H   0  0  0  0  0  0  0  0  0  0  0  0
  141.1968   78.5044  224.7494 H   0  0  0  0  0  0  0  0  0  0  0  0
  141.8943   80.8682  224.9125 H   0  0  0  0  0  0  0  0  0  0  0  0
  142.5730   82.0773  222.8596 H   0  0  0  0  0  0  0  0  0  0  0  0
  142.5552   80.9386  220.6997 H   0  0  0  0  0  0  0  0  0  0  0  0
  139.1836   69.4015  222.8201 H   0  0  0  0  0  0  0  0  0  0  0  0
  139.2093   68.1408  224.9382 H   0  0  0  0  0  0  0  0  0  0  0  0
  139.7434   68.0845  227.3679 H   0  0  0  0  0  0  0  0  0  0  0  0
  140.6336   69.3174  229.3322 H   0  0  0  0  0  0  0  0  0  0  0  0
  141.4361   71.6431  229.1443 H   0  0  0  0  0  0  0  0  0  0  0  0
  141.3522   72.8003  226.9383 H   0  0  0  0  0  0  0  0  0  0  0  0
  1  2  2  0
  2  3  1  0
  3  4  1  0
  4  5  1  0
  5  6  2  0
  5  7  1  0
  7  8  1  0
  8  9  1  0
  9 10  1  0
  9 11  1  0
 11 12  1  0
 12 13  1  0
 13 14  1  0
 14 15  1  0
 15 16  2  0
 16 17  1  0
 17 18  2  0
 18 19  1  0
 19 20  2  0
  2 21  1  0
 21 22  2  0
 22 23  1  0
 23 24  2  0
 24 25  1  0
 25 26  2  0
 26 27  1  0
 27 28  2  0
 28 29  1  0
 29 30  2  0
 12  7  1  0
 20 15  1  0
 30 21  1  0
 29 24  1  0
  3 31  1  0
  4 32  1  0
  4 33  1  0
  8 34  1  0
  8 35  1  0
  9 36  1  1
 10 37  1  0
 11 38  1  0
 11 39  1  0
 12 40  1  6
 13 41  1  0
 13 42  1  0
 16 43  1  0
 17 44  1  0
 18 45  1  0
 19 46  1  0
 20 47  1  0
 22 48  1  0
 23 49  1  0
 25 50  1  0
 26 51  1  0
 27 52  1  0
 28 53  1  0
M  END
>  <smiles>  (37) 
O=C(NCC(=O)N1C[C@@H](O)C[C@H]1COc1ccccc1)c1ccc2ccccc2n1

>  <score_type>  (37) 
oracle

>  <origin>  (37) 
autodockgpu

>  <m_score__min__energy>  (37) 
-9.0899999999999999

>  <m_primary>  (37) 
energy

>  <rmsd>  (37) 
1.7759244019915534

>  <m_score__min__rmsd>  (37) 
1.7759244019915534

>  <meeko>  (37) 
{"free_energy": -7.58, "intermolecular_energy": -9.97, "internal_energy": -2.24, "cluster_size": 13, "cluster_id": 1, "rank_in_cluster": 13}

>  <energy>  (37) 
-6.83

>  <cluster_rmsd>  (37) 
0.7

>  <cluster>  (37) 
4

$$$$

     RDKit          3D

 53 56  0  0  0  0  0  0  0  0999 V2000
  138.8830   75.1340  222.3690 O   0  0  0  0  0  0  0  0  0  0  0  0
  139.9970   75.6750  222.1280 C   0  0  0  0  0  0  0  0  0  0  0  0
  141.0810   74.9760  221.5200 N   0  0  0  0  0  0  0  0  0  0  0  0
  140.9020   73.5630  221.1550 C   0  0  0  0  0  0  0  0  0  0  0  0
  141.7460   73.2620  219.9780 C   0  0  0  0  0  0  0  0  0  0  0  0
  141.2230   72.7200  218.9730 O   0  0  0  0  0  0  0  0  0  0  0  0
  143.1390   73.5460  219.8990 N   0  0  0  0  0  0  0  0  0  0  0  0
  144.0450   72.6980  219.1350 C   0  0  0  0  0  0  0  0  0  0  0  0
  145.1600   72.6040  220.2070 C   0  0  1  0  0  0  0  0  0  0  0  0
  146.3140   72.0560  219.7170 O   0  0  0  0  0  0  0  0  0  0  0  0
  145.2920   74.1100  220.5100 C   0  0  0  0  0  0  0  0  0  0  0  0
  143.8740   74.6520  220.5270 C   0  0  1  0  0  0  0  0  0  0  0  0
  143.7500   75.8670  219.6190 C   0  0  0  0  0  0  0  0  0  0  0  0
  142.5530   76.3440  219.3910 O   0  0  0  0  0  0  0  0  0  0  0  0
  141.6910   77.3210  219.3520 C   0  0  0  0  0  0  0  0  0  0  0  0
  142.2010   78.6340  219.5460 C   0  0  0  0  0  0  0  0  0  0  0  0
  141.4180   79.7440  219.5310 C   0  0  0  0  0  0  0  0  0  0  0  0
  140.0710   79.6410  219.3210 C   0  0  0  0  0  0  0  0  0  0  0  0
  139.5210   78.4030  219.1270 C   0  0  0  0  0  0  0  0  0  0  0  0
  140.3240   77.2880  219.1450 C   0  0  0  0  0  0  0  0  0  0  0  0
  140.1860   77.0780  222.4870 C   0  0  0  0  0  0  0  0  0  0  0  0
  139.1090   77.9120  222.6920 C   0  0  0  0  0  0  0  0  0  0  0  0
  139.2350   79.2440  223.0320 C   0  0  0  0  0  0  0  0  0  0  0  0
  140.5120   79.7730  223.1750 C   0  0  0  0  0  0  0  0  0  0  0  0
  140.7020   81.1110  223.5180 C   0  0  0  0  0  0  0  0  0  0  0  0
  142.0070   81.5430  223.6360 C   0  0  0  0  0  0  0  0  0  0  0  0
  143.0910   80.7110  223.4310 C   0  0  0  0  0  0  0  0  0  0  0  0
  142.8680   79.3870  223.0920 C   0  0  0  0  0  0  0  0  0  0  0  0
  141.5840   78.9170  222.9640 C   0  0  0  0  0  0  0  0  0  0  0  0
  141.4150   77.6200  222.6330 N   0  0  0  0  0  0  0  0  0  0  0  0
  141.9630   75.4910  221.3550 H   0  0  0  0  0  0  0  0  0  0  0  0
  141.2018   72.9230  221.9979 H   0  0  0  0  0  0  0  0  0  0  0  0
  139.8458   73.3707  220.9154 H   0  0  0  0  0  0  0  0  0  0  0  0
  143.6052   71.7181  218.8975 H   0  0  0  0  0  0  0  0  0  0  0  0
  144.3447   73.0648  218.1422 H   0  0  0  0  0  0  0  0  0  0  0  0
  144.9477   71.9585  221.0720 H   0  0  0  0  0  0  0  0  0  0  0  0
  146.7150   71.4940  220.4280 H   0  0  0  0  0  0  0  0  0  0  0  0
  145.7730   74.2638  221.4872 H   0  0  0  0  0  0  0  0  0  0  0  0
  145.9131   74.6219  219.7602 H   0  0  0  0  0  0  0  0  0  0  0  0
  143.5333   74.9534  221.5285 H   0  0  0  0  0  0  0  0  0  0  0  0
  144.3435   76.6752  220.0712 H   0  0  0  0  0  0  0  0  0  0  0  0
  144.0961   75.5124  218.6369 H   0  0  0  0  0  0  0  0  0  0  0  0
  143.2808   78.7568  219.7163 H   0  0  0  0  0  0  0  0  0  0  0  0
  141.8714   80.7337  219.6891 H   0  0  0  0  0  0  0  0  0  0  0  0
  139.4382   80.5406  219.3081 H   0  0  0  0  0  0  0  0  0  0  0  0
  138.4390   78.3007  218.9571 H   0  0  0  0  0  0  0  0  0  0  0  0
  139.8501   76.3084  218.9848 H   0  0  0  0  0  0  0  0  0  0  0  0
  138.0972   77.4955  222.5791 H   0  0  0  0  0  0  0  0  0  0  0  0
  138.3452   79.8721  223.1861 H   0  0  0  0  0  0  0  0  0  0  0  0
  139.8526   81.7893  223.6864 H   0  0  0  0  0  0  0  0  0  0  0  0
  142.1922   82.5935  223.9045 H   0  0  0  0  0  0  0  0  0  0  0  0
  144.1165   81.0949  223.5356 H   0  0  0  0  0  0  0  0  0  0  0  0
  143.7198   78.7113  222.9251 H   0  0  0  0  0  0  0  0  0  0  0  0
  1  2  2  0
  2  3  1  0
  3  4  1  0
  4  5  1  0
  5  6  2  0
  5  7  1  0
  7  8  1  0
  8  9  1  0
  9 10  1  0
  9 11  1  0
 11 12  1  0
 12 13  1  0
 13 14  1  0
 14 15  1  0
 15 16  2  0
 16 17  1  0
 17 18  2  0
 18 19  1  0
 19 20  2  0
  2 21  1  0
 21 22  2  0
 22 23  1  0
 23 24  2  0
 24 25  1  0
 25 26  2  0
 26 27  1  0
 27 28  2  0
 28 29  1  0
 29 30  2  0
 12  7  1  0
 20 15  1  0
 30 21  1  0
 29 24  1  0
  3 31  1  0
  4 32  1  0
  4 33  1  0
  8 34  1  0
  8 35  1  0
  9 36  1  1
 10 37  1  0
 11 38  1  0
 11 39  1  0
 12 40  1  1
 13 41  1  0
 13 42  1  0
 16 43  1  0
 17 44  1  0
 18 45  1  0
 19 46  1  0
 20 47  1  0
 22 48  1  0
 23 49  1  0
 25 50  1  0
 26 51  1  0
 27 52  1  0
 28 53  1  0
M  END
>  <smiles>  (38) 
O=C(NCC(=O)N1C[C@@H](O)C[C@H]1COc1ccccc1)c1ccc2ccccc2n1

>  <score_type>  (38) 
oracle

>  <origin>  (38) 
autodockgpu

>  <m_score__min__energy>  (38) 
-9.0899999999999999

>  <m_primary>  (38) 
energy

>  <rmsd>  (38) 
7.739696088424667

>  <m_score__min__rmsd>  (38) 
7.739696088424667

>  <meeko>  (38) 
{"free_energy": -6.75, "intermolecular_energy": -9.13, "internal_energy": -3.79, "cluster_size": 24, "cluster_id": 4, "rank_in_cluster": 19}

>  <energy>  (38) 
-6.82

>  <cluster_rmsd>  (38) 
0.71

>  <cluster>  (38) 
4

$$$$

     RDKit          3D

 53 56  0  0  0  0  0  0  0  0999 V2000
  141.0800   71.9130  221.2460 O   0  0  0  0  0  0  0  0  0  0  0  0
  140.4860   72.4060  222.2440 C   0  0  0  0  0  0  0  0  0  0  0  0
  140.0300   73.7580  222.2830 N   0  0  0  0  0  0  0  0  0  0  0  0
  140.2600   74.6200  221.1150 C   0  0  0  0  0  0  0  0  0  0  0  0
  140.3620   76.0240  221.5700 C   0  0  0  0  0  0  0  0  0  0  0  0
  139.8070   76.3600  222.6460 O   0  0  0  0  0  0  0  0  0  0  0  0
  141.0580   77.0450  220.8650 N   0  0  0  0  0  0  0  0  0  0  0  0
  141.8210   78.0700  221.5660 C   0  0  0  0  0  0  0  0  0  0  0  0
  141.2920   79.2810  220.7570 C   0  0  1  0  0  0  0  0  0  0  0  0
  142.0040   80.4250  221.0000 O   0  0  0  0  0  0  0  0  0  0  0  0
  141.5320   78.7160  219.3430 C   0  0  0  0  0  0  0  0  0  0  0  0
  141.1290   77.2530  219.4120 C   0  0  1  0  0  0  0  0  0  0  0  0
  142.2370   76.3620  218.8680 C   0  0  0  0  0  0  0  0  0  0  0  0
  142.8420   75.5560  219.7030 O   0  0  0  0  0  0  0  0  0  0  0  0
  143.7400   74.6570  219.9880 C   0  0  0  0  0  0  0  0  0  0  0  0
  143.3710   73.2980  219.7930 C   0  0  0  0  0  0  0  0  0  0  0  0
  144.2060   72.2570  220.0500 C   0  0  0  0  0  0  0  0  0  0  0  0
  145.4710   72.4810  220.5180 C   0  0  0  0  0  0  0  0  0  0  0  0
  145.8850   73.7680  220.7250 C   0  0  0  0  0  0  0  0  0  0  0  0
  145.0310   74.8120  220.4620 C   0  0  0  0  0  0  0  0  0  0  0  0
  140.2530   71.5590  223.4090 C   0  0  0  0  0  0  0  0  0  0  0  0
  139.5810   70.3600  223.2970 C   0  0  0  0  0  0  0  0  0  0  0  0
  139.3370   69.5250  224.3680 C   0  0  0  0  0  0  0  0  0  0  0  0
  139.7890   69.9080  225.6240 C   0  0  0  0  0  0  0  0  0  0  0  0
  139.5720   69.1050  226.7430 C   0  0  0  0  0  0  0  0  0  0  0  0
  140.0590   69.5710  227.9470 C   0  0  0  0  0  0  0  0  0  0  0  0
  140.7340   70.7710  228.0650 C   0  0  0  0  0  0  0  0  0  0  0  0
  140.9330   71.5460  226.9350 C   0  0  0  0  0  0  0  0  0  0  0  0
  140.4640   71.1170  225.7170 C   0  0  0  0  0  0  0  0  0  0  0  0
  140.6810   71.9050  224.6430 N   0  0  0  0  0  0  0  0  0  0  0  0
  139.5510   74.0860  223.1380 H   0  0  0  0  0  0  0  0  0  0  0  0
  141.1947   74.3245  220.6160 H   0  0  0  0  0  0  0  0  0  0  0  0
  139.4259   74.5173  220.4052 H   0  0  0  0  0  0  0  0  0  0  0  0
  141.5628   78.1313  222.6335 H   0  0  0  0  0  0  0  0  0  0  0  0
  142.9125   77.9370  221.5984 H   0  0  0  0  0  0  0  0  0  0  0  0
  140.2619   79.5976  220.9775 H   0  0  0  0  0  0  0  0  0  0  0  0
  142.9510   80.1740  221.1450 H   0  0  0  0  0  0  0  0  0  0  0  0
  140.9137   79.2500  218.6064 H   0  0  0  0  0  0  0  0  0  0  0  0
  142.5800   78.8345  219.0306 H   0  0  0  0  0  0  0  0  0  0  0  0
  140.2146   77.0243  218.8449 H   0  0  0  0  0  0  0  0  0  0  0  0
  141.7972   75.7407  218.0740 H   0  0  0  0  0  0  0  0  0  0  0  0
  143.0208   77.0633  218.5458 H   0  0  0  0  0  0  0  0  0  0  0  0
  142.3612   73.0785  219.4160 H   0  0  0  0  0  0  0  0  0  0  0  0
  143.8615   71.2262  219.8802 H   0  0  0  0  0  0  0  0  0  0  0  0
  146.1464   71.6378  220.7252 H   0  0  0  0  0  0  0  0  0  0  0  0
  146.8993   73.9670  221.1012 H   0  0  0  0  0  0  0  0  0  0  0  0
  145.3962   75.8344  220.6392 H   0  0  0  0  0  0  0  0  0  0  0  0
  139.2213   70.0538  222.3036 H   0  0  0  0  0  0  0  0  0  0  0  0
  138.7965   68.5770  224.2300 H   0  0  0  0  0  0  0  0  0  0  0  0
  139.0382   68.1460  226.6695 H   0  0  0  0  0  0  0  0  0  0  0  0
  139.9036   68.9623  228.8499 H   0  0  0  0  0  0  0  0  0  0  0  0
  141.1082   71.1061  229.0436 H   0  0  0  0  0  0  0  0  0  0  0  0
  141.4664   72.5049  227.0124 H   0  0  0  0  0  0  0  0  0  0  0  0
  1  2  2  0
  2  3  1  0
  3  4  1  0
  4  5  1  0
  5  6  2  0
  5  7  1  0
  7  8  1  0
  8  9  1  0
  9 10  1  0
  9 11  1  0
 11 12  1  0
 12 13  1  0
 13 14  1  0
 14 15  1  0
 15 16  2  0
 16 17  1  0
 17 18  2  0
 18 19  1  0
 19 20  2  0
  2 21  1  0
 21 22  2  0
 22 23  1  0
 23 24  2  0
 24 25  1  0
 25 26  2  0
 26 27  1  0
 27 28  2  0
 28 29  1  0
 29 30  2  0
 12  7  1  0
 20 15  1  0
 30 21  1  0
 29 24  1  0
  3 31  1  0
  4 32  1  0
  4 33  1  0
  8 34  1  0
  8 35  1  0
  9 36  1  1
 10 37  1  0
 11 38  1  0
 11 39  1  0
 12 40  1  6
 13 41  1  0
 13 42  1  0
 16 43  1  0
 17 44  1  0
 18 45  1  0
 19 46  1  0
 20 47  1  0
 22 48  1  0
 23 49  1  0
 25 50  1  0
 26 51  1  0
 27 52  1  0
 28 53  1  0
M  END
>  <smiles>  (39) 
O=C(NCC(=O)N1C[C@@H](O)C[C@H]1COc1ccccc1)c1ccc2ccccc2n1

>  <score_type>  (39) 
oracle

>  <origin>  (39) 
autodockgpu

>  <m_score__min__energy>  (39) 
-9.0899999999999999

>  <m_primary>  (39) 
energy

>  <rmsd>  (39) 
2.5649017909711205

>  <m_score__min__rmsd>  (39) 
2.5649017909711205

>  <meeko>  (39) 
{"free_energy": -8.07, "intermolecular_energy": -10.46, "internal_energy": -2.25, "cluster_size": 9, "cluster_id": 3, "rank_in_cluster": 4}

>  <energy>  (39) 
-6.8

>  <cluster_rmsd>  (39) 
1.0

>  <cluster>  (39) 
4

$$$$

     RDKit          3D

 53 56  0  0  0  0  0  0  0  0999 V2000
  138.8550   75.0970  222.3780 O   0  0  0  0  0  0  0  0  0  0  0  0
  139.9690   75.6390  222.1430 C   0  0  0  0  0  0  0  0  0  0  0  0
  141.0650   74.9360  221.5610 N   0  0  0  0  0  0  0  0  0  0  0  0
  140.8980   73.5170  221.2170 C   0  0  0  0  0  0  0  0  0  0  0  0
  141.7340   73.2100  220.0360 C   0  0  0  0  0  0  0  0  0  0  0  0
  141.2080   72.6440  219.0450 O   0  0  0  0  0  0  0  0  0  0  0  0
  143.1210   73.5120  219.9360 N   0  0  0  0  0  0  0  0  0  0  0  0
  144.0330   72.6600  219.1850 C   0  0  0  0  0  0  0  0  0  0  0  0
  145.1590   72.6100  220.2490 C   0  0  1  0  0  0  0  0  0  0  0  0
  146.3170   72.0680  219.7610 O   0  0  0  0  0  0  0  0  0  0  0  0
  145.2710   74.1240  220.5140 C   0  0  0  0  0  0  0  0  0  0  0  0
  143.8440   74.6450  220.5310 C   0  0  1  0  0  0  0  0  0  0  0  0
  143.6940   75.8360  219.5940 C   0  0  0  0  0  0  0  0  0  0  0  0
  142.4950   76.3270  219.4150 O   0  0  0  0  0  0  0  0  0  0  0  0
  141.6530   77.3210  219.3660 C   0  0  0  0  0  0  0  0  0  0  0  0
  142.1910   78.6250  219.5440 C   0  0  0  0  0  0  0  0  0  0  0  0
  141.4300   79.7520  219.5170 C   0  0  0  0  0  0  0  0  0  0  0  0
  140.0810   79.6740  219.3130 C   0  0  0  0  0  0  0  0  0  0  0  0
  139.5050   78.4460  219.1350 C   0  0  0  0  0  0  0  0  0  0  0  0
  140.2850   77.3140  219.1640 C   0  0  0  0  0  0  0  0  0  0  0  0
  140.1470   77.0480  222.4820 C   0  0  0  0  0  0  0  0  0  0  0  0
  139.0630   77.8800  222.6640 C   0  0  0  0  0  0  0  0  0  0  0  0
  139.1790   79.2180  222.9840 C   0  0  0  0  0  0  0  0  0  0  0  0
  140.4510   79.7560  223.1320 C   0  0  0  0  0  0  0  0  0  0  0  0
  140.6300   81.1000  223.4570 C   0  0  0  0  0  0  0  0  0  0  0  0
  141.9310   81.5410  223.5820 C   0  0  0  0  0  0  0  0  0  0  0  0
  143.0220   80.7120  223.4020 C   0  0  0  0  0  0  0  0  0  0  0  0
  142.8100   79.3810  223.0810 C   0  0  0  0  0  0  0  0  0  0  0  0
  141.5300   78.9030  222.9470 C   0  0  0  0  0  0  0  0  0  0  0  0
  141.3710   77.6000  222.6330 N   0  0  0  0  0  0  0  0  0  0  0  0
  141.9470   75.4530  221.4010 H   0  0  0  0  0  0  0  0  0  0  0  0
  141.2130   72.8916  222.0653 H   0  0  0  0  0  0  0  0  0  0  0  0
  139.8417   73.3097  220.9906 H   0  0  0  0  0  0  0  0  0  0  0  0
  143.6067   71.6678  218.9758 H   0  0  0  0  0  0  0  0  0  0  0  0
  144.3181   73.0067  218.1807 H   0  0  0  0  0  0  0  0  0  0  0  0
  144.9641   71.9832  221.1316 H   0  0  0  0  0  0  0  0  0  0  0  0
  146.6590   71.4200  220.4290 H   0  0  0  0  0  0  0  0  0  0  0  0
  145.7583   74.3088  221.4827 H   0  0  0  0  0  0  0  0  0  0  0  0
  145.8777   74.6268  219.7464 H   0  0  0  0  0  0  0  0  0  0  0  0
  143.5068   74.9655  221.5278 H   0  0  0  0  0  0  0  0  0  0  0  0
  144.3238   76.6460  219.9905 H   0  0  0  0  0  0  0  0  0  0  0  0
  143.9833   75.4478  218.6062 H   0  0  0  0  0  0  0  0  0  0  0  0
  143.2734   78.7272  219.7114 H   0  0  0  0  0  0  0  0  0  0  0  0
  141.9042   80.7341  219.6605 H   0  0  0  0  0  0  0  0  0  0  0  0
  139.4666   80.5862  219.2922 H   0  0  0  0  0  0  0  0  0  0  0  0
  138.4207   78.3644  218.9691 H   0  0  0  0  0  0  0  0  0  0  0  0
  139.7901   76.3426  219.0174 H   0  0  0  0  0  0  0  0  0  0  0  0
  138.0545   77.4563  222.5484 H   0  0  0  0  0  0  0  0  0  0  0  0
  138.2844   79.8438  223.1187 H   0  0  0  0  0  0  0  0  0  0  0  0
  139.7751   81.7759  223.6065 H   0  0  0  0  0  0  0  0  0  0  0  0
  142.1075   82.5967  223.8356 H   0  0  0  0  0  0  0  0  0  0  0  0
  144.0441   81.1033  223.5120 H   0  0  0  0  0  0  0  0  0  0  0  0
  143.6670   78.7074  222.9335 H   0  0  0  0  0  0  0  0  0  0  0  0
  1  2  2  0
  2  3  1  0
  3  4  1  0
  4  5  1  0
  5  6  2  0
  5  7  1  0
  7  8  1  0
  8  9  1  0
  9 10  1  0
  9 11  1  0
 11 12  1  0
 12 13  1  0
 13 14  1  0
 14 15  1  0
 15 16  2  0
 16 17  1  0
 17 18  2  0
 18 19  1  0
 19 20  2  0
  2 21  1  0
 21 22  2  0
 22 23  1  0
 23 24  2  0
 24 25  1  0
 25 26  2  0
 26 27  1  0
 27 28  2  0
 28 29  1  0
 29 30  2  0
 12  7  1  0
 20 15  1  0
 30 21  1  0
 29 24  1  0
  3 31  1  0
  4 32  1  0
  4 33  1  0
  8 34  1  0
  8 35  1  0
  9 36  1  1
 10 37  1  0
 11 38  1  0
 11 39  1  0
 12 40  1  1
 13 41  1  0
 13 42  1  0
 16 43  1  0
 17 44  1  0
 18 45  1  0
 19 46  1  0
 20 47  1  0
 22 48  1  0
 23 49  1  0
 25 50  1  0
 26 51  1  0
 27 52  1  0
 28 53  1  0
M  END
>  <smiles>  (40) 
O=C(NCC(=O)N1C[C@@H](O)C[C@H]1COc1ccccc1)c1ccc2ccccc2n1

>  <score_type>  (40) 
oracle

>  <origin>  (40) 
autodockgpu

>  <m_score__min__energy>  (40) 
-9.0899999999999999

>  <m_primary>  (40) 
energy

>  <rmsd>  (40) 
7.729548211640881

>  <m_score__min__rmsd>  (40) 
7.729548211640881

>  <meeko>  (40) 
{"free_energy": -6.77, "intermolecular_energy": -9.15, "internal_energy": -3.76, "cluster_size": 24, "cluster_id": 4, "rank_in_cluster": 18}

>  <energy>  (40) 
-6.8

>  <cluster_rmsd>  (40) 
0.98

>  <cluster>  (40) 
4

$$$$

     RDKit          3D

 53 56  0  0  0  0  0  0  0  0999 V2000
  139.9550   74.1510  222.3520 O   0  0  0  0  0  0  0  0  0  0  0  0
  140.2450   75.0910  221.5610 C   0  0  0  0  0  0  0  0  0  0  0  0
  140.5950   74.8740  220.1960 N   0  0  0  0  0  0  0  0  0  0  0  0
  140.6230   73.4990  219.6780 C   0  0  0  0  0  0  0  0  0  0  0  0
  141.8510   73.3150  218.8730 C   0  0  0  0  0  0  0  0  0  0  0  0
  141.7570   72.8380  217.7150 O   0  0  0  0  0  0  0  0  0  0  0  0
  143.1600   73.6450  219.3240 N   0  0  0  0  0  0  0  0  0  0  0  0
  144.3380   72.9620  218.8040 C   0  0  0  0  0  0  0  0  0  0  0  0
  145.0290   72.7190  220.1690 C   0  0  1  0  0  0  0  0  0  0  0  0
  146.3220   72.2920  220.0330 O   0  0  0  0  0  0  0  0  0  0  0  0
  144.9260   74.1540  220.7210 C   0  0  0  0  0  0  0  0  0  0  0  0
  143.5450   74.6480  220.3260 C   0  0  1  0  0  0  0  0  0  0  0  0
  143.6350   75.9960  219.6230 C   0  0  0  0  0  0  0  0  0  0  0  0
  142.5170   76.5990  219.3070 O   0  0  0  0  0  0  0  0  0  0  0  0
  141.8300   77.6620  218.9990 C   0  0  0  0  0  0  0  0  0  0  0  0
  142.1900   78.8710  219.6570 C   0  0  0  0  0  0  0  0  0  0  0  0
  141.5600   80.0540  219.4330 C   0  0  0  0  0  0  0  0  0  0  0  0
  140.5260   80.1320  218.5410 C   0  0  0  0  0  0  0  0  0  0  0  0
  140.1330   79.0020  217.8770 C   0  0  0  0  0  0  0  0  0  0  0  0
  140.7790   77.8120  218.1120 C   0  0  0  0  0  0  0  0  0  0  0  0
  140.2220   76.4610  222.0660 C   0  0  0  0  0  0  0  0  0  0  0  0
  139.0310   77.1150  222.2980 C   0  0  0  0  0  0  0  0  0  0  0  0
  138.9560   78.4080  222.7740 C   0  0  0  0  0  0  0  0  0  0  0  0
  140.1400   79.0890  223.0320 C   0  0  0  0  0  0  0  0  0  0  0  0
  140.1270   80.3970  223.5140 C   0  0  0  0  0  0  0  0  0  0  0  0
  141.3530   80.9880  223.7390 C   0  0  0  0  0  0  0  0  0  0  0  0
  142.5500   80.3380  223.5070 C   0  0  0  0  0  0  0  0  0  0  0  0
  142.5290   79.0380  223.0290 C   0  0  0  0  0  0  0  0  0  0  0  0
  141.3280   78.4140  222.7920 C   0  0  0  0  0  0  0  0  0  0  0  0
  141.3560   77.1470  222.3260 N   0  0  0  0  0  0  0  0  0  0  0  0
  140.8200   75.6980  219.6130 H   0  0  0  0  0  0  0  0  0  0  0  0
  140.6218   72.7881  220.5174 H   0  0  0  0  0  0  0  0  0  0  0  0
  139.7366   73.3184  219.0522 H   0  0  0  0  0  0  0  0  0  0  0  0
  144.0872   72.0246  218.2859 H   0  0  0  0  0  0  0  0  0  0  0  0
  144.9237   73.4984  218.0429 H   0  0  0  0  0  0  0  0  0  0  0  0
  144.5909   71.9318  220.8002 H   0  0  0  0  0  0  0  0  0  0  0  0
  146.5650   71.7810  220.8470 H   0  0  0  0  0  0  0  0  0  0  0  0
  145.0343   74.1526  221.8157 H   0  0  0  0  0  0  0  0  0  0  0  0
  145.7192   74.8016  220.3191 H   0  0  0  0  0  0  0  0  0  0  0  0
  142.8623   74.7668  221.1803 H   0  0  0  0  0  0  0  0  0  0  0  0
  144.1966   76.6729  220.2837 H   0  0  0  0  0  0  0  0  0  0  0  0
  144.1093   75.7712  218.6563 H   0  0  0  0  0  0  0  0  0  0  0  0
  143.0175   78.8470  220.3813 H   0  0  0  0  0  0  0  0  0  0  0  0
  141.8840   80.9558  219.9732 H   0  0  0  0  0  0  0  0  0  0  0  0
  140.0172   81.0903  218.3599 H   0  0  0  0  0  0  0  0  0  0  0  0
  139.3024   79.0459  217.1572 H   0  0  0  0  0  0  0  0  0  0  0  0
  140.4391   76.9231  217.5603 H   0  0  0  0  0  0  0  0  0  0  0  0
  138.0926   76.5789  222.0933 H   0  0  0  0  0  0  0  0  0  0  0  0
  137.9816   78.8888  222.9454 H   0  0  0  0  0  0  0  0  0  0  0  0
  139.1850   80.9318  223.7056 H   0  0  0  0  0  0  0  0  0  0  0  0
  141.3787   82.0200  224.1190 H   0  0  0  0  0  0  0  0  0  0  0  0
  143.5066   80.8459  223.6993 H   0  0  0  0  0  0  0  0  0  0  0  0
  143.4728   78.5058  222.8394 H   0  0  0  0  0  0  0  0  0  0  0  0
  1  2  2  0
  2  3  1  0
  3  4  1  0
  4  5  1  0
  5  6  2  0
  5  7  1  0
  7  8  1  0
  8  9  1  0
  9 10  1  0
  9 11  1  0
 11 12  1  0
 12 13  1  0
 13 14  1  0
 14 15  1  0
 15 16  2  0
 16 17  1  0
 17 18  2  0
 18 19  1  0
 19 20  2  0
  2 21  1  0
 21 22  2  0
 22 23  1  0
 23 24  2  0
 24 25  1  0
 25 26  2  0
 26 27  1  0
 27 28  2  0
 28 29  1  0
 29 30  2  0
 12  7  1  0
 20 15  1  0
 30 21  1  0
 29 24  1  0
  3 31  1  0
  4 32  1  0
  4 33  1  0
  8 34  1  0
  8 35  1  0
  9 36  1  1
 10 37  1  0
 11 38  1  0
 11 39  1  0
 12 40  1  1
 13 41  1  0
 13 42  1  0
 16 43  1  0
 17 44  1  0
 18 45  1  0
 19 46  1  0
 20 47  1  0
 22 48  1  0
 23 49  1  0
 25 50  1  0
 26 51  1  0
 27 52  1  0
 28 53  1  0
M  END
>  <smiles>  (41) 
O=C(NCC(=O)N1C[C@@H](O)C[C@H]1COc1ccccc1)c1ccc2ccccc2n1

>  <score_type>  (41) 
oracle

>  <origin>  (41) 
autodockgpu

>  <m_score__min__energy>  (41) 
-9.0899999999999999

>  <m_primary>  (41) 
energy

>  <rmsd>  (41) 
7.386269797541198

>  <m_score__min__rmsd>  (41) 
7.386269797541198

>  <meeko>  (41) 
{"free_energy": -6.57, "intermolecular_energy": -8.95, "internal_energy": -3.46, "cluster_size": 24, "cluster_id": 4, "rank_in_cluster": 23}

>  <energy>  (41) 
-6.8

>  <cluster_rmsd>  (41) 
1.0

>  <cluster>  (41) 
4

$$$$

     RDKit          3D

 53 56  0  0  0  0  0  0  0  0999 V2000
  140.7010   71.5010  221.3270 O   0  0  0  0  0  0  0  0  0  0  0  0
  140.2890   72.1050  222.3550 C   0  0  0  0  0  0  0  0  0  0  0  0
  139.9000   73.4770  222.3440 N   0  0  0  0  0  0  0  0  0  0  0  0
  139.9800   74.2290  221.0840 C   0  0  0  0  0  0  0  0  0  0  0  0
  140.1780   75.6620  221.3930 C   0  0  0  0  0  0  0  0  0  0  0  0
  139.7780   76.1100  222.4960 O   0  0  0  0  0  0  0  0  0  0  0  0
  140.8020   76.5910  220.5150 N   0  0  0  0  0  0  0  0  0  0  0  0
  141.7840   77.5530  220.9980 C   0  0  0  0  0  0  0  0  0  0  0  0
  141.2120   78.7890  220.2600 C   0  0  1  0  0  0  0  0  0  0  0  0
  142.0600   79.8630  220.3010 O   0  0  0  0  0  0  0  0  0  0  0  0
  141.0990   78.1680  218.8550 C   0  0  0  0  0  0  0  0  0  0  0  0
  140.5880   76.7540  219.0700 C   0  0  1  0  0  0  0  0  0  0  0  0
  141.4720   75.7450  218.3520 C   0  0  0  0  0  0  0  0  0  0  0  0
  142.5670   75.3520  218.9510 O   0  0  0  0  0  0  0  0  0  0  0  0
  143.2750   74.4640  219.5890 C   0  0  0  0  0  0  0  0  0  0  0  0
  144.5030   74.9070  220.1530 C   0  0  0  0  0  0  0  0  0  0  0  0
  145.3410   74.0900  220.8440 C   0  0  0  0  0  0  0  0  0  0  0  0
  145.0280   72.7720  221.0300 C   0  0  0  0  0  0  0  0  0  0  0  0
  143.8590   72.2860  220.5110 C   0  0  0  0  0  0  0  0  0  0  0  0
  143.0200   73.1230  219.8150 C   0  0  0  0  0  0  0  0  0  0  0  0
  140.2070   71.3680  223.6130 C   0  0  0  0  0  0  0  0  0  0  0  0
  139.6510   70.1080  223.6660 C   0  0  0  0  0  0  0  0  0  0  0  0
  139.5500   69.3720  224.8290 C   0  0  0  0  0  0  0  0  0  0  0  0
  140.0330   69.9260  226.0080 C   0  0  0  0  0  0  0  0  0  0  0  0
  139.9600   69.2290  227.2130 C   0  0  0  0  0  0  0  0  0  0  0  0
  140.4650   69.8620  228.3300 C   0  0  0  0  0  0  0  0  0  0  0  0
  141.0240   71.1250  228.2820 C   0  0  0  0  0  0  0  0  0  0  0  0
  141.0830   71.7910  227.0700 C   0  0  0  0  0  0  0  0  0  0  0  0
  140.5900   71.1950  225.9350 C   0  0  0  0  0  0  0  0  0  0  0  0
  140.6680   71.8800  224.7750 N   0  0  0  0  0  0  0  0  0  0  0  0
  139.5730   73.8990  223.2300 H   0  0  0  0  0  0  0  0  0  0  0  0
  140.8266   73.8597  220.4867 H   0  0  0  0  0  0  0  0  0  0  0  0
  139.0504   74.0963  220.5111 H   0  0  0  0  0  0  0  0  0  0  0  0
  141.7595   77.6668  222.0918 H   0  0  0  0  0  0  0  0  0  0  0  0
  142.8416   77.3136  220.8129 H   0  0  0  0  0  0  0  0  0  0  0  0
  140.2836   79.2116  220.6716 H   0  0  0  0  0  0  0  0  0  0  0  0
  142.8530   79.6100  220.8400 H   0  0  0  0  0  0  0  0  0  0  0  0
  140.3917   78.7416  218.2380 H   0  0  0  0  0  0  0  0  0  0  0  0
  142.0653   78.1748  218.3294 H   0  0  0  0  0  0  0  0  0  0  0  0
  139.5590   76.6021  218.7122 H   0  0  0  0  0  0  0  0  0  0  0  0
  140.8614   74.8492  218.1659 H   0  0  0  0  0  0  0  0  0  0  0  0
  141.8246   76.2770  217.4561 H   0  0  0  0  0  0  0  0  0  0  0  0
  144.7883   75.9615  220.0238 H   0  0  0  0  0  0  0  0  0  0  0  0
  146.2780   74.4920  221.2567 H   0  0  0  0  0  0  0  0  0  0  0  0
  145.7068   72.1114  221.5893 H   0  0  0  0  0  0  0  0  0  0  0  0
  143.5914   71.2282  220.6504 H   0  0  0  0  0  0  0  0  0  0  0  0
  142.0876   72.7004  219.4125 H   0  0  0  0  0  0  0  0  0  0  0  0
  139.2683   69.6666  222.7339 H   0  0  0  0  0  0  0  0  0  0  0  0
  139.0974   68.3695  224.8227 H   0  0  0  0  0  0  0  0  0  0  0  0
  139.5207   68.2222  227.2705 H   0  0  0  0  0  0  0  0  0  0  0  0
  140.4209   69.3405  229.2975 H   0  0  0  0  0  0  0  0  0  0  0  0
  141.4171   71.5951  229.1955 H   0  0  0  0  0  0  0  0  0  0  0  0
  141.5245   72.7971  227.0159 H   0  0  0  0  0  0  0  0  0  0  0  0
  1  2  2  0
  2  3  1  0
  3  4  1  0
  4  5  1  0
  5  6  2  0
  5  7  1  0
  7  8  1  0
  8  9  1  0
  9 10  1  0
  9 11  1  0
 11 12  1  0
 12 13  1  0
 13 14  1  0
 14 15  1  0
 15 16  2  0
 16 17  1  0
 17 18  2  0
 18 19  1  0
 19 20  2  0
  2 21  1  0
 21 22  2  0
 22 23  1  0
 23 24  2  0
 24 25  1  0
 25 26  2  0
 26 27  1  0
 27 28  2  0
 28 29  1  0
 29 30  2  0
 12  7  1  0
 20 15  1  0
 30 21  1  0
 29 24  1  0
  3 31  1  0
  4 32  1  0
  4 33  1  0
  8 34  1  0
  8 35  1  0
  9 36  1  1
 10 37  1  0
 11 38  1  0
 11 39  1  0
 12 40  1  1
 13 41  1  0
 13 42  1  0
 16 43  1  0
 17 44  1  0
 18 45  1  0
 19 46  1  0
 20 47  1  0
 22 48  1  0
 23 49  1  0
 25 50  1  0
 26 51  1  0
 27 52  1  0
 28 53  1  0
M  END
>  <smiles>  (42) 
O=C(NCC(=O)N1C[C@@H](O)C[C@H]1COc1ccccc1)c1ccc2ccccc2n1

>  <score_type>  (42) 
oracle

>  <origin>  (42) 
autodockgpu

>  <m_score__min__energy>  (42) 
-9.0899999999999999

>  <m_primary>  (42) 
energy

>  <rmsd>  (42) 
2.287703978328168

>  <m_score__min__rmsd>  (42) 
2.287703978328168

>  <meeko>  (42) 
{"free_energy": -7.76, "intermolecular_energy": -10.14, "internal_energy": -2.44, "cluster_size": 9, "cluster_id": 3, "rank_in_cluster": 7}

>  <energy>  (42) 
-6.79

>  <cluster_rmsd>  (42) 
0.69

>  <cluster>  (42) 
4

$$$$

     RDKit          3D

 53 56  0  0  0  0  0  0  0  0999 V2000
  139.4950   71.2850  221.4790 O   0  0  0  0  0  0  0  0  0  0  0  0
  138.8890   71.6490  222.5240 C   0  0  0  0  0  0  0  0  0  0  0  0
  137.8320   72.6060  222.5120 N   0  0  0  0  0  0  0  0  0  0  0  0
  137.4240   73.2010  221.2320 C   0  0  0  0  0  0  0  0  0  0  0  0
  137.6700   74.6590  221.2810 C   0  0  0  0  0  0  0  0  0  0  0  0
  136.6930   75.4460  221.2260 O   0  0  0  0  0  0  0  0  0  0  0  0
  138.9600   75.2490  221.3880 N   0  0  0  0  0  0  0  0  0  0  0  0
  140.0420   74.8810  220.4840 C   0  0  0  0  0  0  0  0  0  0  0  0
  141.1410   74.7230  221.5640 C   0  0  1  0  0  0  0  0  0  0  0  0
  142.3940   74.6080  221.0240 O   0  0  0  0  0  0  0  0  0  0  0  0
  140.9230   76.0640  222.2910 C   0  0  0  0  0  0  0  0  0  0  0  0
  139.4180   76.2550  222.3570 C   0  0  1  0  0  0  0  0  0  0  0  0
  139.0240   77.6260  221.8250 C   0  0  0  0  0  0  0  0  0  0  0  0
  139.5260   78.6800  222.4150 O   0  0  0  0  0  0  0  0  0  0  0  0
  140.5300   79.4170  222.7960 C   0  0  0  0  0  0  0  0  0  0  0  0
  141.8270   78.9840  222.4070 C   0  0  0  0  0  0  0  0  0  0  0  0
  142.9640   79.6540  222.7350 C   0  0  0  0  0  0  0  0  0  0  0  0
  142.9040   80.8030  223.4720 C   0  0  0  0  0  0  0  0  0  0  0  0
  141.6840   81.2710  223.8760 C   0  0  0  0  0  0  0  0  0  0  0  0
  140.5420   80.5850  223.5380 C   0  0  0  0  0  0  0  0  0  0  0  0
  139.2860   71.0650  223.8020 C   0  0  0  0  0  0  0  0  0  0  0  0
  138.9920   69.7530  224.1090 C   0  0  0  0  0  0  0  0  0  0  0  0
  139.3460   69.1570  225.3020 C   0  0  0  0  0  0  0  0  0  0  0  0
  140.0320   69.9130  226.2440 C   0  0  0  0  0  0  0  0  0  0  0  0
  140.4160   69.3640  227.4660 C   0  0  0  0  0  0  0  0  0  0  0  0
  141.0930   70.1940  228.3360 C   0  0  0  0  0  0  0  0  0  0  0  0
  141.3910   71.5090  228.0330 C   0  0  0  0  0  0  0  0  0  0  0  0
  140.9960   72.0250  226.8100 C   0  0  0  0  0  0  0  0  0  0  0  0
  140.3190   71.2310  225.9160 C   0  0  0  0  0  0  0  0  0  0  0  0
  139.9540   71.7750  224.7370 N   0  0  0  0  0  0  0  0  0  0  0  0
  137.3850   72.8510  223.4130 H   0  0  0  0  0  0  0  0  0  0  0  0
  138.0093   72.7551  220.4143 H   0  0  0  0  0  0  0  0  0  0  0  0
  136.3553   73.0092  221.0558 H   0  0  0  0  0  0  0  0  0  0  0  0
  139.8413   73.9423  219.9468 H   0  0  0  0  0  0  0  0  0  0  0  0
  140.2559   75.5786  219.6608 H   0  0  0  0  0  0  0  0  0  0  0  0
  141.0760   73.8225  222.1924 H   0  0  0  0  0  0  0  0  0  0  0  0
  142.9370   75.3760  221.3390 H   0  0  0  0  0  0  0  0  0  0  0  0
  141.3496   76.0249  223.3042 H   0  0  0  0  0  0  0  0  0  0  0  0
  141.4154   76.8956  221.7657 H   0  0  0  0  0  0  0  0  0  0  0  0
  139.0108   76.1676  223.3751 H   0  0  0  0  0  0  0  0  0  0  0  0
  139.3274   77.6667  220.7684 H   0  0  0  0  0  0  0  0  0  0  0  0
  137.9424   77.6940  222.0135 H   0  0  0  0  0  0  0  0  0  0  0  0
  141.9151   78.0629  221.8122 H   0  0  0  0  0  0  0  0  0  0  0  0
  143.9396   79.2680  222.4044 H   0  0  0  0  0  0  0  0  0  0  0  0
  143.8243   81.3442  223.7368 H   0  0  0  0  0  0  0  0  0  0  0  0
  141.6169   82.1943  224.4701 H   0  0  0  0  0  0  0  0  0  0  0  0
  139.5775   80.9896  223.8785 H   0  0  0  0  0  0  0  0  0  0  0  0
  138.4481   69.1517  223.3656 H   0  0  0  0  0  0  0  0  0  0  0  0
  139.0905   68.1061  225.5028 H   0  0  0  0  0  0  0  0  0  0  0  0
  140.1902   68.3190  227.7247 H   0  0  0  0  0  0  0  0  0  0  0  0
  141.4083   69.7926  229.3104 H   0  0  0  0  0  0  0  0  0  0  0  0
  141.9347   72.1375  228.7537 H   0  0  0  0  0  0  0  0  0  0  0  0
  141.2242   73.0703  226.5544 H   0  0  0  0  0  0  0  0  0  0  0  0
  1  2  2  0
  2  3  1  0
  3  4  1  0
  4  5  1  0
  5  6  2  0
  5  7  1  0
  7  8  1  0
  8  9  1  0
  9 10  1  0
  9 11  1  0
 11 12  1  0
 12 13  1  0
 13 14  1  0
 14 15  1  0
 15 16  2  0
 16 17  1  0
 17 18  2  0
 18 19  1  0
 19 20  2  0
  2 21  1  0
 21 22  2  0
 22 23  1  0
 23 24  2  0
 24 25  1  0
 25 26  2  0
 26 27  1  0
 27 28  2  0
 28 29  1  0
 29 30  2  0
 12  7  1  0
 20 15  1  0
 30 21  1  0
 29 24  1  0
  3 31  1  0
  4 32  1  0
  4 33  1  0
  8 34  1  0
  8 35  1  0
  9 36  1  1
 10 37  1  0
 11 38  1  0
 11 39  1  0
 12 40  1  1
 13 41  1  0
 13 42  1  0
 16 43  1  0
 17 44  1  0
 18 45  1  0
 19 46  1  0
 20 47  1  0
 22 48  1  0
 23 49  1  0
 25 50  1  0
 26 51  1  0
 27 52  1  0
 28 53  1  0
M  END
>  <smiles>  (43) 
O=C(NCC(=O)N1C[C@@H](O)C[C@H]1COc1ccccc1)c1ccc2ccccc2n1

>  <score_type>  (43) 
oracle

>  <origin>  (43) 
autodockgpu

>  <m_score__min__energy>  (43) 
-9.0899999999999999

>  <m_primary>  (43) 
energy

>  <rmsd>  (43) 
2.3711826333180106

>  <m_score__min__rmsd>  (43) 
2.3711826333180106

>  <meeko>  (43) 
{"free_energy": -8.21, "intermolecular_energy": -10.6, "internal_energy": -1.45, "cluster_size": 13, "cluster_id": 1, "rank_in_cluster": 10}

>  <energy>  (43) 
-6.77

>  <cluster_rmsd>  (43) 
0.99

>  <cluster>  (43) 
4

$$$$

     RDKit          3D

 53 56  0  0  0  0  0  0  0  0999 V2000
  138.6700   75.3020  222.3440 O   0  0  0  0  0  0  0  0  0  0  0  0
  139.7940   75.8080  222.0720 C   0  0  0  0  0  0  0  0  0  0  0  0
  140.8110   75.1010  221.3640 N   0  0  0  0  0  0  0  0  0  0  0  0
  140.5480   73.7220  220.9300 C   0  0  0  0  0  0  0  0  0  0  0  0
  141.7770   72.9200  221.1170 C   0  0  0  0  0  0  0  0  0  0  0  0
  141.7290   71.8840  221.8270 O   0  0  0  0  0  0  0  0  0  0  0  0
  143.0370   73.2410  220.5400 N   0  0  0  0  0  0  0  0  0  0  0  0
  143.8800   72.2170  219.9360 C   0  0  0  0  0  0  0  0  0  0  0  0
  145.2110   72.6600  220.5940 C   0  0  1  0  0  0  0  0  0  0  0  0
  146.3000   72.0400  220.0440 O   0  0  0  0  0  0  0  0  0  0  0  0
  145.1350   74.1590  220.2450 C   0  0  0  0  0  0  0  0  0  0  0  0
  143.6840   74.5580  220.4570 C   0  0  1  0  0  0  0  0  0  0  0  0
  143.1350   75.2690  219.2290 C   0  0  0  0  0  0  0  0  0  0  0  0
  142.4380   76.3610  219.4120 O   0  0  0  0  0  0  0  0  0  0  0  0
  142.1850   77.6180  219.1820 C   0  0  0  0  0  0  0  0  0  0  0  0
  142.9010   78.2310  218.1170 C   0  0  0  0  0  0  0  0  0  0  0  0
  142.7380   79.5340  217.7660 C   0  0  0  0  0  0  0  0  0  0  0  0
  141.8560   80.3300  218.4410 C   0  0  0  0  0  0  0  0  0  0  0  0
  141.1380   79.7970  219.4770 C   0  0  0  0  0  0  0  0  0  0  0  0
  141.3110   78.4780  219.8220 C   0  0  0  0  0  0  0  0  0  0  0  0
  140.0660   77.1780  222.4990 C   0  0  0  0  0  0  0  0  0  0  0  0
  139.0400   78.0460  222.8080 C   0  0  0  0  0  0  0  0  0  0  0  0
  139.2460   79.3480  223.2150 C   0  0  0  0  0  0  0  0  0  0  0  0
  140.5510   79.8110  223.3200 C   0  0  0  0  0  0  0  0  0  0  0  0
  140.8210   81.1170  223.7280 C   0  0  0  0  0  0  0  0  0  0  0  0
  142.1480   81.4840  223.8020 C   0  0  0  0  0  0  0  0  0  0  0  0
  143.1810   80.6190  223.4930 C   0  0  0  0  0  0  0  0  0  0  0  0
  142.8800   79.3280  223.0920 C   0  0  0  0  0  0  0  0  0  0  0  0
  141.5700   78.9230  223.0060 C   0  0  0  0  0  0  0  0  0  0  0  0
  141.3240   77.6560  222.6110 N   0  0  0  0  0  0  0  0  0  0  0  0
  141.7050   75.5870  221.1800 H   0  0  0  0  0  0  0  0  0  0  0  0
  139.7325   73.2944  221.5317 H   0  0  0  0  0  0  0  0  0  0  0  0
  140.2544   73.7137  219.8699 H   0  0  0  0  0  0  0  0  0  0  0  0
  143.5829   71.1995  220.2300 H   0  0  0  0  0  0  0  0  0  0  0  0
  143.8695   72.1540  218.8379 H   0  0  0  0  0  0  0  0  0  0  0  0
  145.3252   72.4229  221.6620 H   0  0  0  0  0  0  0  0  0  0  0  0
  146.6700   71.4130  220.7160 H   0  0  0  0  0  0  0  0  0  0  0  0
  145.7933   74.7407  220.9070 H   0  0  0  0  0  0  0  0  0  0  0  0
  145.4624   74.3525  219.2128 H   0  0  0  0  0  0  0  0  0  0  0  0
  143.5354   75.2265  221.3178 H   0  0  0  0  0  0  0  0  0  0  0  0
  143.9926   75.5312  218.5921 H   0  0  0  0  0  0  0  0  0  0  0  0
  142.4189   74.5554  218.7955 H   0  0  0  0  0  0  0  0  0  0  0  0
  143.6207   77.6218  217.5505 H   0  0  0  0  0  0  0  0  0  0  0  0
  143.3210   79.9511  216.9317 H   0  0  0  0  0  0  0  0  0  0  0  0
  141.7249   81.3842  218.1557 H   0  0  0  0  0  0  0  0  0  0  0  0
  140.4240   80.4229  220.0323 H   0  0  0  0  0  0  0  0  0  0  0  0
  140.7176   78.0816  220.6591 H   0  0  0  0  0  0  0  0  0  0  0  0
  138.0052   77.6819  222.7258 H   0  0  0  0  0  0  0  0  0  0  0  0
  138.3956   80.0046  223.4510 H   0  0  0  0  0  0  0  0  0  0  0  0
  140.0137   81.8208  223.9788 H   0  0  0  0  0  0  0  0  0  0  0  0
  142.3949   82.5076  224.1201 H   0  0  0  0  0  0  0  0  0  0  0  0
  144.2272   80.9513  223.5646 H   0  0  0  0  0  0  0  0  0  0  0  0
  143.6899   78.6268  222.8423 H   0  0  0  0  0  0  0  0  0  0  0  0
  1  2  2  0
  2  3  1  0
  3  4  1  0
  4  5  1  0
  5  6  2  0
  5  7  1  0
  7  8  1  0
  8  9  1  0
  9 10  1  0
  9 11  1  0
 11 12  1  0
 12 13  1  0
 13 14  1  0
 14 15  1  0
 15 16  2  0
 16 17  1  0
 17 18  2  0
 18 19  1  0
 19 20  2  0
  2 21  1  0
 21 22  2  0
 22 23  1  0
 23 24  2  0
 24 25  1  0
 25 26  2  0
 26 27  1  0
 27 28  2  0
 28 29  1  0
 29 30  2  0
 12  7  1  0
 20 15  1  0
 30 21  1  0
 29 24  1  0
  3 31  1  0
  4 32  1  0
  4 33  1  0
  8 34  1  0
  8 35  1  0
  9 36  1  1
 10 37  1  0
 11 38  1  0
 11 39  1  0
 12 40  1  1
 13 41  1  0
 13 42  1  0
 16 43  1  0
 17 44  1  0
 18 45  1  0
 19 46  1  0
 20 47  1  0
 22 48  1  0
 23 49  1  0
 25 50  1  0
 26 51  1  0
 27 52  1  0
 28 53  1  0
M  END
>  <smiles>  (44) 
O=C(NCC(=O)N1C[C@@H](O)C[C@H]1COc1ccccc1)c1ccc2ccccc2n1

>  <score_type>  (44) 
oracle

>  <origin>  (44) 
autodockgpu

>  <m_score__min__energy>  (44) 
-9.0899999999999999

>  <m_primary>  (44) 
energy

>  <rmsd>  (44) 
7.728771500157023

>  <m_score__min__rmsd>  (44) 
7.728771500157023

>  <meeko>  (44) 
{"free_energy": -7.45, "intermolecular_energy": -9.84, "internal_energy": -3.1, "cluster_size": 24, "cluster_id": 4, "rank_in_cluster": 5}

>  <energy>  (44) 
-6.75

>  <cluster_rmsd>  (44) 
1.0

>  <cluster>  (44) 
4

$$$$

     RDKit          3D

 53 56  0  0  0  0  0  0  0  0999 V2000
  138.4930   75.7180  221.7300 O   0  0  0  0  0  0  0  0  0  0  0  0
  139.7000   76.0110  221.9470 C   0  0  0  0  0  0  0  0  0  0  0  0
  140.7690   75.0880  221.7480 N   0  0  0  0  0  0  0  0  0  0  0  0
  140.4590   73.7330  221.2690 C   0  0  0  0  0  0  0  0  0  0  0  0
  141.6990   72.9260  221.2810 C   0  0  0  0  0  0  0  0  0  0  0  0
  141.7200   71.8470  221.9230 O   0  0  0  0  0  0  0  0  0  0  0  0
  142.8970   73.2900  220.6050 N   0  0  0  0  0  0  0  0  0  0  0  0
  143.7420   72.2910  219.9640 C   0  0  0  0  0  0  0  0  0  0  0  0
  145.0940   72.8120  220.5110 C   0  0  1  0  0  0  0  0  0  0  0  0
  146.1690   72.2290  219.8960 O   0  0  0  0  0  0  0  0  0  0  0  0
  144.9210   74.2970  220.1340 C   0  0  0  0  0  0  0  0  0  0  0  0
  143.4720   74.6330  220.4430 C   0  0  1  0  0  0  0  0  0  0  0  0
  142.8010   75.2850  219.2430 C   0  0  0  0  0  0  0  0  0  0  0  0
  142.4170   76.5300  219.3560 O   0  0  0  0  0  0  0  0  0  0  0  0
  142.3380   77.7550  218.9190 C   0  0  0  0  0  0  0  0  0  0  0  0
  141.8200   78.7260  219.8190 C   0  0  0  0  0  0  0  0  0  0  0  0
  141.6820   80.0390  219.4970 C   0  0  0  0  0  0  0  0  0  0  0  0
  142.0460   80.4920  218.2600 C   0  0  0  0  0  0  0  0  0  0  0  0
  142.5520   79.6060  217.3490 C   0  0  0  0  0  0  0  0  0  0  0  0
  142.6870   78.2800  217.6870 C   0  0  0  0  0  0  0  0  0  0  0  0
  140.0200   77.3540  222.4240 C   0  0  0  0  0  0  0  0  0  0  0  0
  139.0250   78.2390  222.7790 C   0  0  0  0  0  0  0  0  0  0  0  0
  139.2760   79.5180  223.2340 C   0  0  0  0  0  0  0  0  0  0  0  0
  140.5960   79.9360  223.3420 C   0  0  0  0  0  0  0  0  0  0  0  0
  140.9100   81.2160  223.7970 C   0  0  0  0  0  0  0  0  0  0  0  0
  142.2500   81.5390  223.8690 C   0  0  0  0  0  0  0  0  0  0  0  0
  143.2510   80.6550  223.5150 C   0  0  0  0  0  0  0  0  0  0  0  0
  142.9060   79.3910  223.0670 C   0  0  0  0  0  0  0  0  0  0  0  0
  141.5830   79.0300  222.9810 C   0  0  0  0  0  0  0  0  0  0  0  0
  141.2940   77.7880  222.5400 N   0  0  0  0  0  0  0  0  0  0  0  0
  141.7320   75.4050  221.9490 H   0  0  0  0  0  0  0  0  0  0  0  0
  139.7106   73.2701  221.9290 H   0  0  0  0  0  0  0  0  0  0  0  0
  140.0556   73.7819  220.2468 H   0  0  0  0  0  0  0  0  0  0  0  0
  143.5165   71.2689  220.3023 H   0  0  0  0  0  0  0  0  0  0  0  0
  143.6546   72.1988  218.8714 H   0  0  0  0  0  0  0  0  0  0  0  0
  145.2967   72.6083  221.5728 H   0  0  0  0  0  0  0  0  0  0  0  0
  146.5290   71.5310  220.5000 H   0  0  0  0  0  0  0  0  0  0  0  0
  145.5966   74.9259  220.7323 H   0  0  0  0  0  0  0  0  0  0  0  0
  145.1634   74.4785  219.0765 H   0  0  0  0  0  0  0  0  0  0  0  0
  143.3543   75.3168  221.2966 H   0  0  0  0  0  0  0  0  0  0  0  0
  143.5114   75.2366  218.4046 H   0  0  0  0  0  0  0  0  0  0  0  0
  141.8665   74.7201  219.1101 H   0  0  0  0  0  0  0  0  0  0  0  0
  141.5163   78.3988  220.8243 H   0  0  0  0  0  0  0  0  0  0  0  0
  141.2742   80.7426  220.2377 H   0  0  0  0  0  0  0  0  0  0  0  0
  141.9335   81.5550  218.0005 H   0  0  0  0  0  0  0  0  0  0  0  0
  142.8501   79.9533  216.3487 H   0  0  0  0  0  0  0  0  0  0  0  0
  143.0978   77.5941  216.9314 H   0  0  0  0  0  0  0  0  0  0  0  0
  137.9787   77.9099  222.6957 H   0  0  0  0  0  0  0  0  0  0  0  0
  138.4491   80.1909  223.5049 H   0  0  0  0  0  0  0  0  0  0  0  0
  140.1276   81.9337  224.0847 H   0  0  0  0  0  0  0  0  0  0  0  0
  142.5326   82.5415  224.2228 H   0  0  0  0  0  0  0  0  0  0  0  0
  144.3078   80.9513  223.5880 H   0  0  0  0  0  0  0  0  0  0  0  0
  143.6910   78.6759  222.7800 H   0  0  0  0  0  0  0  0  0  0  0  0
  1  2  2  0
  2  3  1  0
  3  4  1  0
  4  5  1  0
  5  6  2  0
  5  7  1  0
  7  8  1  0
  8  9  1  0
  9 10  1  0
  9 11  1  0
 11 12  1  0
 12 13  1  0
 13 14  1  0
 14 15  1  0
 15 16  2  0
 16 17  1  0
 17 18  2  0
 18 19  1  0
 19 20  2  0
  2 21  1  0
 21 22  2  0
 22 23  1  0
 23 24  2  0
 24 25  1  0
 25 26  2  0
 26 27  1  0
 27 28  2  0
 28 29  1  0
 29 30  2  0
 12  7  1  0
 20 15  1  0
 30 21  1  0
 29 24  1  0
  3 31  1  0
  4 32  1  0
  4 33  1  0
  8 34  1  0
  8 35  1  0
  9 36  1  1
 10 37  1  0
 11 38  1  0
 11 39  1  0
 12 40  1  1
 13 41  1  0
 13 42  1  0
 16 43  1  0
 17 44  1  0
 18 45  1  0
 19 46  1  0
 20 47  1  0
 22 48  1  0
 23 49  1  0
 25 50  1  0
 26 51  1  0
 27 52  1  0
 28 53  1  0
M  END
>  <smiles>  (45) 
O=C(NCC(=O)N1C[C@@H](O)C[C@H]1COc1ccccc1)c1ccc2ccccc2n1

>  <score_type>  (45) 
oracle

>  <origin>  (45) 
autodockgpu

>  <m_score__min__energy>  (45) 
-9.0899999999999999

>  <m_primary>  (45) 
energy

>  <rmsd>  (45) 
7.7438941247542

>  <m_score__min__rmsd>  (45) 
7.7438941247542

>  <meeko>  (45) 
{"free_energy": -7.59, "intermolecular_energy": -9.97, "internal_energy": -2.51, "cluster_size": 24, "cluster_id": 4, "rank_in_cluster": 1}

>  <energy>  (45) 
-6.72

>  <cluster_rmsd>  (45) 
1.01

>  <cluster>  (45) 
4

$$$$

     RDKit          3D

 53 56  0  0  0  0  0  0  0  0999 V2000
  140.1790   71.3540  221.2900 O   0  0  0  0  0  0  0  0  0  0  0  0
  139.9790   71.9970  222.3570 C   0  0  0  0  0  0  0  0  0  0  0  0
  139.7280   73.4010  222.3790 N   0  0  0  0  0  0  0  0  0  0  0  0
  139.7000   74.1400  221.1090 C   0  0  0  0  0  0  0  0  0  0  0  0
  139.9640   75.5690  221.3800 C   0  0  0  0  0  0  0  0  0  0  0  0
  140.1340   75.9450  222.5670 O   0  0  0  0  0  0  0  0  0  0  0  0
  140.0400   76.5740  220.3750 N   0  0  0  0  0  0  0  0  0  0  0  0
  138.9860   77.5670  220.2120 C   0  0  0  0  0  0  0  0  0  0  0  0
  138.8750   77.4670  218.6700 C   0  0  1  0  0  0  0  0  0  0  0  0
  138.1150   78.4710  218.1330 O   0  0  0  0  0  0  0  0  0  0  0  0
  140.3730   77.6040  218.3360 C   0  0  0  0  0  0  0  0  0  0  0  0
  141.1040   76.7820  219.3830 C   0  0  1  0  0  0  0  0  0  0  0  0
  142.2020   77.6040  220.0440 C   0  0  0  0  0  0  0  0  0  0  0  0
  141.8800   78.7700  220.5430 O   0  0  0  0  0  0  0  0  0  0  0  0
  141.8220   79.6260  221.5240 C   0  0  0  0  0  0  0  0  0  0  0  0
  142.5570   79.3070  222.6980 C   0  0  0  0  0  0  0  0  0  0  0  0
  142.5870   80.1070  223.7960 C   0  0  0  0  0  0  0  0  0  0  0  0
  141.8920   81.2850  223.8160 C   0  0  0  0  0  0  0  0  0  0  0  0
  141.1660   81.6470  222.7150 C   0  0  0  0  0  0  0  0  0  0  0  0
  141.1440   80.8290  221.6110 C   0  0  0  0  0  0  0  0  0  0  0  0
  140.0060   71.2740  223.6250 C   0  0  0  0  0  0  0  0  0  0  0  0
  139.5450   69.9780  223.7170 C   0  0  0  0  0  0  0  0  0  0  0  0
  139.5490   69.2530  224.8910 C   0  0  0  0  0  0  0  0  0  0  0  0
  140.0410   69.8580  226.0410 C   0  0  0  0  0  0  0  0  0  0  0  0
  140.0710   69.1750  227.2560 C   0  0  0  0  0  0  0  0  0  0  0  0
  140.5770   69.8590  228.3420 C   0  0  0  0  0  0  0  0  0  0  0  0
  141.0400   71.1580  228.2560 C   0  0  0  0  0  0  0  0  0  0  0  0
  140.9980   71.8090  227.0350 C   0  0  0  0  0  0  0  0  0  0  0  0
  140.5000   71.1620  225.9290 C   0  0  0  0  0  0  0  0  0  0  0  0
  140.4780   71.8350  224.7600 N   0  0  0  0  0  0  0  0  0  0  0  0
  139.5730   73.8550  223.2960 H   0  0  0  0  0  0  0  0  0  0  0  0
  140.4727   73.7434  220.4340 H   0  0  0  0  0  0  0  0  0  0  0  0
  138.7144   74.0269  220.6339 H   0  0  0  0  0  0  0  0  0  0  0  0
  138.0541   77.2800  220.7211 H   0  0  0  0  0  0  0  0  0  0  0  0
  139.1800   78.5661  220.6294 H   0  0  0  0  0  0  0  0  0  0  0  0
  138.3790   76.5668  218.2779 H   0  0  0  0  0  0  0  0  0  0  0  0
  138.5000   78.7110  217.2510 H   0  0  0  0  0  0  0  0  0  0  0  0
  140.5788   77.2127  217.3288 H   0  0  0  0  0  0  0  0  0  0  0  0
  140.6969   78.6552  218.3461 H   0  0  0  0  0  0  0  0  0  0  0  0
  141.5724   75.8733  218.9770 H   0  0  0  0  0  0  0  0  0  0  0  0
  142.6141   76.9992  220.8652 H   0  0  0  0  0  0  0  0  0  0  0  0
  142.9001   77.8380  219.2267 H   0  0  0  0  0  0  0  0  0  0  0  0
  143.1289   78.3676  222.7187 H   0  0  0  0  0  0  0  0  0  0  0  0
  143.1747   79.8050  224.6755 H   0  0  0  0  0  0  0  0  0  0  0  0
  141.9167   81.9321  224.7052 H   0  0  0  0  0  0  0  0  0  0  0  0
  140.6010   82.5908  222.7131 H   0  0  0  0  0  0  0  0  0  0  0  0
  140.5505   81.1506  220.7425 H   0  0  0  0  0  0  0  0  0  0  0  0
  139.1540   69.4974  222.8081 H   0  0  0  0  0  0  0  0  0  0  0  0
  139.1715   68.2201  224.9159 H   0  0  0  0  0  0  0  0  0  0  0  0
  139.7086   68.1402  227.3445 H   0  0  0  0  0  0  0  0  0  0  0  0
  140.6133   69.3494  229.3162 H   0  0  0  0  0  0  0  0  0  0  0  0
  141.4368   71.6682  229.1461 H   0  0  0  0  0  0  0  0  0  0  0  0
  141.3628   72.8432  226.9498 H   0  0  0  0  0  0  0  0  0  0  0  0
  1  2  2  0
  2  3  1  0
  3  4  1  0
  4  5  1  0
  5  6  2  0
  5  7  1  0
  7  8  1  0
  8  9  1  0
  9 10  1  0
  9 11  1  0
 11 12  1  0
 12 13  1  0
 13 14  1  0
 14 15  1  0
 15 16  2  0
 16 17  1  0
 17 18  2  0
 18 19  1  0
 19 20  2  0
  2 21  1  0
 21 22  2  0
 22 23  1  0
 23 24  2  0
 24 25  1  0
 25 26  2  0
 26 27  1  0
 27 28  2  0
 28 29  1  0
 29 30  2  0
 12  7  1  0
 20 15  1  0
 30 21  1  0
 29 24  1  0
  3 31  1  0
  4 32  1  0
  4 33  1  0
  8 34  1  0
  8 35  1  0
  9 36  1  1
 10 37  1  0
 11 38  1  0
 11 39  1  0
 12 40  1  6
 13 41  1  0
 13 42  1  0
 16 43  1  0
 17 44  1  0
 18 45  1  0
 19 46  1  0
 20 47  1  0
 22 48  1  0
 23 49  1  0
 25 50  1  0
 26 51  1  0
 27 52  1  0
 28 53  1  0
M  END
>  <smiles>  (46) 
O=C(NCC(=O)N1C[C@@H](O)C[C@H]1COc1ccccc1)c1ccc2ccccc2n1

>  <score_type>  (46) 
oracle

>  <origin>  (46) 
autodockgpu

>  <m_score__min__energy>  (46) 
-9.0899999999999999

>  <m_primary>  (46) 
energy

>  <rmsd>  (46) 
1.6573569103235206

>  <m_score__min__rmsd>  (46) 
1.6573569103235206

>  <meeko>  (46) 
{"free_energy": -7.75, "intermolecular_energy": -10.13, "internal_energy": -2.08, "cluster_size": 13, "cluster_id": 1, "rank_in_cluster": 11}

>  <energy>  (46) 
-6.68

>  <cluster_rmsd>  (46) 
1.02

>  <cluster>  (46) 
4

$$$$

     RDKit          3D

 53 56  0  0  0  0  0  0  0  0999 V2000
  141.3320   71.7960  221.6050 O   0  0  0  0  0  0  0  0  0  0  0  0
  140.4150   72.1630  222.3900 C   0  0  0  0  0  0  0  0  0  0  0  0
  139.5620   73.2740  222.1190 N   0  0  0  0  0  0  0  0  0  0  0  0
  139.7530   74.0310  220.8740 C   0  0  0  0  0  0  0  0  0  0  0  0
  140.7990   75.0540  221.0910 C   0  0  0  0  0  0  0  0  0  0  0  0
  140.9730   75.5140  222.2470 O   0  0  0  0  0  0  0  0  0  0  0  0
  141.6400   75.5690  220.0660 N   0  0  0  0  0  0  0  0  0  0  0  0
  141.8280   74.8580  218.8080 C   0  0  0  0  0  0  0  0  0  0  0  0
  143.3690   75.0030  218.7400 C   0  0  1  0  0  0  0  0  0  0  0  0
  143.8770   74.6420  217.5220 O   0  0  0  0  0  0  0  0  0  0  0  0
  143.4530   76.5200  218.9980 C   0  0  0  0  0  0  0  0  0  0  0  0
  142.4260   76.8110  220.0780 C   0  0  1  0  0  0  0  0  0  0  0  0
  141.5050   77.9480  219.6560 C   0  0  0  0  0  0  0  0  0  0  0  0
  141.2230   78.8700  220.5400 O   0  0  0  0  0  0  0  0  0  0  0  0
  141.5120   79.5840  221.5900 C   0  0  0  0  0  0  0  0  0  0  0  0
  140.5170   80.4960  222.0390 C   0  0  0  0  0  0  0  0  0  0  0  0
  140.6830   81.3020  223.1210 C   0  0  0  0  0  0  0  0  0  0  0  0
  141.8450   81.2690  223.8410 C   0  0  0  0  0  0  0  0  0  0  0  0
  142.8400   80.4110  223.4580 C   0  0  0  0  0  0  0  0  0  0  0  0
  142.6600   79.6010  222.3630 C   0  0  0  0  0  0  0  0  0  0  0  0
  140.2170   71.4190  223.6310 C   0  0  0  0  0  0  0  0  0  0  0  0
  139.5340   70.2220  223.6430 C   0  0  0  0  0  0  0  0  0  0  0  0
  139.3200   69.4830  224.7880 C   0  0  0  0  0  0  0  0  0  0  0  0
  139.8180   69.9660  225.9920 C   0  0  0  0  0  0  0  0  0  0  0  0
  139.6340   69.2620  227.1810 C   0  0  0  0  0  0  0  0  0  0  0  0
  140.1640   69.8240  228.3240 C   0  0  0  0  0  0  0  0  0  0  0  0
  140.8500   71.0230  228.3180 C   0  0  0  0  0  0  0  0  0  0  0  0
  141.0160   71.6980  227.1200 C   0  0  0  0  0  0  0  0  0  0  0  0
  140.5030   71.1730  225.9590 C   0  0  0  0  0  0  0  0  0  0  0  0
  140.6890   71.8640  224.8160 N   0  0  0  0  0  0  0  0  0  0  0  0
  138.8340   73.5110  222.8140 H   0  0  0  0  0  0  0  0  0  0  0  0
  140.0658   73.3477  220.0707 H   0  0  0  0  0  0  0  0  0  0  0  0
  138.8098   74.5178  220.5854 H   0  0  0  0  0  0  0  0  0  0  0  0
  141.5060   73.8078  218.8656 H   0  0  0  0  0  0  0  0  0  0  0  0
  141.2592   75.2286  217.9424 H   0  0  0  0  0  0  0  0  0  0  0  0
  143.9456   74.3675  219.4282 H   0  0  0  0  0  0  0  0  0  0  0  0
  144.8340   74.8960  217.4990 H   0  0  0  0  0  0  0  0  0  0  0  0
  144.4606   76.7951  219.3429 H   0  0  0  0  0  0  0  0  0  0  0  0
  143.2555   77.0987  218.0836 H   0  0  0  0  0  0  0  0  0  0  0  0
  142.8743   77.0917  221.0425 H   0  0  0  0  0  0  0  0  0  0  0  0
  141.9770   78.4502  218.7987 H   0  0  0  0  0  0  0  0  0  0  0  0
  140.5410   77.4593  219.4516 H   0  0  0  0  0  0  0  0  0  0  0  0
  139.5686   80.5517  221.4846 H   0  0  0  0  0  0  0  0  0  0  0  0
  139.8756   81.9867  223.4199 H   0  0  0  0  0  0  0  0  0  0  0  0
  141.9781   81.9228  224.7156 H   0  0  0  0  0  0  0  0  0  0  0  0
  143.7815   80.3700  224.0254 H   0  0  0  0  0  0  0  0  0  0  0  0
  143.4799   78.9233  222.0830 H   0  0  0  0  0  0  0  0  0  0  0  0
  139.1395   69.8364  222.6913 H   0  0  0  0  0  0  0  0  0  0  0  0
  138.7675   68.5326  224.7488 H   0  0  0  0  0  0  0  0  0  0  0  0
  139.0925   68.3048  227.2066 H   0  0  0  0  0  0  0  0  0  0  0  0
  140.0350   69.2953  229.2800 H   0  0  0  0  0  0  0  0  0  0  0  0
  141.2589   71.4361  229.2519 H   0  0  0  0  0  0  0  0  0  0  0  0
  141.5587   72.6546  227.0983 H   0  0  0  0  0  0  0  0  0  0  0  0
  1  2  2  0
  2  3  1  0
  3  4  1  0
  4  5  1  0
  5  6  2  0
  5  7  1  0
  7  8  1  0
  8  9  1  0
  9 10  1  0
  9 11  1  0
 11 12  1  0
 12 13  1  0
 13 14  1  0
 14 15  1  0
 15 16  2  0
 16 17  1  0
 17 18  2  0
 18 19  1  0
 19 20  2  0
  2 21  1  0
 21 22  2  0
 22 23  1  0
 23 24  2  0
 24 25  1  0
 25 26  2  0
 26 27  1  0
 27 28  2  0
 28 29  1  0
 29 30  2  0
 12  7  1  0
 20 15  1  0
 30 21  1  0
 29 24  1  0
  3 31  1  0
  4 32  1  0
  4 33  1  0
  8 34  1  0
  8 35  1  0
  9 36  1  1
 10 37  1  0
 11 38  1  0
 11 39  1  0
 12 40  1  1
 13 41  1  0
 13 42  1  0
 16 43  1  0
 17 44  1  0
 18 45  1  0
 19 46  1  0
 20 47  1  0
 22 48  1  0
 23 49  1  0
 25 50  1  0
 26 51  1  0
 27 52  1  0
 28 53  1  0
M  END
>  <smiles>  (47) 
O=C(NCC(=O)N1C[C@@H](O)C[C@H]1COc1ccccc1)c1ccc2ccccc2n1

>  <score_type>  (47) 
oracle

>  <origin>  (47) 
autodockgpu

>  <m_score__min__energy>  (47) 
-9.0899999999999999

>  <m_primary>  (47) 
energy

>  <rmsd>  (47) 
1.9653740133903277

>  <m_score__min__rmsd>  (47) 
1.9653740133903277

>  <meeko>  (47) 
{"free_energy": -8.94, "intermolecular_energy": -11.32, "internal_energy": -1.38, "cluster_size": 13, "cluster_id": 1, "rank_in_cluster": 5}

>  <energy>  (47) 
-6.63

>  <cluster_rmsd>  (47) 
1.01

>  <cluster>  (47) 
4

$$$$

     RDKit          3D

 53 56  0  0  0  0  0  0  0  0999 V2000
  139.5180   74.6710  222.6790 O   0  0  0  0  0  0  0  0  0  0  0  0
  140.1050   75.5080  221.9390 C   0  0  0  0  0  0  0  0  0  0  0  0
  140.6550   75.1660  220.6680 N   0  0  0  0  0  0  0  0  0  0  0  0
  140.5400   73.7790  220.1930 C   0  0  0  0  0  0  0  0  0  0  0  0
  141.7270   73.0200  220.6410 C   0  0  0  0  0  0  0  0  0  0  0  0
  141.5720   72.0440  221.4170 O   0  0  0  0  0  0  0  0  0  0  0  0
  143.0630   73.3190  220.2530 N   0  0  0  0  0  0  0  0  0  0  0  0
  143.9410   72.2970  219.6980 C   0  0  0  0  0  0  0  0  0  0  0  0
  145.1890   72.6430  220.5480 C   0  0  1  0  0  0  0  0  0  0  0  0
  146.3180   72.0090  220.1040 O   0  0  0  0  0  0  0  0  0  0  0  0
  145.2120   74.1620  220.2870 C   0  0  0  0  0  0  0  0  0  0  0  0
  143.7620   74.6090  220.3360 C   0  0  1  0  0  0  0  0  0  0  0  0
  143.4030   75.4130  219.0940 C   0  0  0  0  0  0  0  0  0  0  0  0
  142.7880   76.5560  219.2600 O   0  0  0  0  0  0  0  0  0  0  0  0
  142.5570   77.7970  218.9350 C   0  0  0  0  0  0  0  0  0  0  0  0
  141.8280   78.5800  219.8710 C   0  0  0  0  0  0  0  0  0  0  0  0
  141.5150   79.8860  219.6640 C   0  0  0  0  0  0  0  0  0  0  0  0
  141.9020   80.5180  218.5150 C   0  0  0  0  0  0  0  0  0  0  0  0
  142.6070   79.8170  217.5750 C   0  0  0  0  0  0  0  0  0  0  0  0
  142.9170   78.4970  217.7970 C   0  0  0  0  0  0  0  0  0  0  0  0
  140.2260   76.8870  222.4020 C   0  0  0  0  0  0  0  0  0  0  0  0
  139.1090   77.6470  222.6800 C   0  0  0  0  0  0  0  0  0  0  0  0
  139.1720   78.9540  223.1190 C   0  0  0  0  0  0  0  0  0  0  0  0
  140.4210   79.5360  223.2910 C   0  0  0  0  0  0  0  0  0  0  0  0
  140.5460   80.8530  223.7330 C   0  0  0  0  0  0  0  0  0  0  0  0
  141.8280   81.3430  223.8720 C   0  0  0  0  0  0  0  0  0  0  0  0
  142.9510   80.5860  223.5950 C   0  0  0  0  0  0  0  0  0  0  0  0
  142.7930   79.2810  223.1580 C   0  0  0  0  0  0  0  0  0  0  0  0
  141.5330   78.7560  223.0060 C   0  0  0  0  0  0  0  0  0  0  0  0
  141.4270   77.4810  222.5780 N   0  0  0  0  0  0  0  0  0  0  0  0
  141.1210   75.9100  220.1220 H   0  0  0  0  0  0  0  0  0  0  0  0
  139.6302   73.3207  220.6081 H   0  0  0  0  0  0  0  0  0  0  0  0
  140.4809   73.7646  219.0947 H   0  0  0  0  0  0  0  0  0  0  0  0
  143.5726   71.2777  219.8860 H   0  0  0  0  0  0  0  0  0  0  0  0
  144.0718   72.2989  218.6058 H   0  0  0  0  0  0  0  0  0  0  0  0
  145.1544   72.3399  221.6049 H   0  0  0  0  0  0  0  0  0  0  0  0
  146.6540   71.4300  220.8350 H   0  0  0  0  0  0  0  0  0  0  0  0
  145.7982   74.6757  221.0632 H   0  0  0  0  0  0  0  0  0  0  0  0
  145.6781   74.4008  219.3197 H   0  0  0  0  0  0  0  0  0  0  0  0
  143.5262   75.2323  221.2112 H   0  0  0  0  0  0  0  0  0  0  0  0
  144.3399   75.6204  218.5562 H   0  0  0  0  0  0  0  0  0  0  0  0
  142.6757   74.7841  218.5596 H   0  0  0  0  0  0  0  0  0  0  0  0
  141.5014   78.1057  220.8083 H   0  0  0  0  0  0  0  0  0  0  0  0
  140.9462   80.4387  220.4263 H   0  0  0  0  0  0  0  0  0  0  0  0
  141.6500   81.5757  218.3486 H   0  0  0  0  0  0  0  0  0  0  0  0
  142.9248   80.3090  216.6439 H   0  0  0  0  0  0  0  0  0  0  0  0
  143.4868   77.9635  217.0219 H   0  0  0  0  0  0  0  0  0  0  0  0
  138.1183   77.1884  222.5450 H   0  0  0  0  0  0  0  0  0  0  0  0
  138.2534   79.5219  223.3280 H   0  0  0  0  0  0  0  0  0  0  0  0
  139.6648   81.4711  223.9598 H   0  0  0  0  0  0  0  0  0  0  0  0
  141.9622   82.3787  224.2174 H   0  0  0  0  0  0  0  0  0  0  0  0
  143.9565   81.0141  223.7199 H   0  0  0  0  0  0  0  0  0  0  0  0
  143.6764   78.6654  222.9328 H   0  0  0  0  0  0  0  0  0  0  0  0
  1  2  2  0
  2  3  1  0
  3  4  1  0
  4  5  1  0
  5  6  2  0
  5  7  1  0
  7  8  1  0
  8  9  1  0
  9 10  1  0
  9 11  1  0
 11 12  1  0
 12 13  1  0
 13 14  1  0
 14 15  1  0
 15 16  2  0
 16 17  1  0
 17 18  2  0
 18 19  1  0
 19 20  2  0
  2 21  1  0
 21 22  2  0
 22 23  1  0
 23 24  2  0
 24 25  1  0
 25 26  2  0
 26 27  1  0
 27 28  2  0
 28 29  1  0
 29 30  2  0
 12  7  1  0
 20 15  1  0
 30 21  1  0
 29 24  1  0
  3 31  1  0
  4 32  1  0
  4 33  1  0
  8 34  1  0
  8 35  1  0
  9 36  1  1
 10 37  1  0
 11 38  1  0
 11 39  1  0
 12 40  1  1
 13 41  1  0
 13 42  1  0
 16 43  1  0
 17 44  1  0
 18 45  1  0
 19 46  1  0
 20 47  1  0
 22 48  1  0
 23 49  1  0
 25 50  1  0
 26 51  1  0
 27 52  1  0
 28 53  1  0
M  END
>  <smiles>  (48) 
O=C(NCC(=O)N1C[C@@H](O)C[C@H]1COc1ccccc1)c1ccc2ccccc2n1

>  <score_type>  (48) 
oracle

>  <origin>  (48) 
autodockgpu

>  <m_score__min__energy>  (48) 
-9.0899999999999999

>  <m_primary>  (48) 
energy

>  <rmsd>  (48) 
7.5916240184293455

>  <m_score__min__rmsd>  (48) 
7.5916240184293455

>  <meeko>  (48) 
{"free_energy": -7.55, "intermolecular_energy": -9.94, "internal_energy": -3.01, "cluster_size": 24, "cluster_id": 4, "rank_in_cluster": 2}

>  <energy>  (48) 
-6.57

>  <cluster_rmsd>  (48) 
1.4

>  <cluster>  (48) 
4

$$$$

     RDKit          3D

 53 56  0  0  0  0  0  0  0  0999 V2000
  140.4330   71.5040  221.2800 O   0  0  0  0  0  0  0  0  0  0  0  0
  140.1080   72.1100  222.3370 C   0  0  0  0  0  0  0  0  0  0  0  0
  139.7500   73.4910  222.3590 N   0  0  0  0  0  0  0  0  0  0  0  0
  139.7580   74.2480  221.0990 C   0  0  0  0  0  0  0  0  0  0  0  0
  139.6640   75.6920  221.4080 C   0  0  0  0  0  0  0  0  0  0  0  0
  138.7490   76.0960  222.1680 O   0  0  0  0  0  0  0  0  0  0  0  0
  140.5510   76.6790  220.8960 N   0  0  0  0  0  0  0  0  0  0  0  0
  141.4490   77.4220  221.7700 C   0  0  0  0  0  0  0  0  0  0  0  0
  141.1680   78.8250  221.1770 C   0  0  1  0  0  0  0  0  0  0  0  0
  142.0540   79.7700  221.6210 O   0  0  0  0  0  0  0  0  0  0  0  0
  141.3630   78.4730  219.6900 C   0  0  0  0  0  0  0  0  0  0  0  0
  140.7140   77.1130  219.5010 C   0  0  1  0  0  0  0  0  0  0  0  0
  141.6740   76.1460  218.8230 C   0  0  0  0  0  0  0  0  0  0  0  0
  142.1960   75.1900  219.5470 O   0  0  0  0  0  0  0  0  0  0  0  0
  143.2140   74.5270  220.0190 C   0  0  0  0  0  0  0  0  0  0  0  0
  142.9960   73.1590  220.3380 C   0  0  0  0  0  0  0  0  0  0  0  0
  143.9670   72.3500  220.8380 C   0  0  0  0  0  0  0  0  0  0  0  0
  145.2280   72.8320  221.0590 C   0  0  0  0  0  0  0  0  0  0  0  0
  145.4980   74.1410  220.7700 C   0  0  0  0  0  0  0  0  0  0  0  0
  144.5080   74.9500  220.2650 C   0  0  0  0  0  0  0  0  0  0  0  0
  140.0980   71.3680  223.5940 C   0  0  0  0  0  0  0  0  0  0  0  0
  139.5980   70.0850  223.6610 C   0  0  0  0  0  0  0  0  0  0  0  0
  139.5660   69.3430  224.8240 C   0  0  0  0  0  0  0  0  0  0  0  0
  140.0620   69.9160  225.9890 C   0  0  0  0  0  0  0  0  0  0  0  0
  140.0560   69.2140  227.1940 C   0  0  0  0  0  0  0  0  0  0  0  0
  140.5690   69.8670  228.2960 C   0  0  0  0  0  0  0  0  0  0  0  0
  141.0720   71.1520  228.2350 C   0  0  0  0  0  0  0  0  0  0  0  0
  141.0630   71.8220  227.0230 C   0  0  0  0  0  0  0  0  0  0  0  0
  140.5610   71.2070  225.9020 C   0  0  0  0  0  0  0  0  0  0  0  0
  140.5730   71.8980  224.7420 N   0  0  0  0  0  0  0  0  0  0  0  0
  139.4960   73.9150  223.2670 H   0  0  0  0  0  0  0  0  0  0  0  0
  140.6916   74.0470  220.5532 H   0  0  0  0  0  0  0  0  0  0  0  0
  138.9045   73.9435  220.4754 H   0  0  0  0  0  0  0  0  0  0  0  0
  141.1627   77.3475  222.8295 H   0  0  0  0  0  0  0  0  0  0  0  0
  142.4995   77.0963  221.7895 H   0  0  0  0  0  0  0  0  0  0  0  0
  140.1993   79.2756  221.4389 H   0  0  0  0  0  0  0  0  0  0  0  0
  142.9650   79.3830  221.5740 H   0  0  0  0  0  0  0  0  0  0  0  0
  140.8744   79.2233  219.0510 H   0  0  0  0  0  0  0  0  0  0  0  0
  142.4274   78.4569  219.4128 H   0  0  0  0  0  0  0  0  0  0  0  0
  139.7976   77.1470  218.8935 H   0  0  0  0  0  0  0  0  0  0  0  0
  141.1278   75.6689  217.9959 H   0  0  0  0  0  0  0  0  0  0  0  0
  142.5320   76.7697  218.5318 H   0  0  0  0  0  0  0  0  0  0  0  0
  141.9945   72.7353  220.1724 H   0  0  0  0  0  0  0  0  0  0  0  0
  143.7369   71.2989  221.0668 H   0  0  0  0  0  0  0  0  0  0  0  0
  146.0132   72.1763  221.4632 H   0  0  0  0  0  0  0  0  0  0  0  0
  146.5062   74.5461  220.9414 H   0  0  0  0  0  0  0  0  0  0  0  0
  144.7600   75.9975  220.0430 H   0  0  0  0  0  0  0  0  0  0  0  0
  139.2045   69.6295  222.7403 H   0  0  0  0  0  0  0  0  0  0  0  0
  139.1574   68.3217  224.8289 H   0  0  0  0  0  0  0  0  0  0  0  0
  139.6615   68.1895  227.2626 H   0  0  0  0  0  0  0  0  0  0  0  0
  140.5777   69.3426  229.2629 H   0  0  0  0  0  0  0  0  0  0  0  0
  141.4743   71.6366  229.1369 H   0  0  0  0  0  0  0  0  0  0  0  0
  141.4578   72.8466  226.9580 H   0  0  0  0  0  0  0  0  0  0  0  0
  1  2  2  0
  2  3  1  0
  3  4  1  0
  4  5  1  0
  5  6  2  0
  5  7  1  0
  7  8  1  0
  8  9  1  0
  9 10  1  0
  9 11  1  0
 11 12  1  0
 12 13  1  0
 13 14  1  0
 14 15  1  0
 15 16  2  0
 16 17  1  0
 17 18  2  0
 18 19  1  0
 19 20  2  0
  2 21  1  0
 21 22  2  0
 22 23  1  0
 23 24  2  0
 24 25  1  0
 25 26  2  0
 26 27  1  0
 27 28  2  0
 28 29  1  0
 29 30  2  0
 12  7  1  0
 20 15  1  0
 30 21  1  0
 29 24  1  0
  3 31  1  0
  4 32  1  0
  4 33  1  0
  8 34  1  0
  8 35  1  0
  9 36  1  6
 10 37  1  0
 11 38  1  0
 11 39  1  0
 12 40  1  6
 13 41  1  0
 13 42  1  0
 16 43  1  0
 17 44  1  0
 18 45  1  0
 19 46  1  0
 20 47  1  0
 22 48  1  0
 23 49  1  0
 25 50  1  0
 26 51  1  0
 27 52  1  0
 28 53  1  0
M  END
>  <smiles>  (49) 
O=C(NCC(=O)N1C[C@@H](O)C[C@H]1COc1ccccc1)c1ccc2ccccc2n1

>  <score_type>  (49) 
oracle

>  <origin>  (49) 
autodockgpu

>  <m_score__min__energy>  (49) 
-9.0899999999999999

>  <m_primary>  (49) 
energy

>  <rmsd>  (49) 
2.4027992794601443

>  <m_score__min__rmsd>  (49) 
2.4027992794601443

>  <meeko>  (49) 
{"free_energy": -8.1, "intermolecular_energy": -10.48, "internal_energy": -2.2, "cluster_size": 9, "cluster_id": 3, "rank_in_cluster": 3}

>  <energy>  (49) 
-6.52

>  <cluster_rmsd>  (49) 
1.2

>  <cluster>  (49) 
4

$$$$

     RDKit          3D

 53 56  0  0  0  0  0  0  0  0999 V2000
  139.9610   71.1740  221.2020 O   0  0  0  0  0  0  0  0  0  0  0  0
  139.9570   71.9010  222.2330 C   0  0  0  0  0  0  0  0  0  0  0  0
  139.9050   73.3250  222.1750 N   0  0  0  0  0  0  0  0  0  0  0  0
  139.8550   73.9830  220.8620 C   0  0  0  0  0  0  0  0  0  0  0  0
  140.7110   75.1890  220.8970 C   0  0  0  0  0  0  0  0  0  0  0  0
  140.9650   75.7260  222.0040 O   0  0  0  0  0  0  0  0  0  0  0  0
  141.2810   75.8000  219.7450 N   0  0  0  0  0  0  0  0  0  0  0  0
  142.4610   76.6490  219.8400 C   0  0  0  0  0  0  0  0  0  0  0  0
  141.9370   77.7960  218.9390 C   0  0  1  0  0  0  0  0  0  0  0  0
  142.9190   78.6890  218.6040 O   0  0  0  0  0  0  0  0  0  0  0  0
  141.4750   76.9370  217.7460 C   0  0  0  0  0  0  0  0  0  0  0  0
  140.8220   75.7080  218.3520 C   0  0  1  0  0  0  0  0  0  0  0  0
  141.4050   74.4360  217.7540 C   0  0  0  0  0  0  0  0  0  0  0  0
  142.5450   74.0020  218.2260 O   0  0  0  0  0  0  0  0  0  0  0  0
  143.2820   73.5030  219.1780 C   0  0  0  0  0  0  0  0  0  0  0  0
  144.4700   74.2110  219.5070 C   0  0  0  0  0  0  0  0  0  0  0  0
  145.3310   73.8060  220.4770 C   0  0  0  0  0  0  0  0  0  0  0  0
  145.0830   72.6710  221.1970 C   0  0  0  0  0  0  0  0  0  0  0  0
  143.9550   71.9460  220.9260 C   0  0  0  0  0  0  0  0  0  0  0  0
  143.0910   72.3660  219.9430 C   0  0  0  0  0  0  0  0  0  0  0  0
  140.0080   71.2580  223.5430 C   0  0  0  0  0  0  0  0  0  0  0  0
  139.5650   69.9650  223.7210 C   0  0  0  0  0  0  0  0  0  0  0  0
  139.5920   69.3150  224.9370 C   0  0  0  0  0  0  0  0  0  0  0  0
  140.0910   69.9950  226.0410 C   0  0  0  0  0  0  0  0  0  0  0  0
  140.1440   69.3890  227.2960 C   0  0  0  0  0  0  0  0  0  0  0  0
  140.6550   70.1440  228.3310 C   0  0  0  0  0  0  0  0  0  0  0  0
  141.1020   71.4410  228.1580 C   0  0  0  0  0  0  0  0  0  0  0  0
  141.0360   72.0140  226.8990 C   0  0  0  0  0  0  0  0  0  0  0  0
  140.5330   71.2950  225.8430 C   0  0  0  0  0  0  0  0  0  0  0  0
  140.4880   71.8940  224.6340 N   0  0  0  0  0  0  0  0  0  0  0  0
  139.9050   73.8500  223.0670 H   0  0  0  0  0  0  0  0  0  0  0  0
  140.2219   73.2922  220.0886 H   0  0  0  0  0  0  0  0  0  0  0  0
  138.8188   74.2683  220.6276 H   0  0  0  0  0  0  0  0  0  0  0  0
  142.6603   76.9798  220.8700 H   0  0  0  0  0  0  0  0  0  0  0  0
  143.4205   76.1945  219.5524 H   0  0  0  0  0  0  0  0  0  0  0  0
  141.1714   78.4497  219.3823 H   0  0  0  0  0  0  0  0  0  0  0  0
  143.1380   78.5600  217.6460 H   0  0  0  0  0  0  0  0  0  0  0  0
  140.7510   77.4921  217.1315 H   0  0  0  0  0  0  0  0  0  0  0  0
  142.3161   76.6677  217.0903 H   0  0  0  0  0  0  0  0  0  0  0  0
  139.7329   75.6728  218.2014 H   0  0  0  0  0  0  0  0  0  0  0  0
  140.6643   73.6361  217.9010 H   0  0  0  0  0  0  0  0  0  0  0  0
  141.6228   74.6988  216.7083 H   0  0  0  0  0  0  0  0  0  0  0  0
  144.7033   75.1303  218.9499 H   0  0  0  0  0  0  0  0  0  0  0  0
  146.2354   74.3967  220.6846 H   0  0  0  0  0  0  0  0  0  0  0  0
  145.7803   72.3453  221.9829 H   0  0  0  0  0  0  0  0  0  0  0  0
  143.7399   71.0287  221.4937 H   0  0  0  0  0  0  0  0  0  0  0  0
  142.1923   71.7609  219.7527 H   0  0  0  0  0  0  0  0  0  0  0  0
  139.1698   69.4239  222.8486 H   0  0  0  0  0  0  0  0  0  0  0  0
  139.2267   68.2817  225.0307 H   0  0  0  0  0  0  0  0  0  0  0  0
  139.7948   68.3578  227.4530 H   0  0  0  0  0  0  0  0  0  0  0  0
  140.7091   69.6964  229.3343 H   0  0  0  0  0  0  0  0  0  0  0  0
  141.5046   72.0100  229.0090 H   0  0  0  0  0  0  0  0  0  0  0  0
  141.3866   73.0452  226.7450 H   0  0  0  0  0  0  0  0  0  0  0  0
  1  2  2  0
  2  3  1  0
  3  4  1  0
  4  5  1  0
  5  6  2  0
  5  7  1  0
  7  8  1  0
  8  9  1  0
  9 10  1  0
  9 11  1  0
 11 12  1  0
 12 13  1  0
 13 14  1  0
 14 15  1  0
 15 16  2  0
 16 17  1  0
 17 18  2  0
 18 19  1  0
 19 20  2  0
  2 21  1  0
 21 22  2  0
 22 23  1  0
 23 24  2  0
 24 25  1  0
 25 26  2  0
 26 27  1  0
 27 28  2  0
 28 29  1  0
 29 30  2  0
 12  7  1  0
 20 15  1  0
 30 21  1  0
 29 24  1  0
  3 31  1  0
  4 32  1  0
  4 33  1  0
  8 34  1  0
  8 35  1  0
  9 36  1  1
 10 37  1  0
 11 38  1  0
 11 39  1  0
 12 40  1  1
 13 41  1  0
 13 42  1  0
 16 43  1  0
 17 44  1  0
 18 45  1  0
 19 46  1  0
 20 47  1  0
 22 48  1  0
 23 49  1  0
 25 50  1  0
 26 51  1  0
 27 52  1  0
 28 53  1  0
M  END
>  <smiles>  (50) 
O=C(NCC(=O)N1C[C@@H](O)C[C@H]1COc1ccccc1)c1ccc2ccccc2n1

>  <score_type>  (50) 
oracle

>  <origin>  (50) 
autodockgpu

>  <m_score__min__energy>  (50) 
-9.0899999999999999

>  <m_primary>  (50) 
energy

>  <rmsd>  (50) 
2.121478060378806

>  <m_score__min__rmsd>  (50) 
2.121478060378806

>  <meeko>  (50) 
{"free_energy": -6.96, "intermolecular_energy": -9.35, "internal_energy": -2.55, "cluster_size": 9, "cluster_id": 3, "rank_in_cluster": 9}

>  <energy>  (50) 
-7.55

>  <cluster_rmsd>  (50) 
0.0

>  <cluster>  (50) 
5

$$$$
