
     RDKit          3D

 35 36  0  0  0  0  0  0  0  0999 V2000
  142.1660   78.2910  221.4480 N   0  0  0  0  0  0  0  0  0  0  0  0
  141.1230   78.9170  220.7130 C   0  0  0  0  0  0  0  0  0  0  0  0
  141.3700   79.6940  219.7310 O   0  0  0  0  0  0  0  0  0  0  0  0
  139.7300   78.6290  221.1370 C   0  0  0  0  0  0  0  0  0  0  0  0
  139.2810   77.3330  220.6660 N   0  0  0  0  0  0  0  0  0  0  0  0
  139.6020   76.1820  221.4260 C   0  0  0  0  0  0  0  0  0  0  0  0
  140.2820   76.3610  222.4940 O   0  0  0  0  0  0  0  0  0  0  0  0
  139.2270   74.8070  221.0980 C   0  0  0  0  0  0  0  0  0  0  0  0
  139.4080   73.8360  222.1300 N   0  0  0  0  0  0  0  0  0  0  0  0
  139.2900   72.4310  221.8900 C   0  0  0  0  0  0  0  0  0  0  0  0
  139.0100   71.9660  220.7400 O   0  0  0  0  0  0  0  0  0  0  0  0
  139.4960   71.4860  222.9980 C   0  0  0  0  0  0  0  0  0  0  0  0
  139.1130   70.1680  222.8660 C   0  0  0  0  0  0  0  0  0  0  0  0
  139.2990   69.2540  223.9050 C   0  0  0  0  0  0  0  0  0  0  0  0
  139.8750   69.6870  225.0710 C   0  0  0  0  0  0  0  0  0  0  0  0
  140.1080   68.8780  226.1630 C   0  0  0  0  0  0  0  0  0  0  0  0
  140.6970   69.3900  227.3140 C   0  0  0  0  0  0  0  0  0  0  0  0
  140.9800   68.3280  228.6880 Cl  0  0  0  0  0  0  0  0  0  0  0  0
  141.0670   70.7210  227.4030 C   0  0  0  0  0  0  0  0  0  0  0  0
  140.8320   71.5300  226.3080 C   0  0  0  0  0  0  0  0  0  0  0  0
  140.2470   71.0200  225.1660 C   0  0  0  0  0  0  0  0  0  0  0  0
  140.0600   71.8920  224.1510 N   0  0  0  0  0  0  0  0  0  0  0  0
  143.0330   78.8510  221.6870 H   0  0  0  0  0  0  0  0  0  0  0  0
  142.1050   77.2920  221.7600 H   0  0  0  0  0  0  0  0  0  0  0  0
  139.6817   78.6449  222.2358 H   0  0  0  0  0  0  0  0  0  0  0  0
  139.0742   79.3972  220.7014 H   0  0  0  0  0  0  0  0  0  0  0  0
  138.7390   77.2430  219.7810 H   0  0  0  0  0  0  0  0  0  0  0  0
  138.1623   74.8073  220.8218 H   0  0  0  0  0  0  0  0  0  0  0  0
  139.9075   74.5036  220.2887 H   0  0  0  0  0  0  0  0  0  0  0  0
  139.6400   74.1040  223.1340 H   0  0  0  0  0  0  0  0  0  0  0  0
  138.6528   69.8307  221.9256 H   0  0  0  0  0  0  0  0  0  0  0  0
  138.9888   68.2050  223.7899 H   0  0  0  0  0  0  0  0  0  0  0  0
  139.8248   67.8158  226.1233 H   0  0  0  0  0  0  0  0  0  0  0  0
  141.5328   71.1213  228.3156 H   0  0  0  0  0  0  0  0  0  0  0  0
  141.1142   72.5925  226.3464 H   0  0  0  0  0  0  0  0  0  0  0  0
  1  2  1  0
  2  3  2  0
  2  4  1  0
  4  5  1  0
  5  6  1  0
  6  7  2  0
  6  8  1  0
  8  9  1  0
  9 10  1  0
 10 11  2  0
 10 12  1  0
 12 13  2  0
 13 14  1  0
 14 15  2  0
 15 16  1  0
 16 17  2  0
 17 18  1  0
 17 19  1  0
 19 20  2  0
 20 21  1  0
 21 22  2  0
 22 12  1  0
 21 15  1  0
  1 23  1  0
  1 24  1  0
  4 25  1  0
  4 26  1  0
  5 27  1  0
  8 28  1  0
  8 29  1  0
  9 30  1  0
 13 31  1  0
 14 32  1  0
 16 33  1  0
 19 34  1  0
 20 35  1  0
M  END
>  <smiles>  (1) 
NC(=O)CNC(=O)CNC(=O)c1ccc2cc(Cl)ccc2n1

>  <score_type>  (1) 
oracle

>  <origin>  (1) 
autodockgpu

>  <m_score__min__energy>  (1) 
-7.2699999999999996

>  <m_primary>  (1) 
energy

>  <rmsd>  (1) 
1.5373888913665632

>  <m_score__min__rmsd>  (1) 
1.5373888913665632

>  <meeko>  (1) 
{"free_energy": -6.34, "intermolecular_energy": -7.83, "internal_energy": -2.08, "cluster_size": 21, "cluster_id": 1, "rank_in_cluster": 16}

>  <energy>  (1) 
-7.27

>  <cluster_rmsd>  (1) 
0.0

>  <cluster>  (1) 
1

$$$$

     RDKit          3D

 35 36  0  0  0  0  0  0  0  0999 V2000
  139.5850   67.5760  226.6190 N   0  0  0  0  0  0  0  0  0  0  0  0
  140.7150   68.3990  226.3560 C   0  0  0  0  0  0  0  0  0  0  0  0
  141.8590   67.8990  226.0930 O   0  0  0  0  0  0  0  0  0  0  0  0
  140.5070   69.8680  226.4020 C   0  0  0  0  0  0  0  0  0  0  0  0
  140.1530   70.4010  225.1010 N   0  0  0  0  0  0  0  0  0  0  0  0
  138.8220   70.2520  224.6400 C   0  0  0  0  0  0  0  0  0  0  0  0
  138.0050   69.6410  225.4110 O   0  0  0  0  0  0  0  0  0  0  0  0
  138.3000   70.7320  223.3610 C   0  0  0  0  0  0  0  0  0  0  0  0
  138.8000   71.9890  222.9030 N   0  0  0  0  0  0  0  0  0  0  0  0
  140.1320   72.1500  222.4080 C   0  0  0  0  0  0  0  0  0  0  0  0
  140.9510   71.1780  222.3530 O   0  0  0  0  0  0  0  0  0  0  0  0
  140.5790   73.4720  221.9450 C   0  0  0  0  0  0  0  0  0  0  0  0
  141.6560   73.5810  221.0910 C   0  0  0  0  0  0  0  0  0  0  0  0
  142.0980   74.8260  220.6390 C   0  0  0  0  0  0  0  0  0  0  0  0
  141.4400   75.9530  221.0590 C   0  0  0  0  0  0  0  0  0  0  0  0
  141.7850   77.2330  220.6810 C   0  0  0  0  0  0  0  0  0  0  0  0
  141.0690   78.3290  221.1490 C   0  0  0  0  0  0  0  0  0  0  0  0
  141.5370   79.9490  220.6450 Cl  0  0  0  0  0  0  0  0  0  0  0  0
  139.9930   78.1740  222.0060 C   0  0  0  0  0  0  0  0  0  0  0  0
  139.6500   76.8910  222.3840 C   0  0  0  0  0  0  0  0  0  0  0  0
  140.3610   75.8030  221.9180 C   0  0  0  0  0  0  0  0  0  0  0  0
  139.9460   74.5910  222.3460 N   0  0  0  0  0  0  0  0  0  0  0  0
  139.7080   66.7120  227.2190 H   0  0  0  0  0  0  0  0  0  0  0  0
  138.6340   67.7980  226.2360 H   0  0  0  0  0  0  0  0  0  0  0  0
  139.6962   70.0911  227.1111 H   0  0  0  0  0  0  0  0  0  0  0  0
  141.4495   70.3377  226.7198 H   0  0  0  0  0  0  0  0  0  0  0  0
  140.8630   70.8800  224.5070 H   0  0  0  0  0  0  0  0  0  0  0  0
  138.5402   69.9778  222.5971 H   0  0  0  0  0  0  0  0  0  0  0  0
  137.2234   70.8876  223.5245 H   0  0  0  0  0  0  0  0  0  0  0  0
  138.2090   72.8750  222.9050 H   0  0  0  0  0  0  0  0  0  0  0  0
  142.1766   72.6704  220.7597 H   0  0  0  0  0  0  0  0  0  0  0  0
  142.9587   74.9012  219.9582 H   0  0  0  0  0  0  0  0  0  0  0  0
  142.6360   77.3889  220.0017 H   0  0  0  0  0  0  0  0  0  0  0  0
  139.4297   79.0443  222.3738 H   0  0  0  0  0  0  0  0  0  0  0  0
  138.8002   76.7338  223.0645 H   0  0  0  0  0  0  0  0  0  0  0  0
  1  2  1  0
  2  3  2  0
  2  4  1  0
  4  5  1  0
  5  6  1  0
  6  7  2  0
  6  8  1  0
  8  9  1  0
  9 10  1  0
 10 11  2  0
 10 12  1  0
 12 13  2  0
 13 14  1  0
 14 15  2  0
 15 16  1  0
 16 17  2  0
 17 18  1  0
 17 19  1  0
 19 20  2  0
 20 21  1  0
 21 22  2  0
 22 12  1  0
 21 15  1  0
  1 23  1  0
  1 24  1  0
  4 25  1  0
  4 26  1  0
  5 27  1  0
  8 28  1  0
  8 29  1  0
  9 30  1  0
 13 31  1  0
 14 32  1  0
 16 33  1  0
 19 34  1  0
 20 35  1  0
M  END
>  <smiles>  (2) 
NC(=O)CNC(=O)CNC(=O)c1ccc2cc(Cl)ccc2n1

>  <score_type>  (2) 
oracle

>  <origin>  (2) 
autodockgpu

>  <m_score__min__energy>  (2) 
-7.2699999999999996

>  <m_primary>  (2) 
energy

>  <rmsd>  (2) 
7.96129744352

>  <m_score__min__rmsd>  (2) 
7.96129744352

>  <meeko>  (2) 
{"free_energy": -5.65, "intermolecular_energy": -7.14, "internal_energy": -2.46, "cluster_size": 9, "cluster_id": 2, "rank_in_cluster": 8}

>  <energy>  (2) 
-7.16

>  <cluster_rmsd>  (2) 
0.44

>  <cluster>  (2) 
1

$$$$

     RDKit          3D

 35 36  0  0  0  0  0  0  0  0999 V2000
  143.8780   76.3860  220.0940 N   0  0  0  0  0  0  0  0  0  0  0  0
  143.7650   75.0240  219.7020 C   0  0  0  0  0  0  0  0  0  0  0  0
  144.6200   74.1500  220.0670 O   0  0  0  0  0  0  0  0  0  0  0  0
  142.6070   74.6610  218.8470 C   0  0  0  0  0  0  0  0  0  0  0  0
  141.4420   74.3150  219.6390 N   0  0  0  0  0  0  0  0  0  0  0  0
  140.7460   75.3460  220.3170 C   0  0  0  0  0  0  0  0  0  0  0  0
  141.2000   76.5340  220.1910 O   0  0  0  0  0  0  0  0  0  0  0  0
  139.5570   75.1720  221.1510 C   0  0  0  0  0  0  0  0  0  0  0  0
  139.6360   74.1720  222.1680 N   0  0  0  0  0  0  0  0  0  0  0  0
  139.8060   72.7840  221.8680 C   0  0  0  0  0  0  0  0  0  0  0  0
  139.8900   72.3600  220.6710 O   0  0  0  0  0  0  0  0  0  0  0  0
  139.8870   71.8090  222.9650 C   0  0  0  0  0  0  0  0  0  0  0  0
  139.4590   70.5130  222.7750 C   0  0  0  0  0  0  0  0  0  0  0  0
  139.5260   69.5710  223.8030 C   0  0  0  0  0  0  0  0  0  0  0  0
  140.0300   69.9540  225.0190 C   0  0  0  0  0  0  0  0  0  0  0  0
  140.1460   69.1140  226.1060 C   0  0  0  0  0  0  0  0  0  0  0  0
  140.6680   69.5750  227.3090 C   0  0  0  0  0  0  0  0  0  0  0  0
  140.8010   68.4750  228.6750 Cl  0  0  0  0  0  0  0  0  0  0  0  0
  141.0870   70.8860  227.4560 C   0  0  0  0  0  0  0  0  0  0  0  0
  140.9700   71.7260  226.3660 C   0  0  0  0  0  0  0  0  0  0  0  0
  140.4510   71.2670  225.1720 C   0  0  0  0  0  0  0  0  0  0  0  0
  140.3790   72.1660  224.1670 N   0  0  0  0  0  0  0  0  0  0  0  0
  144.8330   76.8440  220.0880 H   0  0  0  0  0  0  0  0  0  0  0  0
  143.0450   76.9510  220.3900 H   0  0  0  0  0  0  0  0  0  0  0  0
  142.3581   75.5167  218.2021 H   0  0  0  0  0  0  0  0  0  0  0  0
  142.8864   73.7826  218.2467 H   0  0  0  0  0  0  0  0  0  0  0  0
  141.1220   73.3270  219.7180 H   0  0  0  0  0  0  0  0  0  0  0  0
  139.3493   76.1338  221.6427 H   0  0  0  0  0  0  0  0  0  0  0  0
  138.7668   74.8308  220.4661 H   0  0  0  0  0  0  0  0  0  0  0  0
  139.5740   74.4040  223.2050 H   0  0  0  0  0  0  0  0  0  0  0  0
  139.0572   70.2153  221.7953 H   0  0  0  0  0  0  0  0  0  0  0  0
  139.1804   68.5395  223.6402 H   0  0  0  0  0  0  0  0  0  0  0  0
  139.8216   68.0664  226.0203 H   0  0  0  0  0  0  0  0  0  0  0  0
  141.4996   71.2470  228.4096 H   0  0  0  0  0  0  0  0  0  0  0  0
  141.2944   72.7737  226.4503 H   0  0  0  0  0  0  0  0  0  0  0  0
  1  2  1  0
  2  3  2  0
  2  4  1  0
  4  5  1  0
  5  6  1  0
  6  7  2  0
  6  8  1  0
  8  9  1  0
  9 10  1  0
 10 11  2  0
 10 12  1  0
 12 13  2  0
 13 14  1  0
 14 15  2  0
 15 16  1  0
 16 17  2  0
 17 18  1  0
 17 19  1  0
 19 20  2  0
 20 21  1  0
 21 22  2  0
 22 12  1  0
 21 15  1  0
  1 23  1  0
  1 24  1  0
  4 25  1  0
  4 26  1  0
  5 27  1  0
  8 28  1  0
  8 29  1  0
  9 30  1  0
 13 31  1  0
 14 32  1  0
 16 33  1  0
 19 34  1  0
 20 35  1  0
M  END
>  <smiles>  (3) 
NC(=O)CNC(=O)CNC(=O)c1ccc2cc(Cl)ccc2n1

>  <score_type>  (3) 
oracle

>  <origin>  (3) 
autodockgpu

>  <m_score__min__energy>  (3) 
-7.2699999999999996

>  <m_primary>  (3) 
energy

>  <rmsd>  (3) 
2.241678333692521

>  <m_score__min__rmsd>  (3) 
2.241678333692521

>  <meeko>  (3) 
{"free_energy": -6.16, "intermolecular_energy": -7.65, "internal_energy": -2.38, "cluster_size": 16, "cluster_id": 3, "rank_in_cluster": 5}

>  <energy>  (3) 
-6.84

>  <cluster_rmsd>  (3) 
1.04

>  <cluster>  (3) 
1

$$$$

     RDKit          3D

 35 36  0  0  0  0  0  0  0  0999 V2000
  143.8010   76.7330  219.8540 N   0  0  0  0  0  0  0  0  0  0  0  0
  143.5280   75.3420  219.7480 C   0  0  0  0  0  0  0  0  0  0  0  0
  144.1850   74.4780  220.4190 O   0  0  0  0  0  0  0  0  0  0  0  0
  142.4430   74.9350  218.8210 C   0  0  0  0  0  0  0  0  0  0  0  0
  141.2510   74.5200  219.5370 N   0  0  0  0  0  0  0  0  0  0  0  0
  140.6290   75.4380  220.4170 C   0  0  0  0  0  0  0  0  0  0  0  0
  141.1690   76.5920  220.5300 O   0  0  0  0  0  0  0  0  0  0  0  0
  139.4260   75.1850  221.2090 C   0  0  0  0  0  0  0  0  0  0  0  0
  139.5310   74.1810  222.2200 N   0  0  0  0  0  0  0  0  0  0  0  0
  139.7400   72.8000  221.9100 C   0  0  0  0  0  0  0  0  0  0  0  0
  139.8370   72.3870  220.7110 O   0  0  0  0  0  0  0  0  0  0  0  0
  139.8470   71.8200  223.0010 C   0  0  0  0  0  0  0  0  0  0  0  0
  139.4590   70.5130  222.8010 C   0  0  0  0  0  0  0  0  0  0  0  0
  139.5510   69.5660  223.8220 C   0  0  0  0  0  0  0  0  0  0  0  0
  140.0400   69.9560  225.0420 C   0  0  0  0  0  0  0  0  0  0  0  0
  140.1770   69.1120  226.1240 C   0  0  0  0  0  0  0  0  0  0  0  0
  140.6800   69.5810  227.3320 C   0  0  0  0  0  0  0  0  0  0  0  0
  140.8420   68.4750  228.6910 Cl  0  0  0  0  0  0  0  0  0  0  0  0
  141.0600   70.9030  227.4890 C   0  0  0  0  0  0  0  0  0  0  0  0
  140.9210   71.7470  226.4050 C   0  0  0  0  0  0  0  0  0  0  0  0
  140.4200   71.2800  225.2060 C   0  0  0  0  0  0  0  0  0  0  0  0
  140.3240   72.1840  224.2070 N   0  0  0  0  0  0  0  0  0  0  0  0
  144.8090   77.0550  219.8990 H   0  0  0  0  0  0  0  0  0  0  0  0
  143.0360   77.4490  219.8890 H   0  0  0  0  0  0  0  0  0  0  0  0
  142.1905   75.7868  218.1723 H   0  0  0  0  0  0  0  0  0  0  0  0
  142.8015   74.0802  218.2287 H   0  0  0  0  0  0  0  0  0  0  0  0
  140.8600   73.5620  219.4160 H   0  0  0  0  0  0  0  0  0  0  0  0
  139.1449   76.1277  221.7013 H   0  0  0  0  0  0  0  0  0  0  0  0
  138.6807   74.8043  220.4952 H   0  0  0  0  0  0  0  0  0  0  0  0
  139.4610   74.4040  223.2580 H   0  0  0  0  0  0  0  0  0  0  0  0
  139.0693   70.2103  221.8179 H   0  0  0  0  0  0  0  0  0  0  0  0
  139.2369   68.5257  223.6510 H   0  0  0  0  0  0  0  0  0  0  0  0
  139.8849   68.0557  226.0300 H   0  0  0  0  0  0  0  0  0  0  0  0
  141.4597   71.2691  228.4462 H   0  0  0  0  0  0  0  0  0  0  0  0
  141.2128   72.8035  226.4977 H   0  0  0  0  0  0  0  0  0  0  0  0
  1  2  1  0
  2  3  2  0
  2  4  1  0
  4  5  1  0
  5  6  1  0
  6  7  2  0
  6  8  1  0
  8  9  1  0
  9 10  1  0
 10 11  2  0
 10 12  1  0
 12 13  2  0
 13 14  1  0
 14 15  2  0
 15 16  1  0
 16 17  2  0
 17 18  1  0
 17 19  1  0
 19 20  2  0
 20 21  1  0
 21 22  2  0
 22 12  1  0
 21 15  1  0
  1 23  1  0
  1 24  1  0
  4 25  1  0
  4 26  1  0
  5 27  1  0
  8 28  1  0
  8 29  1  0
  9 30  1  0
 13 31  1  0
 14 32  1  0
 16 33  1  0
 19 34  1  0
 20 35  1  0
M  END
>  <smiles>  (4) 
NC(=O)CNC(=O)CNC(=O)c1ccc2cc(Cl)ccc2n1

>  <score_type>  (4) 
oracle

>  <origin>  (4) 
autodockgpu

>  <m_score__min__energy>  (4) 
-7.2699999999999996

>  <m_primary>  (4) 
energy

>  <rmsd>  (4) 
2.114823119319901

>  <m_score__min__rmsd>  (4) 
2.114823119319901

>  <meeko>  (4) 
{"free_energy": -6.18, "intermolecular_energy": -7.67, "internal_energy": -2.35, "cluster_size": 16, "cluster_id": 3, "rank_in_cluster": 3}

>  <energy>  (4) 
-6.83

>  <cluster_rmsd>  (4) 
1.08

>  <cluster>  (4) 
1

$$$$

     RDKit          3D

 35 36  0  0  0  0  0  0  0  0999 V2000
  142.3600   78.8660  221.8760 N   0  0  0  0  0  0  0  0  0  0  0  0
  141.0240   78.7470  222.3480 C   0  0  0  0  0  0  0  0  0  0  0  0
  140.7540   78.7320  223.5950 O   0  0  0  0  0  0  0  0  0  0  0  0
  139.9530   78.6400  221.3260 C   0  0  0  0  0  0  0  0  0  0  0  0
  139.8820   77.3080  220.7580 N   0  0  0  0  0  0  0  0  0  0  0  0
  139.4530   76.2370  221.5800 C   0  0  0  0  0  0  0  0  0  0  0  0
  139.1540   76.5170  222.7910 O   0  0  0  0  0  0  0  0  0  0  0  0
  139.3220   74.8400  221.1670 C   0  0  0  0  0  0  0  0  0  0  0  0
  139.4650   73.8590  222.1960 N   0  0  0  0  0  0  0  0  0  0  0  0
  139.4900   72.4560  221.9180 C   0  0  0  0  0  0  0  0  0  0  0  0
  139.3790   72.0020  220.7350 O   0  0  0  0  0  0  0  0  0  0  0  0
  139.6490   71.5000  223.0240 C   0  0  0  0  0  0  0  0  0  0  0  0
  139.2510   70.1890  222.8720 C   0  0  0  0  0  0  0  0  0  0  0  0
  139.3910   69.2650  223.9080 C   0  0  0  0  0  0  0  0  0  0  0  0
  139.9370   69.6810  225.0950 C   0  0  0  0  0  0  0  0  0  0  0  0
  140.1250   68.8610  226.1880 C   0  0  0  0  0  0  0  0  0  0  0  0
  140.6860   69.3560  227.3590 C   0  0  0  0  0  0  0  0  0  0  0  0
  140.9120   68.2810  228.7330 Cl  0  0  0  0  0  0  0  0  0  0  0  0
  141.0720   70.6810  227.4690 C   0  0  0  0  0  0  0  0  0  0  0  0
  140.8830   71.5010  226.3740 C   0  0  0  0  0  0  0  0  0  0  0  0
  140.3260   71.0080  225.2110 C   0  0  0  0  0  0  0  0  0  0  0  0
  140.1830   71.8900  224.1970 N   0  0  0  0  0  0  0  0  0  0  0  0
  143.1270   78.3260  222.3680 H   0  0  0  0  0  0  0  0  0  0  0  0
  142.6090   79.4710  221.0570 H   0  0  0  0  0  0  0  0  0  0  0  0
  138.9874   78.8787  221.7958 H   0  0  0  0  0  0  0  0  0  0  0  0
  140.1831   79.3460  220.5144 H   0  0  0  0  0  0  0  0  0  0  0  0
  140.1500   77.1330  219.7670 H   0  0  0  0  0  0  0  0  0  0  0  0
  138.3244   74.7147  220.7209 H   0  0  0  0  0  0  0  0  0  0  0  0
  140.1561   74.6602  220.4728 H   0  0  0  0  0  0  0  0  0  0  0  0
  139.5620   74.1160  223.2240 H   0  0  0  0  0  0  0  0  0  0  0  0
  138.8147   69.8651  221.9156 H   0  0  0  0  0  0  0  0  0  0  0  0
  139.0692   68.2216  223.7749 H   0  0  0  0  0  0  0  0  0  0  0  0
  139.8275   67.8035  226.1321 H   0  0  0  0  0  0  0  0  0  0  0  0
  141.5149   71.0681  228.3985 H   0  0  0  0  0  0  0  0  0  0  0  0
  141.1796   72.5588  226.4291 H   0  0  0  0  0  0  0  0  0  0  0  0
  1  2  1  0
  2  3  2  0
  2  4  1  0
  4  5  1  0
  5  6  1  0
  6  7  2  0
  6  8  1  0
  8  9  1  0
  9 10  1  0
 10 11  2  0
 10 12  1  0
 12 13  2  0
 13 14  1  0
 14 15  2  0
 15 16  1  0
 16 17  2  0
 17 18  1  0
 17 19  1  0
 19 20  2  0
 20 21  1  0
 21 22  2  0
 22 12  1  0
 21 15  1  0
  1 23  1  0
  1 24  1  0
  4 25  1  0
  4 26  1  0
  5 27  1  0
  8 28  1  0
  8 29  1  0
  9 30  1  0
 13 31  1  0
 14 32  1  0
 16 33  1  0
 19 34  1  0
 20 35  1  0
M  END
>  <smiles>  (5) 
NC(=O)CNC(=O)CNC(=O)c1ccc2cc(Cl)ccc2n1

>  <score_type>  (5) 
oracle

>  <origin>  (5) 
autodockgpu

>  <m_score__min__energy>  (5) 
-7.2699999999999996

>  <m_primary>  (5) 
energy

>  <rmsd>  (5) 
1.6357759278554722

>  <m_score__min__rmsd>  (5) 
1.6357759278554722

>  <meeko>  (5) 
{"free_energy": -6.62, "intermolecular_energy": -8.11, "internal_energy": -1.34, "cluster_size": 21, "cluster_id": 1, "rank_in_cluster": 8}

>  <energy>  (5) 
-6.75

>  <cluster_rmsd>  (5) 
0.58

>  <cluster>  (5) 
1

$$$$

     RDKit          3D

 35 36  0  0  0  0  0  0  0  0999 V2000
  143.1970   79.6550  222.3500 N   0  0  0  0  0  0  0  0  0  0  0  0
  142.2900   80.0230  223.3820 C   0  0  0  0  0  0  0  0  0  0  0  0
  142.1690   81.2340  223.7640 O   0  0  0  0  0  0  0  0  0  0  0  0
  141.4890   78.9360  223.9970 C   0  0  0  0  0  0  0  0  0  0  0  0
  141.1910   77.8820  223.0450 N   0  0  0  0  0  0  0  0  0  0  0  0
  139.8780   77.7830  222.5240 C   0  0  0  0  0  0  0  0  0  0  0  0
  139.0230   78.6400  222.9360 O   0  0  0  0  0  0  0  0  0  0  0  0
  139.4120   76.7890  221.5580 C   0  0  0  0  0  0  0  0  0  0  0  0
  140.3450   75.7670  221.2010 N   0  0  0  0  0  0  0  0  0  0  0  0
  141.6590   76.0630  220.7200 C   0  0  0  0  0  0  0  0  0  0  0  0
  142.0700   77.2590  220.5770 O   0  0  0  0  0  0  0  0  0  0  0  0
  142.5710   74.9620  220.3760 C   0  0  0  0  0  0  0  0  0  0  0  0
  143.8910   75.2220  220.0770 C   0  0  0  0  0  0  0  0  0  0  0  0
  144.7740   74.1920  219.7480 C   0  0  0  0  0  0  0  0  0  0  0  0
  144.3080   72.9030  219.7260 C   0  0  0  0  0  0  0  0  0  0  0  0
  145.0850   71.8060  219.4160 C   0  0  0  0  0  0  0  0  0  0  0  0
  144.5400   70.5280  219.4150 C   0  0  0  0  0  0  0  0  0  0  0  0
  145.5610   69.1520  219.0150 Cl  0  0  0  0  0  0  0  0  0  0  0  0
  143.2080   70.3120  219.7220 C   0  0  0  0  0  0  0  0  0  0  0  0
  142.4310   71.4110  220.0320 C   0  0  0  0  0  0  0  0  0  0  0  0
  142.9740   72.6810  220.0330 C   0  0  0  0  0  0  0  0  0  0  0  0
  142.1320   73.6890  220.3500 N   0  0  0  0  0  0  0  0  0  0  0  0
  144.1580   80.1000  222.3300 H   0  0  0  0  0  0  0  0  0  0  0  0
  142.9440   78.9560  221.6100 H   0  0  0  0  0  0  0  0  0  0  0  0
  142.0556   78.5076  224.8369 H   0  0  0  0  0  0  0  0  0  0  0  0
  140.5366   79.3655  224.3411 H   0  0  0  0  0  0  0  0  0  0  0  0
  141.9240   77.2020  222.7530 H   0  0  0  0  0  0  0  0  0  0  0  0
  138.5242   76.2985  221.9837 H   0  0  0  0  0  0  0  0  0  0  0  0
  139.2208   77.3486  220.6305 H   0  0  0  0  0  0  0  0  0  0  0  0
  140.1140   74.7310  221.2720 H   0  0  0  0  0  0  0  0  0  0  0  0
  144.2553   76.2597  220.0980 H   0  0  0  0  0  0  0  0  0  0  0  0
  145.8255   74.4109  219.5105 H   0  0  0  0  0  0  0  0  0  0  0  0
  146.1474   71.9446  219.1670 H   0  0  0  0  0  0  0  0  0  0  0  0
  142.7819   69.2979  219.7192 H   0  0  0  0  0  0  0  0  0  0  0  0
  141.3684   71.2734  220.2807 H   0  0  0  0  0  0  0  0  0  0  0  0
  1  2  1  0
  2  3  2  0
  2  4  1  0
  4  5  1  0
  5  6  1  0
  6  7  2  0
  6  8  1  0
  8  9  1  0
  9 10  1  0
 10 11  2  0
 10 12  1  0
 12 13  2  0
 13 14  1  0
 14 15  2  0
 15 16  1  0
 16 17  2  0
 17 18  1  0
 17 19  1  0
 19 20  2  0
 20 21  1  0
 21 22  2  0
 22 12  1  0
 21 15  1  0
  1 23  1  0
  1 24  1  0
  4 25  1  0
  4 26  1  0
  5 27  1  0
  8 28  1  0
  8 29  1  0
  9 30  1  0
 13 31  1  0
 14 32  1  0
 16 33  1  0
 19 34  1  0
 20 35  1  0
M  END
>  <smiles>  (6) 
NC(=O)CNC(=O)CNC(=O)c1ccc2cc(Cl)ccc2n1

>  <score_type>  (6) 
oracle

>  <origin>  (6) 
autodockgpu

>  <m_score__min__energy>  (6) 
-7.2699999999999996

>  <m_primary>  (6) 
energy

>  <rmsd>  (6) 
6.6586900552936354

>  <m_score__min__rmsd>  (6) 
6.6586900552936354

>  <meeko>  (6) 
{"free_energy": -5.48, "intermolecular_energy": -6.97, "internal_energy": -2.51, "cluster_size": 2, "cluster_id": 4, "rank_in_cluster": 1}

>  <energy>  (6) 
-6.66

>  <cluster_rmsd>  (6) 
1.45

>  <cluster>  (6) 
1

$$$$

     RDKit          3D

 35 36  0  0  0  0  0  0  0  0999 V2000
  140.9980   76.4930  222.2050 N   0  0  0  0  0  0  0  0  0  0  0  0
  139.8560   77.3000  221.9460 C   0  0  0  0  0  0  0  0  0  0  0  0
  139.9670   78.5000  221.5280 O   0  0  0  0  0  0  0  0  0  0  0  0
  138.5260   76.6850  222.1840 C   0  0  0  0  0  0  0  0  0  0  0  0
  138.5540   75.2490  221.9850 N   0  0  0  0  0  0  0  0  0  0  0  0
  138.4970   74.7400  220.6640 C   0  0  0  0  0  0  0  0  0  0  0  0
  138.4180   75.5940  219.7160 O   0  0  0  0  0  0  0  0  0  0  0  0
  138.5190   73.3270  220.2890 C   0  0  0  0  0  0  0  0  0  0  0  0
  138.6940   72.3910  221.3530 N   0  0  0  0  0  0  0  0  0  0  0  0
  139.6910   72.5590  222.3660 C   0  0  0  0  0  0  0  0  0  0  0  0
  140.4840   73.5540  222.3700 O   0  0  0  0  0  0  0  0  0  0  0  0
  139.8120   71.5590  223.4380 C   0  0  0  0  0  0  0  0  0  0  0  0
  139.4250   70.2550  223.2180 C   0  0  0  0  0  0  0  0  0  0  0  0
  139.5300   69.2900  224.2210 C   0  0  0  0  0  0  0  0  0  0  0  0
  140.0300   69.6590  225.4430 C   0  0  0  0  0  0  0  0  0  0  0  0
  140.1810   68.7960  226.5080 C   0  0  0  0  0  0  0  0  0  0  0  0
  140.6950   69.2450  227.7190 C   0  0  0  0  0  0  0  0  0  0  0  0
  140.8740   68.1150  229.0550 Cl  0  0  0  0  0  0  0  0  0  0  0  0
  141.0730   70.5650  227.8960 C   0  0  0  0  0  0  0  0  0  0  0  0
  140.9210   71.4280  226.8290 C   0  0  0  0  0  0  0  0  0  0  0  0
  140.4090   70.9810  225.6260 C   0  0  0  0  0  0  0  0  0  0  0  0
  140.3000   71.9030  224.6450 N   0  0  0  0  0  0  0  0  0  0  0  0
  141.8350   76.9280  222.6850 H   0  0  0  0  0  0  0  0  0  0  0  0
  141.0370   75.4800  221.9340 H   0  0  0  0  0  0  0  0  0  0  0  0
  138.2163   76.8953  223.2184 H   0  0  0  0  0  0  0  0  0  0  0  0
  137.8156   77.1165  221.4635 H   0  0  0  0  0  0  0  0  0  0  0  0
  138.6070   74.5970  222.7960 H   0  0  0  0  0  0  0  0  0  0  0  0
  137.5637   73.0970  219.7945 H   0  0  0  0  0  0  0  0  0  0  0  0
  139.4042   73.2086  219.6468 H   0  0  0  0  0  0  0  0  0  0  0  0
  138.0940   71.5170  221.4520 H   0  0  0  0  0  0  0  0  0  0  0  0
  139.0259   69.9692  222.2336 H   0  0  0  0  0  0  0  0  0  0  0  0
  139.2172   68.2521  224.0343 H   0  0  0  0  0  0  0  0  0  0  0  0
  139.8915   67.7405  226.3980 H   0  0  0  0  0  0  0  0  0  0  0  0
  141.4812   70.9149  228.8556 H   0  0  0  0  0  0  0  0  0  0  0  0
  141.2109   72.4835  226.9379 H   0  0  0  0  0  0  0  0  0  0  0  0
  1  2  1  0
  2  3  2  0
  2  4  1  0
  4  5  1  0
  5  6  1  0
  6  7  2  0
  6  8  1  0
  8  9  1  0
  9 10  1  0
 10 11  2  0
 10 12  1  0
 12 13  2  0
 13 14  1  0
 14 15  2  0
 15 16  1  0
 16 17  2  0
 17 18  1  0
 17 19  1  0
 19 20  2  0
 20 21  1  0
 21 22  2  0
 22 12  1  0
 21 15  1  0
  1 23  1  0
  1 24  1  0
  4 25  1  0
  4 26  1  0
  5 27  1  0
  8 28  1  0
  8 29  1  0
  9 30  1  0
 13 31  1  0
 14 32  1  0
 16 33  1  0
 19 34  1  0
 20 35  1  0
M  END
>  <smiles>  (7) 
NC(=O)CNC(=O)CNC(=O)c1ccc2cc(Cl)ccc2n1

>  <score_type>  (7) 
oracle

>  <origin>  (7) 
autodockgpu

>  <m_score__min__energy>  (7) 
-7.2699999999999996

>  <m_primary>  (7) 
energy

>  <rmsd>  (7) 
1.7861046172662927

>  <m_score__min__rmsd>  (7) 
1.7861046172662927

>  <meeko>  (7) 
{"free_energy": -6.45, "intermolecular_energy": -7.95, "internal_energy": -2.13, "cluster_size": 21, "cluster_id": 1, "rank_in_cluster": 12}

>  <energy>  (7) 
-6.62

>  <cluster_rmsd>  (7) 
1.41

>  <cluster>  (7) 
1

$$$$

     RDKit          3D

 35 36  0  0  0  0  0  0  0  0999 V2000
  139.5130   67.5770  226.6850 N   0  0  0  0  0  0  0  0  0  0  0  0
  140.6900   68.3330  226.4280 C   0  0  0  0  0  0  0  0  0  0  0  0
  141.8100   67.7680  226.1950 O   0  0  0  0  0  0  0  0  0  0  0  0
  140.5600   69.8120  226.4430 C   0  0  0  0  0  0  0  0  0  0  0  0
  140.1870   70.3320  225.1410 N   0  0  0  0  0  0  0  0  0  0  0  0
  138.8360   70.2330  224.7270 C   0  0  0  0  0  0  0  0  0  0  0  0
  138.0190   69.6770  225.5380 O   0  0  0  0  0  0  0  0  0  0  0  0
  138.2940   70.7070  223.4550 C   0  0  0  0  0  0  0  0  0  0  0  0
  138.7850   71.9630  222.9840 N   0  0  0  0  0  0  0  0  0  0  0  0
  140.1010   72.1180  222.4460 C   0  0  0  0  0  0  0  0  0  0  0  0
  140.9130   71.1420  222.3620 O   0  0  0  0  0  0  0  0  0  0  0  0
  140.5400   73.4390  221.9720 C   0  0  0  0  0  0  0  0  0  0  0  0
  141.6310   73.5500  221.1370 C   0  0  0  0  0  0  0  0  0  0  0  0
  142.0650   74.7940  220.6750 C   0  0  0  0  0  0  0  0  0  0  0  0
  141.3860   75.9180  221.0670 C   0  0  0  0  0  0  0  0  0  0  0  0
  141.7220   77.1970  220.6770 C   0  0  0  0  0  0  0  0  0  0  0  0
  140.9840   78.2910  221.1170 C   0  0  0  0  0  0  0  0  0  0  0  0
  141.4410   79.9080  220.5980 Cl  0  0  0  0  0  0  0  0  0  0  0  0
  139.8950   78.1340  221.9560 C   0  0  0  0  0  0  0  0  0  0  0  0
  139.5610   76.8520  222.3460 C   0  0  0  0  0  0  0  0  0  0  0  0
  140.2940   75.7670  221.9090 C   0  0  0  0  0  0  0  0  0  0  0  0
  139.8860   74.5550  222.3460 N   0  0  0  0  0  0  0  0  0  0  0  0
  139.5800   66.7200  227.3030 H   0  0  0  0  0  0  0  0  0  0  0  0
  138.5820   67.8420  226.2810 H   0  0  0  0  0  0  0  0  0  0  0  0
  139.7880   70.0944  227.1740 H   0  0  0  0  0  0  0  0  0  0  0  0
  141.5365   70.2389  226.7154 H   0  0  0  0  0  0  0  0  0  0  0  0
  140.8970   70.7650  224.5140 H   0  0  0  0  0  0  0  0  0  0  0  0
  138.5235   69.9500  222.6906 H   0  0  0  0  0  0  0  0  0  0  0  0
  137.2199   70.8620  223.6347 H   0  0  0  0  0  0  0  0  0  0  0  0
  138.2000   72.8520  223.0080 H   0  0  0  0  0  0  0  0  0  0  0  0
  142.1697   72.6418  220.8289 H   0  0  0  0  0  0  0  0  0  0  0  0
  142.9365   74.8705  220.0082 H   0  0  0  0  0  0  0  0  0  0  0  0
  142.5830   77.3541  220.0107 H   0  0  0  0  0  0  0  0  0  0  0  0
  139.3142   79.0021  222.3011 H   0  0  0  0  0  0  0  0  0  0  0  0
  138.7006   76.6936  223.0128 H   0  0  0  0  0  0  0  0  0  0  0  0
  1  2  1  0
  2  3  2  0
  2  4  1  0
  4  5  1  0
  5  6  1  0
  6  7  2  0
  6  8  1  0
  8  9  1  0
  9 10  1  0
 10 11  2  0
 10 12  1  0
 12 13  2  0
 13 14  1  0
 14 15  2  0
 15 16  1  0
 16 17  2  0
 17 18  1  0
 17 19  1  0
 19 20  2  0
 20 21  1  0
 21 22  2  0
 22 12  1  0
 21 15  1  0
  1 23  1  0
  1 24  1  0
  4 25  1  0
  4 26  1  0
  5 27  1  0
  8 28  1  0
  8 29  1  0
  9 30  1  0
 13 31  1  0
 14 32  1  0
 16 33  1  0
 19 34  1  0
 20 35  1  0
M  END
>  <smiles>  (8) 
NC(=O)CNC(=O)CNC(=O)c1ccc2cc(Cl)ccc2n1

>  <score_type>  (8) 
oracle

>  <origin>  (8) 
autodockgpu

>  <m_score__min__energy>  (8) 
-7.2699999999999996

>  <m_primary>  (8) 
energy

>  <rmsd>  (8) 
7.977598053739931

>  <m_score__min__rmsd>  (8) 
7.977598053739931

>  <meeko>  (8) 
{"free_energy": -5.67, "intermolecular_energy": -7.16, "internal_energy": -2.46, "cluster_size": 9, "cluster_id": 2, "rank_in_cluster": 7}

>  <energy>  (8) 
-6.62

>  <cluster_rmsd>  (8) 
0.75

>  <cluster>  (8) 
1

$$$$

     RDKit          3D

 35 36  0  0  0  0  0  0  0  0999 V2000
  141.8540   75.5750  221.0850 N   0  0  0  0  0  0  0  0  0  0  0  0
  142.7380   75.0680  220.0930 C   0  0  0  0  0  0  0  0  0  0  0  0
  144.0000   75.0340  220.2780 O   0  0  0  0  0  0  0  0  0  0  0  0
  142.1290   74.5790  218.8310 C   0  0  0  0  0  0  0  0  0  0  0  0
  141.1610   73.5270  219.0730 N   0  0  0  0  0  0  0  0  0  0  0  0
  139.8500   73.8840  219.4750 C   0  0  0  0  0  0  0  0  0  0  0  0
  139.6020   75.1320  219.6050 O   0  0  0  0  0  0  0  0  0  0  0  0
  138.7570   72.9540  219.7550 C   0  0  0  0  0  0  0  0  0  0  0  0
  138.9530   72.0560  220.8480 N   0  0  0  0  0  0  0  0  0  0  0  0
  139.4330   72.4920  222.1230 C   0  0  0  0  0  0  0  0  0  0  0  0
  139.7200   73.7100  222.3520 O   0  0  0  0  0  0  0  0  0  0  0  0
  139.6050   71.5140  223.2070 C   0  0  0  0  0  0  0  0  0  0  0  0
  139.1850   70.2120  223.0400 C   0  0  0  0  0  0  0  0  0  0  0  0
  139.3380   69.2670  224.0560 C   0  0  0  0  0  0  0  0  0  0  0  0
  139.9170   69.6530  225.2370 C   0  0  0  0  0  0  0  0  0  0  0  0
  140.1190   68.8110  226.3100 C   0  0  0  0  0  0  0  0  0  0  0  0
  140.7130   69.2770  227.4770 C   0  0  0  0  0  0  0  0  0  0  0  0
  140.9570   68.1730  228.8250 Cl  0  0  0  0  0  0  0  0  0  0  0  0
  141.1200   70.5940  227.6020 C   0  0  0  0  0  0  0  0  0  0  0  0
  140.9160   71.4360  226.5270 C   0  0  0  0  0  0  0  0  0  0  0  0
  140.3260   70.9730  225.3680 C   0  0  0  0  0  0  0  0  0  0  0  0
  140.1710   71.8750  224.3740 N   0  0  0  0  0  0  0  0  0  0  0  0
  142.1280   76.4480  221.6180 H   0  0  0  0  0  0  0  0  0  0  0  0
  140.9390   75.1110  221.3040 H   0  0  0  0  0  0  0  0  0  0  0  0
  141.6248   75.4186  218.3302 H   0  0  0  0  0  0  0  0  0  0  0  0
  142.9313   74.1673  218.2010 H   0  0  0  0  0  0  0  0  0  0  0  0
  141.4200   72.5240  218.9630 H   0  0  0  0  0  0  0  0  0  0  0  0
  137.8570   73.5494  219.9681 H   0  0  0  0  0  0  0  0  0  0  0  0
  138.6796   72.3160  218.8623 H   0  0  0  0  0  0  0  0  0  0  0  0
  138.7530   71.0130  220.7750 H   0  0  0  0  0  0  0  0  0  0  0  0
  138.7208   69.9121  222.0889 H   0  0  0  0  0  0  0  0  0  0  0  0
  138.9997   68.2303  223.9114 H   0  0  0  0  0  0  0  0  0  0  0  0
  139.8065   67.7585  226.2417 H   0  0  0  0  0  0  0  0  0  0  0  0
  141.5905   70.9578  228.5273 H   0  0  0  0  0  0  0  0  0  0  0  0
  141.2275   72.4888  226.5949 H   0  0  0  0  0  0  0  0  0  0  0  0
  1  2  1  0
  2  3  2  0
  2  4  1  0
  4  5  1  0
  5  6  1  0
  6  7  2  0
  6  8  1  0
  8  9  1  0
  9 10  1  0
 10 11  2  0
 10 12  1  0
 12 13  2  0
 13 14  1  0
 14 15  2  0
 15 16  1  0
 16 17  2  0
 17 18  1  0
 17 19  1  0
 19 20  2  0
 20 21  1  0
 21 22  2  0
 22 12  1  0
 21 15  1  0
  1 23  1  0
  1 24  1  0
  4 25  1  0
  4 26  1  0
  5 27  1  0
  8 28  1  0
  8 29  1  0
  9 30  1  0
 13 31  1  0
 14 32  1  0
 16 33  1  0
 19 34  1  0
 20 35  1  0
M  END
>  <smiles>  (9) 
NC(=O)CNC(=O)CNC(=O)c1ccc2cc(Cl)ccc2n1

>  <score_type>  (9) 
oracle

>  <origin>  (9) 
autodockgpu

>  <m_score__min__energy>  (9) 
-7.2699999999999996

>  <m_primary>  (9) 
energy

>  <rmsd>  (9) 
2.0087576207323097

>  <m_score__min__rmsd>  (9) 
2.0087576207323097

>  <meeko>  (9) 
{"free_energy": -5.66, "intermolecular_energy": -7.16, "internal_energy": -2.16, "cluster_size": 16, "cluster_id": 3, "rank_in_cluster": 14}

>  <energy>  (9) 
-6.6

>  <cluster_rmsd>  (9) 
1.43

>  <cluster>  (9) 
1

$$$$

     RDKit          3D

 35 36  0  0  0  0  0  0  0  0999 V2000
  143.4090   76.7170  219.7640 N   0  0  0  0  0  0  0  0  0  0  0  0
  143.7630   75.3440  219.8740 C   0  0  0  0  0  0  0  0  0  0  0  0
  144.8480   74.9770  220.4370 O   0  0  0  0  0  0  0  0  0  0  0  0
  142.8160   74.3540  219.3050 C   0  0  0  0  0  0  0  0  0  0  0  0
  141.7080   74.0910  220.2040 N   0  0  0  0  0  0  0  0  0  0  0  0
  140.5990   74.9720  220.1960 C   0  0  0  0  0  0  0  0  0  0  0  0
  140.6480   75.9620  219.3880 O   0  0  0  0  0  0  0  0  0  0  0  0
  139.4040   74.8510  221.0310 C   0  0  0  0  0  0  0  0  0  0  0  0
  139.4570   73.8810  222.0780 N   0  0  0  0  0  0  0  0  0  0  0  0
  139.7330   72.4990  221.8300 C   0  0  0  0  0  0  0  0  0  0  0  0
  139.9410   72.0560  220.6560 O   0  0  0  0  0  0  0  0  0  0  0  0
  139.7800   71.5550  222.9560 C   0  0  0  0  0  0  0  0  0  0  0  0
  139.2230   70.3000  222.8330 C   0  0  0  0  0  0  0  0  0  0  0  0
  139.2560   69.3880  223.8890 C   0  0  0  0  0  0  0  0  0  0  0  0
  139.8560   69.7580  225.0640 C   0  0  0  0  0  0  0  0  0  0  0  0
  139.9490   68.9450  226.1730 C   0  0  0  0  0  0  0  0  0  0  0  0
  140.5730   69.3920  227.3320 C   0  0  0  0  0  0  0  0  0  0  0  0
  140.6740   68.3260  228.7280 Cl  0  0  0  0  0  0  0  0  0  0  0  0
  141.1190   70.6610  227.4120 C   0  0  0  0  0  0  0  0  0  0  0  0
  141.0250   71.4740  226.3000 C   0  0  0  0  0  0  0  0  0  0  0  0
  140.4050   71.0290  225.1500 C   0  0  0  0  0  0  0  0  0  0  0  0
  140.3650   71.9010  224.1180 N   0  0  0  0  0  0  0  0  0  0  0  0
  144.1590   77.4220  219.5140 H   0  0  0  0  0  0  0  0  0  0  0  0
  142.4280   77.0530  219.9220 H   0  0  0  0  0  0  0  0  0  0  0  0
  142.4198   74.7446  218.3561 H   0  0  0  0  0  0  0  0  0  0  0  0
  143.3602   73.4111  219.1475 H   0  0  0  0  0  0  0  0  0  0  0  0
  141.7260   73.2750  220.8510 H   0  0  0  0  0  0  0  0  0  0  0  0
  139.2174   75.8319  221.4925 H   0  0  0  0  0  0  0  0  0  0  0  0
  138.6079   74.5075  220.3541 H   0  0  0  0  0  0  0  0  0  0  0  0
  139.2950   74.1310  223.1000 H   0  0  0  0  0  0  0  0  0  0  0  0
  138.7439   70.0122  221.8855 H   0  0  0  0  0  0  0  0  0  0  0  0
  138.8080   68.3893  223.7799 H   0  0  0  0  0  0  0  0  0  0  0  0
  139.5246   67.9307  226.1406 H   0  0  0  0  0  0  0  0  0  0  0  0
  141.6117   71.0105  228.3313 H   0  0  0  0  0  0  0  0  0  0  0  0
  141.4493   72.4884  226.3310 H   0  0  0  0  0  0  0  0  0  0  0  0
  1  2  1  0
  2  3  2  0
  2  4  1  0
  4  5  1  0
  5  6  1  0
  6  7  2  0
  6  8  1  0
  8  9  1  0
  9 10  1  0
 10 11  2  0
 10 12  1  0
 12 13  2  0
 13 14  1  0
 14 15  2  0
 15 16  1  0
 16 17  2  0
 17 18  1  0
 17 19  1  0
 19 20  2  0
 20 21  1  0
 21 22  2  0
 22 12  1  0
 21 15  1  0
  1 23  1  0
  1 24  1  0
  4 25  1  0
  4 26  1  0
  5 27  1  0
  8 28  1  0
  8 29  1  0
  9 30  1  0
 13 31  1  0
 14 32  1  0
 16 33  1  0
 19 34  1  0
 20 35  1  0
M  END
>  <smiles>  (10) 
NC(=O)CNC(=O)CNC(=O)c1ccc2cc(Cl)ccc2n1

>  <score_type>  (10) 
oracle

>  <origin>  (10) 
autodockgpu

>  <m_score__min__energy>  (10) 
-7.2699999999999996

>  <m_primary>  (10) 
energy

>  <rmsd>  (10) 
2.0993643101185473

>  <m_score__min__rmsd>  (10) 
2.0993643101185473

>  <meeko>  (10) 
{"free_energy": -6.09, "intermolecular_energy": -7.59, "internal_energy": -2.27, "cluster_size": 16, "cluster_id": 3, "rank_in_cluster": 8}

>  <energy>  (10) 
-6.55

>  <cluster_rmsd>  (10) 
1.43

>  <cluster>  (10) 
1

$$$$

     RDKit          3D

 35 36  0  0  0  0  0  0  0  0999 V2000
  136.5040   75.1880  222.8210 N   0  0  0  0  0  0  0  0  0  0  0  0
  136.9790   76.5270  222.8590 C   0  0  0  0  0  0  0  0  0  0  0  0
  136.2290   77.4920  223.2240 O   0  0  0  0  0  0  0  0  0  0  0  0
  138.3890   76.7570  222.4530 C   0  0  0  0  0  0  0  0  0  0  0  0
  139.1150   75.5110  222.3050 N   0  0  0  0  0  0  0  0  0  0  0  0
  139.8450   75.2820  221.1130 C   0  0  0  0  0  0  0  0  0  0  0  0
  139.8110   76.2030  220.2260 O   0  0  0  0  0  0  0  0  0  0  0  0
  140.6310   74.0880  220.8050 C   0  0  0  0  0  0  0  0  0  0  0  0
  140.7350   73.1120  221.8430 N   0  0  0  0  0  0  0  0  0  0  0  0
  139.5870   72.5660  222.4990 C   0  0  0  0  0  0  0  0  0  0  0  0
  138.4050   72.9250  222.1970 O   0  0  0  0  0  0  0  0  0  0  0  0
  139.7660   71.5580  223.5550 C   0  0  0  0  0  0  0  0  0  0  0  0
  139.4000   70.2470  223.3320 C   0  0  0  0  0  0  0  0  0  0  0  0
  139.5610   69.2750  224.3210 C   0  0  0  0  0  0  0  0  0  0  0  0
  140.0940   69.6410  225.5290 C   0  0  0  0  0  0  0  0  0  0  0  0
  140.2990   68.7700  226.5780 C   0  0  0  0  0  0  0  0  0  0  0  0
  140.8450   69.2170  227.7760 C   0  0  0  0  0  0  0  0  0  0  0  0
  141.0930   68.0770  229.0930 Cl  0  0  0  0  0  0  0  0  0  0  0  0
  141.1990   70.5430  227.9560 C   0  0  0  0  0  0  0  0  0  0  0  0
  140.9920   71.4140  226.9040 C   0  0  0  0  0  0  0  0  0  0  0  0
  140.4500   70.9690  225.7150 C   0  0  0  0  0  0  0  0  0  0  0  0
  140.2880   71.8990  224.7480 N   0  0  0  0  0  0  0  0  0  0  0  0
  135.5300   75.0000  222.4510 H   0  0  0  0  0  0  0  0  0  0  0  0
  137.0890   74.3810  223.1470 H   0  0  0  0  0  0  0  0  0  0  0  0
  138.4004   77.2924  221.4922 H   0  0  0  0  0  0  0  0  0  0  0  0
  138.8801   77.3483  223.2399 H   0  0  0  0  0  0  0  0  0  0  0  0
  139.0990   74.7890  223.0560 H   0  0  0  0  0  0  0  0  0  0  0  0
  140.1719   73.6009  219.9321 H   0  0  0  0  0  0  0  0  0  0  0  0
  141.6569   74.4480  220.6379 H   0  0  0  0  0  0  0  0  0  0  0  0
  141.6700   72.7380  222.1850 H   0  0  0  0  0  0  0  0  0  0  0  0
  138.9741   69.9626  222.3585 H   0  0  0  0  0  0  0  0  0  0  0  0
  139.2648   68.2323  224.1335 H   0  0  0  0  0  0  0  0  0  0  0  0
  140.0276   67.7099  226.4659 H   0  0  0  0  0  0  0  0  0  0  0  0
  141.6310   70.8917  228.9056 H   0  0  0  0  0  0  0  0  0  0  0  0
  141.2622   72.4745  227.0151 H   0  0  0  0  0  0  0  0  0  0  0  0
  1  2  1  0
  2  3  2  0
  2  4  1  0
  4  5  1  0
  5  6  1  0
  6  7  2  0
  6  8  1  0
  8  9  1  0
  9 10  1  0
 10 11  2  0
 10 12  1  0
 12 13  2  0
 13 14  1  0
 14 15  2  0
 15 16  1  0
 16 17  2  0
 17 18  1  0
 17 19  1  0
 19 20  2  0
 20 21  1  0
 21 22  2  0
 22 12  1  0
 21 15  1  0
  1 23  1  0
  1 24  1  0
  4 25  1  0
  4 26  1  0
  5 27  1  0
  8 28  1  0
  8 29  1  0
  9 30  1  0
 13 31  1  0
 14 32  1  0
 16 33  1  0
 19 34  1  0
 20 35  1  0
M  END
>  <smiles>  (11) 
NC(=O)CNC(=O)CNC(=O)c1ccc2cc(Cl)ccc2n1

>  <score_type>  (11) 
oracle

>  <origin>  (11) 
autodockgpu

>  <m_score__min__energy>  (11) 
-7.2699999999999996

>  <m_primary>  (11) 
energy

>  <rmsd>  (11) 
2.687204324620463

>  <m_score__min__rmsd>  (11) 
2.687204324620463

>  <meeko>  (11) 
{"free_energy": -5.9, "intermolecular_energy": -7.39, "internal_energy": -2.2, "cluster_size": 21, "cluster_id": 1, "rank_in_cluster": 19}

>  <energy>  (11) 
-6.55

>  <cluster_rmsd>  (11) 
1.38

>  <cluster>  (11) 
1

$$$$

     RDKit          3D

 35 36  0  0  0  0  0  0  0  0999 V2000
  144.2900   72.4000  220.7550 N   0  0  0  0  0  0  0  0  0  0  0  0
  144.7470   73.5870  220.1210 C   0  0  0  0  0  0  0  0  0  0  0  0
  145.8960   73.6490  219.5680 O   0  0  0  0  0  0  0  0  0  0  0  0
  143.8310   74.7540  220.1290 C   0  0  0  0  0  0  0  0  0  0  0  0
  142.5540   74.4310  220.7360 N   0  0  0  0  0  0  0  0  0  0  0  0
  141.3910   75.0970  220.2770 C   0  0  0  0  0  0  0  0  0  0  0  0
  141.5450   75.9590  219.3460 O   0  0  0  0  0  0  0  0  0  0  0  0
  140.0320   74.8890  220.7750 C   0  0  0  0  0  0  0  0  0  0  0  0
  139.8820   73.9430  221.8350 N   0  0  0  0  0  0  0  0  0  0  0  0
  140.4560   72.6340  221.7810 C   0  0  0  0  0  0  0  0  0  0  0  0
  141.1280   72.2350  220.7780 O   0  0  0  0  0  0  0  0  0  0  0  0
  140.2690   71.7130  222.9130 C   0  0  0  0  0  0  0  0  0  0  0  0
  139.5450   70.5510  222.7500 C   0  0  0  0  0  0  0  0  0  0  0  0
  139.3550   69.6630  223.8100 C   0  0  0  0  0  0  0  0  0  0  0  0
  139.9050   69.9630  225.0300 C   0  0  0  0  0  0  0  0  0  0  0  0
  139.7840   69.1640  226.1480 C   0  0  0  0  0  0  0  0  0  0  0  0
  140.3700   69.5360  227.3530 C   0  0  0  0  0  0  0  0  0  0  0  0
  140.1970   68.4920  228.7580 Cl  0  0  0  0  0  0  0  0  0  0  0  0
  141.0900   70.7120  227.4710 C   0  0  0  0  0  0  0  0  0  0  0  0
  141.2090   71.5100  226.3510 C   0  0  0  0  0  0  0  0  0  0  0  0
  140.6270   71.1410  225.1550 C   0  0  0  0  0  0  0  0  0  0  0  0
  140.8010   71.9900  224.1180 N   0  0  0  0  0  0  0  0  0  0  0  0
  144.9670   71.8420  221.3490 H   0  0  0  0  0  0  0  0  0  0  0  0
  143.3030   72.0590  220.6540 H   0  0  0  0  0  0  0  0  0  0  0  0
  144.2994   75.5707  220.6979 H   0  0  0  0  0  0  0  0  0  0  0  0
  143.6485   75.0531  219.0863 H   0  0  0  0  0  0  0  0  0  0  0  0
  142.4870   73.7280  221.5020 H   0  0  0  0  0  0  0  0  0  0  0  0
  139.6556   75.8578  221.1352 H   0  0  0  0  0  0  0  0  0  0  0  0
  139.4710   74.4692  219.9270 H   0  0  0  0  0  0  0  0  0  0  0  0
  139.3370   74.1600  222.7240 H   0  0  0  0  0  0  0  0  0  0  0  0
  139.1093   70.3196  221.7669 H   0  0  0  0  0  0  0  0  0  0  0  0
  138.7746   68.7392  223.6694 H   0  0  0  0  0  0  0  0  0  0  0  0
  139.2181   68.2228  226.0857 H   0  0  0  0  0  0  0  0  0  0  0  0
  141.5524   71.0014  228.4262 H   0  0  0  0  0  0  0  0  0  0  0  0
  141.7745   72.4515  226.4123 H   0  0  0  0  0  0  0  0  0  0  0  0
  1  2  1  0
  2  3  2  0
  2  4  1  0
  4  5  1  0
  5  6  1  0
  6  7  2  0
  6  8  1  0
  8  9  1  0
  9 10  1  0
 10 11  2  0
 10 12  1  0
 12 13  2  0
 13 14  1  0
 14 15  2  0
 15 16  1  0
 16 17  2  0
 17 18  1  0
 17 19  1  0
 19 20  2  0
 20 21  1  0
 21 22  2  0
 22 12  1  0
 21 15  1  0
  1 23  1  0
  1 24  1  0
  4 25  1  0
  4 26  1  0
  5 27  1  0
  8 28  1  0
  8 29  1  0
  9 30  1  0
 13 31  1  0
 14 32  1  0
 16 33  1  0
 19 34  1  0
 20 35  1  0
M  END
>  <smiles>  (12) 
NC(=O)CNC(=O)CNC(=O)c1ccc2cc(Cl)ccc2n1

>  <score_type>  (12) 
oracle

>  <origin>  (12) 
autodockgpu

>  <m_score__min__energy>  (12) 
-7.2699999999999996

>  <m_primary>  (12) 
energy

>  <rmsd>  (12) 
3.044035880924205

>  <m_score__min__rmsd>  (12) 
3.044035880924205

>  <meeko>  (12) 
{"free_energy": -6.25, "intermolecular_energy": -7.75, "internal_energy": -2.17, "cluster_size": 16, "cluster_id": 3, "rank_in_cluster": 2}

>  <energy>  (12) 
-6.45

>  <cluster_rmsd>  (12) 
1.45

>  <cluster>  (12) 
1

$$$$

     RDKit          3D

 35 36  0  0  0  0  0  0  0  0999 V2000
  142.9610   79.2500  222.3480 N   0  0  0  0  0  0  0  0  0  0  0  0
  141.7570   79.0010  223.0610 C   0  0  0  0  0  0  0  0  0  0  0  0
  141.6840   79.1580  224.3250 O   0  0  0  0  0  0  0  0  0  0  0  0
  140.5840   78.5480  222.2710 C   0  0  0  0  0  0  0  0  0  0  0  0
  140.7600   77.1960  221.7750 N   0  0  0  0  0  0  0  0  0  0  0  0
  139.6380   76.3320  221.7370 C   0  0  0  0  0  0  0  0  0  0  0  0
  138.5260   76.8040  222.1540 O   0  0  0  0  0  0  0  0  0  0  0  0
  139.6400   74.9480  221.2660 C   0  0  0  0  0  0  0  0  0  0  0  0
  139.6930   73.9350  222.2720 N   0  0  0  0  0  0  0  0  0  0  0  0
  139.9290   72.5580  221.9620 C   0  0  0  0  0  0  0  0  0  0  0  0
  140.0990   72.1570  220.7670 O   0  0  0  0  0  0  0  0  0  0  0  0
  139.9790   71.5680  223.0480 C   0  0  0  0  0  0  0  0  0  0  0  0
  139.5330   70.2820  222.8360 C   0  0  0  0  0  0  0  0  0  0  0  0
  139.5710   69.3260  223.8530 C   0  0  0  0  0  0  0  0  0  0  0  0
  140.0640   69.6860  225.0800 C   0  0  0  0  0  0  0  0  0  0  0  0
  140.1500   68.8310  226.1580 C   0  0  0  0  0  0  0  0  0  0  0  0
  140.6620   69.2700  227.3740 C   0  0  0  0  0  0  0  0  0  0  0  0
  140.7580   68.1500  228.7280 Cl  0  0  0  0  0  0  0  0  0  0  0  0
  141.1000   70.5720  227.5440 C   0  0  0  0  0  0  0  0  0  0  0  0
  141.0120   71.4270  226.4630 C   0  0  0  0  0  0  0  0  0  0  0  0
  140.5030   70.9900  225.2560 C   0  0  0  0  0  0  0  0  0  0  0  0
  140.4600   71.9030  224.2610 N   0  0  0  0  0  0  0  0  0  0  0  0
  143.8810   78.9340  222.7680 H   0  0  0  0  0  0  0  0  0  0  0  0
  142.9670   79.7370  221.4190 H   0  0  0  0  0  0  0  0  0  0  0  0
  139.6898   78.5792  222.9109 H   0  0  0  0  0  0  0  0  0  0  0  0
  140.4738   79.2186  221.4060 H   0  0  0  0  0  0  0  0  0  0  0  0
  141.6930   76.8590  221.4590 H   0  0  0  0  0  0  0  0  0  0  0  0
  138.7211   74.7919  220.6819 H   0  0  0  0  0  0  0  0  0  0  0  0
  140.5703   74.8367  220.6898 H   0  0  0  0  0  0  0  0  0  0  0  0
  139.5610   74.1470  223.3060 H   0  0  0  0  0  0  0  0  0  0  0  0
  139.1397   70.0031  221.8473 H   0  0  0  0  0  0  0  0  0  0  0  0
  139.2116   68.3021  223.6725 H   0  0  0  0  0  0  0  0  0  0  0  0
  139.8098   67.7900  226.0551 H   0  0  0  0  0  0  0  0  0  0  0  0
  141.5047   70.9143  228.5079 H   0  0  0  0  0  0  0  0  0  0  0  0
  141.3513   72.4684  226.5647 H   0  0  0  0  0  0  0  0  0  0  0  0
  1  2  1  0
  2  3  2  0
  2  4  1  0
  4  5  1  0
  5  6  1  0
  6  7  2  0
  6  8  1  0
  8  9  1  0
  9 10  1  0
 10 11  2  0
 10 12  1  0
 12 13  2  0
 13 14  1  0
 14 15  2  0
 15 16  1  0
 16 17  2  0
 17 18  1  0
 17 19  1  0
 19 20  2  0
 20 21  1  0
 21 22  2  0
 22 12  1  0
 21 15  1  0
  1 23  1  0
  1 24  1  0
  4 25  1  0
  4 26  1  0
  5 27  1  0
  8 28  1  0
  8 29  1  0
  9 30  1  0
 13 31  1  0
 14 32  1  0
 16 33  1  0
 19 34  1  0
 20 35  1  0
M  END
>  <smiles>  (13) 
NC(=O)CNC(=O)CNC(=O)c1ccc2cc(Cl)ccc2n1

>  <score_type>  (13) 
oracle

>  <origin>  (13) 
autodockgpu

>  <m_score__min__energy>  (13) 
-7.2699999999999996

>  <m_primary>  (13) 
energy

>  <rmsd>  (13) 
1.971721661332314

>  <m_score__min__rmsd>  (13) 
1.971721661332314

>  <meeko>  (13) 
{"free_energy": -7.27, "intermolecular_energy": -8.76, "internal_energy": -0.99, "cluster_size": 21, "cluster_id": 1, "rank_in_cluster": 1}

>  <energy>  (13) 
-6.42

>  <cluster_rmsd>  (13) 
1.11

>  <cluster>  (13) 
1

$$$$

     RDKit          3D

 35 36  0  0  0  0  0  0  0  0999 V2000
  136.1970   74.6560  222.8940 N   0  0  0  0  0  0  0  0  0  0  0  0
  136.4370   76.0570  222.8360 C   0  0  0  0  0  0  0  0  0  0  0  0
  135.5790   76.9000  223.2620 O   0  0  0  0  0  0  0  0  0  0  0  0
  137.7300   76.4980  222.2570 C   0  0  0  0  0  0  0  0  0  0  0  0
  138.7060   75.4250  222.2400 N   0  0  0  0  0  0  0  0  0  0  0  0
  139.6020   75.3340  221.1480 C   0  0  0  0  0  0  0  0  0  0  0  0
  139.4880   76.2140  220.2270 O   0  0  0  0  0  0  0  0  0  0  0  0
  140.6440   74.3220  220.9760 C   0  0  0  0  0  0  0  0  0  0  0  0
  140.7440   73.3340  222.0040 N   0  0  0  0  0  0  0  0  0  0  0  0
  139.6060   72.6160  222.4900 C   0  0  0  0  0  0  0  0  0  0  0  0
  138.4360   72.8220  222.0360 O   0  0  0  0  0  0  0  0  0  0  0  0
  139.7820   71.6060  223.5450 C   0  0  0  0  0  0  0  0  0  0  0  0
  139.4180   70.2960  223.3190 C   0  0  0  0  0  0  0  0  0  0  0  0
  139.5760   69.3220  224.3070 C   0  0  0  0  0  0  0  0  0  0  0  0
  140.1030   69.6870  225.5180 C   0  0  0  0  0  0  0  0  0  0  0  0
  140.3050   68.8150  226.5670 C   0  0  0  0  0  0  0  0  0  0  0  0
  140.8450   69.2600  227.7670 C   0  0  0  0  0  0  0  0  0  0  0  0
  141.0890   68.1190  229.0830 Cl  0  0  0  0  0  0  0  0  0  0  0  0
  141.1970   70.5860  227.9510 C   0  0  0  0  0  0  0  0  0  0  0  0
  140.9930   71.4590  226.9000 C   0  0  0  0  0  0  0  0  0  0  0  0
  140.4570   71.0150  225.7070 C   0  0  0  0  0  0  0  0  0  0  0  0
  140.2980   71.9460  224.7410 N   0  0  0  0  0  0  0  0  0  0  0  0
  135.2330   74.2910  222.6500 H   0  0  0  0  0  0  0  0  0  0  0  0
  136.9450   73.9750  223.1700 H   0  0  0  0  0  0  0  0  0  0  0  0
  137.5599   76.8411  221.2258 H   0  0  0  0  0  0  0  0  0  0  0  0
  138.1260   77.3108  222.8836 H   0  0  0  0  0  0  0  0  0  0  0  0
  138.7470   74.7270  223.0120 H   0  0  0  0  0  0  0  0  0  0  0  0
  140.4506   73.7999  220.0273 H   0  0  0  0  0  0  0  0  0  0  0  0
  141.5955   74.8732  221.0058 H   0  0  0  0  0  0  0  0  0  0  0  0
  141.6680   73.0780  222.4640 H   0  0  0  0  0  0  0  0  0  0  0  0
  138.9958   70.0129  222.3435 H   0  0  0  0  0  0  0  0  0  0  0  0
  139.2823   68.2792  224.1163 H   0  0  0  0  0  0  0  0  0  0  0  0
  140.0354   67.7548  226.4522 H   0  0  0  0  0  0  0  0  0  0  0  0
  141.6252   70.9332  228.9029 H   0  0  0  0  0  0  0  0  0  0  0  0
  141.2605   72.5198  227.0145 H   0  0  0  0  0  0  0  0  0  0  0  0
  1  2  1  0
  2  3  2  0
  2  4  1  0
  4  5  1  0
  5  6  1  0
  6  7  2  0
  6  8  1  0
  8  9  1  0
  9 10  1  0
 10 11  2  0
 10 12  1  0
 12 13  2  0
 13 14  1  0
 14 15  2  0
 15 16  1  0
 16 17  2  0
 17 18  1  0
 17 19  1  0
 19 20  2  0
 20 21  1  0
 21 22  2  0
 22 12  1  0
 21 15  1  0
  1 23  1  0
  1 24  1  0
  4 25  1  0
  4 26  1  0
  5 27  1  0
  8 28  1  0
  8 29  1  0
  9 30  1  0
 13 31  1  0
 14 32  1  0
 16 33  1  0
 19 34  1  0
 20 35  1  0
M  END
>  <smiles>  (14) 
NC(=O)CNC(=O)CNC(=O)c1ccc2cc(Cl)ccc2n1

>  <score_type>  (14) 
oracle

>  <origin>  (14) 
autodockgpu

>  <m_score__min__energy>  (14) 
-7.2699999999999996

>  <m_primary>  (14) 
energy

>  <rmsd>  (14) 
2.898141280348017

>  <m_score__min__rmsd>  (14) 
2.898141280348017

>  <meeko>  (14) 
{"free_energy": -5.88, "intermolecular_energy": -7.37, "internal_energy": -2.17, "cluster_size": 21, "cluster_id": 1, "rank_in_cluster": 20}

>  <energy>  (14) 
-6.41

>  <cluster_rmsd>  (14) 
1.91

>  <cluster>  (14) 
1

$$$$

     RDKit          3D

 35 36  0  0  0  0  0  0  0  0999 V2000
  143.7120   76.7240  219.7770 N   0  0  0  0  0  0  0  0  0  0  0  0
  143.6590   75.3030  219.7820 C   0  0  0  0  0  0  0  0  0  0  0  0
  144.4860   74.6050  220.4580 O   0  0  0  0  0  0  0  0  0  0  0  0
  142.5980   74.6630  218.9640 C   0  0  0  0  0  0  0  0  0  0  0  0
  141.4590   74.2710  219.7720 N   0  0  0  0  0  0  0  0  0  0  0  0
  140.6080   75.2790  220.2880 C   0  0  0  0  0  0  0  0  0  0  0  0
  140.9060   76.4900  220.0080 O   0  0  0  0  0  0  0  0  0  0  0  0
  139.4210   75.0580  221.1130 C   0  0  0  0  0  0  0  0  0  0  0  0
  139.5400   74.0760  222.1440 N   0  0  0  0  0  0  0  0  0  0  0  0
  139.6710   72.6800  221.8620 C   0  0  0  0  0  0  0  0  0  0  0  0
  139.6830   72.2320  220.6720 O   0  0  0  0  0  0  0  0  0  0  0  0
  139.7960   71.7240  222.9730 C   0  0  0  0  0  0  0  0  0  0  0  0
  139.4120   70.4110  222.8050 C   0  0  0  0  0  0  0  0  0  0  0  0
  139.5210   69.4870  223.8460 C   0  0  0  0  0  0  0  0  0  0  0  0
  140.0220   69.9050  225.0510 C   0  0  0  0  0  0  0  0  0  0  0  0
  140.1760   69.0860  226.1490 C   0  0  0  0  0  0  0  0  0  0  0  0
  140.6920   69.5830  227.3410 C   0  0  0  0  0  0  0  0  0  0  0  0
  140.8760   68.5080  228.7210 Cl  0  0  0  0  0  0  0  0  0  0  0  0
  141.0660   70.9100  227.4650 C   0  0  0  0  0  0  0  0  0  0  0  0
  140.9100   71.7300  226.3640 C   0  0  0  0  0  0  0  0  0  0  0  0
  140.3980   71.2340  225.1820 C   0  0  0  0  0  0  0  0  0  0  0  0
  140.2850   72.1160  224.1640 N   0  0  0  0  0  0  0  0  0  0  0  0
  144.6560   77.2010  219.7280 H   0  0  0  0  0  0  0  0  0  0  0  0
  142.8460   77.3130  219.8200 H   0  0  0  0  0  0  0  0  0  0  0  0
  142.2618   75.3753  218.1962 H   0  0  0  0  0  0  0  0  0  0  0  0
  143.0198   73.7569  218.5045 H   0  0  0  0  0  0  0  0  0  0  0  0
  141.2700   73.2680  219.9790 H   0  0  0  0  0  0  0  0  0  0  0  0
  139.1616   76.0147  221.5899 H   0  0  0  0  0  0  0  0  0  0  0  0
  138.6546   74.6701  220.4259 H   0  0  0  0  0  0  0  0  0  0  0  0
  139.5370   74.3290  223.1780 H   0  0  0  0  0  0  0  0  0  0  0  0
  139.0125   70.0852  221.8333 H   0  0  0  0  0  0  0  0  0  0  0  0
  139.2101   68.4418  223.7014 H   0  0  0  0  0  0  0  0  0  0  0  0
  139.8873   68.0267  226.0816 H   0  0  0  0  0  0  0  0  0  0  0  0
  141.4742   71.2990  228.4095 H   0  0  0  0  0  0  0  0  0  0  0  0
  141.1970   72.7898  226.4301 H   0  0  0  0  0  0  0  0  0  0  0  0
  1  2  1  0
  2  3  2  0
  2  4  1  0
  4  5  1  0
  5  6  1  0
  6  7  2  0
  6  8  1  0
  8  9  1  0
  9 10  1  0
 10 11  2  0
 10 12  1  0
 12 13  2  0
 13 14  1  0
 14 15  2  0
 15 16  1  0
 16 17  2  0
 17 18  1  0
 17 19  1  0
 19 20  2  0
 20 21  1  0
 21 22  2  0
 22 12  1  0
 21 15  1  0
  1 23  1  0
  1 24  1  0
  4 25  1  0
  4 26  1  0
  5 27  1  0
  8 28  1  0
  8 29  1  0
  9 30  1  0
 13 31  1  0
 14 32  1  0
 16 33  1  0
 19 34  1  0
 20 35  1  0
M  END
>  <smiles>  (15) 
NC(=O)CNC(=O)CNC(=O)c1ccc2cc(Cl)ccc2n1

>  <score_type>  (15) 
oracle

>  <origin>  (15) 
autodockgpu

>  <m_score__min__energy>  (15) 
-7.2699999999999996

>  <m_primary>  (15) 
energy

>  <rmsd>  (15) 
2.1239395265253487

>  <m_score__min__rmsd>  (15) 
2.1239395265253487

>  <meeko>  (15) 
{"free_energy": -6.12, "intermolecular_energy": -7.61, "internal_energy": -2.43, "cluster_size": 16, "cluster_id": 3, "rank_in_cluster": 6}

>  <energy>  (15) 
-6.39

>  <cluster_rmsd>  (15) 
1.03

>  <cluster>  (15) 
1

$$$$

     RDKit          3D

 35 36  0  0  0  0  0  0  0  0999 V2000
  142.4160   79.0260  222.0810 N   0  0  0  0  0  0  0  0  0  0  0  0
  141.1080   79.1280  222.6300 C   0  0  0  0  0  0  0  0  0  0  0  0
  140.9200   79.4450  223.8520 O   0  0  0  0  0  0  0  0  0  0  0  0
  139.9690   78.8490  221.7210 C   0  0  0  0  0  0  0  0  0  0  0  0
  140.0770   77.5390  221.1090 N   0  0  0  0  0  0  0  0  0  0  0  0
  139.5110   76.4250  221.7760 C   0  0  0  0  0  0  0  0  0  0  0  0
  138.9350   76.6490  222.8950 O   0  0  0  0  0  0  0  0  0  0  0  0
  139.5280   75.0420  221.3000 C   0  0  0  0  0  0  0  0  0  0  0  0
  139.6080   74.0270  222.3020 N   0  0  0  0  0  0  0  0  0  0  0  0
  139.7910   72.6450  221.9800 C   0  0  0  0  0  0  0  0  0  0  0  0
  139.8870   72.2420  220.7770 O   0  0  0  0  0  0  0  0  0  0  0  0
  139.8730   71.6530  223.0620 C   0  0  0  0  0  0  0  0  0  0  0  0
  139.4540   70.3570  222.8480 C   0  0  0  0  0  0  0  0  0  0  0  0
  139.5220   69.3990  223.8610 C   0  0  0  0  0  0  0  0  0  0  0  0
  140.0160   69.7660  225.0860 C   0  0  0  0  0  0  0  0  0  0  0  0
  140.1300   68.9090  226.1600 C   0  0  0  0  0  0  0  0  0  0  0  0
  140.6410   69.3550  227.3740 C   0  0  0  0  0  0  0  0  0  0  0  0
  140.7740   68.2330  228.7230 Cl  0  0  0  0  0  0  0  0  0  0  0  0
  141.0500   70.6660  227.5450 C   0  0  0  0  0  0  0  0  0  0  0  0
  140.9340   71.5230  226.4680 C   0  0  0  0  0  0  0  0  0  0  0  0
  140.4270   71.0790  225.2630 C   0  0  0  0  0  0  0  0  0  0  0  0
  140.3540   71.9940  224.2720 N   0  0  0  0  0  0  0  0  0  0  0  0
  143.1800   78.5710  222.6560 H   0  0  0  0  0  0  0  0  0  0  0  0
  142.6470   79.3880  221.1240 H   0  0  0  0  0  0  0  0  0  0  0  0
  139.0334   78.8966  222.2975 H   0  0  0  0  0  0  0  0  0  0  0  0
  139.9784   79.6026  220.9197 H   0  0  0  0  0  0  0  0  0  0  0  0
  140.5690   77.4110  220.2000 H   0  0  0  0  0  0  0  0  0  0  0  0
  138.6046   74.8740  220.7263 H   0  0  0  0  0  0  0  0  0  0  0  0
  140.4529   74.9463  220.7122 H   0  0  0  0  0  0  0  0  0  0  0  0
  139.5360   74.2420  223.3420 H   0  0  0  0  0  0  0  0  0  0  0  0
  139.0591   70.0729  221.8614 H   0  0  0  0  0  0  0  0  0  0  0  0
  139.1851   68.3677  223.6795 H   0  0  0  0  0  0  0  0  0  0  0  0
  139.8132   67.8608  226.0554 H   0  0  0  0  0  0  0  0  0  0  0  0
  141.4542   71.0141  228.5070 H   0  0  0  0  0  0  0  0  0  0  0  0
  141.2493   72.5717  226.5716 H   0  0  0  0  0  0  0  0  0  0  0  0
  1  2  1  0
  2  3  2  0
  2  4  1  0
  4  5  1  0
  5  6  1  0
  6  7  2  0
  6  8  1  0
  8  9  1  0
  9 10  1  0
 10 11  2  0
 10 12  1  0
 12 13  2  0
 13 14  1  0
 14 15  2  0
 15 16  1  0
 16 17  2  0
 17 18  1  0
 17 19  1  0
 19 20  2  0
 20 21  1  0
 21 22  2  0
 22 12  1  0
 21 15  1  0
  1 23  1  0
  1 24  1  0
  4 25  1  0
  4 26  1  0
  5 27  1  0
  8 28  1  0
  8 29  1  0
  9 30  1  0
 13 31  1  0
 14 32  1  0
 16 33  1  0
 19 34  1  0
 20 35  1  0
M  END
>  <smiles>  (16) 
NC(=O)CNC(=O)CNC(=O)c1ccc2cc(Cl)ccc2n1

>  <score_type>  (16) 
oracle

>  <origin>  (16) 
autodockgpu

>  <m_score__min__energy>  (16) 
-7.2699999999999996

>  <m_primary>  (16) 
energy

>  <rmsd>  (16) 
1.862245901075095

>  <m_score__min__rmsd>  (16) 
1.862245901075095

>  <meeko>  (16) 
{"free_energy": -6.75, "intermolecular_energy": -8.24, "internal_energy": -1.29, "cluster_size": 21, "cluster_id": 1, "rank_in_cluster": 5}

>  <energy>  (16) 
-6.34

>  <cluster_rmsd>  (16) 
1.41

>  <cluster>  (16) 
1

$$$$

     RDKit          3D

 35 36  0  0  0  0  0  0  0  0999 V2000
  142.9490   72.9150  219.3730 N   0  0  0  0  0  0  0  0  0  0  0  0
  143.9750   73.9000  219.4010 C   0  0  0  0  0  0  0  0  0  0  0  0
  145.1790   73.6210  219.0860 O   0  0  0  0  0  0  0  0  0  0  0  0
  143.5840   75.2710  219.8160 C   0  0  0  0  0  0  0  0  0  0  0  0
  142.4510   75.2570  220.7210 N   0  0  0  0  0  0  0  0  0  0  0  0
  141.1460   75.1530  220.1800 C   0  0  0  0  0  0  0  0  0  0  0  0
  141.0490   75.0820  218.9070 O   0  0  0  0  0  0  0  0  0  0  0  0
  139.9010   75.1210  220.9460 C   0  0  0  0  0  0  0  0  0  0  0  0
  139.8180   74.1390  221.9800 N   0  0  0  0  0  0  0  0  0  0  0  0
  140.3240   72.8110  221.8190 C   0  0  0  0  0  0  0  0  0  0  0  0
  140.8740   72.4270  220.7380 O   0  0  0  0  0  0  0  0  0  0  0  0
  140.2120   71.8520  222.9280 C   0  0  0  0  0  0  0  0  0  0  0  0
  139.6210   70.6230  222.7270 C   0  0  0  0  0  0  0  0  0  0  0  0
  139.5030   69.6980  223.7650 C   0  0  0  0  0  0  0  0  0  0  0  0
  139.9900   70.0290  225.0030 C   0  0  0  0  0  0  0  0  0  0  0  0
  139.9300   69.1990  226.1030 C   0  0  0  0  0  0  0  0  0  0  0  0
  140.4460   69.6060  227.3290 C   0  0  0  0  0  0  0  0  0  0  0  0
  140.3530   68.5200  228.7100 Cl  0  0  0  0  0  0  0  0  0  0  0  0
  141.0320   70.8490  227.4870 C   0  0  0  0  0  0  0  0  0  0  0  0
  141.0900   71.6790  226.3840 C   0  0  0  0  0  0  0  0  0  0  0  0
  140.5780   71.2750  225.1670 C   0  0  0  0  0  0  0  0  0  0  0  0
  140.6840   72.1590  224.1520 N   0  0  0  0  0  0  0  0  0  0  0  0
  143.1630   71.9430  219.7340 H   0  0  0  0  0  0  0  0  0  0  0  0
  141.9890   73.1220  219.0060 H   0  0  0  0  0  0  0  0  0  0  0  0
  144.4373   75.7471  220.3211 H   0  0  0  0  0  0  0  0  0  0  0  0
  143.2950   75.8317  218.9149 H   0  0  0  0  0  0  0  0  0  0  0  0
  142.5870   75.3290  221.7510 H   0  0  0  0  0  0  0  0  0  0  0  0
  139.7684   76.1090  221.4110 H   0  0  0  0  0  0  0  0  0  0  0  0
  139.1185   74.8505  220.2218 H   0  0  0  0  0  0  0  0  0  0  0  0
  139.3750   74.3400  222.9270 H   0  0  0  0  0  0  0  0  0  0  0  0
  139.2351   70.3666  221.7294 H   0  0  0  0  0  0  0  0  0  0  0  0
  139.0278   68.7209  223.5930 H   0  0  0  0  0  0  0  0  0  0  0  0
  139.4691   68.2046  226.0098 H   0  0  0  0  0  0  0  0  0  0  0  0
  141.4384   71.1662  228.4587 H   0  0  0  0  0  0  0  0  0  0  0  0
  141.5498   72.6740  226.4765 H   0  0  0  0  0  0  0  0  0  0  0  0
  1  2  1  0
  2  3  2  0
  2  4  1  0
  4  5  1  0
  5  6  1  0
  6  7  2  0
  6  8  1  0
  8  9  1  0
  9 10  1  0
 10 11  2  0
 10 12  1  0
 12 13  2  0
 13 14  1  0
 14 15  2  0
 15 16  1  0
 16 17  2  0
 17 18  1  0
 17 19  1  0
 19 20  2  0
 20 21  1  0
 21 22  2  0
 22 12  1  0
 21 15  1  0
  1 23  1  0
  1 24  1  0
  4 25  1  0
  4 26  1  0
  5 27  1  0
  8 28  1  0
  8 29  1  0
  9 30  1  0
 13 31  1  0
 14 32  1  0
 16 33  1  0
 19 34  1  0
 20 35  1  0
M  END
>  <smiles>  (17) 
NC(=O)CNC(=O)CNC(=O)c1ccc2cc(Cl)ccc2n1

>  <score_type>  (17) 
oracle

>  <origin>  (17) 
autodockgpu

>  <m_score__min__energy>  (17) 
-7.2699999999999996

>  <m_primary>  (17) 
energy

>  <rmsd>  (17) 
2.8825470505027675

>  <m_score__min__rmsd>  (17) 
2.8825470505027675

>  <meeko>  (17) 
{"free_energy": -5.99, "intermolecular_energy": -7.49, "internal_energy": -2.4, "cluster_size": 16, "cluster_id": 3, "rank_in_cluster": 13}

>  <energy>  (17) 
-6.31

>  <cluster_rmsd>  (17) 
1.94

>  <cluster>  (17) 
1

$$$$

     RDKit          3D

 35 36  0  0  0  0  0  0  0  0999 V2000
  143.8270   76.3850  219.6210 N   0  0  0  0  0  0  0  0  0  0  0  0
  142.8650   75.4360  220.0640 C   0  0  0  0  0  0  0  0  0  0  0  0
  143.1330   74.1900  220.1190 O   0  0  0  0  0  0  0  0  0  0  0  0
  141.5330   75.9570  220.4580 C   0  0  0  0  0  0  0  0  0  0  0  0
  140.5760   74.8870  220.6640 N   0  0  0  0  0  0  0  0  0  0  0  0
  139.2530   75.2170  221.0470 C   0  0  0  0  0  0  0  0  0  0  0  0
  138.9840   76.4590  221.1940 O   0  0  0  0  0  0  0  0  0  0  0  0
  138.1690   74.2670  221.2910 C   0  0  0  0  0  0  0  0  0  0  0  0
  138.3940   73.2970  222.3150 N   0  0  0  0  0  0  0  0  0  0  0  0
  139.4980   72.3870  222.2800 C   0  0  0  0  0  0  0  0  0  0  0  0
  140.3410   72.3890  221.3260 O   0  0  0  0  0  0  0  0  0  0  0  0
  139.6750   71.4180  223.3720 C   0  0  0  0  0  0  0  0  0  0  0  0
  139.3230   70.0980  223.1920 C   0  0  0  0  0  0  0  0  0  0  0  0
  139.4820   69.1620  224.2150 C   0  0  0  0  0  0  0  0  0  0  0  0
  139.9990   69.5750  225.4150 C   0  0  0  0  0  0  0  0  0  0  0  0
  140.2010   68.7430  226.4960 C   0  0  0  0  0  0  0  0  0  0  0  0
  140.7310   69.2360  227.6830 C   0  0  0  0  0  0  0  0  0  0  0  0
  140.9760   68.1450  229.0410 Cl  0  0  0  0  0  0  0  0  0  0  0  0
  141.0720   70.5700  227.8200 C   0  0  0  0  0  0  0  0  0  0  0  0
  140.8680   71.4020  226.7360 C   0  0  0  0  0  0  0  0  0  0  0  0
  140.3420   70.9110  225.5580 C   0  0  0  0  0  0  0  0  0  0  0  0
  140.1820   71.8050  224.5580 N   0  0  0  0  0  0  0  0  0  0  0  0
  144.4380   76.1460  218.7890 H   0  0  0  0  0  0  0  0  0  0  0  0
  143.9500   77.3140  220.0920 H   0  0  0  0  0  0  0  0  0  0  0  0
  141.6360   76.5275  221.3928 H   0  0  0  0  0  0  0  0  0  0  0  0
  141.1612   76.5964  219.6438 H   0  0  0  0  0  0  0  0  0  0  0  0
  140.8530   73.8900  220.5420 H   0  0  0  0  0  0  0  0  0  0  0  0
  137.2741   74.8439  221.5671 H   0  0  0  0  0  0  0  0  0  0  0  0
  138.0696   73.6910  220.3592 H   0  0  0  0  0  0  0  0  0  0  0  0
  137.7550   73.1960  223.1600 H   0  0  0  0  0  0  0  0  0  0  0  0
  138.9093   69.7762  222.2249 H   0  0  0  0  0  0  0  0  0  0  0  0
  139.1972   68.1108  224.0607 H   0  0  0  0  0  0  0  0  0  0  0  0
  139.9399   67.6773  226.4183 H   0  0  0  0  0  0  0  0  0  0  0  0
  141.4917   70.9554  228.7609 H   0  0  0  0  0  0  0  0  0  0  0  0
  141.1278   72.4681  226.8126 H   0  0  0  0  0  0  0  0  0  0  0  0
  1  2  1  0
  2  3  2  0
  2  4  1  0
  4  5  1  0
  5  6  1  0
  6  7  2  0
  6  8  1  0
  8  9  1  0
  9 10  1  0
 10 11  2  0
 10 12  1  0
 12 13  2  0
 13 14  1  0
 14 15  2  0
 15 16  1  0
 16 17  2  0
 17 18  1  0
 17 19  1  0
 19 20  2  0
 20 21  1  0
 21 22  2  0
 22 12  1  0
 21 15  1  0
  1 23  1  0
  1 24  1  0
  4 25  1  0
  4 26  1  0
  5 27  1  0
  8 28  1  0
  8 29  1  0
  9 30  1  0
 13 31  1  0
 14 32  1  0
 16 33  1  0
 19 34  1  0
 20 35  1  0
M  END
>  <smiles>  (18) 
NC(=O)CNC(=O)CNC(=O)c1ccc2cc(Cl)ccc2n1

>  <score_type>  (18) 
oracle

>  <origin>  (18) 
autodockgpu

>  <m_score__min__energy>  (18) 
-7.2699999999999996

>  <m_primary>  (18) 
energy

>  <rmsd>  (18) 
1.7808895543077192

>  <m_score__min__rmsd>  (18) 
1.7808895543077192

>  <meeko>  (18) 
{"free_energy": -6.41, "intermolecular_energy": -7.9, "internal_energy": -1.96, "cluster_size": 21, "cluster_id": 1, "rank_in_cluster": 14}

>  <energy>  (18) 
-6.3

>  <cluster_rmsd>  (18) 
1.96

>  <cluster>  (18) 
1

$$$$

     RDKit          3D

 35 36  0  0  0  0  0  0  0  0999 V2000
  141.3250   75.8600  221.6060 N   0  0  0  0  0  0  0  0  0  0  0  0
  140.6750   77.0520  222.0300 C   0  0  0  0  0  0  0  0  0  0  0  0
  141.3070   78.1540  222.1420 O   0  0  0  0  0  0  0  0  0  0  0  0
  139.2260   76.9590  222.3370 C   0  0  0  0  0  0  0  0  0  0  0  0
  138.7440   75.5930  222.2520 N   0  0  0  0  0  0  0  0  0  0  0  0
  138.6180   74.9920  220.9760 C   0  0  0  0  0  0  0  0  0  0  0  0
  138.9370   75.7050  219.9630 O   0  0  0  0  0  0  0  0  0  0  0  0
  138.1540   73.6300  220.7130 C   0  0  0  0  0  0  0  0  0  0  0  0
  138.3910   72.6690  221.7440 N   0  0  0  0  0  0  0  0  0  0  0  0
  139.6080   72.6350  222.4950 C   0  0  0  0  0  0  0  0  0  0  0  0
  140.5530   73.4600  222.2820 O   0  0  0  0  0  0  0  0  0  0  0  0
  139.7820   71.6230  223.5480 C   0  0  0  0  0  0  0  0  0  0  0  0
  139.4240   70.3130  223.3170 C   0  0  0  0  0  0  0  0  0  0  0  0
  139.5800   69.3360  224.3020 C   0  0  0  0  0  0  0  0  0  0  0  0
  140.1010   69.6990  225.5160 C   0  0  0  0  0  0  0  0  0  0  0  0
  140.3010   68.8250  226.5630 C   0  0  0  0  0  0  0  0  0  0  0  0
  140.8340   69.2690  227.7680 C   0  0  0  0  0  0  0  0  0  0  0  0
  141.0770   68.1240  229.0820 Cl  0  0  0  0  0  0  0  0  0  0  0  0
  141.1810   70.5950  227.9570 C   0  0  0  0  0  0  0  0  0  0  0  0
  140.9790   71.4700  226.9080 C   0  0  0  0  0  0  0  0  0  0  0  0
  140.4490   71.0280  225.7110 C   0  0  0  0  0  0  0  0  0  0  0  0
  140.2920   71.9610  224.7480 N   0  0  0  0  0  0  0  0  0  0  0  0
  142.2920   75.6430  221.9790 H   0  0  0  0  0  0  0  0  0  0  0  0
  140.8760   75.1890  220.9360 H   0  0  0  0  0  0  0  0  0  0  0  0
  139.0531   77.3349  223.3562 H   0  0  0  0  0  0  0  0  0  0  0  0
  138.6800   77.5611  221.5958 H   0  0  0  0  0  0  0  0  0  0  0  0
  138.4870   75.0620  223.1100 H   0  0  0  0  0  0  0  0  0  0  0  0
  137.0688   73.6737  220.5389 H   0  0  0  0  0  0  0  0  0  0  0  0
  138.7397   73.2829  219.8490 H   0  0  0  0  0  0  0  0  0  0  0  0
  137.6760   71.9260  222.0090 H   0  0  0  0  0  0  0  0  0  0  0  0
  139.0076   70.0316  222.3385 H   0  0  0  0  0  0  0  0  0  0  0  0
  139.2897   68.2931  224.1068 H   0  0  0  0  0  0  0  0  0  0  0  0
  140.0359   67.7641  226.4438 H   0  0  0  0  0  0  0  0  0  0  0  0
  141.6040   70.9409  228.9117 H   0  0  0  0  0  0  0  0  0  0  0  0
  141.2431   72.5312  227.0267 H   0  0  0  0  0  0  0  0  0  0  0  0
  1  2  1  0
  2  3  2  0
  2  4  1  0
  4  5  1  0
  5  6  1  0
  6  7  2  0
  6  8  1  0
  8  9  1  0
  9 10  1  0
 10 11  2  0
 10 12  1  0
 12 13  2  0
 13 14  1  0
 14 15  2  0
 15 16  1  0
 16 17  2  0
 17 18  1  0
 17 19  1  0
 19 20  2  0
 20 21  1  0
 21 22  2  0
 22 12  1  0
 21 15  1  0
  1 23  1  0
  1 24  1  0
  4 25  1  0
  4 26  1  0
  5 27  1  0
  8 28  1  0
  8 29  1  0
  9 30  1  0
 13 31  1  0
 14 32  1  0
 16 33  1  0
 19 34  1  0
 20 35  1  0
M  END
>  <smiles>  (19) 
NC(=O)CNC(=O)CNC(=O)c1ccc2cc(Cl)ccc2n1

>  <score_type>  (19) 
oracle

>  <origin>  (19) 
autodockgpu

>  <m_score__min__energy>  (19) 
-7.2699999999999996

>  <m_primary>  (19) 
energy

>  <rmsd>  (19) 
1.7745679357260098

>  <m_score__min__rmsd>  (19) 
1.7745679357260098

>  <meeko>  (19) 
{"free_energy": -6.66, "intermolecular_energy": -8.15, "internal_energy": -2.14, "cluster_size": 21, "cluster_id": 1, "rank_in_cluster": 6}

>  <energy>  (19) 
-5.9

>  <cluster_rmsd>  (19) 
1.79

>  <cluster>  (19) 
1

$$$$

     RDKit          3D

 35 36  0  0  0  0  0  0  0  0999 V2000
  139.5500   67.5310  226.6700 N   0  0  0  0  0  0  0  0  0  0  0  0
  140.7280   68.2730  226.3840 C   0  0  0  0  0  0  0  0  0  0  0  0
  141.8380   67.6940  226.1360 O   0  0  0  0  0  0  0  0  0  0  0  0
  140.6140   69.7530  226.3860 C   0  0  0  0  0  0  0  0  0  0  0  0
  140.2610   70.2670  225.0770 N   0  0  0  0  0  0  0  0  0  0  0  0
  138.9050   70.2270  224.6700 C   0  0  0  0  0  0  0  0  0  0  0  0
  138.0650   69.7270  225.4950 O   0  0  0  0  0  0  0  0  0  0  0  0
  138.3800   70.7040  223.3910 C   0  0  0  0  0  0  0  0  0  0  0  0
  138.8660   71.9680  222.9370 N   0  0  0  0  0  0  0  0  0  0  0  0
  140.1850   72.1360  222.4080 C   0  0  0  0  0  0  0  0  0  0  0  0
  141.0020   71.1660  222.3180 O   0  0  0  0  0  0  0  0  0  0  0  0
  140.6190   73.4650  221.9510 C   0  0  0  0  0  0  0  0  0  0  0  0
  141.7110   73.5900  221.1190 C   0  0  0  0  0  0  0  0  0  0  0  0
  142.1400   74.8410  220.6740 C   0  0  0  0  0  0  0  0  0  0  0  0
  141.4560   75.9580  221.0780 C   0  0  0  0  0  0  0  0  0  0  0  0
  141.7870   77.2430  220.7050 C   0  0  0  0  0  0  0  0  0  0  0  0
  141.0440   78.3280  221.1570 C   0  0  0  0  0  0  0  0  0  0  0  0
  141.4950   79.9540  220.6590 Cl  0  0  0  0  0  0  0  0  0  0  0  0
  139.9540   78.1570  221.9920 C   0  0  0  0  0  0  0  0  0  0  0  0
  139.6250   76.8680  222.3650 C   0  0  0  0  0  0  0  0  0  0  0  0
  140.3630   75.7920  221.9160 C   0  0  0  0  0  0  0  0  0  0  0  0
  139.9600   74.5730  222.3380 N   0  0  0  0  0  0  0  0  0  0  0  0
  139.6190   66.6800  227.2960 H   0  0  0  0  0  0  0  0  0  0  0  0
  138.6140   67.8020  226.2810 H   0  0  0  0  0  0  0  0  0  0  0  0
  139.8373   70.0494  227.1064 H   0  0  0  0  0  0  0  0  0  0  0  0
  141.5923   70.1712  226.6654 H   0  0  0  0  0  0  0  0  0  0  0  0
  140.9880   70.6520  224.4390 H   0  0  0  0  0  0  0  0  0  0  0  0
  138.6307   69.9546  222.6258 H   0  0  0  0  0  0  0  0  0  0  0  0
  137.3013   70.8465  223.5527 H   0  0  0  0  0  0  0  0  0  0  0  0
  138.2770   72.8530  222.9670 H   0  0  0  0  0  0  0  0  0  0  0  0
  142.2537   72.6878  220.8003 H   0  0  0  0  0  0  0  0  0  0  0  0
  143.0126   74.9293  220.0100 H   0  0  0  0  0  0  0  0  0  0  0  0
  142.6486   77.4121  220.0423 H   0  0  0  0  0  0  0  0  0  0  0  0
  139.3691   79.0183  222.3469 H   0  0  0  0  0  0  0  0  0  0  0  0
  138.7641   76.6974  223.0281 H   0  0  0  0  0  0  0  0  0  0  0  0
  1  2  1  0
  2  3  2  0
  2  4  1  0
  4  5  1  0
  5  6  1  0
  6  7  2  0
  6  8  1  0
  8  9  1  0
  9 10  1  0
 10 11  2  0
 10 12  1  0
 12 13  2  0
 13 14  1  0
 14 15  2  0
 15 16  1  0
 16 17  2  0
 17 18  1  0
 17 19  1  0
 19 20  2  0
 20 21  1  0
 21 22  2  0
 22 12  1  0
 21 15  1  0
  1 23  1  0
  1 24  1  0
  4 25  1  0
  4 26  1  0
  5 27  1  0
  8 28  1  0
  8 29  1  0
  9 30  1  0
 13 31  1  0
 14 32  1  0
 16 33  1  0
 19 34  1  0
 20 35  1  0
M  END
>  <smiles>  (20) 
NC(=O)CNC(=O)CNC(=O)c1ccc2cc(Cl)ccc2n1

>  <score_type>  (20) 
oracle

>  <origin>  (20) 
autodockgpu

>  <m_score__min__energy>  (20) 
-7.2699999999999996

>  <m_primary>  (20) 
energy

>  <rmsd>  (20) 
7.992103509640172

>  <m_score__min__rmsd>  (20) 
7.992103509640172

>  <meeko>  (20) 
{"free_energy": -5.63, "intermolecular_energy": -7.12, "internal_energy": -2.47, "cluster_size": 9, "cluster_id": 2, "rank_in_cluster": 9}

>  <energy>  (20) 
-5.88

>  <cluster_rmsd>  (20) 
1.87

>  <cluster>  (20) 
1

$$$$

     RDKit          3D

 35 36  0  0  0  0  0  0  0  0999 V2000
  139.6790   79.0490  223.6810 N   0  0  0  0  0  0  0  0  0  0  0  0
  141.0310   78.6530  223.4920 C   0  0  0  0  0  0  0  0  0  0  0  0
  141.8450   78.5650  224.4710 O   0  0  0  0  0  0  0  0  0  0  0  0
  141.4580   78.3470  222.1040 C   0  0  0  0  0  0  0  0  0  0  0  0
  141.2240   76.9570  221.7630 N   0  0  0  0  0  0  0  0  0  0  0  0
  139.9100   76.5480  221.4260 C   0  0  0  0  0  0  0  0  0  0  0  0
  138.9990   77.4450  221.4490 O   0  0  0  0  0  0  0  0  0  0  0  0
  139.5030   75.1930  221.0570 C   0  0  0  0  0  0  0  0  0  0  0  0
  139.5450   74.2130  222.0950 N   0  0  0  0  0  0  0  0  0  0  0  0
  139.8210   72.8330  221.8360 C   0  0  0  0  0  0  0  0  0  0  0  0
  140.0410   72.4010  220.6600 O   0  0  0  0  0  0  0  0  0  0  0  0
  139.8570   71.8780  222.9540 C   0  0  0  0  0  0  0  0  0  0  0  0
  139.3400   70.6100  222.7990 C   0  0  0  0  0  0  0  0  0  0  0  0
  139.3620   69.6870  223.8460 C   0  0  0  0  0  0  0  0  0  0  0  0
  139.9110   70.0610  225.0450 C   0  0  0  0  0  0  0  0  0  0  0  0
  139.9890   69.2390  226.1490 C   0  0  0  0  0  0  0  0  0  0  0  0
  140.5610   69.6900  227.3330 C   0  0  0  0  0  0  0  0  0  0  0  0
  140.6450   68.6120  228.7200 Cl  0  0  0  0  0  0  0  0  0  0  0  0
  141.0690   70.9730  227.4440 C   0  0  0  0  0  0  0  0  0  0  0  0
  140.9900   71.7950  226.3380 C   0  0  0  0  0  0  0  0  0  0  0  0
  140.4210   71.3460  225.1620 C   0  0  0  0  0  0  0  0  0  0  0  0
  140.3920   72.2270  224.1390 N   0  0  0  0  0  0  0  0  0  0  0  0
  139.4650   79.8380  224.3540 H   0  0  0  0  0  0  0  0  0  0  0  0
  138.8870   78.5830  223.1760 H   0  0  0  0  0  0  0  0  0  0  0  0
  140.8921   78.9844  221.4086 H   0  0  0  0  0  0  0  0  0  0  0  0
  142.5381   78.5408  222.0278 H   0  0  0  0  0  0  0  0  0  0  0  0
  142.0020   76.2650  221.7720 H   0  0  0  0  0  0  0  0  0  0  0  0
  138.4687   75.2435  220.6859 H   0  0  0  0  0  0  0  0  0  0  0  0
  140.2388   74.8598  220.3103 H   0  0  0  0  0  0  0  0  0  0  0  0
  139.3730   74.4540  223.1170 H   0  0  0  0  0  0  0  0  0  0  0  0
  138.9020   70.3199  221.8326 H   0  0  0  0  0  0  0  0  0  0  0  0
  138.9462   68.6776  223.7112 H   0  0  0  0  0  0  0  0  0  0  0  0
  139.5939   68.2140  226.0923 H   0  0  0  0  0  0  0  0  0  0  0  0
  141.5208   71.3258  228.3828 H   0  0  0  0  0  0  0  0  0  0  0  0
  141.3850   72.8201  226.3937 H   0  0  0  0  0  0  0  0  0  0  0  0
  1  2  1  0
  2  3  2  0
  2  4  1  0
  4  5  1  0
  5  6  1  0
  6  7  2  0
  6  8  1  0
  8  9  1  0
  9 10  1  0
 10 11  2  0
 10 12  1  0
 12 13  2  0
 13 14  1  0
 14 15  2  0
 15 16  1  0
 16 17  2  0
 17 18  1  0
 17 19  1  0
 19 20  2  0
 20 21  1  0
 21 22  2  0
 22 12  1  0
 21 15  1  0
  1 23  1  0
  1 24  1  0
  4 25  1  0
  4 26  1  0
  5 27  1  0
  8 28  1  0
  8 29  1  0
  9 30  1  0
 13 31  1  0
 14 32  1  0
 16 33  1  0
 19 34  1  0
 20 35  1  0
M  END
>  <smiles>  (21) 
NC(=O)CNC(=O)CNC(=O)c1ccc2cc(Cl)ccc2n1

>  <score_type>  (21) 
oracle

>  <origin>  (21) 
autodockgpu

>  <m_score__min__energy>  (21) 
-7.2699999999999996

>  <m_primary>  (21) 
energy

>  <rmsd>  (21) 
2.152204004155069

>  <m_score__min__rmsd>  (21) 
2.152204004155069

>  <meeko>  (21) 
{"free_energy": -6.55, "intermolecular_energy": -8.05, "internal_energy": -1.62, "cluster_size": 21, "cluster_id": 1, "rank_in_cluster": 11}

>  <energy>  (21) 
-5.75

>  <cluster_rmsd>  (21) 
1.83

>  <cluster>  (21) 
1

$$$$

     RDKit          3D

 35 36  0  0  0  0  0  0  0  0999 V2000
  141.8370   78.8170  220.6850 N   0  0  0  0  0  0  0  0  0  0  0  0
  142.0080   79.1910  222.0460 C   0  0  0  0  0  0  0  0  0  0  0  0
  142.7950   80.1360  222.3860 O   0  0  0  0  0  0  0  0  0  0  0  0
  141.2310   78.4330  223.0580 C   0  0  0  0  0  0  0  0  0  0  0  0
  141.0750   77.0400  222.6840 N   0  0  0  0  0  0  0  0  0  0  0  0
  140.0310   76.6850  221.7940 C   0  0  0  0  0  0  0  0  0  0  0  0
  139.2780   77.6290  221.3760 O   0  0  0  0  0  0  0  0  0  0  0  0
  139.7380   75.3350  221.3140 C   0  0  0  0  0  0  0  0  0  0  0  0
  139.7190   74.3010  222.3000 N   0  0  0  0  0  0  0  0  0  0  0  0
  140.1780   72.9740  222.0270 C   0  0  0  0  0  0  0  0  0  0  0  0
  140.6250   72.6380  220.8840 O   0  0  0  0  0  0  0  0  0  0  0  0
  140.1380   71.9590  223.0910 C   0  0  0  0  0  0  0  0  0  0  0  0
  139.6190   70.7080  222.8370 C   0  0  0  0  0  0  0  0  0  0  0  0
  139.5700   69.7300  223.8320 C   0  0  0  0  0  0  0  0  0  0  0  0
  140.0500   70.0320  225.0790 C   0  0  0  0  0  0  0  0  0  0  0  0
  140.0550   69.1500  226.1390 C   0  0  0  0  0  0  0  0  0  0  0  0
  140.5590   69.5290  227.3780 C   0  0  0  0  0  0  0  0  0  0  0  0
  140.5490   68.3770  228.7070 Cl  0  0  0  0  0  0  0  0  0  0  0  0
  141.0710   70.7980  227.5890 C   0  0  0  0  0  0  0  0  0  0  0  0
  141.0650   71.6800  226.5270 C   0  0  0  0  0  0  0  0  0  0  0  0
  140.5640   71.3020  225.2970 C   0  0  0  0  0  0  0  0  0  0  0  0
  140.6040   72.2370  224.3230 N   0  0  0  0  0  0  0  0  0  0  0  0
  142.6870   78.7760  220.0540 H   0  0  0  0  0  0  0  0  0  0  0  0
  140.8960   78.5830  220.2870 H   0  0  0  0  0  0  0  0  0  0  0  0
  141.7561   78.4860  224.0231 H   0  0  0  0  0  0  0  0  0  0  0  0
  140.2296   78.8828  223.1278 H   0  0  0  0  0  0  0  0  0  0  0  0
  141.7110   76.3090  223.0650 H   0  0  0  0  0  0  0  0  0  0  0  0
  138.7487   75.3578  220.8337 H   0  0  0  0  0  0  0  0  0  0  0  0
  140.5666   75.0788  220.6374 H   0  0  0  0  0  0  0  0  0  0  0  0
  139.3630   74.4600  223.2900 H   0  0  0  0  0  0  0  0  0  0  0  0
  139.2364   70.4758  221.8322 H   0  0  0  0  0  0  0  0  0  0  0  0
  139.1534   68.7346  223.6185 H   0  0  0  0  0  0  0  0  0  0  0  0
  139.6554   68.1343  226.0026 H   0  0  0  0  0  0  0  0  0  0  0  0
  141.4695   71.0937  228.5707 H   0  0  0  0  0  0  0  0  0  0  0  0
  141.4641   72.6961  226.6622 H   0  0  0  0  0  0  0  0  0  0  0  0
  1  2  1  0
  2  3  2  0
  2  4  1  0
  4  5  1  0
  5  6  1  0
  6  7  2  0
  6  8  1  0
  8  9  1  0
  9 10  1  0
 10 11  2  0
 10 12  1  0
 12 13  2  0
 13 14  1  0
 14 15  2  0
 15 16  1  0
 16 17  2  0
 17 18  1  0
 17 19  1  0
 19 20  2  0
 20 21  1  0
 21 22  2  0
 22 12  1  0
 21 15  1  0
  1 23  1  0
  1 24  1  0
  4 25  1  0
  4 26  1  0
  5 27  1  0
  8 28  1  0
  8 29  1  0
  9 30  1  0
 13 31  1  0
 14 32  1  0
 16 33  1  0
 19 34  1  0
 20 35  1  0
M  END
>  <smiles>  (22) 
NC(=O)CNC(=O)CNC(=O)c1ccc2cc(Cl)ccc2n1

>  <score_type>  (22) 
oracle

>  <origin>  (22) 
autodockgpu

>  <m_score__min__energy>  (22) 
-7.2699999999999996

>  <m_primary>  (22) 
energy

>  <rmsd>  (22) 
2.1715997544502583

>  <m_score__min__rmsd>  (22) 
2.1715997544502583

>  <meeko>  (22) 
{"free_energy": -6.84, "intermolecular_energy": -8.34, "internal_energy": -1.55, "cluster_size": 21, "cluster_id": 1, "rank_in_cluster": 3}

>  <energy>  (22) 
-6.57

>  <cluster_rmsd>  (22) 
0.0

>  <cluster>  (22) 
2

$$$$

     RDKit          3D

 35 36  0  0  0  0  0  0  0  0999 V2000
  140.0990   67.3720  227.1110 N   0  0  0  0  0  0  0  0  0  0  0  0
  139.7390   68.1390  225.9690 C   0  0  0  0  0  0  0  0  0  0  0  0
  139.2010   67.6020  224.9450 O   0  0  0  0  0  0  0  0  0  0  0  0
  140.0180   69.5960  226.0190 C   0  0  0  0  0  0  0  0  0  0  0  0
  139.6950   70.2490  224.7650 N   0  0  0  0  0  0  0  0  0  0  0  0
  138.3440   70.2820  224.3410 C   0  0  0  0  0  0  0  0  0  0  0  0
  137.4820   69.7210  225.1010 O   0  0  0  0  0  0  0  0  0  0  0  0
  137.8470   70.8990  223.1110 C   0  0  0  0  0  0  0  0  0  0  0  0
  138.4460   72.1400  222.7370 N   0  0  0  0  0  0  0  0  0  0  0  0
  139.7780   72.2240  222.2230 C   0  0  0  0  0  0  0  0  0  0  0  0
  140.5080   71.1930  222.0750 O   0  0  0  0  0  0  0  0  0  0  0  0
  140.3310   73.5350  221.8500 C   0  0  0  0  0  0  0  0  0  0  0  0
  141.4190   73.6160  221.0080 C   0  0  0  0  0  0  0  0  0  0  0  0
  141.9600   74.8490  220.6410 C   0  0  0  0  0  0  0  0  0  0  0  0
  141.3890   75.9940  221.1330 C   0  0  0  0  0  0  0  0  0  0  0  0
  141.8350   77.2660  220.8420 C   0  0  0  0  0  0  0  0  0  0  0  0
  141.2040   78.3810  221.3810 C   0  0  0  0  0  0  0  0  0  0  0  0
  141.8000   79.9880  220.9870 Cl  0  0  0  0  0  0  0  0  0  0  0  0
  140.1130   78.2540  222.2230 C   0  0  0  0  0  0  0  0  0  0  0  0
  139.6670   76.9800  222.5140 C   0  0  0  0  0  0  0  0  0  0  0  0
  140.2950   75.8730  221.9780 C   0  0  0  0  0  0  0  0  0  0  0  0
  139.7840   74.6710  222.3230 N   0  0  0  0  0  0  0  0  0  0  0  0
  140.5450   66.4210  226.9700 H   0  0  0  0  0  0  0  0  0  0  0  0
  139.9350   67.7170  228.0870 H   0  0  0  0  0  0  0  0  0  0  0  0
  139.4150   70.0468  226.8210 H   0  0  0  0  0  0  0  0  0  0  0  0
  141.0929   69.7322  226.2088 H   0  0  0  0  0  0  0  0  0  0  0  0
  140.4390   70.6800  224.1780 H   0  0  0  0  0  0  0  0  0  0  0  0
  138.0114   70.1867  222.2890 H   0  0  0  0  0  0  0  0  0  0  0  0
  136.7899   71.1318  223.3070 H   0  0  0  0  0  0  0  0  0  0  0  0
  137.9360   73.0710  222.8200 H   0  0  0  0  0  0  0  0  0  0  0  0
  141.8695   72.6914  220.6179 H   0  0  0  0  0  0  0  0  0  0  0  0
  142.8292   74.9011  219.9689 H   0  0  0  0  0  0  0  0  0  0  0  0
  142.7000   77.3998  220.1757 H   0  0  0  0  0  0  0  0  0  0  0  0
  139.6170   79.1396  222.6469 H   0  0  0  0  0  0  0  0  0  0  0  0
  138.8020   76.8454  223.1801 H   0  0  0  0  0  0  0  0  0  0  0  0
  1  2  1  0
  2  3  2  0
  2  4  1  0
  4  5  1  0
  5  6  1  0
  6  7  2  0
  6  8  1  0
  8  9  1  0
  9 10  1  0
 10 11  2  0
 10 12  1  0
 12 13  2  0
 13 14  1  0
 14 15  2  0
 15 16  1  0
 16 17  2  0
 17 18  1  0
 17 19  1  0
 19 20  2  0
 20 21  1  0
 21 22  2  0
 22 12  1  0
 21 15  1  0
  1 23  1  0
  1 24  1  0
  4 25  1  0
  4 26  1  0
  5 27  1  0
  8 28  1  0
  8 29  1  0
  9 30  1  0
 13 31  1  0
 14 32  1  0
 16 33  1  0
 19 34  1  0
 20 35  1  0
M  END
>  <smiles>  (23) 
NC(=O)CNC(=O)CNC(=O)c1ccc2cc(Cl)ccc2n1

>  <score_type>  (23) 
oracle

>  <origin>  (23) 
autodockgpu

>  <m_score__min__energy>  (23) 
-7.2699999999999996

>  <m_primary>  (23) 
energy

>  <rmsd>  (23) 
7.9022828704333365

>  <m_score__min__rmsd>  (23) 
7.9022828704333365

>  <meeko>  (23) 
{"free_energy": -6.21, "intermolecular_energy": -7.7, "internal_energy": -1.75, "cluster_size": 9, "cluster_id": 2, "rank_in_cluster": 5}

>  <energy>  (23) 
-6.25

>  <cluster_rmsd>  (23) 
1.28

>  <cluster>  (23) 
2

$$$$

     RDKit          3D

 35 36  0  0  0  0  0  0  0  0999 V2000
  143.0720   72.8470  219.5170 N   0  0  0  0  0  0  0  0  0  0  0  0
  144.0460   73.8830  219.5000 C   0  0  0  0  0  0  0  0  0  0  0  0
  145.2780   73.6370  219.2770 O   0  0  0  0  0  0  0  0  0  0  0  0
  143.5680   75.2650  219.7530 C   0  0  0  0  0  0  0  0  0  0  0  0
  142.4330   75.2840  220.6560 N   0  0  0  0  0  0  0  0  0  0  0  0
  141.1390   75.0510  220.1300 C   0  0  0  0  0  0  0  0  0  0  0  0
  141.0510   74.8400  218.8720 O   0  0  0  0  0  0  0  0  0  0  0  0
  139.8940   75.0320  220.8970 C   0  0  0  0  0  0  0  0  0  0  0  0
  139.8060   74.0600  221.9400 N   0  0  0  0  0  0  0  0  0  0  0  0
  140.3070   72.7280  221.7910 C   0  0  0  0  0  0  0  0  0  0  0  0
  140.8560   72.3330  220.7130 O   0  0  0  0  0  0  0  0  0  0  0  0
  140.1910   71.7800  222.9090 C   0  0  0  0  0  0  0  0  0  0  0  0
  139.5860   70.5550  222.7200 C   0  0  0  0  0  0  0  0  0  0  0  0
  139.4650   69.6400  223.7660 C   0  0  0  0  0  0  0  0  0  0  0  0
  139.9590   69.9760  225.0000 C   0  0  0  0  0  0  0  0  0  0  0  0
  139.8970   69.1560  226.1060 C   0  0  0  0  0  0  0  0  0  0  0  0
  140.4210   69.5680  227.3260 C   0  0  0  0  0  0  0  0  0  0  0  0
  140.3240   68.4940  228.7170 Cl  0  0  0  0  0  0  0  0  0  0  0  0
  141.0200   70.8070  227.4720 C   0  0  0  0  0  0  0  0  0  0  0  0
  141.0810   71.6270  226.3620 C   0  0  0  0  0  0  0  0  0  0  0  0
  140.5600   71.2170  225.1510 C   0  0  0  0  0  0  0  0  0  0  0  0
  140.6700   72.0920  224.1270 N   0  0  0  0  0  0  0  0  0  0  0  0
  143.3100   71.9270  219.9840 H   0  0  0  0  0  0  0  0  0  0  0  0
  142.1250   72.9660  219.0810 H   0  0  0  0  0  0  0  0  0  0  0  0
  144.3869   75.8495  220.1976 H   0  0  0  0  0  0  0  0  0  0  0  0
  143.2496   75.6984  218.7934 H   0  0  0  0  0  0  0  0  0  0  0  0
  142.5600   75.4730  221.6720 H   0  0  0  0  0  0  0  0  0  0  0  0
  139.7665   76.0249  221.3530 H   0  0  0  0  0  0  0  0  0  0  0  0
  139.1101   74.7585  220.1754 H   0  0  0  0  0  0  0  0  0  0  0  0
  139.3630   74.2710  222.8850 H   0  0  0  0  0  0  0  0  0  0  0  0
  139.1918   70.2949  221.7266 H   0  0  0  0  0  0  0  0  0  0  0  0
  138.9814   68.6654  223.6035 H   0  0  0  0  0  0  0  0  0  0  0  0
  139.4277   68.1646  226.0225 H   0  0  0  0  0  0  0  0  0  0  0  0
  141.4336   71.1280  228.4394 H   0  0  0  0  0  0  0  0  0  0  0  0
  141.5503   72.6185  226.4440 H   0  0  0  0  0  0  0  0  0  0  0  0
  1  2  1  0
  2  3  2  0
  2  4  1  0
  4  5  1  0
  5  6  1  0
  6  7  2  0
  6  8  1  0
  8  9  1  0
  9 10  1  0
 10 11  2  0
 10 12  1  0
 12 13  2  0
 13 14  1  0
 14 15  2  0
 15 16  1  0
 16 17  2  0
 17 18  1  0
 17 19  1  0
 19 20  2  0
 20 21  1  0
 21 22  2  0
 22 12  1  0
 21 15  1  0
  1 23  1  0
  1 24  1  0
  4 25  1  0
  4 26  1  0
  5 27  1  0
  8 28  1  0
  8 29  1  0
  9 30  1  0
 13 31  1  0
 14 32  1  0
 16 33  1  0
 19 34  1  0
 20 35  1  0
M  END
>  <smiles>  (24) 
NC(=O)CNC(=O)CNC(=O)c1ccc2cc(Cl)ccc2n1

>  <score_type>  (24) 
oracle

>  <origin>  (24) 
autodockgpu

>  <m_score__min__energy>  (24) 
-7.2699999999999996

>  <m_primary>  (24) 
energy

>  <rmsd>  (24) 
2.8659914429510063

>  <m_score__min__rmsd>  (24) 
2.8659914429510063

>  <meeko>  (24) 
{"free_energy": -6.06, "intermolecular_energy": -7.55, "internal_energy": -2.39, "cluster_size": 16, "cluster_id": 3, "rank_in_cluster": 9}

>  <energy>  (24) 
-6.23

>  <cluster_rmsd>  (24) 
1.32

>  <cluster>  (24) 
2

$$$$

     RDKit          3D

 35 36  0  0  0  0  0  0  0  0999 V2000
  142.5720   79.1690  222.1280 N   0  0  0  0  0  0  0  0  0  0  0  0
  141.3700   79.8360  222.4900 C   0  0  0  0  0  0  0  0  0  0  0  0
  141.0210   80.9320  221.9380 O   0  0  0  0  0  0  0  0  0  0  0  0
  140.5360   79.2020  223.5420 C   0  0  0  0  0  0  0  0  0  0  0  0
  139.4930   78.3700  222.9730 N   0  0  0  0  0  0  0  0  0  0  0  0
  139.8360   77.0890  222.4760 C   0  0  0  0  0  0  0  0  0  0  0  0
  141.0650   76.7440  222.5570 O   0  0  0  0  0  0  0  0  0  0  0  0
  138.9120   76.1270  221.8760 C   0  0  0  0  0  0  0  0  0  0  0  0
  137.8450   75.6700  222.7080 N   0  0  0  0  0  0  0  0  0  0  0  0
  136.7590   76.5160  223.0980 C   0  0  0  0  0  0  0  0  0  0  0  0
  136.6880   77.7310  222.7270 O   0  0  0  0  0  0  0  0  0  0  0  0
  135.6890   75.9770  223.9500 C   0  0  0  0  0  0  0  0  0  0  0  0
  134.7280   76.8170  224.4710 C   0  0  0  0  0  0  0  0  0  0  0  0
  133.7030   76.3270  225.2830 C   0  0  0  0  0  0  0  0  0  0  0  0
  133.6630   74.9850  225.5600 C   0  0  0  0  0  0  0  0  0  0  0  0
  132.7020   74.3880  226.3470 C   0  0  0  0  0  0  0  0  0  0  0  0
  132.7270   73.0180  226.5840 C   0  0  0  0  0  0  0  0  0  0  0  0
  131.4840   72.2910  227.5930 Cl  0  0  0  0  0  0  0  0  0  0  0  0
  133.7120   72.2120  226.0400 C   0  0  0  0  0  0  0  0  0  0  0  0
  134.6740   72.8120  225.2520 C   0  0  0  0  0  0  0  0  0  0  0  0
  134.6480   74.1730  225.0180 C   0  0  0  0  0  0  0  0  0  0  0  0
  135.6330   74.6620  224.2340 N   0  0  0  0  0  0  0  0  0  0  0  0
  143.4470   79.7420  221.9620 H   0  0  0  0  0  0  0  0  0  0  0  0
  142.6190   78.1270  222.0180 H   0  0  0  0  0  0  0  0  0  0  0  0
  141.1802   78.5791  224.1800 H   0  0  0  0  0  0  0  0  0  0  0  0
  140.0559   80.0011  224.1259 H   0  0  0  0  0  0  0  0  0  0  0  0
  138.5090   78.7060  222.9210 H   0  0  0  0  0  0  0  0  0  0  0  0
  138.4659   76.5996  220.9885 H   0  0  0  0  0  0  0  0  0  0  0  0
  139.5177   75.2346  221.6597 H   0  0  0  0  0  0  0  0  0  0  0  0
  137.7980   74.6750  223.0840 H   0  0  0  0  0  0  0  0  0  0  0  0
  134.7693   77.8923  224.2430 H   0  0  0  0  0  0  0  0  0  0  0  0
  132.9410   77.0060  225.6932 H   0  0  0  0  0  0  0  0  0  0  0  0
  131.9059   75.0024  226.7929 H   0  0  0  0  0  0  0  0  0  0  0  0
  133.7279   71.1285  226.2293 H   0  0  0  0  0  0  0  0  0  0  0  0
  135.4705   72.1988  224.8053 H   0  0  0  0  0  0  0  0  0  0  0  0
  1  2  1  0
  2  3  2  0
  2  4  1  0
  4  5  1  0
  5  6  1  0
  6  7  2  0
  6  8  1  0
  8  9  1  0
  9 10  1  0
 10 11  2  0
 10 12  1  0
 12 13  2  0
 13 14  1  0
 14 15  2  0
 15 16  1  0
 16 17  2  0
 17 18  1  0
 17 19  1  0
 19 20  2  0
 20 21  1  0
 21 22  2  0
 22 12  1  0
 21 15  1  0
  1 23  1  0
  1 24  1  0
  4 25  1  0
  4 26  1  0
  5 27  1  0
  8 28  1  0
  8 29  1  0
  9 30  1  0
 13 31  1  0
 14 32  1  0
 16 33  1  0
 19 34  1  0
 20 35  1  0
M  END
>  <smiles>  (25) 
NC(=O)CNC(=O)CNC(=O)c1ccc2cc(Cl)ccc2n1

>  <score_type>  (25) 
oracle

>  <origin>  (25) 
autodockgpu

>  <m_score__min__energy>  (25) 
-7.2699999999999996

>  <m_primary>  (25) 
energy

>  <rmsd>  (25) 
6.439310428553235

>  <m_score__min__rmsd>  (25) 
6.439310428553235

>  <meeko>  (25) 
{"free_energy": -5.32, "intermolecular_energy": -6.81, "internal_energy": -2.52, "cluster_size": 2, "cluster_id": 5, "rank_in_cluster": 1}

>  <energy>  (25) 
-6.22

>  <cluster_rmsd>  (25) 
1.29

>  <cluster>  (25) 
2

$$$$

     RDKit          3D

 35 36  0  0  0  0  0  0  0  0999 V2000
  141.0750   76.0270  222.0570 N   0  0  0  0  0  0  0  0  0  0  0  0
  140.3290   77.1860  222.4070 C   0  0  0  0  0  0  0  0  0  0  0  0
  140.9050   78.2770  222.7330 O   0  0  0  0  0  0  0  0  0  0  0  0
  138.8500   77.0730  222.3780 C   0  0  0  0  0  0  0  0  0  0  0  0
  138.4180   75.6940  222.2480 N   0  0  0  0  0  0  0  0  0  0  0  0
  138.5590   75.0500  220.9940 C   0  0  0  0  0  0  0  0  0  0  0  0
  139.0620   75.7380  220.0400 O   0  0  0  0  0  0  0  0  0  0  0  0
  138.1810   73.6700  220.6930 C   0  0  0  0  0  0  0  0  0  0  0  0
  138.4170   72.7080  221.7220 N   0  0  0  0  0  0  0  0  0  0  0  0
  139.6470   72.6500  222.4490 C   0  0  0  0  0  0  0  0  0  0  0  0
  140.6060   73.4520  222.2140 O   0  0  0  0  0  0  0  0  0  0  0  0
  139.8210   71.6380  223.5020 C   0  0  0  0  0  0  0  0  0  0  0  0
  139.4690   70.3260  223.2690 C   0  0  0  0  0  0  0  0  0  0  0  0
  139.6240   69.3500  224.2540 C   0  0  0  0  0  0  0  0  0  0  0  0
  140.1380   69.7150  225.4710 C   0  0  0  0  0  0  0  0  0  0  0  0
  140.3370   68.8410  226.5190 C   0  0  0  0  0  0  0  0  0  0  0  0
  140.8630   69.2860  227.7260 C   0  0  0  0  0  0  0  0  0  0  0  0
  141.1030   68.1420  229.0410 Cl  0  0  0  0  0  0  0  0  0  0  0  0
  141.2040   70.6140  227.9170 C   0  0  0  0  0  0  0  0  0  0  0  0
  141.0040   71.4880  226.8670 C   0  0  0  0  0  0  0  0  0  0  0  0
  140.4810   71.0450  225.6680 C   0  0  0  0  0  0  0  0  0  0  0  0
  140.3240   71.9780  224.7040 N   0  0  0  0  0  0  0  0  0  0  0  0
  141.9390   75.7830  222.6190 H   0  0  0  0  0  0  0  0  0  0  0  0
  140.7950   75.4060  221.2590 H   0  0  0  0  0  0  0  0  0  0  0  0
  138.4428   77.4873  223.3121 H   0  0  0  0  0  0  0  0  0  0  0  0
  138.4813   77.6309  221.5046 H   0  0  0  0  0  0  0  0  0  0  0  0
  138.0040   75.1840  223.0560 H   0  0  0  0  0  0  0  0  0  0  0  0
  137.1048   73.6598  220.4658 H   0  0  0  0  0  0  0  0  0  0  0  0
  138.8263   73.3663  219.8555 H   0  0  0  0  0  0  0  0  0  0  0  0
  137.6920   71.9820  222.0050 H   0  0  0  0  0  0  0  0  0  0  0  0
  139.0583   70.0431  222.2885 H   0  0  0  0  0  0  0  0  0  0  0  0
  139.3387   68.3060  224.0573 H   0  0  0  0  0  0  0  0  0  0  0  0
  140.0764   67.7792  226.3982 H   0  0  0  0  0  0  0  0  0  0  0  0
  141.6206   70.9615  228.8739 H   0  0  0  0  0  0  0  0  0  0  0  0
  141.2644   72.5500  226.9869 H   0  0  0  0  0  0  0  0  0  0  0  0
  1  2  1  0
  2  3  2  0
  2  4  1  0
  4  5  1  0
  5  6  1  0
  6  7  2  0
  6  8  1  0
  8  9  1  0
  9 10  1  0
 10 11  2  0
 10 12  1  0
 12 13  2  0
 13 14  1  0
 14 15  2  0
 15 16  1  0
 16 17  2  0
 17 18  1  0
 17 19  1  0
 19 20  2  0
 20 21  1  0
 21 22  2  0
 22 12  1  0
 21 15  1  0
  1 23  1  0
  1 24  1  0
  4 25  1  0
  4 26  1  0
  5 27  1  0
  8 28  1  0
  8 29  1  0
  9 30  1  0
 13 31  1  0
 14 32  1  0
 16 33  1  0
 19 34  1  0
 20 35  1  0
M  END
>  <smiles>  (26) 
NC(=O)CNC(=O)CNC(=O)c1ccc2cc(Cl)ccc2n1

>  <score_type>  (26) 
oracle

>  <origin>  (26) 
autodockgpu

>  <m_score__min__energy>  (26) 
-7.2699999999999996

>  <m_primary>  (26) 
energy

>  <rmsd>  (26) 
1.8456889055145727

>  <m_score__min__rmsd>  (26) 
1.8456889055145727

>  <meeko>  (26) 
{"free_energy": -6.55, "intermolecular_energy": -8.05, "internal_energy": -2.22, "cluster_size": 21, "cluster_id": 1, "rank_in_cluster": 10}

>  <energy>  (26) 
-6.21

>  <cluster_rmsd>  (26) 
1.31

>  <cluster>  (26) 
2

$$$$

     RDKit          3D

 35 36  0  0  0  0  0  0  0  0999 V2000
  145.0880   74.5180  220.3800 N   0  0  0  0  0  0  0  0  0  0  0  0
  144.8900   73.7310  219.2130 C   0  0  0  0  0  0  0  0  0  0  0  0
  145.6270   72.7220  218.9540 O   0  0  0  0  0  0  0  0  0  0  0  0
  143.7860   74.1330  218.3050 C   0  0  0  0  0  0  0  0  0  0  0  0
  142.4940   74.0430  218.9570 N   0  0  0  0  0  0  0  0  0  0  0  0
  142.0820   75.0990  219.8060 C   0  0  0  0  0  0  0  0  0  0  0  0
  142.8920   76.0780  219.9500 O   0  0  0  0  0  0  0  0  0  0  0  0
  140.8160   75.1690  220.5340 C   0  0  0  0  0  0  0  0  0  0  0  0
  140.6390   74.2250  221.5910 N   0  0  0  0  0  0  0  0  0  0  0  0
  140.4590   72.8260  221.3480 C   0  0  0  0  0  0  0  0  0  0  0  0
  140.4400   72.3460  220.1700 O   0  0  0  0  0  0  0  0  0  0  0  0
  140.2900   71.9080  222.4840 C   0  0  0  0  0  0  0  0  0  0  0  0
  139.7090   70.6720  222.2970 C   0  0  0  0  0  0  0  0  0  0  0  0
  139.5380   69.7850  223.3610 C   0  0  0  0  0  0  0  0  0  0  0  0
  139.9600   70.1610  224.6090 C   0  0  0  0  0  0  0  0  0  0  0  0
  139.8440   69.3720  225.7340 C   0  0  0  0  0  0  0  0  0  0  0  0
  140.2950   69.8230  226.9690 C   0  0  0  0  0  0  0  0  0  0  0  0
  140.1310   68.7880  228.3820 Cl  0  0  0  0  0  0  0  0  0  0  0  0
  140.8730   71.0720  227.1120 C   0  0  0  0  0  0  0  0  0  0  0  0
  140.9880   71.8620  225.9840 C   0  0  0  0  0  0  0  0  0  0  0  0
  140.5390   71.4130  224.7580 C   0  0  0  0  0  0  0  0  0  0  0  0
  140.6970   72.2600  223.7180 N   0  0  0  0  0  0  0  0  0  0  0  0
  146.0760   74.7530  220.6780 H   0  0  0  0  0  0  0  0  0  0  0  0
  144.2850   74.8730  220.9550 H   0  0  0  0  0  0  0  0  0  0  0  0
  143.9505   75.1716  217.9822 H   0  0  0  0  0  0  0  0  0  0  0  0
  143.7837   73.4477  217.4445 H   0  0  0  0  0  0  0  0  0  0  0  0
  141.8780   73.2150  218.8130 H   0  0  0  0  0  0  0  0  0  0  0  0
  140.7345   76.1766  220.9678 H   0  0  0  0  0  0  0  0  0  0  0  0
  140.0391   74.9281  219.7935 H   0  0  0  0  0  0  0  0  0  0  0  0
  140.6310   74.5080  222.6170 H   0  0  0  0  0  0  0  0  0  0  0  0
  139.3741   70.3794  221.2909 H   0  0  0  0  0  0  0  0  0  0  0  0
  139.0726   68.8014  223.2003 H   0  0  0  0  0  0  0  0  0  0  0  0
  139.3891   68.3737  225.6531 H   0  0  0  0  0  0  0  0  0  0  0  0
  141.2292   71.4245  228.0912 H   0  0  0  0  0  0  0  0  0  0  0  0
  141.4427   72.8604  226.0638 H   0  0  0  0  0  0  0  0  0  0  0  0
  1  2  1  0
  2  3  2  0
  2  4  1  0
  4  5  1  0
  5  6  1  0
  6  7  2  0
  6  8  1  0
  8  9  1  0
  9 10  1  0
 10 11  2  0
 10 12  1  0
 12 13  2  0
 13 14  1  0
 14 15  2  0
 15 16  1  0
 16 17  2  0
 17 18  1  0
 17 19  1  0
 19 20  2  0
 20 21  1  0
 21 22  2  0
 22 12  1  0
 21 15  1  0
  1 23  1  0
  1 24  1  0
  4 25  1  0
  4 26  1  0
  5 27  1  0
  8 28  1  0
  8 29  1  0
  9 30  1  0
 13 31  1  0
 14 32  1  0
 16 33  1  0
 19 34  1  0
 20 35  1  0
M  END
>  <smiles>  (27) 
NC(=O)CNC(=O)CNC(=O)c1ccc2cc(Cl)ccc2n1

>  <score_type>  (27) 
oracle

>  <origin>  (27) 
autodockgpu

>  <m_score__min__energy>  (27) 
-7.2699999999999996

>  <m_primary>  (27) 
energy

>  <rmsd>  (27) 
3.1536431477772178

>  <m_score__min__rmsd>  (27) 
3.1536431477772178

>  <meeko>  (27) 
{"free_energy": -5.52, "intermolecular_energy": -7.01, "internal_energy": -2.44, "cluster_size": 16, "cluster_id": 3, "rank_in_cluster": 16}

>  <energy>  (27) 
-5.67

>  <cluster_rmsd>  (27) 
1.51

>  <cluster>  (27) 
2

$$$$

     RDKit          3D

 35 36  0  0  0  0  0  0  0  0999 V2000
  143.7830   76.7410  220.0010 N   0  0  0  0  0  0  0  0  0  0  0  0
  143.3870   75.4090  219.7000 C   0  0  0  0  0  0  0  0  0  0  0  0
  143.9810   74.4030  220.2110 O   0  0  0  0  0  0  0  0  0  0  0  0
  142.2500   75.2380  218.7610 C   0  0  0  0  0  0  0  0  0  0  0  0
  141.0460   74.8080  219.4460 N   0  0  0  0  0  0  0  0  0  0  0  0
  140.5380   75.6050  220.5010 C   0  0  0  0  0  0  0  0  0  0  0  0
  141.1870   76.6690  220.7890 O   0  0  0  0  0  0  0  0  0  0  0  0
  139.3410   75.3210  221.2900 C   0  0  0  0  0  0  0  0  0  0  0  0
  139.4580   74.2900  222.2720 N   0  0  0  0  0  0  0  0  0  0  0  0
  139.7400   72.9310  221.9270 C   0  0  0  0  0  0  0  0  0  0  0  0
  139.8950   72.5620  220.7200 O   0  0  0  0  0  0  0  0  0  0  0  0
  139.8550   71.9210  222.9900 C   0  0  0  0  0  0  0  0  0  0  0  0
  139.4810   70.6160  222.7520 C   0  0  0  0  0  0  0  0  0  0  0  0
  139.5820   69.6420  223.7470 C   0  0  0  0  0  0  0  0  0  0  0  0
  140.0640   70.0020  224.9780 C   0  0  0  0  0  0  0  0  0  0  0  0
  140.2080   69.1290  226.0360 C   0  0  0  0  0  0  0  0  0  0  0  0
  140.7040   69.5690  227.2580 C   0  0  0  0  0  0  0  0  0  0  0  0
  140.8750   68.4270  228.5850 Cl  0  0  0  0  0  0  0  0  0  0  0  0
  141.0680   70.8900  227.4540 C   0  0  0  0  0  0  0  0  0  0  0  0
  140.9230   71.7620  226.3930 C   0  0  0  0  0  0  0  0  0  0  0  0
  140.4300   71.3240  225.1800 C   0  0  0  0  0  0  0  0  0  0  0  0
  140.3260   72.2550  224.2070 N   0  0  0  0  0  0  0  0  0  0  0  0
  144.8160   76.9680  220.0590 H   0  0  0  0  0  0  0  0  0  0  0  0
  143.0840   77.5050  220.1690 H   0  0  0  0  0  0  0  0  0  0  0  0
  142.0523   76.1984  218.2625 H   0  0  0  0  0  0  0  0  0  0  0  0
  142.5234   74.4624  218.0305 H   0  0  0  0  0  0  0  0  0  0  0  0
  140.5640   73.9250  219.1780 H   0  0  0  0  0  0  0  0  0  0  0  0
  139.0550   76.2474  221.8096 H   0  0  0  0  0  0  0  0  0  0  0  0
  138.5955   74.9548  220.5688 H   0  0  0  0  0  0  0  0  0  0  0  0
  139.3440   74.4760  223.3140 H   0  0  0  0  0  0  0  0  0  0  0  0
  139.0960   70.3369  221.7601 H   0  0  0  0  0  0  0  0  0  0  0  0
  139.2799   68.6035  223.5462 H   0  0  0  0  0  0  0  0  0  0  0  0
  139.9272   68.0727  225.9116 H   0  0  0  0  0  0  0  0  0  0  0  0
  141.4597   71.2338  228.4227 H   0  0  0  0  0  0  0  0  0  0  0  0
  141.2037   72.8185  226.5158 H   0  0  0  0  0  0  0  0  0  0  0  0
  1  2  1  0
  2  3  2  0
  2  4  1  0
  4  5  1  0
  5  6  1  0
  6  7  2  0
  6  8  1  0
  8  9  1  0
  9 10  1  0
 10 11  2  0
 10 12  1  0
 12 13  2  0
 13 14  1  0
 14 15  2  0
 15 16  1  0
 16 17  2  0
 17 18  1  0
 17 19  1  0
 19 20  2  0
 20 21  1  0
 21 22  2  0
 22 12  1  0
 21 15  1  0
  1 23  1  0
  1 24  1  0
  4 25  1  0
  4 26  1  0
  5 27  1  0
  8 28  1  0
  8 29  1  0
  9 30  1  0
 13 31  1  0
 14 32  1  0
 16 33  1  0
 19 34  1  0
 20 35  1  0
M  END
>  <smiles>  (28) 
NC(=O)CNC(=O)CNC(=O)c1ccc2cc(Cl)ccc2n1

>  <score_type>  (28) 
oracle

>  <origin>  (28) 
autodockgpu

>  <m_score__min__energy>  (28) 
-7.2699999999999996

>  <m_primary>  (28) 
energy

>  <rmsd>  (28) 
2.1071218477908915

>  <m_score__min__rmsd>  (28) 
2.1071218477908915

>  <meeko>  (28) 
{"free_energy": -6.18, "intermolecular_energy": -7.67, "internal_energy": -2.31, "cluster_size": 16, "cluster_id": 3, "rank_in_cluster": 4}

>  <energy>  (28) 
-5.67

>  <cluster_rmsd>  (28) 
1.52

>  <cluster>  (28) 
2

$$$$

     RDKit          3D

 35 36  0  0  0  0  0  0  0  0999 V2000
  143.8550   76.3760  220.0920 N   0  0  0  0  0  0  0  0  0  0  0  0
  143.6560   75.0300  219.6790 C   0  0  0  0  0  0  0  0  0  0  0  0
  144.4480   74.0970  220.0400 O   0  0  0  0  0  0  0  0  0  0  0  0
  142.4860   74.7560  218.8070 C   0  0  0  0  0  0  0  0  0  0  0  0
  141.3210   74.3680  219.5780 N   0  0  0  0  0  0  0  0  0  0  0  0
  140.6460   75.3540  220.3390 C   0  0  0  0  0  0  0  0  0  0  0  0
  141.1170   76.5420  220.3010 O   0  0  0  0  0  0  0  0  0  0  0  0
  139.4590   75.1340  221.1650 C   0  0  0  0  0  0  0  0  0  0  0  0
  139.5690   74.1350  222.1800 N   0  0  0  0  0  0  0  0  0  0  0  0
  139.7180   72.7450  221.8750 C   0  0  0  0  0  0  0  0  0  0  0  0
  139.7550   72.3200  220.6770 O   0  0  0  0  0  0  0  0  0  0  0  0
  139.8330   71.7700  222.9700 C   0  0  0  0  0  0  0  0  0  0  0  0
  139.4370   70.4640  222.7800 C   0  0  0  0  0  0  0  0  0  0  0  0
  139.5370   69.5220  223.8060 C   0  0  0  0  0  0  0  0  0  0  0  0
  140.0400   69.9150  225.0180 C   0  0  0  0  0  0  0  0  0  0  0  0
  140.1860   69.0770  226.1030 C   0  0  0  0  0  0  0  0  0  0  0  0
  140.7050   69.5490  227.3030 C   0  0  0  0  0  0  0  0  0  0  0  0
  140.8770   68.4500  228.6650 Cl  0  0  0  0  0  0  0  0  0  0  0  0
  141.0910   70.8710  227.4490 C   0  0  0  0  0  0  0  0  0  0  0  0
  140.9440   71.7100  226.3620 C   0  0  0  0  0  0  0  0  0  0  0  0
  140.4280   71.2390  225.1710 C   0  0  0  0  0  0  0  0  0  0  0  0
  140.3250   72.1380  224.1680 N   0  0  0  0  0  0  0  0  0  0  0  0
  144.8390   76.7700  220.1020 H   0  0  0  0  0  0  0  0  0  0  0  0
  143.0590   76.9910  220.3870 H   0  0  0  0  0  0  0  0  0  0  0  0
  142.2479   75.6644  218.2342 H   0  0  0  0  0  0  0  0  0  0  0  0
  142.7459   73.9236  218.1365 H   0  0  0  0  0  0  0  0  0  0  0  0
  140.9860   73.3820  219.5830 H   0  0  0  0  0  0  0  0  0  0  0  0
  139.2127   76.0862  221.6576 H   0  0  0  0  0  0  0  0  0  0  0  0
  138.6860   74.7657  220.4744 H   0  0  0  0  0  0  0  0  0  0  0  0
  139.5460   74.3680  223.2180 H   0  0  0  0  0  0  0  0  0  0  0  0
  139.0350   70.1580  221.8029 H   0  0  0  0  0  0  0  0  0  0  0  0
  139.2173   68.4821  223.6437 H   0  0  0  0  0  0  0  0  0  0  0  0
  139.8880   68.0216  226.0180 H   0  0  0  0  0  0  0  0  0  0  0  0
  141.5015   71.2408  228.4002 H   0  0  0  0  0  0  0  0  0  0  0  0
  141.2414   72.7657  226.4459 H   0  0  0  0  0  0  0  0  0  0  0  0
  1  2  1  0
  2  3  2  0
  2  4  1  0
  4  5  1  0
  5  6  1  0
  6  7  2  0
  6  8  1  0
  8  9  1  0
  9 10  1  0
 10 11  2  0
 10 12  1  0
 12 13  2  0
 13 14  1  0
 14 15  2  0
 15 16  1  0
 16 17  2  0
 17 18  1  0
 17 19  1  0
 19 20  2  0
 20 21  1  0
 21 22  2  0
 22 12  1  0
 21 15  1  0
  1 23  1  0
  1 24  1  0
  4 25  1  0
  4 26  1  0
  5 27  1  0
  8 28  1  0
  8 29  1  0
  9 30  1  0
 13 31  1  0
 14 32  1  0
 16 33  1  0
 19 34  1  0
 20 35  1  0
M  END
>  <smiles>  (29) 
NC(=O)CNC(=O)CNC(=O)c1ccc2cc(Cl)ccc2n1

>  <score_type>  (29) 
oracle

>  <origin>  (29) 
autodockgpu

>  <m_score__min__energy>  (29) 
-7.2699999999999996

>  <m_primary>  (29) 
energy

>  <rmsd>  (29) 
2.1882015472208876

>  <m_score__min__rmsd>  (29) 
2.1882015472208876

>  <meeko>  (29) 
{"free_energy": -6.12, "intermolecular_energy": -7.61, "internal_energy": -2.43, "cluster_size": 16, "cluster_id": 3, "rank_in_cluster": 7}

>  <energy>  (29) 
-5.65

>  <cluster_rmsd>  (29) 
1.5

>  <cluster>  (29) 
2

$$$$

     RDKit          3D

 35 36  0  0  0  0  0  0  0  0999 V2000
  142.7050   77.7060  218.9080 N   0  0  0  0  0  0  0  0  0  0  0  0
  143.3390   76.4620  218.6340 C   0  0  0  0  0  0  0  0  0  0  0  0
  143.7890   76.1830  217.4740 O   0  0  0  0  0  0  0  0  0  0  0  0
  143.4540   75.5000  219.7590 C   0  0  0  0  0  0  0  0  0  0  0  0
  142.1740   74.9040  220.0900 N   0  0  0  0  0  0  0  0  0  0  0  0
  141.1860   75.7080  220.7100 C   0  0  0  0  0  0  0  0  0  0  0  0
  141.4930   76.9260  220.9470 O   0  0  0  0  0  0  0  0  0  0  0  0
  139.8480   75.2680  221.1040 C   0  0  0  0  0  0  0  0  0  0  0  0
  139.7840   74.2650  222.1190 N   0  0  0  0  0  0  0  0  0  0  0  0
  140.2610   72.9330  221.9110 C   0  0  0  0  0  0  0  0  0  0  0  0
  140.7660   72.5640  220.8030 O   0  0  0  0  0  0  0  0  0  0  0  0
  140.1710   71.9510  223.0030 C   0  0  0  0  0  0  0  0  0  0  0  0
  139.5900   70.7210  222.7830 C   0  0  0  0  0  0  0  0  0  0  0  0
  139.4930   69.7740  223.8050 C   0  0  0  0  0  0  0  0  0  0  0  0
  139.9900   70.0860  225.0440 C   0  0  0  0  0  0  0  0  0  0  0  0
  139.9510   69.2340  226.1270 C   0  0  0  0  0  0  0  0  0  0  0  0
  140.4760   69.6210  227.3550 C   0  0  0  0  0  0  0  0  0  0  0  0
  140.4100   68.5080  228.7150 Cl  0  0  0  0  0  0  0  0  0  0  0  0
  141.0520   70.8680  227.5310 C   0  0  0  0  0  0  0  0  0  0  0  0
  141.0890   71.7200  226.4450 C   0  0  0  0  0  0  0  0  0  0  0  0
  140.5670   71.3340  225.2260 C   0  0  0  0  0  0  0  0  0  0  0  0
  140.6530   72.2390  224.2270 N   0  0  0  0  0  0  0  0  0  0  0  0
  142.0340   78.1070  218.1940 H   0  0  0  0  0  0  0  0  0  0  0  0
  142.8820   78.2370  219.7950 H   0  0  0  0  0  0  0  0  0  0  0  0
  144.1557   74.7019  219.4749 H   0  0  0  0  0  0  0  0  0  0  0  0
  143.8151   76.0476  220.6420 H   0  0  0  0  0  0  0  0  0  0  0  0
  141.9810   73.9010  219.8850 H   0  0  0  0  0  0  0  0  0  0  0  0
  139.2995   76.1490  221.4686 H   0  0  0  0  0  0  0  0  0  0  0  0
  139.4161   74.8033  220.2054 H   0  0  0  0  0  0  0  0  0  0  0  0
  139.3780   74.4530  223.0850 H   0  0  0  0  0  0  0  0  0  0  0  0
  139.1956   70.4807  221.7847 H   0  0  0  0  0  0  0  0  0  0  0  0
  139.0262   68.7954  223.6191 H   0  0  0  0  0  0  0  0  0  0  0  0
  139.4995   68.2368  226.0185 H   0  0  0  0  0  0  0  0  0  0  0  0
  141.4665   71.1699  228.5042 H   0  0  0  0  0  0  0  0  0  0  0  0
  141.5395   72.7178  226.5520 H   0  0  0  0  0  0  0  0  0  0  0  0
  1  2  1  0
  2  3  2  0
  2  4  1  0
  4  5  1  0
  5  6  1  0
  6  7  2  0
  6  8  1  0
  8  9  1  0
  9 10  1  0
 10 11  2  0
 10 12  1  0
 12 13  2  0
 13 14  1  0
 14 15  2  0
 15 16  1  0
 16 17  2  0
 17 18  1  0
 17 19  1  0
 19 20  2  0
 20 21  1  0
 21 22  2  0
 22 12  1  0
 21 15  1  0
  1 23  1  0
  1 24  1  0
  4 25  1  0
  4 26  1  0
  5 27  1  0
  8 28  1  0
  8 29  1  0
  9 30  1  0
 13 31  1  0
 14 32  1  0
 16 33  1  0
 19 34  1  0
 20 35  1  0
M  END
>  <smiles>  (30) 
NC(=O)CNC(=O)CNC(=O)c1ccc2cc(Cl)ccc2n1

>  <score_type>  (30) 
oracle

>  <origin>  (30) 
autodockgpu

>  <m_score__min__energy>  (30) 
-7.2699999999999996

>  <m_primary>  (30) 
energy

>  <rmsd>  (30) 
2.2687704033742166

>  <m_score__min__rmsd>  (30) 
2.2687704033742166

>  <meeko>  (30) 
{"free_energy": -6.05, "intermolecular_energy": -7.54, "internal_energy": -2.07, "cluster_size": 16, "cluster_id": 3, "rank_in_cluster": 10}

>  <energy>  (30) 
-5.63

>  <cluster_rmsd>  (30) 
1.49

>  <cluster>  (30) 
2

$$$$

     RDKit          3D

 35 36  0  0  0  0  0  0  0  0999 V2000
  141.7390   78.8700  220.5660 N   0  0  0  0  0  0  0  0  0  0  0  0
  141.8840   79.2980  221.9150 C   0  0  0  0  0  0  0  0  0  0  0  0
  142.5290   80.3570  222.2140 O   0  0  0  0  0  0  0  0  0  0  0  0
  141.2500   78.4590  222.9620 C   0  0  0  0  0  0  0  0  0  0  0  0
  141.1410   77.0730  222.5470 N   0  0  0  0  0  0  0  0  0  0  0  0
  140.0440   76.6860  221.7400 C   0  0  0  0  0  0  0  0  0  0  0  0
  139.2030   77.5970  221.4270 O   0  0  0  0  0  0  0  0  0  0  0  0
  139.7870   75.3390  221.2340 C   0  0  0  0  0  0  0  0  0  0  0  0
  139.7090   74.2980  222.2100 N   0  0  0  0  0  0  0  0  0  0  0  0
  140.3560   73.0340  222.0360 C   0  0  0  0  0  0  0  0  0  0  0  0
  141.0340   72.7630  220.9940 O   0  0  0  0  0  0  0  0  0  0  0  0
  140.2410   72.0100  223.0850 C   0  0  0  0  0  0  0  0  0  0  0  0
  139.6590   70.7920  222.8050 C   0  0  0  0  0  0  0  0  0  0  0  0
  139.5390   69.8060  223.7860 C   0  0  0  0  0  0  0  0  0  0  0  0
  140.0130   70.0650  225.0460 C   0  0  0  0  0  0  0  0  0  0  0  0
  139.9500   69.1710  226.0930 C   0  0  0  0  0  0  0  0  0  0  0  0
  140.4520   69.5060  227.3450 C   0  0  0  0  0  0  0  0  0  0  0  0
  140.3550   68.3400  228.6580 Cl  0  0  0  0  0  0  0  0  0  0  0  0
  141.0290   70.7420  227.5820 C   0  0  0  0  0  0  0  0  0  0  0  0
  141.0910   71.6370  226.5320 C   0  0  0  0  0  0  0  0  0  0  0  0
  140.5920   71.3020  225.2890 C   0  0  0  0  0  0  0  0  0  0  0  0
  140.7000   72.2460  224.3290 N   0  0  0  0  0  0  0  0  0  0  0  0
  142.5720   78.9390  219.9150 H   0  0  0  0  0  0  0  0  0  0  0  0
  140.8350   78.4890  220.1970 H   0  0  0  0  0  0  0  0  0  0  0  0
  141.8588   78.5102  223.8768 H   0  0  0  0  0  0  0  0  0  0  0  0
  140.2352   78.8437  223.1413 H   0  0  0  0  0  0  0  0  0  0  0  0
  141.8500   76.3690  222.8410 H   0  0  0  0  0  0  0  0  0  0  0  0
  138.8301   75.3620  220.6919 H   0  0  0  0  0  0  0  0  0  0  0  0
  140.6580   75.0900  220.6100 H   0  0  0  0  0  0  0  0  0  0  0  0
  139.1660   74.4060  223.1190 H   0  0  0  0  0  0  0  0  0  0  0  0
  139.2825   70.5936  221.7907 H   0  0  0  0  0  0  0  0  0  0  0  0
  139.0721   68.8379  223.5520 H   0  0  0  0  0  0  0  0  0  0  0  0
  139.4972   68.1809  225.9360 H   0  0  0  0  0  0  0  0  0  0  0  0
  141.4252   71.0027  228.5745 H   0  0  0  0  0  0  0  0  0  0  0  0
  141.5429   72.6277  226.6877 H   0  0  0  0  0  0  0  0  0  0  0  0
  1  2  1  0
  2  3  2  0
  2  4  1  0
  4  5  1  0
  5  6  1  0
  6  7  2  0
  6  8  1  0
  8  9  1  0
  9 10  1  0
 10 11  2  0
 10 12  1  0
 12 13  2  0
 13 14  1  0
 14 15  2  0
 15 16  1  0
 16 17  2  0
 17 18  1  0
 17 19  1  0
 19 20  2  0
 20 21  1  0
 21 22  2  0
 22 12  1  0
 21 15  1  0
  1 23  1  0
  1 24  1  0
  4 25  1  0
  4 26  1  0
  5 27  1  0
  8 28  1  0
  8 29  1  0
  9 30  1  0
 13 31  1  0
 14 32  1  0
 16 33  1  0
 19 34  1  0
 20 35  1  0
M  END
>  <smiles>  (31) 
NC(=O)CNC(=O)CNC(=O)c1ccc2cc(Cl)ccc2n1

>  <score_type>  (31) 
oracle

>  <origin>  (31) 
autodockgpu

>  <m_score__min__energy>  (31) 
-7.2699999999999996

>  <m_primary>  (31) 
energy

>  <rmsd>  (31) 
2.18585187060841

>  <m_score__min__rmsd>  (31) 
2.18585187060841

>  <meeko>  (31) 
{"free_energy": -6.83, "intermolecular_energy": -8.32, "internal_energy": -1.45, "cluster_size": 21, "cluster_id": 1, "rank_in_cluster": 4}

>  <energy>  (31) 
-6.45

>  <cluster_rmsd>  (31) 
0.0

>  <cluster>  (31) 
3

$$$$

     RDKit          3D

 35 36  0  0  0  0  0  0  0  0999 V2000
  140.6050   67.7600  227.5960 N   0  0  0  0  0  0  0  0  0  0  0  0
  140.1050   68.1210  226.3150 C   0  0  0  0  0  0  0  0  0  0  0  0
  139.2060   67.4300  225.7290 O   0  0  0  0  0  0  0  0  0  0  0  0
  140.6740   69.3390  225.6850 C   0  0  0  0  0  0  0  0  0  0  0  0
  139.9250   69.7340  224.5070 N   0  0  0  0  0  0  0  0  0  0  0  0
  139.9550   71.0910  224.1030 C   0  0  0  0  0  0  0  0  0  0  0  0
  140.6480   71.8950  224.8170 O   0  0  0  0  0  0  0  0  0  0  0  0
  139.2650   71.6550  222.9440 C   0  0  0  0  0  0  0  0  0  0  0  0
  139.6000   73.0000  222.5980 N   0  0  0  0  0  0  0  0  0  0  0  0
  140.7420   73.3250  221.8000 C   0  0  0  0  0  0  0  0  0  0  0  0
  141.5290   72.4290  221.3570 O   0  0  0  0  0  0  0  0  0  0  0  0
  141.0240   74.7310  221.4750 C   0  0  0  0  0  0  0  0  0  0  0  0
  141.8380   75.0470  220.4080 C   0  0  0  0  0  0  0  0  0  0  0  0
  142.1190   76.3750  220.0820 C   0  0  0  0  0  0  0  0  0  0  0  0
  141.5700   77.3730  220.8440 C   0  0  0  0  0  0  0  0  0  0  0  0
  141.7760   78.7180  220.6180 C   0  0  0  0  0  0  0  0  0  0  0  0
  141.1840   79.6740  221.4360 C   0  0  0  0  0  0  0  0  0  0  0  0
  141.4690   81.3810  221.1180 Cl  0  0  0  0  0  0  0  0  0  0  0  0
  140.3730   79.3120  222.4970 C   0  0  0  0  0  0  0  0  0  0  0  0
  140.1680   77.9650  222.7210 C   0  0  0  0  0  0  0  0  0  0  0  0
  140.7560   77.0160  221.9090 C   0  0  0  0  0  0  0  0  0  0  0  0
  140.4940   75.7260  222.2110 N   0  0  0  0  0  0  0  0  0  0  0  0
  140.7940   66.7380  227.8030 H   0  0  0  0  0  0  0  0  0  0  0  0
  140.7930   68.4730  228.3410 H   0  0  0  0  0  0  0  0  0  0  0  0
  140.6506   70.1618  226.4147 H   0  0  0  0  0  0  0  0  0  0  0  0
  141.7057   69.1150  225.3761 H   0  0  0  0  0  0  0  0  0  0  0  0
  139.3680   69.0390  223.9680 H   0  0  0  0  0  0  0  0  0  0  0  0
  139.4940   71.0192  222.0761 H   0  0  0  0  0  0  0  0  0  0  0  0
  138.2009   71.6810  223.2215 H   0  0  0  0  0  0  0  0  0  0  0  0
  139.0190   73.8350  222.9140 H   0  0  0  0  0  0  0  0  0  0  0  0
  142.2737   74.2383  219.8029 H   0  0  0  0  0  0  0  0  0  0  0  0
  142.7697   76.6161  219.2285 H   0  0  0  0  0  0  0  0  0  0  0  0
  142.4153   79.0377  219.7819 H   0  0  0  0  0  0  0  0  0  0  0  0
  139.9069   80.0723  223.1409 H   0  0  0  0  0  0  0  0  0  0  0  0
  139.5285   77.6443  223.5565 H   0  0  0  0  0  0  0  0  0  0  0  0
  1  2  1  0
  2  3  2  0
  2  4  1  0
  4  5  1  0
  5  6  1  0
  6  7  2  0
  6  8  1  0
  8  9  1  0
  9 10  1  0
 10 11  2  0
 10 12  1  0
 12 13  2  0
 13 14  1  0
 14 15  2  0
 15 16  1  0
 16 17  2  0
 17 18  1  0
 17 19  1  0
 19 20  2  0
 20 21  1  0
 21 22  2  0
 22 12  1  0
 21 15  1  0
  1 23  1  0
  1 24  1  0
  4 25  1  0
  4 26  1  0
  5 27  1  0
  8 28  1  0
  8 29  1  0
  9 30  1  0
 13 31  1  0
 14 32  1  0
 16 33  1  0
 19 34  1  0
 20 35  1  0
M  END
>  <smiles>  (32) 
NC(=O)CNC(=O)CNC(=O)c1ccc2cc(Cl)ccc2n1

>  <score_type>  (32) 
oracle

>  <origin>  (32) 
autodockgpu

>  <m_score__min__energy>  (32) 
-7.2699999999999996

>  <m_primary>  (32) 
energy

>  <rmsd>  (32) 
8.417629321095712

>  <m_score__min__rmsd>  (32) 
8.417629321095712

>  <meeko>  (32) 
{"free_energy": -6.57, "intermolecular_energy": -8.07, "internal_energy": -1.53, "cluster_size": 9, "cluster_id": 2, "rank_in_cluster": 1}

>  <energy>  (32) 
-6.25

>  <cluster_rmsd>  (32) 
0.24

>  <cluster>  (32) 
3

$$$$

     RDKit          3D

 35 36  0  0  0  0  0  0  0  0999 V2000
  141.1940   77.3370  221.7060 N   0  0  0  0  0  0  0  0  0  0  0  0
  140.3350   77.9310  222.6700 C   0  0  0  0  0  0  0  0  0  0  0  0
  140.7390   78.8650  223.4400 O   0  0  0  0  0  0  0  0  0  0  0  0
  138.9440   77.4180  222.7440 C   0  0  0  0  0  0  0  0  0  0  0  0
  138.8970   75.9740  222.6240 N   0  0  0  0  0  0  0  0  0  0  0  0
  138.9000   75.3940  221.3320 C   0  0  0  0  0  0  0  0  0  0  0  0
  138.9390   76.1960  220.3360 O   0  0  0  0  0  0  0  0  0  0  0  0
  138.8600   73.9630  221.0350 C   0  0  0  0  0  0  0  0  0  0  0  0
  139.1290   73.0810  222.1250 N   0  0  0  0  0  0  0  0  0  0  0  0
  138.9170   71.6690  222.0390 C   0  0  0  0  0  0  0  0  0  0  0  0
  138.4690   71.1190  220.9830 O   0  0  0  0  0  0  0  0  0  0  0  0
  139.2240   70.8170  223.1980 C   0  0  0  0  0  0  0  0  0  0  0  0
  138.8930   69.4790  223.1830 C   0  0  0  0  0  0  0  0  0  0  0  0
  139.1730   68.6530  224.2720 C   0  0  0  0  0  0  0  0  0  0  0  0
  139.7900   69.1930  225.3710 C   0  0  0  0  0  0  0  0  0  0  0  0
  140.1160   68.4770  226.5030 C   0  0  0  0  0  0  0  0  0  0  0  0
  140.7410   69.0960  227.5800 C   0  0  0  0  0  0  0  0  0  0  0  0
  141.1430   68.1510  229.0080 Cl  0  0  0  0  0  0  0  0  0  0  0  0
  141.0560   70.4430  227.5520 C   0  0  0  0  0  0  0  0  0  0  0  0
  140.7280   71.1590  226.4180 C   0  0  0  0  0  0  0  0  0  0  0  0
  140.1070   70.5430  225.3490 C   0  0  0  0  0  0  0  0  0  0  0  0
  139.8280   71.3300  224.2870 N   0  0  0  0  0  0  0  0  0  0  0  0
  142.1970   77.1260  221.9740 H   0  0  0  0  0  0  0  0  0  0  0  0
  140.8660   77.1000  220.7390 H   0  0  0  0  0  0  0  0  0  0  0  0
  138.5077   77.7096  223.7107 H   0  0  0  0  0  0  0  0  0  0  0  0
  138.3747   77.8499  221.9077 H   0  0  0  0  0  0  0  0  0  0  0  0
  138.8530   75.3680  223.4700 H   0  0  0  0  0  0  0  0  0  0  0  0
  137.8550   73.7281  220.6545 H   0  0  0  0  0  0  0  0  0  0  0  0
  139.6719   73.7915  220.3129 H   0  0  0  0  0  0  0  0  0  0  0  0
  139.5030   73.4240  223.0610 H   0  0  0  0  0  0  0  0  0  0  0  0
  138.3991   69.0548  222.2964 H   0  0  0  0  0  0  0  0  0  0  0  0
  138.9034   67.5868  224.2493 H   0  0  0  0  0  0  0  0  0  0  0  0
  139.8791   67.4041  226.5549 H   0  0  0  0  0  0  0  0  0  0  0  0
  141.5518   70.9279  228.4058 H   0  0  0  0  0  0  0  0  0  0  0  0
  140.9639   72.2321  226.3652 H   0  0  0  0  0  0  0  0  0  0  0  0
  1  2  1  0
  2  3  2  0
  2  4  1  0
  4  5  1  0
  5  6  1  0
  6  7  2  0
  6  8  1  0
  8  9  1  0
  9 10  1  0
 10 11  2  0
 10 12  1  0
 12 13  2  0
 13 14  1  0
 14 15  2  0
 15 16  1  0
 16 17  2  0
 17 18  1  0
 17 19  1  0
 19 20  2  0
 20 21  1  0
 21 22  2  0
 22 12  1  0
 21 15  1  0
  1 23  1  0
  1 24  1  0
  4 25  1  0
  4 26  1  0
  5 27  1  0
  8 28  1  0
  8 29  1  0
  9 30  1  0
 13 31  1  0
 14 32  1  0
 16 33  1  0
 19 34  1  0
 20 35  1  0
M  END
>  <smiles>  (33) 
NC(=O)CNC(=O)CNC(=O)c1ccc2cc(Cl)ccc2n1

>  <score_type>  (33) 
oracle

>  <origin>  (33) 
autodockgpu

>  <m_score__min__energy>  (33) 
-7.2699999999999996

>  <m_primary>  (33) 
energy

>  <rmsd>  (33) 
1.6128534035078075

>  <m_score__min__rmsd>  (33) 
1.6128534035078075

>  <meeko>  (33) 
{"free_energy": -6.42, "intermolecular_energy": -7.91, "internal_energy": -1.75, "cluster_size": 21, "cluster_id": 1, "rank_in_cluster": 13}

>  <energy>  (33) 
-6.18

>  <cluster_rmsd>  (33) 
1.65

>  <cluster>  (33) 
3

$$$$

     RDKit          3D

 35 36  0  0  0  0  0  0  0  0999 V2000
  142.6440   79.0880  222.0270 N   0  0  0  0  0  0  0  0  0  0  0  0
  141.6160   79.1090  223.0100 C   0  0  0  0  0  0  0  0  0  0  0  0
  141.7840   79.6770  224.1400 O   0  0  0  0  0  0  0  0  0  0  0  0
  140.3370   78.4390  222.6650 C   0  0  0  0  0  0  0  0  0  0  0  0
  140.5380   77.0490  222.3050 N   0  0  0  0  0  0  0  0  0  0  0  0
  139.5300   76.3810  221.5680 C   0  0  0  0  0  0  0  0  0  0  0  0
  138.4870   77.0570  221.2660 O   0  0  0  0  0  0  0  0  0  0  0  0
  139.5730   74.9890  221.1230 C   0  0  0  0  0  0  0  0  0  0  0  0
  139.6440   73.9970  222.1490 N   0  0  0  0  0  0  0  0  0  0  0  0
  139.7980   72.6050  221.8600 C   0  0  0  0  0  0  0  0  0  0  0  0
  139.8760   72.1700  220.6670 O   0  0  0  0  0  0  0  0  0  0  0  0
  139.8710   71.6380  222.9660 C   0  0  0  0  0  0  0  0  0  0  0  0
  139.4590   70.3360  222.7770 C   0  0  0  0  0  0  0  0  0  0  0  0
  139.5190   69.4020  223.8130 C   0  0  0  0  0  0  0  0  0  0  0  0
  139.9990   69.7980  225.0340 C   0  0  0  0  0  0  0  0  0  0  0  0
  140.1050   68.9670  226.1290 C   0  0  0  0  0  0  0  0  0  0  0  0
  140.6020   69.4420  227.3370 C   0  0  0  0  0  0  0  0  0  0  0  0
  140.7240   68.3520  228.7120 Cl  0  0  0  0  0  0  0  0  0  0  0  0
  141.0060   70.7580  227.4810 C   0  0  0  0  0  0  0  0  0  0  0  0
  140.8990   71.5890  226.3840 C   0  0  0  0  0  0  0  0  0  0  0  0
  140.4050   71.1160  225.1850 C   0  0  0  0  0  0  0  0  0  0  0  0
  140.3400   72.0080  224.1720 N   0  0  0  0  0  0  0  0  0  0  0  0
  143.6430   78.9140  222.3330 H   0  0  0  0  0  0  0  0  0  0  0  0
  142.4430   79.2400  221.0090 H   0  0  0  0  0  0  0  0  0  0  0  0
  139.6636   78.4882  223.5334 H   0  0  0  0  0  0  0  0  0  0  0  0
  139.9021   78.9576  221.7979 H   0  0  0  0  0  0  0  0  0  0  0  0
  141.4030   76.5420  222.5880 H   0  0  0  0  0  0  0  0  0  0  0  0
  138.6638   74.7974  220.5343 H   0  0  0  0  0  0  0  0  0  0  0  0
  140.5108   74.8917  220.5564 H   0  0  0  0  0  0  0  0  0  0  0  0
  139.5850   74.2390  223.1840 H   0  0  0  0  0  0  0  0  0  0  0  0
  139.0764   70.0277  221.7929 H   0  0  0  0  0  0  0  0  0  0  0  0
  139.1866   68.3659  223.6519 H   0  0  0  0  0  0  0  0  0  0  0  0
  139.7925   67.9156  226.0456 H   0  0  0  0  0  0  0  0  0  0  0  0
  141.3996   71.1296  228.4386 H   0  0  0  0  0  0  0  0  0  0  0  0
  141.2111   72.6406  226.4663 H   0  0  0  0  0  0  0  0  0  0  0  0
  1  2  1  0
  2  3  2  0
  2  4  1  0
  4  5  1  0
  5  6  1  0
  6  7  2  0
  6  8  1  0
  8  9  1  0
  9 10  1  0
 10 11  2  0
 10 12  1  0
 12 13  2  0
 13 14  1  0
 14 15  2  0
 15 16  1  0
 16 17  2  0
 17 18  1  0
 17 19  1  0
 19 20  2  0
 20 21  1  0
 21 22  2  0
 22 12  1  0
 21 15  1  0
  1 23  1  0
  1 24  1  0
  4 25  1  0
  4 26  1  0
  5 27  1  0
  8 28  1  0
  8 29  1  0
  9 30  1  0
 13 31  1  0
 14 32  1  0
 16 33  1  0
 19 34  1  0
 20 35  1  0
M  END
>  <smiles>  (34) 
NC(=O)CNC(=O)CNC(=O)c1ccc2cc(Cl)ccc2n1

>  <score_type>  (34) 
oracle

>  <origin>  (34) 
autodockgpu

>  <m_score__min__energy>  (34) 
-7.2699999999999996

>  <m_primary>  (34) 
energy

>  <rmsd>  (34) 
2.0214133960975

>  <m_score__min__rmsd>  (34) 
2.0214133960975

>  <meeko>  (34) 
{"free_energy": -7.16, "intermolecular_energy": -8.65, "internal_energy": -1.02, "cluster_size": 21, "cluster_id": 1, "rank_in_cluster": 2}

>  <energy>  (34) 
-6.18

>  <cluster_rmsd>  (34) 
1.69

>  <cluster>  (34) 
3

$$$$

     RDKit          3D

 35 36  0  0  0  0  0  0  0  0999 V2000
  144.3100   72.2740  220.8750 N   0  0  0  0  0  0  0  0  0  0  0  0
  144.7820   73.3300  220.0480 C   0  0  0  0  0  0  0  0  0  0  0  0
  145.8820   73.2360  219.4080 O   0  0  0  0  0  0  0  0  0  0  0  0
  143.9410   74.5500  219.9620 C   0  0  0  0  0  0  0  0  0  0  0  0
  142.7130   74.4100  220.7210 N   0  0  0  0  0  0  0  0  0  0  0  0
  141.5650   75.1270  220.3010 C   0  0  0  0  0  0  0  0  0  0  0  0
  141.6890   75.8670  219.2660 O   0  0  0  0  0  0  0  0  0  0  0  0
  140.2540   75.0980  220.9470 C   0  0  0  0  0  0  0  0  0  0  0  0
  140.0730   74.1200  221.9730 N   0  0  0  0  0  0  0  0  0  0  0  0
  140.5540   72.7790  221.8460 C   0  0  0  0  0  0  0  0  0  0  0  0
  141.1660   72.3790  220.8050 O   0  0  0  0  0  0  0  0  0  0  0  0
  140.3400   71.8250  222.9450 C   0  0  0  0  0  0  0  0  0  0  0  0
  139.7520   70.6020  222.6990 C   0  0  0  0  0  0  0  0  0  0  0  0
  139.5400   69.6820  223.7270 C   0  0  0  0  0  0  0  0  0  0  0  0
  139.9280   70.0120  224.9990 C   0  0  0  0  0  0  0  0  0  0  0  0
  139.7690   69.1860  226.0920 C   0  0  0  0  0  0  0  0  0  0  0  0
  140.1870   69.5910  227.3550 C   0  0  0  0  0  0  0  0  0  0  0  0
  139.9700   68.5110  228.7270 Cl  0  0  0  0  0  0  0  0  0  0  0  0
  140.7740   70.8280  227.5570 C   0  0  0  0  0  0  0  0  0  0  0  0
  140.9320   71.6530  226.4610 C   0  0  0  0  0  0  0  0  0  0  0  0
  140.5150   71.2510  225.2080 C   0  0  0  0  0  0  0  0  0  0  0  0
  140.7140   72.1300  224.2020 N   0  0  0  0  0  0  0  0  0  0  0  0
  145.0000   71.7550  221.4890 H   0  0  0  0  0  0  0  0  0  0  0  0
  143.2990   71.9940  220.8960 H   0  0  0  0  0  0  0  0  0  0  0  0
  144.5099   75.4038  220.3588 H   0  0  0  0  0  0  0  0  0  0  0  0
  143.6753   74.7095  218.9066 H   0  0  0  0  0  0  0  0  0  0  0  0
  142.6710   73.8020  221.5650 H   0  0  0  0  0  0  0  0  0  0  0  0
  140.0789   76.0879  221.3936 H   0  0  0  0  0  0  0  0  0  0  0  0
  139.5431   74.8242  220.1535 H   0  0  0  0  0  0  0  0  0  0  0  0
  139.5720   74.3350  222.8870 H   0  0  0  0  0  0  0  0  0  0  0  0
  139.4445   70.3470  221.6741 H   0  0  0  0  0  0  0  0  0  0  0  0
  139.0698   68.7094  223.5197 H   0  0  0  0  0  0  0  0  0  0  0  0
  139.3066   68.1962  225.9633 H   0  0  0  0  0  0  0  0  0  0  0  0
  141.1039   71.1436  228.5578 H   0  0  0  0  0  0  0  0  0  0  0  0
  141.3957   72.6424  226.5879 H   0  0  0  0  0  0  0  0  0  0  0  0
  1  2  1  0
  2  3  2  0
  2  4  1  0
  4  5  1  0
  5  6  1  0
  6  7  2  0
  6  8  1  0
  8  9  1  0
  9 10  1  0
 10 11  2  0
 10 12  1  0
 12 13  2  0
 13 14  1  0
 14 15  2  0
 15 16  1  0
 16 17  2  0
 17 18  1  0
 17 19  1  0
 19 20  2  0
 20 21  1  0
 21 22  2  0
 22 12  1  0
 21 15  1  0
  1 23  1  0
  1 24  1  0
  4 25  1  0
  4 26  1  0
  5 27  1  0
  8 28  1  0
  8 29  1  0
  9 30  1  0
 13 31  1  0
 14 32  1  0
 16 33  1  0
 19 34  1  0
 20 35  1  0
M  END
>  <smiles>  (35) 
NC(=O)CNC(=O)CNC(=O)c1ccc2cc(Cl)ccc2n1

>  <score_type>  (35) 
oracle

>  <origin>  (35) 
autodockgpu

>  <m_score__min__energy>  (35) 
-7.2699999999999996

>  <m_primary>  (35) 
energy

>  <rmsd>  (35) 
3.1651489592814674

>  <m_score__min__rmsd>  (35) 
3.1651489592814674

>  <meeko>  (35) 
{"free_energy": -6.45, "intermolecular_energy": -7.94, "internal_energy": -2.14, "cluster_size": 16, "cluster_id": 3, "rank_in_cluster": 1}

>  <energy>  (35) 
-6.16

>  <cluster_rmsd>  (35) 
1.46

>  <cluster>  (35) 
3

$$$$

     RDKit          3D

 35 36  0  0  0  0  0  0  0  0999 V2000
  141.1120   76.4810  222.6030 N   0  0  0  0  0  0  0  0  0  0  0  0
  141.1810   77.6370  221.7780 C   0  0  0  0  0  0  0  0  0  0  0  0
  141.1570   78.8140  222.2720 O   0  0  0  0  0  0  0  0  0  0  0  0
  141.2810   77.4180  220.3140 C   0  0  0  0  0  0  0  0  0  0  0  0
  140.6360   76.1840  219.9090 N   0  0  0  0  0  0  0  0  0  0  0  0
  141.3440   74.9650  220.0460 C   0  0  0  0  0  0  0  0  0  0  0  0
  142.5300   75.0320  220.5210 O   0  0  0  0  0  0  0  0  0  0  0  0
  140.8420   73.6380  219.6920 C   0  0  0  0  0  0  0  0  0  0  0  0
  140.7460   72.6910  220.7580 N   0  0  0  0  0  0  0  0  0  0  0  0
  140.2660   73.0470  222.0580 C   0  0  0  0  0  0  0  0  0  0  0  0
  139.9040   74.2330  222.3400 O   0  0  0  0  0  0  0  0  0  0  0  0
  140.1850   72.0200  223.1070 C   0  0  0  0  0  0  0  0  0  0  0  0
  139.5930   70.8030  222.8430 C   0  0  0  0  0  0  0  0  0  0  0  0
  139.5050   69.8140  223.8250 C   0  0  0  0  0  0  0  0  0  0  0  0
  140.0210   70.0690  225.0690 C   0  0  0  0  0  0  0  0  0  0  0  0
  139.9920   69.1720  226.1150 C   0  0  0  0  0  0  0  0  0  0  0  0
  140.5360   69.5030  227.3510 C   0  0  0  0  0  0  0  0  0  0  0  0
  140.4810   68.3330  228.6630 Cl  0  0  0  0  0  0  0  0  0  0  0  0
  141.1220   70.7370  227.5720 C   0  0  0  0  0  0  0  0  0  0  0  0
  141.1500   71.6350  226.5230 C   0  0  0  0  0  0  0  0  0  0  0  0
  140.6090   71.3050  225.2960 C   0  0  0  0  0  0  0  0  0  0  0  0
  140.6860   72.2520  224.3350 N   0  0  0  0  0  0  0  0  0  0  0  0
  140.4420   76.4760  223.4230 H   0  0  0  0  0  0  0  0  0  0  0  0
  141.7050   75.6350  222.4250 H   0  0  0  0  0  0  0  0  0  0  0  0
  140.7988   78.2591  219.7944 H   0  0  0  0  0  0  0  0  0  0  0  0
  142.3468   77.3493  220.0505 H   0  0  0  0  0  0  0  0  0  0  0  0
  139.6710   76.1880  219.5170 H   0  0  0  0  0  0  0  0  0  0  0  0
  139.8365   73.7635  219.2640 H   0  0  0  0  0  0  0  0  0  0  0  0
  141.5840   73.2205  218.9955 H   0  0  0  0  0  0  0  0  0  0  0  0
  141.0240   71.6700  220.6440 H   0  0  0  0  0  0  0  0  0  0  0  0
  139.1828   70.6077  221.8412 H   0  0  0  0  0  0  0  0  0  0  0  0
  139.0297   68.8469  223.6040 H   0  0  0  0  0  0  0  0  0  0  0  0
  139.5332   68.1828  225.9703 H   0  0  0  0  0  0  0  0  0  0  0  0
  141.5516   70.9944  228.5514 H   0  0  0  0  0  0  0  0  0  0  0  0
  141.6085   72.6245  226.6665 H   0  0  0  0  0  0  0  0  0  0  0  0
  1  2  1  0
  2  3  2  0
  2  4  1  0
  4  5  1  0
  5  6  1  0
  6  7  2  0
  6  8  1  0
  8  9  1  0
  9 10  1  0
 10 11  2  0
 10 12  1  0
 12 13  2  0
 13 14  1  0
 14 15  2  0
 15 16  1  0
 16 17  2  0
 17 18  1  0
 17 19  1  0
 19 20  2  0
 20 21  1  0
 21 22  2  0
 22 12  1  0
 21 15  1  0
  1 23  1  0
  1 24  1  0
  4 25  1  0
  4 26  1  0
  5 27  1  0
  8 28  1  0
  8 29  1  0
  9 30  1  0
 13 31  1  0
 14 32  1  0
 16 33  1  0
 19 34  1  0
 20 35  1  0
M  END
>  <smiles>  (36) 
NC(=O)CNC(=O)CNC(=O)c1ccc2cc(Cl)ccc2n1

>  <score_type>  (36) 
oracle

>  <origin>  (36) 
autodockgpu

>  <m_score__min__energy>  (36) 
-7.2699999999999996

>  <m_primary>  (36) 
energy

>  <rmsd>  (36) 
2.115364785992351

>  <m_score__min__rmsd>  (36) 
2.115364785992351

>  <meeko>  (36) 
{"free_energy": -5.75, "intermolecular_energy": -7.24, "internal_energy": -2.2, "cluster_size": 21, "cluster_id": 1, "rank_in_cluster": 21}

>  <energy>  (36) 
-6.12

>  <cluster_rmsd>  (36) 
1.59

>  <cluster>  (36) 
3

$$$$

     RDKit          3D

 35 36  0  0  0  0  0  0  0  0999 V2000
  140.9430   76.4590  221.3890 N   0  0  0  0  0  0  0  0  0  0  0  0
  139.9850   77.2380  222.0940 C   0  0  0  0  0  0  0  0  0  0  0  0
  140.3100   78.3170  222.6920 O   0  0  0  0  0  0  0  0  0  0  0  0
  138.5860   76.7410  222.1060 C   0  0  0  0  0  0  0  0  0  0  0  0
  138.5250   75.3040  221.9140 N   0  0  0  0  0  0  0  0  0  0  0  0
  138.6150   74.7860  220.5990 C   0  0  0  0  0  0  0  0  0  0  0  0
  138.7420   75.6330  219.6490 O   0  0  0  0  0  0  0  0  0  0  0  0
  138.5740   73.3720  220.2310 C   0  0  0  0  0  0  0  0  0  0  0  0
  138.7590   72.4340  221.2930 N   0  0  0  0  0  0  0  0  0  0  0  0
  139.7350   72.6230  222.3210 C   0  0  0  0  0  0  0  0  0  0  0  0
  140.5020   73.6380  222.3430 O   0  0  0  0  0  0  0  0  0  0  0  0
  139.8670   71.6210  223.3900 C   0  0  0  0  0  0  0  0  0  0  0  0
  139.4720   70.3190  223.1720 C   0  0  0  0  0  0  0  0  0  0  0  0
  139.5870   69.3520  224.1730 C   0  0  0  0  0  0  0  0  0  0  0  0
  140.1040   69.7170  225.3890 C   0  0  0  0  0  0  0  0  0  0  0  0
  140.2650   68.8520  226.4500 C   0  0  0  0  0  0  0  0  0  0  0  0
  140.7980   69.2960  227.6550 C   0  0  0  0  0  0  0  0  0  0  0  0
  140.9900   68.1630  228.9870 Cl  0  0  0  0  0  0  0  0  0  0  0  0
  141.1820   70.6140  227.8290 C   0  0  0  0  0  0  0  0  0  0  0  0
  141.0200   71.4790  226.7650 C   0  0  0  0  0  0  0  0  0  0  0  0
  140.4900   71.0370  225.5690 C   0  0  0  0  0  0  0  0  0  0  0  0
  140.3720   71.9600  224.5910 N   0  0  0  0  0  0  0  0  0  0  0  0
  141.9030   76.3190  221.8140 H   0  0  0  0  0  0  0  0  0  0  0  0
  140.7290   76.0210  220.4610 H   0  0  0  0  0  0  0  0  0  0  0  0
  138.1272   76.9911  223.0740 H   0  0  0  0  0  0  0  0  0  0  0  0
  138.0446   77.2208  221.2773 H   0  0  0  0  0  0  0  0  0  0  0  0
  138.4090   74.6600  222.7250 H   0  0  0  0  0  0  0  0  0  0  0  0
  137.5927   73.1729  219.7756 H   0  0  0  0  0  0  0  0  0  0  0  0
  139.4286   73.2208  219.5551 H   0  0  0  0  0  0  0  0  0  0  0  0
  138.1800   71.5450  221.3790 H   0  0  0  0  0  0  0  0  0  0  0  0
  139.0589   70.0364  222.1925 H   0  0  0  0  0  0  0  0  0  0  0  0
  139.2683   68.3154  223.9889 H   0  0  0  0  0  0  0  0  0  0  0  0
  139.9684   67.7982  226.3422 H   0  0  0  0  0  0  0  0  0  0  0  0
  141.6027   70.9614  228.7841 H   0  0  0  0  0  0  0  0  0  0  0  0
  141.3167   72.5329  226.8714 H   0  0  0  0  0  0  0  0  0  0  0  0
  1  2  1  0
  2  3  2  0
  2  4  1  0
  4  5  1  0
  5  6  1  0
  6  7  2  0
  6  8  1  0
  8  9  1  0
  9 10  1  0
 10 11  2  0
 10 12  1  0
 12 13  2  0
 13 14  1  0
 14 15  2  0
 15 16  1  0
 16 17  2  0
 17 18  1  0
 17 19  1  0
 19 20  2  0
 20 21  1  0
 21 22  2  0
 22 12  1  0
 21 15  1  0
  1 23  1  0
  1 24  1  0
  4 25  1  0
  4 26  1  0
  5 27  1  0
  8 28  1  0
  8 29  1  0
  9 30  1  0
 13 31  1  0
 14 32  1  0
 16 33  1  0
 19 34  1  0
 20 35  1  0
M  END
>  <smiles>  (37) 
NC(=O)CNC(=O)CNC(=O)c1ccc2cc(Cl)ccc2n1

>  <score_type>  (37) 
oracle

>  <origin>  (37) 
autodockgpu

>  <m_score__min__energy>  (37) 
-7.2699999999999996

>  <m_primary>  (37) 
energy

>  <rmsd>  (37) 
1.8185340589917234

>  <m_score__min__rmsd>  (37) 
1.8185340589917234

>  <meeko>  (37) 
{"free_energy": -6.6, "intermolecular_energy": -8.09, "internal_energy": -1.92, "cluster_size": 21, "cluster_id": 1, "rank_in_cluster": 9}

>  <energy>  (37) 
-6.12

>  <cluster_rmsd>  (37) 
1.5

>  <cluster>  (37) 
3

$$$$

     RDKit          3D

 35 36  0  0  0  0  0  0  0  0999 V2000
  143.3050   76.7970  219.5820 N   0  0  0  0  0  0  0  0  0  0  0  0
  143.7080   75.4630  219.8650 C   0  0  0  0  0  0  0  0  0  0  0  0
  144.8070   75.2100  220.4630 O   0  0  0  0  0  0  0  0  0  0  0  0
  142.7960   74.3750  219.4330 C   0  0  0  0  0  0  0  0  0  0  0  0
  141.7410   74.1430  220.3990 N   0  0  0  0  0  0  0  0  0  0  0  0
  140.5870   74.9640  220.3620 C   0  0  0  0  0  0  0  0  0  0  0  0
  140.5520   75.8760  219.4660 O   0  0  0  0  0  0  0  0  0  0  0  0
  139.4350   74.8630  221.2560 C   0  0  0  0  0  0  0  0  0  0  0  0
  139.5060   73.8620  222.2730 N   0  0  0  0  0  0  0  0  0  0  0  0
  139.8360   72.5000  221.9860 C   0  0  0  0  0  0  0  0  0  0  0  0
  140.0790   72.1020  220.8020 O   0  0  0  0  0  0  0  0  0  0  0  0
  139.9000   71.5220  223.0830 C   0  0  0  0  0  0  0  0  0  0  0  0
  139.4610   70.2300  222.8870 C   0  0  0  0  0  0  0  0  0  0  0  0
  139.5110   69.2860  223.9140 C   0  0  0  0  0  0  0  0  0  0  0  0
  140.0100   69.6620  225.1340 C   0  0  0  0  0  0  0  0  0  0  0  0
  140.1090   68.8200  226.2210 C   0  0  0  0  0  0  0  0  0  0  0  0
  140.6260   69.2750  227.4280 C   0  0  0  0  0  0  0  0  0  0  0  0
  140.7380   68.1710  228.7930 Cl  0  0  0  0  0  0  0  0  0  0  0  0
  141.0570   70.5810  227.5810 C   0  0  0  0  0  0  0  0  0  0  0  0
  140.9560   71.4240  226.4910 C   0  0  0  0  0  0  0  0  0  0  0  0
  140.4420   70.9710  225.2920 C   0  0  0  0  0  0  0  0  0  0  0  0
  140.3860   71.8730  224.2880 N   0  0  0  0  0  0  0  0  0  0  0  0
  144.0290   77.4900  219.2400 H   0  0  0  0  0  0  0  0  0  0  0  0
  142.3130   77.1160  219.7020 H   0  0  0  0  0  0  0  0  0  0  0  0
  142.3425   74.6517  218.4698 H   0  0  0  0  0  0  0  0  0  0  0  0
  143.3852   73.4507  219.3410 H   0  0  0  0  0  0  0  0  0  0  0  0
  141.8270   73.3920  221.1160 H   0  0  0  0  0  0  0  0  0  0  0  0
  139.3105   75.8365  221.7527 H   0  0  0  0  0  0  0  0  0  0  0  0
  138.5919   74.5680  220.6140 H   0  0  0  0  0  0  0  0  0  0  0  0
  139.3190   74.0730  223.2990 H   0  0  0  0  0  0  0  0  0  0  0  0
  139.0642   69.9377  221.9036 H   0  0  0  0  0  0  0  0  0  0  0  0
  139.1561   68.2583  223.7472 H   0  0  0  0  0  0  0  0  0  0  0  0
  139.7748   67.7758  226.1319 H   0  0  0  0  0  0  0  0  0  0  0  0
  141.4663   70.9361  228.5383 H   0  0  0  0  0  0  0  0  0  0  0  0
  141.2890   72.4686  226.5793 H   0  0  0  0  0  0  0  0  0  0  0  0
  1  2  1  0
  2  3  2  0
  2  4  1  0
  4  5  1  0
  5  6  1  0
  6  7  2  0
  6  8  1  0
  8  9  1  0
  9 10  1  0
 10 11  2  0
 10 12  1  0
 12 13  2  0
 13 14  1  0
 14 15  2  0
 15 16  1  0
 16 17  2  0
 17 18  1  0
 17 19  1  0
 19 20  2  0
 20 21  1  0
 21 22  2  0
 22 12  1  0
 21 15  1  0
  1 23  1  0
  1 24  1  0
  4 25  1  0
  4 26  1  0
  5 27  1  0
  8 28  1  0
  8 29  1  0
  9 30  1  0
 13 31  1  0
 14 32  1  0
 16 33  1  0
 19 34  1  0
 20 35  1  0
M  END
>  <smiles>  (38) 
NC(=O)CNC(=O)CNC(=O)c1ccc2cc(Cl)ccc2n1

>  <score_type>  (38) 
oracle

>  <origin>  (38) 
autodockgpu

>  <m_score__min__energy>  (38) 
-7.2699999999999996

>  <m_primary>  (38) 
energy

>  <rmsd>  (38) 
2.072412363127007

>  <m_score__min__rmsd>  (38) 
2.072412363127007

>  <meeko>  (38) 
{"free_energy": -6.0, "intermolecular_energy": -7.49, "internal_energy": -2.24, "cluster_size": 16, "cluster_id": 3, "rank_in_cluster": 12}

>  <energy>  (38) 
-6.09

>  <cluster_rmsd>  (38) 
1.5

>  <cluster>  (38) 
3

$$$$

     RDKit          3D

 35 36  0  0  0  0  0  0  0  0999 V2000
  141.1310   76.8740  221.8240 N   0  0  0  0  0  0  0  0  0  0  0  0
  141.6820   77.7980  220.8940 C   0  0  0  0  0  0  0  0  0  0  0  0
  141.7470   79.0460  221.1520 O   0  0  0  0  0  0  0  0  0  0  0  0
  142.1790   77.2490  219.6080 C   0  0  0  0  0  0  0  0  0  0  0  0
  141.4020   76.1020  219.1770 N   0  0  0  0  0  0  0  0  0  0  0  0
  141.7060   74.8290  219.7190 C   0  0  0  0  0  0  0  0  0  0  0  0
  142.6640   74.7710  220.5630 O   0  0  0  0  0  0  0  0  0  0  0  0
  141.0230   73.5770  219.3980 C   0  0  0  0  0  0  0  0  0  0  0  0
  140.7980   72.6790  220.4870 N   0  0  0  0  0  0  0  0  0  0  0  0
  140.2850   73.1180  221.7480 C   0  0  0  0  0  0  0  0  0  0  0  0
  140.0040   74.3380  221.9730 O   0  0  0  0  0  0  0  0  0  0  0  0
  140.0710   72.1380  222.8250 C   0  0  0  0  0  0  0  0  0  0  0  0
  139.2090   71.0790  222.6380 C   0  0  0  0  0  0  0  0  0  0  0  0
  138.9900   70.1380  223.6450 C   0  0  0  0  0  0  0  0  0  0  0  0
  139.6510   70.2810  224.8380 C   0  0  0  0  0  0  0  0  0  0  0  0
  139.5160   69.4170  225.9040 C   0  0  0  0  0  0  0  0  0  0  0  0
  140.2200   69.6280  227.0840 C   0  0  0  0  0  0  0  0  0  0  0  0
  140.0230   68.5050  228.4230 Cl  0  0  0  0  0  0  0  0  0  0  0  0
  141.0760   70.7060  227.2280 C   0  0  0  0  0  0  0  0  0  0  0  0
  141.2100   71.5700  226.1600 C   0  0  0  0  0  0  0  0  0  0  0  0
  140.5100   71.3600  224.9880 C   0  0  0  0  0  0  0  0  0  0  0  0
  140.7110   72.2620  224.0030 N   0  0  0  0  0  0  0  0  0  0  0  0
  140.2560   77.1420  222.3560 H   0  0  0  0  0  0  0  0  0  0  0  0
  141.5650   75.9350  221.9990 H   0  0  0  0  0  0  0  0  0  0  0  0
  142.1155   78.0320  218.8380 H   0  0  0  0  0  0  0  0  0  0  0  0
  143.2192   76.9226  219.7542 H   0  0  0  0  0  0  0  0  0  0  0  0
  140.6380   76.2050  218.4770 H   0  0  0  0  0  0  0  0  0  0  0  0
  140.0439   73.8311  218.9658 H   0  0  0  0  0  0  0  0  0  0  0  0
  141.6981   73.0429  218.7132 H   0  0  0  0  0  0  0  0  0  0  0  0
  141.0010   71.6360  220.4210 H   0  0  0  0  0  0  0  0  0  0  0  0
  138.6839   70.9736  221.6772 H   0  0  0  0  0  0  0  0  0  0  0  0
  138.2996   69.2967  223.4847 H   0  0  0  0  0  0  0  0  0  0  0  0
  138.8434   68.5507  225.8198 H   0  0  0  0  0  0  0  0  0  0  0  0
  141.6316   70.8689  228.1633 H   0  0  0  0  0  0  0  0  0  0  0  0
  141.8826   72.4365  226.2433 H   0  0  0  0  0  0  0  0  0  0  0  0
  1  2  1  0
  2  3  2  0
  2  4  1  0
  4  5  1  0
  5  6  1  0
  6  7  2  0
  6  8  1  0
  8  9  1  0
  9 10  1  0
 10 11  2  0
 10 12  1  0
 12 13  2  0
 13 14  1  0
 14 15  2  0
 15 16  1  0
 16 17  2  0
 17 18  1  0
 17 19  1  0
 19 20  2  0
 20 21  1  0
 21 22  2  0
 22 12  1  0
 21 15  1  0
  1 23  1  0
  1 24  1  0
  4 25  1  0
  4 26  1  0
  5 27  1  0
  8 28  1  0
  8 29  1  0
  9 30  1  0
 13 31  1  0
 14 32  1  0
 16 33  1  0
 19 34  1  0
 20 35  1  0
M  END
>  <smiles>  (39) 
NC(=O)CNC(=O)CNC(=O)c1ccc2cc(Cl)ccc2n1

>  <score_type>  (39) 
oracle

>  <origin>  (39) 
autodockgpu

>  <m_score__min__energy>  (39) 
-7.2699999999999996

>  <m_primary>  (39) 
energy

>  <rmsd>  (39) 
2.2504132186682826

>  <m_score__min__rmsd>  (39) 
2.2504132186682826

>  <meeko>  (39) 
{"free_energy": -5.63, "intermolecular_energy": -7.12, "internal_energy": -2.19, "cluster_size": 16, "cluster_id": 3, "rank_in_cluster": 15}

>  <energy>  (39) 
-6.06

>  <cluster_rmsd>  (39) 
0.84

>  <cluster>  (39) 
3

$$$$

     RDKit          3D

 35 36  0  0  0  0  0  0  0  0999 V2000
  143.8690   76.4770  219.3950 N   0  0  0  0  0  0  0  0  0  0  0  0
  142.8950   75.5540  219.8670 C   0  0  0  0  0  0  0  0  0  0  0  0
  143.1400   74.3040  219.9440 O   0  0  0  0  0  0  0  0  0  0  0  0
  141.5770   76.1070  220.2650 C   0  0  0  0  0  0  0  0  0  0  0  0
  140.6010   75.0590  220.4970 N   0  0  0  0  0  0  0  0  0  0  0  0
  139.2890   75.4210  220.8890 C   0  0  0  0  0  0  0  0  0  0  0  0
  139.0460   76.6690  221.0210 O   0  0  0  0  0  0  0  0  0  0  0  0
  138.1900   74.4960  221.1570 C   0  0  0  0  0  0  0  0  0  0  0  0
  138.4200   73.5130  222.1690 N   0  0  0  0  0  0  0  0  0  0  0  0
  139.3830   72.4660  222.0160 C   0  0  0  0  0  0  0  0  0  0  0  0
  140.0860   72.3480  220.9630 O   0  0  0  0  0  0  0  0  0  0  0  0
  139.5740   71.4930  223.1010 C   0  0  0  0  0  0  0  0  0  0  0  0
  139.1970   70.1780  222.9290 C   0  0  0  0  0  0  0  0  0  0  0  0
  139.3690   69.2370  223.9460 C   0  0  0  0  0  0  0  0  0  0  0  0
  139.9250   69.6400  225.1320 C   0  0  0  0  0  0  0  0  0  0  0  0
  140.1440   68.8030  226.2060 C   0  0  0  0  0  0  0  0  0  0  0  0
  140.7130   69.2860  227.3790 C   0  0  0  0  0  0  0  0  0  0  0  0
  140.9780   68.1890  228.7280 Cl  0  0  0  0  0  0  0  0  0  0  0  0
  141.0770   70.6150  227.5090 C   0  0  0  0  0  0  0  0  0  0  0  0
  140.8570   71.4520  226.4330 C   0  0  0  0  0  0  0  0  0  0  0  0
  140.2920   70.9710  225.2680 C   0  0  0  0  0  0  0  0  0  0  0  0
  140.1180   71.8700  224.2740 N   0  0  0  0  0  0  0  0  0  0  0  0
  144.4660   76.2110  218.5610 H   0  0  0  0  0  0  0  0  0  0  0  0
  144.0140   77.4120  219.8470 H   0  0  0  0  0  0  0  0  0  0  0  0
  141.7000   76.6901  221.1896 H   0  0  0  0  0  0  0  0  0  0  0  0
  141.2099   76.7405  219.4441 H   0  0  0  0  0  0  0  0  0  0  0  0
  140.8570   74.0560  220.3860 H   0  0  0  0  0  0  0  0  0  0  0  0
  137.3173   75.0923  221.4616 H   0  0  0  0  0  0  0  0  0  0  0  0
  138.0509   73.9290  220.2247 H   0  0  0  0  0  0  0  0  0  0  0  0
  137.8890   73.5060  223.0920 H   0  0  0  0  0  0  0  0  0  0  0  0
  138.7525   69.8645  221.9729 H   0  0  0  0  0  0  0  0  0  0  0  0
  139.0636   68.1907  223.7979 H   0  0  0  0  0  0  0  0  0  0  0  0
  139.8654   67.7413  226.1337 H   0  0  0  0  0  0  0  0  0  0  0  0
  141.5269   70.9922  228.4392 H   0  0  0  0  0  0  0  0  0  0  0  0
  141.1349   72.5139  226.5045 H   0  0  0  0  0  0  0  0  0  0  0  0
  1  2  1  0
  2  3  2  0
  2  4  1  0
  4  5  1  0
  5  6  1  0
  6  7  2  0
  6  8  1  0
  8  9  1  0
  9 10  1  0
 10 11  2  0
 10 12  1  0
 12 13  2  0
 13 14  1  0
 14 15  2  0
 15 16  1  0
 16 17  2  0
 17 18  1  0
 17 19  1  0
 19 20  2  0
 20 21  1  0
 21 22  2  0
 22 12  1  0
 21 15  1  0
  1 23  1  0
  1 24  1  0
  4 25  1  0
  4 26  1  0
  5 27  1  0
  8 28  1  0
  8 29  1  0
  9 30  1  0
 13 31  1  0
 14 32  1  0
 16 33  1  0
 19 34  1  0
 20 35  1  0
M  END
>  <smiles>  (40) 
NC(=O)CNC(=O)CNC(=O)c1ccc2cc(Cl)ccc2n1

>  <score_type>  (40) 
oracle

>  <origin>  (40) 
autodockgpu

>  <m_score__min__energy>  (40) 
-7.2699999999999996

>  <m_primary>  (40) 
energy

>  <rmsd>  (40) 
1.8094652440400116

>  <m_score__min__rmsd>  (40) 
1.8094652440400116

>  <meeko>  (40) 
{"free_energy": -6.3, "intermolecular_energy": -7.79, "internal_energy": -2.03, "cluster_size": 21, "cluster_id": 1, "rank_in_cluster": 18}

>  <energy>  (40) 
-6.05

>  <cluster_rmsd>  (40) 
1.88

>  <cluster>  (40) 
3

$$$$

     RDKit          3D

 35 36  0  0  0  0  0  0  0  0999 V2000
  144.8320   72.4740  220.4550 N   0  0  0  0  0  0  0  0  0  0  0  0
  145.1570   73.8590  220.4740 C   0  0  0  0  0  0  0  0  0  0  0  0
  146.3110   74.2690  220.8300 O   0  0  0  0  0  0  0  0  0  0  0  0
  144.0930   74.8080  220.0640 C   0  0  0  0  0  0  0  0  0  0  0  0
  142.7680   74.2730  220.3140 N   0  0  0  0  0  0  0  0  0  0  0  0
  142.2060   73.3730  219.3760 C   0  0  0  0  0  0  0  0  0  0  0  0
  142.9120   73.0890  218.3480 O   0  0  0  0  0  0  0  0  0  0  0  0
  140.8910   72.7420  219.4760 C   0  0  0  0  0  0  0  0  0  0  0  0
  140.6590   71.9410  220.6370 N   0  0  0  0  0  0  0  0  0  0  0  0
  140.4430   72.5120  221.9310 C   0  0  0  0  0  0  0  0  0  0  0  0
  140.4520   73.7700  222.1210 O   0  0  0  0  0  0  0  0  0  0  0  0
  140.2010   71.6290  223.0820 C   0  0  0  0  0  0  0  0  0  0  0  0
  139.3570   70.5460  222.9610 C   0  0  0  0  0  0  0  0  0  0  0  0
  139.1140   69.6960  224.0410 C   0  0  0  0  0  0  0  0  0  0  0  0
  139.7310   69.9530  225.2370 C   0  0  0  0  0  0  0  0  0  0  0  0
  139.5670   69.1850  226.3710 C   0  0  0  0  0  0  0  0  0  0  0  0
  140.2280   69.5090  227.5500 C   0  0  0  0  0  0  0  0  0  0  0  0
  139.9960   68.5060  228.9770 Cl  0  0  0  0  0  0  0  0  0  0  0  0
  141.0680   70.6070  227.6270 C   0  0  0  0  0  0  0  0  0  0  0  0
  141.2300   71.3750  226.4910 C   0  0  0  0  0  0  0  0  0  0  0  0
  140.5730   71.0520  225.3200 C   0  0  0  0  0  0  0  0  0  0  0  0
  140.7990   71.8650  224.2650 N   0  0  0  0  0  0  0  0  0  0  0  0
  145.1660   71.8580  221.2490 H   0  0  0  0  0  0  0  0  0  0  0  0
  144.2720   72.0450  219.6790 H   0  0  0  0  0  0  0  0  0  0  0  0
  144.2122   75.7431  220.6309 H   0  0  0  0  0  0  0  0  0  0  0  0
  144.1915   74.9857  218.9829 H   0  0  0  0  0  0  0  0  0  0  0  0
  142.2310   74.5480  221.1630 H   0  0  0  0  0  0  0  0  0  0  0  0
  140.1344   73.5404  219.4631 H   0  0  0  0  0  0  0  0  0  0  0  0
  140.8336   72.0477  218.6247 H   0  0  0  0  0  0  0  0  0  0  0  0
  140.6330   70.8780  220.6030 H   0  0  0  0  0  0  0  0  0  0  0  0
  138.8664   70.3482  221.9965 H   0  0  0  0  0  0  0  0  0  0  0  0
  138.4386   68.8344  223.9338 H   0  0  0  0  0  0  0  0  0  0  0  0
  138.9058   68.3064  226.3419 H   0  0  0  0  0  0  0  0  0  0  0  0
  141.5891   70.8592  228.5623 H   0  0  0  0  0  0  0  0  0  0  0  0
  141.8901   72.2544  226.5190 H   0  0  0  0  0  0  0  0  0  0  0  0
  1  2  1  0
  2  3  2  0
  2  4  1  0
  4  5  1  0
  5  6  1  0
  6  7  2  0
  6  8  1  0
  8  9  1  0
  9 10  1  0
 10 11  2  0
 10 12  1  0
 12 13  2  0
 13 14  1  0
 14 15  2  0
 15 16  1  0
 16 17  2  0
 17 18  1  0
 17 19  1  0
 19 20  2  0
 20 21  1  0
 21 22  2  0
 22 12  1  0
 21 15  1  0
  1 23  1  0
  1 24  1  0
  4 25  1  0
  4 26  1  0
  5 27  1  0
  8 28  1  0
  8 29  1  0
  9 30  1  0
 13 31  1  0
 14 32  1  0
 16 33  1  0
 19 34  1  0
 20 35  1  0
M  END
>  <smiles>  (41) 
NC(=O)CNC(=O)CNC(=O)c1ccc2cc(Cl)ccc2n1

>  <score_type>  (41) 
oracle

>  <origin>  (41) 
autodockgpu

>  <m_score__min__energy>  (41) 
-7.2699999999999996

>  <m_primary>  (41) 
energy

>  <rmsd>  (41) 
3.3615963185637447

>  <m_score__min__rmsd>  (41) 
3.3615963185637447

>  <meeko>  (41) 
{"free_energy": -6.04, "intermolecular_energy": -7.53, "internal_energy": -2.13, "cluster_size": 16, "cluster_id": 3, "rank_in_cluster": 11}

>  <energy>  (41) 
-6.04

>  <cluster_rmsd>  (41) 
1.37

>  <cluster>  (41) 
3

$$$$

     RDKit          3D

 35 36  0  0  0  0  0  0  0  0999 V2000
  139.5590   67.5330  226.6550 N   0  0  0  0  0  0  0  0  0  0  0  0
  140.7170   68.3140  226.3900 C   0  0  0  0  0  0  0  0  0  0  0  0
  141.8440   67.7730  226.1350 O   0  0  0  0  0  0  0  0  0  0  0  0
  140.5590   69.7900  226.4240 C   0  0  0  0  0  0  0  0  0  0  0  0
  140.1930   70.3210  225.1250 N   0  0  0  0  0  0  0  0  0  0  0  0
  138.8470   70.2110  224.6960 C   0  0  0  0  0  0  0  0  0  0  0  0
  138.0290   69.6370  225.4930 O   0  0  0  0  0  0  0  0  0  0  0  0
  138.3110   70.6940  223.4240 C   0  0  0  0  0  0  0  0  0  0  0  0
  138.8110   71.9500  222.9610 N   0  0  0  0  0  0  0  0  0  0  0  0
  140.1310   72.1010  222.4300 C   0  0  0  0  0  0  0  0  0  0  0  0
  140.9380   71.1220  222.3470 O   0  0  0  0  0  0  0  0  0  0  0  0
  140.5780   73.4220  221.9640 C   0  0  0  0  0  0  0  0  0  0  0  0
  141.6740   73.5300  221.1340 C   0  0  0  0  0  0  0  0  0  0  0  0
  142.1160   74.7740  220.6800 C   0  0  0  0  0  0  0  0  0  0  0  0
  141.4410   75.9000  221.0730 C   0  0  0  0  0  0  0  0  0  0  0  0
  141.7840   77.1790  220.6890 C   0  0  0  0  0  0  0  0  0  0  0  0
  141.0500   78.2740  221.1300 C   0  0  0  0  0  0  0  0  0  0  0  0
  141.5170   79.8920  220.6200 Cl  0  0  0  0  0  0  0  0  0  0  0  0
  139.9550   78.1190  221.9630 C   0  0  0  0  0  0  0  0  0  0  0  0
  139.6130   76.8370  222.3460 C   0  0  0  0  0  0  0  0  0  0  0  0
  140.3440   75.7500  221.9080 C   0  0  0  0  0  0  0  0  0  0  0  0
  139.9280   74.5390  222.3390 N   0  0  0  0  0  0  0  0  0  0  0  0
  139.6510   66.6700  227.2630 H   0  0  0  0  0  0  0  0  0  0  0  0
  138.6170   67.7840  226.2680 H   0  0  0  0  0  0  0  0  0  0  0  0
  139.7726   70.0476  227.1487 H   0  0  0  0  0  0  0  0  0  0  0  0
  141.5237   70.2312  226.7150 H   0  0  0  0  0  0  0  0  0  0  0  0
  140.9040   70.7690  224.5100 H   0  0  0  0  0  0  0  0  0  0  0  0
  138.5386   69.9395  222.6566 H   0  0  0  0  0  0  0  0  0  0  0  0
  137.2371   70.8536  223.6006 H   0  0  0  0  0  0  0  0  0  0  0  0
  138.2300   72.8420  222.9850 H   0  0  0  0  0  0  0  0  0  0  0  0
  142.2092   72.6202  220.8243 H   0  0  0  0  0  0  0  0  0  0  0  0
  142.9913   74.8491  220.0180 H   0  0  0  0  0  0  0  0  0  0  0  0
  142.6481   77.3346  220.0263 H   0  0  0  0  0  0  0  0  0  0  0  0
  139.3764   78.9885  222.3084 H   0  0  0  0  0  0  0  0  0  0  0  0
  138.7484   76.6797  223.0076 H   0  0  0  0  0  0  0  0  0  0  0  0
  1  2  1  0
  2  3  2  0
  2  4  1  0
  4  5  1  0
  5  6  1  0
  6  7  2  0
  6  8  1  0
  8  9  1  0
  9 10  1  0
 10 11  2  0
 10 12  1  0
 12 13  2  0
 13 14  1  0
 14 15  2  0
 15 16  1  0
 16 17  2  0
 17 18  1  0
 17 19  1  0
 19 20  2  0
 20 21  1  0
 21 22  2  0
 22 12  1  0
 21 15  1  0
  1 23  1  0
  1 24  1  0
  4 25  1  0
  4 26  1  0
  5 27  1  0
  8 28  1  0
  8 29  1  0
  9 30  1  0
 13 31  1  0
 14 32  1  0
 16 33  1  0
 19 34  1  0
 20 35  1  0
M  END
>  <smiles>  (42) 
NC(=O)CNC(=O)CNC(=O)c1ccc2cc(Cl)ccc2n1

>  <score_type>  (42) 
oracle

>  <origin>  (42) 
autodockgpu

>  <m_score__min__energy>  (42) 
-7.2699999999999996

>  <m_primary>  (42) 
energy

>  <rmsd>  (42) 
7.973014036200401

>  <m_score__min__rmsd>  (42) 
7.973014036200401

>  <meeko>  (42) 
{"free_energy": -5.67, "intermolecular_energy": -7.16, "internal_energy": -2.46, "cluster_size": 9, "cluster_id": 2, "rank_in_cluster": 6}

>  <energy>  (42) 
-6.0

>  <cluster_rmsd>  (42) 
1.54

>  <cluster>  (42) 
3

$$$$

     RDKit          3D

 35 36  0  0  0  0  0  0  0  0999 V2000
  140.0060   67.1010  226.8440 N   0  0  0  0  0  0  0  0  0  0  0  0
  139.7900   67.8760  225.6710 C   0  0  0  0  0  0  0  0  0  0  0  0
  139.2330   67.3810  224.6360 O   0  0  0  0  0  0  0  0  0  0  0  0
  140.2430   69.2900  225.7030 C   0  0  0  0  0  0  0  0  0  0  0  0
  139.8170   70.0170  224.5230 N   0  0  0  0  0  0  0  0  0  0  0  0
  138.4320   70.2230  224.3100 C   0  0  0  0  0  0  0  0  0  0  0  0
  137.6320   69.7430  225.1840 O   0  0  0  0  0  0  0  0  0  0  0  0
  137.8360   70.9350  223.1800 C   0  0  0  0  0  0  0  0  0  0  0  0
  138.4480   72.1730  222.8160 N   0  0  0  0  0  0  0  0  0  0  0  0
  139.7130   72.2360  222.1510 C   0  0  0  0  0  0  0  0  0  0  0  0
  140.3690   71.1880  221.8530 O   0  0  0  0  0  0  0  0  0  0  0  0
  140.2820   73.5450  221.7980 C   0  0  0  0  0  0  0  0  0  0  0  0
  141.3910   73.6230  220.9820 C   0  0  0  0  0  0  0  0  0  0  0  0
  141.9480   74.8540  220.6340 C   0  0  0  0  0  0  0  0  0  0  0  0
  141.3730   76.0010  221.1180 C   0  0  0  0  0  0  0  0  0  0  0  0
  141.8330   77.2710  220.8440 C   0  0  0  0  0  0  0  0  0  0  0  0
  141.1960   78.3880  221.3730 C   0  0  0  0  0  0  0  0  0  0  0  0
  141.8120   79.9930  221.0000 Cl  0  0  0  0  0  0  0  0  0  0  0  0
  140.0850   78.2640  222.1880 C   0  0  0  0  0  0  0  0  0  0  0  0
  139.6250   76.9910  222.4620 C   0  0  0  0  0  0  0  0  0  0  0  0
  140.2580   75.8820  221.9360 C   0  0  0  0  0  0  0  0  0  0  0  0
  139.7310   74.6820  222.2640 N   0  0  0  0  0  0  0  0  0  0  0  0
  140.3380   66.1000  226.7430 H   0  0  0  0  0  0  0  0  0  0  0  0
  139.8460   67.4890  227.8050 H   0  0  0  0  0  0  0  0  0  0  0  0
  139.8223   69.7789  226.5940 H   0  0  0  0  0  0  0  0  0  0  0  0
  141.3426   69.2970  225.7314 H   0  0  0  0  0  0  0  0  0  0  0  0
  140.5120   70.3770  223.8350 H   0  0  0  0  0  0  0  0  0  0  0  0
  137.8794   70.2700  222.3048 H   0  0  0  0  0  0  0  0  0  0  0  0
  136.8175   71.1962  223.5032 H   0  0  0  0  0  0  0  0  0  0  0  0
  137.9970   73.1160  223.0170 H   0  0  0  0  0  0  0  0  0  0  0  0
  141.8449   72.6974  220.5983 H   0  0  0  0  0  0  0  0  0  0  0  0
  142.8331   74.9036  219.9827 H   0  0  0  0  0  0  0  0  0  0  0  0
  142.7144   77.4025  220.1992 H   0  0  0  0  0  0  0  0  0  0  0  0
  139.5843   79.1506  222.6043 H   0  0  0  0  0  0  0  0  0  0  0  0
  138.7438   76.8588  223.1070 H   0  0  0  0  0  0  0  0  0  0  0  0
  1  2  1  0
  2  3  2  0
  2  4  1  0
  4  5  1  0
  5  6  1  0
  6  7  2  0
  6  8  1  0
  8  9  1  0
  9 10  1  0
 10 11  2  0
 10 12  1  0
 12 13  2  0
 13 14  1  0
 14 15  2  0
 15 16  1  0
 16 17  2  0
 17 18  1  0
 17 19  1  0
 19 20  2  0
 20 21  1  0
 21 22  2  0
 22 12  1  0
 21 15  1  0
  1 23  1  0
  1 24  1  0
  4 25  1  0
  4 26  1  0
  5 27  1  0
  8 28  1  0
  8 29  1  0
  9 30  1  0
 13 31  1  0
 14 32  1  0
 16 33  1  0
 19 34  1  0
 20 35  1  0
M  END
>  <smiles>  (43) 
NC(=O)CNC(=O)CNC(=O)c1ccc2cc(Cl)ccc2n1

>  <score_type>  (43) 
oracle

>  <origin>  (43) 
autodockgpu

>  <m_score__min__energy>  (43) 
-7.2699999999999996

>  <m_primary>  (43) 
energy

>  <rmsd>  (43) 
7.932709790678154

>  <m_score__min__rmsd>  (43) 
7.932709790678154

>  <meeko>  (43) 
{"free_energy": -6.23, "intermolecular_energy": -7.72, "internal_energy": -1.84, "cluster_size": 9, "cluster_id": 2, "rank_in_cluster": 3}

>  <energy>  (43) 
-5.99

>  <cluster_rmsd>  (43) 
0.87

>  <cluster>  (43) 
3

$$$$

     RDKit          3D

 35 36  0  0  0  0  0  0  0  0999 V2000
  141.1210   76.0660  221.8910 N   0  0  0  0  0  0  0  0  0  0  0  0
  140.3850   77.2260  222.2570 C   0  0  0  0  0  0  0  0  0  0  0  0
  140.9530   78.3590  222.4050 O   0  0  0  0  0  0  0  0  0  0  0  0
  138.9240   77.0620  222.4620 C   0  0  0  0  0  0  0  0  0  0  0  0
  138.5150   75.6770  222.3330 N   0  0  0  0  0  0  0  0  0  0  0  0
  138.5310   75.0760  221.0510 C   0  0  0  0  0  0  0  0  0  0  0  0
  138.9080   75.8070  220.0720 O   0  0  0  0  0  0  0  0  0  0  0  0
  138.1550   73.6960  220.7470 C   0  0  0  0  0  0  0  0  0  0  0  0
  138.3900   72.7330  221.7750 N   0  0  0  0  0  0  0  0  0  0  0  0
  139.6380   72.6400  222.4680 C   0  0  0  0  0  0  0  0  0  0  0  0
  140.6150   73.4100  222.2000 O   0  0  0  0  0  0  0  0  0  0  0  0
  139.8090   71.6290  223.5230 C   0  0  0  0  0  0  0  0  0  0  0  0
  139.4750   70.3140  223.2840 C   0  0  0  0  0  0  0  0  0  0  0  0
  139.6290   69.3380  224.2710 C   0  0  0  0  0  0  0  0  0  0  0  0
  140.1220   69.7080  225.4950 C   0  0  0  0  0  0  0  0  0  0  0  0
  140.3170   68.8350  226.5440 C   0  0  0  0  0  0  0  0  0  0  0  0
  140.8220   69.2850  227.7590 C   0  0  0  0  0  0  0  0  0  0  0  0
  141.0580   68.1430  229.0750 Cl  0  0  0  0  0  0  0  0  0  0  0  0
  141.1450   70.6170  227.9550 C   0  0  0  0  0  0  0  0  0  0  0  0
  140.9490   71.4900  226.9030 C   0  0  0  0  0  0  0  0  0  0  0  0
  140.4470   71.0410  225.6970 C   0  0  0  0  0  0  0  0  0  0  0  0
  140.2920   71.9730  224.7310 N   0  0  0  0  0  0  0  0  0  0  0  0
  142.0690   75.8990  222.3330 H   0  0  0  0  0  0  0  0  0  0  0  0
  140.7550   75.3710  221.1960 H   0  0  0  0  0  0  0  0  0  0  0  0
  138.6635   77.4179  223.4697 H   0  0  0  0  0  0  0  0  0  0  0  0
  138.4023   77.6462  221.6897 H   0  0  0  0  0  0  0  0  0  0  0  0
  138.2050   75.1310  223.1640 H   0  0  0  0  0  0  0  0  0  0  0  0
  137.0792   73.6850  220.5176 H   0  0  0  0  0  0  0  0  0  0  0  0
  138.8022   73.3942  219.9103 H   0  0  0  0  0  0  0  0  0  0  0  0
  137.6500   72.0330  222.0840 H   0  0  0  0  0  0  0  0  0  0  0  0
  139.0800   70.0276  222.2981 H   0  0  0  0  0  0  0  0  0  0  0  0
  139.3593   68.2908  224.0695 H   0  0  0  0  0  0  0  0  0  0  0  0
  140.0703   67.7704  226.4185 H   0  0  0  0  0  0  0  0  0  0  0  0
  141.5448   70.9686  228.9176 H   0  0  0  0  0  0  0  0  0  0  0  0
  141.1954   72.5549  227.0269 H   0  0  0  0  0  0  0  0  0  0  0  0
  1  2  1  0
  2  3  2  0
  2  4  1  0
  4  5  1  0
  5  6  1  0
  6  7  2  0
  6  8  1  0
  8  9  1  0
  9 10  1  0
 10 11  2  0
 10 12  1  0
 12 13  2  0
 13 14  1  0
 14 15  2  0
 15 16  1  0
 16 17  2  0
 17 18  1  0
 17 19  1  0
 19 20  2  0
 20 21  1  0
 21 22  2  0
 22 12  1  0
 21 15  1  0
  1 23  1  0
  1 24  1  0
  4 25  1  0
  4 26  1  0
  5 27  1  0
  8 28  1  0
  8 29  1  0
  9 30  1  0
 13 31  1  0
 14 32  1  0
 16 33  1  0
 19 34  1  0
 20 35  1  0
M  END
>  <smiles>  (44) 
NC(=O)CNC(=O)CNC(=O)c1ccc2cc(Cl)ccc2n1

>  <score_type>  (44) 
oracle

>  <origin>  (44) 
autodockgpu

>  <m_score__min__energy>  (44) 
-7.2699999999999996

>  <m_primary>  (44) 
energy

>  <rmsd>  (44) 
1.8122991173825054

>  <m_score__min__rmsd>  (44) 
1.8122991173825054

>  <meeko>  (44) 
{"free_energy": -6.62, "intermolecular_energy": -8.11, "internal_energy": -2.16, "cluster_size": 21, "cluster_id": 1, "rank_in_cluster": 7}

>  <energy>  (44) 
-5.66

>  <cluster_rmsd>  (44) 
1.87

>  <cluster>  (44) 
3

$$$$

     RDKit          3D

 35 36  0  0  0  0  0  0  0  0999 V2000
  142.7180   79.1370  222.3310 N   0  0  0  0  0  0  0  0  0  0  0  0
  141.6350   80.0490  222.4590 C   0  0  0  0  0  0  0  0  0  0  0  0
  141.6040   81.1460  221.8080 O   0  0  0  0  0  0  0  0  0  0  0  0
  140.5380   79.6710  223.3850 C   0  0  0  0  0  0  0  0  0  0  0  0
  139.5800   78.7850  222.7500 N   0  0  0  0  0  0  0  0  0  0  0  0
  139.9200   77.4210  222.5800 C   0  0  0  0  0  0  0  0  0  0  0  0
  141.0700   77.0520  222.9990 O   0  0  0  0  0  0  0  0  0  0  0  0
  139.0740   76.3980  221.9660 C   0  0  0  0  0  0  0  0  0  0  0  0
  137.9610   75.9470  222.7400 N   0  0  0  0  0  0  0  0  0  0  0  0
  136.8700   76.8060  223.0860 C   0  0  0  0  0  0  0  0  0  0  0  0
  136.8340   78.0250  222.7270 O   0  0  0  0  0  0  0  0  0  0  0  0
  135.7520   76.2740  223.8790 C   0  0  0  0  0  0  0  0  0  0  0  0
  134.7110   77.0980  224.2510 C   0  0  0  0  0  0  0  0  0  0  0  0
  133.6400   76.6150  225.0040 C   0  0  0  0  0  0  0  0  0  0  0  0
  133.6340   75.2950  225.3740 C   0  0  0  0  0  0  0  0  0  0  0  0
  132.6320   74.7070  226.1170 C   0  0  0  0  0  0  0  0  0  0  0  0
  132.6960   73.3600  226.4550 C   0  0  0  0  0  0  0  0  0  0  0  0
  131.4000   72.6420  227.4020 Cl  0  0  0  0  0  0  0  0  0  0  0  0
  133.7610   72.5680  226.0600 C   0  0  0  0  0  0  0  0  0  0  0  0
  134.7630   73.1590  225.3160 C   0  0  0  0  0  0  0  0  0  0  0  0
  134.6990   74.4980  224.9810 C   0  0  0  0  0  0  0  0  0  0  0  0
  135.7280   74.9810  224.2520 N   0  0  0  0  0  0  0  0  0  0  0  0
  143.7060   79.5170  222.2880 H   0  0  0  0  0  0  0  0  0  0  0  0
  142.5700   78.1000  222.2780 H   0  0  0  0  0  0  0  0  0  0  0  0
  140.9693   79.1616  224.2593 H   0  0  0  0  0  0  0  0  0  0  0  0
  140.0102   80.5888  223.6836 H   0  0  0  0  0  0  0  0  0  0  0  0
  138.6610   79.1420  222.4160 H   0  0  0  0  0  0  0  0  0  0  0  0
  138.6822   76.8088  221.0238 H   0  0  0  0  0  0  0  0  0  0  0  0
  139.7216   75.5173  221.8439 H   0  0  0  0  0  0  0  0  0  0  0  0
  137.8810   74.9490  223.1020 H   0  0  0  0  0  0  0  0  0  0  0  0
  134.7250   78.1555  223.9487 H   0  0  0  0  0  0  0  0  0  0  0  0
  132.8151   77.2817  225.2955 H   0  0  0  0  0  0  0  0  0  0  0  0
  131.7729   75.3102  226.4458 H   0  0  0  0  0  0  0  0  0  0  0  0
  133.8073   71.5027  226.3301 H   0  0  0  0  0  0  0  0  0  0  0  0
  135.6223   72.5567  224.9861 H   0  0  0  0  0  0  0  0  0  0  0  0
  1  2  1  0
  2  3  2  0
  2  4  1  0
  4  5  1  0
  5  6  1  0
  6  7  2  0
  6  8  1  0
  8  9  1  0
  9 10  1  0
 10 11  2  0
 10 12  1  0
 12 13  2  0
 13 14  1  0
 14 15  2  0
 15 16  1  0
 16 17  2  0
 17 18  1  0
 17 19  1  0
 19 20  2  0
 20 21  1  0
 21 22  2  0
 22 12  1  0
 21 15  1  0
  1 23  1  0
  1 24  1  0
  4 25  1  0
  4 26  1  0
  5 27  1  0
  8 28  1  0
  8 29  1  0
  9 30  1  0
 13 31  1  0
 14 32  1  0
 16 33  1  0
 19 34  1  0
 20 35  1  0
M  END
>  <smiles>  (45) 
NC(=O)CNC(=O)CNC(=O)c1ccc2cc(Cl)ccc2n1

>  <score_type>  (45) 
oracle

>  <origin>  (45) 
autodockgpu

>  <m_score__min__energy>  (45) 
-7.2699999999999996

>  <m_primary>  (45) 
energy

>  <rmsd>  (45) 
6.6193847090617055

>  <m_score__min__rmsd>  (45) 
6.6193847090617055

>  <meeko>  (45) 
{"free_energy": -5.18, "intermolecular_energy": -6.67, "internal_energy": -2.5, "cluster_size": 2, "cluster_id": 5, "rank_in_cluster": 2}

>  <energy>  (45) 
-5.63

>  <cluster_rmsd>  (45) 
1.99

>  <cluster>  (45) 
3

$$$$

     RDKit          3D

 35 36  0  0  0  0  0  0  0  0999 V2000
  140.0190   67.1560  226.8660 N   0  0  0  0  0  0  0  0  0  0  0  0
  139.7930   67.9110  225.6830 C   0  0  0  0  0  0  0  0  0  0  0  0
  139.1980   67.4070  224.6720 O   0  0  0  0  0  0  0  0  0  0  0  0
  140.2790   69.3130  225.6720 C   0  0  0  0  0  0  0  0  0  0  0  0
  139.8800   70.0110  224.4650 N   0  0  0  0  0  0  0  0  0  0  0  0
  138.5040   70.2570  224.2410 C   0  0  0  0  0  0  0  0  0  0  0  0
  137.6860   69.8370  225.1300 O   0  0  0  0  0  0  0  0  0  0  0  0
  137.9340   70.9470  223.0850 C   0  0  0  0  0  0  0  0  0  0  0  0
  138.5260   72.2000  222.7380 N   0  0  0  0  0  0  0  0  0  0  0  0
  139.8060   72.2950  222.1070 C   0  0  0  0  0  0  0  0  0  0  0  0
  140.4940   71.2630  221.8240 O   0  0  0  0  0  0  0  0  0  0  0  0
  140.3530   73.6180  221.7710 C   0  0  0  0  0  0  0  0  0  0  0  0
  141.4310   73.7270  220.9180 C   0  0  0  0  0  0  0  0  0  0  0  0
  141.9660   74.9720  220.5850 C   0  0  0  0  0  0  0  0  0  0  0  0
  141.4020   76.0990  221.1230 C   0  0  0  0  0  0  0  0  0  0  0  0
  141.8440   77.3800  220.8680 C   0  0  0  0  0  0  0  0  0  0  0  0
  141.2190   78.4770  221.4510 C   0  0  0  0  0  0  0  0  0  0  0  0
  141.8090   80.0970  221.1030 Cl  0  0  0  0  0  0  0  0  0  0  0  0
  140.1380   78.3210  222.3020 C   0  0  0  0  0  0  0  0  0  0  0  0
  139.6970   77.0380  222.5570 C   0  0  0  0  0  0  0  0  0  0  0  0
  140.3190   75.9490  221.9770 C   0  0  0  0  0  0  0  0  0  0  0  0
  139.8120   74.7370  222.2890 N   0  0  0  0  0  0  0  0  0  0  0  0
  140.3250   66.1450  226.7790 H   0  0  0  0  0  0  0  0  0  0  0  0
  139.8920   67.5680  227.8220 H   0  0  0  0  0  0  0  0  0  0  0  0
  139.8632   69.8410  226.5428 H   0  0  0  0  0  0  0  0  0  0  0  0
  141.3782   69.2945  225.7092 H   0  0  0  0  0  0  0  0  0  0  0  0
  140.5890   70.3210  223.7670 H   0  0  0  0  0  0  0  0  0  0  0  0
  138.0298   70.2794  222.2160 H   0  0  0  0  0  0  0  0  0  0  0  0
  136.8969   71.1817  223.3668 H   0  0  0  0  0  0  0  0  0  0  0  0
  138.0480   73.1320  222.9290 H   0  0  0  0  0  0  0  0  0  0  0  0
  141.8772   72.8161  220.4924 H   0  0  0  0  0  0  0  0  0  0  0  0
  142.8254   75.0474  219.9026 H   0  0  0  0  0  0  0  0  0  0  0  0
  142.7006   77.5359  220.1958 H   0  0  0  0  0  0  0  0  0  0  0  0
  139.6463   79.1917  222.7603 H   0  0  0  0  0  0  0  0  0  0  0  0
  138.8408   76.8808  223.2295 H   0  0  0  0  0  0  0  0  0  0  0  0
  1  2  1  0
  2  3  2  0
  2  4  1  0
  4  5  1  0
  5  6  1  0
  6  7  2  0
  6  8  1  0
  8  9  1  0
  9 10  1  0
 10 11  2  0
 10 12  1  0
 12 13  2  0
 13 14  1  0
 14 15  2  0
 15 16  1  0
 16 17  2  0
 17 18  1  0
 17 19  1  0
 19 20  2  0
 20 21  1  0
 21 22  2  0
 22 12  1  0
 21 15  1  0
  1 23  1  0
  1 24  1  0
  4 25  1  0
  4 26  1  0
  5 27  1  0
  8 28  1  0
  8 29  1  0
  9 30  1  0
 13 31  1  0
 14 32  1  0
 16 33  1  0
 19 34  1  0
 20 35  1  0
M  END
>  <smiles>  (46) 
NC(=O)CNC(=O)CNC(=O)c1ccc2cc(Cl)ccc2n1

>  <score_type>  (46) 
oracle

>  <origin>  (46) 
autodockgpu

>  <m_score__min__energy>  (46) 
-7.2699999999999996

>  <m_primary>  (46) 
energy

>  <rmsd>  (46) 
7.939314043355032

>  <m_score__min__rmsd>  (46) 
7.939314043355032

>  <meeko>  (46) 
{"free_energy": -6.25, "intermolecular_energy": -7.74, "internal_energy": -1.83, "cluster_size": 9, "cluster_id": 2, "rank_in_cluster": 2}

>  <energy>  (46) 
-5.52

>  <cluster_rmsd>  (46) 
1.31

>  <cluster>  (46) 
3

$$$$

     RDKit          3D

 35 36  0  0  0  0  0  0  0  0999 V2000
  142.5730   79.6810  221.8200 N   0  0  0  0  0  0  0  0  0  0  0  0
  141.8710   79.8640  223.0430 C   0  0  0  0  0  0  0  0  0  0  0  0
  141.5800   81.0280  223.4780 O   0  0  0  0  0  0  0  0  0  0  0  0
  141.4920   78.6420  223.7950 C   0  0  0  0  0  0  0  0  0  0  0  0
  141.2260   77.5260  222.9080 N   0  0  0  0  0  0  0  0  0  0  0  0
  139.9310   77.3890  222.3520 C   0  0  0  0  0  0  0  0  0  0  0  0
  139.0620   78.2700  222.6780 O   0  0  0  0  0  0  0  0  0  0  0  0
  139.4970   76.3300  221.4420 C   0  0  0  0  0  0  0  0  0  0  0  0
  140.4690   75.3350  221.1170 N   0  0  0  0  0  0  0  0  0  0  0  0
  141.7790   75.6680  220.6490 C   0  0  0  0  0  0  0  0  0  0  0  0
  142.1500   76.8750  220.4890 O   0  0  0  0  0  0  0  0  0  0  0  0
  142.7340   74.5940  220.3390 C   0  0  0  0  0  0  0  0  0  0  0  0
  144.0660   74.8860  220.1370 C   0  0  0  0  0  0  0  0  0  0  0  0
  144.9900   73.8810  219.8410 C   0  0  0  0  0  0  0  0  0  0  0  0
  144.5520   72.5850  219.7550 C   0  0  0  0  0  0  0  0  0  0  0  0
  145.3690   71.5120  219.4690 C   0  0  0  0  0  0  0  0  0  0  0  0
  144.8520   70.2240  219.3980 C   0  0  0  0  0  0  0  0  0  0  0  0
  145.9250   68.8790  219.0320 Cl  0  0  0  0  0  0  0  0  0  0  0  0
  143.5060   69.9760  219.6090 C   0  0  0  0  0  0  0  0  0  0  0  0
  142.6890   71.0520  219.8940 C   0  0  0  0  0  0  0  0  0  0  0  0
  143.2050   72.3310  219.9650 C   0  0  0  0  0  0  0  0  0  0  0  0
  142.3230   73.3140  220.2500 N   0  0  0  0  0  0  0  0  0  0  0  0
  143.3810   80.3250  221.5900 H   0  0  0  0  0  0  0  0  0  0  0  0
  142.3140   78.9270  221.1380 H   0  0  0  0  0  0  0  0  0  0  0  0
  142.3154   78.3706  224.4720 H   0  0  0  0  0  0  0  0  0  0  0  0
  140.5724   78.8582  224.3586 H   0  0  0  0  0  0  0  0  0  0  0  0
  141.9680   76.8300  222.6860 H   0  0  0  0  0  0  0  0  0  0  0  0
  138.6390   75.8211  221.9055 H   0  0  0  0  0  0  0  0  0  0  0  0
  139.2675   76.8359  220.4926 H   0  0  0  0  0  0  0  0  0  0  0  0
  140.2740   74.2930  221.2050 H   0  0  0  0  0  0  0  0  0  0  0  0
  144.4074   75.9291  220.2102 H   0  0  0  0  0  0  0  0  0  0  0  0
  146.0503   74.1253  219.6798 H   0  0  0  0  0  0  0  0  0  0  0  0
  146.4425   71.6773  219.2950 H   0  0  0  0  0  0  0  0  0  0  0  0
  143.1009   68.9549  219.5514 H   0  0  0  0  0  0  0  0  0  0  0  0
  141.6150   70.8886  220.0664 H   0  0  0  0  0  0  0  0  0  0  0  0
  1  2  1  0
  2  3  2  0
  2  4  1  0
  4  5  1  0
  5  6  1  0
  6  7  2  0
  6  8  1  0
  8  9  1  0
  9 10  1  0
 10 11  2  0
 10 12  1  0
 12 13  2  0
 13 14  1  0
 14 15  2  0
 15 16  1  0
 16 17  2  0
 17 18  1  0
 17 19  1  0
 19 20  2  0
 20 21  1  0
 21 22  2  0
 22 12  1  0
 21 15  1  0
  1 23  1  0
  1 24  1  0
  4 25  1  0
  4 26  1  0
  5 27  1  0
  8 28  1  0
  8 29  1  0
  9 30  1  0
 13 31  1  0
 14 32  1  0
 16 33  1  0
 19 34  1  0
 20 35  1  0
M  END
>  <smiles>  (47) 
NC(=O)CNC(=O)CNC(=O)c1ccc2cc(Cl)ccc2n1

>  <score_type>  (47) 
oracle

>  <origin>  (47) 
autodockgpu

>  <m_score__min__energy>  (47) 
-7.2699999999999996

>  <m_primary>  (47) 
energy

>  <rmsd>  (47) 
6.5582310694133

>  <m_score__min__rmsd>  (47) 
6.5582310694133

>  <meeko>  (47) 
{"free_energy": -5.33, "intermolecular_energy": -6.82, "internal_energy": -2.5, "cluster_size": 2, "cluster_id": 4, "rank_in_cluster": 2}

>  <energy>  (47) 
-5.48

>  <cluster_rmsd>  (47) 
0.0

>  <cluster>  (47) 
4

$$$$

     RDKit          3D

 35 36  0  0  0  0  0  0  0  0999 V2000
  142.9940   76.7400  220.1240 N   0  0  0  0  0  0  0  0  0  0  0  0
  141.8770   77.1890  219.3670 C   0  0  0  0  0  0  0  0  0  0  0  0
  141.9750   77.4490  218.1220 O   0  0  0  0  0  0  0  0  0  0  0  0
  140.5890   77.3430  220.0880 C   0  0  0  0  0  0  0  0  0  0  0  0
  139.7610   76.1580  219.9680 N   0  0  0  0  0  0  0  0  0  0  0  0
  139.6100   75.3120  221.0940 C   0  0  0  0  0  0  0  0  0  0  0  0
  140.2290   75.6500  222.1610 O   0  0  0  0  0  0  0  0  0  0  0  0
  138.8130   74.0880  221.1450 C   0  0  0  0  0  0  0  0  0  0  0  0
  139.1060   73.1840  222.2110 N   0  0  0  0  0  0  0  0  0  0  0  0
  138.8140   71.7860  222.1330 C   0  0  0  0  0  0  0  0  0  0  0  0
  138.2680   71.2690  221.1060 O   0  0  0  0  0  0  0  0  0  0  0  0
  139.1490   70.9100  223.2660 C   0  0  0  0  0  0  0  0  0  0  0  0
  138.8410   69.5670  223.2190 C   0  0  0  0  0  0  0  0  0  0  0  0
  139.1500   68.7170  224.2830 C   0  0  0  0  0  0  0  0  0  0  0  0
  139.7710   69.2400  225.3880 C   0  0  0  0  0  0  0  0  0  0  0  0
  140.1240   68.5010  226.4970 C   0  0  0  0  0  0  0  0  0  0  0  0
  140.7520   69.1020  227.5810 C   0  0  0  0  0  0  0  0  0  0  0  0
  141.1890   68.1270  228.9790 Cl  0  0  0  0  0  0  0  0  0  0  0  0
  141.0440   70.4550  227.5850 C   0  0  0  0  0  0  0  0  0  0  0  0
  140.6890   71.1940  226.4740 C   0  0  0  0  0  0  0  0  0  0  0  0
  140.0650   70.5950  225.3970 C   0  0  0  0  0  0  0  0  0  0  0  0
  139.7590   71.4040  224.3590 N   0  0  0  0  0  0  0  0  0  0  0  0
  143.9390   77.1890  219.9590 H   0  0  0  0  0  0  0  0  0  0  0  0
  142.9110   75.9780  220.8400 H   0  0  0  0  0  0  0  0  0  0  0  0
  140.7963   77.5265  221.1526 H   0  0  0  0  0  0  0  0  0  0  0  0
  140.0449   78.1878  219.6406 H   0  0  0  0  0  0  0  0  0  0  0  0
  139.2880   75.9250  219.0700 H   0  0  0  0  0  0  0  0  0  0  0  0
  137.7563   74.3801  221.2347 H   0  0  0  0  0  0  0  0  0  0  0  0
  139.0575   73.5412  220.2224 H   0  0  0  0  0  0  0  0  0  0  0  0
  139.5570   73.4990  223.1220 H   0  0  0  0  0  0  0  0  0  0  0  0
  138.3431   69.1578  222.3276 H   0  0  0  0  0  0  0  0  0  0  0  0
  138.8997   67.6469  224.2355 H   0  0  0  0  0  0  0  0  0  0  0  0
  139.9060   67.4232  226.5240 H   0  0  0  0  0  0  0  0  0  0  0  0
  141.5425   70.9260  228.4450 H   0  0  0  0  0  0  0  0  0  0  0  0
  140.9056   72.2721  226.4462 H   0  0  0  0  0  0  0  0  0  0  0  0
  1  2  1  0
  2  3  2  0
  2  4  1  0
  4  5  1  0
  5  6  1  0
  6  7  2  0
  6  8  1  0
  8  9  1  0
  9 10  1  0
 10 11  2  0
 10 12  1  0
 12 13  2  0
 13 14  1  0
 14 15  2  0
 15 16  1  0
 16 17  2  0
 17 18  1  0
 17 19  1  0
 19 20  2  0
 20 21  1  0
 21 22  2  0
 22 12  1  0
 21 15  1  0
  1 23  1  0
  1 24  1  0
  4 25  1  0
  4 26  1  0
  5 27  1  0
  8 28  1  0
  8 29  1  0
  9 30  1  0
 13 31  1  0
 14 32  1  0
 16 33  1  0
 19 34  1  0
 20 35  1  0
M  END
>  <smiles>  (48) 
NC(=O)CNC(=O)CNC(=O)c1ccc2cc(Cl)ccc2n1

>  <score_type>  (48) 
oracle

>  <origin>  (48) 
autodockgpu

>  <m_score__min__energy>  (48) 
-7.2699999999999996

>  <m_primary>  (48) 
energy

>  <rmsd>  (48) 
1.2758553552818643

>  <m_score__min__rmsd>  (48) 
1.2758553552818643

>  <meeko>  (48) 
{"free_energy": -6.31, "intermolecular_energy": -7.8, "internal_energy": -1.53, "cluster_size": 21, "cluster_id": 1, "rank_in_cluster": 17}

>  <energy>  (48) 
-5.33

>  <cluster_rmsd>  (48) 
0.52

>  <cluster>  (48) 
4

$$$$

     RDKit          3D

 35 36  0  0  0  0  0  0  0  0999 V2000
  140.0050   67.1760  226.8810 N   0  0  0  0  0  0  0  0  0  0  0  0
  139.7620   67.9220  225.6950 C   0  0  0  0  0  0  0  0  0  0  0  0
  139.2190   67.3900  224.6700 O   0  0  0  0  0  0  0  0  0  0  0  0
  140.1670   69.3500  225.7000 C   0  0  0  0  0  0  0  0  0  0  0  0
  139.8010   70.0170  224.4650 N   0  0  0  0  0  0  0  0  0  0  0  0
  138.4360   70.3030  224.2210 C   0  0  0  0  0  0  0  0  0  0  0  0
  137.5980   69.9440  225.1180 O   0  0  0  0  0  0  0  0  0  0  0  0
  137.8980   70.9690  223.0350 C   0  0  0  0  0  0  0  0  0  0  0  0
  138.4900   72.2230  222.6890 N   0  0  0  0  0  0  0  0  0  0  0  0
  139.7860   72.3200  222.0910 C   0  0  0  0  0  0  0  0  0  0  0  0
  140.4890   71.2900  221.8390 O   0  0  0  0  0  0  0  0  0  0  0  0
  140.3320   73.6430  221.7530 C   0  0  0  0  0  0  0  0  0  0  0  0
  141.4180   73.7510  220.9110 C   0  0  0  0  0  0  0  0  0  0  0  0
  141.9530   74.9960  220.5770 C   0  0  0  0  0  0  0  0  0  0  0  0
  141.3780   76.1240  221.1020 C   0  0  0  0  0  0  0  0  0  0  0  0
  141.8180   77.4060  220.8450 C   0  0  0  0  0  0  0  0  0  0  0  0
  141.1840   78.5030  221.4160 C   0  0  0  0  0  0  0  0  0  0  0  0
  141.7720   80.1230  221.0640 Cl  0  0  0  0  0  0  0  0  0  0  0  0
  140.0950   78.3480  222.2560 C   0  0  0  0  0  0  0  0  0  0  0  0
  139.6560   77.0640  222.5130 C   0  0  0  0  0  0  0  0  0  0  0  0
  140.2870   75.9750  221.9460 C   0  0  0  0  0  0  0  0  0  0  0  0
  139.7810   74.7620  222.2590 N   0  0  0  0  0  0  0  0  0  0  0  0
  140.3700   66.1850  226.7970 H   0  0  0  0  0  0  0  0  0  0  0  0
  139.8330   67.5760  227.8350 H   0  0  0  0  0  0  0  0  0  0  0  0
  139.6707   69.8581  226.5399 H   0  0  0  0  0  0  0  0  0  0  0  0
  141.2613   69.3951  225.8022 H   0  0  0  0  0  0  0  0  0  0  0  0
  140.5250   70.2760  223.7620 H   0  0  0  0  0  0  0  0  0  0  0  0
  138.0297   70.2892  222.1803 H   0  0  0  0  0  0  0  0  0  0  0  0
  136.8495   71.1969  223.2772 H   0  0  0  0  0  0  0  0  0  0  0  0
  138.0000   73.1530  222.8570 H   0  0  0  0  0  0  0  0  0  0  0  0
  141.8712   72.8393  220.4947 H   0  0  0  0  0  0  0  0  0  0  0  0
  142.8204   75.0706  219.9046 H   0  0  0  0  0  0  0  0  0  0  0  0
  142.6806   77.5617  220.1804 H   0  0  0  0  0  0  0  0  0  0  0  0
  139.5953   79.2193  222.7044 H   0  0  0  0  0  0  0  0  0  0  0  0
  138.7934   76.9073  223.1773 H   0  0  0  0  0  0  0  0  0  0  0  0
  1  2  1  0
  2  3  2  0
  2  4  1  0
  4  5  1  0
  5  6  1  0
  6  7  2  0
  6  8  1  0
  8  9  1  0
  9 10  1  0
 10 11  2  0
 10 12  1  0
 12 13  2  0
 13 14  1  0
 14 15  2  0
 15 16  1  0
 16 17  2  0
 17 18  1  0
 17 19  1  0
 19 20  2  0
 20 21  1  0
 21 22  2  0
 22 12  1  0
 21 15  1  0
  1 23  1  0
  1 24  1  0
  4 25  1  0
  4 26  1  0
  5 27  1  0
  8 28  1  0
  8 29  1  0
  9 30  1  0
 13 31  1  0
 14 32  1  0
 16 33  1  0
 19 34  1  0
 20 35  1  0
M  END
>  <smiles>  (49) 
NC(=O)CNC(=O)CNC(=O)c1ccc2cc(Cl)ccc2n1

>  <score_type>  (49) 
oracle

>  <origin>  (49) 
autodockgpu

>  <m_score__min__energy>  (49) 
-7.2699999999999996

>  <m_primary>  (49) 
energy

>  <rmsd>  (49) 
7.951108076621152

>  <m_score__min__rmsd>  (49) 
7.951108076621152

>  <meeko>  (49) 
{"free_energy": -6.22, "intermolecular_energy": -7.71, "internal_energy": -1.86, "cluster_size": 9, "cluster_id": 2, "rank_in_cluster": 4}

>  <energy>  (49) 
-5.32

>  <cluster_rmsd>  (49) 
0.0

>  <cluster>  (49) 
5

$$$$

     RDKit          3D

 35 36  0  0  0  0  0  0  0  0999 V2000
  142.0320   78.1750  220.6410 N   0  0  0  0  0  0  0  0  0  0  0  0
  141.8210   78.7650  221.9180 C   0  0  0  0  0  0  0  0  0  0  0  0
  142.5540   79.7190  222.3420 O   0  0  0  0  0  0  0  0  0  0  0  0
  140.7090   78.2220  222.7380 C   0  0  0  0  0  0  0  0  0  0  0  0
  140.5180   76.8030  222.5130 N   0  0  0  0  0  0  0  0  0  0  0  0
  139.7530   76.3850  221.3960 C   0  0  0  0  0  0  0  0  0  0  0  0
  139.2670   77.3020  220.6490 O   0  0  0  0  0  0  0  0  0  0  0  0
  139.4680   75.0000  221.0230 C   0  0  0  0  0  0  0  0  0  0  0  0
  139.5680   74.0290  222.0660 N   0  0  0  0  0  0  0  0  0  0  0  0
  139.6830   72.6280  221.8000 C   0  0  0  0  0  0  0  0  0  0  0  0
  139.6970   72.1670  220.6140 O   0  0  0  0  0  0  0  0  0  0  0  0
  139.7900   71.6830  222.9220 C   0  0  0  0  0  0  0  0  0  0  0  0
  139.3680   70.3790  222.7730 C   0  0  0  0  0  0  0  0  0  0  0  0
  139.4600   69.4650  223.8250 C   0  0  0  0  0  0  0  0  0  0  0  0
  139.9800   69.8840  225.0210 C   0  0  0  0  0  0  0  0  0  0  0  0
  140.1200   69.0740  226.1280 C   0  0  0  0  0  0  0  0  0  0  0  0
  140.6580   69.5720  227.3100 C   0  0  0  0  0  0  0  0  0  0  0  0
  140.8210   68.5090  228.7020 Cl  0  0  0  0  0  0  0  0  0  0  0  0
  141.0690   70.8890  227.4150 C   0  0  0  0  0  0  0  0  0  0  0  0
  140.9280   71.6990  226.3050 C   0  0  0  0  0  0  0  0  0  0  0  0
  140.3940   71.2040  225.1320 C   0  0  0  0  0  0  0  0  0  0  0  0
  140.2980   72.0760  224.1050 N   0  0  0  0  0  0  0  0  0  0  0  0
  143.0240   77.9900  220.3200 H   0  0  0  0  0  0  0  0  0  0  0  0
  141.2360   77.9170  220.0090 H   0  0  0  0  0  0  0  0  0  0  0  0
  140.9374   78.3864  223.8014 H   0  0  0  0  0  0  0  0  0  0  0  0
  139.7842   78.7420  222.4475 H   0  0  0  0  0  0  0  0  0  0  0  0
  140.9270   76.0980  223.1610 H   0  0  0  0  0  0  0  0  0  0  0  0
  138.4416   74.9637  220.6289 H   0  0  0  0  0  0  0  0  0  0  0  0
  140.2451   74.7274  220.2938 H   0  0  0  0  0  0  0  0  0  0  0  0
  139.5620   74.2930  223.0970 H   0  0  0  0  0  0  0  0  0  0  0  0
  138.9515   70.0527  221.8086 H   0  0  0  0  0  0  0  0  0  0  0  0
  139.1208   68.4267  223.6954 H   0  0  0  0  0  0  0  0  0  0  0  0
  139.8026   68.0221  226.0758 H   0  0  0  0  0  0  0  0  0  0  0  0
  141.4942   71.2783  228.3518 H   0  0  0  0  0  0  0  0  0  0  0  0
  141.2450   72.7511  226.3563 H   0  0  0  0  0  0  0  0  0  0  0  0
  1  2  1  0
  2  3  2  0
  2  4  1  0
  4  5  1  0
  5  6  1  0
  6  7  2  0
  6  8  1  0
  8  9  1  0
  9 10  1  0
 10 11  2  0
 10 12  1  0
 12 13  2  0
 13 14  1  0
 14 15  2  0
 15 16  1  0
 16 17  2  0
 17 18  1  0
 17 19  1  0
 19 20  2  0
 20 21  1  0
 21 22  2  0
 22 12  1  0
 21 15  1  0
  1 23  1  0
  1 24  1  0
  4 25  1  0
  4 26  1  0
  5 27  1  0
  8 28  1  0
  8 29  1  0
  9 30  1  0
 13 31  1  0
 14 32  1  0
 16 33  1  0
 19 34  1  0
 20 35  1  0
M  END
>  <smiles>  (50) 
NC(=O)CNC(=O)CNC(=O)c1ccc2cc(Cl)ccc2n1

>  <score_type>  (50) 
oracle

>  <origin>  (50) 
autodockgpu

>  <m_score__min__energy>  (50) 
-7.2699999999999996

>  <m_primary>  (50) 
energy

>  <rmsd>  (50) 
1.9098035049162343

>  <m_score__min__rmsd>  (50) 
1.9098035049162343

>  <meeko>  (50) 
{"free_energy": -6.39, "intermolecular_energy": -7.88, "internal_energy": -1.67, "cluster_size": 21, "cluster_id": 1, "rank_in_cluster": 15}

>  <energy>  (50) 
-5.18

>  <cluster_rmsd>  (50) 
0.4

>  <cluster>  (50) 
5

$$$$
