
     RDKit          3D

 54 57  0  0  0  0  0  0  0  0999 V2000
  139.5600   71.0180  221.2480 O   0  0  0  0  0  0  0  0  0  0  0  0
  139.6390   71.6960  222.3050 C   0  0  0  0  0  0  0  0  0  0  0  0
  139.5040   73.1430  222.1800 N   0  0  0  0  0  0  0  0  0  0  0  0
  139.2970   73.6280  220.8600 C   0  0  0  0  0  0  0  0  0  0  0  0
  139.1860   75.0720  220.6370 C   0  0  0  0  0  0  0  0  0  0  0  0
  138.0760   75.5730  221.1010 O   0  0  0  0  0  0  0  0  0  0  0  0
  140.0680   75.9630  220.0190 N   0  0  0  0  0  0  0  0  0  0  0  0
  140.8680   75.8150  218.7940 C   0  0  0  0  0  0  0  0  0  0  0  0
  141.8430   77.0110  218.7800 C   0  0  0  0  0  0  0  0  0  0  0  0
  141.8480   77.3890  220.2810 C   0  0  0  0  0  0  0  0  0  0  0  0
  140.3530   77.3050  220.4950 C   0  0  2  0  0  0  0  0  0  0  0  0
  139.8740   77.6640  221.8380 C   0  0  0  0  0  0  0  0  0  0  0  0
  141.0930   77.5980  222.7840 C   0  0  0  0  0  0  0  0  0  0  0  0
  141.5310   78.9830  223.1260 C   0  0  0  0  0  0  0  0  0  0  0  0
  142.8620   79.3660  223.1040 C   0  0  0  0  0  0  0  0  0  0  0  0
  143.1430   80.6770  223.4400 C   0  0  0  0  0  0  0  0  0  0  0  0
  142.1560   81.5860  223.7880 C   0  0  0  0  0  0  0  0  0  0  0  0
  140.8330   81.1900  223.8070 C   0  0  0  0  0  0  0  0  0  0  0  0
  140.5250   79.8880  223.4760 C   0  0  0  0  0  0  0  0  0  0  0  0
  139.8540   71.1110  223.6220 C   0  0  0  0  0  0  0  0  0  0  0  0
  139.5200   69.7830  223.7760 C   0  0  0  0  0  0  0  0  0  0  0  0
  139.7210   69.2220  225.0220 C   0  0  0  0  0  0  0  0  0  0  0  0
  140.2430   69.9870  226.0660 C   0  0  0  0  0  0  0  0  0  0  0  0
  140.4540   69.4480  227.3210 C   0  0  0  0  0  0  0  0  0  0  0  0
  140.9780   70.2590  228.3250 C   0  0  0  0  0  0  0  0  0  0  0  0
  141.2970   71.5700  228.1330 C   0  0  0  0  0  0  0  0  0  0  0  0
  141.0840   72.1110  226.8670 C   0  0  0  0  0  0  0  0  0  0  0  0
  140.5650   71.3090  225.8710 C   0  0  0  0  0  0  0  0  0  0  0  0
  140.3560   71.8250  224.6450 N   0  0  0  0  0  0  0  0  0  0  0  0
  139.5860   73.6480  223.0630 H   0  0  0  0  0  0  0  0  0  0  0  0
  140.1417   73.2730  220.2513 H   0  0  0  0  0  0  0  0  0  0  0  0
  138.3004   73.2455  220.5946 H   0  0  0  0  0  0  0  0  0  0  0  0
  141.4254   74.8669  218.8130 H   0  0  0  0  0  0  0  0  0  0  0  0
  140.2332   75.8003  217.8958 H   0  0  0  0  0  0  0  0  0  0  0  0
  142.8438   76.7149  218.4325 H   0  0  0  0  0  0  0  0  0  0  0  0
  141.5556   77.8286  218.1025 H   0  0  0  0  0  0  0  0  0  0  0  0
  142.4028   76.6650  220.8958 H   0  0  0  0  0  0  0  0  0  0  0  0
  142.3318   78.3400  220.5484 H   0  0  0  0  0  0  0  0  0  0  0  0
  139.7811   78.0707  219.9504 H   0  0  0  0  0  0  0  0  0  0  0  0
  139.4560   78.6815  221.8307 H   0  0  0  0  0  0  0  0  0  0  0  0
  139.0819   76.9764  222.1694 H   0  0  0  0  0  0  0  0  0  0  0  0
  140.8148   77.0634  223.7042 H   0  0  0  0  0  0  0  0  0  0  0  0
  141.9162   77.0650  222.2857 H   0  0  0  0  0  0  0  0  0  0  0  0
  143.6593   78.6588  222.8315 H   0  0  0  0  0  0  0  0  0  0  0  0
  144.1907   81.0120  223.4309 H   0  0  0  0  0  0  0  0  0  0  0  0
  142.4258   82.6201  224.0483 H   0  0  0  0  0  0  0  0  0  0  0  0
  140.0396   81.9008  224.0813 H   0  0  0  0  0  0  0  0  0  0  0  0
  139.4759   79.5575  223.4874 H   0  0  0  0  0  0  0  0  0  0  0  0
  139.1106   69.1945  222.9417 H   0  0  0  0  0  0  0  0  0  0  0  0
  139.4679   68.1652  225.1926 H   0  0  0  0  0  0  0  0  0  0  0  0
  140.2118   68.3944  227.5240 H   0  0  0  0  0  0  0  0  0  0  0  0
  141.1422   69.8204  229.3203 H   0  0  0  0  0  0  0  0  0  0  0  0
  141.7088   72.1805  228.9502 H   0  0  0  0  0  0  0  0  0  0  0  0
  141.3265   73.1645  226.6638 H   0  0  0  0  0  0  0  0  0  0  0  0
  1  2  2  0
  2  3  1  0
  3  4  1  0
  4  5  1  0
  5  6  2  0
  5  7  1  0
  7  8  1  0
  8  9  1  0
  9 10  1  0
 10 11  1  0
 11 12  1  0
 12 13  1  0
 13 14  1  0
 14 15  2  0
 15 16  1  0
 16 17  2  0
 17 18  1  0
 18 19  2  0
  2 20  1  0
 20 21  2  0
 21 22  1  0
 22 23  2  0
 23 24  1  0
 24 25  2  0
 25 26  1  0
 26 27  2  0
 27 28  1  0
 28 29  2  0
 11  7  1  0
 19 14  1  0
 29 20  1  0
 28 23  1  0
  3 30  1  0
  4 31  1  0
  4 32  1  0
  8 33  1  0
  8 34  1  0
  9 35  1  0
  9 36  1  0
 10 37  1  0
 10 38  1  0
 11 39  1  6
 12 40  1  0
 12 41  1  0
 13 42  1  0
 13 43  1  0
 15 44  1  0
 16 45  1  0
 17 46  1  0
 18 47  1  0
 19 48  1  0
 21 49  1  0
 22 50  1  0
 24 51  1  0
 25 52  1  0
 26 53  1  0
 27 54  1  0
M  END
>  <smiles>  (1) 
O=C(NCC(=O)N1CCCC1CCc1ccccc1)c1ccc2ccccc2n1

>  <score_type>  (1) 
oracle

>  <origin>  (1) 
autodockgpu

>  <m_score__min__energy>  (1) 
-9.2100000000000009

>  <m_primary>  (1) 
energy

>  <rmsd>  (1) 
2.5600144345805327

>  <m_score__min__rmsd>  (1) 
2.5600144345805327

>  <meeko>  (1) 
{"free_energy": -8.55, "intermolecular_energy": -10.63, "internal_energy": -1.5, "cluster_size": 20, "cluster_id": 1, "rank_in_cluster": 18}

>  <energy>  (1) 
-9.21

>  <cluster_rmsd>  (1) 
0.0

>  <cluster>  (1) 
1

$$$$

     RDKit          3D

 54 57  0  0  0  0  0  0  0  0999 V2000
  138.7030   75.6550  221.7640 O   0  0  0  0  0  0  0  0  0  0  0  0
  139.8650   76.0900  221.9750 C   0  0  0  0  0  0  0  0  0  0  0  0
  140.9740   75.1800  221.7170 N   0  0  0  0  0  0  0  0  0  0  0  0
  140.6110   73.8870  221.2500 C   0  0  0  0  0  0  0  0  0  0  0  0
  140.1270   72.8900  222.2080 C   0  0  0  0  0  0  0  0  0  0  0  0
  141.0670   72.4400  222.9910 O   0  0  0  0  0  0  0  0  0  0  0  0
  138.8450   72.3660  222.4000 N   0  0  0  0  0  0  0  0  0  0  0  0
  137.5250   72.9610  222.1440 C   0  0  0  0  0  0  0  0  0  0  0  0
  136.5010   72.0190  222.8120 C   0  0  0  0  0  0  0  0  0  0  0  0
  137.4080   71.2960  223.8350 C   0  0  0  0  0  0  0  0  0  0  0  0
  138.5660   71.0310  222.8990 C   0  0  2  0  0  0  0  0  0  0  0  0
  139.6900   70.2690  223.4640 C   0  0  0  0  0  0  0  0  0  0  0  0
  139.2040   69.6780  224.8060 C   0  0  0  0  0  0  0  0  0  0  0  0
  139.8940   70.3720  225.9320 C   0  0  0  0  0  0  0  0  0  0  0  0
  140.6710   71.5030  225.7410 C   0  0  0  0  0  0  0  0  0  0  0  0
  141.2590   72.0570  226.8630 C   0  0  0  0  0  0  0  0  0  0  0  0
  141.0950   71.5240  228.1310 C   0  0  0  0  0  0  0  0  0  0  0  0
  140.3170   70.3950  228.3070 C   0  0  0  0  0  0  0  0  0  0  0  0
  139.7190   69.8230  227.2060 C   0  0  0  0  0  0  0  0  0  0  0  0
  140.1440   77.4370  222.4570 C   0  0  0  0  0  0  0  0  0  0  0  0
  139.0580   78.2150  222.7980 C   0  0  0  0  0  0  0  0  0  0  0  0
  139.3160   79.4920  223.2540 C   0  0  0  0  0  0  0  0  0  0  0  0
  140.6280   79.9550  223.3580 C   0  0  0  0  0  0  0  0  0  0  0  0
  140.9110   81.2290  223.8130 C   0  0  0  0  0  0  0  0  0  0  0  0
  142.2410   81.6370  223.8960 C   0  0  0  0  0  0  0  0  0  0  0  0
  143.2880   80.8370  223.5490 C   0  0  0  0  0  0  0  0  0  0  0  0
  143.0010   79.5540  223.0910 C   0  0  0  0  0  0  0  0  0  0  0  0
  141.6840   79.1470  223.0080 C   0  0  0  0  0  0  0  0  0  0  0  0
  141.3980   77.9080  222.5670 N   0  0  0  0  0  0  0  0  0  0  0  0
  141.8940   75.5760  221.9130 H   0  0  0  0  0  0  0  0  0  0  0  0
  139.8160   74.0269  220.5028 H   0  0  0  0  0  0  0  0  0  0  0  0
  141.5601   73.4636  220.8895 H   0  0  0  0  0  0  0  0  0  0  0  0
  137.4659   73.9663  222.5865 H   0  0  0  0  0  0  0  0  0  0  0  0
  137.3322   73.0689  221.0664 H   0  0  0  0  0  0  0  0  0  0  0  0
  135.6962   72.5808  223.3087 H   0  0  0  0  0  0  0  0  0  0  0  0
  135.9713   71.3510  222.1168 H   0  0  0  0  0  0  0  0  0  0  0  0
  137.6888   71.9427  224.6794 H   0  0  0  0  0  0  0  0  0  0  0  0
  136.9764   70.4217  224.3443 H   0  0  0  0  0  0  0  0  0  0  0  0
  138.3320   70.3236  222.0897 H   0  0  0  0  0  0  0  0  0  0  0  0
  139.9810   69.4599  222.7779 H   0  0  0  0  0  0  0  0  0  0  0  0
  140.5673   70.9154  223.6139 H   0  0  0  0  0  0  0  0  0  0  0  0
  138.1172   69.8208  224.8977 H   0  0  0  0  0  0  0  0  0  0  0  0
  139.4359   68.6032  224.8396 H   0  0  0  0  0  0  0  0  0  0  0  0
  140.8137   71.9404  224.7419 H   0  0  0  0  0  0  0  0  0  0  0  0
  141.8814   72.9562  226.7441 H   0  0  0  0  0  0  0  0  0  0  0  0
  141.5826   71.9979  228.9957 H   0  0  0  0  0  0  0  0  0  0  0  0
  140.1780   69.9613  229.3083 H   0  0  0  0  0  0  0  0  0  0  0  0
  139.0969   68.9244  227.3303 H   0  0  0  0  0  0  0  0  0  0  0  0
  138.0297   77.8342  222.7104 H   0  0  0  0  0  0  0  0  0  0  0  0
  138.4810   80.1495  223.5375 H   0  0  0  0  0  0  0  0  0  0  0  0
  140.0987   81.9107  224.1052 H   0  0  0  0  0  0  0  0  0  0  0  0
  142.4557   82.6530  224.2588 H   0  0  0  0  0  0  0  0  0  0  0  0
  144.3257   81.1931  223.6281 H   0  0  0  0  0  0  0  0  0  0  0  0
  143.8136   78.8726  222.7987 H   0  0  0  0  0  0  0  0  0  0  0  0
  1  2  2  0
  2  3  1  0
  3  4  1  0
  4  5  1  0
  5  6  2  0
  5  7  1  0
  7  8  1  0
  8  9  1  0
  9 10  1  0
 10 11  1  0
 11 12  1  0
 12 13  1  0
 13 14  1  0
 14 15  2  0
 15 16  1  0
 16 17  2  0
 17 18  1  0
 18 19  2  0
  2 20  1  0
 20 21  2  0
 21 22  1  0
 22 23  2  0
 23 24  1  0
 24 25  2  0
 25 26  1  0
 26 27  2  0
 27 28  1  0
 28 29  2  0
 11  7  1  0
 19 14  1  0
 29 20  1  0
 28 23  1  0
  3 30  1  0
  4 31  1  0
  4 32  1  0
  8 33  1  0
  8 34  1  0
  9 35  1  0
  9 36  1  0
 10 37  1  0
 10 38  1  0
 11 39  1  6
 12 40  1  0
 12 41  1  0
 13 42  1  0
 13 43  1  0
 15 44  1  0
 16 45  1  0
 17 46  1  0
 18 47  1  0
 19 48  1  0
 21 49  1  0
 22 50  1  0
 24 51  1  0
 25 52  1  0
 26 53  1  0
 27 54  1  0
M  END
>  <smiles>  (2) 
O=C(NCC(=O)N1CCCC1CCc1ccccc1)c1ccc2ccccc2n1

>  <score_type>  (2) 
oracle

>  <origin>  (2) 
autodockgpu

>  <m_score__min__energy>  (2) 
-9.2100000000000009

>  <m_primary>  (2) 
energy

>  <rmsd>  (2) 
8.398423365275022

>  <m_score__min__rmsd>  (2) 
8.398423365275022

>  <meeko>  (2) 
{"free_energy": -8.97, "intermolecular_energy": -11.06, "internal_energy": -1.66, "cluster_size": 22, "cluster_id": 2, "rank_in_cluster": 4}

>  <energy>  (2) 
-9.15

>  <cluster_rmsd>  (2) 
0.35

>  <cluster>  (2) 
1

$$$$

     RDKit          3D

 54 57  0  0  0  0  0  0  0  0999 V2000
  139.1220   75.0830  221.6630 O   0  0  0  0  0  0  0  0  0  0  0  0
  140.2040   75.6790  221.9010 C   0  0  0  0  0  0  0  0  0  0  0  0
  141.4370   74.9300  221.6850 N   0  0  0  0  0  0  0  0  0  0  0  0
  141.2710   73.5950  221.2260 C   0  0  0  0  0  0  0  0  0  0  0  0
  142.1030   73.1100  220.1210 C   0  0  0  0  0  0  0  0  0  0  0  0
  141.4050   72.7360  219.0860 O   0  0  0  0  0  0  0  0  0  0  0  0
  143.4920   72.9910  220.0180 N   0  0  0  0  0  0  0  0  0  0  0  0
  144.3530   71.8010  220.0720 C   0  0  0  0  0  0  0  0  0  0  0  0
  145.7990   72.3300  220.1810 C   0  0  0  0  0  0  0  0  0  0  0  0
  145.5380   73.7540  220.7280 C   0  0  0  0  0  0  0  0  0  0  0  0
  144.4000   74.1030  219.7950 C   0  0  2  0  0  0  0  0  0  0  0  0
  143.8540   75.4620  219.9250 C   0  0  0  0  0  0  0  0  0  0  0  0
  143.2200   75.8250  218.5650 C   0  0  0  0  0  0  0  0  0  0  0  0
  142.2090   76.9050  218.7610 C   0  0  0  0  0  0  0  0  0  0  0  0
  142.5680   78.2280  218.9650 C   0  0  0  0  0  0  0  0  0  0  0  0
  141.5410   79.1370  219.1330 C   0  0  0  0  0  0  0  0  0  0  0  0
  140.2060   78.7680  219.1040 C   0  0  0  0  0  0  0  0  0  0  0  0
  139.8620   77.4450  218.9000 C   0  0  0  0  0  0  0  0  0  0  0  0
  140.8670   76.5180  218.7290 C   0  0  0  0  0  0  0  0  0  0  0  0
  140.2790   77.0550  222.3720 C   0  0  0  0  0  0  0  0  0  0  0  0
  139.0850   77.6850  222.6500 C   0  0  0  0  0  0  0  0  0  0  0  0
  139.1490   78.9900  223.0960 C   0  0  0  0  0  0  0  0  0  0  0  0
  140.3820   79.6250  223.2520 C   0  0  0  0  0  0  0  0  0  0  0  0
  140.4710   80.9300  223.6980 C   0  0  0  0  0  0  0  0  0  0  0  0
  141.7290   81.5130  223.8360 C   0  0  0  0  0  0  0  0  0  0  0  0
  142.8890   80.8560  223.5500 C   0  0  0  0  0  0  0  0  0  0  0  0
  142.7960   79.5410  223.1010 C   0  0  0  0  0  0  0  0  0  0  0  0
  141.5510   78.9610  222.9650 C   0  0  0  0  0  0  0  0  0  0  0  0
  141.4540   77.6910  222.5310 N   0  0  0  0  0  0  0  0  0  0  0  0
  142.2870   75.4520  221.9010 H   0  0  0  0  0  0  0  0  0  0  0  0
  141.4601   72.9341  222.0847 H   0  0  0  0  0  0  0  0  0  0  0  0
  140.2527   73.5861  220.8101 H   0  0  0  0  0  0  0  0  0  0  0  0
  144.1029   71.1872  220.9499 H   0  0  0  0  0  0  0  0  0  0  0  0
  144.2210   71.1662  219.1834 H   0  0  0  0  0  0  0  0  0  0  0  0
  146.3993   71.7299  220.8807 H   0  0  0  0  0  0  0  0  0  0  0  0
  146.3710   72.2974  219.2420 H   0  0  0  0  0  0  0  0  0  0  0  0
  145.2303   73.7495  221.7841 H   0  0  0  0  0  0  0  0  0  0  0  0
  146.3956   74.4427  220.7382 H   0  0  0  0  0  0  0  0  0  0  0  0
  144.6995   74.1913  218.7402 H   0  0  0  0  0  0  0  0  0  0  0  0
  143.0909   75.4885  220.7168 H   0  0  0  0  0  0  0  0  0  0  0  0
  144.6440   76.1787  220.1939 H   0  0  0  0  0  0  0  0  0  0  0  0
  144.0033   76.1762  217.8772 H   0  0  0  0  0  0  0  0  0  0  0  0
  142.7304   74.9366  218.1395 H   0  0  0  0  0  0  0  0  0  0  0  0
  143.6224   78.5402  218.9919 H   0  0  0  0  0  0  0  0  0  0  0  0
  141.7933   80.1952  219.2962 H   0  0  0  0  0  0  0  0  0  0  0  0
  139.4214   79.5263  219.2431 H   0  0  0  0  0  0  0  0  0  0  0  0
  138.8060   77.1380  218.8746 H   0  0  0  0  0  0  0  0  0  0  0  0
  140.6097   75.4611  218.5654 H   0  0  0  0  0  0  0  0  0  0  0  0
  138.1217   77.1697  222.5219 H   0  0  0  0  0  0  0  0  0  0  0  0
  138.2215   79.5332  223.3301 H   0  0  0  0  0  0  0  0  0  0  0  0
  139.5621   81.5001  223.9405 H   0  0  0  0  0  0  0  0  0  0  0  0
  141.7891   82.5519  224.1924 H   0  0  0  0  0  0  0  0  0  0  0  0
  143.8655   81.3481  223.6699 H   0  0  0  0  0  0  0  0  0  0  0  0
  143.7047   78.9709  222.8574 H   0  0  0  0  0  0  0  0  0  0  0  0
  1  2  2  0
  2  3  1  0
  3  4  1  0
  4  5  1  0
  5  6  2  0
  5  7  1  0
  7  8  1  0
  8  9  1  0
  9 10  1  0
 10 11  1  0
 11 12  1  0
 12 13  1  0
 13 14  1  0
 14 15  2  0
 15 16  1  0
 16 17  2  0
 17 18  1  0
 18 19  2  0
  2 20  1  0
 20 21  2  0
 21 22  1  0
 22 23  2  0
 23 24  1  0
 24 25  2  0
 25 26  1  0
 26 27  2  0
 27 28  1  0
 28 29  2  0
 11  7  1  0
 19 14  1  0
 29 20  1  0
 28 23  1  0
  3 30  1  0
  4 31  1  0
  4 32  1  0
  8 33  1  0
  8 34  1  0
  9 35  1  0
  9 36  1  0
 10 37  1  0
 10 38  1  0
 11 39  1  6
 12 40  1  0
 12 41  1  0
 13 42  1  0
 13 43  1  0
 15 44  1  0
 16 45  1  0
 17 46  1  0
 18 47  1  0
 19 48  1  0
 21 49  1  0
 22 50  1  0
 24 51  1  0
 25 52  1  0
 26 53  1  0
 27 54  1  0
M  END
>  <smiles>  (3) 
O=C(NCC(=O)N1CCCC1CCc1ccccc1)c1ccc2ccccc2n1

>  <score_type>  (3) 
oracle

>  <origin>  (3) 
autodockgpu

>  <m_score__min__energy>  (3) 
-9.2100000000000009

>  <m_primary>  (3) 
energy

>  <rmsd>  (3) 
7.479869630619703

>  <m_score__min__rmsd>  (3) 
7.479869630619703

>  <meeko>  (3) 
{"free_energy": -6.91, "intermolecular_energy": -9.0, "internal_energy": -3.17, "cluster_size": 1, "cluster_id": 5, "rank_in_cluster": 1}

>  <energy>  (3) 
-9.1

>  <cluster_rmsd>  (3) 
0.92

>  <cluster>  (3) 
1

$$$$

     RDKit          3D

 54 57  0  0  0  0  0  0  0  0999 V2000
  140.3360   74.2990  220.1440 O   0  0  0  0  0  0  0  0  0  0  0  0
  140.1510   75.0230  221.1570 C   0  0  0  0  0  0  0  0  0  0  0  0
  139.3480   74.4630  222.2380 N   0  0  0  0  0  0  0  0  0  0  0  0
  138.8590   73.1460  222.0200 C   0  0  0  0  0  0  0  0  0  0  0  0
  139.7200   72.0020  222.3320 C   0  0  0  0  0  0  0  0  0  0  0  0
  140.7390   72.3230  223.0790 O   0  0  0  0  0  0  0  0  0  0  0  0
  139.6130   70.6590  221.9590 N   0  0  0  0  0  0  0  0  0  0  0  0
  139.9370   69.9950  220.6880 C   0  0  0  0  0  0  0  0  0  0  0  0
  139.3460   68.5730  220.7920 C   0  0  0  0  0  0  0  0  0  0  0  0
  138.2830   68.7890  221.8950 C   0  0  0  0  0  0  0  0  0  0  0  0
  139.1530   69.5940  222.8330 C   0  0  2  0  0  0  0  0  0  0  0  0
  138.5360   69.9830  224.1100 C   0  0  0  0  0  0  0  0  0  0  0  0
  139.2150   69.1430  225.2140 C   0  0  0  0  0  0  0  0  0  0  0  0
  139.8870   70.0520  226.1870 C   0  0  0  0  0  0  0  0  0  0  0  0
  139.6690   69.9680  227.5530 C   0  0  0  0  0  0  0  0  0  0  0  0
  140.3510   70.8650  228.3530 C   0  0  0  0  0  0  0  0  0  0  0  0
  141.2170   71.8160  227.8370 C   0  0  0  0  0  0  0  0  0  0  0  0
  141.4240   71.8890  226.4730 C   0  0  0  0  0  0  0  0  0  0  0  0
  140.7570   71.0070  225.6520 C   0  0  0  0  0  0  0  0  0  0  0  0
  140.6940   76.3680  221.2940 C   0  0  0  0  0  0  0  0  0  0  0  0
  141.0450   77.0210  220.1320 C   0  0  0  0  0  0  0  0  0  0  0  0
  141.5600   78.2950  220.2560 C   0  0  0  0  0  0  0  0  0  0  0  0
  141.7090   78.8790  221.5140 C   0  0  0  0  0  0  0  0  0  0  0  0
  142.2220   80.1540  221.6630 C   0  0  0  0  0  0  0  0  0  0  0  0
  142.3490   80.6860  222.9440 C   0  0  0  0  0  0  0  0  0  0  0  0
  141.9900   80.0080  224.0710 C   0  0  0  0  0  0  0  0  0  0  0  0
  141.4730   78.7240  223.9190 C   0  0  0  0  0  0  0  0  0  0  0  0
  141.3470   78.1950  222.6500 C   0  0  0  0  0  0  0  0  0  0  0  0
  140.8490   76.9540  222.4950 N   0  0  0  0  0  0  0  0  0  0  0  0
  139.2180   75.0910  223.0320 H   0  0  0  0  0  0  0  0  0  0  0  0
  137.9479   73.0372  222.6267 H   0  0  0  0  0  0  0  0  0  0  0  0
  138.7362   73.0904  220.9283 H   0  0  0  0  0  0  0  0  0  0  0  0
  139.4827   70.5377  219.8459 H   0  0  0  0  0  0  0  0  0  0  0  0
  141.0223   69.9697  220.5103 H   0  0  0  0  0  0  0  0  0  0  0  0
  138.8884   68.2531  219.8442 H   0  0  0  0  0  0  0  0  0  0  0  0
  140.0820   67.7859  221.0128 H   0  0  0  0  0  0  0  0  0  0  0  0
  137.4129   69.3579  221.5355 H   0  0  0  0  0  0  0  0  0  0  0  0
  137.8145   67.8851  222.3115 H   0  0  0  0  0  0  0  0  0  0  0  0
  139.9863   69.0226  223.2678 H   0  0  0  0  0  0  0  0  0  0  0  0
  138.6984   71.0547  224.2971 H   0  0  0  0  0  0  0  0  0  0  0  0
  137.4508   69.8042  224.0922 H   0  0  0  0  0  0  0  0  0  0  0  0
  138.4561   68.5425  225.7369 H   0  0  0  0  0  0  0  0  0  0  0  0
  139.9617   68.4750  224.7599 H   0  0  0  0  0  0  0  0  0  0  0  0
  138.9842   69.2212  227.9811 H   0  0  0  0  0  0  0  0  0  0  0  0
  140.2006   70.8225  229.4418 H   0  0  0  0  0  0  0  0  0  0  0  0
  141.7382   72.5110  228.5118 H   0  0  0  0  0  0  0  0  0  0  0  0
  142.1094   72.6383  226.0502 H   0  0  0  0  0  0  0  0  0  0  0  0
  140.9103   71.0544  224.5638 H   0  0  0  0  0  0  0  0  0  0  0  0
  140.9198   76.5465  219.1475 H   0  0  0  0  0  0  0  0  0  0  0  0
  141.8553   78.8544  219.3561 H   0  0  0  0  0  0  0  0  0  0  0  0
  142.5255   80.7398  220.7828 H   0  0  0  0  0  0  0  0  0  0  0  0
  142.7584   81.7013  223.0514 H   0  0  0  0  0  0  0  0  0  0  0  0
  142.1049   80.4602  225.0672 H   0  0  0  0  0  0  0  0  0  0  0  0
  141.1688   78.1384  224.7991 H   0  0  0  0  0  0  0  0  0  0  0  0
  1  2  2  0
  2  3  1  0
  3  4  1  0
  4  5  1  0
  5  6  2  0
  5  7  1  0
  7  8  1  0
  8  9  1  0
  9 10  1  0
 10 11  1  0
 11 12  1  0
 12 13  1  0
 13 14  1  0
 14 15  2  0
 15 16  1  0
 16 17  2  0
 17 18  1  0
 18 19  2  0
  2 20  1  0
 20 21  2  0
 21 22  1  0
 22 23  2  0
 23 24  1  0
 24 25  2  0
 25 26  1  0
 26 27  2  0
 27 28  1  0
 28 29  2  0
 11  7  1  0
 19 14  1  0
 29 20  1  0
 28 23  1  0
  3 30  1  0
  4 31  1  0
  4 32  1  0
  8 33  1  0
  8 34  1  0
  9 35  1  0
  9 36  1  0
 10 37  1  0
 10 38  1  0
 11 39  1  1
 12 40  1  0
 12 41  1  0
 13 42  1  0
 13 43  1  0
 15 44  1  0
 16 45  1  0
 17 46  1  0
 18 47  1  0
 19 48  1  0
 21 49  1  0
 22 50  1  0
 24 51  1  0
 25 52  1  0
 26 53  1  0
 27 54  1  0
M  END
>  <smiles>  (4) 
O=C(NCC(=O)N1CCCC1CCc1ccccc1)c1ccc2ccccc2n1

>  <score_type>  (4) 
oracle

>  <origin>  (4) 
autodockgpu

>  <m_score__min__energy>  (4) 
-9.2100000000000009

>  <m_primary>  (4) 
energy

>  <rmsd>  (4) 
8.327396051015977

>  <m_score__min__rmsd>  (4) 
8.327396051015977

>  <meeko>  (4) 
{"free_energy": -8.6, "intermolecular_energy": -10.69, "internal_energy": -1.74, "cluster_size": 22, "cluster_id": 2, "rank_in_cluster": 14}

>  <energy>  (4) 
-9.05

>  <cluster_rmsd>  (4) 
0.82

>  <cluster>  (4) 
1

$$$$

     RDKit          3D

 54 57  0  0  0  0  0  0  0  0999 V2000
  137.1530   76.6720  222.2480 O   0  0  0  0  0  0  0  0  0  0  0  0
  138.4030   76.7070  222.3850 C   0  0  0  0  0  0  0  0  0  0  0  0
  139.1300   75.4590  222.1880 N   0  0  0  0  0  0  0  0  0  0  0  0
  138.3320   74.3290  221.8590 C   0  0  0  0  0  0  0  0  0  0  0  0
  138.8590   72.9840  222.1050 C   0  0  0  0  0  0  0  0  0  0  0  0
  140.1550   72.9640  222.2410 O   0  0  0  0  0  0  0  0  0  0  0  0
  138.1970   71.7580  222.2120 N   0  0  0  0  0  0  0  0  0  0  0  0
  136.8410   71.3690  221.7990 C   0  0  0  0  0  0  0  0  0  0  0  0
  136.5900   69.9820  222.4280 C   0  0  0  0  0  0  0  0  0  0  0  0
  137.6300   69.9990  223.5730 C   0  0  0  0  0  0  0  0  0  0  0  0
  138.7830   70.5500  222.7650 C   0  0  2  0  0  0  0  0  0  0  0  0
  140.0640   70.6810  223.4770 C   0  0  0  0  0  0  0  0  0  0  0  0
  140.0080   69.7220  224.6860 C   0  0  0  0  0  0  0  0  0  0  0  0
  140.3190   70.4780  225.9340 C   0  0  0  0  0  0  0  0  0  0  0  0
  141.1130   71.6140  225.9340 C   0  0  0  0  0  0  0  0  0  0  0  0
  141.3280   72.2270  227.1530 C   0  0  0  0  0  0  0  0  0  0  0  0
  140.7870   71.7490  228.3360 C   0  0  0  0  0  0  0  0  0  0  0  0
  139.9970   70.6150  228.3210 C   0  0  0  0  0  0  0  0  0  0  0  0
  139.7660   69.9830  227.1180 C   0  0  0  0  0  0  0  0  0  0  0  0
  139.1410   77.9160  222.7250 C   0  0  0  0  0  0  0  0  0  0  0  0
  138.3980   79.0250  223.0710 C   0  0  0  0  0  0  0  0  0  0  0  0
  139.0910   80.1740  223.3940 C   0  0  0  0  0  0  0  0  0  0  0  0
  140.4860   80.1900  223.3650 C   0  0  0  0  0  0  0  0  0  0  0  0
  141.2020   81.3290  223.6840 C   0  0  0  0  0  0  0  0  0  0  0  0
  142.5940   81.2860  223.6380 C   0  0  0  0  0  0  0  0  0  0  0  0
  143.2940   80.1700  223.2900 C   0  0  0  0  0  0  0  0  0  0  0  0
  142.5710   79.0240  222.9690 C   0  0  0  0  0  0  0  0  0  0  0  0
  141.1910   79.0630  223.0140 C   0  0  0  0  0  0  0  0  0  0  0  0
  140.4850   77.9600  222.7050 N   0  0  0  0  0  0  0  0  0  0  0  0
  140.1390   75.5370  222.3210 H   0  0  0  0  0  0  0  0  0  0  0  0
  137.3977   74.4177  222.4327 H   0  0  0  0  0  0  0  0  0  0  0  0
  138.2470   74.3796  220.7635 H   0  0  0  0  0  0  0  0  0  0  0  0
  136.1043   72.0966  222.1701 H   0  0  0  0  0  0  0  0  0  0  0  0
  136.7448   71.3396  220.7036 H   0  0  0  0  0  0  0  0  0  0  0  0
  135.5636   69.8905  222.8130 H   0  0  0  0  0  0  0  0  0  0  0  0
  136.6903   69.1375  221.7303 H   0  0  0  0  0  0  0  0  0  0  0  0
  137.3374   70.6655  224.3977 H   0  0  0  0  0  0  0  0  0  0  0  0
  137.8045   69.0462  224.0943 H   0  0  0  0  0  0  0  0  0  0  0  0
  139.1457   69.8671  221.9827 H   0  0  0  0  0  0  0  0  0  0  0  0
  140.8956   70.4034  222.8127 H   0  0  0  0  0  0  0  0  0  0  0  0
  140.2265   71.7181  223.8055 H   0  0  0  0  0  0  0  0  0  0  0  0
  139.0008   69.2864  224.7623 H   0  0  0  0  0  0  0  0  0  0  0  0
  140.7457   68.9173  224.5508 H   0  0  0  0  0  0  0  0  0  0  0  0
  141.5518   72.0092  225.0060 H   0  0  0  0  0  0  0  0  0  0  0  0
  141.9538   73.1310  227.1861 H   0  0  0  0  0  0  0  0  0  0  0  0
  140.9857   72.2705  229.2839 H   0  0  0  0  0  0  0  0  0  0  0  0
  139.5606   70.2240  229.2520 H   0  0  0  0  0  0  0  0  0  0  0  0
  139.1396   69.0792  227.0897 H   0  0  0  0  0  0  0  0  0  0  0  0
  137.2985   78.9951  223.0888 H   0  0  0  0  0  0  0  0  0  0  0  0
  138.5400   81.0833  223.6762 H   0  0  0  0  0  0  0  0  0  0  0  0
  140.6809   82.2547  223.9697 H   0  0  0  0  0  0  0  0  0  0  0  0
  143.1547   82.1968  223.8950 H   0  0  0  0  0  0  0  0  0  0  0  0
  144.3937   80.1742  223.2635 H   0  0  0  0  0  0  0  0  0  0  0  0
  143.0926   78.0987  222.6830 H   0  0  0  0  0  0  0  0  0  0  0  0
  1  2  2  0
  2  3  1  0
  3  4  1  0
  4  5  1  0
  5  6  2  0
  5  7  1  0
  7  8  1  0
  8  9  1  0
  9 10  1  0
 10 11  1  0
 11 12  1  0
 12 13  1  0
 13 14  1  0
 14 15  2  0
 15 16  1  0
 16 17  2  0
 17 18  1  0
 18 19  2  0
  2 20  1  0
 20 21  2  0
 21 22  1  0
 22 23  2  0
 23 24  1  0
 24 25  2  0
 25 26  1  0
 26 27  2  0
 27 28  1  0
 28 29  2  0
 11  7  1  0
 19 14  1  0
 29 20  1  0
 28 23  1  0
  3 30  1  0
  4 31  1  0
  4 32  1  0
  8 33  1  0
  8 34  1  0
  9 35  1  0
  9 36  1  0
 10 37  1  0
 10 38  1  0
 11 39  1  6
 12 40  1  0
 12 41  1  0
 13 42  1  0
 13 43  1  0
 15 44  1  0
 16 45  1  0
 17 46  1  0
 18 47  1  0
 19 48  1  0
 21 49  1  0
 22 50  1  0
 24 51  1  0
 25 52  1  0
 26 53  1  0
 27 54  1  0
M  END
>  <smiles>  (5) 
O=C(NCC(=O)N1CCCC1CCc1ccccc1)c1ccc2ccccc2n1

>  <score_type>  (5) 
oracle

>  <origin>  (5) 
autodockgpu

>  <m_score__min__energy>  (5) 
-9.2100000000000009

>  <m_primary>  (5) 
energy

>  <rmsd>  (5) 
8.490180780434018

>  <m_score__min__rmsd>  (5) 
8.490180780434018

>  <meeko>  (5) 
{"free_energy": -8.46, "intermolecular_energy": -10.55, "internal_energy": -1.56, "cluster_size": 22, "cluster_id": 2, "rank_in_cluster": 21}

>  <energy>  (5) 
-9.04

>  <cluster_rmsd>  (5) 
0.59

>  <cluster>  (5) 
1

$$$$

     RDKit          3D

 54 57  0  0  0  0  0  0  0  0999 V2000
  140.6710   71.3850  221.2760 O   0  0  0  0  0  0  0  0  0  0  0  0
  140.1800   71.8970  222.3160 C   0  0  0  0  0  0  0  0  0  0  0  0
  139.6240   73.2400  222.1980 N   0  0  0  0  0  0  0  0  0  0  0  0
  139.7020   73.8240  220.9040 C   0  0  0  0  0  0  0  0  0  0  0  0
  139.1790   75.1780  220.6970 C   0  0  0  0  0  0  0  0  0  0  0  0
  139.3410   75.6030  219.4760 O   0  0  0  0  0  0  0  0  0  0  0  0
  138.5540   76.0530  221.5890 N   0  0  0  0  0  0  0  0  0  0  0  0
  137.1260   76.3000  221.8370 C   0  0  0  0  0  0  0  0  0  0  0  0
  137.0630   77.5620  222.7220 C   0  0  0  0  0  0  0  0  0  0  0  0
  138.4420   78.1930  222.4130 C   0  0  0  0  0  0  0  0  0  0  0  0
  139.2530   76.9210  222.5200 C   0  0  2  0  0  0  0  0  0  0  0  0
  140.7060   77.0680  222.3510 C   0  0  0  0  0  0  0  0  0  0  0  0
  140.9310   78.2750  221.4130 C   0  0  0  0  0  0  0  0  0  0  0  0
  141.4310   79.4340  222.2090 C   0  0  0  0  0  0  0  0  0  0  0  0
  141.2610   80.7450  221.7940 C   0  0  0  0  0  0  0  0  0  0  0  0
  141.7670   81.7330  222.6170 C   0  0  0  0  0  0  0  0  0  0  0  0
  142.4200   81.4520  223.8070 C   0  0  0  0  0  0  0  0  0  0  0  0
  142.5830   80.1390  224.2070 C   0  0  0  0  0  0  0  0  0  0  0  0
  142.0880   79.1340  223.4050 C   0  0  0  0  0  0  0  0  0  0  0  0
  140.1440   71.2210  223.6050 C   0  0  0  0  0  0  0  0  0  0  0  0
  139.6030   69.9530  223.6310 C   0  0  0  0  0  0  0  0  0  0  0  0
  139.5660   69.3080  224.8500 C   0  0  0  0  0  0  0  0  0  0  0  0
  140.0610   69.9310  225.9960 C   0  0  0  0  0  0  0  0  0  0  0  0
  140.0340   69.3040  227.2280 C   0  0  0  0  0  0  0  0  0  0  0  0
  140.5430   69.9750  228.3380 C   0  0  0  0  0  0  0  0  0  0  0  0
  141.0700   71.2300  228.2730 C   0  0  0  0  0  0  0  0  0  0  0  0
  141.0960   71.8590  227.0310 C   0  0  0  0  0  0  0  0  0  0  0  0
  140.5930   71.1970  225.9290 C   0  0  0  0  0  0  0  0  0  0  0  0
  140.6140   71.7980  224.7260 N   0  0  0  0  0  0  0  0  0  0  0  0
  139.2480   73.6150  223.0690 H   0  0  0  0  0  0  0  0  0  0  0  0
  140.7656   73.8442  220.6242 H   0  0  0  0  0  0  0  0  0  0  0  0
  139.0414   73.1923  220.2920 H   0  0  0  0  0  0  0  0  0  0  0  0
  136.5968   76.4713  220.8880 H   0  0  0  0  0  0  0  0  0  0  0  0
  136.6461   75.4394  222.3259 H   0  0  0  0  0  0  0  0  0  0  0  0
  136.2373   78.2253  222.4251 H   0  0  0  0  0  0  0  0  0  0  0  0
  136.8778   77.3651  223.7883 H   0  0  0  0  0  0  0  0  0  0  0  0
  138.4861   78.6372  221.4076 H   0  0  0  0  0  0  0  0  0  0  0  0
  138.7545   79.0321  223.0520 H   0  0  0  0  0  0  0  0  0  0  0  0
  139.2890   76.4994  223.5354 H   0  0  0  0  0  0  0  0  0  0  0  0
  141.1830   77.2522  223.3249 H   0  0  0  0  0  0  0  0  0  0  0  0
  141.1468   76.1536  221.9272 H   0  0  0  0  0  0  0  0  0  0  0  0
  141.6725   78.0099  220.6450 H   0  0  0  0  0  0  0  0  0  0  0  0
  139.9819   78.5449  220.9269 H   0  0  0  0  0  0  0  0  0  0  0  0
  140.7468   80.9882  220.8525 H   0  0  0  0  0  0  0  0  0  0  0  0
  141.6468   82.7841  222.3159 H   0  0  0  0  0  0  0  0  0  0  0  0
  142.8071   82.2711  224.4309 H   0  0  0  0  0  0  0  0  0  0  0  0
  143.0988   79.9007  225.1489 H   0  0  0  0  0  0  0  0  0  0  0  0
  142.2114   78.0842  223.7096 H   0  0  0  0  0  0  0  0  0  0  0  0
  139.2171   69.4757  222.7181 H   0  0  0  0  0  0  0  0  0  0  0  0
  139.1430   68.2949  224.9189 H   0  0  0  0  0  0  0  0  0  0  0  0
  139.6172   68.2912  227.3303 H   0  0  0  0  0  0  0  0  0  0  0  0
  140.5182   69.4673  229.3135 H   0  0  0  0  0  0  0  0  0  0  0  0
  141.4617   71.7294  229.1715 H   0  0  0  0  0  0  0  0  0  0  0  0
  141.5126   72.8719  226.9291 H   0  0  0  0  0  0  0  0  0  0  0  0
  1  2  2  0
  2  3  1  0
  3  4  1  0
  4  5  1  0
  5  6  2  0
  5  7  1  0
  7  8  1  0
  8  9  1  0
  9 10  1  0
 10 11  1  0
 11 12  1  0
 12 13  1  0
 13 14  1  0
 14 15  2  0
 15 16  1  0
 16 17  2  0
 17 18  1  0
 18 19  2  0
  2 20  1  0
 20 21  2  0
 21 22  1  0
 22 23  2  0
 23 24  1  0
 24 25  2  0
 25 26  1  0
 26 27  2  0
 27 28  1  0
 28 29  2  0
 11  7  1  0
 19 14  1  0
 29 20  1  0
 28 23  1  0
  3 30  1  0
  4 31  1  0
  4 32  1  0
  8 33  1  0
  8 34  1  0
  9 35  1  0
  9 36  1  0
 10 37  1  0
 10 38  1  0
 11 39  1  1
 12 40  1  0
 12 41  1  0
 13 42  1  0
 13 43  1  0
 15 44  1  0
 16 45  1  0
 17 46  1  0
 18 47  1  0
 19 48  1  0
 21 49  1  0
 22 50  1  0
 24 51  1  0
 25 52  1  0
 26 53  1  0
 27 54  1  0
M  END
>  <smiles>  (6) 
O=C(NCC(=O)N1CCCC1CCc1ccccc1)c1ccc2ccccc2n1

>  <score_type>  (6) 
oracle

>  <origin>  (6) 
autodockgpu

>  <m_score__min__energy>  (6) 
-9.2100000000000009

>  <m_primary>  (6) 
energy

>  <rmsd>  (6) 
2.799278683379716

>  <m_score__min__rmsd>  (6) 
2.799278683379716

>  <meeko>  (6) 
{"free_energy": -8.77, "intermolecular_energy": -10.85, "internal_energy": -1.46, "cluster_size": 20, "cluster_id": 1, "rank_in_cluster": 14}

>  <energy>  (6) 
-8.98

>  <cluster_rmsd>  (6) 
1.18

>  <cluster>  (6) 
1

$$$$

     RDKit          3D

 54 57  0  0  0  0  0  0  0  0999 V2000
  139.4910   74.4150  222.0020 O   0  0  0  0  0  0  0  0  0  0  0  0
  140.6560   74.8180  221.7480 C   0  0  0  0  0  0  0  0  0  0  0  0
  140.9380   76.2290  221.9830 N   0  0  0  0  0  0  0  0  0  0  0  0
  139.8490   76.9980  222.4790 C   0  0  0  0  0  0  0  0  0  0  0  0
  139.7980   78.4340  222.1920 C   0  0  0  0  0  0  0  0  0  0  0  0
  138.6540   78.8120  221.6940 O   0  0  0  0  0  0  0  0  0  0  0  0
  140.7650   79.4270  222.3680 N   0  0  0  0  0  0  0  0  0  0  0  0
  141.2930   80.0350  223.5980 C   0  0  0  0  0  0  0  0  0  0  0  0
  142.1220   81.2550  223.1440 C   0  0  0  0  0  0  0  0  0  0  0  0
  141.5100   81.5070  221.7450 C   0  0  0  0  0  0  0  0  0  0  0  0
  141.4970   80.0660  221.2880 C   0  0  2  0  0  0  0  0  0  0  0  0
  141.0250   79.8300  219.9160 C   0  0  0  0  0  0  0  0  0  0  0  0
  142.2380   79.3260  219.1030 C   0  0  0  0  0  0  0  0  0  0  0  0
  142.0520   77.8820  218.7780 C   0  0  0  0  0  0  0  0  0  0  0  0
  140.8060   77.2770  218.7770 C   0  0  0  0  0  0  0  0  0  0  0  0
  140.7620   75.9330  218.4590 C   0  0  0  0  0  0  0  0  0  0  0  0
  141.8980   75.2010  218.1520 C   0  0  0  0  0  0  0  0  0  0  0  0
  143.1350   75.8180  218.1570 C   0  0  0  0  0  0  0  0  0  0  0  0
  143.2070   77.1570  218.4700 C   0  0  0  0  0  0  0  0  0  0  0  0
  141.7130   73.9540  221.2400 C   0  0  0  0  0  0  0  0  0  0  0  0
  141.3580   72.6650  220.9060 C   0  0  0  0  0  0  0  0  0  0  0  0
  142.3560   71.8410  220.4240 C   0  0  0  0  0  0  0  0  0  0  0  0
  143.6610   72.3150  220.2900 C   0  0  0  0  0  0  0  0  0  0  0  0
  144.6770   71.5090  219.8100 C   0  0  0  0  0  0  0  0  0  0  0  0
  145.9620   72.0360  219.6970 C   0  0  0  0  0  0  0  0  0  0  0  0
  146.2730   73.3180  220.0390 C   0  0  0  0  0  0  0  0  0  0  0  0
  145.2480   74.1280  220.5220 C   0  0  0  0  0  0  0  0  0  0  0  0
  143.9750   73.6090  220.6350 C   0  0  0  0  0  0  0  0  0  0  0  0
  142.9790   74.3850  221.1010 N   0  0  0  0  0  0  0  0  0  0  0  0
  141.8920   76.5090  221.7530 H   0  0  0  0  0  0  0  0  0  0  0  0
  138.9296   76.5554  222.0681 H   0  0  0  0  0  0  0  0  0  0  0  0
  139.9739   76.9540  223.5710 H   0  0  0  0  0  0  0  0  0  0  0  0
  140.4680   80.3547  224.2516 H   0  0  0  0  0  0  0  0  0  0  0  0
  141.9039   79.3220  224.1712 H   0  0  0  0  0  0  0  0  0  0  0  0
  141.9761   82.1165  223.8122 H   0  0  0  0  0  0  0  0  0  0  0  0
  143.2105   81.0961  223.1463 H   0  0  0  0  0  0  0  0  0  0  0  0
  140.5005   81.9406  221.7991 H   0  0  0  0  0  0  0  0  0  0  0  0
  142.0373   82.2240  221.0986 H   0  0  0  0  0  0  0  0  0  0  0  0
  142.4988   79.6331  221.1501 H   0  0  0  0  0  0  0  0  0  0  0  0
  140.2282   79.0716  219.9156 H   0  0  0  0  0  0  0  0  0  0  0  0
  140.6135   80.7513  219.4779 H   0  0  0  0  0  0  0  0  0  0  0  0
  142.3207   79.9042  218.1709 H   0  0  0  0  0  0  0  0  0  0  0  0
  143.1559   79.4537  219.6956 H   0  0  0  0  0  0  0  0  0  0  0  0
  139.8929   77.8409  219.0184 H   0  0  0  0  0  0  0  0  0  0  0  0
  139.7869   75.4241  218.4492 H   0  0  0  0  0  0  0  0  0  0  0  0
  141.8156   74.1322  217.9051 H   0  0  0  0  0  0  0  0  0  0  0  0
  144.0453   75.2497  217.9153 H   0  0  0  0  0  0  0  0  0  0  0  0
  144.1843   77.6619  218.4778 H   0  0  0  0  0  0  0  0  0  0  0  0
  140.3238   72.3076  221.0185 H   0  0  0  0  0  0  0  0  0  0  0  0
  142.1202   70.8038  220.1438 H   0  0  0  0  0  0  0  0  0  0  0  0
  144.4738   70.4671  219.5216 H   0  0  0  0  0  0  0  0  0  0  0  0
  146.7630   71.3867  219.3138 H   0  0  0  0  0  0  0  0  0  0  0  0
  147.2993   73.7004  219.9370 H   0  0  0  0  0  0  0  0  0  0  0  0
  145.4514   75.1699  220.8101 H   0  0  0  0  0  0  0  0  0  0  0  0
  1  2  2  0
  2  3  1  0
  3  4  1  0
  4  5  1  0
  5  6  2  0
  5  7  1  0
  7  8  1  0
  8  9  1  0
  9 10  1  0
 10 11  1  0
 11 12  1  0
 12 13  1  0
 13 14  1  0
 14 15  2  0
 15 16  1  0
 16 17  2  0
 17 18  1  0
 18 19  2  0
  2 20  1  0
 20 21  2  0
 21 22  1  0
 22 23  2  0
 23 24  1  0
 24 25  2  0
 25 26  1  0
 26 27  2  0
 27 28  1  0
 28 29  2  0
 11  7  1  0
 19 14  1  0
 29 20  1  0
 28 23  1  0
  3 30  1  0
  4 31  1  0
  4 32  1  0
  8 33  1  0
  8 34  1  0
  9 35  1  0
  9 36  1  0
 10 37  1  0
 10 38  1  0
 11 39  1  6
 12 40  1  0
 12 41  1  0
 13 42  1  0
 13 43  1  0
 15 44  1  0
 16 45  1  0
 17 46  1  0
 18 47  1  0
 19 48  1  0
 21 49  1  0
 22 50  1  0
 24 51  1  0
 25 52  1  0
 26 53  1  0
 27 54  1  0
M  END
>  <smiles>  (7) 
O=C(NCC(=O)N1CCCC1CCc1ccccc1)c1ccc2ccccc2n1

>  <score_type>  (7) 
oracle

>  <origin>  (7) 
autodockgpu

>  <m_score__min__energy>  (7) 
-9.2100000000000009

>  <m_primary>  (7) 
energy

>  <rmsd>  (7) 
6.093138095170638

>  <m_score__min__rmsd>  (7) 
6.093138095170638

>  <meeko>  (7) 
{"free_energy": -6.28, "intermolecular_energy": -8.37, "internal_energy": -3.06, "cluster_size": 1, "cluster_id": 6, "rank_in_cluster": 1}

>  <energy>  (7) 
-8.95

>  <cluster_rmsd>  (7) 
0.59

>  <cluster>  (7) 
1

$$$$

     RDKit          3D

 54 57  0  0  0  0  0  0  0  0999 V2000
  140.9510   71.9320  221.5170 O   0  0  0  0  0  0  0  0  0  0  0  0
  140.1430   72.1270  222.4620 C   0  0  0  0  0  0  0  0  0  0  0  0
  139.1790   73.2090  222.3000 N   0  0  0  0  0  0  0  0  0  0  0  0
  139.2650   73.9300  221.0780 C   0  0  0  0  0  0  0  0  0  0  0  0
  140.1750   75.0740  220.9840 C   0  0  0  0  0  0  0  0  0  0  0  0
  139.7740   76.1000  221.6790 O   0  0  0  0  0  0  0  0  0  0  0  0
  141.3740   75.2220  220.2790 N   0  0  0  0  0  0  0  0  0  0  0  0
  142.5190   74.3090  220.1460 C   0  0  0  0  0  0  0  0  0  0  0  0
  143.6420   75.1360  219.4840 C   0  0  0  0  0  0  0  0  0  0  0  0
  143.1740   76.5710  219.8250 C   0  0  0  0  0  0  0  0  0  0  0  0
  141.7170   76.3780  219.4710 C   0  0  2  0  0  0  0  0  0  0  0  0
  140.8620   77.5690  219.5910 C   0  0  0  0  0  0  0  0  0  0  0  0
  141.8020   78.7860  219.7320 C   0  0  0  0  0  0  0  0  0  0  0  0
  141.8110   79.2430  221.1520 C   0  0  0  0  0  0  0  0  0  0  0  0
  142.1090   80.5490  221.5080 C   0  0  0  0  0  0  0  0  0  0  0  0
  142.0850   80.8520  222.8560 C   0  0  0  0  0  0  0  0  0  0  0  0
  141.7800   79.9120  223.8270 C   0  0  0  0  0  0  0  0  0  0  0  0
  141.4860   78.6130  223.4580 C   0  0  0  0  0  0  0  0  0  0  0  0
  141.5030   78.2840  222.1200 C   0  0  0  0  0  0  0  0  0  0  0  0
  140.1280   71.3350  223.6840 C   0  0  0  0  0  0  0  0  0  0  0  0
  139.6220   70.0560  223.5930 C   0  0  0  0  0  0  0  0  0  0  0  0
  139.6040   69.3000  224.7480 C   0  0  0  0  0  0  0  0  0  0  0  0
  140.0840   69.8290  225.9470 C   0  0  0  0  0  0  0  0  0  0  0  0
  140.0770   69.0910  227.1160 C   0  0  0  0  0  0  0  0  0  0  0  0
  140.5700   69.6710  228.2830 C   0  0  0  0  0  0  0  0  0  0  0  0
  141.0630   70.9410  228.3330 C   0  0  0  0  0  0  0  0  0  0  0  0
  141.0690   71.6820  227.1540 C   0  0  0  0  0  0  0  0  0  0  0  0
  140.5820   71.1100  225.9960 C   0  0  0  0  0  0  0  0  0  0  0  0
  140.5840   71.8190  224.8530 N   0  0  0  0  0  0  0  0  0  0  0  0
  138.5530   73.3340  223.0970 H   0  0  0  0  0  0  0  0  0  0  0  0
  139.5705   73.2122  220.3025 H   0  0  0  0  0  0  0  0  0  0  0  0
  138.2674   74.3807  220.9703 H   0  0  0  0  0  0  0  0  0  0  0  0
  142.8397   73.9503  221.1352 H   0  0  0  0  0  0  0  0  0  0  0  0
  142.2624   73.4226  219.5473 H   0  0  0  0  0  0  0  0  0  0  0  0
  144.6245   74.9135  219.9258 H   0  0  0  0  0  0  0  0  0  0  0  0
  143.7817   74.9424  218.4102 H   0  0  0  0  0  0  0  0  0  0  0  0
  143.3198   76.8202  220.8864 H   0  0  0  0  0  0  0  0  0  0  0  0
  143.6992   77.3939  219.3180 H   0  0  0  0  0  0  0  0  0  0  0  0
  141.5374   76.2050  218.3996 H   0  0  0  0  0  0  0  0  0  0  0  0
  140.2361   77.6770  218.6929 H   0  0  0  0  0  0  0  0  0  0  0  0
  140.1930   77.4865  220.4602 H   0  0  0  0  0  0  0  0  0  0  0  0
  142.8208   78.4995  219.4322 H   0  0  0  0  0  0  0  0  0  0  0  0
  141.4464   79.6019  219.0856 H   0  0  0  0  0  0  0  0  0  0  0  0
  142.3534   81.3096  220.7519 H   0  0  0  0  0  0  0  0  0  0  0  0
  142.3173   81.8802  223.1706 H   0  0  0  0  0  0  0  0  0  0  0  0
  141.7719   80.1989  224.8889 H   0  0  0  0  0  0  0  0  0  0  0  0
  141.2430   77.8559  224.2181 H   0  0  0  0  0  0  0  0  0  0  0  0
  141.2714   77.2542  221.8105 H   0  0  0  0  0  0  0  0  0  0  0  0
  139.2481   69.6544  222.6396 H   0  0  0  0  0  0  0  0  0  0  0  0
  139.2087   68.2738  224.7231 H   0  0  0  0  0  0  0  0  0  0  0  0
  139.6883   68.0620  227.1247 H   0  0  0  0  0  0  0  0  0  0  0  0
  140.5610   69.0758  229.2080 H   0  0  0  0  0  0  0  0  0  0  0  0
  141.4434   71.3663  229.2734 H   0  0  0  0  0  0  0  0  0  0  0  0
  141.4573   72.7112  227.1456 H   0  0  0  0  0  0  0  0  0  0  0  0
  1  2  2  0
  2  3  1  0
  3  4  1  0
  4  5  1  0
  5  6  2  0
  5  7  1  0
  7  8  1  0
  8  9  1  0
  9 10  1  0
 10 11  1  0
 11 12  1  0
 12 13  1  0
 13 14  1  0
 14 15  2  0
 15 16  1  0
 16 17  2  0
 17 18  1  0
 18 19  2  0
  2 20  1  0
 20 21  2  0
 21 22  1  0
 22 23  2  0
 23 24  1  0
 24 25  2  0
 25 26  1  0
 26 27  2  0
 27 28  1  0
 28 29  2  0
 11  7  1  0
 19 14  1  0
 29 20  1  0
 28 23  1  0
  3 30  1  0
  4 31  1  0
  4 32  1  0
  8 33  1  0
  8 34  1  0
  9 35  1  0
  9 36  1  0
 10 37  1  0
 10 38  1  0
 11 39  1  6
 12 40  1  0
 12 41  1  0
 13 42  1  0
 13 43  1  0
 15 44  1  0
 16 45  1  0
 17 46  1  0
 18 47  1  0
 19 48  1  0
 21 49  1  0
 22 50  1  0
 24 51  1  0
 25 52  1  0
 26 53  1  0
 27 54  1  0
M  END
>  <smiles>  (8) 
O=C(NCC(=O)N1CCCC1CCc1ccccc1)c1ccc2ccccc2n1

>  <score_type>  (8) 
oracle

>  <origin>  (8) 
autodockgpu

>  <m_score__min__energy>  (8) 
-9.2100000000000009

>  <m_primary>  (8) 
energy

>  <rmsd>  (8) 
2.178753358744608

>  <m_score__min__rmsd>  (8) 
2.178753358744608

>  <meeko>  (8) 
{"free_energy": -8.93, "intermolecular_energy": -11.02, "internal_energy": -1.48, "cluster_size": 20, "cluster_id": 1, "rank_in_cluster": 8}

>  <energy>  (8) 
-8.93

>  <cluster_rmsd>  (8) 
1.15

>  <cluster>  (8) 
1

$$$$

     RDKit          3D

 54 57  0  0  0  0  0  0  0  0999 V2000
  139.9390   73.6880  222.6170 O   0  0  0  0  0  0  0  0  0  0  0  0
  140.3400   72.4950  222.5880 C   0  0  0  0  0  0  0  0  0  0  0  0
  140.9520   72.0280  221.3500 N   0  0  0  0  0  0  0  0  0  0  0  0
  141.0260   72.9880  220.3030 C   0  0  0  0  0  0  0  0  0  0  0  0
  142.1080   73.9760  220.3130 C   0  0  0  0  0  0  0  0  0  0  0  0
  143.1430   73.5890  221.0040 O   0  0  0  0  0  0  0  0  0  0  0  0
  142.1900   75.2350  219.7110 N   0  0  0  0  0  0  0  0  0  0  0  0
  143.1550   75.7620  218.7350 C   0  0  0  0  0  0  0  0  0  0  0  0
  142.8960   77.2820  218.6650 C   0  0  0  0  0  0  0  0  0  0  0  0
  142.1820   77.5100  220.0190 C   0  0  0  0  0  0  0  0  0  0  0  0
  141.2520   76.3210  219.9380 C   0  0  2  0  0  0  0  0  0  0  0  0
  140.2980   76.1730  221.0470 C   0  0  0  0  0  0  0  0  0  0  0  0
  141.0750   76.4580  222.3510 C   0  0  0  0  0  0  0  0  0  0  0  0
  140.8310   77.8680  222.7750 C   0  0  0  0  0  0  0  0  0  0  0  0
  141.8520   78.6990  223.2070 C   0  0  0  0  0  0  0  0  0  0  0  0
  141.5010   79.9850  223.5730 C   0  0  0  0  0  0  0  0  0  0  0  0
  140.1950   80.4450  223.5210 C   0  0  0  0  0  0  0  0  0  0  0  0
  139.1860   79.6050  223.0880 C   0  0  0  0  0  0  0  0  0  0  0  0
  139.5090   78.3180  222.7170 C   0  0  0  0  0  0  0  0  0  0  0  0
  140.2220   71.5790  223.7140 C   0  0  0  0  0  0  0  0  0  0  0  0
  139.6080   70.3690  223.4730 C   0  0  0  0  0  0  0  0  0  0  0  0
  139.4920   69.4960  224.5360 C   0  0  0  0  0  0  0  0  0  0  0  0
  139.9830   69.8460  225.7940 C   0  0  0  0  0  0  0  0  0  0  0  0
  139.8790   68.9880  226.8740 C   0  0  0  0  0  0  0  0  0  0  0  0
  140.3880   69.3910  228.1070 C   0  0  0  0  0  0  0  0  0  0  0  0
  140.9880   70.5980  228.3070 C   0  0  0  0  0  0  0  0  0  0  0  0
  141.0920   71.4600  227.2180 C   0  0  0  0  0  0  0  0  0  0  0  0
  140.5890   71.0630  225.9950 C   0  0  0  0  0  0  0  0  0  0  0  0
  140.6860   71.8900  224.9380 N   0  0  0  0  0  0  0  0  0  0  0  0
  141.2510   71.0530  221.3720 H   0  0  0  0  0  0  0  0  0  0  0  0
  141.1106   72.4286  219.3597 H   0  0  0  0  0  0  0  0  0  0  0  0
  140.1180   73.5937  220.4394 H   0  0  0  0  0  0  0  0  0  0  0  0
  144.1842   75.5639  219.0689 H   0  0  0  0  0  0  0  0  0  0  0  0
  143.0360   75.2856  217.7507 H   0  0  0  0  0  0  0  0  0  0  0  0
  143.8350   77.8513  218.6003 H   0  0  0  0  0  0  0  0  0  0  0  0
  142.3235   77.6090  217.7845 H   0  0  0  0  0  0  0  0  0  0  0  0
  142.8712   77.4480  220.8741 H   0  0  0  0  0  0  0  0  0  0  0  0
  141.7126   78.4934  220.1691 H   0  0  0  0  0  0  0  0  0  0  0  0
  140.5007   76.3966  219.1381 H   0  0  0  0  0  0  0  0  0  0  0  0
  139.4728   76.8915  220.9341 H   0  0  0  0  0  0  0  0  0  0  0  0
  139.8651   75.1618  221.0606 H   0  0  0  0  0  0  0  0  0  0  0  0
  140.7317   75.7728  223.1401 H   0  0  0  0  0  0  0  0  0  0  0  0
  142.1508   76.3071  222.1783 H   0  0  0  0  0  0  0  0  0  0  0  0
  142.8944   78.3513  223.2565 H   0  0  0  0  0  0  0  0  0  0  0  0
  142.2892   80.6698  223.9190 H   0  0  0  0  0  0  0  0  0  0  0  0
  139.9615   81.4765  223.8236 H   0  0  0  0  0  0  0  0  0  0  0  0
  138.1451   79.9574  223.0406 H   0  0  0  0  0  0  0  0  0  0  0  0
  138.7174   77.6369  222.3712 H   0  0  0  0  0  0  0  0  0  0  0  0
  139.2260   70.1095  222.4746 H   0  0  0  0  0  0  0  0  0  0  0  0
  139.0094   68.5183  224.3902 H   0  0  0  0  0  0  0  0  0  0  0  0
  139.4021   68.0032  226.7613 H   0  0  0  0  0  0  0  0  0  0  0  0
  140.3013   68.7017  228.9598 H   0  0  0  0  0  0  0  0  0  0  0  0
  141.3773   70.8821  229.2958 H   0  0  0  0  0  0  0  0  0  0  0  0
  141.5689   72.4448  227.3309 H   0  0  0  0  0  0  0  0  0  0  0  0
  1  2  2  0
  2  3  1  0
  3  4  1  0
  4  5  1  0
  5  6  2  0
  5  7  1  0
  7  8  1  0
  8  9  1  0
  9 10  1  0
 10 11  1  0
 11 12  1  0
 12 13  1  0
 13 14  1  0
 14 15  2  0
 15 16  1  0
 16 17  2  0
 17 18  1  0
 18 19  2  0
  2 20  1  0
 20 21  2  0
 21 22  1  0
 22 23  2  0
 23 24  1  0
 24 25  2  0
 25 26  1  0
 26 27  2  0
 27 28  1  0
 28 29  2  0
 11  7  1  0
 19 14  1  0
 29 20  1  0
 28 23  1  0
  3 30  1  0
  4 31  1  0
  4 32  1  0
  8 33  1  0
  8 34  1  0
  9 35  1  0
  9 36  1  0
 10 37  1  0
 10 38  1  0
 11 39  1  6
 12 40  1  0
 12 41  1  0
 13 42  1  0
 13 43  1  0
 15 44  1  0
 16 45  1  0
 17 46  1  0
 18 47  1  0
 19 48  1  0
 21 49  1  0
 22 50  1  0
 24 51  1  0
 25 52  1  0
 26 53  1  0
 27 54  1  0
M  END
>  <smiles>  (9) 
O=C(NCC(=O)N1CCCC1CCc1ccccc1)c1ccc2ccccc2n1

>  <score_type>  (9) 
oracle

>  <origin>  (9) 
autodockgpu

>  <m_score__min__energy>  (9) 
-9.2100000000000009

>  <m_primary>  (9) 
energy

>  <rmsd>  (9) 
2.8824311859286538

>  <m_score__min__rmsd>  (9) 
2.8824311859286538

>  <meeko>  (9) 
{"free_energy": -8.62, "intermolecular_energy": -10.71, "internal_energy": -1.57, "cluster_size": 20, "cluster_id": 1, "rank_in_cluster": 16}

>  <energy>  (9) 
-8.92

>  <cluster_rmsd>  (9) 
1.12

>  <cluster>  (9) 
1

$$$$

     RDKit          3D

 54 57  0  0  0  0  0  0  0  0999 V2000
  138.9790   75.3950  221.0760 O   0  0  0  0  0  0  0  0  0  0  0  0
  140.0730   75.8470  221.5020 C   0  0  0  0  0  0  0  0  0  0  0  0
  141.2470   74.9930  221.3610 N   0  0  0  0  0  0  0  0  0  0  0  0
  141.0170   73.7300  220.7510 C   0  0  0  0  0  0  0  0  0  0  0  0
  140.5180   72.6210  221.5690 C   0  0  0  0  0  0  0  0  0  0  0  0
  141.4730   71.9260  222.1190 O   0  0  0  0  0  0  0  0  0  0  0  0
  139.2080   72.2100  221.8360 N   0  0  0  0  0  0  0  0  0  0  0  0
  137.9270   72.7280  221.3340 C   0  0  0  0  0  0  0  0  0  0  0  0
  136.8360   72.0600  222.1970 C   0  0  0  0  0  0  0  0  0  0  0  0
  137.6630   71.6640  223.4430 C   0  0  0  0  0  0  0  0  0  0  0  0
  138.8530   71.0990  222.7010 C   0  0  2  0  0  0  0  0  0  0  0  0
  139.9170   70.5210  223.5360 C   0  0  0  0  0  0  0  0  0  0  0  0
  140.1320   71.4850  224.7230 C   0  0  0  0  0  0  0  0  0  0  0  0
  140.3630   70.6960  225.9680 C   0  0  0  0  0  0  0  0  0  0  0  0
  140.1850   69.3220  226.0180 C   0  0  0  0  0  0  0  0  0  0  0  0
  140.4310   68.7020  227.2280 C   0  0  0  0  0  0  0  0  0  0  0  0
  140.8380   69.3990  228.3550 C   0  0  0  0  0  0  0  0  0  0  0  0
  141.0110   70.7690  228.2900 C   0  0  0  0  0  0  0  0  0  0  0  0
  140.7720   71.4120  227.0960 C   0  0  0  0  0  0  0  0  0  0  0  0
  140.2160   77.1600  222.1170 C   0  0  0  0  0  0  0  0  0  0  0  0
  139.0560   77.8000  222.4980 C   0  0  0  0  0  0  0  0  0  0  0  0
  139.1850   79.0450  223.0810 C   0  0  0  0  0  0  0  0  0  0  0  0
  140.4460   79.6130  223.2660 C   0  0  0  0  0  0  0  0  0  0  0  0
  140.6000   80.8570  223.8480 C   0  0  0  0  0  0  0  0  0  0  0  0
  141.8840   81.3740  224.0080 C   0  0  0  0  0  0  0  0  0  0  0  0
  143.0080   80.7100  223.6170 C   0  0  0  0  0  0  0  0  0  0  0  0
  142.8500   79.4560  223.0320 C   0  0  0  0  0  0  0  0  0  0  0  0
  141.5790   78.9410  222.8720 C   0  0  0  0  0  0  0  0  0  0  0  0
  141.4190   77.7310  222.3070 N   0  0  0  0  0  0  0  0  0  0  0  0
  142.1070   75.4000  221.7310 H   0  0  0  0  0  0  0  0  0  0  0  0
  140.2846   73.8905  219.9461 H   0  0  0  0  0  0  0  0  0  0  0  0
  142.0212   73.3996  220.4471 H   0  0  0  0  0  0  0  0  0  0  0  0
  137.8864   73.8217  221.4444 H   0  0  0  0  0  0  0  0  0  0  0  0
  137.7910   72.5049  220.2655 H   0  0  0  0  0  0  0  0  0  0  0  0
  136.0313   72.7655  222.4514 H   0  0  0  0  0  0  0  0  0  0  0  0
  136.3146   71.2234  221.7089 H   0  0  0  0  0  0  0  0  0  0  0  0
  137.9280   72.5314  224.0654 H   0  0  0  0  0  0  0  0  0  0  0  0
  137.1729   70.9978  224.1683 H   0  0  0  0  0  0  0  0  0  0  0  0
  138.6311   70.1835  222.1330 H   0  0  0  0  0  0  0  0  0  0  0  0
  139.6123   69.5302  223.9042 H   0  0  0  0  0  0  0  0  0  0  0  0
  140.8449   70.3954  222.9588 H   0  0  0  0  0  0  0  0  0  0  0  0
  141.0068   72.1217  224.5246 H   0  0  0  0  0  0  0  0  0  0  0  0
  139.2402   72.1166  224.8490 H   0  0  0  0  0  0  0  0  0  0  0  0
  139.8626   68.7514  225.1346 H   0  0  0  0  0  0  0  0  0  0  0  0
  140.2987   67.6124  227.2998 H   0  0  0  0  0  0  0  0  0  0  0  0
  141.0227   68.8637  229.2980 H   0  0  0  0  0  0  0  0  0  0  0  0
  141.3338   71.3353  229.1761 H   0  0  0  0  0  0  0  0  0  0  0  0
  140.9046   72.5020  227.0295 H   0  0  0  0  0  0  0  0  0  0  0  0
  138.0695   77.3384  222.3441 H   0  0  0  0  0  0  0  0  0  0  0  0
  138.2870   79.5932  223.4020 H   0  0  0  0  0  0  0  0  0  0  0  0
  139.7220   81.4305  224.1800 H   0  0  0  0  0  0  0  0  0  0  0  0
  141.9957   82.3651  224.4719 H   0  0  0  0  0  0  0  0  0  0  0  0
  144.0063   81.1496  223.7587 H   0  0  0  0  0  0  0  0  0  0  0  0
  143.7282   78.8822  222.7011 H   0  0  0  0  0  0  0  0  0  0  0  0
  1  2  2  0
  2  3  1  0
  3  4  1  0
  4  5  1  0
  5  6  2  0
  5  7  1  0
  7  8  1  0
  8  9  1  0
  9 10  1  0
 10 11  1  0
 11 12  1  0
 12 13  1  0
 13 14  1  0
 14 15  2  0
 15 16  1  0
 16 17  2  0
 17 18  1  0
 18 19  2  0
  2 20  1  0
 20 21  2  0
 21 22  1  0
 22 23  2  0
 23 24  1  0
 24 25  2  0
 25 26  1  0
 26 27  2  0
 27 28  1  0
 28 29  2  0
 11  7  1  0
 19 14  1  0
 29 20  1  0
 28 23  1  0
  3 30  1  0
  4 31  1  0
  4 32  1  0
  8 33  1  0
  8 34  1  0
  9 35  1  0
  9 36  1  0
 10 37  1  0
 10 38  1  0
 11 39  1  6
 12 40  1  0
 12 41  1  0
 13 42  1  0
 13 43  1  0
 15 44  1  0
 16 45  1  0
 17 46  1  0
 18 47  1  0
 19 48  1  0
 21 49  1  0
 22 50  1  0
 24 51  1  0
 25 52  1  0
 26 53  1  0
 27 54  1  0
M  END
>  <smiles>  (10) 
O=C(NCC(=O)N1CCCC1CCc1ccccc1)c1ccc2ccccc2n1

>  <score_type>  (10) 
oracle

>  <origin>  (10) 
autodockgpu

>  <m_score__min__energy>  (10) 
-9.2100000000000009

>  <m_primary>  (10) 
energy

>  <rmsd>  (10) 
8.126393284612595

>  <m_score__min__rmsd>  (10) 
8.126393284612595

>  <meeko>  (10) 
{"free_energy": -8.56, "intermolecular_energy": -10.65, "internal_energy": -1.33, "cluster_size": 22, "cluster_id": 2, "rank_in_cluster": 18}

>  <energy>  (10) 
-8.9

>  <cluster_rmsd>  (10) 
1.15

>  <cluster>  (10) 
1

$$$$

     RDKit          3D

 54 57  0  0  0  0  0  0  0  0999 V2000
  139.9040   73.5030  222.3980 O   0  0  0  0  0  0  0  0  0  0  0  0
  140.3280   72.3230  222.5010 C   0  0  0  0  0  0  0  0  0  0  0  0
  141.0240   71.7630  221.3490 N   0  0  0  0  0  0  0  0  0  0  0  0
  141.1450   72.6260  220.2250 C   0  0  0  0  0  0  0  0  0  0  0  0
  142.3230   73.4890  220.1090 C   0  0  0  0  0  0  0  0  0  0  0  0
  143.3290   73.0740  220.8270 O   0  0  0  0  0  0  0  0  0  0  0  0
  142.5200   74.6570  219.3660 N   0  0  0  0  0  0  0  0  0  0  0  0
  143.2430   74.8710  218.1040 C   0  0  0  0  0  0  0  0  0  0  0  0
  143.3490   76.4010  217.9340 C   0  0  0  0  0  0  0  0  0  0  0  0
  143.1530   76.8630  219.3980 C   0  0  0  0  0  0  0  0  0  0  0  0
  141.9850   75.9590  219.7200 C   0  0  2  0  0  0  0  0  0  0  0  0
  141.4030   76.1130  221.0610 C   0  0  0  0  0  0  0  0  0  0  0  0
  140.5960   77.4300  221.0550 C   0  0  0  0  0  0  0  0  0  0  0  0
  141.2580   78.4210  221.9530 C   0  0  0  0  0  0  0  0  0  0  0  0
  141.3090   78.2570  223.3280 C   0  0  0  0  0  0  0  0  0  0  0  0
  141.9510   79.2430  224.0530 C   0  0  0  0  0  0  0  0  0  0  0  0
  142.5230   80.3550  223.4570 C   0  0  0  0  0  0  0  0  0  0  0  0
  142.4630   80.5060  222.0850 C   0  0  0  0  0  0  0  0  0  0  0  0
  141.8300   79.5380  221.3370 C   0  0  0  0  0  0  0  0  0  0  0  0
  140.1580   71.5090  223.6970 C   0  0  0  0  0  0  0  0  0  0  0  0
  139.4350   70.3440  223.5610 C   0  0  0  0  0  0  0  0  0  0  0  0
  139.2700   69.5680  224.6910 C   0  0  0  0  0  0  0  0  0  0  0  0
  139.8210   69.9660  225.9090 C   0  0  0  0  0  0  0  0  0  0  0  0
  139.6690   69.2060  227.0540 C   0  0  0  0  0  0  0  0  0  0  0  0
  140.2420   69.6530  228.2430 C   0  0  0  0  0  0  0  0  0  0  0  0
  140.9510   70.8130  228.3370 C   0  0  0  0  0  0  0  0  0  0  0  0
  141.1030   71.5770  227.1830 C   0  0  0  0  0  0  0  0  0  0  0  0
  140.5360   71.1360  226.0040 C   0  0  0  0  0  0  0  0  0  0  0  0
  140.6780   71.8690  224.8840 N   0  0  0  0  0  0  0  0  0  0  0  0
  141.3400   70.8010  221.4780 H   0  0  0  0  0  0  0  0  0  0  0  0
  141.1233   71.9899  219.3279 H   0  0  0  0  0  0  0  0  0  0  0  0
  140.3131   73.3349  220.3493 H   0  0  0  0  0  0  0  0  0  0  0  0
  144.2454   74.4211  218.1559 H   0  0  0  0  0  0  0  0  0  0  0  0
  142.7219   74.4046  217.2549 H   0  0  0  0  0  0  0  0  0  0  0  0
  144.3330   76.6987  217.5427 H   0  0  0  0  0  0  0  0  0  0  0  0
  142.6342   76.8328  217.2180 H   0  0  0  0  0  0  0  0  0  0  0  0
  144.0318   76.6555  220.0263 H   0  0  0  0  0  0  0  0  0  0  0  0
  143.0012   77.9406  219.5587 H   0  0  0  0  0  0  0  0  0  0  0  0
  141.0687   76.1978  219.1602 H   0  0  0  0  0  0  0  0  0  0  0  0
  140.7396   75.2645  221.2845 H   0  0  0  0  0  0  0  0  0  0  0  0
  142.1895   76.1383  221.8296 H   0  0  0  0  0  0  0  0  0  0  0  0
  140.5562   77.8313  220.0316 H   0  0  0  0  0  0  0  0  0  0  0  0
  139.5737   77.2362  221.4119 H   0  0  0  0  0  0  0  0  0  0  0  0
  140.8591   77.3821  223.8200 H   0  0  0  0  0  0  0  0  0  0  0  0
  142.0101   79.1407  225.1466 H   0  0  0  0  0  0  0  0  0  0  0  0
  143.0235   81.1156  224.0743 H   0  0  0  0  0  0  0  0  0  0  0  0
  142.9129   81.3840  221.5985 H   0  0  0  0  0  0  0  0  0  0  0  0
  141.7740   79.6450  220.2437 H   0  0  0  0  0  0  0  0  0  0  0  0
  139.0072   70.0447  222.5928 H   0  0  0  0  0  0  0  0  0  0  0  0
  138.7000   68.6292  224.6303 H   0  0  0  0  0  0  0  0  0  0  0  0
  139.1041   68.2625  227.0268 H   0  0  0  0  0  0  0  0  0  0  0  0
  140.1161   69.0408  229.1482 H   0  0  0  0  0  0  0  0  0  0  0  0
  141.3889   71.1352  229.2933 H   0  0  0  0  0  0  0  0  0  0  0  0
  141.6679   72.5204  227.2103 H   0  0  0  0  0  0  0  0  0  0  0  0
  1  2  2  0
  2  3  1  0
  3  4  1  0
  4  5  1  0
  5  6  2  0
  5  7  1  0
  7  8  1  0
  8  9  1  0
  9 10  1  0
 10 11  1  0
 11 12  1  0
 12 13  1  0
 13 14  1  0
 14 15  2  0
 15 16  1  0
 16 17  2  0
 17 18  1  0
 18 19  2  0
  2 20  1  0
 20 21  2  0
 21 22  1  0
 22 23  2  0
 23 24  1  0
 24 25  2  0
 25 26  1  0
 26 27  2  0
 27 28  1  0
 28 29  2  0
 11  7  1  0
 19 14  1  0
 29 20  1  0
 28 23  1  0
  3 30  1  0
  4 31  1  0
  4 32  1  0
  8 33  1  0
  8 34  1  0
  9 35  1  0
  9 36  1  0
 10 37  1  0
 10 38  1  0
 11 39  1  6
 12 40  1  0
 12 41  1  0
 13 42  1  0
 13 43  1  0
 15 44  1  0
 16 45  1  0
 17 46  1  0
 18 47  1  0
 19 48  1  0
 21 49  1  0
 22 50  1  0
 24 51  1  0
 25 52  1  0
 26 53  1  0
 27 54  1  0
M  END
>  <smiles>  (11) 
O=C(NCC(=O)N1CCCC1CCc1ccccc1)c1ccc2ccccc2n1

>  <score_type>  (11) 
oracle

>  <origin>  (11) 
autodockgpu

>  <m_score__min__energy>  (11) 
-9.2100000000000009

>  <m_primary>  (11) 
energy

>  <rmsd>  (11) 
2.7884844825223216

>  <m_score__min__rmsd>  (11) 
2.7884844825223216

>  <meeko>  (11) 
{"free_energy": -8.88, "intermolecular_energy": -10.97, "internal_energy": -1.5, "cluster_size": 20, "cluster_id": 1, "rank_in_cluster": 11}

>  <energy>  (11) 
-8.88

>  <cluster_rmsd>  (11) 
1.44

>  <cluster>  (11) 
1

$$$$

     RDKit          3D

 54 57  0  0  0  0  0  0  0  0999 V2000
  139.8180   70.8640  221.3650 O   0  0  0  0  0  0  0  0  0  0  0  0
  139.8500   71.3590  222.5220 C   0  0  0  0  0  0  0  0  0  0  0  0
  139.9140   72.8120  222.6230 N   0  0  0  0  0  0  0  0  0  0  0  0
  139.9330   73.5130  221.3860 C   0  0  0  0  0  0  0  0  0  0  0  0
  140.6200   74.8050  221.3060 C   0  0  0  0  0  0  0  0  0  0  0  0
  140.3850   75.5690  222.3360 O   0  0  0  0  0  0  0  0  0  0  0  0
  141.4620   75.3240  220.3180 N   0  0  0  0  0  0  0  0  0  0  0  0
  142.6600   74.7480  219.6900 C   0  0  0  0  0  0  0  0  0  0  0  0
  143.3080   75.8960  218.8870 C   0  0  0  0  0  0  0  0  0  0  0  0
  142.6950   77.1230  219.6040 C   0  0  0  0  0  0  0  0  0  0  0  0
  141.2750   76.6080  219.6670 C   0  0  2  0  0  0  0  0  0  0  0  0
  140.2830   77.5250  220.2470 C   0  0  0  0  0  0  0  0  0  0  0  0
  140.9050   78.9390  220.2190 C   0  0  0  0  0  0  0  0  0  0  0  0
  141.4260   79.2780  221.5750 C   0  0  0  0  0  0  0  0  0  0  0  0
  141.2570   78.4390  222.6650 C   0  0  0  0  0  0  0  0  0  0  0  0
  141.7860   78.8620  223.8700 C   0  0  0  0  0  0  0  0  0  0  0  0
  142.4580   80.0660  224.0080 C   0  0  0  0  0  0  0  0  0  0  0  0
  142.6180   80.8930  222.9130 C   0  0  0  0  0  0  0  0  0  0  0  0
  142.1010   80.4950  221.6990 C   0  0  0  0  0  0  0  0  0  0  0  0
  139.8270   70.5590  223.7390 C   0  0  0  0  0  0  0  0  0  0  0  0
  139.2230   69.3230  223.6620 C   0  0  0  0  0  0  0  0  0  0  0  0
  139.1970   68.5600  224.8130 C   0  0  0  0  0  0  0  0  0  0  0  0
  139.7650   69.0410  225.9930 C   0  0  0  0  0  0  0  0  0  0  0  0
  139.7520   68.2960  227.1580 C   0  0  0  0  0  0  0  0  0  0  0  0
  140.3350   68.8270  228.3060 C   0  0  0  0  0  0  0  0  0  0  0  0
  140.9230   70.0560  228.3420 C   0  0  0  0  0  0  0  0  0  0  0  0
  140.9360   70.8050  227.1680 C   0  0  0  0  0  0  0  0  0  0  0  0
  140.3590   70.2810  226.0290 C   0  0  0  0  0  0  0  0  0  0  0  0
  140.3670   70.9980  224.8900 N   0  0  0  0  0  0  0  0  0  0  0  0
  139.9490   73.1640  223.5810 H   0  0  0  0  0  0  0  0  0  0  0  0
  140.4087   72.8500  220.6484 H   0  0  0  0  0  0  0  0  0  0  0  0
  138.8768   73.7676  221.2138 H   0  0  0  0  0  0  0  0  0  0  0  0
  143.3550   74.3783  220.4584 H   0  0  0  0  0  0  0  0  0  0  0  0
  142.4073   73.8945  219.0437 H   0  0  0  0  0  0  0  0  0  0  0  0
  144.4046   75.8822  218.9716 H   0  0  0  0  0  0  0  0  0  0  0  0
  143.1229   75.8587  217.8033 H   0  0  0  0  0  0  0  0  0  0  0  0
  143.1279   77.2872  220.6018 H   0  0  0  0  0  0  0  0  0  0  0  0
  142.8436   78.1004  219.1218 H   0  0  0  0  0  0  0  0  0  0  0  0
  140.7922   76.5099  218.6835 H   0  0  0  0  0  0  0  0  0  0  0  0
  139.3583   77.5071  219.6515 H   0  0  0  0  0  0  0  0  0  0  0  0
  140.0279   77.2284  221.2751 H   0  0  0  0  0  0  0  0  0  0  0  0
  141.7304   78.9625  219.4923 H   0  0  0  0  0  0  0  0  0  0  0  0
  140.1387   79.6718  219.9260 H   0  0  0  0  0  0  0  0  0  0  0  0
  140.7260   77.4799  222.5753 H   0  0  0  0  0  0  0  0  0  0  0  0
  141.6689   78.2177  224.7538 H   0  0  0  0  0  0  0  0  0  0  0  0
  142.8630   80.3625  224.9868 H   0  0  0  0  0  0  0  0  0  0  0  0
  143.1485   81.8519  223.0083 H   0  0  0  0  0  0  0  0  0  0  0  0
  142.2211   81.1426  220.8180 H   0  0  0  0  0  0  0  0  0  0  0  0
  138.7801   68.9591  222.7232 H   0  0  0  0  0  0  0  0  0  0  0  0
  138.7253   67.5664  224.7992 H   0  0  0  0  0  0  0  0  0  0  0  0
  139.2881   67.2988  227.1777 H   0  0  0  0  0  0  0  0  0  0  0  0
  140.3202   68.2260  229.2272 H   0  0  0  0  0  0  0  0  0  0  0  0
  141.3726   70.4436  229.2681 H   0  0  0  0  0  0  0  0  0  0  0  0
  141.4004   71.8020  227.1487 H   0  0  0  0  0  0  0  0  0  0  0  0
  1  2  2  0
  2  3  1  0
  3  4  1  0
  4  5  1  0
  5  6  2  0
  5  7  1  0
  7  8  1  0
  8  9  1  0
  9 10  1  0
 10 11  1  0
 11 12  1  0
 12 13  1  0
 13 14  1  0
 14 15  2  0
 15 16  1  0
 16 17  2  0
 17 18  1  0
 18 19  2  0
  2 20  1  0
 20 21  2  0
 21 22  1  0
 22 23  2  0
 23 24  1  0
 24 25  2  0
 25 26  1  0
 26 27  2  0
 27 28  1  0
 28 29  2  0
 11  7  1  0
 19 14  1  0
 29 20  1  0
 28 23  1  0
  3 30  1  0
  4 31  1  0
  4 32  1  0
  8 33  1  0
  8 34  1  0
  9 35  1  0
  9 36  1  0
 10 37  1  0
 10 38  1  0
 11 39  1  6
 12 40  1  0
 12 41  1  0
 13 42  1  0
 13 43  1  0
 15 44  1  0
 16 45  1  0
 17 46  1  0
 18 47  1  0
 19 48  1  0
 21 49  1  0
 22 50  1  0
 24 51  1  0
 25 52  1  0
 26 53  1  0
 27 54  1  0
M  END
>  <smiles>  (12) 
O=C(NCC(=O)N1CCCC1CCc1ccccc1)c1ccc2ccccc2n1

>  <score_type>  (12) 
oracle

>  <origin>  (12) 
autodockgpu

>  <m_score__min__energy>  (12) 
-9.2100000000000009

>  <m_primary>  (12) 
energy

>  <rmsd>  (12) 
2.2058824407451416

>  <m_score__min__rmsd>  (12) 
2.2058824407451416

>  <meeko>  (12) 
{"free_energy": -8.92, "intermolecular_energy": -11.01, "internal_energy": -1.67, "cluster_size": 20, "cluster_id": 1, "rank_in_cluster": 9}

>  <energy>  (12) 
-8.85

>  <cluster_rmsd>  (12) 
1.01

>  <cluster>  (12) 
1

$$$$

     RDKit          3D

 54 57  0  0  0  0  0  0  0  0999 V2000
  138.6760   75.6060  221.7550 O   0  0  0  0  0  0  0  0  0  0  0  0
  139.8350   76.0500  221.9620 C   0  0  0  0  0  0  0  0  0  0  0  0
  140.9500   75.1450  221.7110 N   0  0  0  0  0  0  0  0  0  0  0  0
  140.5950   73.8450  221.2560 C   0  0  0  0  0  0  0  0  0  0  0  0
  140.0970   72.8610  222.2200 C   0  0  0  0  0  0  0  0  0  0  0  0
  141.0270   72.4160  223.0180 O   0  0  0  0  0  0  0  0  0  0  0  0
  138.8110   72.3430  222.4040 N   0  0  0  0  0  0  0  0  0  0  0  0
  137.4960   72.9630  222.1880 C   0  0  0  0  0  0  0  0  0  0  0  0
  136.4680   72.0050  222.8270 C   0  0  0  0  0  0  0  0  0  0  0  0
  137.3780   71.2280  223.8090 C   0  0  0  0  0  0  0  0  0  0  0  0
  138.5220   70.9910  222.8490 C   0  0  2  0  0  0  0  0  0  0  0  0
  139.6430   70.1940  223.3680 C   0  0  0  0  0  0  0  0  0  0  0  0
  139.1660   69.5510  224.6890 C   0  0  0  0  0  0  0  0  0  0  0  0
  139.8190   70.2390  225.8410 C   0  0  0  0  0  0  0  0  0  0  0  0
  140.5930   71.3780  225.6810 C   0  0  0  0  0  0  0  0  0  0  0  0
  141.1450   71.9250  226.8240 C   0  0  0  0  0  0  0  0  0  0  0  0
  140.9500   71.3790  228.0820 C   0  0  0  0  0  0  0  0  0  0  0  0
  140.1760   70.2430  228.2260 C   0  0  0  0  0  0  0  0  0  0  0  0
  139.6130   69.6770  227.1030 C   0  0  0  0  0  0  0  0  0  0  0  0
  140.1060   77.4020  222.4310 C   0  0  0  0  0  0  0  0  0  0  0  0
  139.0150   78.1870  222.7370 C   0  0  0  0  0  0  0  0  0  0  0  0
  139.2660   79.4700  223.1820 C   0  0  0  0  0  0  0  0  0  0  0  0
  140.5760   79.9320  223.3080 C   0  0  0  0  0  0  0  0  0  0  0  0
  140.8510   81.2120  223.7520 C   0  0  0  0  0  0  0  0  0  0  0  0
  142.1800   81.6180  223.8590 C   0  0  0  0  0  0  0  0  0  0  0  0
  143.2330   80.8120  223.5460 C   0  0  0  0  0  0  0  0  0  0  0  0
  142.9530   79.5230  223.1000 C   0  0  0  0  0  0  0  0  0  0  0  0
  141.6380   79.1170  222.9930 C   0  0  0  0  0  0  0  0  0  0  0  0
  141.3590   77.8730  222.5620 N   0  0  0  0  0  0  0  0  0  0  0  0
  141.8680   75.5470  221.9030 H   0  0  0  0  0  0  0  0  0  0  0  0
  139.8115   73.9739  220.4947 H   0  0  0  0  0  0  0  0  0  0  0  0
  141.5497   73.4175  220.9158 H   0  0  0  0  0  0  0  0  0  0  0  0
  137.4534   73.9493  222.6732 H   0  0  0  0  0  0  0  0  0  0  0  0
  137.2931   73.1187  221.1181 H   0  0  0  0  0  0  0  0  0  0  0  0
  135.6754   72.5543  223.3561 H   0  0  0  0  0  0  0  0  0  0  0  0
  135.9230   71.3734  222.1100 H   0  0  0  0  0  0  0  0  0  0  0  0
  137.6755   71.8346  224.6771 H   0  0  0  0  0  0  0  0  0  0  0  0
  136.9420   70.3377  224.2857 H   0  0  0  0  0  0  0  0  0  0  0  0
  138.2706   70.3218  222.0129 H   0  0  0  0  0  0  0  0  0  0  0  0
  139.9174   69.4120  222.6447 H   0  0  0  0  0  0  0  0  0  0  0  0
  140.5287   70.8245  223.5355 H   0  0  0  0  0  0  0  0  0  0  0  0
  138.0739   69.6521  224.7727 H   0  0  0  0  0  0  0  0  0  0  0  0
  139.4371   68.4850  224.6969 H   0  0  0  0  0  0  0  0  0  0  0  0
  140.7601   71.8257  224.6902 H   0  0  0  0  0  0  0  0  0  0  0  0
  141.7637   72.8298  226.7310 H   0  0  0  0  0  0  0  0  0  0  0  0
  141.4100   71.8483  228.9641 H   0  0  0  0  0  0  0  0  0  0  0  0
  140.0124   69.7989  229.2190 H   0  0  0  0  0  0  0  0  0  0  0  0
  138.9946   68.7727  227.2014 H   0  0  0  0  0  0  0  0  0  0  0  0
  137.9880   77.8075  222.6312 H   0  0  0  0  0  0  0  0  0  0  0  0
  138.4264   80.1326  223.4391 H   0  0  0  0  0  0  0  0  0  0  0  0
  140.0338   81.8992  224.0167 H   0  0  0  0  0  0  0  0  0  0  0  0
  142.3888   82.6383  224.2132 H   0  0  0  0  0  0  0  0  0  0  0  0
  144.2695   81.1676  223.6424 H   0  0  0  0  0  0  0  0  0  0  0  0
  143.7705   78.8360  222.8359 H   0  0  0  0  0  0  0  0  0  0  0  0
  1  2  2  0
  2  3  1  0
  3  4  1  0
  4  5  1  0
  5  6  2  0
  5  7  1  0
  7  8  1  0
  8  9  1  0
  9 10  1  0
 10 11  1  0
 11 12  1  0
 12 13  1  0
 13 14  1  0
 14 15  2  0
 15 16  1  0
 16 17  2  0
 17 18  1  0
 18 19  2  0
  2 20  1  0
 20 21  2  0
 21 22  1  0
 22 23  2  0
 23 24  1  0
 24 25  2  0
 25 26  1  0
 26 27  2  0
 27 28  1  0
 28 29  2  0
 11  7  1  0
 19 14  1  0
 29 20  1  0
 28 23  1  0
  3 30  1  0
  4 31  1  0
  4 32  1  0
  8 33  1  0
  8 34  1  0
  9 35  1  0
  9 36  1  0
 10 37  1  0
 10 38  1  0
 11 39  1  6
 12 40  1  0
 12 41  1  0
 13 42  1  0
 13 43  1  0
 15 44  1  0
 16 45  1  0
 17 46  1  0
 18 47  1  0
 19 48  1  0
 21 49  1  0
 22 50  1  0
 24 51  1  0
 25 52  1  0
 26 53  1  0
 27 54  1  0
M  END
>  <smiles>  (13) 
O=C(NCC(=O)N1CCCC1CCc1ccccc1)c1ccc2ccccc2n1

>  <score_type>  (13) 
oracle

>  <origin>  (13) 
autodockgpu

>  <m_score__min__energy>  (13) 
-9.2100000000000009

>  <m_primary>  (13) 
energy

>  <rmsd>  (13) 
8.389298446954218

>  <m_score__min__rmsd>  (13) 
8.389298446954218

>  <meeko>  (13) 
{"free_energy": -8.93, "intermolecular_energy": -11.02, "internal_energy": -1.69, "cluster_size": 22, "cluster_id": 2, "rank_in_cluster": 5}

>  <energy>  (13) 
-8.81

>  <cluster_rmsd>  (13) 
1.46

>  <cluster>  (13) 
1

$$$$

     RDKit          3D

 54 57  0  0  0  0  0  0  0  0999 V2000
  140.5650   74.3320  220.3420 O   0  0  0  0  0  0  0  0  0  0  0  0
  140.2840   75.0990  221.3000 C   0  0  0  0  0  0  0  0  0  0  0  0
  139.3750   74.5860  222.3180 N   0  0  0  0  0  0  0  0  0  0  0  0
  138.9050   73.2600  222.1100 C   0  0  0  0  0  0  0  0  0  0  0  0
  139.8000   72.1320  222.3810 C   0  0  0  0  0  0  0  0  0  0  0  0
  140.8330   72.4660  223.1030 O   0  0  0  0  0  0  0  0  0  0  0  0
  139.7130   70.7930  221.9910 N   0  0  0  0  0  0  0  0  0  0  0  0
  140.1690   70.1270  220.7620 C   0  0  0  0  0  0  0  0  0  0  0  0
  139.5460   68.7160  220.7900 C   0  0  0  0  0  0  0  0  0  0  0  0
  138.3670   68.9470  221.7650 C   0  0  0  0  0  0  0  0  0  0  0  0
  139.1380   69.7340  222.8010 C   0  0  2  0  0  0  0  0  0  0  0  0
  138.3850   70.1300  224.0010 C   0  0  0  0  0  0  0  0  0  0  0  0
  138.8550   69.2120  225.1510 C   0  0  0  0  0  0  0  0  0  0  0  0
  139.6120   70.0200  226.1520 C   0  0  0  0  0  0  0  0  0  0  0  0
  139.5920   69.7290  227.5060 C   0  0  0  0  0  0  0  0  0  0  0  0
  140.3350   70.5490  228.3340 C   0  0  0  0  0  0  0  0  0  0  0  0
  141.0730   71.6200  227.8570 C   0  0  0  0  0  0  0  0  0  0  0  0
  141.0830   71.8980  226.5030 C   0  0  0  0  0  0  0  0  0  0  0  0
  140.3510   71.0970  225.6550 C   0  0  0  0  0  0  0  0  0  0  0  0
  140.8150   76.4490  221.4320 C   0  0  0  0  0  0  0  0  0  0  0  0
  141.1840   77.0910  220.2700 C   0  0  0  0  0  0  0  0  0  0  0  0
  141.6880   78.3700  220.3890 C   0  0  0  0  0  0  0  0  0  0  0  0
  141.8110   78.9690  221.6430 C   0  0  0  0  0  0  0  0  0  0  0  0
  142.3130   80.2490  221.7870 C   0  0  0  0  0  0  0  0  0  0  0  0
  142.4120   80.7960  223.0650 C   0  0  0  0  0  0  0  0  0  0  0  0
  142.0370   80.1270  224.1920 C   0  0  0  0  0  0  0  0  0  0  0  0
  141.5310   78.8380  224.0450 C   0  0  0  0  0  0  0  0  0  0  0  0
  141.4310   78.2940  222.7800 C   0  0  0  0  0  0  0  0  0  0  0  0
  140.9440   77.0490  222.6290 N   0  0  0  0  0  0  0  0  0  0  0  0
  139.1700   75.2480  223.0680 H   0  0  0  0  0  0  0  0  0  0  0  0
  138.0202   73.1288  222.7503 H   0  0  0  0  0  0  0  0  0  0  0  0
  138.7420   73.2085  221.0234 H   0  0  0  0  0  0  0  0  0  0  0  0
  139.8237   70.6803  219.8762 H   0  0  0  0  0  0  0  0  0  0  0  0
  141.2669   70.0829  220.7099 H   0  0  0  0  0  0  0  0  0  0  0  0
  139.1949   68.4074  219.7943 H   0  0  0  0  0  0  0  0  0  0  0  0
  140.2382   67.9154  221.0897 H   0  0  0  0  0  0  0  0  0  0  0  0
  137.5537   69.5322  221.3111 H   0  0  0  0  0  0  0  0  0  0  0  0
  137.8383   68.0502  222.1203 H   0  0  0  0  0  0  0  0  0  0  0  0
  139.9063   69.1469  223.3254 H   0  0  0  0  0  0  0  0  0  0  0  0
  138.5929   71.1816  224.2478 H   0  0  0  0  0  0  0  0  0  0  0  0
  137.3020   70.0303  223.8361 H   0  0  0  0  0  0  0  0  0  0  0  0
  137.9804   68.7533  225.6354 H   0  0  0  0  0  0  0  0  0  0  0  0
  139.5060   68.4221  224.7482 H   0  0  0  0  0  0  0  0  0  0  0  0
  139.0113   68.8839  227.9041 H   0  0  0  0  0  0  0  0  0  0  0  0
  140.3406   70.3431  229.4145 H   0  0  0  0  0  0  0  0  0  0  0  0
  141.6491   72.2470  228.5534 H   0  0  0  0  0  0  0  0  0  0  0  0
  141.6654   72.7442  226.1097 H   0  0  0  0  0  0  0  0  0  0  0  0
  140.3480   71.3071  224.5753 H   0  0  0  0  0  0  0  0  0  0  0  0
  141.0811   76.6044  219.2888 H   0  0  0  0  0  0  0  0  0  0  0  0
  141.9952   78.9216  219.4882 H   0  0  0  0  0  0  0  0  0  0  0  0
  142.6295   80.8270  220.9062 H   0  0  0  0  0  0  0  0  0  0  0  0
  142.8115   81.8156  223.1692 H   0  0  0  0  0  0  0  0  0  0  0  0
  142.1310   80.5903  225.1852 H   0  0  0  0  0  0  0  0  0  0  0  0
  141.2148   78.2602  224.9260 H   0  0  0  0  0  0  0  0  0  0  0  0
  1  2  2  0
  2  3  1  0
  3  4  1  0
  4  5  1  0
  5  6  2  0
  5  7  1  0
  7  8  1  0
  8  9  1  0
  9 10  1  0
 10 11  1  0
 11 12  1  0
 12 13  1  0
 13 14  1  0
 14 15  2  0
 15 16  1  0
 16 17  2  0
 17 18  1  0
 18 19  2  0
  2 20  1  0
 20 21  2  0
 21 22  1  0
 22 23  2  0
 23 24  1  0
 24 25  2  0
 25 26  1  0
 26 27  2  0
 27 28  1  0
 28 29  2  0
 11  7  1  0
 19 14  1  0
 29 20  1  0
 28 23  1  0
  3 30  1  0
  4 31  1  0
  4 32  1  0
  8 33  1  0
  8 34  1  0
  9 35  1  0
  9 36  1  0
 10 37  1  0
 10 38  1  0
 11 39  1  1
 12 40  1  0
 12 41  1  0
 13 42  1  0
 13 43  1  0
 15 44  1  0
 16 45  1  0
 17 46  1  0
 18 47  1  0
 19 48  1  0
 21 49  1  0
 22 50  1  0
 24 51  1  0
 25 52  1  0
 26 53  1  0
 27 54  1  0
M  END
>  <smiles>  (14) 
O=C(NCC(=O)N1CCCC1CCc1ccccc1)c1ccc2ccccc2n1

>  <score_type>  (14) 
oracle

>  <origin>  (14) 
autodockgpu

>  <m_score__min__energy>  (14) 
-9.2100000000000009

>  <m_primary>  (14) 
energy

>  <rmsd>  (14) 
8.323385496801778

>  <m_score__min__rmsd>  (14) 
8.323385496801778

>  <meeko>  (14) 
{"free_energy": -8.54, "intermolecular_energy": -10.63, "internal_energy": -1.73, "cluster_size": 22, "cluster_id": 2, "rank_in_cluster": 19}

>  <energy>  (14) 
-8.77

>  <cluster_rmsd>  (14) 
1.41

>  <cluster>  (14) 
1

$$$$

     RDKit          3D

 54 57  0  0  0  0  0  0  0  0999 V2000
  139.7880   71.1740  221.1030 O   0  0  0  0  0  0  0  0  0  0  0  0
  140.2710   71.7470  222.1140 C   0  0  0  0  0  0  0  0  0  0  0  0
  140.9490   73.0200  221.8970 N   0  0  0  0  0  0  0  0  0  0  0  0
  140.9880   73.4730  220.5500 C   0  0  0  0  0  0  0  0  0  0  0  0
  142.2560   73.4300  219.8170 C   0  0  0  0  0  0  0  0  0  0  0  0
  142.0930   73.3980  218.5240 O   0  0  0  0  0  0  0  0  0  0  0  0
  143.5730   73.4190  220.2850 N   0  0  0  0  0  0  0  0  0  0  0  0
  144.5270   74.5220  220.4700 C   0  0  0  0  0  0  0  0  0  0  0  0
  145.8920   73.8570  220.7430 C   0  0  0  0  0  0  0  0  0  0  0  0
  145.6510   72.4550  220.1350 C   0  0  0  0  0  0  0  0  0  0  0  0
  144.2790   72.2310  220.7310 C   0  0  2  0  0  0  0  0  0  0  0  0
  143.6600   70.9270  220.4490 C   0  0  0  0  0  0  0  0  0  0  0  0
  144.1820   70.4690  219.0690 C   0  0  0  0  0  0  0  0  0  0  0  0
  144.5290   69.0190  219.1260 C   0  0  0  0  0  0  0  0  0  0  0  0
  143.5730   68.0230  219.0010 C   0  0  0  0  0  0  0  0  0  0  0  0
  144.0180   66.7170  219.0700 C   0  0  0  0  0  0  0  0  0  0  0  0
  145.3520   66.3910  219.2560 C   0  0  0  0  0  0  0  0  0  0  0  0
  146.2940   67.3950  219.3800 C   0  0  0  0  0  0  0  0  0  0  0  0
  145.8780   68.7070  219.3150 C   0  0  0  0  0  0  0  0  0  0  0  0
  140.1830   71.2060  223.4630 C   0  0  0  0  0  0  0  0  0  0  0  0
  139.5680   69.9810  223.6060 C   0  0  0  0  0  0  0  0  0  0  0  0
  139.4810   69.4640  224.8830 C   0  0  0  0  0  0  0  0  0  0  0  0
  140.0030   70.1680  225.9690 C   0  0  0  0  0  0  0  0  0  0  0  0
  139.9280   69.6690  227.2560 C   0  0  0  0  0  0  0  0  0  0  0  0
  140.4670   70.4160  228.3020 C   0  0  0  0  0  0  0  0  0  0  0  0
  141.0690   71.6260  228.1200 C   0  0  0  0  0  0  0  0  0  0  0  0
  141.1420   72.1260  226.8220 C   0  0  0  0  0  0  0  0  0  0  0  0
  140.6100   71.3870  225.7840 C   0  0  0  0  0  0  0  0  0  0  0  0
  140.6770   71.8640  224.5280 N   0  0  0  0  0  0  0  0  0  0  0  0
  141.3320   73.4400  222.7450 H   0  0  0  0  0  0  0  0  0  0  0  0
  140.2692   72.8617  219.9846 H   0  0  0  0  0  0  0  0  0  0  0  0
  140.7685   74.5479  220.6295 H   0  0  0  0  0  0  0  0  0  0  0  0
  144.5774   75.1410  219.5621 H   0  0  0  0  0  0  0  0  0  0  0  0
  144.2263   75.1825  221.2966 H   0  0  0  0  0  0  0  0  0  0  0  0
  146.7104   74.3856  220.2323 H   0  0  0  0  0  0  0  0  0  0  0  0
  146.1952   73.8515  221.8004 H   0  0  0  0  0  0  0  0  0  0  0  0
  145.6350   72.4700  219.0352 H   0  0  0  0  0  0  0  0  0  0  0  0
  146.4114   71.6887  220.3462 H   0  0  0  0  0  0  0  0  0  0  0  0
  144.2790   72.1334  221.8267 H   0  0  0  0  0  0  0  0  0  0  0  0
  143.9454   70.1982  221.2219 H   0  0  0  0  0  0  0  0  0  0  0  0
  142.5628   71.0050  220.4478 H   0  0  0  0  0  0  0  0  0  0  0  0
  143.4024   70.6301  218.3099 H   0  0  0  0  0  0  0  0  0  0  0  0
  145.0772   71.0506  218.8036 H   0  0  0  0  0  0  0  0  0  0  0  0
  142.5093   68.2615  218.8537 H   0  0  0  0  0  0  0  0  0  0  0  0
  143.2841   65.9033  218.9735 H   0  0  0  0  0  0  0  0  0  0  0  0
  145.6604   65.3362  219.3048 H   0  0  0  0  0  0  0  0  0  0  0  0
  147.3564   67.1510  219.5279 H   0  0  0  0  0  0  0  0  0  0  0  0
  146.6155   69.5173  219.4129 H   0  0  0  0  0  0  0  0  0  0  0  0
  139.1635   69.4381  222.7391 H   0  0  0  0  0  0  0  0  0  0  0  0
  138.9966   68.4899  225.0458 H   0  0  0  0  0  0  0  0  0  0  0  0
  139.4504   68.6976  227.4515 H   0  0  0  0  0  0  0  0  0  0  0  0
  140.4038   70.0104  229.3225 H   0  0  0  0  0  0  0  0  0  0  0  0
  141.4831   72.1884  228.9698 H   0  0  0  0  0  0  0  0  0  0  0  0
  141.6179   73.0982  226.6262 H   0  0  0  0  0  0  0  0  0  0  0  0
  1  2  2  0
  2  3  1  0
  3  4  1  0
  4  5  1  0
  5  6  2  0
  5  7  1  0
  7  8  1  0
  8  9  1  0
  9 10  1  0
 10 11  1  0
 11 12  1  0
 12 13  1  0
 13 14  1  0
 14 15  2  0
 15 16  1  0
 16 17  2  0
 17 18  1  0
 18 19  2  0
  2 20  1  0
 20 21  2  0
 21 22  1  0
 22 23  2  0
 23 24  1  0
 24 25  2  0
 25 26  1  0
 26 27  2  0
 27 28  1  0
 28 29  2  0
 11  7  1  0
 19 14  1  0
 29 20  1  0
 28 23  1  0
  3 30  1  0
  4 31  1  0
  4 32  1  0
  8 33  1  0
  8 34  1  0
  9 35  1  0
  9 36  1  0
 10 37  1  0
 10 38  1  0
 11 39  1  1
 12 40  1  0
 12 41  1  0
 13 42  1  0
 13 43  1  0
 15 44  1  0
 16 45  1  0
 17 46  1  0
 18 47  1  0
 19 48  1  0
 21 49  1  0
 22 50  1  0
 24 51  1  0
 25 52  1  0
 26 53  1  0
 27 54  1  0
M  END
>  <smiles>  (15) 
O=C(NCC(=O)N1CCCC1CCc1ccccc1)c1ccc2ccccc2n1

>  <score_type>  (15) 
oracle

>  <origin>  (15) 
autodockgpu

>  <m_score__min__energy>  (15) 
-9.2100000000000009

>  <m_primary>  (15) 
energy

>  <rmsd>  (15) 
4.148327914364806

>  <m_score__min__rmsd>  (15) 
4.148327914364806

>  <meeko>  (15) 
{"free_energy": -8.03, "intermolecular_energy": -10.12, "internal_energy": -1.9, "cluster_size": 1, "cluster_id": 4, "rank_in_cluster": 1}

>  <energy>  (15) 
-8.63

>  <cluster_rmsd>  (15) 
1.4

>  <cluster>  (15) 
1

$$$$

     RDKit          3D

 54 57  0  0  0  0  0  0  0  0999 V2000
  140.3880   75.5570  220.5660 O   0  0  0  0  0  0  0  0  0  0  0  0
  139.8880   75.9450  221.6540 C   0  0  0  0  0  0  0  0  0  0  0  0
  139.0340   75.0020  222.3680 N   0  0  0  0  0  0  0  0  0  0  0  0
  138.8620   73.7360  221.7430 C   0  0  0  0  0  0  0  0  0  0  0  0
  139.9050   72.7180  221.8890 C   0  0  0  0  0  0  0  0  0  0  0  0
  141.0800   73.2270  222.1360 O   0  0  0  0  0  0  0  0  0  0  0  0
  139.8290   71.3250  221.8060 N   0  0  0  0  0  0  0  0  0  0  0  0
  140.0100   70.4290  220.6540 C   0  0  0  0  0  0  0  0  0  0  0  0
  139.5290   69.0390  221.1220 C   0  0  0  0  0  0  0  0  0  0  0  0
  138.6200   69.4390  222.3090 C   0  0  0  0  0  0  0  0  0  0  0  0
  139.5630   70.4440  222.9300 C   0  0  2  0  0  0  0  0  0  0  0  0
  139.1100   71.0630  224.1840 C   0  0  0  0  0  0  0  0  0  0  0  0
  140.3750   71.3990  225.0050 C   0  0  0  0  0  0  0  0  0  0  0  0
  140.5220   70.4140  226.1150 C   0  0  0  0  0  0  0  0  0  0  0  0
  140.8630   70.7940  227.4030 C   0  0  0  0  0  0  0  0  0  0  0  0
  140.9680   69.7900  228.3460 C   0  0  0  0  0  0  0  0  0  0  0  0
  140.7490   68.4550  228.0430 C   0  0  0  0  0  0  0  0  0  0  0  0
  140.4100   68.0900  226.7540 C   0  0  0  0  0  0  0  0  0  0  0  0
  140.2990   69.0720  225.7940 C   0  0  0  0  0  0  0  0  0  0  0  0
  140.1200   77.2660  222.2210 C   0  0  0  0  0  0  0  0  0  0  0  0
  139.0070   78.0050  222.5580 C   0  0  0  0  0  0  0  0  0  0  0  0
  139.2200   79.2590  223.0950 C   0  0  0  0  0  0  0  0  0  0  0  0
  140.5170   79.7380  223.2800 C   0  0  0  0  0  0  0  0  0  0  0  0
  140.7560   80.9900  223.8160 C   0  0  0  0  0  0  0  0  0  0  0  0
  142.0730   81.4150  223.9790 C   0  0  0  0  0  0  0  0  0  0  0  0
  143.1490   80.6540  223.6320 C   0  0  0  0  0  0  0  0  0  0  0  0
  142.9060   79.3940  223.0920 C   0  0  0  0  0  0  0  0  0  0  0  0
  141.6030   78.9690  222.9310 C   0  0  0  0  0  0  0  0  0  0  0  0
  141.3600   77.7530  222.4100 N   0  0  0  0  0  0  0  0  0  0  0  0
  138.6450   75.3660  223.2380 H   0  0  0  0  0  0  0  0  0  0  0  0
  137.9331   73.3038  222.1434 H   0  0  0  0  0  0  0  0  0  0  0  0
  138.8756   73.9714  220.6686 H   0  0  0  0  0  0  0  0  0  0  0  0
  139.4079   70.7754  219.8011 H   0  0  0  0  0  0  0  0  0  0  0  0
  141.0583   70.4037  220.3218 H   0  0  0  0  0  0  0  0  0  0  0  0
  138.9634   68.5189  220.3348 H   0  0  0  0  0  0  0  0  0  0  0  0
  140.3364   68.3376  221.3794 H   0  0  0  0  0  0  0  0  0  0  0  0
  137.6747   69.8956  221.9804 H   0  0  0  0  0  0  0  0  0  0  0  0
  138.2707   68.6234  222.9592 H   0  0  0  0  0  0  0  0  0  0  0  0
  140.4827   69.9986  223.3371 H   0  0  0  0  0  0  0  0  0  0  0  0
  138.5442   71.9815  223.9690 H   0  0  0  0  0  0  0  0  0  0  0  0
  138.4497   70.3824  224.7415 H   0  0  0  0  0  0  0  0  0  0  0  0
  141.2593   71.3511  224.3525 H   0  0  0  0  0  0  0  0  0  0  0  0
  140.2829   72.4123  225.4231 H   0  0  0  0  0  0  0  0  0  0  0  0
  141.0421   71.8477  227.6630 H   0  0  0  0  0  0  0  0  0  0  0  0
  141.2360   70.0604  229.3780 H   0  0  0  0  0  0  0  0  0  0  0  0
  140.8448   67.6886  228.8263 H   0  0  0  0  0  0  0  0  0  0  0  0
  140.2321   67.0348  226.4991 H   0  0  0  0  0  0  0  0  0  0  0  0
  140.0318   68.7967  224.7631 H   0  0  0  0  0  0  0  0  0  0  0  0
  137.9909   77.6122  222.4055 H   0  0  0  0  0  0  0  0  0  0  0  0
  138.3610   79.8847  223.3789 H   0  0  0  0  0  0  0  0  0  0  0  0
  139.9190   81.6407  224.1093 H   0  0  0  0  0  0  0  0  0  0  0  0
  142.2527   82.4118  224.4080 H   0  0  0  0  0  0  0  0  0  0  0  0
  144.1755   81.0231  223.7739 H   0  0  0  0  0  0  0  0  0  0  0  0
  143.7433   78.7445  222.7970 H   0  0  0  0  0  0  0  0  0  0  0  0
  1  2  2  0
  2  3  1  0
  3  4  1  0
  4  5  1  0
  5  6  2  0
  5  7  1  0
  7  8  1  0
  8  9  1  0
  9 10  1  0
 10 11  1  0
 11 12  1  0
 12 13  1  0
 13 14  1  0
 14 15  2  0
 15 16  1  0
 16 17  2  0
 17 18  1  0
 18 19  2  0
  2 20  1  0
 20 21  2  0
 21 22  1  0
 22 23  2  0
 23 24  1  0
 24 25  2  0
 25 26  1  0
 26 27  2  0
 27 28  1  0
 28 29  2  0
 11  7  1  0
 19 14  1  0
 29 20  1  0
 28 23  1  0
  3 30  1  0
  4 31  1  0
  4 32  1  0
  8 33  1  0
  8 34  1  0
  9 35  1  0
  9 36  1  0
 10 37  1  0
 10 38  1  0
 11 39  1  1
 12 40  1  0
 12 41  1  0
 13 42  1  0
 13 43  1  0
 15 44  1  0
 16 45  1  0
 17 46  1  0
 18 47  1  0
 19 48  1  0
 21 49  1  0
 22 50  1  0
 24 51  1  0
 25 52  1  0
 26 53  1  0
 27 54  1  0
M  END
>  <smiles>  (16) 
O=C(NCC(=O)N1CCCC1CCc1ccccc1)c1ccc2ccccc2n1

>  <score_type>  (16) 
oracle

>  <origin>  (16) 
autodockgpu

>  <m_score__min__energy>  (16) 
-9.2100000000000009

>  <m_primary>  (16) 
energy

>  <rmsd>  (16) 
8.228066725428661

>  <m_score__min__rmsd>  (16) 
8.228066725428661

>  <meeko>  (16) 
{"free_energy": -9.1, "intermolecular_energy": -11.19, "internal_energy": -1.28, "cluster_size": 22, "cluster_id": 2, "rank_in_cluster": 1}

>  <energy>  (16) 
-8.62

>  <cluster_rmsd>  (16) 
1.29

>  <cluster>  (16) 
1

$$$$

     RDKit          3D

 54 57  0  0  0  0  0  0  0  0999 V2000
  137.7610   75.7750  222.3420 O   0  0  0  0  0  0  0  0  0  0  0  0
  138.9760   76.1020  222.3460 C   0  0  0  0  0  0  0  0  0  0  0  0
  139.9440   75.0720  221.9890 N   0  0  0  0  0  0  0  0  0  0  0  0
  139.3960   73.7980  221.6730 C   0  0  0  0  0  0  0  0  0  0  0  0
  140.1940   72.5950  221.9220 C   0  0  0  0  0  0  0  0  0  0  0  0
  141.4740   72.8350  221.9700 O   0  0  0  0  0  0  0  0  0  0  0  0
  139.7970   71.2680  222.1090 N   0  0  0  0  0  0  0  0  0  0  0  0
  139.4730   70.2230  221.1260 C   0  0  0  0  0  0  0  0  0  0  0  0
  138.8390   69.0690  221.9310 C   0  0  0  0  0  0  0  0  0  0  0  0
  138.3800   69.8280  223.2000 C   0  0  0  0  0  0  0  0  0  0  0  0
  139.6480   70.6260  223.4040 C   0  0  2  0  0  0  0  0  0  0  0  0
  139.6820   71.4870  224.5960 C   0  0  0  0  0  0  0  0  0  0  0  0
  141.0150   71.1990  225.3210 C   0  0  0  0  0  0  0  0  0  0  0  0
  140.7900   70.1820  226.3880 C   0  0  0  0  0  0  0  0  0  0  0  0
  140.2130   70.5010  227.6070 C   0  0  0  0  0  0  0  0  0  0  0  0
  140.0560   69.4720  228.5150 C   0  0  0  0  0  0  0  0  0  0  0  0
  140.4500   68.1710  228.2440 C   0  0  0  0  0  0  0  0  0  0  0  0
  141.0240   67.8670  227.0250 C   0  0  0  0  0  0  0  0  0  0  0  0
  141.1920   68.8740  226.1010 C   0  0  0  0  0  0  0  0  0  0  0  0
  139.4480   77.4380  222.6840 C   0  0  0  0  0  0  0  0  0  0  0  0
  138.4880   78.3880  222.9580 C   0  0  0  0  0  0  0  0  0  0  0  0
  138.9290   79.6560  223.2790 C   0  0  0  0  0  0  0  0  0  0  0  0
  140.2940   79.9420  223.3190 C   0  0  0  0  0  0  0  0  0  0  0  0
  140.7590   81.2040  223.6380 C   0  0  0  0  0  0  0  0  0  0  0  0
  142.1340   81.4310  223.6630 C   0  0  0  0  0  0  0  0  0  0  0  0
  143.0530   80.4640  223.3860 C   0  0  0  0  0  0  0  0  0  0  0  0
  142.5820   79.1930  223.0640 C   0  0  0  0  0  0  0  0  0  0  0  0
  141.2210   78.9650  223.0400 C   0  0  0  0  0  0  0  0  0  0  0  0
  140.7580   77.7400  222.7300 N   0  0  0  0  0  0  0  0  0  0  0  0
  140.9160   75.3830  222.0160 H   0  0  0  0  0  0  0  0  0  0  0  0
  138.4680   73.6941  222.2545 H   0  0  0  0  0  0  0  0  0  0  0  0
  139.2932   73.8217  220.5781 H   0  0  0  0  0  0  0  0  0  0  0  0
  138.7608   70.6063  220.3805 H   0  0  0  0  0  0  0  0  0  0  0  0
  140.3678   69.8908  220.5791 H   0  0  0  0  0  0  0  0  0  0  0  0
  137.9887   68.6204  221.3965 H   0  0  0  0  0  0  0  0  0  0  0  0
  139.5122   68.2205  222.1231 H   0  0  0  0  0  0  0  0  0  0  0  0
  137.5049   70.4681  223.0144 H   0  0  0  0  0  0  0  0  0  0  0  0
  138.0429   69.2129  224.0474 H   0  0  0  0  0  0  0  0  0  0  0  0
  140.5225   70.0134  223.6686 H   0  0  0  0  0  0  0  0  0  0  0  0
  139.6338   72.5452  224.2995 H   0  0  0  0  0  0  0  0  0  0  0  0
  138.8244   71.2822  225.2537 H   0  0  0  0  0  0  0  0  0  0  0  0
  141.7503   70.8158  224.5982 H   0  0  0  0  0  0  0  0  0  0  0  0
  141.3949   72.1271  225.7729 H   0  0  0  0  0  0  0  0  0  0  0  0
  139.8944   71.5275  227.8409 H   0  0  0  0  0  0  0  0  0  0  0  0
  139.6005   69.6937  229.4914 H   0  0  0  0  0  0  0  0  0  0  0  0
  140.3059   67.3828  228.9977 H   0  0  0  0  0  0  0  0  0  0  0  0
  141.3412   66.8388  226.7964 H   0  0  0  0  0  0  0  0  0  0  0  0
  141.6477   68.6468  225.1259 H   0  0  0  0  0  0  0  0  0  0  0  0
  137.4155   78.1460  222.9224 H   0  0  0  0  0  0  0  0  0  0  0  0
  138.1987   80.4470  223.5050 H   0  0  0  0  0  0  0  0  0  0  0  0
  140.0546   82.0168  223.8686 H   0  0  0  0  0  0  0  0  0  0  0  0
  142.4942   82.4385  223.9184 H   0  0  0  0  0  0  0  0  0  0  0  0
  144.1312   80.6797  223.4156 H   0  0  0  0  0  0  0  0  0  0  0  0
  143.2865   78.3808  222.8316 H   0  0  0  0  0  0  0  0  0  0  0  0
  1  2  2  0
  2  3  1  0
  3  4  1  0
  4  5  1  0
  5  6  2  0
  5  7  1  0
  7  8  1  0
  8  9  1  0
  9 10  1  0
 10 11  1  0
 11 12  1  0
 12 13  1  0
 13 14  1  0
 14 15  2  0
 15 16  1  0
 16 17  2  0
 17 18  1  0
 18 19  2  0
  2 20  1  0
 20 21  2  0
 21 22  1  0
 22 23  2  0
 23 24  1  0
 24 25  2  0
 25 26  1  0
 26 27  2  0
 27 28  1  0
 28 29  2  0
 11  7  1  0
 19 14  1  0
 29 20  1  0
 28 23  1  0
  3 30  1  0
  4 31  1  0
  4 32  1  0
  8 33  1  0
  8 34  1  0
  9 35  1  0
  9 36  1  0
 10 37  1  0
 10 38  1  0
 11 39  1  1
 12 40  1  0
 12 41  1  0
 13 42  1  0
 13 43  1  0
 15 44  1  0
 16 45  1  0
 17 46  1  0
 18 47  1  0
 19 48  1  0
 21 49  1  0
 22 50  1  0
 24 51  1  0
 25 52  1  0
 26 53  1  0
 27 54  1  0
M  END
>  <smiles>  (17) 
O=C(NCC(=O)N1CCCC1CCc1ccccc1)c1ccc2ccccc2n1

>  <score_type>  (17) 
oracle

>  <origin>  (17) 
autodockgpu

>  <m_score__min__energy>  (17) 
-9.2100000000000009

>  <m_primary>  (17) 
energy

>  <rmsd>  (17) 
8.373565107899278

>  <m_score__min__rmsd>  (17) 
8.373565107899278

>  <meeko>  (17) 
{"free_energy": -8.6, "intermolecular_energy": -10.69, "internal_energy": -1.82, "cluster_size": 22, "cluster_id": 2, "rank_in_cluster": 15}

>  <energy>  (17) 
-8.61

>  <cluster_rmsd>  (17) 
1.24

>  <cluster>  (17) 
1

$$$$

     RDKit          3D

 54 57  0  0  0  0  0  0  0  0999 V2000
  141.1360   72.5000  222.2590 O   0  0  0  0  0  0  0  0  0  0  0  0
  140.0760   72.2330  222.8820 C   0  0  0  0  0  0  0  0  0  0  0  0
  138.8880   73.0050  222.5350 N   0  0  0  0  0  0  0  0  0  0  0  0
  139.0680   73.9840  221.5190 C   0  0  0  0  0  0  0  0  0  0  0  0
  139.6550   75.2800  221.8690 C   0  0  0  0  0  0  0  0  0  0  0  0
  140.9530   75.2340  221.9850 O   0  0  0  0  0  0  0  0  0  0  0  0
  139.0480   76.5190  222.0910 N   0  0  0  0  0  0  0  0  0  0  0  0
  137.9360   76.8890  222.9790 C   0  0  0  0  0  0  0  0  0  0  0  0
  137.5390   78.3260  222.5820 C   0  0  0  0  0  0  0  0  0  0  0  0
  138.1150   78.3910  221.1470 C   0  0  0  0  0  0  0  0  0  0  0  0
  139.4530   77.7610  221.4580 C   0  0  2  0  0  0  0  0  0  0  0  0
  140.4000   77.6740  220.3360 C   0  0  0  0  0  0  0  0  0  0  0  0
  141.8110   77.9130  220.9180 C   0  0  0  0  0  0  0  0  0  0  0  0
  141.8030   79.1550  221.7440 C   0  0  0  0  0  0  0  0  0  0  0  0
  141.5120   80.3990  221.2090 C   0  0  0  0  0  0  0  0  0  0  0  0
  141.5350   81.4750  222.0760 C   0  0  0  0  0  0  0  0  0  0  0  0
  141.8340   81.3430  223.4220 C   0  0  0  0  0  0  0  0  0  0  0  0
  142.1230   80.0950  223.9420 C   0  0  0  0  0  0  0  0  0  0  0  0
  142.1070   79.0050  223.1000 C   0  0  0  0  0  0  0  0  0  0  0  0
  139.9840   71.2090  223.9140 C   0  0  0  0  0  0  0  0  0  0  0  0
  139.3110   70.0520  223.5860 C   0  0  0  0  0  0  0  0  0  0  0  0
  139.2200   69.0770  224.5600 C   0  0  0  0  0  0  0  0  0  0  0  0
  139.7940   69.2760  225.8160 C   0  0  0  0  0  0  0  0  0  0  0  0
  139.7160   68.3150  226.8060 C   0  0  0  0  0  0  0  0  0  0  0  0
  140.3090   68.5690  228.0420 C   0  0  0  0  0  0  0  0  0  0  0  0
  140.9670   69.7270  228.3280 C   0  0  0  0  0  0  0  0  0  0  0  0
  141.0440   70.6940  227.3290 C   0  0  0  0  0  0  0  0  0  0  0  0
  140.4580   70.4450  226.1040 C   0  0  0  0  0  0  0  0  0  0  0  0
  140.5280   71.3750  225.1330 N   0  0  0  0  0  0  0  0  0  0  0  0
  138.0570   72.7600  223.0750 H   0  0  0  0  0  0  0  0  0  0  0  0
  139.7156   73.5350  220.7516 H   0  0  0  0  0  0  0  0  0  0  0  0
  138.0414   74.2362  221.2150 H   0  0  0  0  0  0  0  0  0  0  0  0
  137.0874   76.2040  222.8355 H   0  0  0  0  0  0  0  0  0  0  0  0
  138.2270   76.8281  224.0381 H   0  0  0  0  0  0  0  0  0  0  0  0
  136.4475   78.4622  222.5881 H   0  0  0  0  0  0  0  0  0  0  0  0
  137.9097   79.1082  223.2608 H   0  0  0  0  0  0  0  0  0  0  0  0
  137.5273   77.7987  220.4302 H   0  0  0  0  0  0  0  0  0  0  0  0
  138.1360   79.3815  220.6689 H   0  0  0  0  0  0  0  0  0  0  0  0
  140.0922   78.3724  222.1120 H   0  0  0  0  0  0  0  0  0  0  0  0
  140.3461   76.6780  219.8723 H   0  0  0  0  0  0  0  0  0  0  0  0
  140.1625   78.4191  219.5625 H   0  0  0  0  0  0  0  0  0  0  0  0
  142.0988   77.0568  221.5457 H   0  0  0  0  0  0  0  0  0  0  0  0
  142.5334   78.0234  220.0959 H   0  0  0  0  0  0  0  0  0  0  0  0
  141.2734   80.5248  220.1426 H   0  0  0  0  0  0  0  0  0  0  0  0
  141.3068   82.4761  221.6814 H   0  0  0  0  0  0  0  0  0  0  0  0
  141.8415   82.2282  224.0750 H   0  0  0  0  0  0  0  0  0  0  0  0
  142.3615   79.9747  225.0091 H   0  0  0  0  0  0  0  0  0  0  0  0
  142.3359   78.0058  223.4990 H   0  0  0  0  0  0  0  0  0  0  0  0
  138.8651   69.9109  222.5904 H   0  0  0  0  0  0  0  0  0  0  0  0
  138.6912   68.1369  224.3440 H   0  0  0  0  0  0  0  0  0  0  0  0
  139.1941   67.3644  226.6217 H   0  0  0  0  0  0  0  0  0  0  0  0
  140.2424   67.7976  228.8234 H   0  0  0  0  0  0  0  0  0  0  0  0
  141.4224   69.8927  229.3155 H   0  0  0  0  0  0  0  0  0  0  0  0
  141.5655   71.6448  227.5136 H   0  0  0  0  0  0  0  0  0  0  0  0
  1  2  2  0
  2  3  1  0
  3  4  1  0
  4  5  1  0
  5  6  2  0
  5  7  1  0
  7  8  1  0
  8  9  1  0
  9 10  1  0
 10 11  1  0
 11 12  1  0
 12 13  1  0
 13 14  1  0
 14 15  2  0
 15 16  1  0
 16 17  2  0
 17 18  1  0
 18 19  2  0
  2 20  1  0
 20 21  2  0
 21 22  1  0
 22 23  2  0
 23 24  1  0
 24 25  2  0
 25 26  1  0
 26 27  2  0
 27 28  1  0
 28 29  2  0
 11  7  1  0
 19 14  1  0
 29 20  1  0
 28 23  1  0
  3 30  1  0
  4 31  1  0
  4 32  1  0
  8 33  1  0
  8 34  1  0
  9 35  1  0
  9 36  1  0
 10 37  1  0
 10 38  1  0
 11 39  1  1
 12 40  1  0
 12 41  1  0
 13 42  1  0
 13 43  1  0
 15 44  1  0
 16 45  1  0
 17 46  1  0
 18 47  1  0
 19 48  1  0
 21 49  1  0
 22 50  1  0
 24 51  1  0
 25 52  1  0
 26 53  1  0
 27 54  1  0
M  END
>  <smiles>  (18) 
O=C(NCC(=O)N1CCCC1CCc1ccccc1)c1ccc2ccccc2n1

>  <score_type>  (18) 
oracle

>  <origin>  (18) 
autodockgpu

>  <m_score__min__energy>  (18) 
-9.2100000000000009

>  <m_primary>  (18) 
energy

>  <rmsd>  (18) 
2.6107903890289488

>  <m_score__min__rmsd>  (18) 
2.6107903890289488

>  <meeko>  (18) 
{"free_energy": -8.81, "intermolecular_energy": -10.9, "internal_energy": -1.5, "cluster_size": 20, "cluster_id": 1, "rank_in_cluster": 13}

>  <energy>  (18) 
-8.55

>  <cluster_rmsd>  (18) 
1.02

>  <cluster>  (18) 
1

$$$$

     RDKit          3D

 54 57  0  0  0  0  0  0  0  0999 V2000
  141.2280   72.0060  221.5990 O   0  0  0  0  0  0  0  0  0  0  0  0
  140.3640   72.2270  222.4870 C   0  0  0  0  0  0  0  0  0  0  0  0
  139.4880   73.3770  222.2920 N   0  0  0  0  0  0  0  0  0  0  0  0
  139.7140   74.1260  221.1050 C   0  0  0  0  0  0  0  0  0  0  0  0
  140.7300   75.1820  221.1070 C   0  0  0  0  0  0  0  0  0  0  0  0
  140.9430   75.6780  222.2940 O   0  0  0  0  0  0  0  0  0  0  0  0
  141.4790   75.7200  220.0570 N   0  0  0  0  0  0  0  0  0  0  0  0
  142.6600   75.1890  219.3600 C   0  0  0  0  0  0  0  0  0  0  0  0
  143.1980   76.3500  218.4980 C   0  0  0  0  0  0  0  0  0  0  0  0
  142.5770   77.5610  219.2340 C   0  0  0  0  0  0  0  0  0  0  0  0
  141.1900   76.9820  219.3990 C   0  0  2  0  0  0  0  0  0  0  0  0
  140.1950   77.8630  220.0290 C   0  0  0  0  0  0  0  0  0  0  0  0
  140.8390   79.2630  220.1400 C   0  0  0  0  0  0  0  0  0  0  0  0
  141.3340   79.4730  221.5310 C   0  0  0  0  0  0  0  0  0  0  0  0
  141.0170   78.6100  222.5690 C   0  0  0  0  0  0  0  0  0  0  0  0
  141.5360   78.9100  223.8140 C   0  0  0  0  0  0  0  0  0  0  0  0
  142.3380   80.0170  224.0410 C   0  0  0  0  0  0  0  0  0  0  0  0
  142.6450   80.8690  222.9970 C   0  0  0  0  0  0  0  0  0  0  0  0
  142.1410   80.5940  221.7450 C   0  0  0  0  0  0  0  0  0  0  0  0
  140.2040   71.4030  223.6770 C   0  0  0  0  0  0  0  0  0  0  0  0
  139.5530   70.1980  223.5190 C   0  0  0  0  0  0  0  0  0  0  0  0
  139.3980   69.4120  224.6430 C   0  0  0  0  0  0  0  0  0  0  0  0
  139.8870   69.8390  225.8780 C   0  0  0  0  0  0  0  0  0  0  0  0
  139.7440   69.0690  227.0170 C   0  0  0  0  0  0  0  0  0  0  0  0
  140.2540   69.5460  228.2230 C   0  0  0  0  0  0  0  0  0  0  0  0
  140.8920   70.7440  228.3390 C   0  0  0  0  0  0  0  0  0  0  0  0
  141.0350   71.5180  227.1910 C   0  0  0  0  0  0  0  0  0  0  0  0
  140.5320   71.0480  225.9940 C   0  0  0  0  0  0  0  0  0  0  0  0
  140.6660   71.7900  224.8800 N   0  0  0  0  0  0  0  0  0  0  0  0
  138.8130   73.5210  223.0440 H   0  0  0  0  0  0  0  0  0  0  0  0
  139.9986   73.4081  220.3216 H   0  0  0  0  0  0  0  0  0  0  0  0
  138.7705   74.6719  220.9573 H   0  0  0  0  0  0  0  0  0  0  0  0
  143.4207   74.8671  220.0864 H   0  0  0  0  0  0  0  0  0  0  0  0
  142.4068   74.3126  218.7454 H   0  0  0  0  0  0  0  0  0  0  0  0
  144.2973   76.3883  218.5093 H   0  0  0  0  0  0  0  0  0  0  0  0
  142.9432   76.2835  217.4300 H   0  0  0  0  0  0  0  0  0  0  0  0
  143.0661   77.7640  220.1981 H   0  0  0  0  0  0  0  0  0  0  0  0
  142.6478   78.5350  218.7277 H   0  0  0  0  0  0  0  0  0  0  0  0
  140.6500   76.8433  218.4507 H   0  0  0  0  0  0  0  0  0  0  0  0
  139.2876   77.9124  219.4092 H   0  0  0  0  0  0  0  0  0  0  0  0
  139.9058   77.4837  221.0202 H   0  0  0  0  0  0  0  0  0  0  0  0
  141.6811   79.3362  219.4361 H   0  0  0  0  0  0  0  0  0  0  0  0
  140.0904   80.0315  219.8970 H   0  0  0  0  0  0  0  0  0  0  0  0
  140.3813   77.7267  222.4086 H   0  0  0  0  0  0  0  0  0  0  0  0
  141.3034   78.2440  224.6580 H   0  0  0  0  0  0  0  0  0  0  0  0
  142.7292   80.2171  225.0494 H   0  0  0  0  0  0  0  0  0  0  0  0
  143.2807   81.7512  223.1630 H   0  0  0  0  0  0  0  0  0  0  0  0
  142.3761   81.2637  220.9046 H   0  0  0  0  0  0  0  0  0  0  0  0
  139.1730   69.8764  222.5381 H   0  0  0  0  0  0  0  0  0  0  0  0
  138.8853   68.4420  224.5645 H   0  0  0  0  0  0  0  0  0  0  0  0
  139.2354   68.0947  226.9722 H   0  0  0  0  0  0  0  0  0  0  0  0
  140.1358   68.9259  229.1238 H   0  0  0  0  0  0  0  0  0  0  0  0
  141.2815   71.0885  229.3083 H   0  0  0  0  0  0  0  0  0  0  0  0
  141.5428   72.4927  227.2368 H   0  0  0  0  0  0  0  0  0  0  0  0
  1  2  2  0
  2  3  1  0
  3  4  1  0
  4  5  1  0
  5  6  2  0
  5  7  1  0
  7  8  1  0
  8  9  1  0
  9 10  1  0
 10 11  1  0
 11 12  1  0
 12 13  1  0
 13 14  1  0
 14 15  2  0
 15 16  1  0
 16 17  2  0
 17 18  1  0
 18 19  2  0
  2 20  1  0
 20 21  2  0
 21 22  1  0
 22 23  2  0
 23 24  1  0
 24 25  2  0
 25 26  1  0
 26 27  2  0
 27 28  1  0
 28 29  2  0
 11  7  1  0
 19 14  1  0
 29 20  1  0
 28 23  1  0
  3 30  1  0
  4 31  1  0
  4 32  1  0
  8 33  1  0
  8 34  1  0
  9 35  1  0
  9 36  1  0
 10 37  1  0
 10 38  1  0
 11 39  1  6
 12 40  1  0
 12 41  1  0
 13 42  1  0
 13 43  1  0
 15 44  1  0
 16 45  1  0
 17 46  1  0
 18 47  1  0
 19 48  1  0
 21 49  1  0
 22 50  1  0
 24 51  1  0
 25 52  1  0
 26 53  1  0
 27 54  1  0
M  END
>  <smiles>  (19) 
O=C(NCC(=O)N1CCCC1CCc1ccccc1)c1ccc2ccccc2n1

>  <score_type>  (19) 
oracle

>  <origin>  (19) 
autodockgpu

>  <m_score__min__energy>  (19) 
-9.2100000000000009

>  <m_primary>  (19) 
energy

>  <rmsd>  (19) 
2.2836601860327024

>  <m_score__min__rmsd>  (19) 
2.2836601860327024

>  <meeko>  (19) 
{"free_energy": -9.1, "intermolecular_energy": -11.19, "internal_energy": -1.59, "cluster_size": 20, "cluster_id": 1, "rank_in_cluster": 3}

>  <energy>  (19) 
-8.22

>  <cluster_rmsd>  (19) 
1.48

>  <cluster>  (19) 
1

$$$$

     RDKit          3D

 54 57  0  0  0  0  0  0  0  0999 V2000
  140.3040   74.4930  220.1380 O   0  0  0  0  0  0  0  0  0  0  0  0
  140.1500   75.1970  221.1700 C   0  0  0  0  0  0  0  0  0  0  0  0
  139.3400   74.6360  222.2440 N   0  0  0  0  0  0  0  0  0  0  0  0
  138.8100   73.3390  221.9990 C   0  0  0  0  0  0  0  0  0  0  0  0
  139.6550   72.1650  222.2280 C   0  0  0  0  0  0  0  0  0  0  0  0
  140.7010   72.4280  222.9600 O   0  0  0  0  0  0  0  0  0  0  0  0
  139.5110   70.8450  221.7900 N   0  0  0  0  0  0  0  0  0  0  0  0
  139.6690   70.2650  220.4490 C   0  0  0  0  0  0  0  0  0  0  0  0
  139.1090   68.8300  220.5420 C   0  0  0  0  0  0  0  0  0  0  0  0
  138.2000   68.9610  221.7870 C   0  0  0  0  0  0  0  0  0  0  0  0
  139.1800   69.7230  222.6500 C   0  0  2  0  0  0  0  0  0  0  0  0
  138.7340   70.0240  224.0190 C   0  0  0  0  0  0  0  0  0  0  0  0
  139.6880   69.2800  224.9780 C   0  0  0  0  0  0  0  0  0  0  0  0
  140.1870   70.2280  226.0160 C   0  0  0  0  0  0  0  0  0  0  0  0
  141.0650   71.2580  225.7180 C   0  0  0  0  0  0  0  0  0  0  0  0
  141.4550   72.0710  226.7650 C   0  0  0  0  0  0  0  0  0  0  0  0
  141.0040   71.8860  228.0630 C   0  0  0  0  0  0  0  0  0  0  0  0
  140.1290   70.8540  228.3450 C   0  0  0  0  0  0  0  0  0  0  0  0
  139.7240   70.0280  227.3200 C   0  0  0  0  0  0  0  0  0  0  0  0
  140.7340   76.5220  221.3340 C   0  0  0  0  0  0  0  0  0  0  0  0
  141.1060   77.1870  220.1860 C   0  0  0  0  0  0  0  0  0  0  0  0
  141.6600   78.4420  220.3350 C   0  0  0  0  0  0  0  0  0  0  0  0
  141.8280   78.9950  221.6040 C   0  0  0  0  0  0  0  0  0  0  0  0
  142.3800   80.2510  221.7790 C   0  0  0  0  0  0  0  0  0  0  0  0
  142.5220   80.7530  223.0710 C   0  0  0  0  0  0  0  0  0  0  0  0
  142.1420   80.0630  224.1830 C   0  0  0  0  0  0  0  0  0  0  0  0
  141.5860   78.7990  224.0050 C   0  0  0  0  0  0  0  0  0  0  0  0
  141.4430   78.3000  222.7260 C   0  0  0  0  0  0  0  0  0  0  0  0
  140.9070   77.0790  222.5460 N   0  0  0  0  0  0  0  0  0  0  0  0
  139.2370   75.2480  223.0540 H   0  0  0  0  0  0  0  0  0  0  0  0
  137.9244   73.2274  222.6419 H   0  0  0  0  0  0  0  0  0  0  0  0
  138.6380   73.3286  220.9126 H   0  0  0  0  0  0  0  0  0  0  0  0
  139.1024   70.8500  219.7096 H   0  0  0  0  0  0  0  0  0  0  0  0
  140.7211   70.2686  220.1281 H   0  0  0  0  0  0  0  0  0  0  0  0
  138.5323   68.5604  219.6449 H   0  0  0  0  0  0  0  0  0  0  0  0
  139.8745   68.0435  220.6146 H   0  0  0  0  0  0  0  0  0  0  0  0
  137.2848   69.5356  221.5815 H   0  0  0  0  0  0  0  0  0  0  0  0
  137.7990   68.0258  222.2049 H   0  0  0  0  0  0  0  0  0  0  0  0
  140.0689   69.1413  222.9356 H   0  0  0  0  0  0  0  0  0  0  0  0
  138.7829   71.1075  224.2027 H   0  0  0  0  0  0  0  0  0  0  0  0
  137.6933   69.7024  224.1726 H   0  0  0  0  0  0  0  0  0  0  0  0
  139.1484   68.4541  225.4645 H   0  0  0  0  0  0  0  0  0  0  0  0
  140.5391   68.8769  224.4095 H   0  0  0  0  0  0  0  0  0  0  0  0
  141.4345   71.4209  224.6948 H   0  0  0  0  0  0  0  0  0  0  0  0
  142.1510   72.8979  226.5606 H   0  0  0  0  0  0  0  0  0  0  0  0
  141.3414   72.5583  228.8656 H   0  0  0  0  0  0  0  0  0  0  0  0
  139.7625   70.6951  229.3699 H   0  0  0  0  0  0  0  0  0  0  0  0
  139.0286   69.2019  227.5296 H   0  0  0  0  0  0  0  0  0  0  0  0
  140.9672   76.7363  219.1922 H   0  0  0  0  0  0  0  0  0  0  0  0
  141.9714   79.0104  219.4462 H   0  0  0  0  0  0  0  0  0  0  0  0
  142.7022   80.8449  220.9110 H   0  0  0  0  0  0  0  0  0  0  0  0
  142.9615   81.7532  223.1994 H   0  0  0  0  0  0  0  0  0  0  0  0
  142.2703   80.4907  225.1883 H   0  0  0  0  0  0  0  0  0  0  0  0
  141.2645   78.2051  224.8733 H   0  0  0  0  0  0  0  0  0  0  0  0
  1  2  2  0
  2  3  1  0
  3  4  1  0
  4  5  1  0
  5  6  2  0
  5  7  1  0
  7  8  1  0
  8  9  1  0
  9 10  1  0
 10 11  1  0
 11 12  1  0
 12 13  1  0
 13 14  1  0
 14 15  2  0
 15 16  1  0
 16 17  2  0
 17 18  1  0
 18 19  2  0
  2 20  1  0
 20 21  2  0
 21 22  1  0
 22 23  2  0
 23 24  1  0
 24 25  2  0
 25 26  1  0
 26 27  2  0
 27 28  1  0
 28 29  2  0
 11  7  1  0
 19 14  1  0
 29 20  1  0
 28 23  1  0
  3 30  1  0
  4 31  1  0
  4 32  1  0
  8 33  1  0
  8 34  1  0
  9 35  1  0
  9 36  1  0
 10 37  1  0
 10 38  1  0
 11 39  1  1
 12 40  1  0
 12 41  1  0
 13 42  1  0
 13 43  1  0
 15 44  1  0
 16 45  1  0
 17 46  1  0
 18 47  1  0
 19 48  1  0
 21 49  1  0
 22 50  1  0
 24 51  1  0
 25 52  1  0
 26 53  1  0
 27 54  1  0
M  END
>  <smiles>  (20) 
O=C(NCC(=O)N1CCCC1CCc1ccccc1)c1ccc2ccccc2n1

>  <score_type>  (20) 
oracle

>  <origin>  (20) 
autodockgpu

>  <m_score__min__energy>  (20) 
-9.2100000000000009

>  <m_primary>  (20) 
energy

>  <rmsd>  (20) 
8.298797347603308

>  <m_score__min__rmsd>  (20) 
8.298797347603308

>  <meeko>  (20) 
{"free_energy": -8.63, "intermolecular_energy": -10.72, "internal_energy": -1.73, "cluster_size": 22, "cluster_id": 2, "rank_in_cluster": 12}

>  <energy>  (20) 
-8.09

>  <cluster_rmsd>  (20) 
1.61

>  <cluster>  (20) 
1

$$$$

     RDKit          3D

 54 57  0  0  0  0  0  0  0  0999 V2000
  137.7610   75.7370  222.3130 O   0  0  0  0  0  0  0  0  0  0  0  0
  138.9740   76.0700  222.3080 C   0  0  0  0  0  0  0  0  0  0  0  0
  139.9490   75.0290  222.0030 N   0  0  0  0  0  0  0  0  0  0  0  0
  139.4080   73.7400  221.7420 C   0  0  0  0  0  0  0  0  0  0  0  0
  140.2970   72.5750  221.7510 C   0  0  0  0  0  0  0  0  0  0  0  0
  141.5510   72.8930  221.5950 O   0  0  0  0  0  0  0  0  0  0  0  0
  140.0070   71.2160  221.8970 N   0  0  0  0  0  0  0  0  0  0  0  0
  139.8890   70.1530  220.8870 C   0  0  0  0  0  0  0  0  0  0  0  0
  139.2820   68.9390  221.6200 C   0  0  0  0  0  0  0  0  0  0  0  0
  138.6200   69.6420  222.8300 C   0  0  0  0  0  0  0  0  0  0  0  0
  139.7790   70.5530  223.1690 C   0  0  2  0  0  0  0  0  0  0  0  0
  139.6040   71.4030  224.3550 C   0  0  0  0  0  0  0  0  0  0  0  0
  140.8900   71.2680  225.2010 C   0  0  0  0  0  0  0  0  0  0  0  0
  140.6630   70.2780  226.2940 C   0  0  0  0  0  0  0  0  0  0  0  0
  140.0360   70.6180  227.4820 C   0  0  0  0  0  0  0  0  0  0  0  0
  139.8830   69.6140  228.4190 C   0  0  0  0  0  0  0  0  0  0  0  0
  140.3270   68.3190  228.2050 C   0  0  0  0  0  0  0  0  0  0  0  0
  140.9510   67.9950  227.0150 C   0  0  0  0  0  0  0  0  0  0  0  0
  141.1170   68.9770  226.0640 C   0  0  0  0  0  0  0  0  0  0  0  0
  139.4390   77.4210  222.5900 C   0  0  0  0  0  0  0  0  0  0  0  0
  138.4740   78.3890  222.7680 C   0  0  0  0  0  0  0  0  0  0  0  0
  138.9080   79.6720  223.0340 C   0  0  0  0  0  0  0  0  0  0  0  0
  140.2720   79.9550  223.1150 C   0  0  0  0  0  0  0  0  0  0  0  0
  140.7310   81.2320  223.3810 C   0  0  0  0  0  0  0  0  0  0  0  0
  142.1040   81.4550  223.4510 C   0  0  0  0  0  0  0  0  0  0  0  0
  143.0290   80.4700  223.2680 C   0  0  0  0  0  0  0  0  0  0  0  0
  142.5650   79.1850  223.0000 C   0  0  0  0  0  0  0  0  0  0  0  0
  141.2040   78.9610  222.9310 C   0  0  0  0  0  0  0  0  0  0  0  0
  140.7480   77.7220  222.6730 N   0  0  0  0  0  0  0  0  0  0  0  0
  140.9190   75.3450  222.0220 H   0  0  0  0  0  0  0  0  0  0  0  0
  138.6322   73.5578  222.5002 H   0  0  0  0  0  0  0  0  0  0  0  0
  139.0728   73.8045  220.6963 H   0  0  0  0  0  0  0  0  0  0  0  0
  139.2288   70.4748  220.0681 H   0  0  0  0  0  0  0  0  0  0  0  0
  140.8647   69.9093  220.4413 H   0  0  0  0  0  0  0  0  0  0  0  0
  138.5399   68.4180  220.9972 H   0  0  0  0  0  0  0  0  0  0  0  0
  140.0062   68.1548  221.8854 H   0  0  0  0  0  0  0  0  0  0  0  0
  137.7143   70.1996  222.5492 H   0  0  0  0  0  0  0  0  0  0  0  0
  138.2521   68.9915  223.6371 H   0  0  0  0  0  0  0  0  0  0  0  0
  140.6728   70.0221  223.5284 H   0  0  0  0  0  0  0  0  0  0  0  0
  139.4598   72.4503  224.0512 H   0  0  0  0  0  0  0  0  0  0  0  0
  138.7200   71.0944  224.9323 H   0  0  0  0  0  0  0  0  0  0  0  0
  141.7160   70.9248  224.5608 H   0  0  0  0  0  0  0  0  0  0  0  0
  141.1467   72.2445  225.6375 H   0  0  0  0  0  0  0  0  0  0  0  0
  139.6765   71.6404  227.6705 H   0  0  0  0  0  0  0  0  0  0  0  0
  139.3891   69.8523  229.3726 H   0  0  0  0  0  0  0  0  0  0  0  0
  140.1833   67.5513  228.9796 H   0  0  0  0  0  0  0  0  0  0  0  0
  141.3086   66.9712  226.8309 H   0  0  0  0  0  0  0  0  0  0  0  0
  141.6127   68.7343  225.1125 H   0  0  0  0  0  0  0  0  0  0  0  0
  137.4026   78.1490  222.7009 H   0  0  0  0  0  0  0  0  0  0  0  0
  138.1734   80.4771  223.1832 H   0  0  0  0  0  0  0  0  0  0  0  0
  140.0224   82.0592  223.5350 H   0  0  0  0  0  0  0  0  0  0  0  0
  142.4591   82.4741  223.6640 H   0  0  0  0  0  0  0  0  0  0  0  0
  144.1063   80.6836  223.3301 H   0  0  0  0  0  0  0  0  0  0  0  0
  143.2738   78.3582  222.8451 H   0  0  0  0  0  0  0  0  0  0  0  0
  1  2  2  0
  2  3  1  0
  3  4  1  0
  4  5  1  0
  5  6  2  0
  5  7  1  0
  7  8  1  0
  8  9  1  0
  9 10  1  0
 10 11  1  0
 11 12  1  0
 12 13  1  0
 13 14  1  0
 14 15  2  0
 15 16  1  0
 16 17  2  0
 17 18  1  0
 18 19  2  0
  2 20  1  0
 20 21  2  0
 21 22  1  0
 22 23  2  0
 23 24  1  0
 24 25  2  0
 25 26  1  0
 26 27  2  0
 27 28  1  0
 28 29  2  0
 11  7  1  0
 19 14  1  0
 29 20  1  0
 28 23  1  0
  3 30  1  0
  4 31  1  0
  4 32  1  0
  8 33  1  0
  8 34  1  0
  9 35  1  0
  9 36  1  0
 10 37  1  0
 10 38  1  0
 11 39  1  1
 12 40  1  0
 12 41  1  0
 13 42  1  0
 13 43  1  0
 15 44  1  0
 16 45  1  0
 17 46  1  0
 18 47  1  0
 19 48  1  0
 21 49  1  0
 22 50  1  0
 24 51  1  0
 25 52  1  0
 26 53  1  0
 27 54  1  0
M  END
>  <smiles>  (21) 
O=C(NCC(=O)N1CCCC1CCc1ccccc1)c1ccc2ccccc2n1

>  <score_type>  (21) 
oracle

>  <origin>  (21) 
autodockgpu

>  <m_score__min__energy>  (21) 
-9.2100000000000009

>  <m_primary>  (21) 
energy

>  <rmsd>  (21) 
8.37115558417519

>  <m_score__min__rmsd>  (21) 
8.37115558417519

>  <meeko>  (21) 
{"free_energy": -8.4, "intermolecular_energy": -10.49, "internal_energy": -1.83, "cluster_size": 22, "cluster_id": 2, "rank_in_cluster": 22}

>  <energy>  (21) 
-9.1

>  <cluster_rmsd>  (21) 
0.0

>  <cluster>  (21) 
2

$$$$

     RDKit          3D

 54 57  0  0  0  0  0  0  0  0999 V2000
  140.4560   71.6120  221.3110 O   0  0  0  0  0  0  0  0  0  0  0  0
  139.8170   71.9490  222.3420 C   0  0  0  0  0  0  0  0  0  0  0  0
  138.9400   73.1090  222.2310 N   0  0  0  0  0  0  0  0  0  0  0  0
  138.9070   73.7340  220.9540 C   0  0  0  0  0  0  0  0  0  0  0  0
  140.0500   74.5440  220.5250 C   0  0  0  0  0  0  0  0  0  0  0  0
  140.6110   74.0940  219.4370 O   0  0  0  0  0  0  0  0  0  0  0  0
  140.6110   75.6920  221.0920 N   0  0  0  0  0  0  0  0  0  0  0  0
  140.2830   76.3940  222.3410 C   0  0  0  0  0  0  0  0  0  0  0  0
  141.0460   77.7350  222.2840 C   0  0  0  0  0  0  0  0  0  0  0  0
  141.2780   77.8640  220.7590 C   0  0  0  0  0  0  0  0  0  0  0  0
  141.7190   76.4370  220.5200 C   0  0  2  0  0  0  0  0  0  0  0  0
  142.1190   76.1090  219.1440 C   0  0  0  0  0  0  0  0  0  0  0  0
  143.6600   76.0030  219.1360 C   0  0  0  0  0  0  0  0  0  0  0  0
  144.0720   74.7120  219.7600 C   0  0  0  0  0  0  0  0  0  0  0  0
  145.1570   74.6160  220.6170 C   0  0  0  0  0  0  0  0  0  0  0  0
  145.4390   73.3650  221.1320 C   0  0  0  0  0  0  0  0  0  0  0  0
  144.6880   72.2430  220.8210 C   0  0  0  0  0  0  0  0  0  0  0  0
  143.6090   72.3530  219.9640 C   0  0  0  0  0  0  0  0  0  0  0  0
  143.3060   73.5890  219.4360 C   0  0  0  0  0  0  0  0  0  0  0  0
  139.9140   71.2470  223.6140 C   0  0  0  0  0  0  0  0  0  0  0  0
  139.4870   69.9360  223.6360 C   0  0  0  0  0  0  0  0  0  0  0  0
  139.5750   69.2650  224.8390 C   0  0  0  0  0  0  0  0  0  0  0  0
  140.0780   69.9050  225.9720 C   0  0  0  0  0  0  0  0  0  0  0  0
  140.1760   69.2530  227.1870 C   0  0  0  0  0  0  0  0  0  0  0  0
  140.6870   69.9430  228.2850 C   0  0  0  0  0  0  0  0  0  0  0  0
  141.0990   71.2410  228.2220 C   0  0  0  0  0  0  0  0  0  0  0  0
  141.0000   71.8960  226.9970 C   0  0  0  0  0  0  0  0  0  0  0  0
  140.4940   71.2140  225.9080 C   0  0  0  0  0  0  0  0  0  0  0  0
  140.3950   71.8400  224.7210 N   0  0  0  0  0  0  0  0  0  0  0  0
  138.4520   73.3490  223.0950 H   0  0  0  0  0  0  0  0  0  0  0  0
  138.7813   72.9351  220.2083 H   0  0  0  0  0  0  0  0  0  0  0  0
  138.0876   74.4628  221.0405 H   0  0  0  0  0  0  0  0  0  0  0  0
  139.1996   76.5725  222.4067 H   0  0  0  0  0  0  0  0  0  0  0  0
  140.5687   75.8034  223.2239 H   0  0  0  0  0  0  0  0  0  0  0  0
  140.4381   78.5648  222.6738 H   0  0  0  0  0  0  0  0  0  0  0  0
  141.9628   77.7665  222.8911 H   0  0  0  0  0  0  0  0  0  0  0  0
  140.3573   78.1173  220.2129 H   0  0  0  0  0  0  0  0  0  0  0  0
  141.9684   78.6549  220.4306 H   0  0  0  0  0  0  0  0  0  0  0  0
  142.6795   76.1823  220.9918 H   0  0  0  0  0  0  0  0  0  0  0  0
  141.6727   75.1511  218.8388 H   0  0  0  0  0  0  0  0  0  0  0  0
  141.7745   76.8808  218.4400 H   0  0  0  0  0  0  0  0  0  0  0  0
  144.0250   76.0422  218.0991 H   0  0  0  0  0  0  0  0  0  0  0  0
  144.0885   76.8399  219.7070 H   0  0  0  0  0  0  0  0  0  0  0  0
  145.7656   75.4951  220.8754 H   0  0  0  0  0  0  0  0  0  0  0  0
  146.2936   73.2557  221.8159 H   0  0  0  0  0  0  0  0  0  0  0  0
  144.9498   71.2668  221.2551 H   0  0  0  0  0  0  0  0  0  0  0  0
  143.0039   71.4707  219.7085 H   0  0  0  0  0  0  0  0  0  0  0  0
  142.4512   73.6930  218.7515 H   0  0  0  0  0  0  0  0  0  0  0  0
  139.0931   69.4459  222.7334 H   0  0  0  0  0  0  0  0  0  0  0  0
  139.2459   68.2174  224.9049 H   0  0  0  0  0  0  0  0  0  0  0  0
  139.8555   68.2054  227.2858 H   0  0  0  0  0  0  0  0  0  0  0  0
  140.7613   69.4155  229.2474 H   0  0  0  0  0  0  0  0  0  0  0  0
  141.4967   71.7543  229.1099 H   0  0  0  0  0  0  0  0  0  0  0  0
  141.3208   72.9435  226.8981 H   0  0  0  0  0  0  0  0  0  0  0  0
  1  2  2  0
  2  3  1  0
  3  4  1  0
  4  5  1  0
  5  6  2  0
  5  7  1  0
  7  8  1  0
  8  9  1  0
  9 10  1  0
 10 11  1  0
 11 12  1  0
 12 13  1  0
 13 14  1  0
 14 15  2  0
 15 16  1  0
 16 17  2  0
 17 18  1  0
 18 19  2  0
  2 20  1  0
 20 21  2  0
 21 22  1  0
 22 23  2  0
 23 24  1  0
 24 25  2  0
 25 26  1  0
 26 27  2  0
 27 28  1  0
 28 29  2  0
 11  7  1  0
 19 14  1  0
 29 20  1  0
 28 23  1  0
  3 30  1  0
  4 31  1  0
  4 32  1  0
  8 33  1  0
  8 34  1  0
  9 35  1  0
  9 36  1  0
 10 37  1  0
 10 38  1  0
 11 39  1  1
 12 40  1  0
 12 41  1  0
 13 42  1  0
 13 43  1  0
 15 44  1  0
 16 45  1  0
 17 46  1  0
 18 47  1  0
 19 48  1  0
 21 49  1  0
 22 50  1  0
 24 51  1  0
 25 52  1  0
 26 53  1  0
 27 54  1  0
M  END
>  <smiles>  (22) 
O=C(NCC(=O)N1CCCC1CCc1ccccc1)c1ccc2ccccc2n1

>  <score_type>  (22) 
oracle

>  <origin>  (22) 
autodockgpu

>  <m_score__min__energy>  (22) 
-9.2100000000000009

>  <m_primary>  (22) 
energy

>  <rmsd>  (22) 
2.1003034531948765

>  <m_score__min__rmsd>  (22) 
2.1003034531948765

>  <meeko>  (22) 
{"free_energy": -8.27, "intermolecular_energy": -10.35, "internal_energy": -1.47, "cluster_size": 5, "cluster_id": 3, "rank_in_cluster": 3}

>  <energy>  (22) 
-9.09

>  <cluster_rmsd>  (22) 
1.24

>  <cluster>  (22) 
2

$$$$

     RDKit          3D

 54 57  0  0  0  0  0  0  0  0999 V2000
  139.8630   71.2260  221.2140 O   0  0  0  0  0  0  0  0  0  0  0  0
  139.7860   71.8600  222.2980 C   0  0  0  0  0  0  0  0  0  0  0  0
  139.5580   73.2980  222.2140 N   0  0  0  0  0  0  0  0  0  0  0  0
  139.4480   73.8250  220.8980 C   0  0  0  0  0  0  0  0  0  0  0  0
  139.5390   75.2740  220.6970 C   0  0  0  0  0  0  0  0  0  0  0  0
  138.7520   75.7050  219.7520 O   0  0  0  0  0  0  0  0  0  0  0  0
  140.3220   76.2310  221.3480 N   0  0  0  0  0  0  0  0  0  0  0  0
  140.1650   76.8480  222.6730 C   0  0  0  0  0  0  0  0  0  0  0  0
  141.1670   78.0210  222.7140 C   0  0  0  0  0  0  0  0  0  0  0  0
  141.3810   78.2620  221.2000 C   0  0  0  0  0  0  0  0  0  0  0  0
  141.5370   76.8110  220.8040 C   0  0  2  0  0  0  0  0  0  0  0  0
  141.8340   76.5600  219.3860 C   0  0  0  0  0  0  0  0  0  0  0  0
  143.3380   76.2220  219.2930 C   0  0  0  0  0  0  0  0  0  0  0  0
  143.5700   74.8410  219.8100 C   0  0  0  0  0  0  0  0  0  0  0  0
  142.6300   73.8320  219.6730 C   0  0  0  0  0  0  0  0  0  0  0  0
  142.9600   72.5950  220.1920 C   0  0  0  0  0  0  0  0  0  0  0  0
  144.1680   72.3480  220.8250 C   0  0  0  0  0  0  0  0  0  0  0  0
  145.0950   73.3650  220.9540 C   0  0  0  0  0  0  0  0  0  0  0  0
  144.7920   74.6090  220.4460 C   0  0  0  0  0  0  0  0  0  0  0  0
  139.9120   71.2340  223.6070 C   0  0  0  0  0  0  0  0  0  0  0  0
  139.4900   69.9260  223.7170 C   0  0  0  0  0  0  0  0  0  0  0  0
  139.6070   69.3270  224.9550 C   0  0  0  0  0  0  0  0  0  0  0  0
  140.1320   70.0350  226.0370 C   0  0  0  0  0  0  0  0  0  0  0  0
  140.2590   69.4560  227.2860 C   0  0  0  0  0  0  0  0  0  0  0  0
  140.7920   70.2110  228.3290 C   0  0  0  0  0  0  0  0  0  0  0  0
  141.1980   71.5030  228.1810 C   0  0  0  0  0  0  0  0  0  0  0  0
  141.0700   72.0840  226.9220 C   0  0  0  0  0  0  0  0  0  0  0  0
  140.5430   71.3380  225.8860 C   0  0  0  0  0  0  0  0  0  0  0  0
  140.4150   71.8920  224.6670 N   0  0  0  0  0  0  0  0  0  0  0  0
  139.5140   73.7690  223.1180 H   0  0  0  0  0  0  0  0  0  0  0  0
  140.2500   73.3669  220.3005 H   0  0  0  0  0  0  0  0  0  0  0  0
  138.4148   73.5853  220.6062 H   0  0  0  0  0  0  0  0  0  0  0  0
  139.1373   77.2178  222.8037 H   0  0  0  0  0  0  0  0  0  0  0  0
  140.3553   76.1255  223.4804 H   0  0  0  0  0  0  0  0  0  0  0  0
  140.7379   78.9045  223.2092 H   0  0  0  0  0  0  0  0  0  0  0  0
  142.0878   77.8178  223.2805 H   0  0  0  0  0  0  0  0  0  0  0  0
  140.5117   78.7377  220.7224 H   0  0  0  0  0  0  0  0  0  0  0  0
  142.2006   78.9401  220.9199 H   0  0  0  0  0  0  0  0  0  0  0  0
  142.4424   76.3331  221.2063 H   0  0  0  0  0  0  0  0  0  0  0  0
  141.2334   75.7151  219.0180 H   0  0  0  0  0  0  0  0  0  0  0  0
  141.5905   77.4397  218.7721 H   0  0  0  0  0  0  0  0  0  0  0  0
  143.6628   76.2802  218.2436 H   0  0  0  0  0  0  0  0  0  0  0  0
  143.9134   76.9406  219.8950 H   0  0  0  0  0  0  0  0  0  0  0  0
  141.6656   74.0079  219.1740 H   0  0  0  0  0  0  0  0  0  0  0  0
  142.2349   71.7730  220.0991 H   0  0  0  0  0  0  0  0  0  0  0  0
  144.3881   71.3465  221.2232 H   0  0  0  0  0  0  0  0  0  0  0  0
  146.0581   73.1841  221.4537 H   0  0  0  0  0  0  0  0  0  0  0  0
  145.5198   75.4282  220.5421 H   0  0  0  0  0  0  0  0  0  0  0  0
  139.0774   69.3826  222.8542 H   0  0  0  0  0  0  0  0  0  0  0  0
  139.2841   68.2841  225.0897 H   0  0  0  0  0  0  0  0  0  0  0  0
  139.9442   68.4155  227.4539 H   0  0  0  0  0  0  0  0  0  0  0  0
  140.8896   69.7414  229.3189 H   0  0  0  0  0  0  0  0  0  0  0  0
  141.6132   72.0686  229.0282 H   0  0  0  0  0  0  0  0  0  0  0  0
  141.3848   73.1246  226.7546 H   0  0  0  0  0  0  0  0  0  0  0  0
  1  2  2  0
  2  3  1  0
  3  4  1  0
  4  5  1  0
  5  6  2  0
  5  7  1  0
  7  8  1  0
  8  9  1  0
  9 10  1  0
 10 11  1  0
 11 12  1  0
 12 13  1  0
 13 14  1  0
 14 15  2  0
 15 16  1  0
 16 17  2  0
 17 18  1  0
 18 19  2  0
  2 20  1  0
 20 21  2  0
 21 22  1  0
 22 23  2  0
 23 24  1  0
 24 25  2  0
 25 26  1  0
 26 27  2  0
 27 28  1  0
 28 29  2  0
 11  7  1  0
 19 14  1  0
 29 20  1  0
 28 23  1  0
  3 30  1  0
  4 31  1  0
  4 32  1  0
  8 33  1  0
  8 34  1  0
  9 35  1  0
  9 36  1  0
 10 37  1  0
 10 38  1  0
 11 39  1  1
 12 40  1  0
 12 41  1  0
 13 42  1  0
 13 43  1  0
 15 44  1  0
 16 45  1  0
 17 46  1  0
 18 47  1  0
 19 48  1  0
 21 49  1  0
 22 50  1  0
 24 51  1  0
 25 52  1  0
 26 53  1  0
 27 54  1  0
M  END
>  <smiles>  (23) 
O=C(NCC(=O)N1CCCC1CCc1ccccc1)c1ccc2ccccc2n1

>  <score_type>  (23) 
oracle

>  <origin>  (23) 
autodockgpu

>  <m_score__min__energy>  (23) 
-9.2100000000000009

>  <m_primary>  (23) 
energy

>  <rmsd>  (23) 
2.196669095926478

>  <m_score__min__rmsd>  (23) 
2.196669095926478

>  <meeko>  (23) 
{"free_energy": -8.28, "intermolecular_energy": -10.36, "internal_energy": -2.1, "cluster_size": 5, "cluster_id": 3, "rank_in_cluster": 2}

>  <energy>  (23) 
-9.08

>  <cluster_rmsd>  (23) 
0.72

>  <cluster>  (23) 
2

$$$$

     RDKit          3D

 54 57  0  0  0  0  0  0  0  0999 V2000
  141.3020   72.2000  221.9230 O   0  0  0  0  0  0  0  0  0  0  0  0
  140.2930   72.1860  222.6750 C   0  0  0  0  0  0  0  0  0  0  0  0
  139.2430   73.1590  222.3990 N   0  0  0  0  0  0  0  0  0  0  0  0
  139.4830   74.0250  221.2970 C   0  0  0  0  0  0  0  0  0  0  0  0
  140.6220   74.9450  221.3450 C   0  0  0  0  0  0  0  0  0  0  0  0
  140.5550   75.7840  222.3410 O   0  0  0  0  0  0  0  0  0  0  0  0
  141.7350   75.0540  220.5070 N   0  0  0  0  0  0  0  0  0  0  0  0
  142.9250   74.1990  220.3880 C   0  0  0  0  0  0  0  0  0  0  0  0
  143.9180   74.9790  219.5020 C   0  0  0  0  0  0  0  0  0  0  0  0
  143.3830   76.4200  219.6780 C   0  0  0  0  0  0  0  0  0  0  0  0
  141.9170   76.0930  219.5080 C   0  0  2  0  0  0  0  0  0  0  0  0
  140.9930   77.2370  219.5430 C   0  0  0  0  0  0  0  0  0  0  0  0
  141.8250   78.4760  219.9430 C   0  0  0  0  0  0  0  0  0  0  0  0
  141.5450   78.8230  221.3670 C   0  0  0  0  0  0  0  0  0  0  0  0
  142.5280   79.2980  222.2210 C   0  0  0  0  0  0  0  0  0  0  0  0
  142.1460   79.5850  223.5180 C   0  0  0  0  0  0  0  0  0  0  0  0
  140.8460   79.4140  223.9680 C   0  0  0  0  0  0  0  0  0  0  0  0
  139.8770   78.9390  223.1050 C   0  0  0  0  0  0  0  0  0  0  0  0
  140.2310   78.6450  221.8070 C   0  0  0  0  0  0  0  0  0  0  0  0
  140.1310   71.2580  223.7860 C   0  0  0  0  0  0  0  0  0  0  0  0
  139.4320   70.0970  223.5330 C   0  0  0  0  0  0  0  0  0  0  0  0
  139.2750   69.2140  224.5820 C   0  0  0  0  0  0  0  0  0  0  0  0
  139.8100   69.5040  225.8380 C   0  0  0  0  0  0  0  0  0  0  0  0
  139.6660   68.6350  226.9030 C   0  0  0  0  0  0  0  0  0  0  0  0
  140.2220   68.9770  228.1340 C   0  0  0  0  0  0  0  0  0  0  0  0
  140.9080   70.1360  228.3450 C   0  0  0  0  0  0  0  0  0  0  0  0
  141.0520   71.0100  227.2700 C   0  0  0  0  0  0  0  0  0  0  0  0
  140.5020   70.6730  226.0490 C   0  0  0  0  0  0  0  0  0  0  0  0
  140.6370   71.5120  225.0060 N   0  0  0  0  0  0  0  0  0  0  0  0
  138.4510   73.1140  223.0420 H   0  0  0  0  0  0  0  0  0  0  0  0
  139.6223   73.3872  220.4116 H   0  0  0  0  0  0  0  0  0  0  0  0
  138.6083   74.6920  221.2936 H   0  0  0  0  0  0  0  0  0  0  0  0
  143.3624   74.0116  221.3797 H   0  0  0  0  0  0  0  0  0  0  0  0
  142.6773   73.2199  219.9522 H   0  0  0  0  0  0  0  0  0  0  0  0
  144.9509   74.8820  219.8676 H   0  0  0  0  0  0  0  0  0  0  0  0
  143.9696   74.6339  218.4588 H   0  0  0  0  0  0  0  0  0  0  0  0
  143.6094   76.8348  220.6713 H   0  0  0  0  0  0  0  0  0  0  0  0
  143.7983   77.1853  219.0059 H   0  0  0  0  0  0  0  0  0  0  0  0
  141.6515   75.7508  218.4969 H   0  0  0  0  0  0  0  0  0  0  0  0
  140.5417   77.3888  218.5514 H   0  0  0  0  0  0  0  0  0  0  0  0
  140.1781   77.0623  220.2609 H   0  0  0  0  0  0  0  0  0  0  0  0
  142.8955   78.2533  219.8233 H   0  0  0  0  0  0  0  0  0  0  0  0
  141.5533   79.3246  219.2980 H   0  0  0  0  0  0  0  0  0  0  0  0
  143.5648   79.4401  221.8820 H   0  0  0  0  0  0  0  0  0  0  0  0
  142.9030   79.9638  224.2205 H   0  0  0  0  0  0  0  0  0  0  0  0
  140.5865   79.6558  225.0093 H   0  0  0  0  0  0  0  0  0  0  0  0
  138.8415   78.7983  223.4486 H   0  0  0  0  0  0  0  0  0  0  0  0
  139.4705   78.2657  221.1087 H   0  0  0  0  0  0  0  0  0  0  0  0
  139.0169   69.8834  222.5370 H   0  0  0  0  0  0  0  0  0  0  0  0
  138.7241   68.2746  224.4270 H   0  0  0  0  0  0  0  0  0  0  0  0
  139.1206   67.6876  226.7807 H   0  0  0  0  0  0  0  0  0  0  0  0
  140.1017   68.2787  228.9754 H   0  0  0  0  0  0  0  0  0  0  0  0
  141.3336   70.3731  229.3312 H   0  0  0  0  0  0  0  0  0  0  0  0
  141.5974   71.9574  227.3922 H   0  0  0  0  0  0  0  0  0  0  0  0
  1  2  2  0
  2  3  1  0
  3  4  1  0
  4  5  1  0
  5  6  2  0
  5  7  1  0
  7  8  1  0
  8  9  1  0
  9 10  1  0
 10 11  1  0
 11 12  1  0
 12 13  1  0
 13 14  1  0
 14 15  2  0
 15 16  1  0
 16 17  2  0
 17 18  1  0
 18 19  2  0
  2 20  1  0
 20 21  2  0
 21 22  1  0
 22 23  2  0
 23 24  1  0
 24 25  2  0
 25 26  1  0
 26 27  2  0
 27 28  1  0
 28 29  2  0
 11  7  1  0
 19 14  1  0
 29 20  1  0
 28 23  1  0
  3 30  1  0
  4 31  1  0
  4 32  1  0
  8 33  1  0
  8 34  1  0
  9 35  1  0
  9 36  1  0
 10 37  1  0
 10 38  1  0
 11 39  1  6
 12 40  1  0
 12 41  1  0
 13 42  1  0
 13 43  1  0
 15 44  1  0
 16 45  1  0
 17 46  1  0
 18 47  1  0
 19 48  1  0
 21 49  1  0
 22 50  1  0
 24 51  1  0
 25 52  1  0
 26 53  1  0
 27 54  1  0
M  END
>  <smiles>  (24) 
O=C(NCC(=O)N1CCCC1CCc1ccccc1)c1ccc2ccccc2n1

>  <score_type>  (24) 
oracle

>  <origin>  (24) 
autodockgpu

>  <m_score__min__energy>  (24) 
-9.2100000000000009

>  <m_primary>  (24) 
energy

>  <rmsd>  (24) 
2.295080877677013

>  <m_score__min__rmsd>  (24) 
2.295080877677013

>  <meeko>  (24) 
{"free_energy": -8.9, "intermolecular_energy": -10.99, "internal_energy": -1.7, "cluster_size": 20, "cluster_id": 1, "rank_in_cluster": 10}

>  <energy>  (24) 
-8.97

>  <cluster_rmsd>  (24) 
1.35

>  <cluster>  (24) 
2

$$$$

     RDKit          3D

 54 57  0  0  0  0  0  0  0  0999 V2000
  139.2350   70.9980  221.3670 O   0  0  0  0  0  0  0  0  0  0  0  0
  139.4670   71.7000  222.3860 C   0  0  0  0  0  0  0  0  0  0  0  0
  139.4070   73.1480  222.2240 N   0  0  0  0  0  0  0  0  0  0  0  0
  139.0900   73.6070  220.9160 C   0  0  0  0  0  0  0  0  0  0  0  0
  139.5220   74.9440  220.5020 C   0  0  0  0  0  0  0  0  0  0  0  0
  139.2240   75.2120  219.2620 O   0  0  0  0  0  0  0  0  0  0  0  0
  140.1890   75.9420  221.2180 N   0  0  0  0  0  0  0  0  0  0  0  0
  139.8040   76.6490  222.4480 C   0  0  0  0  0  0  0  0  0  0  0  0
  140.7990   77.8210  222.5900 C   0  0  0  0  0  0  0  0  0  0  0  0
  141.2850   77.9570  221.1270 C   0  0  0  0  0  0  0  0  0  0  0  0
  141.4900   76.4820  220.8640 C   0  0  2  0  0  0  0  0  0  0  0  0
  142.0330   76.1330  219.5430 C   0  0  0  0  0  0  0  0  0  0  0  0
  143.5660   76.0240  219.7000 C   0  0  0  0  0  0  0  0  0  0  0  0
  143.9250   74.6340  220.1050 C   0  0  0  0  0  0  0  0  0  0  0  0
  145.2080   74.2840  220.4960 C   0  0  0  0  0  0  0  0  0  0  0  0
  145.4170   72.9640  220.8490 C   0  0  0  0  0  0  0  0  0  0  0  0
  144.4080   72.0150  220.8210 C   0  0  0  0  0  0  0  0  0  0  0  0
  143.1330   72.3780  220.4290 C   0  0  0  0  0  0  0  0  0  0  0  0
  142.8970   73.6880  220.0720 C   0  0  0  0  0  0  0  0  0  0  0  0
  139.7850   71.1410  223.6930 C   0  0  0  0  0  0  0  0  0  0  0  0
  139.5540   69.7940  223.8680 C   0  0  0  0  0  0  0  0  0  0  0  0
  139.8530   69.2580  225.1040 C   0  0  0  0  0  0  0  0  0  0  0  0
  140.3670   70.0650  226.1200 C   0  0  0  0  0  0  0  0  0  0  0  0
  140.6750   69.5510  227.3660 C   0  0  0  0  0  0  0  0  0  0  0  0
  141.1870   70.4040  228.3410 C   0  0  0  0  0  0  0  0  0  0  0  0
  141.4020   71.7330  228.1280 C   0  0  0  0  0  0  0  0  0  0  0  0
  141.0910   72.2490  226.8730 C   0  0  0  0  0  0  0  0  0  0  0  0
  140.5850   71.4050  225.9040 C   0  0  0  0  0  0  0  0  0  0  0  0
  140.2820   71.8960  224.6890 N   0  0  0  0  0  0  0  0  0  0  0  0
  139.6120   73.6730  223.0750 H   0  0  0  0  0  0  0  0  0  0  0  0
  139.5352   72.8922  220.2082 H   0  0  0  0  0  0  0  0  0  0  0  0
  137.9923   73.6782  220.9234 H   0  0  0  0  0  0  0  0  0  0  0  0
  138.7748   77.0284  222.3653 H   0  0  0  0  0  0  0  0  0  0  0  0
  139.8352   75.9837  223.3235 H   0  0  0  0  0  0  0  0  0  0  0  0
  140.3002   78.7372  222.9391 H   0  0  0  0  0  0  0  0  0  0  0  0
  141.5999   77.6558  223.3257 H   0  0  0  0  0  0  0  0  0  0  0  0
  140.5224   78.3998  220.4695 H   0  0  0  0  0  0  0  0  0  0  0  0
  142.1508   78.6132  220.9545 H   0  0  0  0  0  0  0  0  0  0  0  0
  142.3023   76.0326  221.4540 H   0  0  0  0  0  0  0  0  0  0  0  0
  141.6183   75.1715  219.2060 H   0  0  0  0  0  0  0  0  0  0  0  0
  141.7679   76.8952  218.7954 H   0  0  0  0  0  0  0  0  0  0  0  0
  144.0510   76.2640  218.7423 H   0  0  0  0  0  0  0  0  0  0  0  0
  143.9076   76.7310  220.4704 H   0  0  0  0  0  0  0  0  0  0  0  0
  146.0225   75.0228  220.5241 H   0  0  0  0  0  0  0  0  0  0  0  0
  146.4244   72.6548  221.1646 H   0  0  0  0  0  0  0  0  0  0  0  0
  144.6209   70.9752  221.1100 H   0  0  0  0  0  0  0  0  0  0  0  0
  142.3221   71.6352  220.4025 H   0  0  0  0  0  0  0  0  0  0  0  0
  141.8879   73.9925  219.7575 H   0  0  0  0  0  0  0  0  0  0  0  0
  139.1483   69.1720  223.0565 H   0  0  0  0  0  0  0  0  0  0  0  0
  139.6850   68.1869  225.2898 H   0  0  0  0  0  0  0  0  0  0  0  0
  140.5181   68.4843  227.5841 H   0  0  0  0  0  0  0  0  0  0  0  0
  141.4291   69.9855  229.3290 H   0  0  0  0  0  0  0  0  0  0  0  0
  141.8081   72.3769  228.9220 H   0  0  0  0  0  0  0  0  0  0  0  0
  141.2464   73.3161  226.6558 H   0  0  0  0  0  0  0  0  0  0  0  0
  1  2  2  0
  2  3  1  0
  3  4  1  0
  4  5  1  0
  5  6  2  0
  5  7  1  0
  7  8  1  0
  8  9  1  0
  9 10  1  0
 10 11  1  0
 11 12  1  0
 12 13  1  0
 13 14  1  0
 14 15  2  0
 15 16  1  0
 16 17  2  0
 17 18  1  0
 18 19  2  0
  2 20  1  0
 20 21  2  0
 21 22  1  0
 22 23  2  0
 23 24  1  0
 24 25  2  0
 25 26  1  0
 26 27  2  0
 27 28  1  0
 28 29  2  0
 11  7  1  0
 19 14  1  0
 29 20  1  0
 28 23  1  0
  3 30  1  0
  4 31  1  0
  4 32  1  0
  8 33  1  0
  8 34  1  0
  9 35  1  0
  9 36  1  0
 10 37  1  0
 10 38  1  0
 11 39  1  1
 12 40  1  0
 12 41  1  0
 13 42  1  0
 13 43  1  0
 15 44  1  0
 16 45  1  0
 17 46  1  0
 18 47  1  0
 19 48  1  0
 21 49  1  0
 22 50  1  0
 24 51  1  0
 25 52  1  0
 26 53  1  0
 27 54  1  0
M  END
>  <smiles>  (25) 
O=C(NCC(=O)N1CCCC1CCc1ccccc1)c1ccc2ccccc2n1

>  <score_type>  (25) 
oracle

>  <origin>  (25) 
autodockgpu

>  <m_score__min__energy>  (25) 
-9.2100000000000009

>  <m_primary>  (25) 
energy

>  <rmsd>  (25) 
2.236719500047349

>  <m_score__min__rmsd>  (25) 
2.236719500047349

>  <meeko>  (25) 
{"free_energy": -8.22, "intermolecular_energy": -10.31, "internal_energy": -2.04, "cluster_size": 5, "cluster_id": 3, "rank_in_cluster": 4}

>  <energy>  (25) 
-8.93

>  <cluster_rmsd>  (25) 
1.35

>  <cluster>  (25) 
2

$$$$

     RDKit          3D

 54 57  0  0  0  0  0  0  0  0999 V2000
  137.2330   76.4550  222.6450 O   0  0  0  0  0  0  0  0  0  0  0  0
  138.4650   76.6210  222.4530 C   0  0  0  0  0  0  0  0  0  0  0  0
  139.2020   75.5120  221.8570 N   0  0  0  0  0  0  0  0  0  0  0  0
  138.4320   74.3550  221.5580 C   0  0  0  0  0  0  0  0  0  0  0  0
  138.8270   73.0650  222.1290 C   0  0  0  0  0  0  0  0  0  0  0  0
  140.1060   72.9870  222.3700 O   0  0  0  0  0  0  0  0  0  0  0  0
  138.0590   71.9400  222.4430 N   0  0  0  0  0  0  0  0  0  0  0  0
  136.6210   71.6900  222.2680 C   0  0  0  0  0  0  0  0  0  0  0  0
  136.3200   70.3950  223.0520 C   0  0  0  0  0  0  0  0  0  0  0  0
  137.5200   70.3710  224.0290 C   0  0  0  0  0  0  0  0  0  0  0  0
  138.5880   70.7150  223.0160 C   0  0  2  0  0  0  0  0  0  0  0  0
  139.9690   70.7420  223.5200 C   0  0  0  0  0  0  0  0  0  0  0  0
  140.0340   69.7580  224.7090 C   0  0  0  0  0  0  0  0  0  0  0  0
  140.3300   70.5130  225.9610 C   0  0  0  0  0  0  0  0  0  0  0  0
  141.1150   71.6550  225.9710 C   0  0  0  0  0  0  0  0  0  0  0  0
  141.3160   72.2670  227.1930 C   0  0  0  0  0  0  0  0  0  0  0  0
  140.7700   71.7810  228.3700 C   0  0  0  0  0  0  0  0  0  0  0  0
  139.9890   70.6410  228.3460 C   0  0  0  0  0  0  0  0  0  0  0  0
  139.7720   70.0110  227.1400 C   0  0  0  0  0  0  0  0  0  0  0  0
  139.1740   77.8470  222.7930 C   0  0  0  0  0  0  0  0  0  0  0  0
  138.4070   78.9250  223.1800 C   0  0  0  0  0  0  0  0  0  0  0  0
  139.0730   80.0900  223.5030 C   0  0  0  0  0  0  0  0  0  0  0  0
  140.4650   80.1520  223.4340 C   0  0  0  0  0  0  0  0  0  0  0  0
  141.1540   81.3080  223.7530 C   0  0  0  0  0  0  0  0  0  0  0  0
  142.5440   81.3110  223.6650 C   0  0  0  0  0  0  0  0  0  0  0  0
  143.2690   80.2230  223.2770 C   0  0  0  0  0  0  0  0  0  0  0  0
  142.5730   79.0610  222.9570 C   0  0  0  0  0  0  0  0  0  0  0  0
  141.1950   79.0540  223.0430 C   0  0  0  0  0  0  0  0  0  0  0  0
  140.5150   77.9350  222.7350 N   0  0  0  0  0  0  0  0  0  0  0  0
  140.1990   75.6920  221.7310 H   0  0  0  0  0  0  0  0  0  0  0  0
  137.4053   74.5558  221.8980 H   0  0  0  0  0  0  0  0  0  0  0  0
  138.5772   74.2171  220.4764 H   0  0  0  0  0  0  0  0  0  0  0  0
  136.0346   72.5279  222.6731 H   0  0  0  0  0  0  0  0  0  0  0  0
  136.3540   71.5910  221.2055 H   0  0  0  0  0  0  0  0  0  0  0  0
  135.3614   70.4582  223.5878 H   0  0  0  0  0  0  0  0  0  0  0  0
  136.2189   69.4947  222.4282 H   0  0  0  0  0  0  0  0  0  0  0  0
  137.4324   71.1283  224.8220 H   0  0  0  0  0  0  0  0  0  0  0  0
  137.6675   69.4459  224.6055 H   0  0  0  0  0  0  0  0  0  0  0  0
  138.7496   69.9358  222.2565 H   0  0  0  0  0  0  0  0  0  0  0  0
  140.6660   70.4264  222.7297 H   0  0  0  0  0  0  0  0  0  0  0  0
  140.2529   71.7572  223.8341 H   0  0  0  0  0  0  0  0  0  0  0  0
  139.0681   69.2417  224.8114 H   0  0  0  0  0  0  0  0  0  0  0  0
  140.8274   69.0173  224.5302 H   0  0  0  0  0  0  0  0  0  0  0  0
  141.5581   72.0560  225.0475 H   0  0  0  0  0  0  0  0  0  0  0  0
  141.9340   73.1761  227.2332 H   0  0  0  0  0  0  0  0  0  0  0  0
  140.9576   72.3011  229.3210 H   0  0  0  0  0  0  0  0  0  0  0  0
  139.5488   70.2440  229.2726 H   0  0  0  0  0  0  0  0  0  0  0  0
  139.1526   69.1027  227.1047 H   0  0  0  0  0  0  0  0  0  0  0  0
  137.3101   78.8595  223.2293 H   0  0  0  0  0  0  0  0  0  0  0  0
  138.5020   80.9761  223.8172 H   0  0  0  0  0  0  0  0  0  0  0  0
  140.6126   82.2111  224.0713 H   0  0  0  0  0  0  0  0  0  0  0  0
  143.0829   82.2352  223.9207 H   0  0  0  0  0  0  0  0  0  0  0  0
  144.3668   80.2625  223.2189 H   0  0  0  0  0  0  0  0  0  0  0  0
  143.1148   78.1580  222.6391 H   0  0  0  0  0  0  0  0  0  0  0  0
  1  2  2  0
  2  3  1  0
  3  4  1  0
  4  5  1  0
  5  6  2  0
  5  7  1  0
  7  8  1  0
  8  9  1  0
  9 10  1  0
 10 11  1  0
 11 12  1  0
 12 13  1  0
 13 14  1  0
 14 15  2  0
 15 16  1  0
 16 17  2  0
 17 18  1  0
 18 19  2  0
  2 20  1  0
 20 21  2  0
 21 22  1  0
 22 23  2  0
 23 24  1  0
 24 25  2  0
 25 26  1  0
 26 27  2  0
 27 28  1  0
 28 29  2  0
 11  7  1  0
 19 14  1  0
 29 20  1  0
 28 23  1  0
  3 30  1  0
  4 31  1  0
  4 32  1  0
  8 33  1  0
  8 34  1  0
  9 35  1  0
  9 36  1  0
 10 37  1  0
 10 38  1  0
 11 39  1  6
 12 40  1  0
 12 41  1  0
 13 42  1  0
 13 43  1  0
 15 44  1  0
 16 45  1  0
 17 46  1  0
 18 47  1  0
 19 48  1  0
 21 49  1  0
 22 50  1  0
 24 51  1  0
 25 52  1  0
 26 53  1  0
 27 54  1  0
M  END
>  <smiles>  (26) 
O=C(NCC(=O)N1CCCC1CCc1ccccc1)c1ccc2ccccc2n1

>  <score_type>  (26) 
oracle

>  <origin>  (26) 
autodockgpu

>  <m_score__min__energy>  (26) 
-9.2100000000000009

>  <m_primary>  (26) 
energy

>  <rmsd>  (26) 
8.483760619130726

>  <m_score__min__rmsd>  (26) 
8.483760619130726

>  <meeko>  (26) 
{"free_energy": -8.7, "intermolecular_energy": -10.79, "internal_energy": -1.39, "cluster_size": 22, "cluster_id": 2, "rank_in_cluster": 8}

>  <energy>  (26) 
-8.79

>  <cluster_rmsd>  (26) 
0.61

>  <cluster>  (26) 
2

$$$$

     RDKit          3D

 54 57  0  0  0  0  0  0  0  0999 V2000
  138.9800   71.2720  221.4670 O   0  0  0  0  0  0  0  0  0  0  0  0
  139.7310   71.6060  222.4200 C   0  0  0  0  0  0  0  0  0  0  0  0
  140.5740   72.7790  222.2230 N   0  0  0  0  0  0  0  0  0  0  0  0
  140.4500   73.4190  220.9580 C   0  0  0  0  0  0  0  0  0  0  0  0
  139.3540   74.3660  220.7400 C   0  0  0  0  0  0  0  0  0  0  0  0
  138.8460   74.2860  219.5420 O   0  0  0  0  0  0  0  0  0  0  0  0
  138.7920   75.3140  221.5990 N   0  0  0  0  0  0  0  0  0  0  0  0
  137.3910   75.5340  221.9870 C   0  0  0  0  0  0  0  0  0  0  0  0
  137.3670   76.8870  222.7300 C   0  0  0  0  0  0  0  0  0  0  0  0
  138.6680   77.5280  222.1910 C   0  0  0  0  0  0  0  0  0  0  0  0
  139.5480   76.3080  222.3390 C   0  0  2  0  0  0  0  0  0  0  0  0
  140.9640   76.4880  221.9820 C   0  0  0  0  0  0  0  0  0  0  0  0
  141.0650   77.8150  221.1970 C   0  0  0  0  0  0  0  0  0  0  0  0
  141.5290   78.8980  222.1120 C   0  0  0  0  0  0  0  0  0  0  0  0
  141.7830   78.6750  223.4550 C   0  0  0  0  0  0  0  0  0  0  0  0
  142.2090   79.7580  224.2010 C   0  0  0  0  0  0  0  0  0  0  0  0
  142.3810   81.0200  223.6530 C   0  0  0  0  0  0  0  0  0  0  0  0
  142.1230   81.2270  222.3110 C   0  0  0  0  0  0  0  0  0  0  0  0
  141.6970   80.1650  221.5450 C   0  0  0  0  0  0  0  0  0  0  0  0
  139.7930   70.8880  223.6860 C   0  0  0  0  0  0  0  0  0  0  0  0
  139.2430   69.6250  223.7140 C   0  0  0  0  0  0  0  0  0  0  0  0
  139.2980   68.9390  224.9100 C   0  0  0  0  0  0  0  0  0  0  0  0
  139.8900   69.5200  226.0320 C   0  0  0  0  0  0  0  0  0  0  0  0
  139.9570   68.8530  227.2410 C   0  0  0  0  0  0  0  0  0  0  0  0
  140.5610   69.4820  228.3270 C   0  0  0  0  0  0  0  0  0  0  0  0
  141.0940   70.7350  228.2600 C   0  0  0  0  0  0  0  0  0  0  0  0
  141.0250   71.4050  227.0410 C   0  0  0  0  0  0  0  0  0  0  0  0
  140.4280   70.7840  225.9630 C   0  0  0  0  0  0  0  0  0  0  0  0
  140.3570   71.4240  224.7820 N   0  0  0  0  0  0  0  0  0  0  0  0
  141.1720   73.0040  223.0190 H   0  0  0  0  0  0  0  0  0  0  0  0
  141.3876   73.9666  220.7817 H   0  0  0  0  0  0  0  0  0  0  0  0
  140.2225   72.5928  220.2683 H   0  0  0  0  0  0  0  0  0  0  0  0
  136.7486   75.5755  221.0950 H   0  0  0  0  0  0  0  0  0  0  0  0
  137.0138   74.7178  222.6206 H   0  0  0  0  0  0  0  0  0  0  0  0
  136.4807   77.4812  222.4630 H   0  0  0  0  0  0  0  0  0  0  0  0
  137.3153   76.8072  223.8259 H   0  0  0  0  0  0  0  0  0  0  0  0
  138.5742   77.8551  221.1449 H   0  0  0  0  0  0  0  0  0  0  0  0
  139.0095   78.4457  222.6922 H   0  0  0  0  0  0  0  0  0  0  0  0
  139.7207   76.0076  223.3830 H   0  0  0  0  0  0  0  0  0  0  0  0
  141.5798   76.5393  222.8920 H   0  0  0  0  0  0  0  0  0  0  0  0
  141.3273   75.6444  221.3767 H   0  0  0  0  0  0  0  0  0  0  0  0
  141.7828   77.6994  220.3716 H   0  0  0  0  0  0  0  0  0  0  0  0
  140.0775   78.0766  220.7891 H   0  0  0  0  0  0  0  0  0  0  0  0
  141.6517   77.6811  223.9076 H   0  0  0  0  0  0  0  0  0  0  0  0
  142.4197   79.6130  225.2709 H   0  0  0  0  0  0  0  0  0  0  0  0
  142.7217   81.8539  224.2843 H   0  0  0  0  0  0  0  0  0  0  0  0
  142.2557   82.2227  221.8627 H   0  0  0  0  0  0  0  0  0  0  0  0
  141.4867   80.3150  220.4758 H   0  0  0  0  0  0  0  0  0  0  0  0
  138.7794   69.1820  222.8202 H   0  0  0  0  0  0  0  0  0  0  0  0
  138.8722   67.9271  224.9794 H   0  0  0  0  0  0  0  0  0  0  0  0
  139.5395   67.8405  227.3438 H   0  0  0  0  0  0  0  0  0  0  0  0
  140.6103   68.9422  229.2842 H   0  0  0  0  0  0  0  0  0  0  0  0
  141.5628   71.2011  229.1392 H   0  0  0  0  0  0  0  0  0  0  0  0
  141.4417   72.4179  226.9387 H   0  0  0  0  0  0  0  0  0  0  0  0
  1  2  2  0
  2  3  1  0
  3  4  1  0
  4  5  1  0
  5  6  2  0
  5  7  1  0
  7  8  1  0
  8  9  1  0
  9 10  1  0
 10 11  1  0
 11 12  1  0
 12 13  1  0
 13 14  1  0
 14 15  2  0
 15 16  1  0
 16 17  2  0
 17 18  1  0
 18 19  2  0
  2 20  1  0
 20 21  2  0
 21 22  1  0
 22 23  2  0
 23 24  1  0
 24 25  2  0
 25 26  1  0
 26 27  2  0
 27 28  1  0
 28 29  2  0
 11  7  1  0
 19 14  1  0
 29 20  1  0
 28 23  1  0
  3 30  1  0
  4 31  1  0
  4 32  1  0
  8 33  1  0
  8 34  1  0
  9 35  1  0
  9 36  1  0
 10 37  1  0
 10 38  1  0
 11 39  1  1
 12 40  1  0
 12 41  1  0
 13 42  1  0
 13 43  1  0
 15 44  1  0
 16 45  1  0
 17 46  1  0
 18 47  1  0
 19 48  1  0
 21 49  1  0
 22 50  1  0
 24 51  1  0
 25 52  1  0
 26 53  1  0
 27 54  1  0
M  END
>  <smiles>  (27) 
O=C(NCC(=O)N1CCCC1CCc1ccccc1)c1ccc2ccccc2n1

>  <score_type>  (27) 
oracle

>  <origin>  (27) 
autodockgpu

>  <m_score__min__energy>  (27) 
-9.2100000000000009

>  <m_primary>  (27) 
energy

>  <rmsd>  (27) 
2.7019279965451704

>  <m_score__min__rmsd>  (27) 
2.7019279965451704

>  <meeko>  (27) 
{"free_energy": -8.22, "intermolecular_energy": -10.31, "internal_energy": -1.7, "cluster_size": 20, "cluster_id": 1, "rank_in_cluster": 19}

>  <energy>  (27) 
-8.72

>  <cluster_rmsd>  (27) 
1.76

>  <cluster>  (27) 
2

$$$$

     RDKit          3D

 54 57  0  0  0  0  0  0  0  0999 V2000
  140.5190   71.2950  221.3090 O   0  0  0  0  0  0  0  0  0  0  0  0
  140.1470   71.8210  222.3910 C   0  0  0  0  0  0  0  0  0  0  0  0
  139.7340   73.2190  222.3440 N   0  0  0  0  0  0  0  0  0  0  0  0
  139.8000   73.8350  221.0640 C   0  0  0  0  0  0  0  0  0  0  0  0
  141.0270   74.5310  220.6670 C   0  0  0  0  0  0  0  0  0  0  0  0
  142.1000   73.8150  220.8540 O   0  0  0  0  0  0  0  0  0  0  0  0
  141.2100   75.8110  220.1350 N   0  0  0  0  0  0  0  0  0  0  0  0
  141.6450   76.2310  218.7950 C   0  0  0  0  0  0  0  0  0  0  0  0
  141.9240   77.7450  218.8970 C   0  0  0  0  0  0  0  0  0  0  0  0
  142.1400   77.8900  220.4230 C   0  0  0  0  0  0  0  0  0  0  0  0
  140.9610   77.0470  220.8550 C   0  0  2  0  0  0  0  0  0  0  0  0
  140.7330   76.9540  222.3050 C   0  0  0  0  0  0  0  0  0  0  0  0
  139.7850   78.1120  222.6870 C   0  0  0  0  0  0  0  0  0  0  0  0
  140.5850   79.3460  222.9370 C   0  0  0  0  0  0  0  0  0  0  0  0
  140.1720   80.5970  222.5080 C   0  0  0  0  0  0  0  0  0  0  0  0
  140.9990   81.6650  222.8000 C   0  0  0  0  0  0  0  0  0  0  0  0
  142.1920   81.5180  223.4890 C   0  0  0  0  0  0  0  0  0  0  0  0
  142.5920   80.2640  223.9110 C   0  0  0  0  0  0  0  0  0  0  0  0
  141.7860   79.1820  223.6330 C   0  0  0  0  0  0  0  0  0  0  0  0
  140.1120   71.1090  223.6610 C   0  0  0  0  0  0  0  0  0  0  0  0
  139.5700   69.8420  223.6520 C   0  0  0  0  0  0  0  0  0  0  0  0
  139.5330   69.1630  224.8530 C   0  0  0  0  0  0  0  0  0  0  0  0
  140.0300   69.7530  226.0150 C   0  0  0  0  0  0  0  0  0  0  0  0
  140.0050   69.0920  227.2290 C   0  0  0  0  0  0  0  0  0  0  0  0
  140.5160   69.7310  228.3570 C   0  0  0  0  0  0  0  0  0  0  0  0
  141.0450   70.9870  228.3250 C   0  0  0  0  0  0  0  0  0  0  0  0
  141.0690   71.6510  227.1020 C   0  0  0  0  0  0  0  0  0  0  0  0
  140.5640   71.0200  225.9830 C   0  0  0  0  0  0  0  0  0  0  0  0
  140.5840   71.6550  224.7960 N   0  0  0  0  0  0  0  0  0  0  0  0
  139.4520   73.6020  223.2460 H   0  0  0  0  0  0  0  0  0  0  0  0
  139.6227   73.0460  220.3183 H   0  0  0  0  0  0  0  0  0  0  0  0
  139.0510   74.6385  221.1219 H   0  0  0  0  0  0  0  0  0  0  0  0
  142.5585   75.6923  218.5028 H   0  0  0  0  0  0  0  0  0  0  0  0
  140.8811   76.0111  218.0347 H   0  0  0  0  0  0  0  0  0  0  0  0
  142.8225   78.0314  218.3307 H   0  0  0  0  0  0  0  0  0  0  0  0
  141.1315   78.3860  218.4833 H   0  0  0  0  0  0  0  0  0  0  0  0
  143.1015   77.4704  220.7540 H   0  0  0  0  0  0  0  0  0  0  0  0
  142.1847   78.9151  220.8194 H   0  0  0  0  0  0  0  0  0  0  0  0
  139.9838   77.4854  220.6041 H   0  0  0  0  0  0  0  0  0  0  0  0
  140.2691   75.9881  222.5535 H   0  0  0  0  0  0  0  0  0  0  0  0
  141.6817   77.0242  222.8573 H   0  0  0  0  0  0  0  0  0  0  0  0
  139.0777   78.2937  221.8644 H   0  0  0  0  0  0  0  0  0  0  0  0
  139.2275   77.8452  223.5969 H   0  0  0  0  0  0  0  0  0  0  0  0
  139.2283   80.7340  221.9596 H   0  0  0  0  0  0  0  0  0  0  0  0
  140.6983   82.6712  222.4726 H   0  0  0  0  0  0  0  0  0  0  0  0
  142.8191   82.3968  223.6996 H   0  0  0  0  0  0  0  0  0  0  0  0
  143.5367   80.1324  224.4589 H   0  0  0  0  0  0  0  0  0  0  0  0
  142.0909   78.1778  223.9624 H   0  0  0  0  0  0  0  0  0  0  0  0
  139.1831   69.3908  222.7264 H   0  0  0  0  0  0  0  0  0  0  0  0
  139.1084   68.1491  224.8941 H   0  0  0  0  0  0  0  0  0  0  0  0
  139.5880   68.0768  227.3034 H   0  0  0  0  0  0  0  0  0  0  0  0
  140.4914   69.1969  229.3183 H   0  0  0  0  0  0  0  0  0  0  0  0
  141.4400   71.4603  229.2360 H   0  0  0  0  0  0  0  0  0  0  0  0
  141.4854   72.6664  227.0281 H   0  0  0  0  0  0  0  0  0  0  0  0
  1  2  2  0
  2  3  1  0
  3  4  1  0
  4  5  1  0
  5  6  2  0
  5  7  1  0
  7  8  1  0
  8  9  1  0
  9 10  1  0
 10 11  1  0
 11 12  1  0
 12 13  1  0
 13 14  1  0
 14 15  2  0
 15 16  1  0
 16 17  2  0
 17 18  1  0
 18 19  2  0
  2 20  1  0
 20 21  2  0
 21 22  1  0
 22 23  2  0
 23 24  1  0
 24 25  2  0
 25 26  1  0
 26 27  2  0
 27 28  1  0
 28 29  2  0
 11  7  1  0
 19 14  1  0
 29 20  1  0
 28 23  1  0
  3 30  1  0
  4 31  1  0
  4 32  1  0
  8 33  1  0
  8 34  1  0
  9 35  1  0
  9 36  1  0
 10 37  1  0
 10 38  1  0
 11 39  1  6
 12 40  1  0
 12 41  1  0
 13 42  1  0
 13 43  1  0
 15 44  1  0
 16 45  1  0
 17 46  1  0
 18 47  1  0
 19 48  1  0
 21 49  1  0
 22 50  1  0
 24 51  1  0
 25 52  1  0
 26 53  1  0
 27 54  1  0
M  END
>  <smiles>  (28) 
O=C(NCC(=O)N1CCCC1CCc1ccccc1)c1ccc2ccccc2n1

>  <score_type>  (28) 
oracle

>  <origin>  (28) 
autodockgpu

>  <m_score__min__energy>  (28) 
-9.2100000000000009

>  <m_primary>  (28) 
energy

>  <rmsd>  (28) 
2.5854400555881853

>  <m_score__min__rmsd>  (28) 
2.5854400555881853

>  <meeko>  (28) 
{"free_energy": -8.95, "intermolecular_energy": -11.04, "internal_energy": -1.52, "cluster_size": 20, "cluster_id": 1, "rank_in_cluster": 7}

>  <energy>  (28) 
-8.7

>  <cluster_rmsd>  (28) 
1.49

>  <cluster>  (28) 
2

$$$$

     RDKit          3D

 54 57  0  0  0  0  0  0  0  0999 V2000
  140.7170   71.4630  221.2860 O   0  0  0  0  0  0  0  0  0  0  0  0
  140.2970   72.0170  222.3350 C   0  0  0  0  0  0  0  0  0  0  0  0
  139.9020   73.4180  222.2360 N   0  0  0  0  0  0  0  0  0  0  0  0
  140.0400   74.0040  220.9480 C   0  0  0  0  0  0  0  0  0  0  0  0
  141.1980   74.8570  220.6700 C   0  0  0  0  0  0  0  0  0  0  0  0
  142.3090   74.3770  221.1550 O   0  0  0  0  0  0  0  0  0  0  0  0
  141.2850   76.0710  219.9840 N   0  0  0  0  0  0  0  0  0  0  0  0
  142.0280   76.4260  218.7660 C   0  0  0  0  0  0  0  0  0  0  0  0
  141.9580   77.9640  218.6610 C   0  0  0  0  0  0  0  0  0  0  0  0
  141.6500   78.3330  220.1320 C   0  0  0  0  0  0  0  0  0  0  0  0
  140.5850   77.2850  220.3640 C   0  0  2  0  0  0  0  0  0  0  0  0
  139.9350   77.3090  221.6840 C   0  0  0  0  0  0  0  0  0  0  0  0
  141.0610   77.3750  222.7390 C   0  0  0  0  0  0  0  0  0  0  0  0
  141.2880   78.7950  223.1350 C   0  0  0  0  0  0  0  0  0  0  0  0
  140.2480   79.6450  223.4760 C   0  0  0  0  0  0  0  0  0  0  0  0
  140.5850   80.9390  223.8260 C   0  0  0  0  0  0  0  0  0  0  0  0
  141.8950   81.3910  223.8410 C   0  0  0  0  0  0  0  0  0  0  0  0
  142.9220   80.5320  223.4980 C   0  0  0  0  0  0  0  0  0  0  0  0
  142.6140   79.2370  223.1450 C   0  0  0  0  0  0  0  0  0  0  0  0
  140.1890   71.3350  223.6170 C   0  0  0  0  0  0  0  0  0  0  0  0
  139.5680   70.1040  223.6190 C   0  0  0  0  0  0  0  0  0  0  0  0
  139.4630   69.4530  224.8320 C   0  0  0  0  0  0  0  0  0  0  0  0
  139.9710   70.0340  225.9940 C   0  0  0  0  0  0  0  0  0  0  0  0
  139.8770   69.4000  227.2190 C   0  0  0  0  0  0  0  0  0  0  0  0
  140.4030   70.0280  228.3460 C   0  0  0  0  0  0  0  0  0  0  0  0
  141.0110   71.2480  228.3030 C   0  0  0  0  0  0  0  0  0  0  0  0
  141.1040   71.8840  227.0680 C   0  0  0  0  0  0  0  0  0  0  0  0
  140.5840   71.2640  225.9500 C   0  0  0  0  0  0  0  0  0  0  0  0
  140.6700   71.8720  224.7530 N   0  0  0  0  0  0  0  0  0  0  0  0
  139.5780   73.8240  223.1140 H   0  0  0  0  0  0  0  0  0  0  0  0
  140.0670   73.1789  220.2210 H   0  0  0  0  0  0  0  0  0  0  0  0
  139.1858   74.6939  220.8823 H   0  0  0  0  0  0  0  0  0  0  0  0
  143.0740   76.0952  218.8458 H   0  0  0  0  0  0  0  0  0  0  0  0
  141.6005   75.9406  217.8763 H   0  0  0  0  0  0  0  0  0  0  0  0
  142.9144   78.3922  218.3265 H   0  0  0  0  0  0  0  0  0  0  0  0
  141.2266   78.3409  217.9309 H   0  0  0  0  0  0  0  0  0  0  0  0
  142.5212   78.2010  220.7905 H   0  0  0  0  0  0  0  0  0  0  0  0
  141.3653   79.3771  220.3291 H   0  0  0  0  0  0  0  0  0  0  0  0
  139.6708   77.4406  219.7724 H   0  0  0  0  0  0  0  0  0  0  0  0
  139.2849   78.1922  221.7692 H   0  0  0  0  0  0  0  0  0  0  0  0
  139.3104   76.4155  221.8310 H   0  0  0  0  0  0  0  0  0  0  0  0
  140.7696   76.7897  223.6236 H   0  0  0  0  0  0  0  0  0  0  0  0
  141.9869   76.9602  222.3139 H   0  0  0  0  0  0  0  0  0  0  0  0
  139.2018   79.3053  223.4685 H   0  0  0  0  0  0  0  0  0  0  0  0
  139.7818   81.6375  224.1036 H   0  0  0  0  0  0  0  0  0  0  0  0
  142.1168   82.4303  224.1250 H   0  0  0  0  0  0  0  0  0  0  0  0
  143.9666   80.8765  223.5068 H   0  0  0  0  0  0  0  0  0  0  0  0
  143.4207   78.5425  222.8678 H   0  0  0  0  0  0  0  0  0  0  0  0
  139.1730   69.6595  222.6936 H   0  0  0  0  0  0  0  0  0  0  0  0
  138.9749   68.4685  224.8825 H   0  0  0  0  0  0  0  0  0  0  0  0
  139.3944   68.4150  227.3026 H   0  0  0  0  0  0  0  0  0  0  0  0
  140.3242   69.5156  229.3162 H   0  0  0  0  0  0  0  0  0  0  0  0
  141.4146   71.7141  229.2140 H   0  0  0  0  0  0  0  0  0  0  0  0
  141.5863   72.8691  226.9843 H   0  0  0  0  0  0  0  0  0  0  0  0
  1  2  2  0
  2  3  1  0
  3  4  1  0
  4  5  1  0
  5  6  2  0
  5  7  1  0
  7  8  1  0
  8  9  1  0
  9 10  1  0
 10 11  1  0
 11 12  1  0
 12 13  1  0
 13 14  1  0
 14 15  2  0
 15 16  1  0
 16 17  2  0
 17 18  1  0
 18 19  2  0
  2 20  1  0
 20 21  2  0
 21 22  1  0
 22 23  2  0
 23 24  1  0
 24 25  2  0
 25 26  1  0
 26 27  2  0
 27 28  1  0
 28 29  2  0
 11  7  1  0
 19 14  1  0
 29 20  1  0
 28 23  1  0
  3 30  1  0
  4 31  1  0
  4 32  1  0
  8 33  1  0
  8 34  1  0
  9 35  1  0
  9 36  1  0
 10 37  1  0
 10 38  1  0
 11 39  1  6
 12 40  1  0
 12 41  1  0
 13 42  1  0
 13 43  1  0
 15 44  1  0
 16 45  1  0
 17 46  1  0
 18 47  1  0
 19 48  1  0
 21 49  1  0
 22 50  1  0
 24 51  1  0
 25 52  1  0
 26 53  1  0
 27 54  1  0
M  END
>  <smiles>  (29) 
O=C(NCC(=O)N1CCCC1CCc1ccccc1)c1ccc2ccccc2n1

>  <score_type>  (29) 
oracle

>  <origin>  (29) 
autodockgpu

>  <m_score__min__energy>  (29) 
-9.2100000000000009

>  <m_primary>  (29) 
energy

>  <rmsd>  (29) 
2.692966588182821

>  <m_score__min__rmsd>  (29) 
2.692966588182821

>  <meeko>  (29) 
{"free_energy": -9.21, "intermolecular_energy": -11.3, "internal_energy": -1.45, "cluster_size": 20, "cluster_id": 1, "rank_in_cluster": 1}

>  <energy>  (29) 
-8.66

>  <cluster_rmsd>  (29) 
1.12

>  <cluster>  (29) 
2

$$$$

     RDKit          3D

 54 57  0  0  0  0  0  0  0  0999 V2000
  141.5300   72.6680  221.8610 O   0  0  0  0  0  0  0  0  0  0  0  0
  140.4800   72.6110  222.5520 C   0  0  0  0  0  0  0  0  0  0  0  0
  139.4900   73.6620  222.3460 N   0  0  0  0  0  0  0  0  0  0  0  0
  139.8310   74.6440  221.3750 C   0  0  0  0  0  0  0  0  0  0  0  0
  139.6880   76.0630  221.7110 C   0  0  0  0  0  0  0  0  0  0  0  0
  138.4520   76.4080  221.9410 O   0  0  0  0  0  0  0  0  0  0  0  0
  140.6520   77.0690  221.8170 N   0  0  0  0  0  0  0  0  0  0  0  0
  141.0580   77.8790  222.9750 C   0  0  0  0  0  0  0  0  0  0  0  0
  141.9560   79.0010  222.4110 C   0  0  0  0  0  0  0  0  0  0  0  0
  141.5010   79.0090  220.9310 C   0  0  0  0  0  0  0  0  0  0  0  0
  141.5070   77.5110  220.7300 C   0  0  2  0  0  0  0  0  0  0  0  0
  141.1780   77.0420  219.3750 C   0  0  0  0  0  0  0  0  0  0  0  0
  142.5150   76.7070  218.6780 C   0  0  0  0  0  0  0  0  0  0  0  0
  143.0490   75.4240  219.2190 C   0  0  0  0  0  0  0  0  0  0  0  0
  144.1200   75.3800  220.0990 C   0  0  0  0  0  0  0  0  0  0  0  0
  144.5230   74.1310  220.5320 C   0  0  0  0  0  0  0  0  0  0  0  0
  143.9040   72.9620  220.1200 C   0  0  0  0  0  0  0  0  0  0  0  0
  142.8380   73.0210  219.2420 C   0  0  0  0  0  0  0  0  0  0  0  0
  142.4150   74.2540  218.7940 C   0  0  0  0  0  0  0  0  0  0  0  0
  140.2140   71.5640  223.5290 C   0  0  0  0  0  0  0  0  0  0  0  0
  139.4940   70.4720  223.0930 C   0  0  0  0  0  0  0  0  0  0  0  0
  139.2390   69.4760  224.0140 C   0  0  0  0  0  0  0  0  0  0  0  0
  139.7000   69.5900  225.3250 C   0  0  0  0  0  0  0  0  0  0  0  0
  139.4570   68.6050  226.2650 C   0  0  0  0  0  0  0  0  0  0  0  0
  139.9430   68.7730  227.5600 C   0  0  0  0  0  0  0  0  0  0  0  0
  140.6530   69.8680  227.9530 C   0  0  0  0  0  0  0  0  0  0  0  0
  140.8960   70.8580  227.0050 C   0  0  0  0  0  0  0  0  0  0  0  0
  140.4160   70.6950  225.7210 C   0  0  0  0  0  0  0  0  0  0  0  0
  140.6470   71.6480  224.7990 N   0  0  0  0  0  0  0  0  0  0  0  0
  138.6610   73.5790  222.9360 H   0  0  0  0  0  0  0  0  0  0  0  0
  140.8863   74.4813  221.1106 H   0  0  0  0  0  0  0  0  0  0  0  0
  139.0910   74.4891  220.5760 H   0  0  0  0  0  0  0  0  0  0  0  0
  140.1747   78.3083  223.4705 H   0  0  0  0  0  0  0  0  0  0  0  0
  141.5891   77.2745  223.7250 H   0  0  0  0  0  0  0  0  0  0  0  0
  141.7579   79.9652  222.9020 H   0  0  0  0  0  0  0  0  0  0  0  0
  143.0345   78.8427  222.5583 H   0  0  0  0  0  0  0  0  0  0  0  0
  140.5006   79.4474  220.8004 H   0  0  0  0  0  0  0  0  0  0  0  0
  142.1083   79.6026  220.2318 H   0  0  0  0  0  0  0  0  0  0  0  0
  142.5089   77.0596  220.7783 H   0  0  0  0  0  0  0  0  0  0  0  0
  140.5445   76.1444  219.4290 H   0  0  0  0  0  0  0  0  0  0  0  0
  140.6250   77.8113  218.8160 H   0  0  0  0  0  0  0  0  0  0  0  0
  142.3493   76.6078  217.5951 H   0  0  0  0  0  0  0  0  0  0  0  0
  143.2388   77.5138  218.8654 H   0  0  0  0  0  0  0  0  0  0  0  0
  144.6253   76.2968  220.4367 H   0  0  0  0  0  0  0  0  0  0  0  0
  145.3690   74.0623  221.2317 H   0  0  0  0  0  0  0  0  0  0  0  0
  144.2599   71.9894  220.4906 H   0  0  0  0  0  0  0  0  0  0  0  0
  142.3366   72.1010  218.9070 H   0  0  0  0  0  0  0  0  0  0  0  0
  141.5688   74.3174  218.0941 H   0  0  0  0  0  0  0  0  0  0  0  0
  139.1378   70.3976  222.0549 H   0  0  0  0  0  0  0  0  0  0  0  0
  138.6679   68.5858  223.7115 H   0  0  0  0  0  0  0  0  0  0  0  0
  138.8888   67.7028  225.9944 H   0  0  0  0  0  0  0  0  0  0  0  0
  139.7441   67.9842  228.3005 H   0  0  0  0  0  0  0  0  0  0  0  0
  141.0217   69.9662  228.9847 H   0  0  0  0  0  0  0  0  0  0  0  0
  141.4641   71.7601  227.2760 H   0  0  0  0  0  0  0  0  0  0  0  0
  1  2  2  0
  2  3  1  0
  3  4  1  0
  4  5  1  0
  5  6  2  0
  5  7  1  0
  7  8  1  0
  8  9  1  0
  9 10  1  0
 10 11  1  0
 11 12  1  0
 12 13  1  0
 13 14  1  0
 14 15  2  0
 15 16  1  0
 16 17  2  0
 17 18  1  0
 18 19  2  0
  2 20  1  0
 20 21  2  0
 21 22  1  0
 22 23  2  0
 23 24  1  0
 24 25  2  0
 25 26  1  0
 26 27  2  0
 27 28  1  0
 28 29  2  0
 11  7  1  0
 19 14  1  0
 29 20  1  0
 28 23  1  0
  3 30  1  0
  4 31  1  0
  4 32  1  0
  8 33  1  0
  8 34  1  0
  9 35  1  0
  9 36  1  0
 10 37  1  0
 10 38  1  0
 11 39  1  1
 12 40  1  0
 12 41  1  0
 13 42  1  0
 13 43  1  0
 15 44  1  0
 16 45  1  0
 17 46  1  0
 18 47  1  0
 19 48  1  0
 21 49  1  0
 22 50  1  0
 24 51  1  0
 25 52  1  0
 26 53  1  0
 27 54  1  0
M  END
>  <smiles>  (30) 
O=C(NCC(=O)N1CCCC1CCc1ccccc1)c1ccc2ccccc2n1

>  <score_type>  (30) 
oracle

>  <origin>  (30) 
autodockgpu

>  <m_score__min__energy>  (30) 
-9.2100000000000009

>  <m_primary>  (30) 
energy

>  <rmsd>  (30) 
2.4294679411229407

>  <m_score__min__rmsd>  (30) 
2.4294679411229407

>  <meeko>  (30) 
{"free_energy": -8.05, "intermolecular_energy": -10.14, "internal_energy": -1.92, "cluster_size": 5, "cluster_id": 3, "rank_in_cluster": 5}

>  <energy>  (30) 
-8.65

>  <cluster_rmsd>  (30) 
1.71

>  <cluster>  (30) 
2

$$$$

     RDKit          3D

 54 57  0  0  0  0  0  0  0  0999 V2000
  141.5710   75.7780  219.1320 O   0  0  0  0  0  0  0  0  0  0  0  0
  141.6900   76.2250  220.3030 C   0  0  0  0  0  0  0  0  0  0  0  0
  141.8010   75.2480  221.3800 N   0  0  0  0  0  0  0  0  0  0  0  0
  141.7620   73.8850  220.9780 C   0  0  0  0  0  0  0  0  0  0  0  0
  140.7370   73.0010  221.5410 C   0  0  0  0  0  0  0  0  0  0  0  0
  139.9350   73.6160  222.3650 O   0  0  0  0  0  0  0  0  0  0  0  0
  140.5020   71.6390  221.3340 N   0  0  0  0  0  0  0  0  0  0  0  0
  140.6660   70.8180  220.1250 C   0  0  0  0  0  0  0  0  0  0  0  0
  139.9860   69.4690  220.4370 C   0  0  0  0  0  0  0  0  0  0  0  0
  139.0400   69.8880  221.5880 C   0  0  0  0  0  0  0  0  0  0  0  0
  140.0440   70.7160  222.3570 C   0  0  2  0  0  0  0  0  0  0  0  0
  139.5680   71.2900  223.6250 C   0  0  0  0  0  0  0  0  0  0  0  0
  139.6130   70.1590  224.6760 C   0  0  0  0  0  0  0  0  0  0  0  0
  140.1860   70.6860  225.9480 C   0  0  0  0  0  0  0  0  0  0  0  0
  140.9300   71.8540  225.9980 C   0  0  0  0  0  0  0  0  0  0  0  0
  141.4080   72.2410  227.2350 C   0  0  0  0  0  0  0  0  0  0  0  0
  141.1690   71.5110  228.3890 C   0  0  0  0  0  0  0  0  0  0  0  0
  140.4260   70.3480  228.3250 C   0  0  0  0  0  0  0  0  0  0  0  0
  139.9370   69.9390  227.1030 C   0  0  0  0  0  0  0  0  0  0  0  0
  141.7200   77.6460  220.6230 C   0  0  0  0  0  0  0  0  0  0  0  0
  141.7340   78.5240  219.5610 C   0  0  0  0  0  0  0  0  0  0  0  0
  141.7630   79.8720  219.8570 C   0  0  0  0  0  0  0  0  0  0  0  0
  141.7780   80.3050  221.1840 C   0  0  0  0  0  0  0  0  0  0  0  0
  141.8060   81.6490  221.5050 C   0  0  0  0  0  0  0  0  0  0  0  0
  141.8190   82.0220  222.8470 C   0  0  0  0  0  0  0  0  0  0  0  0
  141.8050   81.1220  223.8710 C   0  0  0  0  0  0  0  0  0  0  0  0
  141.7760   79.7690  223.5450 C   0  0  0  0  0  0  0  0  0  0  0  0
  141.7630   79.3960  222.2160 C   0  0  0  0  0  0  0  0  0  0  0  0
  141.7350   78.0900  221.8920 N   0  0  0  0  0  0  0  0  0  0  0  0
  141.8840   75.6590  222.3110 H   0  0  0  0  0  0  0  0  0  0  0  0
  141.6293   73.8760  219.8861 H   0  0  0  0  0  0  0  0  0  0  0  0
  142.7047   73.4715  221.3656 H   0  0  0  0  0  0  0  0  0  0  0  0
  140.1803   71.3018  219.2648 H   0  0  0  0  0  0  0  0  0  0  0  0
  141.7270   70.6861  219.8663 H   0  0  0  0  0  0  0  0  0  0  0  0
  139.4265   69.0865  219.5706 H   0  0  0  0  0  0  0  0  0  0  0  0
  140.6802   68.6537  220.6887 H   0  0  0  0  0  0  0  0  0  0  0  0
  138.1852   70.4836  221.2349 H   0  0  0  0  0  0  0  0  0  0  0  0
  138.5451   69.0753  222.1400 H   0  0  0  0  0  0  0  0  0  0  0  0
  140.8688   70.1295  222.7879 H   0  0  0  0  0  0  0  0  0  0  0  0
  140.2217   72.1191  223.9336 H   0  0  0  0  0  0  0  0  0  0  0  0
  138.5478   71.6872  223.5183 H   0  0  0  0  0  0  0  0  0  0  0  0
  138.5939   69.7875  224.8589 H   0  0  0  0  0  0  0  0  0  0  0  0
  140.2413   69.3366  224.3034 H   0  0  0  0  0  0  0  0  0  0  0  0
  141.1310   72.4465  225.0932 H   0  0  0  0  0  0  0  0  0  0  0  0
  142.0014   73.1644  227.3071 H   0  0  0  0  0  0  0  0  0  0  0  0
  141.5699   71.8568  229.3532 H   0  0  0  0  0  0  0  0  0  0  0  0
  140.2283   69.7591  229.2328 H   0  0  0  0  0  0  0  0  0  0  0  0
  139.3444   69.0147  227.0359 H   0  0  0  0  0  0  0  0  0  0  0  0
  141.7225   78.1657  218.5210 H   0  0  0  0  0  0  0  0  0  0  0  0
  141.7744   80.6101  219.0415 H   0  0  0  0  0  0  0  0  0  0  0  0
  141.8178   82.4123  220.7130 H   0  0  0  0  0  0  0  0  0  0  0  0
  141.8417   83.0941  223.0923 H   0  0  0  0  0  0  0  0  0  0  0  0
  141.8162   81.4539  224.9197 H   0  0  0  0  0  0  0  0  0  0  0  0
  141.7636   79.0059  224.3372 H   0  0  0  0  0  0  0  0  0  0  0  0
  1  2  2  0
  2  3  1  0
  3  4  1  0
  4  5  1  0
  5  6  2  0
  5  7  1  0
  7  8  1  0
  8  9  1  0
  9 10  1  0
 10 11  1  0
 11 12  1  0
 12 13  1  0
 13 14  1  0
 14 15  2  0
 15 16  1  0
 16 17  2  0
 17 18  1  0
 18 19  2  0
  2 20  1  0
 20 21  2  0
 21 22  1  0
 22 23  2  0
 23 24  1  0
 24 25  2  0
 25 26  1  0
 26 27  2  0
 27 28  1  0
 28 29  2  0
 11  7  1  0
 19 14  1  0
 29 20  1  0
 28 23  1  0
  3 30  1  0
  4 31  1  0
  4 32  1  0
  8 33  1  0
  8 34  1  0
  9 35  1  0
  9 36  1  0
 10 37  1  0
 10 38  1  0
 11 39  1  1
 12 40  1  0
 12 41  1  0
 13 42  1  0
 13 43  1  0
 15 44  1  0
 16 45  1  0
 17 46  1  0
 18 47  1  0
 19 48  1  0
 21 49  1  0
 22 50  1  0
 24 51  1  0
 25 52  1  0
 26 53  1  0
 27 54  1  0
M  END
>  <smiles>  (31) 
O=C(NCC(=O)N1CCCC1CCc1ccccc1)c1ccc2ccccc2n1

>  <score_type>  (31) 
oracle

>  <origin>  (31) 
autodockgpu

>  <m_score__min__energy>  (31) 
-9.2100000000000009

>  <m_primary>  (31) 
energy

>  <rmsd>  (31) 
8.797266725994158

>  <m_score__min__rmsd>  (31) 
8.797266725994158

>  <meeko>  (31) 
{"free_energy": -8.72, "intermolecular_energy": -10.81, "internal_energy": -1.43, "cluster_size": 22, "cluster_id": 2, "rank_in_cluster": 7}

>  <energy>  (31) 
-8.63

>  <cluster_rmsd>  (31) 
1.13

>  <cluster>  (31) 
2

$$$$

     RDKit          3D

 54 57  0  0  0  0  0  0  0  0999 V2000
  141.2450   71.9350  221.4980 O   0  0  0  0  0  0  0  0  0  0  0  0
  140.4150   72.2360  222.3940 C   0  0  0  0  0  0  0  0  0  0  0  0
  139.5960   73.4220  222.1720 N   0  0  0  0  0  0  0  0  0  0  0  0
  139.8330   74.1110  220.9500 C   0  0  0  0  0  0  0  0  0  0  0  0
  140.9650   75.0360  220.8590 C   0  0  0  0  0  0  0  0  0  0  0  0
  141.4500   75.3620  222.0240 O   0  0  0  0  0  0  0  0  0  0  0  0
  141.5830   75.6040  219.7410 N   0  0  0  0  0  0  0  0  0  0  0  0
  142.6130   75.0600  218.8430 C   0  0  0  0  0  0  0  0  0  0  0  0
  143.0880   76.2460  217.9780 C   0  0  0  0  0  0  0  0  0  0  0  0
  142.6570   77.4360  218.8690 C   0  0  0  0  0  0  0  0  0  0  0  0
  141.2770   76.9200  219.2090 C   0  0  2  0  0  0  0  0  0  0  0  0
  140.4420   77.8080  220.0320 C   0  0  0  0  0  0  0  0  0  0  0  0
  141.1960   79.1500  220.1550 C   0  0  0  0  0  0  0  0  0  0  0  0
  141.5970   79.3660  221.5760 C   0  0  0  0  0  0  0  0  0  0  0  0
  141.3970   78.4060  222.5560 C   0  0  0  0  0  0  0  0  0  0  0  0
  141.8120   78.7230  223.8360 C   0  0  0  0  0  0  0  0  0  0  0  0
  142.4010   79.9360  224.1510 C   0  0  0  0  0  0  0  0  0  0  0  0
  142.5940   80.8840  223.1630 C   0  0  0  0  0  0  0  0  0  0  0  0
  142.1900   80.5940  221.8780 C   0  0  0  0  0  0  0  0  0  0  0  0
  140.2400   71.4690  223.6200 C   0  0  0  0  0  0  0  0  0  0  0  0
  139.5670   70.2710  223.5150 C   0  0  0  0  0  0  0  0  0  0  0  0
  139.3970   69.5380  224.6720 C   0  0  0  0  0  0  0  0  0  0  0  0
  139.8950   70.0100  225.8870 C   0  0  0  0  0  0  0  0  0  0  0  0
  139.7380   69.2950  227.0600 C   0  0  0  0  0  0  0  0  0  0  0  0
  140.2560   69.8150  228.2430 C   0  0  0  0  0  0  0  0  0  0  0  0
  140.9170   71.0060  228.3070 C   0  0  0  0  0  0  0  0  0  0  0  0
  141.0750   71.7250  227.1250 C   0  0  0  0  0  0  0  0  0  0  0  0
  140.5620   71.2110  225.9500 C   0  0  0  0  0  0  0  0  0  0  0  0
  140.7100   71.9000  224.8040 N   0  0  0  0  0  0  0  0  0  0  0  0
  138.9460   73.6310  222.9310 H   0  0  0  0  0  0  0  0  0  0  0  0
  139.9797   73.3462  220.1731 H   0  0  0  0  0  0  0  0  0  0  0  0
  138.9534   74.7627  220.8424 H   0  0  0  0  0  0  0  0  0  0  0  0
  143.4517   74.6512  219.4257 H   0  0  0  0  0  0  0  0  0  0  0  0
  142.2179   74.2410  218.2240 H   0  0  0  0  0  0  0  0  0  0  0  0
  144.1772   76.2267  217.8254 H   0  0  0  0  0  0  0  0  0  0  0  0
  142.6753   76.2638  216.9585 H   0  0  0  0  0  0  0  0  0  0  0  0
  143.2950   77.5491  219.7579 H   0  0  0  0  0  0  0  0  0  0  0  0
  142.7109   78.4364  218.4148 H   0  0  0  0  0  0  0  0  0  0  0  0
  140.5944   76.8724  218.3477 H   0  0  0  0  0  0  0  0  0  0  0  0
  139.4669   77.9655  219.5480 H   0  0  0  0  0  0  0  0  0  0  0  0
  140.2593   77.3679  221.0234 H   0  0  0  0  0  0  0  0  0  0  0  0
  142.0940   79.1257  219.5201 H   0  0  0  0  0  0  0  0  0  0  0  0
  140.5397   79.9708  219.8301 H   0  0  0  0  0  0  0  0  0  0  0  0
  140.9298   77.4371  222.3258 H   0  0  0  0  0  0  0  0  0  0  0  0
  141.6686   77.9820  224.6363 H   0  0  0  0  0  0  0  0  0  0  0  0
  142.7145   80.1449  225.1845 H   0  0  0  0  0  0  0  0  0  0  0  0
  143.0613   81.8516  223.3985 H   0  0  0  0  0  0  0  0  0  0  0  0
  142.3361   81.3380  221.0810 H   0  0  0  0  0  0  0  0  0  0  0  0
  139.1812   69.9137  222.5488 H   0  0  0  0  0  0  0  0  0  0  0  0
  138.8655   68.5756  224.6361 H   0  0  0  0  0  0  0  0  0  0  0  0
  139.2114   68.3292  227.0585 H   0  0  0  0  0  0  0  0  0  0  0  0
  140.1259   69.2376  229.1702 H   0  0  0  0  0  0  0  0  0  0  0  0
  141.3122   71.3861  229.2606 H   0  0  0  0  0  0  0  0  0  0  0  0
  141.6019   72.6906  227.1270 H   0  0  0  0  0  0  0  0  0  0  0  0
  1  2  2  0
  2  3  1  0
  3  4  1  0
  4  5  1  0
  5  6  2  0
  5  7  1  0
  7  8  1  0
  8  9  1  0
  9 10  1  0
 10 11  1  0
 11 12  1  0
 12 13  1  0
 13 14  1  0
 14 15  2  0
 15 16  1  0
 16 17  2  0
 17 18  1  0
 18 19  2  0
  2 20  1  0
 20 21  2  0
 21 22  1  0
 22 23  2  0
 23 24  1  0
 24 25  2  0
 25 26  1  0
 26 27  2  0
 27 28  1  0
 28 29  2  0
 11  7  1  0
 19 14  1  0
 29 20  1  0
 28 23  1  0
  3 30  1  0
  4 31  1  0
  4 32  1  0
  8 33  1  0
  8 34  1  0
  9 35  1  0
  9 36  1  0
 10 37  1  0
 10 38  1  0
 11 39  1  6
 12 40  1  0
 12 41  1  0
 13 42  1  0
 13 43  1  0
 15 44  1  0
 16 45  1  0
 17 46  1  0
 18 47  1  0
 19 48  1  0
 21 49  1  0
 22 50  1  0
 24 51  1  0
 25 52  1  0
 26 53  1  0
 27 54  1  0
M  END
>  <smiles>  (32) 
O=C(NCC(=O)N1CCCC1CCc1ccccc1)c1ccc2ccccc2n1

>  <score_type>  (32) 
oracle

>  <origin>  (32) 
autodockgpu

>  <m_score__min__energy>  (32) 
-9.2100000000000009

>  <m_primary>  (32) 
energy

>  <rmsd>  (32) 
2.2999148860604652

>  <m_score__min__rmsd>  (32) 
2.2999148860604652

>  <meeko>  (32) 
{"free_energy": -9.05, "intermolecular_energy": -11.14, "internal_energy": -1.58, "cluster_size": 20, "cluster_id": 1, "rank_in_cluster": 4}

>  <energy>  (32) 
-8.63

>  <cluster_rmsd>  (32) 
1.22

>  <cluster>  (32) 
2

$$$$

     RDKit          3D

 54 57  0  0  0  0  0  0  0  0999 V2000
  141.3350   72.3730  221.8170 O   0  0  0  0  0  0  0  0  0  0  0  0
  140.3580   72.4220  222.6090 C   0  0  0  0  0  0  0  0  0  0  0  0
  139.3480   73.4440  222.3590 N   0  0  0  0  0  0  0  0  0  0  0  0
  139.5870   74.2800  221.2340 C   0  0  0  0  0  0  0  0  0  0  0  0
  140.7880   75.1200  221.2080 C   0  0  0  0  0  0  0  0  0  0  0  0
  140.9700   75.7770  222.3190 O   0  0  0  0  0  0  0  0  0  0  0  0
  141.7360   75.3140  220.2000 N   0  0  0  0  0  0  0  0  0  0  0  0
  142.8820   74.4850  219.7980 C   0  0  0  0  0  0  0  0  0  0  0  0
  143.7080   75.3520  218.8240 C   0  0  0  0  0  0  0  0  0  0  0  0
  143.2200   76.7660  219.2210 C   0  0  0  0  0  0  0  0  0  0  0  0
  141.7450   76.4400  219.2830 C   0  0  2  0  0  0  0  0  0  0  0  0
  140.8490   77.5670  219.5820 C   0  0  0  0  0  0  0  0  0  0  0  0
  141.7400   78.7430  220.0360 C   0  0  0  0  0  0  0  0  0  0  0  0
  141.5340   78.9880  221.4930 C   0  0  0  0  0  0  0  0  0  0  0  0
  142.5600   79.4060  222.3260 C   0  0  0  0  0  0  0  0  0  0  0  0
  142.2460   79.6000  223.6580 C   0  0  0  0  0  0  0  0  0  0  0  0
  140.9720   79.3910  224.1630 C   0  0  0  0  0  0  0  0  0  0  0  0
  139.9590   78.9740  223.3200 C   0  0  0  0  0  0  0  0  0  0  0  0
  140.2450   78.7730  221.9870 C   0  0  0  0  0  0  0  0  0  0  0  0
  140.1950   71.5200  223.7410 C   0  0  0  0  0  0  0  0  0  0  0  0
  139.5090   70.3460  223.5110 C   0  0  0  0  0  0  0  0  0  0  0  0
  139.3500   69.4880  224.5800 C   0  0  0  0  0  0  0  0  0  0  0  0
  139.8710   69.8140  225.8330 C   0  0  0  0  0  0  0  0  0  0  0  0
  139.7250   68.9700  226.9180 C   0  0  0  0  0  0  0  0  0  0  0  0
  140.2660   69.3480  228.1450 C   0  0  0  0  0  0  0  0  0  0  0  0
  140.9380   70.5190  228.3330 C   0  0  0  0  0  0  0  0  0  0  0  0
  141.0840   71.3670  227.2390 C   0  0  0  0  0  0  0  0  0  0  0  0
  140.5490   70.9950  226.0220 C   0  0  0  0  0  0  0  0  0  0  0  0
  140.6860   71.8090  224.9590 N   0  0  0  0  0  0  0  0  0  0  0  0
  138.5820   73.4490  223.0330 H   0  0  0  0  0  0  0  0  0  0  0  0
  139.6340   73.6251  220.3515 H   0  0  0  0  0  0  0  0  0  0  0  0
  138.7614   75.0061  221.2683 H   0  0  0  0  0  0  0  0  0  0  0  0
  143.4861   74.2148  220.6767 H   0  0  0  0  0  0  0  0  0  0  0  0
  142.5565   73.5457  219.3270 H   0  0  0  0  0  0  0  0  0  0  0  0
  144.7887   75.2335  218.9916 H   0  0  0  0  0  0  0  0  0  0  0  0
  143.5731   75.1023  217.7612 H   0  0  0  0  0  0  0  0  0  0  0  0
  143.6203   77.0922  220.1923 H   0  0  0  0  0  0  0  0  0  0  0  0
  143.5144   77.5930  218.5581 H   0  0  0  0  0  0  0  0  0  0  0  0
  141.3028   76.1862  218.3083 H   0  0  0  0  0  0  0  0  0  0  0  0
  140.2820   77.8479  218.6823 H   0  0  0  0  0  0  0  0  0  0  0  0
  140.1259   77.2967  220.3656 H   0  0  0  0  0  0  0  0  0  0  0  0
  142.7959   78.4959  219.8512 H   0  0  0  0  0  0  0  0  0  0  0  0
  141.4711   79.6471  219.4701 H   0  0  0  0  0  0  0  0  0  0  0  0
  143.5777   79.5756  221.9444 H   0  0  0  0  0  0  0  0  0  0  0  0
  143.0383   79.9334  224.3444 H   0  0  0  0  0  0  0  0  0  0  0  0
  140.7679   79.5565  225.2311 H   0  0  0  0  0  0  0  0  0  0  0  0
  138.9429   78.8056  223.7062 H   0  0  0  0  0  0  0  0  0  0  0  0
  139.4495   78.4396  221.3043 H   0  0  0  0  0  0  0  0  0  0  0  0
  139.1054   70.1036  222.5168 H   0  0  0  0  0  0  0  0  0  0  0  0
  138.8087   68.5402  224.4436 H   0  0  0  0  0  0  0  0  0  0  0  0
  139.1899   68.0146  226.8142 H   0  0  0  0  0  0  0  0  0  0  0  0
  140.1452   68.6696  229.0024 H   0  0  0  0  0  0  0  0  0  0  0  0
  141.3514   70.7850  229.3170 H   0  0  0  0  0  0  0  0  0  0  0  0
  141.6194   72.3223  227.3429 H   0  0  0  0  0  0  0  0  0  0  0  0
  1  2  2  0
  2  3  1  0
  3  4  1  0
  4  5  1  0
  5  6  2  0
  5  7  1  0
  7  8  1  0
  8  9  1  0
  9 10  1  0
 10 11  1  0
 11 12  1  0
 12 13  1  0
 13 14  1  0
 14 15  2  0
 15 16  1  0
 16 17  2  0
 17 18  1  0
 18 19  2  0
  2 20  1  0
 20 21  2  0
 21 22  1  0
 22 23  2  0
 23 24  1  0
 24 25  2  0
 25 26  1  0
 26 27  2  0
 27 28  1  0
 28 29  2  0
 11  7  1  0
 19 14  1  0
 29 20  1  0
 28 23  1  0
  3 30  1  0
  4 31  1  0
  4 32  1  0
  8 33  1  0
  8 34  1  0
  9 35  1  0
  9 36  1  0
 10 37  1  0
 10 38  1  0
 11 39  1  6
 12 40  1  0
 12 41  1  0
 13 42  1  0
 13 43  1  0
 15 44  1  0
 16 45  1  0
 17 46  1  0
 18 47  1  0
 19 48  1  0
 21 49  1  0
 22 50  1  0
 24 51  1  0
 25 52  1  0
 26 53  1  0
 27 54  1  0
M  END
>  <smiles>  (33) 
O=C(NCC(=O)N1CCCC1CCc1ccccc1)c1ccc2ccccc2n1

>  <score_type>  (33) 
oracle

>  <origin>  (33) 
autodockgpu

>  <m_score__min__energy>  (33) 
-9.2100000000000009

>  <m_primary>  (33) 
energy

>  <rmsd>  (33) 
2.3126483568776717

>  <m_score__min__rmsd>  (33) 
2.3126483568776717

>  <meeko>  (33) 
{"free_energy": -8.85, "intermolecular_energy": -10.93, "internal_energy": -1.72, "cluster_size": 20, "cluster_id": 1, "rank_in_cluster": 12}

>  <energy>  (33) 
-8.61

>  <cluster_rmsd>  (33) 
1.23

>  <cluster>  (33) 
2

$$$$

     RDKit          3D

 54 57  0  0  0  0  0  0  0  0999 V2000
  140.4790   74.6450  221.9970 O   0  0  0  0  0  0  0  0  0  0  0  0
  139.5570   75.4520  222.2810 C   0  0  0  0  0  0  0  0  0  0  0  0
  138.1970   74.9270  222.3060 N   0  0  0  0  0  0  0  0  0  0  0  0
  138.0680   73.5440  222.0020 C   0  0  0  0  0  0  0  0  0  0  0  0
  136.9570   72.7840  222.5830 C   0  0  0  0  0  0  0  0  0  0  0  0
  135.9400   73.5350  222.8990 O   0  0  0  0  0  0  0  0  0  0  0  0
  136.8330   71.4160  222.8400 N   0  0  0  0  0  0  0  0  0  0  0  0
  135.6580   70.5350  222.7610 C   0  0  0  0  0  0  0  0  0  0  0  0
  136.0790   69.2090  223.4280 C   0  0  0  0  0  0  0  0  0  0  0  0
  137.2670   69.6930  224.2940 C   0  0  0  0  0  0  0  0  0  0  0  0
  137.9280   70.5480  223.2370 C   0  0  2  0  0  0  0  0  0  0  0  0
  139.1940   71.1880  223.6240 C   0  0  0  0  0  0  0  0  0  0  0  0
  140.0040   70.1390  224.4180 C   0  0  0  0  0  0  0  0  0  0  0  0
  140.3320   70.6830  225.7680 C   0  0  0  0  0  0  0  0  0  0  0  0
  141.0570   71.8510  225.9400 C   0  0  0  0  0  0  0  0  0  0  0  0
  141.2970   72.2540  227.2400 C   0  0  0  0  0  0  0  0  0  0  0  0
  140.8440   71.5400  228.3380 C   0  0  0  0  0  0  0  0  0  0  0  0
  140.1210   70.3770  228.1520 C   0  0  0  0  0  0  0  0  0  0  0  0
  139.8690   69.9520  226.8660 C   0  0  0  0  0  0  0  0  0  0  0  0
  139.7830   76.8600  222.5790 C   0  0  0  0  0  0  0  0  0  0  0  0
  138.6670   77.6570  222.7100 C   0  0  0  0  0  0  0  0  0  0  0  0
  138.8740   78.9920  222.9920 C   0  0  0  0  0  0  0  0  0  0  0  0
  140.1690   79.4920  223.1360 C   0  0  0  0  0  0  0  0  0  0  0  0
  140.4020   80.8250  223.4190 C   0  0  0  0  0  0  0  0  0  0  0  0
  141.7170   81.2680  223.5510 C   0  0  0  0  0  0  0  0  0  0  0  0
  142.7960   80.4470  223.4140 C   0  0  0  0  0  0  0  0  0  0  0  0
  142.5590   79.1050  223.1290 C   0  0  0  0  0  0  0  0  0  0  0  0
  141.2580   78.6630  222.9980 C   0  0  0  0  0  0  0  0  0  0  0  0
  141.0200   77.3680  222.7220 N   0  0  0  0  0  0  0  0  0  0  0  0
  137.4840   75.6220  222.5310 H   0  0  0  0  0  0  0  0  0  0  0  0
  137.9760   73.4626  220.9089 H   0  0  0  0  0  0  0  0  0  0  0  0
  138.9609   73.0917  222.4583 H   0  0  0  0  0  0  0  0  0  0  0  0
  134.8083   70.9810  223.2987 H   0  0  0  0  0  0  0  0  0  0  0  0
  135.3383   70.3801  221.7200 H   0  0  0  0  0  0  0  0  0  0  0  0
  135.2705   68.7904  224.0454 H   0  0  0  0  0  0  0  0  0  0  0  0
  136.3246   68.3999  222.7244 H   0  0  0  0  0  0  0  0  0  0  0  0
  136.9410   70.2788  225.1661 H   0  0  0  0  0  0  0  0  0  0  0  0
  137.8893   68.9129  224.7568 H   0  0  0  0  0  0  0  0  0  0  0  0
  138.3334   69.9742  222.3906 H   0  0  0  0  0  0  0  0  0  0  0  0
  139.7514   71.4964  222.7272 H   0  0  0  0  0  0  0  0  0  0  0  0
  139.0109   72.0862  224.2321 H   0  0  0  0  0  0  0  0  0  0  0  0
  139.4078   69.2211  224.5273 H   0  0  0  0  0  0  0  0  0  0  0  0
  140.9348   69.9090  223.8788 H   0  0  0  0  0  0  0  0  0  0  0  0
  141.4249   72.4312  225.0809 H   0  0  0  0  0  0  0  0  0  0  0  0
  141.8699   73.1775  227.4098 H   0  0  0  0  0  0  0  0  0  0  0  0
  141.0595   71.8982  229.3555 H   0  0  0  0  0  0  0  0  0  0  0  0
  139.7537   69.8015  229.0145 H   0  0  0  0  0  0  0  0  0  0  0  0
  139.2970   69.0270  226.7013 H   0  0  0  0  0  0  0  0  0  0  0  0
  137.6531   77.2464  222.5946 H   0  0  0  0  0  0  0  0  0  0  0  0
  138.0124   79.6666  223.1040 H   0  0  0  0  0  0  0  0  0  0  0  0
  139.5623   81.5255  223.5382 H   0  0  0  0  0  0  0  0  0  0  0  0
  141.8920   82.3303  223.7764 H   0  0  0  0  0  0  0  0  0  0  0  0
  143.8205   80.8319  223.5249 H   0  0  0  0  0  0  0  0  0  0  0  0
  143.3990   78.4049  223.0096 H   0  0  0  0  0  0  0  0  0  0  0  0
  1  2  2  0
  2  3  1  0
  3  4  1  0
  4  5  1  0
  5  6  2  0
  5  7  1  0
  7  8  1  0
  8  9  1  0
  9 10  1  0
 10 11  1  0
 11 12  1  0
 12 13  1  0
 13 14  1  0
 14 15  2  0
 15 16  1  0
 16 17  2  0
 17 18  1  0
 18 19  2  0
  2 20  1  0
 20 21  2  0
 21 22  1  0
 22 23  2  0
 23 24  1  0
 24 25  2  0
 25 26  1  0
 26 27  2  0
 27 28  1  0
 28 29  2  0
 11  7  1  0
 19 14  1  0
 29 20  1  0
 28 23  1  0
  3 30  1  0
  4 31  1  0
  4 32  1  0
  8 33  1  0
  8 34  1  0
  9 35  1  0
  9 36  1  0
 10 37  1  0
 10 38  1  0
 11 39  1  6
 12 40  1  0
 12 41  1  0
 13 42  1  0
 13 43  1  0
 15 44  1  0
 16 45  1  0
 17 46  1  0
 18 47  1  0
 19 48  1  0
 21 49  1  0
 22 50  1  0
 24 51  1  0
 25 52  1  0
 26 53  1  0
 27 54  1  0
M  END
>  <smiles>  (34) 
O=C(NCC(=O)N1CCCC1CCc1ccccc1)c1ccc2ccccc2n1

>  <score_type>  (34) 
oracle

>  <origin>  (34) 
autodockgpu

>  <m_score__min__energy>  (34) 
-9.2100000000000009

>  <m_primary>  (34) 
energy

>  <rmsd>  (34) 
8.292239310964556

>  <m_score__min__rmsd>  (34) 
8.292239310964556

>  <meeko>  (34) 
{"free_energy": -8.65, "intermolecular_energy": -10.74, "internal_energy": -1.44, "cluster_size": 22, "cluster_id": 2, "rank_in_cluster": 10}

>  <energy>  (34) 
-8.6

>  <cluster_rmsd>  (34) 
1.27

>  <cluster>  (34) 
2

$$$$

     RDKit          3D

 54 57  0  0  0  0  0  0  0  0999 V2000
  139.7220   71.0670  221.4240 O   0  0  0  0  0  0  0  0  0  0  0  0
  139.7840   71.5360  222.5900 C   0  0  0  0  0  0  0  0  0  0  0  0
  139.8190   72.9880  222.7240 N   0  0  0  0  0  0  0  0  0  0  0  0
  139.7790   73.7170  221.5030 C   0  0  0  0  0  0  0  0  0  0  0  0
  140.6140   74.9110  221.3550 C   0  0  0  0  0  0  0  0  0  0  0  0
  140.4390   75.7750  222.3160 O   0  0  0  0  0  0  0  0  0  0  0  0
  141.5420   75.2510  220.3660 N   0  0  0  0  0  0  0  0  0  0  0  0
  142.5710   74.4350  219.7060 C   0  0  0  0  0  0  0  0  0  0  0  0
  143.4550   75.4260  218.9200 C   0  0  0  0  0  0  0  0  0  0  0  0
  143.1450   76.7410  219.6750 C   0  0  0  0  0  0  0  0  0  0  0  0
  141.6460   76.5610  219.7480 C   0  0  2  0  0  0  0  0  0  0  0  0
  140.8940   77.6640  220.3650 C   0  0  0  0  0  0  0  0  0  0  0  0
  141.7050   78.9550  220.1180 C   0  0  0  0  0  0  0  0  0  0  0  0
  141.8080   79.7270  221.3910 C   0  0  0  0  0  0  0  0  0  0  0  0
  141.6410   81.1020  221.4390 C   0  0  0  0  0  0  0  0  0  0  0  0
  141.7600   81.7040  222.6770 C   0  0  0  0  0  0  0  0  0  0  0  0
  142.0340   80.9890  223.8320 C   0  0  0  0  0  0  0  0  0  0  0  0
  142.1980   79.6180  223.7690 C   0  0  0  0  0  0  0  0  0  0  0  0
  142.0850   78.9920  222.5470 C   0  0  0  0  0  0  0  0  0  0  0  0
  139.8220   70.7090  223.7890 C   0  0  0  0  0  0  0  0  0  0  0  0
  139.2580   69.4540  223.6990 C   0  0  0  0  0  0  0  0  0  0  0  0
  139.2900   68.6660  224.8320 C   0  0  0  0  0  0  0  0  0  0  0  0
  139.8740   69.1390  226.0070 C   0  0  0  0  0  0  0  0  0  0  0  0
  139.9190   68.3670  227.1530 C   0  0  0  0  0  0  0  0  0  0  0  0
  140.5160   68.8920  228.2980 C   0  0  0  0  0  0  0  0  0  0  0  0
  141.0640   70.1390  228.3470 C   0  0  0  0  0  0  0  0  0  0  0  0
  141.0180   70.9140  227.1910 C   0  0  0  0  0  0  0  0  0  0  0  0
  140.4270   70.3970  226.0560 C   0  0  0  0  0  0  0  0  0  0  0  0
  140.3790   71.1400  224.9350 N   0  0  0  0  0  0  0  0  0  0  0  0
  139.8800   73.3180  223.6870 H   0  0  0  0  0  0  0  0  0  0  0  0
  140.0703   73.0202  220.7032 H   0  0  0  0  0  0  0  0  0  0  0  0
  138.7523   74.1102  221.4672 H   0  0  0  0  0  0  0  0  0  0  0  0
  143.1713   73.8970  220.4545 H   0  0  0  0  0  0  0  0  0  0  0  0
  142.1242   73.6787  219.0439 H   0  0  0  0  0  0  0  0  0  0  0  0
  144.5205   75.1609  218.9869 H   0  0  0  0  0  0  0  0  0  0  0  0
  143.2552   75.4603  217.8388 H   0  0  0  0  0  0  0  0  0  0  0  0
  143.6138   76.7760  220.6695 H   0  0  0  0  0  0  0  0  0  0  0  0
  143.5077   77.6714  219.2137 H   0  0  0  0  0  0  0  0  0  0  0  0
  141.1443   76.6015  218.7699 H   0  0  0  0  0  0  0  0  0  0  0  0
  139.8992   77.7483  219.9031 H   0  0  0  0  0  0  0  0  0  0  0  0
  140.7517   77.4890  221.4416 H   0  0  0  0  0  0  0  0  0  0  0  0
  142.7134   78.6930  219.7651 H   0  0  0  0  0  0  0  0  0  0  0  0
  141.1986   79.5671  219.3571 H   0  0  0  0  0  0  0  0  0  0  0  0
  141.4237   81.6871  220.5332 H   0  0  0  0  0  0  0  0  0  0  0  0
  141.6321   82.7942  222.7486 H   0  0  0  0  0  0  0  0  0  0  0  0
  142.1207   81.5111  224.7963 H   0  0  0  0  0  0  0  0  0  0  0  0
  142.4147   79.0374  224.6778 H   0  0  0  0  0  0  0  0  0  0  0  0
  142.2142   77.9016  222.4804 H   0  0  0  0  0  0  0  0  0  0  0  0
  138.8020   69.0960  222.7642 H   0  0  0  0  0  0  0  0  0  0  0  0
  138.8516   67.6574  224.8080 H   0  0  0  0  0  0  0  0  0  0  0  0
  139.4903   67.3540  227.1611 H   0  0  0  0  0  0  0  0  0  0  0  0
  140.5463   68.2704  229.2050 H   0  0  0  0  0  0  0  0  0  0  0  0
  141.5271   70.5205  229.2689 H   0  0  0  0  0  0  0  0  0  0  0  0
  141.4477   71.9265  227.1825 H   0  0  0  0  0  0  0  0  0  0  0  0
  1  2  2  0
  2  3  1  0
  3  4  1  0
  4  5  1  0
  5  6  2  0
  5  7  1  0
  7  8  1  0
  8  9  1  0
  9 10  1  0
 10 11  1  0
 11 12  1  0
 12 13  1  0
 13 14  1  0
 14 15  2  0
 15 16  1  0
 16 17  2  0
 17 18  1  0
 18 19  2  0
  2 20  1  0
 20 21  2  0
 21 22  1  0
 22 23  2  0
 23 24  1  0
 24 25  2  0
 25 26  1  0
 26 27  2  0
 27 28  1  0
 28 29  2  0
 11  7  1  0
 19 14  1  0
 29 20  1  0
 28 23  1  0
  3 30  1  0
  4 31  1  0
  4 32  1  0
  8 33  1  0
  8 34  1  0
  9 35  1  0
  9 36  1  0
 10 37  1  0
 10 38  1  0
 11 39  1  6
 12 40  1  0
 12 41  1  0
 13 42  1  0
 13 43  1  0
 15 44  1  0
 16 45  1  0
 17 46  1  0
 18 47  1  0
 19 48  1  0
 21 49  1  0
 22 50  1  0
 24 51  1  0
 25 52  1  0
 26 53  1  0
 27 54  1  0
M  END
>  <smiles>  (35) 
O=C(NCC(=O)N1CCCC1CCc1ccccc1)c1ccc2ccccc2n1

>  <score_type>  (35) 
oracle

>  <origin>  (35) 
autodockgpu

>  <m_score__min__energy>  (35) 
-9.2100000000000009

>  <m_primary>  (35) 
energy

>  <rmsd>  (35) 
2.2423938214214423

>  <m_score__min__rmsd>  (35) 
2.2423938214214423

>  <meeko>  (35) 
{"free_energy": -8.98, "intermolecular_energy": -11.07, "internal_energy": -1.51, "cluster_size": 20, "cluster_id": 1, "rank_in_cluster": 6}

>  <energy>  (35) 
-8.6

>  <cluster_rmsd>  (35) 
0.99

>  <cluster>  (35) 
2

$$$$

     RDKit          3D

 54 57  0  0  0  0  0  0  0  0999 V2000
  141.4560   72.1430  221.6750 O   0  0  0  0  0  0  0  0  0  0  0  0
  140.5690   72.3850  222.5340 C   0  0  0  0  0  0  0  0  0  0  0  0
  139.7830   73.6000  222.3550 N   0  0  0  0  0  0  0  0  0  0  0  0
  140.1130   74.3820  221.2140 C   0  0  0  0  0  0  0  0  0  0  0  0
  139.8690   75.8260  221.2410 C   0  0  0  0  0  0  0  0  0  0  0  0
  138.6250   76.1350  221.0010 O   0  0  0  0  0  0  0  0  0  0  0  0
  140.7450   76.8890  221.4790 N   0  0  0  0  0  0  0  0  0  0  0  0
  140.8380   77.8100  222.6210 C   0  0  0  0  0  0  0  0  0  0  0  0
  141.8050   78.9290  222.1830 C   0  0  0  0  0  0  0  0  0  0  0  0
  141.7150   78.7950  220.6440 C   0  0  0  0  0  0  0  0  0  0  0  0
  141.8190   77.2880  220.5850 C   0  0  2  0  0  0  0  0  0  0  0  0
  141.8370   76.6960  219.2390 C   0  0  0  0  0  0  0  0  0  0  0  0
  143.3120   76.3830  218.9050 C   0  0  0  0  0  0  0  0  0  0  0  0
  143.6770   75.0520  219.4710 C   0  0  0  0  0  0  0  0  0  0  0  0
  144.6280   74.9070  220.4690 C   0  0  0  0  0  0  0  0  0  0  0  0
  144.8790   73.6230  220.9130 C   0  0  0  0  0  0  0  0  0  0  0  0
  144.2260   72.5140  220.3990 C   0  0  0  0  0  0  0  0  0  0  0  0
  143.2810   72.6740  219.4040 C   0  0  0  0  0  0  0  0  0  0  0  0
  143.0100   73.9430  218.9430 C   0  0  0  0  0  0  0  0  0  0  0  0
  140.3000   71.5230  223.6770 C   0  0  0  0  0  0  0  0  0  0  0  0
  139.6050   70.3590  223.4300 C   0  0  0  0  0  0  0  0  0  0  0  0
  139.3450   69.5380  224.5090 C   0  0  0  0  0  0  0  0  0  0  0  0
  139.7780   69.8910  225.7870 C   0  0  0  0  0  0  0  0  0  0  0  0
  139.5300   69.0850  226.8830 C   0  0  0  0  0  0  0  0  0  0  0  0
  139.9870   69.4890  228.1360 C   0  0  0  0  0  0  0  0  0  0  0  0
  140.6710   70.6500  228.3400 C   0  0  0  0  0  0  0  0  0  0  0  0
  140.9200   71.4600  227.2350 C   0  0  0  0  0  0  0  0  0  0  0  0
  140.4690   71.0620  225.9920 C   0  0  0  0  0  0  0  0  0  0  0  0
  140.7050   71.8400  224.9200 N   0  0  0  0  0  0  0  0  0  0  0  0
  139.0840   73.7580  223.0820 H   0  0  0  0  0  0  0  0  0  0  0  0
  141.1881   74.2414  221.0284 H   0  0  0  0  0  0  0  0  0  0  0  0
  139.4246   74.0154  220.4383 H   0  0  0  0  0  0  0  0  0  0  0  0
  139.8486   78.2294  222.8560 H   0  0  0  0  0  0  0  0  0  0  0  0
  141.1966   77.2971  223.5257 H   0  0  0  0  0  0  0  0  0  0  0  0
  141.4637   79.9172  222.5250 H   0  0  0  0  0  0  0  0  0  0  0  0
  142.8225   78.8408  222.5916 H   0  0  0  0  0  0  0  0  0  0  0  0
  140.7602   79.1671  220.2441 H   0  0  0  0  0  0  0  0  0  0  0  0
  142.4509   79.3631  220.0561 H   0  0  0  0  0  0  0  0  0  0  0  0
  142.7954   76.8956  220.9055 H   0  0  0  0  0  0  0  0  0  0  0  0
  141.2417   75.7711  219.2248 H   0  0  0  0  0  0  0  0  0  0  0  0
  141.4044   77.3864  218.4999 H   0  0  0  0  0  0  0  0  0  0  0  0
  143.4455   76.3665  217.8132 H   0  0  0  0  0  0  0  0  0  0  0  0
  143.9597   77.1577  219.3413 H   0  0  0  0  0  0  0  0  0  0  0  0
  145.1586   75.7746  220.8883 H   0  0  0  0  0  0  0  0  0  0  0  0
  145.6269   73.4751  221.7060 H   0  0  0  0  0  0  0  0  0  0  0  0
  144.4593   71.5096  220.7820 H   0  0  0  0  0  0  0  0  0  0  0  0
  142.7542   71.8029  218.9873 H   0  0  0  0  0  0  0  0  0  0  0  0
  142.2604   74.0854  218.1506 H   0  0  0  0  0  0  0  0  0  0  0  0
  139.2714   70.0951  222.4156 H   0  0  0  0  0  0  0  0  0  0  0  0
  138.7924   68.5987  224.3598 H   0  0  0  0  0  0  0  0  0  0  0  0
  138.9803   68.1392  226.7675 H   0  0  0  0  0  0  0  0  0  0  0  0
  139.7862   68.8402  229.0013 H   0  0  0  0  0  0  0  0  0  0  0  0
  141.0151   70.9377  229.3444 H   0  0  0  0  0  0  0  0  0  0  0  0
  141.4695   72.4058  227.3509 H   0  0  0  0  0  0  0  0  0  0  0  0
  1  2  2  0
  2  3  1  0
  3  4  1  0
  4  5  1  0
  5  6  2  0
  5  7  1  0
  7  8  1  0
  8  9  1  0
  9 10  1  0
 10 11  1  0
 11 12  1  0
 12 13  1  0
 13 14  1  0
 14 15  2  0
 15 16  1  0
 16 17  2  0
 17 18  1  0
 18 19  2  0
  2 20  1  0
 20 21  2  0
 21 22  1  0
 22 23  2  0
 23 24  1  0
 24 25  2  0
 25 26  1  0
 26 27  2  0
 27 28  1  0
 28 29  2  0
 11  7  1  0
 19 14  1  0
 29 20  1  0
 28 23  1  0
  3 30  1  0
  4 31  1  0
  4 32  1  0
  8 33  1  0
  8 34  1  0
  9 35  1  0
  9 36  1  0
 10 37  1  0
 10 38  1  0
 11 39  1  1
 12 40  1  0
 12 41  1  0
 13 42  1  0
 13 43  1  0
 15 44  1  0
 16 45  1  0
 17 46  1  0
 18 47  1  0
 19 48  1  0
 21 49  1  0
 22 50  1  0
 24 51  1  0
 25 52  1  0
 26 53  1  0
 27 54  1  0
M  END
>  <smiles>  (36) 
O=C(NCC(=O)N1CCCC1CCc1ccccc1)c1ccc2ccccc2n1

>  <score_type>  (36) 
oracle

>  <origin>  (36) 
autodockgpu

>  <m_score__min__energy>  (36) 
-9.2100000000000009

>  <m_primary>  (36) 
energy

>  <rmsd>  (36) 
2.4260724486209706

>  <m_score__min__rmsd>  (36) 
2.4260724486209706

>  <meeko>  (36) 
{"free_energy": -8.37, "intermolecular_energy": -10.46, "internal_energy": -1.87, "cluster_size": 5, "cluster_id": 3, "rank_in_cluster": 1}

>  <energy>  (36) 
-8.59

>  <cluster_rmsd>  (36) 
0.95

>  <cluster>  (36) 
2

$$$$

     RDKit          3D

 54 57  0  0  0  0  0  0  0  0999 V2000
  140.7450   71.4030  221.3310 O   0  0  0  0  0  0  0  0  0  0  0  0
  140.2260   71.9140  222.3570 C   0  0  0  0  0  0  0  0  0  0  0  0
  139.6860   73.2630  222.2280 N   0  0  0  0  0  0  0  0  0  0  0  0
  139.8110   73.8540  220.9400 C   0  0  0  0  0  0  0  0  0  0  0  0
  141.0510   74.5520  220.5900 C   0  0  0  0  0  0  0  0  0  0  0  0
  142.1130   73.8150  220.7580 O   0  0  0  0  0  0  0  0  0  0  0  0
  141.2560   75.8510  220.1180 N   0  0  0  0  0  0  0  0  0  0  0  0
  141.7570   76.3240  218.8190 C   0  0  0  0  0  0  0  0  0  0  0  0
  142.0250   77.8340  218.9950 C   0  0  0  0  0  0  0  0  0  0  0  0
  142.1610   77.9200  220.5350 C   0  0  0  0  0  0  0  0  0  0  0  0
  140.9650   77.0580  220.8720 C   0  0  2  0  0  0  0  0  0  0  0  0
  140.6630   76.9080  222.3030 C   0  0  0  0  0  0  0  0  0  0  0  0
  139.8060   78.1250  222.7130 C   0  0  0  0  0  0  0  0  0  0  0  0
  140.7000   79.2700  223.0550 C   0  0  0  0  0  0  0  0  0  0  0  0
  141.8280   79.1180  223.8460 C   0  0  0  0  0  0  0  0  0  0  0  0
  142.5780   80.2530  224.0920 C   0  0  0  0  0  0  0  0  0  0  0  0
  142.2390   81.4960  223.5830 C   0  0  0  0  0  0  0  0  0  0  0  0
  141.1120   81.6320  222.7950 C   0  0  0  0  0  0  0  0  0  0  0  0
  140.3460   80.5170  222.5340 C   0  0  0  0  0  0  0  0  0  0  0  0
  140.1410   71.2320  223.6410 C   0  0  0  0  0  0  0  0  0  0  0  0
  139.5450   69.9890  223.6490 C   0  0  0  0  0  0  0  0  0  0  0  0
  139.4620   69.3380  224.8630 C   0  0  0  0  0  0  0  0  0  0  0  0
  139.9670   69.9310  226.0210 C   0  0  0  0  0  0  0  0  0  0  0  0
  139.8950   69.2980  227.2480 C   0  0  0  0  0  0  0  0  0  0  0  0
  140.4160   69.9380  228.3700 C   0  0  0  0  0  0  0  0  0  0  0  0
  140.9990   71.1690  228.3210 C   0  0  0  0  0  0  0  0  0  0  0  0
  141.0710   71.8050  227.0840 C   0  0  0  0  0  0  0  0  0  0  0  0
  140.5550   71.1730  225.9700 C   0  0  0  0  0  0  0  0  0  0  0  0
  140.6200   71.7810  224.7720 N   0  0  0  0  0  0  0  0  0  0  0  0
  139.2860   73.6380  223.0890 H   0  0  0  0  0  0  0  0  0  0  0  0
  139.6766   73.0488  220.2027 H   0  0  0  0  0  0  0  0  0  0  0  0
  139.0543   74.6523  220.9444 H   0  0  0  0  0  0  0  0  0  0  0  0
  142.6861   75.7987  218.5527 H   0  0  0  0  0  0  0  0  0  0  0  0
  141.0337   76.1329  218.0126 H   0  0  0  0  0  0  0  0  0  0  0  0
  142.9506   78.1438  218.4878 H   0  0  0  0  0  0  0  0  0  0  0  0
  141.2525   78.4893  218.5662 H   0  0  0  0  0  0  0  0  0  0  0  0
  143.1059   77.4902  220.8990 H   0  0  0  0  0  0  0  0  0  0  0  0
  142.1806   78.9290  220.9727 H   0  0  0  0  0  0  0  0  0  0  0  0
  140.0003   77.5036  220.5878 H   0  0  0  0  0  0  0  0  0  0  0  0
  140.1037   75.9767  222.4755 H   0  0  0  0  0  0  0  0  0  0  0  0
  141.5878   76.8610  222.8967 H   0  0  0  0  0  0  0  0  0  0  0  0
  139.1493   78.4093  221.8776 H   0  0  0  0  0  0  0  0  0  0  0  0
  139.1932   77.8639  223.5884 H   0  0  0  0  0  0  0  0  0  0  0  0
  142.1133   78.1392  224.2590 H   0  0  0  0  0  0  0  0  0  0  0  0
  143.4794   80.1656  224.7164 H   0  0  0  0  0  0  0  0  0  0  0  0
  142.8653   82.3725  223.8055 H   0  0  0  0  0  0  0  0  0  0  0  0
  140.8315   82.6128  222.3835 H   0  0  0  0  0  0  0  0  0  0  0  0
  139.4458   80.6096  221.9086 H   0  0  0  0  0  0  0  0  0  0  0  0
  139.1523   69.5354  222.7270 H   0  0  0  0  0  0  0  0  0  0  0  0
  138.9942   68.3440  224.9184 H   0  0  0  0  0  0  0  0  0  0  0  0
  139.4331   68.3036  227.3368 H   0  0  0  0  0  0  0  0  0  0  0  0
  140.3540   69.4258  229.3415 H   0  0  0  0  0  0  0  0  0  0  0  0
  141.3994   71.6445  229.2285 H   0  0  0  0  0  0  0  0  0  0  0  0
  141.5335   72.7991  226.9955 H   0  0  0  0  0  0  0  0  0  0  0  0
  1  2  2  0
  2  3  1  0
  3  4  1  0
  4  5  1  0
  5  6  2  0
  5  7  1  0
  7  8  1  0
  8  9  1  0
  9 10  1  0
 10 11  1  0
 11 12  1  0
 12 13  1  0
 13 14  1  0
 14 15  2  0
 15 16  1  0
 16 17  2  0
 17 18  1  0
 18 19  2  0
  2 20  1  0
 20 21  2  0
 21 22  1  0
 22 23  2  0
 23 24  1  0
 24 25  2  0
 25 26  1  0
 26 27  2  0
 27 28  1  0
 28 29  2  0
 11  7  1  0
 19 14  1  0
 29 20  1  0
 28 23  1  0
  3 30  1  0
  4 31  1  0
  4 32  1  0
  8 33  1  0
  8 34  1  0
  9 35  1  0
  9 36  1  0
 10 37  1  0
 10 38  1  0
 11 39  1  6
 12 40  1  0
 12 41  1  0
 13 42  1  0
 13 43  1  0
 15 44  1  0
 16 45  1  0
 17 46  1  0
 18 47  1  0
 19 48  1  0
 21 49  1  0
 22 50  1  0
 24 51  1  0
 25 52  1  0
 26 53  1  0
 27 54  1  0
M  END
>  <smiles>  (37) 
O=C(NCC(=O)N1CCCC1CCc1ccccc1)c1ccc2ccccc2n1

>  <score_type>  (37) 
oracle

>  <origin>  (37) 
autodockgpu

>  <m_score__min__energy>  (37) 
-9.2100000000000009

>  <m_primary>  (37) 
energy

>  <rmsd>  (37) 
2.6323993347319132

>  <m_score__min__rmsd>  (37) 
2.6323993347319132

>  <meeko>  (37) 
{"free_energy": -9.04, "intermolecular_energy": -11.13, "internal_energy": -1.46, "cluster_size": 20, "cluster_id": 1, "rank_in_cluster": 5}

>  <energy>  (37) 
-8.59

>  <cluster_rmsd>  (37) 
1.12

>  <cluster>  (37) 
2

$$$$

     RDKit          3D

 54 57  0  0  0  0  0  0  0  0999 V2000
  140.7120   71.1980  221.5070 O   0  0  0  0  0  0  0  0  0  0  0  0
  140.1340   71.5570  222.5650 C   0  0  0  0  0  0  0  0  0  0  0  0
  139.5490   72.8930  222.5830 N   0  0  0  0  0  0  0  0  0  0  0  0
  139.7030   73.6460  221.3870 C   0  0  0  0  0  0  0  0  0  0  0  0
  140.6820   74.7360  221.3480 C   0  0  0  0  0  0  0  0  0  0  0  0
  140.4210   75.6840  222.2040 O   0  0  0  0  0  0  0  0  0  0  0  0
  141.8190   74.9040  220.5520 N   0  0  0  0  0  0  0  0  0  0  0  0
  143.0880   74.1610  220.5360 C   0  0  0  0  0  0  0  0  0  0  0  0
  144.0460   74.9820  219.6470 C   0  0  0  0  0  0  0  0  0  0  0  0
  143.3710   76.3730  219.7150 C   0  0  0  0  0  0  0  0  0  0  0  0
  141.9510   75.8980  219.5020 C   0  0  2  0  0  0  0  0  0  0  0  0
  140.9250   76.9490  219.4300 C   0  0  0  0  0  0  0  0  0  0  0  0
  141.6110   78.2770  219.8200 C   0  0  0  0  0  0  0  0  0  0  0  0
  141.2220   78.6470  221.2120 C   0  0  0  0  0  0  0  0  0  0  0  0
  139.9110   78.5780  221.6570 C   0  0  0  0  0  0  0  0  0  0  0  0
  139.6750   78.9460  222.9680 C   0  0  0  0  0  0  0  0  0  0  0  0
  140.6850   79.3690  223.8180 C   0  0  0  0  0  0  0  0  0  0  0  0
  141.9870   79.4320  223.3600 C   0  0  0  0  0  0  0  0  0  0  0  0
  142.2510   79.0710  222.0570 C   0  0  0  0  0  0  0  0  0  0  0  0
  140.0240   70.7150  223.7480 C   0  0  0  0  0  0  0  0  0  0  0  0
  139.3260   69.5340  223.6110 C   0  0  0  0  0  0  0  0  0  0  0  0
  139.2190   68.7310  224.7290 C   0  0  0  0  0  0  0  0  0  0  0  0
  139.8000   69.1190  225.9370 C   0  0  0  0  0  0  0  0  0  0  0  0
  139.7050   68.3320  227.0700 C   0  0  0  0  0  0  0  0  0  0  0  0
  140.3060   68.7690  228.2480 C   0  0  0  0  0  0  0  0  0  0  0  0
  140.9880   69.9450  228.3440 C   0  0  0  0  0  0  0  0  0  0  0  0
  141.0820   70.7360  227.2020 C   0  0  0  0  0  0  0  0  0  0  0  0
  140.4880   70.3050  226.0330 C   0  0  0  0  0  0  0  0  0  0  0  0
  140.5750   71.0640  224.9250 N   0  0  0  0  0  0  0  0  0  0  0  0
  139.1010   73.1420  223.4660 H   0  0  0  0  0  0  0  0  0  0  0  0
  139.9811   72.9361  220.5941 H   0  0  0  0  0  0  0  0  0  0  0  0
  138.7365   74.1592  221.2753 H   0  0  0  0  0  0  0  0  0  0  0  0
  143.4927   74.0724  221.5550 H   0  0  0  0  0  0  0  0  0  0  0  0
  142.9538   73.1396  220.1503 H   0  0  0  0  0  0  0  0  0  0  0  0
  145.0650   75.0044  220.0607 H   0  0  0  0  0  0  0  0  0  0  0  0
  144.1793   74.5864  218.6293 H   0  0  0  0  0  0  0  0  0  0  0  0
  143.5098   76.8611  220.6910 H   0  0  0  0  0  0  0  0  0  0  0  0
  143.7450   77.1368  219.0174 H   0  0  0  0  0  0  0  0  0  0  0  0
  141.7668   75.4762  218.5029 H   0  0  0  0  0  0  0  0  0  0  0  0
  140.5245   77.0166  218.4077 H   0  0  0  0  0  0  0  0  0  0  0  0
  140.0868   76.7265  220.1067 H   0  0  0  0  0  0  0  0  0  0  0  0
  142.7029   78.1560  219.7642 H   0  0  0  0  0  0  0  0  0  0  0  0
  141.2944   79.0707  219.1273 H   0  0  0  0  0  0  0  0  0  0  0  0
  139.0961   78.2457  220.9971 H   0  0  0  0  0  0  0  0  0  0  0  0
  138.6452   78.9015  223.3521 H   0  0  0  0  0  0  0  0  0  0  0  0
  140.4505   79.6537  224.8543 H   0  0  0  0  0  0  0  0  0  0  0  0
  142.7985   79.7645  224.0241 H   0  0  0  0  0  0  0  0  0  0  0  0
  143.2826   79.1170  221.6778 H   0  0  0  0  0  0  0  0  0  0  0  0
  138.8734   69.2437  222.6514 H   0  0  0  0  0  0  0  0  0  0  0  0
  138.6719   67.7787  224.6671 H   0  0  0  0  0  0  0  0  0  0  0  0
  139.1630   67.3753  227.0414 H   0  0  0  0  0  0  0  0  0  0  0  0
  140.2264   68.1349  229.1433 H   0  0  0  0  0  0  0  0  0  0  0  0
  141.4489   70.2589  229.2922 H   0  0  0  0  0  0  0  0  0  0  0  0
  141.6233   71.6932  227.2311 H   0  0  0  0  0  0  0  0  0  0  0  0
  1  2  2  0
  2  3  1  0
  3  4  1  0
  4  5  1  0
  5  6  2  0
  5  7  1  0
  7  8  1  0
  8  9  1  0
  9 10  1  0
 10 11  1  0
 11 12  1  0
 12 13  1  0
 13 14  1  0
 14 15  2  0
 15 16  1  0
 16 17  2  0
 17 18  1  0
 18 19  2  0
  2 20  1  0
 20 21  2  0
 21 22  1  0
 22 23  2  0
 23 24  1  0
 24 25  2  0
 25 26  1  0
 26 27  2  0
 27 28  1  0
 28 29  2  0
 11  7  1  0
 19 14  1  0
 29 20  1  0
 28 23  1  0
  3 30  1  0
  4 31  1  0
  4 32  1  0
  8 33  1  0
  8 34  1  0
  9 35  1  0
  9 36  1  0
 10 37  1  0
 10 38  1  0
 11 39  1  6
 12 40  1  0
 12 41  1  0
 13 42  1  0
 13 43  1  0
 15 44  1  0
 16 45  1  0
 17 46  1  0
 18 47  1  0
 19 48  1  0
 21 49  1  0
 22 50  1  0
 24 51  1  0
 25 52  1  0
 26 53  1  0
 27 54  1  0
M  END
>  <smiles>  (38) 
O=C(NCC(=O)N1CCCC1CCc1ccccc1)c1ccc2ccccc2n1

>  <score_type>  (38) 
oracle

>  <origin>  (38) 
autodockgpu

>  <m_score__min__energy>  (38) 
-9.2100000000000009

>  <m_primary>  (38) 
energy

>  <rmsd>  (38) 
2.2670071910827936

>  <m_score__min__rmsd>  (38) 
2.2670071910827936

>  <meeko>  (38) 
{"free_energy": -8.61, "intermolecular_energy": -10.69, "internal_energy": -1.73, "cluster_size": 20, "cluster_id": 1, "rank_in_cluster": 17}

>  <energy>  (38) 
-8.56

>  <cluster_rmsd>  (38) 
1.24

>  <cluster>  (38) 
2

$$$$

     RDKit          3D

 54 57  0  0  0  0  0  0  0  0999 V2000
  137.7580   71.8390  222.6030 O   0  0  0  0  0  0  0  0  0  0  0  0
  138.8920   71.7120  223.1340 C   0  0  0  0  0  0  0  0  0  0  0  0
  139.9270   72.6540  222.7240 N   0  0  0  0  0  0  0  0  0  0  0  0
  139.5310   73.6200  221.7590 C   0  0  0  0  0  0  0  0  0  0  0  0
  139.9480   75.0150  221.9290 C   0  0  0  0  0  0  0  0  0  0  0  0
  141.2430   75.1550  221.9790 O   0  0  0  0  0  0  0  0  0  0  0  0
  139.1850   76.1800  222.0430 N   0  0  0  0  0  0  0  0  0  0  0  0
  138.0200   76.4770  222.8890 C   0  0  0  0  0  0  0  0  0  0  0  0
  137.4510   77.8150  222.3710 C   0  0  0  0  0  0  0  0  0  0  0  0
  138.0400   77.8360  220.9390 C   0  0  0  0  0  0  0  0  0  0  0  0
  139.4420   77.4090  221.3120 C   0  0  2  0  0  0  0  0  0  0  0  0
  140.4120   77.3510  220.2080 C   0  0  0  0  0  0  0  0  0  0  0  0
  141.8050   77.6160  220.8190 C   0  0  0  0  0  0  0  0  0  0  0  0
  141.7280   78.7830  221.7450 C   0  0  0  0  0  0  0  0  0  0  0  0
  141.7730   78.6410  223.1220 C   0  0  0  0  0  0  0  0  0  0  0  0
  141.6930   79.7970  223.8750 C   0  0  0  0  0  0  0  0  0  0  0  0
  141.5710   81.0530  223.3030 C   0  0  0  0  0  0  0  0  0  0  0  0
  141.5260   81.1800  221.9270 C   0  0  0  0  0  0  0  0  0  0  0  0
  141.6040   80.0440  221.1530 C   0  0  0  0  0  0  0  0  0  0  0  0
  139.2090   70.6880  224.1190 C   0  0  0  0  0  0  0  0  0  0  0  0
  138.8530   69.3920  223.8090 C   0  0  0  0  0  0  0  0  0  0  0  0
  139.1510   68.4170  224.7380 C   0  0  0  0  0  0  0  0  0  0  0  0
  139.7860   68.7500  225.9350 C   0  0  0  0  0  0  0  0  0  0  0  0
  140.0940   67.7900  226.8810 C   0  0  0  0  0  0  0  0  0  0  0  0
  140.7300   68.1810  228.0580 C   0  0  0  0  0  0  0  0  0  0  0  0
  141.0660   69.4730  228.3280 C   0  0  0  0  0  0  0  0  0  0  0  0
  140.7550   70.4390  227.3740 C   0  0  0  0  0  0  0  0  0  0  0  0
  140.1250   70.0540  226.2070 C   0  0  0  0  0  0  0  0  0  0  0  0
  139.8210   70.9810  225.2800 N   0  0  0  0  0  0  0  0  0  0  0  0
  140.8310   72.5050  223.1750 H   0  0  0  0  0  0  0  0  0  0  0  0
  139.9235   73.2836  220.7880 H   0  0  0  0  0  0  0  0  0  0  0  0
  138.4367   73.6601  221.8636 H   0  0  0  0  0  0  0  0  0  0  0  0
  137.2674   75.6800  222.7972 H   0  0  0  0  0  0  0  0  0  0  0  0
  138.2981   76.5407  223.9514 H   0  0  0  0  0  0  0  0  0  0  0  0
  136.3511   77.8107  222.3578 H   0  0  0  0  0  0  0  0  0  0  0  0
  137.7074   78.6908  222.9852 H   0  0  0  0  0  0  0  0  0  0  0  0
  137.5450   77.1172  220.2695 H   0  0  0  0  0  0  0  0  0  0  0  0
  137.9440   78.7786  220.3802 H   0  0  0  0  0  0  0  0  0  0  0  0
  139.9868   78.1481  221.9177 H   0  0  0  0  0  0  0  0  0  0  0  0
  140.3889   76.3576  219.7362 H   0  0  0  0  0  0  0  0  0  0  0  0
  140.1733   78.0965  219.4351 H   0  0  0  0  0  0  0  0  0  0  0  0
  142.1362   76.7272  221.3760 H   0  0  0  0  0  0  0  0  0  0  0  0
  142.5230   77.8331  220.0144 H   0  0  0  0  0  0  0  0  0  0  0  0
  141.8681   77.6525  223.5950 H   0  0  0  0  0  0  0  0  0  0  0  0
  141.7275   79.7168  224.9715 H   0  0  0  0  0  0  0  0  0  0  0  0
  141.5101   81.9465  223.9417 H   0  0  0  0  0  0  0  0  0  0  0  0
  141.4296   82.1708  221.4590 H   0  0  0  0  0  0  0  0  0  0  0  0
  141.5684   80.1292  220.0569 H   0  0  0  0  0  0  0  0  0  0  0  0
  138.3525   69.1463  222.8608 H   0  0  0  0  0  0  0  0  0  0  0  0
  138.8861   67.3691  224.5337 H   0  0  0  0  0  0  0  0  0  0  0  0
  139.8410   66.7337  226.7074 H   0  0  0  0  0  0  0  0  0  0  0  0
  140.9720   67.4097  228.8040 H   0  0  0  0  0  0  0  0  0  0  0  0
  141.5667   69.7447  229.2690 H   0  0  0  0  0  0  0  0  0  0  0  0
  141.0080   71.4953  227.5479 H   0  0  0  0  0  0  0  0  0  0  0  0
  1  2  2  0
  2  3  1  0
  3  4  1  0
  4  5  1  0
  5  6  2  0
  5  7  1  0
  7  8  1  0
  8  9  1  0
  9 10  1  0
 10 11  1  0
 11 12  1  0
 12 13  1  0
 13 14  1  0
 14 15  2  0
 15 16  1  0
 16 17  2  0
 17 18  1  0
 18 19  2  0
  2 20  1  0
 20 21  2  0
 21 22  1  0
 22 23  2  0
 23 24  1  0
 24 25  2  0
 25 26  1  0
 26 27  2  0
 27 28  1  0
 28 29  2  0
 11  7  1  0
 19 14  1  0
 29 20  1  0
 28 23  1  0
  3 30  1  0
  4 31  1  0
  4 32  1  0
  8 33  1  0
  8 34  1  0
  9 35  1  0
  9 36  1  0
 10 37  1  0
 10 38  1  0
 11 39  1  1
 12 40  1  0
 12 41  1  0
 13 42  1  0
 13 43  1  0
 15 44  1  0
 16 45  1  0
 17 46  1  0
 18 47  1  0
 19 48  1  0
 21 49  1  0
 22 50  1  0
 24 51  1  0
 25 52  1  0
 26 53  1  0
 27 54  1  0
M  END
>  <smiles>  (39) 
O=C(NCC(=O)N1CCCC1CCc1ccccc1)c1ccc2ccccc2n1

>  <score_type>  (39) 
oracle

>  <origin>  (39) 
autodockgpu

>  <m_score__min__energy>  (39) 
-9.2100000000000009

>  <m_primary>  (39) 
energy

>  <rmsd>  (39) 
2.5372615418966418

>  <m_score__min__rmsd>  (39) 
2.5372615418966418

>  <meeko>  (39) 
{"free_energy": -8.09, "intermolecular_energy": -10.18, "internal_energy": -1.58, "cluster_size": 20, "cluster_id": 1, "rank_in_cluster": 20}

>  <energy>  (39) 
-8.54

>  <cluster_rmsd>  (39) 
1.22

>  <cluster>  (39) 
2

$$$$

     RDKit          3D

 54 57  0  0  0  0  0  0  0  0999 V2000
  137.3520   76.3790  222.3340 O   0  0  0  0  0  0  0  0  0  0  0  0
  138.6020   76.5250  222.3610 C   0  0  0  0  0  0  0  0  0  0  0  0
  139.4150   75.3700  221.9990 N   0  0  0  0  0  0  0  0  0  0  0  0
  138.6920   74.1960  221.6520 C   0  0  0  0  0  0  0  0  0  0  0  0
  139.3130   72.8850  221.8620 C   0  0  0  0  0  0  0  0  0  0  0  0
  140.4910   72.9650  222.4140 O   0  0  0  0  0  0  0  0  0  0  0  0
  138.8420   71.6030  221.5670 N   0  0  0  0  0  0  0  0  0  0  0  0
  138.3930   71.0230  220.2930 C   0  0  0  0  0  0  0  0  0  0  0  0
  137.7340   69.6740  220.6530 C   0  0  0  0  0  0  0  0  0  0  0  0
  137.4030   69.9100  222.1460 C   0  0  0  0  0  0  0  0  0  0  0  0
  138.7300   70.5230  222.5330 C   0  0  2  0  0  0  0  0  0  0  0  0
  138.8910   70.8650  223.9540 C   0  0  0  0  0  0  0  0  0  0  0  0
  140.2860   70.3580  224.3830 C   0  0  0  0  0  0  0  0  0  0  0  0
  140.5100   70.6830  225.8220 C   0  0  0  0  0  0  0  0  0  0  0  0
  140.0690   69.8600  226.8460 C   0  0  0  0  0  0  0  0  0  0  0  0
  140.3380   70.2680  228.1380 C   0  0  0  0  0  0  0  0  0  0  0  0
  141.0150   71.4430  228.4240 C   0  0  0  0  0  0  0  0  0  0  0  0
  141.4490   72.2540  227.3930 C   0  0  0  0  0  0  0  0  0  0  0  0
  141.1940   71.8710  226.0950 C   0  0  0  0  0  0  0  0  0  0  0  0
  139.2580   77.7720  222.7320 C   0  0  0  0  0  0  0  0  0  0  0  0
  138.4430   78.8240  223.0910 C   0  0  0  0  0  0  0  0  0  0  0  0
  139.0590   80.0080  223.4430 C   0  0  0  0  0  0  0  0  0  0  0  0
  140.4500   80.1130  223.4280 C   0  0  0  0  0  0  0  0  0  0  0  0
  141.0900   81.2880  223.7770 C   0  0  0  0  0  0  0  0  0  0  0  0
  142.4820   81.3350  223.7440 C   0  0  0  0  0  0  0  0  0  0  0  0
  143.2540   80.2720  223.3830 C   0  0  0  0  0  0  0  0  0  0  0  0
  142.6080   79.0890  223.0330 C   0  0  0  0  0  0  0  0  0  0  0  0
  141.2290   79.0400  223.0640 C   0  0  0  0  0  0  0  0  0  0  0  0
  140.5970   77.9010  222.7270 N   0  0  0  0  0  0  0  0  0  0  0  0
  140.4210   75.5350  222.0460 H   0  0  0  0  0  0  0  0  0  0  0  0
  137.7605   74.2077  222.2369 H   0  0  0  0  0  0  0  0  0  0  0  0
  138.5905   74.2651  220.5589 H   0  0  0  0  0  0  0  0  0  0  0  0
  137.6641   71.6872  219.8057 H   0  0  0  0  0  0  0  0  0  0  0  0
  139.2301   70.8899  219.5918 H   0  0  0  0  0  0  0  0  0  0  0  0
  136.8255   69.4948  220.0592 H   0  0  0  0  0  0  0  0  0  0  0  0
  138.3606   68.7914  220.4568 H   0  0  0  0  0  0  0  0  0  0  0  0
  136.5616   70.6046  222.2860 H   0  0  0  0  0  0  0  0  0  0  0  0
  137.0787   69.0318  222.7236 H   0  0  0  0  0  0  0  0  0  0  0  0
  139.5773   69.8237  222.4769 H   0  0  0  0  0  0  0  0  0  0  0  0
  138.8262   71.9546  224.0904 H   0  0  0  0  0  0  0  0  0  0  0  0
  138.0999   70.4021  224.5622 H   0  0  0  0  0  0  0  0  0  0  0  0
  140.3407   69.2687  224.2399 H   0  0  0  0  0  0  0  0  0  0  0  0
  141.0588   70.8464  223.7712 H   0  0  0  0  0  0  0  0  0  0  0  0
  139.5291   68.9241  226.6393 H   0  0  0  0  0  0  0  0  0  0  0  0
  140.0016   69.6354  228.9727 H   0  0  0  0  0  0  0  0  0  0  0  0
  141.2063   71.7291  229.4688 H   0  0  0  0  0  0  0  0  0  0  0  0
  141.9885   73.1888  227.6052 H   0  0  0  0  0  0  0  0  0  0  0  0
  141.5324   72.5071  225.2638 H   0  0  0  0  0  0  0  0  0  0  0  0
  137.3475   78.7242  223.0968 H   0  0  0  0  0  0  0  0  0  0  0  0
  138.4489   80.8747  223.7373 H   0  0  0  0  0  0  0  0  0  0  0  0
  140.5086   82.1726  224.0763 H   0  0  0  0  0  0  0  0  0  0  0  0
  142.9813   82.2747  224.0226 H   0  0  0  0  0  0  0  0  0  0  0  0
  144.3514   80.3458  223.3685 H   0  0  0  0  0  0  0  0  0  0  0  0
  143.1898   78.2042  222.7354 H   0  0  0  0  0  0  0  0  0  0  0  0
  1  2  2  0
  2  3  1  0
  3  4  1  0
  4  5  1  0
  5  6  2  0
  5  7  1  0
  7  8  1  0
  8  9  1  0
  9 10  1  0
 10 11  1  0
 11 12  1  0
 12 13  1  0
 13 14  1  0
 14 15  2  0
 15 16  1  0
 16 17  2  0
 17 18  1  0
 18 19  2  0
  2 20  1  0
 20 21  2  0
 21 22  1  0
 22 23  2  0
 23 24  1  0
 24 25  2  0
 25 26  1  0
 26 27  2  0
 27 28  1  0
 28 29  2  0
 11  7  1  0
 19 14  1  0
 29 20  1  0
 28 23  1  0
  3 30  1  0
  4 31  1  0
  4 32  1  0
  8 33  1  0
  8 34  1  0
  9 35  1  0
  9 36  1  0
 10 37  1  0
 10 38  1  0
 11 39  1  6
 12 40  1  0
 12 41  1  0
 13 42  1  0
 13 43  1  0
 15 44  1  0
 16 45  1  0
 17 46  1  0
 18 47  1  0
 19 48  1  0
 21 49  1  0
 22 50  1  0
 24 51  1  0
 25 52  1  0
 26 53  1  0
 27 54  1  0
M  END
>  <smiles>  (40) 
O=C(NCC(=O)N1CCCC1CCc1ccccc1)c1ccc2ccccc2n1

>  <score_type>  (40) 
oracle

>  <origin>  (40) 
autodockgpu

>  <m_score__min__energy>  (40) 
-9.2100000000000009

>  <m_primary>  (40) 
energy

>  <rmsd>  (40) 
8.398121382254006

>  <m_score__min__rmsd>  (40) 
8.398121382254006

>  <meeko>  (40) 
{"free_energy": -8.52, "intermolecular_energy": -10.61, "internal_energy": -1.72, "cluster_size": 22, "cluster_id": 2, "rank_in_cluster": 20}

>  <energy>  (40) 
-8.52

>  <cluster_rmsd>  (40) 
1.23

>  <cluster>  (40) 
2

$$$$

     RDKit          3D

 54 57  0  0  0  0  0  0  0  0999 V2000
  140.3290   74.4750  220.1780 O   0  0  0  0  0  0  0  0  0  0  0  0
  140.1560   75.1910  221.1980 C   0  0  0  0  0  0  0  0  0  0  0  0
  139.3250   74.6430  222.2630 N   0  0  0  0  0  0  0  0  0  0  0  0
  138.7970   73.3440  222.0230 C   0  0  0  0  0  0  0  0  0  0  0  0
  139.6300   72.1710  222.3000 C   0  0  0  0  0  0  0  0  0  0  0  0
  140.6080   72.4260  223.1240 O   0  0  0  0  0  0  0  0  0  0  0  0
  139.5350   70.8600  221.8250 N   0  0  0  0  0  0  0  0  0  0  0  0
  139.7030   70.3250  220.4660 C   0  0  0  0  0  0  0  0  0  0  0  0
  139.2030   68.8660  220.5220 C   0  0  0  0  0  0  0  0  0  0  0  0
  138.3020   68.9250  221.7790 C   0  0  0  0  0  0  0  0  0  0  0  0
  139.2590   69.7010  222.6550 C   0  0  2  0  0  0  0  0  0  0  0  0
  138.8150   69.9440  224.0350 C   0  0  0  0  0  0  0  0  0  0  0  0
  139.8330   69.2480  224.9650 C   0  0  0  0  0  0  0  0  0  0  0  0
  140.1620   70.1520  226.1050 C   0  0  0  0  0  0  0  0  0  0  0  0
  139.6260   69.9740  227.3710 C   0  0  0  0  0  0  0  0  0  0  0  0
  140.0080   70.8770  228.3450 C   0  0  0  0  0  0  0  0  0  0  0  0
  140.8840   71.9210  228.0940 C   0  0  0  0  0  0  0  0  0  0  0  0
  141.4100   72.0860  226.8270 C   0  0  0  0  0  0  0  0  0  0  0  0
  141.0460   71.2010  225.8360 C   0  0  0  0  0  0  0  0  0  0  0  0
  140.7380   76.5170  221.3590 C   0  0  0  0  0  0  0  0  0  0  0  0
  141.1550   77.1580  220.2120 C   0  0  0  0  0  0  0  0  0  0  0  0
  141.7070   78.4150  220.3570 C   0  0  0  0  0  0  0  0  0  0  0  0
  141.8290   78.9920  221.6210 C   0  0  0  0  0  0  0  0  0  0  0  0
  142.3790   80.2490  221.7920 C   0  0  0  0  0  0  0  0  0  0  0  0
  142.4750   80.7760  223.0780 C   0  0  0  0  0  0  0  0  0  0  0  0
  142.0520   80.1090  224.1890 C   0  0  0  0  0  0  0  0  0  0  0  0
  141.4980   78.8430  224.0150 C   0  0  0  0  0  0  0  0  0  0  0  0
  141.4010   78.3190  222.7420 C   0  0  0  0  0  0  0  0  0  0  0  0
  140.8680   77.0970  222.5650 N   0  0  0  0  0  0  0  0  0  0  0  0
  139.2060   75.2650  223.0640 H   0  0  0  0  0  0  0  0  0  0  0  0
  137.8905   73.2469  222.6385 H   0  0  0  0  0  0  0  0  0  0  0  0
  138.6595   73.3152  220.9320 H   0  0  0  0  0  0  0  0  0  0  0  0
  139.1056   70.9071  219.7489 H   0  0  0  0  0  0  0  0  0  0  0  0
  140.7509   70.3808  220.1363 H   0  0  0  0  0  0  0  0  0  0  0  0
  138.6286   68.5987  219.6228 H   0  0  0  0  0  0  0  0  0  0  0  0
  140.0003   68.1094  220.5645 H   0  0  0  0  0  0  0  0  0  0  0  0
  137.3625   69.4678  221.5983 H   0  0  0  0  0  0  0  0  0  0  0  0
  137.9433   67.9628  222.1734 H   0  0  0  0  0  0  0  0  0  0  0  0
  140.1737   69.1483  222.9156 H   0  0  0  0  0  0  0  0  0  0  0  0
  138.7929   71.0245  224.2402 H   0  0  0  0  0  0  0  0  0  0  0  0
  137.8011   69.5493  224.1968 H   0  0  0  0  0  0  0  0  0  0  0  0
  139.3986   68.3140  225.3509 H   0  0  0  0  0  0  0  0  0  0  0  0
  140.7494   69.0198  224.4010 H   0  0  0  0  0  0  0  0  0  0  0  0
  138.9288   69.1519  227.5902 H   0  0  0  0  0  0  0  0  0  0  0  0
  139.6003   70.7624  229.3602 H   0  0  0  0  0  0  0  0  0  0  0  0
  141.1597   72.6161  228.9008 H   0  0  0  0  0  0  0  0  0  0  0  0
  142.1072   72.9096  226.6134 H   0  0  0  0  0  0  0  0  0  0  0  0
  141.4554   71.3211  224.8221 H   0  0  0  0  0  0  0  0  0  0  0  0
  141.0522   76.6877  219.2229 H   0  0  0  0  0  0  0  0  0  0  0  0
  142.0530   78.9653  219.4696 H   0  0  0  0  0  0  0  0  0  0  0  0
  142.7356   80.8246  220.9251 H   0  0  0  0  0  0  0  0  0  0  0  0
  142.9127   81.7774  223.2028 H   0  0  0  0  0  0  0  0  0  0  0  0
  142.1451   80.5558  225.1898 H   0  0  0  0  0  0  0  0  0  0  0  0
  141.1419   78.2675  224.8822 H   0  0  0  0  0  0  0  0  0  0  0  0
  1  2  2  0
  2  3  1  0
  3  4  1  0
  4  5  1  0
  5  6  2  0
  5  7  1  0
  7  8  1  0
  8  9  1  0
  9 10  1  0
 10 11  1  0
 11 12  1  0
 12 13  1  0
 13 14  1  0
 14 15  2  0
 15 16  1  0
 16 17  2  0
 17 18  1  0
 18 19  2  0
  2 20  1  0
 20 21  2  0
 21 22  1  0
 22 23  2  0
 23 24  1  0
 24 25  2  0
 25 26  1  0
 26 27  2  0
 27 28  1  0
 28 29  2  0
 11  7  1  0
 19 14  1  0
 29 20  1  0
 28 23  1  0
  3 30  1  0
  4 31  1  0
  4 32  1  0
  8 33  1  0
  8 34  1  0
  9 35  1  0
  9 36  1  0
 10 37  1  0
 10 38  1  0
 11 39  1  1
 12 40  1  0
 12 41  1  0
 13 42  1  0
 13 43  1  0
 15 44  1  0
 16 45  1  0
 17 46  1  0
 18 47  1  0
 19 48  1  0
 21 49  1  0
 22 50  1  0
 24 51  1  0
 25 52  1  0
 26 53  1  0
 27 54  1  0
M  END
>  <smiles>  (41) 
O=C(NCC(=O)N1CCCC1CCc1ccccc1)c1ccc2ccccc2n1

>  <score_type>  (41) 
oracle

>  <origin>  (41) 
autodockgpu

>  <m_score__min__energy>  (41) 
-9.2100000000000009

>  <m_primary>  (41) 
energy

>  <rmsd>  (41) 
8.307170731420504

>  <m_score__min__rmsd>  (41) 
8.307170731420504

>  <meeko>  (41) 
{"free_energy": -8.61, "intermolecular_energy": -10.69, "internal_energy": -1.73, "cluster_size": 22, "cluster_id": 2, "rank_in_cluster": 13}

>  <energy>  (41) 
-8.46

>  <cluster_rmsd>  (41) 
1.4

>  <cluster>  (41) 
2

$$$$

     RDKit          3D

 54 57  0  0  0  0  0  0  0  0999 V2000
  137.5840   75.9320  222.4290 O   0  0  0  0  0  0  0  0  0  0  0  0
  138.8080   76.2190  222.3660 C   0  0  0  0  0  0  0  0  0  0  0  0
  139.7220   75.1540  221.9680 N   0  0  0  0  0  0  0  0  0  0  0  0
  139.1160   73.8980  221.6920 C   0  0  0  0  0  0  0  0  0  0  0  0
  139.8440   72.6670  222.0120 C   0  0  0  0  0  0  0  0  0  0  0  0
  141.0850   72.8840  222.3480 O   0  0  0  0  0  0  0  0  0  0  0  0
  139.4180   71.3360  222.0090 N   0  0  0  0  0  0  0  0  0  0  0  0
  139.0850   70.4460  220.8870 C   0  0  0  0  0  0  0  0  0  0  0  0
  138.4180   69.2050  221.5180 C   0  0  0  0  0  0  0  0  0  0  0  0
  137.9600   69.7890  222.8760 C   0  0  0  0  0  0  0  0  0  0  0  0
  139.2410   70.5240  223.2000 C   0  0  2  0  0  0  0  0  0  0  0  0
  139.2790   71.2090  224.5000 C   0  0  0  0  0  0  0  0  0  0  0  0
  140.7120   71.0450  225.0550 C   0  0  0  0  0  0  0  0  0  0  0  0
  140.7150   69.9990  226.1190 C   0  0  0  0  0  0  0  0  0  0  0  0
  140.4080   68.6740  225.8560 C   0  0  0  0  0  0  0  0  0  0  0  0
  140.4460   67.7980  226.9250 C   0  0  0  0  0  0  0  0  0  0  0  0
  140.7710   68.2020  228.2100 C   0  0  0  0  0  0  0  0  0  0  0  0
  141.0750   69.5280  228.4570 C   0  0  0  0  0  0  0  0  0  0  0  0
  141.0450   70.4220  227.4100 C   0  0  0  0  0  0  0  0  0  0  0  0
  139.3410   77.5400  222.6690 C   0  0  0  0  0  0  0  0  0  0  0  0
  138.4260   78.5480  222.8850 C   0  0  0  0  0  0  0  0  0  0  0  0
  138.9240   79.8030  223.1720 C   0  0  0  0  0  0  0  0  0  0  0  0
  140.3010   80.0190  223.2350 C   0  0  0  0  0  0  0  0  0  0  0  0
  140.8240   81.2670  223.5210 C   0  0  0  0  0  0  0  0  0  0  0  0
  142.2080   81.4240  223.5720 C   0  0  0  0  0  0  0  0  0  0  0  0
  143.0810   80.4010  223.3510 C   0  0  0  0  0  0  0  0  0  0  0  0
  142.5530   79.1460  223.0640 C   0  0  0  0  0  0  0  0  0  0  0  0
  141.1820   78.9870  223.0140 C   0  0  0  0  0  0  0  0  0  0  0  0
  140.6630   77.7770  222.7360 N   0  0  0  0  0  0  0  0  0  0  0  0
  140.7030   75.4330  221.9430 H   0  0  0  0  0  0  0  0  0  0  0  0
  138.1704   73.8672  222.2532 H   0  0  0  0  0  0  0  0  0  0  0  0
  139.0406   73.8795  220.5947 H   0  0  0  0  0  0  0  0  0  0  0  0
  138.3897   70.9448  220.1958 H   0  0  0  0  0  0  0  0  0  0  0  0
  139.9792   70.1740  220.3069 H   0  0  0  0  0  0  0  0  0  0  0  0
  137.5650   68.8539  220.9188 H   0  0  0  0  0  0  0  0  0  0  0  0
  139.0716   68.3237  221.5957 H   0  0  0  0  0  0  0  0  0  0  0  0
  137.0997   70.4669  222.7742 H   0  0  0  0  0  0  0  0  0  0  0  0
  137.6015   69.0691  223.6264 H   0  0  0  0  0  0  0  0  0  0  0  0
  140.1000   69.8621  223.3842 H   0  0  0  0  0  0  0  0  0  0  0  0
  139.0432   72.2758  224.3720 H   0  0  0  0  0  0  0  0  0  0  0  0
  138.5386   70.7804  225.1915 H   0  0  0  0  0  0  0  0  0  0  0  0
  141.3882   70.7430  224.2416 H   0  0  0  0  0  0  0  0  0  0  0  0
  141.0534   72.0010  225.4787 H   0  0  0  0  0  0  0  0  0  0  0  0
  140.1460   68.3344  224.8431 H   0  0  0  0  0  0  0  0  0  0  0  0
  140.2089   66.7385  226.7484 H   0  0  0  0  0  0  0  0  0  0  0  0
  140.7871   67.4701  229.0310 H   0  0  0  0  0  0  0  0  0  0  0  0
  141.3362   69.8628  229.4717 H   0  0  0  0  0  0  0  0  0  0  0  0
  141.2833   71.4804  227.5914 H   0  0  0  0  0  0  0  0  0  0  0  0
  137.3435   78.3601  222.8309 H   0  0  0  0  0  0  0  0  0  0  0  0
  138.2309   80.6380  223.3522 H   0  0  0  0  0  0  0  0  0  0  0  0
  140.1578   82.1227  223.7054 H   0  0  0  0  0  0  0  0  0  0  0  0
  142.6146   82.4200  223.8013 H   0  0  0  0  0  0  0  0  0  0  0  0
  144.1681   80.5623  223.3980 H   0  0  0  0  0  0  0  0  0  0  0  0
  143.2196   78.2907  222.8791 H   0  0  0  0  0  0  0  0  0  0  0  0
  1  2  2  0
  2  3  1  0
  3  4  1  0
  4  5  1  0
  5  6  2  0
  5  7  1  0
  7  8  1  0
  8  9  1  0
  9 10  1  0
 10 11  1  0
 11 12  1  0
 12 13  1  0
 13 14  1  0
 14 15  2  0
 15 16  1  0
 16 17  2  0
 17 18  1  0
 18 19  2  0
  2 20  1  0
 20 21  2  0
 21 22  1  0
 22 23  2  0
 23 24  1  0
 24 25  2  0
 25 26  1  0
 26 27  2  0
 27 28  1  0
 28 29  2  0
 11  7  1  0
 19 14  1  0
 29 20  1  0
 28 23  1  0
  3 30  1  0
  4 31  1  0
  4 32  1  0
  8 33  1  0
  8 34  1  0
  9 35  1  0
  9 36  1  0
 10 37  1  0
 10 38  1  0
 11 39  1  1
 12 40  1  0
 12 41  1  0
 13 42  1  0
 13 43  1  0
 15 44  1  0
 16 45  1  0
 17 46  1  0
 18 47  1  0
 19 48  1  0
 21 49  1  0
 22 50  1  0
 24 51  1  0
 25 52  1  0
 26 53  1  0
 27 54  1  0
M  END
>  <smiles>  (42) 
O=C(NCC(=O)N1CCCC1CCc1ccccc1)c1ccc2ccccc2n1

>  <score_type>  (42) 
oracle

>  <origin>  (42) 
autodockgpu

>  <m_score__min__energy>  (42) 
-9.2100000000000009

>  <m_primary>  (42) 
energy

>  <rmsd>  (42) 
8.401448235585818

>  <m_score__min__rmsd>  (42) 
8.401448235585818

>  <meeko>  (42) 
{"free_energy": -8.59, "intermolecular_energy": -10.68, "internal_energy": -1.76, "cluster_size": 22, "cluster_id": 2, "rank_in_cluster": 16}

>  <energy>  (42) 
-8.4

>  <cluster_rmsd>  (42) 
0.96

>  <cluster>  (42) 
2

$$$$

     RDKit          3D

 54 57  0  0  0  0  0  0  0  0999 V2000
  139.9380   73.6220  222.5820 O   0  0  0  0  0  0  0  0  0  0  0  0
  140.2200   72.3960  222.5400 C   0  0  0  0  0  0  0  0  0  0  0  0
  140.6280   71.8500  221.2510 N   0  0  0  0  0  0  0  0  0  0  0  0
  140.6610   72.7780  220.1750 C   0  0  0  0  0  0  0  0  0  0  0  0
  141.7580   73.7470  220.0980 C   0  0  0  0  0  0  0  0  0  0  0  0
  142.4860   73.7760  221.1790 O   0  0  0  0  0  0  0  0  0  0  0  0
  142.1260   74.6180  219.0690 N   0  0  0  0  0  0  0  0  0  0  0  0
  142.6220   74.3360  217.7140 C   0  0  0  0  0  0  0  0  0  0  0  0
  143.1170   75.6870  217.1560 C   0  0  0  0  0  0  0  0  0  0  0  0
  143.3450   76.4700  218.4720 C   0  0  0  0  0  0  0  0  0  0  0  0
  142.0550   76.0670  219.1500 C   0  0  2  0  0  0  0  0  0  0  0  0
  141.8100   76.6610  220.4730 C   0  0  0  0  0  0  0  0  0  0  0  0
  141.6460   78.1820  220.2590 C   0  0  0  0  0  0  0  0  0  0  0  0
  141.7680   78.8830  221.5700 C   0  0  0  0  0  0  0  0  0  0  0  0
  141.4640   78.2650  222.7730 C   0  0  0  0  0  0  0  0  0  0  0  0
  141.6180   79.0180  223.9210 C   0  0  0  0  0  0  0  0  0  0  0  0
  142.0540   80.3330  223.8990 C   0  0  0  0  0  0  0  0  0  0  0  0
  142.3530   80.9370  222.6920 C   0  0  0  0  0  0  0  0  0  0  0  0
  142.2080   80.2090  221.5310 C   0  0  0  0  0  0  0  0  0  0  0  0
  140.1570   71.5170  223.7000 C   0  0  0  0  0  0  0  0  0  0  0  0
  139.5900   70.2750  223.5110 C   0  0  0  0  0  0  0  0  0  0  0  0
  139.5270   69.4370  224.6060 C   0  0  0  0  0  0  0  0  0  0  0  0
  140.0230   69.8510  225.8430 C   0  0  0  0  0  0  0  0  0  0  0  0
  139.9710   69.0290  226.9540 C   0  0  0  0  0  0  0  0  0  0  0  0
  140.4830   69.4950  228.1630 C   0  0  0  0  0  0  0  0  0  0  0  0
  141.0360   70.7320  228.3100 C   0  0  0  0  0  0  0  0  0  0  0  0
  141.0870   71.5580  227.1900 C   0  0  0  0  0  0  0  0  0  0  0  0
  140.5820   71.0980  225.9900 C   0  0  0  0  0  0  0  0  0  0  0  0
  140.6270   71.8900  224.9030 N   0  0  0  0  0  0  0  0  0  0  0  0
  140.8360   70.8510  221.2670 H   0  0  0  0  0  0  0  0  0  0  0  0
  140.6854   72.1908  219.2452 H   0  0  0  0  0  0  0  0  0  0  0  0
  139.7717   73.4034  220.3425 H   0  0  0  0  0  0  0  0  0  0  0  0
  143.4489   73.6116  217.7521 H   0  0  0  0  0  0  0  0  0  0  0  0
  141.8370   73.8996  217.0789 H   0  0  0  0  0  0  0  0  0  0  0  0
  144.0500   75.5729  216.5846 H   0  0  0  0  0  0  0  0  0  0  0  0
  142.4274   76.1708  216.4486 H   0  0  0  0  0  0  0  0  0  0  0  0
  144.2343   76.1240  219.0192 H   0  0  0  0  0  0  0  0  0  0  0  0
  143.5356   77.5492  218.3768 H   0  0  0  0  0  0  0  0  0  0  0  0
  141.1528   76.4680  218.6650 H   0  0  0  0  0  0  0  0  0  0  0  0
  140.8939   76.2400  220.9128 H   0  0  0  0  0  0  0  0  0  0  0  0
  142.6419   76.4477  221.1604 H   0  0  0  0  0  0  0  0  0  0  0  0
  142.4288   78.5429  219.5756 H   0  0  0  0  0  0  0  0  0  0  0  0
  140.6570   78.3871  219.8234 H   0  0  0  0  0  0  0  0  0  0  0  0
  141.1159   77.2222  222.8118 H   0  0  0  0  0  0  0  0  0  0  0  0
  141.3852   78.5551  224.8913 H   0  0  0  0  0  0  0  0  0  0  0  0
  142.1619   80.8945  224.8388 H   0  0  0  0  0  0  0  0  0  0  0  0
  142.7005   81.9801  222.6589 H   0  0  0  0  0  0  0  0  0  0  0  0
  142.4411   80.6766  220.5630 H   0  0  0  0  0  0  0  0  0  0  0  0
  139.2039   69.9647  222.5288 H   0  0  0  0  0  0  0  0  0  0  0  0
  139.0828   68.4360  224.5029 H   0  0  0  0  0  0  0  0  0  0  0  0
  139.5321   68.0228  226.8842 H   0  0  0  0  0  0  0  0  0  0  0  0
  140.4389   68.8332  229.0405 H   0  0  0  0  0  0  0  0  0  0  0  0
  141.4290   71.0669  229.2813 H   0  0  0  0  0  0  0  0  0  0  0  0
  141.5244   72.5649  227.2604 H   0  0  0  0  0  0  0  0  0  0  0  0
  1  2  2  0
  2  3  1  0
  3  4  1  0
  4  5  1  0
  5  6  2  0
  5  7  1  0
  7  8  1  0
  8  9  1  0
  9 10  1  0
 10 11  1  0
 11 12  1  0
 12 13  1  0
 13 14  1  0
 14 15  2  0
 15 16  1  0
 16 17  2  0
 17 18  1  0
 18 19  2  0
  2 20  1  0
 20 21  2  0
 21 22  1  0
 22 23  2  0
 23 24  1  0
 24 25  2  0
 25 26  1  0
 26 27  2  0
 27 28  1  0
 28 29  2  0
 11  7  1  0
 19 14  1  0
 29 20  1  0
 28 23  1  0
  3 30  1  0
  4 31  1  0
  4 32  1  0
  8 33  1  0
  8 34  1  0
  9 35  1  0
  9 36  1  0
 10 37  1  0
 10 38  1  0
 11 39  1  6
 12 40  1  0
 12 41  1  0
 13 42  1  0
 13 43  1  0
 15 44  1  0
 16 45  1  0
 17 46  1  0
 18 47  1  0
 19 48  1  0
 21 49  1  0
 22 50  1  0
 24 51  1  0
 25 52  1  0
 26 53  1  0
 27 54  1  0
M  END
>  <smiles>  (43) 
O=C(NCC(=O)N1CCCC1CCc1ccccc1)c1ccc2ccccc2n1

>  <score_type>  (43) 
oracle

>  <origin>  (43) 
autodockgpu

>  <m_score__min__energy>  (43) 
-9.2100000000000009

>  <m_primary>  (43) 
energy

>  <rmsd>  (43) 
2.58796306010256

>  <m_score__min__rmsd>  (43) 
2.58796306010256

>  <meeko>  (43) 
{"free_energy": -8.63, "intermolecular_energy": -10.72, "internal_energy": -1.24, "cluster_size": 20, "cluster_id": 1, "rank_in_cluster": 15}

>  <energy>  (43) 
-8.37

>  <cluster_rmsd>  (43) 
0.0

>  <cluster>  (43) 
3

$$$$

     RDKit          3D

 54 57  0  0  0  0  0  0  0  0999 V2000
  137.8780   75.7410  222.4830 O   0  0  0  0  0  0  0  0  0  0  0  0
  139.0600   76.1410  222.3200 C   0  0  0  0  0  0  0  0  0  0  0  0
  140.0000   75.2100  221.7080 N   0  0  0  0  0  0  0  0  0  0  0  0
  139.4660   73.9380  221.3610 C   0  0  0  0  0  0  0  0  0  0  0  0
  140.0290   72.7340  221.9770 C   0  0  0  0  0  0  0  0  0  0  0  0
  141.3320   72.7240  221.9740 O   0  0  0  0  0  0  0  0  0  0  0  0
  139.3940   71.6270  222.5470 N   0  0  0  0  0  0  0  0  0  0  0  0
  138.2880   70.7990  222.0440 C   0  0  0  0  0  0  0  0  0  0  0  0
  137.8480   69.9170  223.2310 C   0  0  0  0  0  0  0  0  0  0  0  0
  138.3980   70.7430  224.4180 C   0  0  0  0  0  0  0  0  0  0  0  0
  139.7570   71.0340  223.8230 C   0  0  2  0  0  0  0  0  0  0  0  0
  140.6880   71.7850  224.6790 C   0  0  0  0  0  0  0  0  0  0  0  0
  141.6090   70.7490  225.3610 C   0  0  0  0  0  0  0  0  0  0  0  0
  140.9140   70.1740  226.5490 C   0  0  0  0  0  0  0  0  0  0  0  0
  140.2490   70.9630  227.4730 C   0  0  0  0  0  0  0  0  0  0  0  0
  139.6430   70.3140  228.5320 C   0  0  0  0  0  0  0  0  0  0  0  0
  139.6850   68.9370  228.6850 C   0  0  0  0  0  0  0  0  0  0  0  0
  140.3520   68.1620  227.7560 C   0  0  0  0  0  0  0  0  0  0  0  0
  140.9650   68.7840  226.6900 C   0  0  0  0  0  0  0  0  0  0  0  0
  139.5210   77.4680  222.7080 C   0  0  0  0  0  0  0  0  0  0  0  0
  138.5540   78.3860  223.0570 C   0  0  0  0  0  0  0  0  0  0  0  0
  138.9840   79.6450  223.4250 C   0  0  0  0  0  0  0  0  0  0  0  0
  140.3450   79.9530  223.4360 C   0  0  0  0  0  0  0  0  0  0  0  0
  140.8000   81.2070  223.8010 C   0  0  0  0  0  0  0  0  0  0  0  0
  142.1700   81.4570  223.7940 C   0  0  0  0  0  0  0  0  0  0  0  0
  143.0960   80.5200  223.4410 C   0  0  0  0  0  0  0  0  0  0  0  0
  142.6360   79.2590  223.0740 C   0  0  0  0  0  0  0  0  0  0  0  0
  141.2780   79.0080  223.0810 C   0  0  0  0  0  0  0  0  0  0  0  0
  140.8260   77.7910  222.7270 N   0  0  0  0  0  0  0  0  0  0  0  0
  140.9470   75.5770  221.6060 H   0  0  0  0  0  0  0  0  0  0  0  0
  138.3959   73.9586  221.6151 H   0  0  0  0  0  0  0  0  0  0  0  0
  139.7194   73.8298  220.2961 H   0  0  0  0  0  0  0  0  0  0  0  0
  137.4549   71.4349  221.7101 H   0  0  0  0  0  0  0  0  0  0  0  0
  138.5980   70.1909  221.1814 H   0  0  0  0  0  0  0  0  0  0  0  0
  136.7536   69.8173  223.2786 H   0  0  0  0  0  0  0  0  0  0  0  0
  138.2103   68.8792  223.1889 H   0  0  0  0  0  0  0  0  0  0  0  0
  137.8141   71.6570  224.6015 H   0  0  0  0  0  0  0  0  0  0  0  0
  138.3855   70.2570  225.4048 H   0  0  0  0  0  0  0  0  0  0  0  0
  140.3902   70.1425  223.7034 H   0  0  0  0  0  0  0  0  0  0  0  0
  141.2858   72.4787  224.0696 H   0  0  0  0  0  0  0  0  0  0  0  0
  140.1421   72.3782  225.4274 H   0  0  0  0  0  0  0  0  0  0  0  0
  141.8461   69.9443  224.6495 H   0  0  0  0  0  0  0  0  0  0  0  0
  142.5397   71.2398  225.6818 H   0  0  0  0  0  0  0  0  0  0  0  0
  140.2052   72.0572  227.3686 H   0  0  0  0  0  0  0  0  0  0  0  0
  139.1067   70.9133  229.2824 H   0  0  0  0  0  0  0  0  0  0  0  0
  139.1884   68.4624  229.5441 H   0  0  0  0  0  0  0  0  0  0  0  0
  140.3930   67.0682  227.8652 H   0  0  0  0  0  0  0  0  0  0  0  0
  141.5001   68.1804  225.9421 H   0  0  0  0  0  0  0  0  0  0  0  0
  137.4852   78.1264  223.0429 H   0  0  0  0  0  0  0  0  0  0  0  0
  138.2485   80.4111  223.7117 H   0  0  0  0  0  0  0  0  0  0  0  0
  140.0903   81.9952  224.0925 H   0  0  0  0  0  0  0  0  0  0  0  0
  142.5218   82.4572  224.0870 H   0  0  0  0  0  0  0  0  0  0  0  0
  144.1709   80.7534  223.4462 H   0  0  0  0  0  0  0  0  0  0  0  0
  143.3459   78.4712  222.7817 H   0  0  0  0  0  0  0  0  0  0  0  0
  1  2  2  0
  2  3  1  0
  3  4  1  0
  4  5  1  0
  5  6  2  0
  5  7  1  0
  7  8  1  0
  8  9  1  0
  9 10  1  0
 10 11  1  0
 11 12  1  0
 12 13  1  0
 13 14  1  0
 14 15  2  0
 15 16  1  0
 16 17  2  0
 17 18  1  0
 18 19  2  0
  2 20  1  0
 20 21  2  0
 21 22  1  0
 22 23  2  0
 23 24  1  0
 24 25  2  0
 25 26  1  0
 26 27  2  0
 27 28  1  0
 28 29  2  0
 11  7  1  0
 19 14  1  0
 29 20  1  0
 28 23  1  0
  3 30  1  0
  4 31  1  0
  4 32  1  0
  8 33  1  0
  8 34  1  0
  9 35  1  0
  9 36  1  0
 10 37  1  0
 10 38  1  0
 11 39  1  6
 12 40  1  0
 12 41  1  0
 13 42  1  0
 13 43  1  0
 15 44  1  0
 16 45  1  0
 17 46  1  0
 18 47  1  0
 19 48  1  0
 21 49  1  0
 22 50  1  0
 24 51  1  0
 25 52  1  0
 26 53  1  0
 27 54  1  0
M  END
>  <smiles>  (44) 
O=C(NCC(=O)N1CCCC1CCc1ccccc1)c1ccc2ccccc2n1

>  <score_type>  (44) 
oracle

>  <origin>  (44) 
autodockgpu

>  <m_score__min__energy>  (44) 
-9.2100000000000009

>  <m_primary>  (44) 
energy

>  <rmsd>  (44) 
8.372984321156874

>  <m_score__min__rmsd>  (44) 
8.372984321156874

>  <meeko>  (44) 
{"free_energy": -8.59, "intermolecular_energy": -10.68, "internal_energy": -1.75, "cluster_size": 22, "cluster_id": 2, "rank_in_cluster": 17}

>  <energy>  (44) 
-8.28

>  <cluster_rmsd>  (44) 
0.76

>  <cluster>  (44) 
3

$$$$

     RDKit          3D

 54 57  0  0  0  0  0  0  0  0999 V2000
  139.0050   75.1380  221.5990 O   0  0  0  0  0  0  0  0  0  0  0  0
  140.1070   75.7120  221.8000 C   0  0  0  0  0  0  0  0  0  0  0  0
  141.3160   74.9620  221.4810 N   0  0  0  0  0  0  0  0  0  0  0  0
  141.1090   73.6500  220.9730 C   0  0  0  0  0  0  0  0  0  0  0  0
  140.4490   72.6520  221.8180 C   0  0  0  0  0  0  0  0  0  0  0  0
  140.4280   72.9860  223.0770 O   0  0  0  0  0  0  0  0  0  0  0  0
  139.8570   71.4310  221.4830 N   0  0  0  0  0  0  0  0  0  0  0  0
  139.6090   70.8220  220.1670 C   0  0  0  0  0  0  0  0  0  0  0  0
  138.6830   69.6150  220.4290 C   0  0  0  0  0  0  0  0  0  0  0  0
  138.0780   70.0140  221.7960 C   0  0  0  0  0  0  0  0  0  0  0  0
  139.3690   70.4590  222.4450 C   0  0  2  0  0  0  0  0  0  0  0  0
  139.2700   70.8850  223.8490 C   0  0  0  0  0  0  0  0  0  0  0  0
  140.3620   70.1220  224.6300 C   0  0  0  0  0  0  0  0  0  0  0  0
  140.5520   70.7570  225.9670 C   0  0  0  0  0  0  0  0  0  0  0  0
  141.3370   71.8850  226.1470 C   0  0  0  0  0  0  0  0  0  0  0  0
  141.4350   72.3810  227.4330 C   0  0  0  0  0  0  0  0  0  0  0  0
  140.7880   71.7950  228.5100 C   0  0  0  0  0  0  0  0  0  0  0  0
  140.0090   70.6710  228.3160 C   0  0  0  0  0  0  0  0  0  0  0  0
  139.8940   70.1550  227.0430 C   0  0  0  0  0  0  0  0  0  0  0  0
  140.2250   77.0650  222.3270 C   0  0  0  0  0  0  0  0  0  0  0  0
  139.0540   77.7030  222.6740 C   0  0  0  0  0  0  0  0  0  0  0  0
  139.1580   78.9860  223.1730 C   0  0  0  0  0  0  0  0  0  0  0  0
  140.4080   79.5910  223.3120 C   0  0  0  0  0  0  0  0  0  0  0  0
  140.5380   80.8740  223.8100 C   0  0  0  0  0  0  0  0  0  0  0  0
  141.8110   81.4280  223.9280 C   0  0  0  0  0  0  0  0  0  0  0  0
  142.9470   80.7630  223.5730 C   0  0  0  0  0  0  0  0  0  0  0  0
  142.8140   79.4710  223.0720 C   0  0  0  0  0  0  0  0  0  0  0  0
  141.5530   78.9200  222.9550 C   0  0  0  0  0  0  0  0  0  0  0  0
  141.4160   77.6720  222.4720 N   0  0  0  0  0  0  0  0  0  0  0  0
  142.1840   75.4660  221.6710 H   0  0  0  0  0  0  0  0  0  0  0  0
  140.5023   73.7506  220.0610 H   0  0  0  0  0  0  0  0  0  0  0  0
  142.1277   73.2543  220.8481 H   0  0  0  0  0  0  0  0  0  0  0  0
  139.1175   71.5435  219.4977 H   0  0  0  0  0  0  0  0  0  0  0  0
  140.5464   70.5146  219.6804 H   0  0  0  0  0  0  0  0  0  0  0  0
  137.9082   69.5220  219.6538 H   0  0  0  0  0  0  0  0  0  0  0  0
  139.1895   68.6386  220.4198 H   0  0  0  0  0  0  0  0  0  0  0  0
  137.3465   70.8310  221.7102 H   0  0  0  0  0  0  0  0  0  0  0  0
  137.5021   69.2401  222.3246 H   0  0  0  0  0  0  0  0  0  0  0  0
  140.0872   69.6430  222.6132 H   0  0  0  0  0  0  0  0  0  0  0  0
  139.4372   71.9694  223.9275 H   0  0  0  0  0  0  0  0  0  0  0  0
  138.2715   70.6673  224.2560 H   0  0  0  0  0  0  0  0  0  0  0  0
  140.0542   69.0742  224.7620 H   0  0  0  0  0  0  0  0  0  0  0  0
  141.3074   70.1582  224.0689 H   0  0  0  0  0  0  0  0  0  0  0  0
  141.8582   72.3635  225.3047 H   0  0  0  0  0  0  0  0  0  0  0  0
  142.0503   73.2756  227.6090 H   0  0  0  0  0  0  0  0  0  0  0  0
  140.8948   72.2243  229.5171 H   0  0  0  0  0  0  0  0  0  0  0  0
  139.4900   70.1964  229.1618 H   0  0  0  0  0  0  0  0  0  0  0  0
  139.2778   69.2599  226.8722 H   0  0  0  0  0  0  0  0  0  0  0  0
  138.0772   77.2106  222.5582 H   0  0  0  0  0  0  0  0  0  0  0  0
  138.2499   79.5349  223.4629 H   0  0  0  0  0  0  0  0  0  0  0  0
  139.6493   81.4492  224.1088 H   0  0  0  0  0  0  0  0  0  0  0  0
  141.9037   82.4493  224.3260 H   0  0  0  0  0  0  0  0  0  0  0  0
  143.9363   81.2320  223.6790 H   0  0  0  0  0  0  0  0  0  0  0  0
  143.7026   78.8958  222.7729 H   0  0  0  0  0  0  0  0  0  0  0  0
  1  2  2  0
  2  3  1  0
  3  4  1  0
  4  5  1  0
  5  6  2  0
  5  7  1  0
  7  8  1  0
  8  9  1  0
  9 10  1  0
 10 11  1  0
 11 12  1  0
 12 13  1  0
 13 14  1  0
 14 15  2  0
 15 16  1  0
 16 17  2  0
 17 18  1  0
 18 19  2  0
  2 20  1  0
 20 21  2  0
 21 22  1  0
 22 23  2  0
 23 24  1  0
 24 25  2  0
 25 26  1  0
 26 27  2  0
 27 28  1  0
 28 29  2  0
 11  7  1  0
 19 14  1  0
 29 20  1  0
 28 23  1  0
  3 30  1  0
  4 31  1  0
  4 32  1  0
  8 33  1  0
  8 34  1  0
  9 35  1  0
  9 36  1  0
 10 37  1  0
 10 38  1  0
 11 39  1  1
 12 40  1  0
 12 41  1  0
 13 42  1  0
 13 43  1  0
 15 44  1  0
 16 45  1  0
 17 46  1  0
 18 47  1  0
 19 48  1  0
 21 49  1  0
 22 50  1  0
 24 51  1  0
 25 52  1  0
 26 53  1  0
 27 54  1  0
M  END
>  <smiles>  (45) 
O=C(NCC(=O)N1CCCC1CCc1ccccc1)c1ccc2ccccc2n1

>  <score_type>  (45) 
oracle

>  <origin>  (45) 
autodockgpu

>  <m_score__min__energy>  (45) 
-9.2100000000000009

>  <m_primary>  (45) 
energy

>  <rmsd>  (45) 
8.23297740062627

>  <m_score__min__rmsd>  (45) 
8.23297740062627

>  <meeko>  (45) 
{"free_energy": -9.09, "intermolecular_energy": -11.18, "internal_energy": -1.28, "cluster_size": 22, "cluster_id": 2, "rank_in_cluster": 2}

>  <energy>  (45) 
-8.27

>  <cluster_rmsd>  (45) 
0.94

>  <cluster>  (45) 
3

$$$$

     RDKit          3D

 54 57  0  0  0  0  0  0  0  0999 V2000
  140.5330   75.1240  220.9010 O   0  0  0  0  0  0  0  0  0  0  0  0
  139.8030   75.6240  221.7960 C   0  0  0  0  0  0  0  0  0  0  0  0
  138.7400   74.7840  222.3350 N   0  0  0  0  0  0  0  0  0  0  0  0
  138.6490   73.4780  221.7800 C   0  0  0  0  0  0  0  0  0  0  0  0
  139.6990   72.5000  222.0750 C   0  0  0  0  0  0  0  0  0  0  0  0
  140.7020   73.0150  222.7300 O   0  0  0  0  0  0  0  0  0  0  0  0
  139.7820   71.1390  221.7670 N   0  0  0  0  0  0  0  0  0  0  0  0
  140.2830   70.4650  220.5600 C   0  0  0  0  0  0  0  0  0  0  0  0
  139.8590   68.9870  220.6960 C   0  0  0  0  0  0  0  0  0  0  0  0
  138.6930   69.1190  221.7050 C   0  0  0  0  0  0  0  0  0  0  0  0
  139.3840   70.0660  222.6610 C   0  0  2  0  0  0  0  0  0  0  0  0
  138.6250   70.4320  223.8660 C   0  0  0  0  0  0  0  0  0  0  0  0
  138.9700   69.3870  224.9510 C   0  0  0  0  0  0  0  0  0  0  0  0
  139.6820   70.0580  226.0770 C   0  0  0  0  0  0  0  0  0  0  0  0
  139.6550   69.5630  227.3710 C   0  0  0  0  0  0  0  0  0  0  0  0
  140.3540   70.2730  228.3280 C   0  0  0  0  0  0  0  0  0  0  0  0
  141.0580   71.4300  228.0340 C   0  0  0  0  0  0  0  0  0  0  0  0
  141.0760   71.9130  226.7390 C   0  0  0  0  0  0  0  0  0  0  0  0
  140.3870   71.2250  225.7650 C   0  0  0  0  0  0  0  0  0  0  0  0
  139.9700   76.9780  222.3060 C   0  0  0  0  0  0  0  0  0  0  0  0
  138.8230   77.6600  222.6530 C   0  0  0  0  0  0  0  0  0  0  0  0
  138.9740   78.9440  223.1370 C   0  0  0  0  0  0  0  0  0  0  0  0
  140.2440   79.5080  223.2620 C   0  0  0  0  0  0  0  0  0  0  0  0
  140.4210   80.7920  223.7440 C   0  0  0  0  0  0  0  0  0  0  0  0
  141.7130   81.3020  223.8480 C   0  0  0  0  0  0  0  0  0  0  0  0
  142.8230   80.5960  223.4940 C   0  0  0  0  0  0  0  0  0  0  0  0
  142.6430   79.3030  223.0090 C   0  0  0  0  0  0  0  0  0  0  0  0
  141.3640   78.7940  222.9060 C   0  0  0  0  0  0  0  0  0  0  0  0
  141.1820   77.5460  222.4370 N   0  0  0  0  0  0  0  0  0  0  0  0
  138.1690   75.2380  223.0500 H   0  0  0  0  0  0  0  0  0  0  0  0
  137.7000   73.0457  222.1301 H   0  0  0  0  0  0  0  0  0  0  0  0
  138.7465   73.6471  220.6975 H   0  0  0  0  0  0  0  0  0  0  0  0
  139.8357   70.9103  219.6591 H   0  0  0  0  0  0  0  0  0  0  0  0
  141.3742   70.5656  220.4639 H   0  0  0  0  0  0  0  0  0  0  0  0
  139.5197   68.5720  219.7355 H   0  0  0  0  0  0  0  0  0  0  0  0
  140.6636   68.3068  221.0122 H   0  0  0  0  0  0  0  0  0  0  0  0
  137.7927   69.5603  221.2525 H   0  0  0  0  0  0  0  0  0  0  0  0
  138.3039   68.1835  222.1334 H   0  0  0  0  0  0  0  0  0  0  0  0
  140.2422   69.6219  223.1866 H   0  0  0  0  0  0  0  0  0  0  0  0
  138.9149   71.4378  224.2042 H   0  0  0  0  0  0  0  0  0  0  0  0
  137.5443   70.4436  223.6612 H   0  0  0  0  0  0  0  0  0  0  0  0
  138.0435   68.9268  225.3250 H   0  0  0  0  0  0  0  0  0  0  0  0
  139.6167   68.6090  224.5192 H   0  0  0  0  0  0  0  0  0  0  0  0
  139.1022   68.6465  227.6247 H   0  0  0  0  0  0  0  0  0  0  0  0
  140.3517   69.9053  229.3647 H   0  0  0  0  0  0  0  0  0  0  0  0
  141.6009   71.9624  228.8289 H   0  0  0  0  0  0  0  0  0  0  0  0
  141.6305   72.8301  226.4909 H   0  0  0  0  0  0  0  0  0  0  0  0
  140.3912   71.5975  224.7300 H   0  0  0  0  0  0  0  0  0  0  0  0
  137.8292   77.2002  222.5485 H   0  0  0  0  0  0  0  0  0  0  0  0
  138.0868   79.5265  223.4261 H   0  0  0  0  0  0  0  0  0  0  0  0
  139.5546   81.4014  224.0408 H   0  0  0  0  0  0  0  0  0  0  0  0
  141.8433   82.3236  224.2344 H   0  0  0  0  0  0  0  0  0  0  0  0
  143.8282   81.0328  223.5881 H   0  0  0  0  0  0  0  0  0  0  0  0
  143.5098   78.6945  222.7115 H   0  0  0  0  0  0  0  0  0  0  0  0
  1  2  2  0
  2  3  1  0
  3  4  1  0
  4  5  1  0
  5  6  2  0
  5  7  1  0
  7  8  1  0
  8  9  1  0
  9 10  1  0
 10 11  1  0
 11 12  1  0
 12 13  1  0
 13 14  1  0
 14 15  2  0
 15 16  1  0
 16 17  2  0
 17 18  1  0
 18 19  2  0
  2 20  1  0
 20 21  2  0
 21 22  1  0
 22 23  2  0
 23 24  1  0
 24 25  2  0
 25 26  1  0
 26 27  2  0
 27 28  1  0
 28 29  2  0
 11  7  1  0
 19 14  1  0
 29 20  1  0
 28 23  1  0
  3 30  1  0
  4 31  1  0
  4 32  1  0
  8 33  1  0
  8 34  1  0
  9 35  1  0
  9 36  1  0
 10 37  1  0
 10 38  1  0
 11 39  1  1
 12 40  1  0
 12 41  1  0
 13 42  1  0
 13 43  1  0
 15 44  1  0
 16 45  1  0
 17 46  1  0
 18 47  1  0
 19 48  1  0
 21 49  1  0
 22 50  1  0
 24 51  1  0
 25 52  1  0
 26 53  1  0
 27 54  1  0
M  END
>  <smiles>  (46) 
O=C(NCC(=O)N1CCCC1CCc1ccccc1)c1ccc2ccccc2n1

>  <score_type>  (46) 
oracle

>  <origin>  (46) 
autodockgpu

>  <m_score__min__energy>  (46) 
-9.2100000000000009

>  <m_primary>  (46) 
energy

>  <rmsd>  (46) 
8.266100873925906

>  <m_score__min__rmsd>  (46) 
8.266100873925906

>  <meeko>  (46) 
{"free_energy": -9.08, "intermolecular_energy": -11.16, "internal_energy": -1.34, "cluster_size": 22, "cluster_id": 2, "rank_in_cluster": 3}

>  <energy>  (46) 
-8.22

>  <cluster_rmsd>  (46) 
1.05

>  <cluster>  (46) 
3

$$$$

     RDKit          3D

 54 57  0  0  0  0  0  0  0  0999 V2000
  137.7350   75.7640  222.3910 O   0  0  0  0  0  0  0  0  0  0  0  0
  138.9450   76.1030  222.3240 C   0  0  0  0  0  0  0  0  0  0  0  0
  139.8890   75.1050  221.8360 N   0  0  0  0  0  0  0  0  0  0  0  0
  139.3260   73.8460  221.4870 C   0  0  0  0  0  0  0  0  0  0  0  0
  139.9220   72.6210  222.0270 C   0  0  0  0  0  0  0  0  0  0  0  0
  140.6590   72.8370  223.0800 O   0  0  0  0  0  0  0  0  0  0  0  0
  139.8190   71.2970  221.5920 N   0  0  0  0  0  0  0  0  0  0  0  0
  140.0200   70.7140  220.2570 C   0  0  0  0  0  0  0  0  0  0  0  0
  139.4950   69.2660  220.3460 C   0  0  0  0  0  0  0  0  0  0  0  0
  138.5570   69.3800  221.5720 C   0  0  0  0  0  0  0  0  0  0  0  0
  139.5000   70.1700  222.4510 C   0  0  2  0  0  0  0  0  0  0  0  0
  139.0180   70.4660  223.8080 C   0  0  0  0  0  0  0  0  0  0  0  0
  139.8470   69.5970  224.7800 C   0  0  0  0  0  0  0  0  0  0  0  0
  140.2550   70.4190  225.9560 C   0  0  0  0  0  0  0  0  0  0  0  0
  141.0660   71.5360  225.8350 C   0  0  0  0  0  0  0  0  0  0  0  0
  141.3730   72.2160  226.9980 C   0  0  0  0  0  0  0  0  0  0  0  0
  140.9060   71.8200  228.2410 C   0  0  0  0  0  0  0  0  0  0  0  0
  140.0980   70.7040  228.3470 C   0  0  0  0  0  0  0  0  0  0  0  0
  139.7760   70.0070  227.2030 C   0  0  0  0  0  0  0  0  0  0  0  0
  139.4340   77.4210  222.7050 C   0  0  0  0  0  0  0  0  0  0  0  0
  138.4890   78.3550  223.0730 C   0  0  0  0  0  0  0  0  0  0  0  0
  138.9460   79.6060  223.4350 C   0  0  0  0  0  0  0  0  0  0  0  0
  140.3110   79.8910  223.4220 C   0  0  0  0  0  0  0  0  0  0  0  0
  140.7930   81.1370  223.7810 C   0  0  0  0  0  0  0  0  0  0  0  0
  142.1670   81.3640  223.7500 C   0  0  0  0  0  0  0  0  0  0  0  0
  143.0710   80.4140  223.3800 C   0  0  0  0  0  0  0  0  0  0  0  0
  142.5840   79.1600  223.0190 C   0  0  0  0  0  0  0  0  0  0  0  0
  141.2230   78.9320  223.0490 C   0  0  0  0  0  0  0  0  0  0  0  0
  140.7440   77.7230  222.7020 N   0  0  0  0  0  0  0  0  0  0  0  0
  140.8590   75.4230  221.8100 H   0  0  0  0  0  0  0  0  0  0  0  0
  138.2754   73.8626  221.8126 H   0  0  0  0  0  0  0  0  0  0  0  0
  139.5075   73.7697  220.4048 H   0  0  0  0  0  0  0  0  0  0  0  0
  139.4544   71.2806  219.5027 H   0  0  0  0  0  0  0  0  0  0  0  0
  141.0783   70.7428  219.9583 H   0  0  0  0  0  0  0  0  0  0  0  0
  138.9440   68.9775  219.4387 H   0  0  0  0  0  0  0  0  0  0  0  0
  140.2786   68.4995  220.4384 H   0  0  0  0  0  0  0  0  0  0  0  0
  137.6323   69.9307  221.3449 H   0  0  0  0  0  0  0  0  0  0  0  0
  138.1707   68.4371  221.9863 H   0  0  0  0  0  0  0  0  0  0  0  0
  140.3974   69.6124  222.7572 H   0  0  0  0  0  0  0  0  0  0  0  0
  139.1632   71.5322  224.0365 H   0  0  0  0  0  0  0  0  0  0  0  0
  137.9445   70.2447  223.9008 H   0  0  0  0  0  0  0  0  0  0  0  0
  139.2391   68.7458  225.1206 H   0  0  0  0  0  0  0  0  0  0  0  0
  140.7440   69.2234  224.2644 H   0  0  0  0  0  0  0  0  0  0  0  0
  141.4479   71.8663  224.8578 H   0  0  0  0  0  0  0  0  0  0  0  0
  142.0140   73.1077  226.9345 H   0  0  0  0  0  0  0  0  0  0  0  0
  141.1776   72.3921  229.1404 H   0  0  0  0  0  0  0  0  0  0  0  0
  139.7188   70.3781  229.3268 H   0  0  0  0  0  0  0  0  0  0  0  0
  139.1346   69.1160  227.2717 H   0  0  0  0  0  0  0  0  0  0  0  0
  137.4159   78.1133  223.0779 H   0  0  0  0  0  0  0  0  0  0  0  0
  138.2285   80.3836  223.7359 H   0  0  0  0  0  0  0  0  0  0  0  0
  140.1018   81.9364  224.0863 H   0  0  0  0  0  0  0  0  0  0  0  0
  142.5401   82.3579  224.0380 H   0  0  0  0  0  0  0  0  0  0  0  0
  144.1495   80.6302  223.3669 H   0  0  0  0  0  0  0  0  0  0  0  0
  143.2757   78.3610  222.7137 H   0  0  0  0  0  0  0  0  0  0  0  0
  1  2  2  0
  2  3  1  0
  3  4  1  0
  4  5  1  0
  5  6  2  0
  5  7  1  0
  7  8  1  0
  8  9  1  0
  9 10  1  0
 10 11  1  0
 11 12  1  0
 12 13  1  0
 13 14  1  0
 14 15  2  0
 15 16  1  0
 16 17  2  0
 17 18  1  0
 18 19  2  0
  2 20  1  0
 20 21  2  0
 21 22  1  0
 22 23  2  0
 23 24  1  0
 24 25  2  0
 25 26  1  0
 26 27  2  0
 27 28  1  0
 28 29  2  0
 11  7  1  0
 19 14  1  0
 29 20  1  0
 28 23  1  0
  3 30  1  0
  4 31  1  0
  4 32  1  0
  8 33  1  0
  8 34  1  0
  9 35  1  0
  9 36  1  0
 10 37  1  0
 10 38  1  0
 11 39  1  1
 12 40  1  0
 12 41  1  0
 13 42  1  0
 13 43  1  0
 15 44  1  0
 16 45  1  0
 17 46  1  0
 18 47  1  0
 19 48  1  0
 21 49  1  0
 22 50  1  0
 24 51  1  0
 25 52  1  0
 26 53  1  0
 27 54  1  0
M  END
>  <smiles>  (47) 
O=C(NCC(=O)N1CCCC1CCc1ccccc1)c1ccc2ccccc2n1

>  <score_type>  (47) 
oracle

>  <origin>  (47) 
autodockgpu

>  <m_score__min__energy>  (47) 
-9.2100000000000009

>  <m_primary>  (47) 
energy

>  <rmsd>  (47) 
8.383970381247902

>  <m_score__min__rmsd>  (47) 
8.383970381247902

>  <meeko>  (47) 
{"free_energy": -8.63, "intermolecular_energy": -10.72, "internal_energy": -1.67, "cluster_size": 22, "cluster_id": 2, "rank_in_cluster": 11}

>  <energy>  (47) 
-8.05

>  <cluster_rmsd>  (47) 
0.59

>  <cluster>  (47) 
3

$$$$

     RDKit          3D

 54 57  0  0  0  0  0  0  0  0999 V2000
  140.1580   75.6370  220.7140 O   0  0  0  0  0  0  0  0  0  0  0  0
  139.6150   76.1160  221.7440 C   0  0  0  0  0  0  0  0  0  0  0  0
  138.6050   75.2980  222.4060 N   0  0  0  0  0  0  0  0  0  0  0  0
  138.3460   74.0360  221.8040 C   0  0  0  0  0  0  0  0  0  0  0  0
  139.3310   72.9610  221.9440 C   0  0  0  0  0  0  0  0  0  0  0  0
  140.3620   73.3070  222.6640 O   0  0  0  0  0  0  0  0  0  0  0  0
  139.3300   71.6590  221.4350 N   0  0  0  0  0  0  0  0  0  0  0  0
  139.2660   71.1800  220.0460 C   0  0  0  0  0  0  0  0  0  0  0  0
  139.0160   69.6600  220.1360 C   0  0  0  0  0  0  0  0  0  0  0  0
  138.4230   69.5540  221.5610 C   0  0  0  0  0  0  0  0  0  0  0  0
  139.4250   70.4570  222.2440 C   0  0  2  0  0  0  0  0  0  0  0  0
  139.2720   70.6050  223.6990 C   0  0  0  0  0  0  0  0  0  0  0  0
  140.6760   70.9000  224.2720 C   0  0  0  0  0  0  0  0  0  0  0  0
  140.7040   70.5460  225.7220 C   0  0  0  0  0  0  0  0  0  0  0  0
  140.7620   71.5080  226.7180 C   0  0  0  0  0  0  0  0  0  0  0  0
  140.7830   71.0570  228.0240 C   0  0  0  0  0  0  0  0  0  0  0  0
  140.7500   69.7100  228.3490 C   0  0  0  0  0  0  0  0  0  0  0  0
  140.6930   68.7620  227.3450 C   0  0  0  0  0  0  0  0  0  0  0  0
  140.6710   69.1850  226.0340 C   0  0  0  0  0  0  0  0  0  0  0  0
  139.9450   77.4250  222.2920 C   0  0  0  0  0  0  0  0  0  0  0  0
  138.8900   78.2210  222.6840 C   0  0  0  0  0  0  0  0  0  0  0  0
  139.1950   79.4620  223.2030 C   0  0  0  0  0  0  0  0  0  0  0  0
  140.5230   79.8740  223.3180 C   0  0  0  0  0  0  0  0  0  0  0  0
  140.8540   81.1130  223.8360 C   0  0  0  0  0  0  0  0  0  0  0  0
  142.1970   81.4700  223.9270 C   0  0  0  0  0  0  0  0  0  0  0  0
  143.2130   80.6540  223.5280 C   0  0  0  0  0  0  0  0  0  0  0  0
  142.8780   79.4070  223.0070 C   0  0  0  0  0  0  0  0  0  0  0  0
  141.5480   79.0500  222.9160 C   0  0  0  0  0  0  0  0  0  0  0  0
  141.2160   77.8470  222.4140 N   0  0  0  0  0  0  0  0  0  0  0  0
  138.1880   75.7340  223.2290 H   0  0  0  0  0  0  0  0  0  0  0  0
  137.4023   73.6645  222.2300 H   0  0  0  0  0  0  0  0  0  0  0  0
  138.3499   74.2551  220.7260 H   0  0  0  0  0  0  0  0  0  0  0  0
  138.4421   71.6725  219.5087 H   0  0  0  0  0  0  0  0  0  0  0  0
  140.1920   71.4060  219.4970 H   0  0  0  0  0  0  0  0  0  0  0  0
  138.3007   69.3205  219.3725 H   0  0  0  0  0  0  0  0  0  0  0  0
  139.9071   69.0385  219.9636 H   0  0  0  0  0  0  0  0  0  0  0  0
  137.3962   69.9441  221.6198 H   0  0  0  0  0  0  0  0  0  0  0  0
  138.3112   68.5406  221.9740 H   0  0  0  0  0  0  0  0  0  0  0  0
  140.4468   70.0503  222.2679 H   0  0  0  0  0  0  0  0  0  0  0  0
  138.5892   71.4374  223.9245 H   0  0  0  0  0  0  0  0  0  0  0  0
  138.8495   69.6923  224.1446 H   0  0  0  0  0  0  0  0  0  0  0  0
  141.4254   70.3013  223.7335 H   0  0  0  0  0  0  0  0  0  0  0  0
  140.9055   71.9689  224.1502 H   0  0  0  0  0  0  0  0  0  0  0  0
  140.7900   72.5815  226.4798 H   0  0  0  0  0  0  0  0  0  0  0  0
  140.8277   71.7960  228.8376 H   0  0  0  0  0  0  0  0  0  0  0  0
  140.7691   69.3964  229.4032 H   0  0  0  0  0  0  0  0  0  0  0  0
  140.6657   67.6895  227.5881 H   0  0  0  0  0  0  0  0  0  0  0  0
  140.6270   68.4423  225.2237 H   0  0  0  0  0  0  0  0  0  0  0  0
  137.8485   77.8807  222.5870 H   0  0  0  0  0  0  0  0  0  0  0  0
  138.3854   80.1317  223.5286 H   0  0  0  0  0  0  0  0  0  0  0  0
  140.0682   81.8060  224.1711 H   0  0  0  0  0  0  0  0  0  0  0  0
  142.4498   82.4575  224.3406 H   0  0  0  0  0  0  0  0  0  0  0  0
  144.2630   80.9701  223.6147 H   0  0  0  0  0  0  0  0  0  0  0  0
  143.6642   78.7145  222.6719 H   0  0  0  0  0  0  0  0  0  0  0  0
  1  2  2  0
  2  3  1  0
  3  4  1  0
  4  5  1  0
  5  6  2  0
  5  7  1  0
  7  8  1  0
  8  9  1  0
  9 10  1  0
 10 11  1  0
 11 12  1  0
 12 13  1  0
 13 14  1  0
 14 15  2  0
 15 16  1  0
 16 17  2  0
 17 18  1  0
 18 19  2  0
  2 20  1  0
 20 21  2  0
 21 22  1  0
 22 23  2  0
 23 24  1  0
 24 25  2  0
 25 26  1  0
 26 27  2  0
 27 28  1  0
 28 29  2  0
 11  7  1  0
 19 14  1  0
 29 20  1  0
 28 23  1  0
  3 30  1  0
  4 31  1  0
  4 32  1  0
  8 33  1  0
  8 34  1  0
  9 35  1  0
  9 36  1  0
 10 37  1  0
 10 38  1  0
 11 39  1  1
 12 40  1  0
 12 41  1  0
 13 42  1  0
 13 43  1  0
 15 44  1  0
 16 45  1  0
 17 46  1  0
 18 47  1  0
 19 48  1  0
 21 49  1  0
 22 50  1  0
 24 51  1  0
 25 52  1  0
 26 53  1  0
 27 54  1  0
M  END
>  <smiles>  (48) 
O=C(NCC(=O)N1CCCC1CCc1ccccc1)c1ccc2ccccc2n1

>  <score_type>  (48) 
oracle

>  <origin>  (48) 
autodockgpu

>  <m_score__min__energy>  (48) 
-9.2100000000000009

>  <m_primary>  (48) 
energy

>  <rmsd>  (48) 
8.214651075333256

>  <m_score__min__rmsd>  (48) 
8.214651075333256

>  <meeko>  (48) 
{"free_energy": -8.79, "intermolecular_energy": -10.88, "internal_energy": -1.2, "cluster_size": 22, "cluster_id": 2, "rank_in_cluster": 6}

>  <energy>  (48) 
-8.03

>  <cluster_rmsd>  (48) 
0.0

>  <cluster>  (48) 
4

$$$$

     RDKit          3D

 54 57  0  0  0  0  0  0  0  0999 V2000
  140.7790   71.6400  221.3310 O   0  0  0  0  0  0  0  0  0  0  0  0
  140.3120   72.1280  222.3930 C   0  0  0  0  0  0  0  0  0  0  0  0
  139.8440   73.5080  222.3430 N   0  0  0  0  0  0  0  0  0  0  0  0
  139.9700   74.1530  221.0820 C   0  0  0  0  0  0  0  0  0  0  0  0
  141.2670   74.7110  220.6910 C   0  0  0  0  0  0  0  0  0  0  0  0
  142.2740   74.0730  221.2180 O   0  0  0  0  0  0  0  0  0  0  0  0
  141.5740   75.7940  219.8620 N   0  0  0  0  0  0  0  0  0  0  0  0
  142.5150   75.8950  218.7370 C   0  0  0  0  0  0  0  0  0  0  0  0
  142.6170   77.3990  218.4060 C   0  0  0  0  0  0  0  0  0  0  0  0
  142.1400   78.0150  219.7430 C   0  0  0  0  0  0  0  0  0  0  0  0
  140.9520   77.1030  219.9510 C   0  0  2  0  0  0  0  0  0  0  0  0
  140.1250   77.3830  221.1350 C   0  0  0  0  0  0  0  0  0  0  0  0
  141.0590   77.3130  222.3630 C   0  0  0  0  0  0  0  0  0  0  0  0
  141.3290   78.6940  222.8600 C   0  0  0  0  0  0  0  0  0  0  0  0
  142.6100   79.2130  222.9480 C   0  0  0  0  0  0  0  0  0  0  0  0
  142.7320   80.5050  223.4230 C   0  0  0  0  0  0  0  0  0  0  0  0
  141.6390   81.2670  223.8020 C   0  0  0  0  0  0  0  0  0  0  0  0
  140.3660   80.7360  223.7100 C   0  0  0  0  0  0  0  0  0  0  0  0
  140.2160   79.4500  223.2390 C   0  0  0  0  0  0  0  0  0  0  0  0
  140.2220   71.3890  223.6460 C   0  0  0  0  0  0  0  0  0  0  0  0
  139.6330   70.1440  223.5940 C   0  0  0  0  0  0  0  0  0  0  0  0
  139.5430   69.4390  224.7780 C   0  0  0  0  0  0  0  0  0  0  0  0
  140.0350   69.9830  225.9640 C   0  0  0  0  0  0  0  0  0  0  0  0
  139.9570   69.2960  227.1620 C   0  0  0  0  0  0  0  0  0  0  0  0
  140.4660   69.8890  228.3150 C   0  0  0  0  0  0  0  0  0  0  0  0
  141.0410   71.1250  228.3250 C   0  0  0  0  0  0  0  0  0  0  0  0
  141.1190   71.8150  227.1190 C   0  0  0  0  0  0  0  0  0  0  0  0
  140.6160   71.2290  225.9740 C   0  0  0  0  0  0  0  0  0  0  0  0
  140.6870   71.8900  224.8040 N   0  0  0  0  0  0  0  0  0  0  0  0
  139.4840   73.8610  223.2310 H   0  0  0  0  0  0  0  0  0  0  0  0
  139.6930   73.4152  220.3146 H   0  0  0  0  0  0  0  0  0  0  0  0
  139.3220   75.0371  221.1745 H   0  0  0  0  0  0  0  0  0  0  0  0
  143.4999   75.4988  219.0250 H   0  0  0  0  0  0  0  0  0  0  0  0
  142.1718   75.3124  217.8693 H   0  0  0  0  0  0  0  0  0  0  0  0
  143.6500   77.6935  218.1689 H   0  0  0  0  0  0  0  0  0  0  0  0
  142.0399   77.7145  217.5243 H   0  0  0  0  0  0  0  0  0  0  0  0
  142.8897   77.9187  220.5421 H   0  0  0  0  0  0  0  0  0  0  0  0
  141.9373   79.0962  219.7429 H   0  0  0  0  0  0  0  0  0  0  0  0
  140.1522   77.2355  219.2075 H   0  0  0  0  0  0  0  0  0  0  0  0
  139.6788   78.3854  221.0560 H   0  0  0  0  0  0  0  0  0  0  0  0
  139.3049   76.6552  221.2228 H   0  0  0  0  0  0  0  0  0  0  0  0
  140.5769   76.7247  223.1577 H   0  0  0  0  0  0  0  0  0  0  0  0
  142.0068   76.8337  222.0768 H   0  0  0  0  0  0  0  0  0  0  0  0
  143.4906   78.6234  222.6531 H   0  0  0  0  0  0  0  0  0  0  0  0
  143.7367   80.9457  223.5033 H   0  0  0  0  0  0  0  0  0  0  0  0
  141.7836   82.2916  224.1751 H   0  0  0  0  0  0  0  0  0  0  0  0
  139.4888   81.3294  224.0074 H   0  0  0  0  0  0  0  0  0  0  0  0
  139.2094   79.0134  223.1603 H   0  0  0  0  0  0  0  0  0  0  0  0
  139.2508   69.7295  222.6495 H   0  0  0  0  0  0  0  0  0  0  0  0
  139.0799   68.4413  224.7856 H   0  0  0  0  0  0  0  0  0  0  0  0
  139.4999   68.2964  227.2035 H   0  0  0  0  0  0  0  0  0  0  0  0
  140.4009   69.3337  229.2623 H   0  0  0  0  0  0  0  0  0  0  0  0
  141.4306   71.5626  229.2560 H   0  0  0  0  0  0  0  0  0  0  0  0
  141.5757   72.8149  227.0782 H   0  0  0  0  0  0  0  0  0  0  0  0
  1  2  2  0
  2  3  1  0
  3  4  1  0
  4  5  1  0
  5  6  2  0
  5  7  1  0
  7  8  1  0
  8  9  1  0
  9 10  1  0
 10 11  1  0
 11 12  1  0
 12 13  1  0
 13 14  1  0
 14 15  2  0
 15 16  1  0
 16 17  2  0
 17 18  1  0
 18 19  2  0
  2 20  1  0
 20 21  2  0
 21 22  1  0
 22 23  2  0
 23 24  1  0
 24 25  2  0
 25 26  1  0
 26 27  2  0
 27 28  1  0
 28 29  2  0
 11  7  1  0
 19 14  1  0
 29 20  1  0
 28 23  1  0
  3 30  1  0
  4 31  1  0
  4 32  1  0
  8 33  1  0
  8 34  1  0
  9 35  1  0
  9 36  1  0
 10 37  1  0
 10 38  1  0
 11 39  1  6
 12 40  1  0
 12 41  1  0
 13 42  1  0
 13 43  1  0
 15 44  1  0
 16 45  1  0
 17 46  1  0
 18 47  1  0
 19 48  1  0
 21 49  1  0
 22 50  1  0
 24 51  1  0
 25 52  1  0
 26 53  1  0
 27 54  1  0
M  END
>  <smiles>  (49) 
O=C(NCC(=O)N1CCCC1CCc1ccccc1)c1ccc2ccccc2n1

>  <score_type>  (49) 
oracle

>  <origin>  (49) 
autodockgpu

>  <m_score__min__energy>  (49) 
-9.2100000000000009

>  <m_primary>  (49) 
energy

>  <rmsd>  (49) 
2.583918952017612

>  <m_score__min__rmsd>  (49) 
2.583918952017612

>  <meeko>  (49) 
{"free_energy": -9.15, "intermolecular_energy": -11.24, "internal_energy": -1.42, "cluster_size": 20, "cluster_id": 1, "rank_in_cluster": 2}

>  <energy>  (49) 
-6.91

>  <cluster_rmsd>  (49) 
0.0

>  <cluster>  (49) 
5

$$$$

     RDKit          3D

 54 57  0  0  0  0  0  0  0  0999 V2000
  138.5010   75.5150  221.7600 O   0  0  0  0  0  0  0  0  0  0  0  0
  139.6730   75.9650  221.8490 C   0  0  0  0  0  0  0  0  0  0  0  0
  140.7560   75.0940  221.4080 N   0  0  0  0  0  0  0  0  0  0  0  0
  140.3590   73.8190  220.9220 C   0  0  0  0  0  0  0  0  0  0  0  0
  140.4320   72.6580  221.8140 C   0  0  0  0  0  0  0  0  0  0  0  0
  140.6300   72.9880  223.0600 O   0  0  0  0  0  0  0  0  0  0  0  0
  140.3250   71.2930  221.5350 N   0  0  0  0  0  0  0  0  0  0  0  0
  140.8130   70.5150  220.3860 C   0  0  0  0  0  0  0  0  0  0  0  0
  140.1520   69.1260  220.5060 C   0  0  0  0  0  0  0  0  0  0  0  0
  138.9400   69.4670  221.4070 C   0  0  0  0  0  0  0  0  0  0  0  0
  139.6890   70.3200  222.4060 C   0  0  2  0  0  0  0  0  0  0  0  0
  138.8990   70.8340  223.5340 C   0  0  0  0  0  0  0  0  0  0  0  0
  138.9940   69.7870  224.6650 C   0  0  0  0  0  0  0  0  0  0  0  0
  139.7340   70.3700  225.8210 C   0  0  0  0  0  0  0  0  0  0  0  0
  140.5340   71.4950  225.6970 C   0  0  0  0  0  0  0  0  0  0  0  0
  141.1690   71.9410  226.8410 C   0  0  0  0  0  0  0  0  0  0  0  0
  141.0300   71.3100  228.0660 C   0  0  0  0  0  0  0  0  0  0  0  0
  140.2300   70.1890  228.1750 C   0  0  0  0  0  0  0  0  0  0  0  0
  139.5850   69.7220  227.0500 C   0  0  0  0  0  0  0  0  0  0  0  0
  139.9880   77.2910  222.3630 C   0  0  0  0  0  0  0  0  0  0  0  0
  138.9250   78.0770  222.7560 C   0  0  0  0  0  0  0  0  0  0  0  0
  139.2170   79.3350  223.2430 C   0  0  0  0  0  0  0  0  0  0  0  0
  140.5390   79.7730  223.3250 C   0  0  0  0  0  0  0  0  0  0  0  0
  140.8560   81.0280  223.8100 C   0  0  0  0  0  0  0  0  0  0  0  0
  142.1940   81.4110  223.8700 C   0  0  0  0  0  0  0  0  0  0  0  0
  143.2180   80.6050  223.4700 C   0  0  0  0  0  0  0  0  0  0  0  0
  142.8970   79.3410  222.9820 C   0  0  0  0  0  0  0  0  0  0  0  0
  141.5720   78.9590  222.9230 C   0  0  0  0  0  0  0  0  0  0  0  0
  141.2530   77.7390  222.4530 N   0  0  0  0  0  0  0  0  0  0  0  0
  141.6870   75.5000  221.5100 H   0  0  0  0  0  0  0  0  0  0  0  0
  139.3115   73.9104  220.5989 H   0  0  0  0  0  0  0  0  0  0  0  0
  141.1002   73.5950  220.1407 H   0  0  0  0  0  0  0  0  0  0  0  0
  140.5185   70.9990  219.4431 H   0  0  0  0  0  0  0  0  0  0  0  0
  141.9106   70.4417  220.3841 H   0  0  0  0  0  0  0  0  0  0  0  0
  139.8338   68.7417  219.5257 H   0  0  0  0  0  0  0  0  0  0  0  0
  140.8098   68.3380  220.9015 H   0  0  0  0  0  0  0  0  0  0  0  0
  138.1624   70.0311  220.8711 H   0  0  0  0  0  0  0  0  0  0  0  0
  138.3727   68.6164  221.8127 H   0  0  0  0  0  0  0  0  0  0  0  0
  140.4187   69.7614  223.0106 H   0  0  0  0  0  0  0  0  0  0  0  0
  139.3085   71.7964  223.8746 H   0  0  0  0  0  0  0  0  0  0  0  0
  137.8525   70.9986  223.2380 H   0  0  0  0  0  0  0  0  0  0  0  0
  137.9815   69.4999  224.9849 H   0  0  0  0  0  0  0  0  0  0  0  0
  139.5283   68.8983  224.2981 H   0  0  0  0  0  0  0  0  0  0  0  0
  140.6579   72.0093  224.7326 H   0  0  0  0  0  0  0  0  0  0  0  0
  141.8102   72.8324  226.7758 H   0  0  0  0  0  0  0  0  0  0  0  0
  141.5553   71.7005  228.9500 H   0  0  0  0  0  0  0  0  0  0  0  0
  140.1100   69.6785  229.1419 H   0  0  0  0  0  0  0  0  0  0  0  0
  138.9460   68.8294  227.1204 H   0  0  0  0  0  0  0  0  0  0  0  0
  137.8882   77.7165  222.6843 H   0  0  0  0  0  0  0  0  0  0  0  0
  138.4013   79.9971  223.5689 H   0  0  0  0  0  0  0  0  0  0  0  0
  140.0635   81.7141  224.1436 H   0  0  0  0  0  0  0  0  0  0  0  0
  142.4357   82.4113  224.2586 H   0  0  0  0  0  0  0  0  0  0  0  0
  144.2633   80.9420  223.5307 H   0  0  0  0  0  0  0  0  0  0  0  0
  143.6896   78.6554  222.6476 H   0  0  0  0  0  0  0  0  0  0  0  0
  1  2  2  0
  2  3  1  0
  3  4  1  0
  4  5  1  0
  5  6  2  0
  5  7  1  0
  7  8  1  0
  8  9  1  0
  9 10  1  0
 10 11  1  0
 11 12  1  0
 12 13  1  0
 13 14  1  0
 14 15  2  0
 15 16  1  0
 16 17  2  0
 17 18  1  0
 18 19  2  0
  2 20  1  0
 20 21  2  0
 21 22  1  0
 22 23  2  0
 23 24  1  0
 24 25  2  0
 25 26  1  0
 26 27  2  0
 27 28  1  0
 28 29  2  0
 11  7  1  0
 19 14  1  0
 29 20  1  0
 28 23  1  0
  3 30  1  0
  4 31  1  0
  4 32  1  0
  8 33  1  0
  8 34  1  0
  9 35  1  0
  9 36  1  0
 10 37  1  0
 10 38  1  0
 11 39  1  1
 12 40  1  0
 12 41  1  0
 13 42  1  0
 13 43  1  0
 15 44  1  0
 16 45  1  0
 17 46  1  0
 18 47  1  0
 19 48  1  0
 21 49  1  0
 22 50  1  0
 24 51  1  0
 25 52  1  0
 26 53  1  0
 27 54  1  0
M  END
>  <smiles>  (50) 
O=C(NCC(=O)N1CCCC1CCc1ccccc1)c1ccc2ccccc2n1

>  <score_type>  (50) 
oracle

>  <origin>  (50) 
autodockgpu

>  <m_score__min__energy>  (50) 
-9.2100000000000009

>  <m_primary>  (50) 
energy

>  <rmsd>  (50) 
8.323890998852802

>  <m_score__min__rmsd>  (50) 
8.323890998852802

>  <meeko>  (50) 
{"free_energy": -8.66, "intermolecular_energy": -10.75, "internal_energy": -1.65, "cluster_size": 22, "cluster_id": 2, "rank_in_cluster": 9}

>  <energy>  (50) 
-6.28

>  <cluster_rmsd>  (50) 
0.0

>  <cluster>  (50) 
6

$$$$

     RDKit          3D

 54 57  0  0  0  0  0  0  0  0999 V2000
  138.2720   70.7430  221.8430 O   0  0  0  0  0  0  0  0  0  0  0  0
  138.8930   71.2460  222.8380 C   0  0  0  0  0  0  0  0  0  0  0  0
  139.2300   72.6200  222.7180 N   0  0  0  0  0  0  0  0  0  0  0  0
  138.8330   73.2850  221.4870 C   0  0  0  0  0  0  0  0  0  0  0  0
  139.1540   74.7460  221.6180 C   0  0  0  0  0  0  0  0  0  0  0  0
  140.1430   75.0190  222.3310 O   0  0  0  0  0  0  0  0  0  0  0  0
  138.3260   75.6490  220.9360 N   0  0  0  0  0  0  0  0  0  0  0  0
  137.0790   75.2990  220.1850 C   0  0  0  0  0  0  0  0  0  0  0  0
  136.1330   76.4260  220.6480 C   0  0  0  0  0  0  0  0  0  0  0  0
  137.0360   77.4140  221.4180 C   0  0  0  0  0  0  0  0  0  0  0  0
  138.3410   77.0890  220.7580 C   0  0  1  0  0  0  0  0  0  0  0  0
  139.5370   77.8340  221.1280 C   0  0  0  0  0  0  0  0  0  0  0  0
  139.4220   78.3170  222.5540 C   0  0  0  0  0  0  0  0  0  0  0  0
  140.5620   79.1910  222.9330 C   0  0  0  0  0  0  0  0  0  0  0  0
  141.8810   78.8190  222.7380 C   0  0  0  0  0  0  0  0  0  0  0  0
  142.9440   79.6320  223.0900 C   0  0  0  0  0  0  0  0  0  0  0  0
  142.7220   80.8580  223.6570 C   0  0  0  0  0  0  0  0  0  0  0  0
  141.4150   81.2510  223.8630 C   0  0  0  0  0  0  0  0  0  0  0  0
  140.3600   80.4360  223.5090 C   0  0  0  0  0  0  0  0  0  0  0  0
  139.2280   70.4540  224.0160 C   0  0  0  0  0  0  0  0  0  0  0  0
  138.8880   69.1170  224.0100 C   0  0  0  0  0  0  0  0  0  0  0  0
  139.1520   68.2660  225.0650 C   0  0  0  0  0  0  0  0  0  0  0  0
  139.7970   68.8350  226.1680 C   0  0  0  0  0  0  0  0  0  0  0  0
  140.0580   67.9830  227.2140 C   0  0  0  0  0  0  0  0  0  0  0  0
  140.6950   68.5170  228.3190 C   0  0  0  0  0  0  0  0  0  0  0  0
  141.0330   69.8380  228.3320 C   0  0  0  0  0  0  0  0  0  0  0  0
  140.7610   70.6860  227.2600 C   0  0  0  0  0  0  0  0  0  0  0  0
  140.1340   70.1710  226.1650 C   0  0  0  0  0  0  0  0  0  0  0  0
  139.8500   70.9710  225.0960 N   0  0  0  0  0  0  0  0  0  0  0  0
  139.7400   73.1080  223.4920 H   0  0  0  0  0  0  0  0  0  0  0  0
  139.3858   72.8571  220.6377 H   0  0  0  0  0  0  0  0  0  0  0  0
  137.7559   73.1471  221.3111 H   0  0  0  0  0  0  0  0  0  0  0  0
  137.2405   75.3280  219.0973 H   0  0  0  0  0  0  0  0  0  0  0  0
  136.7033   74.2831  220.3768 H   0  0  0  0  0  0  0  0  0  0  0  0
  135.6684   76.9209  219.7824 H   0  0  0  0  0  0  0  0  0  0  0  0
  135.3108   76.0454  221.2717 H   0  0  0  0  0  0  0  0  0  0  0  0
  136.7386   78.4603  221.2541 H   0  0  0  0  0  0  0  0  0  0  0  0
  137.0199   77.3190  222.5138 H   0  0  0  0  0  0  0  0  0  0  0  0
  138.4183   77.4264  219.7139 H   0  0  0  0  0  0  0  0  0  0  0  0
  140.4170   77.1807  221.0342 H   0  0  0  0  0  0  0  0  0  0  0  0
  139.6442   78.7012  220.4598 H   0  0  0  0  0  0  0  0  0  0  0  0
  138.4861   78.8846  222.6635 H   0  0  0  0  0  0  0  0  0  0  0  0
  139.4301   77.4378  223.2150 H   0  0  0  0  0  0  0  0  0  0  0  0
  142.0924   77.8389  222.2856 H   0  0  0  0  0  0  0  0  0  0  0  0
  143.9746   79.2907  222.9129 H   0  0  0  0  0  0  0  0  0  0  0  0
  143.5607   81.5109  223.9402 H   0  0  0  0  0  0  0  0  0  0  0  0
  141.2111   82.2317  224.3176 H   0  0  0  0  0  0  0  0  0  0  0  0
  139.3316   80.7828  223.6883 H   0  0  0  0  0  0  0  0  0  0  0  0
  138.3824   68.7093  223.1222 H   0  0  0  0  0  0  0  0  0  0  0  0
  138.8714   67.2027  225.0394 H   0  0  0  0  0  0  0  0  0  0  0  0
  139.7724   66.9215  227.1740 H   0  0  0  0  0  0  0  0  0  0  0  0
  140.9282   67.8788  229.1841 H   0  0  0  0  0  0  0  0  0  0  0  0
  141.5377   70.2484  229.2191 H   0  0  0  0  0  0  0  0  0  0  0  0
  141.0461   71.7478  227.2969 H   0  0  0  0  0  0  0  0  0  0  0  0
  1  2  2  0
  2  3  1  0
  3  4  1  0
  4  5  1  0
  5  6  2  0
  5  7  1  0
  7  8  1  0
  8  9  1  0
  9 10  1  0
 10 11  1  0
 11 12  1  0
 12 13  1  0
 13 14  1  0
 14 15  2  0
 15 16  1  0
 16 17  2  0
 17 18  1  0
 18 19  2  0
  2 20  1  0
 20 21  2  0
 21 22  1  0
 22 23  2  0
 23 24  1  0
 24 25  2  0
 25 26  1  0
 26 27  2  0
 27 28  1  0
 28 29  2  0
 11  7  1  0
 19 14  1  0
 29 20  1  0
 28 23  1  0
  3 30  1  0
  4 31  1  0
  4 32  1  0
  8 33  1  0
  8 34  1  0
  9 35  1  0
  9 36  1  0
 10 37  1  0
 10 38  1  0
 11 39  1  6
 12 40  1  0
 12 41  1  0
 13 42  1  0
 13 43  1  0
 15 44  1  0
 16 45  1  0
 17 46  1  0
 18 47  1  0
 19 48  1  0
 21 49  1  0
 22 50  1  0
 24 51  1  0
 25 52  1  0
 26 53  1  0
 27 54  1  0
M  END
>  <smiles>  (51) 
O=C(NCC(=O)N1CCCC1CCc1ccccc1)c1ccc2ccccc2n1

>  <score_type>  (51) 
oracle

>  <origin>  (51) 
autodockgpu

>  <m_score__min__energy>  (51) 
-9.3699999999999992

>  <m_primary>  (51) 
energy

>  <rmsd>  (51) 
2.526987367580732

>  <m_score__min__rmsd>  (51) 
2.526987367580732

>  <meeko>  (51) 
{"free_energy": -8.38, "intermolecular_energy": -10.47, "internal_energy": -1.91, "cluster_size": 28, "cluster_id": 1, "rank_in_cluster": 25}

>  <energy>  (51) 
-9.37

>  <cluster_rmsd>  (51) 
0.0

>  <cluster>  (51) 
1

$$$$

     RDKit          3D

 54 57  0  0  0  0  0  0  0  0999 V2000
  137.7410   76.0680  221.3210 O   0  0  0  0  0  0  0  0  0  0  0  0
  138.9090   76.1280  221.8300 C   0  0  0  0  0  0  0  0  0  0  0  0
  139.6230   74.9000  221.8730 N   0  0  0  0  0  0  0  0  0  0  0  0
  138.9430   73.7310  221.3370 C   0  0  0  0  0  0  0  0  0  0  0  0
  139.3020   72.5480  222.1880 C   0  0  0  0  0  0  0  0  0  0  0  0
  140.2370   72.7290  222.9960 O   0  0  0  0  0  0  0  0  0  0  0  0
  138.5630   71.3710  221.9970 N   0  0  0  0  0  0  0  0  0  0  0  0
  137.9140   70.9430  220.7170 C   0  0  0  0  0  0  0  0  0  0  0  0
  138.2920   69.4480  220.6850 C   0  0  0  0  0  0  0  0  0  0  0  0
  138.9060   69.1600  222.0720 C   0  0  0  0  0  0  0  0  0  0  0  0
  138.2260   70.2470  222.8490 C   0  0  1  0  0  0  0  0  0  0  0  0
  138.4560   70.3540  224.2840 C   0  0  0  0  0  0  0  0  0  0  0  0
  139.9090   70.0840  224.5940 C   0  0  0  0  0  0  0  0  0  0  0  0
  140.3060   70.6520  225.9080 C   0  0  0  0  0  0  0  0  0  0  0  0
  139.9550   70.0620  227.1100 C   0  0  0  0  0  0  0  0  0  0  0  0
  140.3250   70.5890  228.3340 C   0  0  0  0  0  0  0  0  0  0  0  0
  141.0640   71.7390  228.4010 C   0  0  0  0  0  0  0  0  0  0  0  0
  141.4250   72.3480  227.2150 C   0  0  0  0  0  0  0  0  0  0  0  0
  141.0540   71.8160  225.9980 C   0  0  0  0  0  0  0  0  0  0  0  0
  139.4670   77.3790  222.3320 C   0  0  0  0  0  0  0  0  0  0  0  0
  138.5880   78.3310  222.8030 C   0  0  0  0  0  0  0  0  0  0  0  0
  138.9940   79.5530  223.3030 C   0  0  0  0  0  0  0  0  0  0  0  0
  140.3740   79.7870  223.3100 C   0  0  0  0  0  0  0  0  0  0  0  0
  140.7710   81.0040  223.8080 C   0  0  0  0  0  0  0  0  0  0  0  0
  142.1290   81.2630  223.8280 C   0  0  0  0  0  0  0  0  0  0  0  0
  143.0050   80.3260  223.3630 C   0  0  0  0  0  0  0  0  0  0  0  0
  142.5810   79.0970  222.8620 C   0  0  0  0  0  0  0  0  0  0  0  0
  141.2450   78.8290  222.8380 C   0  0  0  0  0  0  0  0  0  0  0  0
  140.7920   77.6360  222.3540 N   0  0  0  0  0  0  0  0  0  0  0  0
  140.5890   74.8640  222.2750 H   0  0  0  0  0  0  0  0  0  0  0  0
  137.8548   73.8900  221.3604 H   0  0  0  0  0  0  0  0  0  0  0  0
  139.2507   73.5569  220.2954 H   0  0  0  0  0  0  0  0  0  0  0  0
  136.8236   71.0839  220.7495 H   0  0  0  0  0  0  0  0  0  0  0  0
  138.2347   71.5122  219.8320 H   0  0  0  0  0  0  0  0  0  0  0  0
  137.3989   68.8270  220.5213 H   0  0  0  0  0  0  0  0  0  0  0  0
  138.9913   69.2165  219.8680 H   0  0  0  0  0  0  0  0  0  0  0  0
  138.6411   68.1586  222.4422 H   0  0  0  0  0  0  0  0  0  0  0  0
  140.0051   69.1588  222.1158 H   0  0  0  0  0  0  0  0  0  0  0  0
  137.1484   70.0893  223.0036 H   0  0  0  0  0  0  0  0  0  0  0  0
  138.1937   71.3678  224.6207 H   0  0  0  0  0  0  0  0  0  0  0  0
  137.8311   69.6148  224.8067 H   0  0  0  0  0  0  0  0  0  0  0  0
  140.0735   68.9965  224.6115 H   0  0  0  0  0  0  0  0  0  0  0  0
  140.5202   70.5630  223.8150 H   0  0  0  0  0  0  0  0  0  0  0  0
  139.3585   69.1379  227.0909 H   0  0  0  0  0  0  0  0  0  0  0  0
  140.0229   70.0798  229.2611 H   0  0  0  0  0  0  0  0  0  0  0  0
  141.3615   72.1655  229.3703 H   0  0  0  0  0  0  0  0  0  0  0  0
  142.0188   73.2736  227.2417 H   0  0  0  0  0  0  0  0  0  0  0  0
  141.3596   72.3288  225.0741 H   0  0  0  0  0  0  0  0  0  0  0  0
  137.5114   78.1066  222.7795 H   0  0  0  0  0  0  0  0  0  0  0  0
  138.2751   80.2984  223.6738 H   0  0  0  0  0  0  0  0  0  0  0  0
  140.0406   81.7402  224.1748 H   0  0  0  0  0  0  0  0  0  0  0  0
  142.5021   82.2216  224.2177 H   0  0  0  0  0  0  0  0  0  0  0  0
  144.0821   80.5483  223.3844 H   0  0  0  0  0  0  0  0  0  0  0  0
  143.3088   78.3590  222.4938 H   0  0  0  0  0  0  0  0  0  0  0  0
  1  2  2  0
  2  3  1  0
  3  4  1  0
  4  5  1  0
  5  6  2  0
  5  7  1  0
  7  8  1  0
  8  9  1  0
  9 10  1  0
 10 11  1  0
 11 12  1  0
 12 13  1  0
 13 14  1  0
 14 15  2  0
 15 16  1  0
 16 17  2  0
 17 18  1  0
 18 19  2  0
  2 20  1  0
 20 21  2  0
 21 22  1  0
 22 23  2  0
 23 24  1  0
 24 25  2  0
 25 26  1  0
 26 27  2  0
 27 28  1  0
 28 29  2  0
 11  7  1  0
 19 14  1  0
 29 20  1  0
 28 23  1  0
  3 30  1  0
  4 31  1  0
  4 32  1  0
  8 33  1  0
  8 34  1  0
  9 35  1  0
  9 36  1  0
 10 37  1  0
 10 38  1  0
 11 39  1  1
 12 40  1  0
 12 41  1  0
 13 42  1  0
 13 43  1  0
 15 44  1  0
 16 45  1  0
 17 46  1  0
 18 47  1  0
 19 48  1  0
 21 49  1  0
 22 50  1  0
 24 51  1  0
 25 52  1  0
 26 53  1  0
 27 54  1  0
M  END
>  <smiles>  (52) 
O=C(NCC(=O)N1CCCC1CCc1ccccc1)c1ccc2ccccc2n1

>  <score_type>  (52) 
oracle

>  <origin>  (52) 
autodockgpu

>  <m_score__min__energy>  (52) 
-9.3699999999999992

>  <m_primary>  (52) 
energy

>  <rmsd>  (52) 
8.416777774131937

>  <m_score__min__rmsd>  (52) 
8.416777774131937

>  <meeko>  (52) 
{"free_energy": -8.47, "intermolecular_energy": -10.56, "internal_energy": -1.96, "cluster_size": 14, "cluster_id": 3, "rank_in_cluster": 8}

>  <energy>  (52) 
-9.28

>  <cluster_rmsd>  (52) 
0.24

>  <cluster>  (52) 
1

$$$$

     RDKit          3D

 54 57  0  0  0  0  0  0  0  0999 V2000
  137.3880   76.3810  222.1560 O   0  0  0  0  0  0  0  0  0  0  0  0
  138.6490   76.4380  222.3460 C   0  0  0  0  0  0  0  0  0  0  0  0
  139.3520   75.2180  222.1630 N   0  0  0  0  0  0  0  0  0  0  0  0
  138.5600   74.0580  221.7850 C   0  0  0  0  0  0  0  0  0  0  0  0
  139.3490   72.8230  222.1110 C   0  0  0  0  0  0  0  0  0  0  0  0
  140.5560   73.0090  222.3750 O   0  0  0  0  0  0  0  0  0  0  0  0
  138.6670   71.5990  222.0870 N   0  0  0  0  0  0  0  0  0  0  0  0
  137.5270   71.2490  221.1810 C   0  0  0  0  0  0  0  0  0  0  0  0
  137.9250   69.8230  220.7490 C   0  0  0  0  0  0  0  0  0  0  0  0
  139.1180   69.4490  221.6540 C   0  0  0  0  0  0  0  0  0  0  0  0
  138.8150   70.3510  222.8110 C   0  0  1  0  0  0  0  0  0  0  0  0
  139.6700   70.3170  223.9910 C   0  0  0  0  0  0  0  0  0  0  0  0
  139.1240   69.3300  224.9940 C   0  0  0  0  0  0  0  0  0  0  0  0
  139.9080   69.3360  226.2560 C   0  0  0  0  0  0  0  0  0  0  0  0
  140.2840   68.1720  226.9030 C   0  0  0  0  0  0  0  0  0  0  0  0
  141.0150   68.1760  228.0780 C   0  0  0  0  0  0  0  0  0  0  0  0
  141.3970   69.3580  228.6540 C   0  0  0  0  0  0  0  0  0  0  0  0
  141.0330   70.5330  228.0270 C   0  0  0  0  0  0  0  0  0  0  0  0
  140.3050   70.5210  226.8560 C   0  0  0  0  0  0  0  0  0  0  0  0
  139.3150   77.6800  222.7240 C   0  0  0  0  0  0  0  0  0  0  0  0
  138.5230   78.7460  223.0950 C   0  0  0  0  0  0  0  0  0  0  0  0
  139.0350   79.9720  223.4740 C   0  0  0  0  0  0  0  0  0  0  0  0
  140.4290   80.0850  223.4640 C   0  0  0  0  0  0  0  0  0  0  0  0
  140.9330   81.3060  223.8420 C   0  0  0  0  0  0  0  0  0  0  0  0
  142.3080   81.4490  223.8420 C   0  0  0  0  0  0  0  0  0  0  0  0
  143.0970   80.3980  223.4750 C   0  0  0  0  0  0  0  0  0  0  0  0
  142.5670   79.1670  223.0960 C   0  0  0  0  0  0  0  0  0  0  0  0
  141.2130   79.0140  223.0920 C   0  0  0  0  0  0  0  0  0  0  0  0
  140.6570   77.8220  222.7260 N   0  0  0  0  0  0  0  0  0  0  0  0
  140.3890   75.1800  222.2990 H   0  0  0  0  0  0  0  0  0  0  0  0
  137.6141   74.0543  222.3465 H   0  0  0  0  0  0  0  0  0  0  0  0
  138.3311   74.0890  220.7095 H   0  0  0  0  0  0  0  0  0  0  0  0
  136.5670   71.2557  221.7179 H   0  0  0  0  0  0  0  0  0  0  0  0
  137.3768   71.9510  220.3476 H   0  0  0  0  0  0  0  0  0  0  0  0
  137.0890   69.1249  220.9033 H   0  0  0  0  0  0  0  0  0  0  0  0
  138.1849   69.7724  219.6813 H   0  0  0  0  0  0  0  0  0  0  0  0
  139.1024   68.3874  221.9417 H   0  0  0  0  0  0  0  0  0  0  0  0
  140.1141   69.5705  221.2035 H   0  0  0  0  0  0  0  0  0  0  0  0
  137.9370   70.0506  223.4016 H   0  0  0  0  0  0  0  0  0  0  0  0
  140.6856   70.0136  223.6967 H   0  0  0  0  0  0  0  0  0  0  0  0
  139.6977   71.3178  224.4466 H   0  0  0  0  0  0  0  0  0  0  0  0
  138.0806   69.5938  225.2216 H   0  0  0  0  0  0  0  0  0  0  0  0
  139.1902   68.3237  224.5548 H   0  0  0  0  0  0  0  0  0  0  0  0
  139.9904   67.2060  226.4664 H   0  0  0  0  0  0  0  0  0  0  0  0
  141.2911   67.2229  228.5526 H   0  0  0  0  0  0  0  0  0  0  0  0
  141.9768   69.3711  229.5887 H   0  0  0  0  0  0  0  0  0  0  0  0
  141.3290   71.4956  228.4694 H   0  0  0  0  0  0  0  0  0  0  0  0
  140.0320   71.4771  226.3855 H   0  0  0  0  0  0  0  0  0  0  0  0
  137.4310   78.6140  223.0889 H   0  0  0  0  0  0  0  0  0  0  0  0
  138.3847   80.8097  223.7663 H   0  0  0  0  0  0  0  0  0  0  0  0
  140.2704   82.1347  224.1323 H   0  0  0  0  0  0  0  0  0  0  0  0
  142.7640   82.4057  224.1365 H   0  0  0  0  0  0  0  0  0  0  0  0
  144.1894   80.5274  223.4786 H   0  0  0  0  0  0  0  0  0  0  0  0
  143.2272   78.3363  222.8062 H   0  0  0  0  0  0  0  0  0  0  0  0
  1  2  2  0
  2  3  1  0
  3  4  1  0
  4  5  1  0
  5  6  2  0
  5  7  1  0
  7  8  1  0
  8  9  1  0
  9 10  1  0
 10 11  1  0
 11 12  1  0
 12 13  1  0
 13 14  1  0
 14 15  2  0
 15 16  1  0
 16 17  2  0
 17 18  1  0
 18 19  2  0
  2 20  1  0
 20 21  2  0
 21 22  1  0
 22 23  2  0
 23 24  1  0
 24 25  2  0
 25 26  1  0
 26 27  2  0
 27 28  1  0
 28 29  2  0
 11  7  1  0
 19 14  1  0
 29 20  1  0
 28 23  1  0
  3 30  1  0
  4 31  1  0
  4 32  1  0
  8 33  1  0
  8 34  1  0
  9 35  1  0
  9 36  1  0
 10 37  1  0
 10 38  1  0
 11 39  1  1
 12 40  1  0
 12 41  1  0
 13 42  1  0
 13 43  1  0
 15 44  1  0
 16 45  1  0
 17 46  1  0
 18 47  1  0
 19 48  1  0
 21 49  1  0
 22 50  1  0
 24 51  1  0
 25 52  1  0
 26 53  1  0
 27 54  1  0
M  END
>  <smiles>  (53) 
O=C(NCC(=O)N1CCCC1CCc1ccccc1)c1ccc2ccccc2n1

>  <score_type>  (53) 
oracle

>  <origin>  (53) 
autodockgpu

>  <m_score__min__energy>  (53) 
-9.3699999999999992

>  <m_primary>  (53) 
energy

>  <rmsd>  (53) 
8.533004829019047

>  <m_score__min__rmsd>  (53) 
8.533004829019047

>  <meeko>  (53) 
{"free_energy": -8.3, "intermolecular_energy": -10.39, "internal_energy": -1.87, "cluster_size": 14, "cluster_id": 3, "rank_in_cluster": 13}

>  <energy>  (53) 
-9.02

>  <cluster_rmsd>  (53) 
1.88

>  <cluster>  (53) 
1

$$$$

     RDKit          3D

 54 57  0  0  0  0  0  0  0  0999 V2000
  140.7260   74.5200  221.4550 O   0  0  0  0  0  0  0  0  0  0  0  0
  139.7740   75.1620  222.0120 C   0  0  0  0  0  0  0  0  0  0  0  0
  138.5940   74.4130  222.2640 N   0  0  0  0  0  0  0  0  0  0  0  0
  138.6090   73.0160  221.8590 C   0  0  0  0  0  0  0  0  0  0  0  0
  137.6220   72.2690  222.7080 C   0  0  0  0  0  0  0  0  0  0  0  0
  136.5870   72.9000  223.0120 O   0  0  0  0  0  0  0  0  0  0  0  0
  137.9510   70.9560  223.0730 N   0  0  0  0  0  0  0  0  0  0  0  0
  137.0380   69.7720  223.0010 C   0  0  0  0  0  0  0  0  0  0  0  0
  137.9820   68.7110  222.4010 C   0  0  0  0  0  0  0  0  0  0  0  0
  139.3830   69.3590  222.4310 C   0  0  0  0  0  0  0  0  0  0  0  0
  139.1620   70.3210  223.5580 C   0  0  1  0  0  0  0  0  0  0  0  0
  140.2640   71.1580  224.0140 C   0  0  0  0  0  0  0  0  0  0  0  0
  140.0730   71.5150  225.4680 C   0  0  0  0  0  0  0  0  0  0  0  0
  140.3290   70.3530  226.3590 C   0  0  0  0  0  0  0  0  0  0  0  0
  140.9550   69.2010  225.9160 C   0  0  0  0  0  0  0  0  0  0  0  0
  141.1950   68.1190  226.7440 C   0  0  0  0  0  0  0  0  0  0  0  0
  140.8110   68.1510  228.0580 C   0  0  0  0  0  0  0  0  0  0  0  0
  140.1840   69.2900  228.5230 C   0  0  0  0  0  0  0  0  0  0  0  0
  139.9490   70.3650  227.6920 C   0  0  0  0  0  0  0  0  0  0  0  0
  139.9000   76.5720  222.3660 C   0  0  0  0  0  0  0  0  0  0  0  0
  138.7390   77.2980  222.5350 C   0  0  0  0  0  0  0  0  0  0  0  0
  138.7280   78.6370  222.8700 C   0  0  0  0  0  0  0  0  0  0  0  0
  139.9800   79.2410  223.0330 C   0  0  0  0  0  0  0  0  0  0  0  0
  139.9620   80.5740  223.3660 C   0  0  0  0  0  0  0  0  0  0  0  0
  141.1850   81.1970  223.5340 C   0  0  0  0  0  0  0  0  0  0  0  0
  142.3370   80.4860  223.3670 C   0  0  0  0  0  0  0  0  0  0  0  0
  142.3330   79.1340  223.0290 C   0  0  0  0  0  0  0  0  0  0  0  0
  141.1340   78.5080  222.8620 C   0  0  0  0  0  0  0  0  0  0  0  0
  141.0910   77.1840  222.5310 N   0  0  0  0  0  0  0  0  0  0  0  0
  137.7670   74.8660  222.7190 H   0  0  0  0  0  0  0  0  0  0  0  0
  138.3261   72.9328  220.7992 H   0  0  0  0  0  0  0  0  0  0  0  0
  139.6166   72.5943  221.9890 H   0  0  0  0  0  0  0  0  0  0  0  0
  136.6796   69.4767  223.9982 H   0  0  0  0  0  0  0  0  0  0  0  0
  136.1188   69.9419  222.4212 H   0  0  0  0  0  0  0  0  0  0  0  0
  137.9675   67.7934  223.0075 H   0  0  0  0  0  0  0  0  0  0  0  0
  137.6830   68.4207  221.3830 H   0  0  0  0  0  0  0  0  0  0  0  0
  140.1724   68.6279  222.6596 H   0  0  0  0  0  0  0  0  0  0  0  0
  139.7225   69.8042  221.4841 H   0  0  0  0  0  0  0  0  0  0  0  0
  139.0736   69.8479  224.5471 H   0  0  0  0  0  0  0  0  0  0  0  0
  141.2108   70.6109  223.8945 H   0  0  0  0  0  0  0  0  0  0  0  0
  140.2885   72.0807  223.4156 H   0  0  0  0  0  0  0  0  0  0  0  0
  140.7692   72.3252  225.7303 H   0  0  0  0  0  0  0  0  0  0  0  0
  139.0287   71.8307  225.6087 H   0  0  0  0  0  0  0  0  0  0  0  0
  141.2741   69.1434  224.8649 H   0  0  0  0  0  0  0  0  0  0  0  0
  141.6981   67.2264  226.3438 H   0  0  0  0  0  0  0  0  0  0  0  0
  140.9965   67.2949  228.7233 H   0  0  0  0  0  0  0  0  0  0  0  0
  139.8664   69.3407  229.5749 H   0  0  0  0  0  0  0  0  0  0  0  0
  139.4467   71.2556  228.0976 H   0  0  0  0  0  0  0  0  0  0  0  0
  137.7759   76.7851  222.3961 H   0  0  0  0  0  0  0  0  0  0  0  0
  137.7901   79.1966  223.0012 H   0  0  0  0  0  0  0  0  0  0  0  0
  139.0164   81.1214  223.4933 H   0  0  0  0  0  0  0  0  0  0  0  0
  141.2287   82.2631  223.8016 H   0  0  0  0  0  0  0  0  0  0  0  0
  143.3015   80.9969  223.5037 H   0  0  0  0  0  0  0  0  0  0  0  0
  143.2769   78.5842  222.8998 H   0  0  0  0  0  0  0  0  0  0  0  0
  1  2  2  0
  2  3  1  0
  3  4  1  0
  4  5  1  0
  5  6  2  0
  5  7  1  0
  7  8  1  0
  8  9  1  0
  9 10  1  0
 10 11  1  0
 11 12  1  0
 12 13  1  0
 13 14  1  0
 14 15  2  0
 15 16  1  0
 16 17  2  0
 17 18  1  0
 18 19  2  0
  2 20  1  0
 20 21  2  0
 21 22  1  0
 22 23  2  0
 23 24  1  0
 24 25  2  0
 25 26  1  0
 26 27  2  0
 27 28  1  0
 28 29  2  0
 11  7  1  0
 19 14  1  0
 29 20  1  0
 28 23  1  0
  3 30  1  0
  4 31  1  0
  4 32  1  0
  8 33  1  0
  8 34  1  0
  9 35  1  0
  9 36  1  0
 10 37  1  0
 10 38  1  0
 11 39  1  1
 12 40  1  0
 12 41  1  0
 13 42  1  0
 13 43  1  0
 15 44  1  0
 16 45  1  0
 17 46  1  0
 18 47  1  0
 19 48  1  0
 21 49  1  0
 22 50  1  0
 24 51  1  0
 25 52  1  0
 26 53  1  0
 27 54  1  0
M  END
>  <smiles>  (54) 
O=C(NCC(=O)N1CCCC1CCc1ccccc1)c1ccc2ccccc2n1

>  <score_type>  (54) 
oracle

>  <origin>  (54) 
autodockgpu

>  <m_score__min__energy>  (54) 
-9.3699999999999992

>  <m_primary>  (54) 
energy

>  <rmsd>  (54) 
8.219679441536055

>  <m_score__min__rmsd>  (54) 
8.219679441536055

>  <meeko>  (54) 
{"free_energy": -8.39, "intermolecular_energy": -10.48, "internal_energy": -1.87, "cluster_size": 14, "cluster_id": 3, "rank_in_cluster": 11}

>  <energy>  (54) 
-9.01

>  <cluster_rmsd>  (54) 
1.87

>  <cluster>  (54) 
1

$$$$

     RDKit          3D

 54 57  0  0  0  0  0  0  0  0999 V2000
  137.4360   76.2980  222.0520 O   0  0  0  0  0  0  0  0  0  0  0  0
  138.6780   76.3490  222.3430 C   0  0  0  0  0  0  0  0  0  0  0  0
  139.3700   75.1100  222.2920 N   0  0  0  0  0  0  0  0  0  0  0  0
  138.5890   73.9410  221.9200 C   0  0  0  0  0  0  0  0  0  0  0  0
  139.5140   72.7610  221.8500 C   0  0  0  0  0  0  0  0  0  0  0  0
  140.7310   73.0220  221.9610 O   0  0  0  0  0  0  0  0  0  0  0  0
  138.9320   71.4980  221.6700 N   0  0  0  0  0  0  0  0  0  0  0  0
  138.4780   70.9210  220.3640 C   0  0  0  0  0  0  0  0  0  0  0  0
  139.0170   69.4800  220.4790 C   0  0  0  0  0  0  0  0  0  0  0  0
  139.5010   69.3490  221.9390 C   0  0  0  0  0  0  0  0  0  0  0  0
  138.6270   70.3950  222.5610 C   0  0  1  0  0  0  0  0  0  0  0  0
  138.6850   70.6140  224.0010 C   0  0  0  0  0  0  0  0  0  0  0  0
  139.9480   70.0090  224.5640 C   0  0  0  0  0  0  0  0  0  0  0  0
  140.3040   70.6020  225.8790 C   0  0  0  0  0  0  0  0  0  0  0  0
  139.8950   70.0490  227.0790 C   0  0  0  0  0  0  0  0  0  0  0  0
  140.2270   70.6000  228.3040 C   0  0  0  0  0  0  0  0  0  0  0  0
  140.9860   71.7370  228.3720 C   0  0  0  0  0  0  0  0  0  0  0  0
  141.4050   72.3090  227.1870 C   0  0  0  0  0  0  0  0  0  0  0  0
  141.0720   71.7530  225.9700 C   0  0  0  0  0  0  0  0  0  0  0  0
  139.3340   77.6020  222.7010 C   0  0  0  0  0  0  0  0  0  0  0  0
  138.5330   78.6720  223.0400 C   0  0  0  0  0  0  0  0  0  0  0  0
  139.0360   79.9080  223.3970 C   0  0  0  0  0  0  0  0  0  0  0  0
  140.4300   80.0280  223.3990 C   0  0  0  0  0  0  0  0  0  0  0  0
  140.9240   81.2600  223.7550 C   0  0  0  0  0  0  0  0  0  0  0  0
  142.2980   81.4080  223.7660 C   0  0  0  0  0  0  0  0  0  0  0  0
  143.0960   80.3540  223.4310 C   0  0  0  0  0  0  0  0  0  0  0  0
  142.5750   79.1120  223.0730 C   0  0  0  0  0  0  0  0  0  0  0  0
  141.2220   78.9530  223.0590 C   0  0  0  0  0  0  0  0  0  0  0  0
  140.6750   77.7510  222.7130 N   0  0  0  0  0  0  0  0  0  0  0  0
  140.3920   75.0660  222.5160 H   0  0  0  0  0  0  0  0  0  0  0  0
  137.8095   73.7587  222.6744 H   0  0  0  0  0  0  0  0  0  0  0  0
  138.1049   74.1022  220.9455 H   0  0  0  0  0  0  0  0  0  0  0  0
  137.3818   70.9368  220.2741 H   0  0  0  0  0  0  0  0  0  0  0  0
  138.8308   71.4689  219.4778 H   0  0  0  0  0  0  0  0  0  0  0  0
  138.2201   68.7514  220.2692 H   0  0  0  0  0  0  0  0  0  0  0  0
  139.8233   69.2819  219.7574 H   0  0  0  0  0  0  0  0  0  0  0  0
  139.3061   68.3480  222.3514 H   0  0  0  0  0  0  0  0  0  0  0  0
  140.5823   69.4768  222.0957 H   0  0  0  0  0  0  0  0  0  0  0  0
  137.5624   70.1234  222.6142 H   0  0  0  0  0  0  0  0  0  0  0  0
  138.6759   71.6947  224.2059 H   0  0  0  0  0  0  0  0  0  0  0  0
  137.8139   70.1375  224.4744 H   0  0  0  0  0  0  0  0  0  0  0  0
  139.7990   68.9264  224.6900 H   0  0  0  0  0  0  0  0  0  0  0  0
  140.7691   70.2155  223.8617 H   0  0  0  0  0  0  0  0  0  0  0  0
  139.2821   69.1358  227.0587 H   0  0  0  0  0  0  0  0  0  0  0  0
  139.8782   70.1205  229.2305 H   0  0  0  0  0  0  0  0  0  0  0  0
  141.2542   72.1818  229.3416 H   0  0  0  0  0  0  0  0  0  0  0  0
  142.0149   73.2240  227.2145 H   0  0  0  0  0  0  0  0  0  0  0  0
  141.4250   72.2354  225.0466 H   0  0  0  0  0  0  0  0  0  0  0  0
  137.4417   78.5348  223.0254 H   0  0  0  0  0  0  0  0  0  0  0  0
  138.3790   80.7488  223.6641 H   0  0  0  0  0  0  0  0  0  0  0  0
  140.2549   82.0921  224.0197 H   0  0  0  0  0  0  0  0  0  0  0  0
  142.7467   82.3731  224.0441 H   0  0  0  0  0  0  0  0  0  0  0  0
  144.1876   80.4887  223.4438 H   0  0  0  0  0  0  0  0  0  0  0  0
  143.2416   78.2783  222.8075 H   0  0  0  0  0  0  0  0  0  0  0  0
  1  2  2  0
  2  3  1  0
  3  4  1  0
  4  5  1  0
  5  6  2  0
  5  7  1  0
  7  8  1  0
  8  9  1  0
  9 10  1  0
 10 11  1  0
 11 12  1  0
 12 13  1  0
 13 14  1  0
 14 15  2  0
 15 16  1  0
 16 17  2  0
 17 18  1  0
 18 19  2  0
  2 20  1  0
 20 21  2  0
 21 22  1  0
 22 23  2  0
 23 24  1  0
 24 25  2  0
 25 26  1  0
 26 27  2  0
 27 28  1  0
 28 29  2  0
 11  7  1  0
 19 14  1  0
 29 20  1  0
 28 23  1  0
  3 30  1  0
  4 31  1  0
  4 32  1  0
  8 33  1  0
  8 34  1  0
  9 35  1  0
  9 36  1  0
 10 37  1  0
 10 38  1  0
 11 39  1  6
 12 40  1  0
 12 41  1  0
 13 42  1  0
 13 43  1  0
 15 44  1  0
 16 45  1  0
 17 46  1  0
 18 47  1  0
 19 48  1  0
 21 49  1  0
 22 50  1  0
 24 51  1  0
 25 52  1  0
 26 53  1  0
 27 54  1  0
M  END
>  <smiles>  (55) 
O=C(NCC(=O)N1CCCC1CCc1ccccc1)c1ccc2ccccc2n1

>  <score_type>  (55) 
oracle

>  <origin>  (55) 
autodockgpu

>  <m_score__min__energy>  (55) 
-9.3699999999999992

>  <m_primary>  (55) 
energy

>  <rmsd>  (55) 
8.433761121571566

>  <m_score__min__rmsd>  (55) 
8.433761121571566

>  <meeko>  (55) 
{"free_energy": -8.38, "intermolecular_energy": -10.47, "internal_energy": -2.05, "cluster_size": 14, "cluster_id": 3, "rank_in_cluster": 12}

>  <energy>  (55) 
-8.95

>  <cluster_rmsd>  (55) 
1.32

>  <cluster>  (55) 
1

$$$$

     RDKit          3D

 54 57  0  0  0  0  0  0  0  0999 V2000
  140.3850   71.2740  221.6160 O   0  0  0  0  0  0  0  0  0  0  0  0
  139.7530   71.6510  222.6590 C   0  0  0  0  0  0  0  0  0  0  0  0
  138.7510   72.6350  222.4480 N   0  0  0  0  0  0  0  0  0  0  0  0
  138.5660   73.0940  221.0800 C   0  0  0  0  0  0  0  0  0  0  0  0
  138.9240   74.5500  221.0200 C   0  0  0  0  0  0  0  0  0  0  0  0
  137.9780   75.3290  220.7750 O   0  0  0  0  0  0  0  0  0  0  0  0
  140.2650   74.8920  221.2430 N   0  0  0  0  0  0  0  0  0  0  0  0
  141.4480   74.0080  220.9940 C   0  0  0  0  0  0  0  0  0  0  0  0
  142.4150   74.9970  220.3140 C   0  0  0  0  0  0  0  0  0  0  0  0
  141.7520   76.3820  220.4790 C   0  0  0  0  0  0  0  0  0  0  0  0
  140.9330   76.0960  221.7010 C   0  0  1  0  0  0  0  0  0  0  0  0
  140.1380   77.1610  222.2970 C   0  0  0  0  0  0  0  0  0  0  0  0
  140.3680   78.4540  221.5520 C   0  0  0  0  0  0  0  0  0  0  0  0
  141.1740   79.4140  222.3500 C   0  0  0  0  0  0  0  0  0  0  0  0
  140.5980   80.4090  223.1190 C   0  0  0  0  0  0  0  0  0  0  0  0
  141.3480   81.3030  223.8630 C   0  0  0  0  0  0  0  0  0  0  0  0
  142.7150   81.2330  223.8620 C   0  0  0  0  0  0  0  0  0  0  0  0
  143.3130   80.2490  223.1000 C   0  0  0  0  0  0  0  0  0  0  0  0
  142.5600   79.3610  222.3620 C   0  0  0  0  0  0  0  0  0  0  0  0
  140.0470   71.1000  223.9770 C   0  0  0  0  0  0  0  0  0  0  0  0
  140.7290   71.9000  224.8710 C   0  0  0  0  0  0  0  0  0  0  0  0
  141.0640   71.4920  226.1470 C   0  0  0  0  0  0  0  0  0  0  0  0
  140.6720   70.1960  226.5010 C   0  0  0  0  0  0  0  0  0  0  0  0
  141.0080   69.7960  227.7720 C   0  0  0  0  0  0  0  0  0  0  0  0
  140.6330   68.5200  228.1510 C   0  0  0  0  0  0  0  0  0  0  0  0
  139.9600   67.7230  227.2720 C   0  0  0  0  0  0  0  0  0  0  0  0
  139.6270   68.1480  225.9870 C   0  0  0  0  0  0  0  0  0  0  0  0
  139.9910   69.4040  225.6020 C   0  0  0  0  0  0  0  0  0  0  0  0
  139.6830   69.8550  224.3510 N   0  0  0  0  0  0  0  0  0  0  0  0
  138.1870   72.9960  223.2520 H   0  0  0  0  0  0  0  0  0  0  0  0
  139.2188   72.5221  220.4041 H   0  0  0  0  0  0  0  0  0  0  0  0
  137.5213   72.9471  220.7686 H   0  0  0  0  0  0  0  0  0  0  0  0
  141.8649   73.6166  221.9337 H   0  0  0  0  0  0  0  0  0  0  0  0
  141.2259   73.1093  220.3998 H   0  0  0  0  0  0  0  0  0  0  0  0
  143.3979   74.9777  220.8074 H   0  0  0  0  0  0  0  0  0  0  0  0
  142.5880   74.7451  219.2573 H   0  0  0  0  0  0  0  0  0  0  0  0
  142.4920   77.1770  220.6535 H   0  0  0  0  0  0  0  0  0  0  0  0
  141.1927   76.7494  219.6060 H   0  0  0  0  0  0  0  0  0  0  0  0
  141.5204   75.9780  222.6235 H   0  0  0  0  0  0  0  0  0  0  0  0
  139.0722   76.8940  222.2433 H   0  0  0  0  0  0  0  0  0  0  0  0
  140.4370   77.2908  223.3476 H   0  0  0  0  0  0  0  0  0  0  0  0
  140.9002   78.2351  220.6145 H   0  0  0  0  0  0  0  0  0  0  0  0
  139.3884   78.9128  221.3523 H   0  0  0  0  0  0  0  0  0  0  0  0
  139.5014   80.4930  223.1400 H   0  0  0  0  0  0  0  0  0  0  0  0
  140.8416   82.0759  224.4598 H   0  0  0  0  0  0  0  0  0  0  0  0
  143.3189   81.9394  224.4505 H   0  0  0  0  0  0  0  0  0  0  0  0
  144.4102   80.1723  223.0815 H   0  0  0  0  0  0  0  0  0  0  0  0
  143.0717   78.5902  221.7670 H   0  0  0  0  0  0  0  0  0  0  0  0
  141.0199   72.9117  224.5517 H   0  0  0  0  0  0  0  0  0  0  0  0
  141.6070   72.1471  226.8442 H   0  0  0  0  0  0  0  0  0  0  0  0
  141.5517   70.4619  228.4582 H   0  0  0  0  0  0  0  0  0  0  0  0
  140.8765   68.1491  229.1576 H   0  0  0  0  0  0  0  0  0  0  0  0
  139.6702   66.7101  227.5882 H   0  0  0  0  0  0  0  0  0  0  0  0
  139.0826   67.4846  225.2988 H   0  0  0  0  0  0  0  0  0  0  0  0
  1  2  2  0
  2  3  1  0
  3  4  1  0
  4  5  1  0
  5  6  2  0
  5  7  1  0
  7  8  1  0
  8  9  1  0
  9 10  1  0
 10 11  1  0
 11 12  1  0
 12 13  1  0
 13 14  1  0
 14 15  2  0
 15 16  1  0
 16 17  2  0
 17 18  1  0
 18 19  2  0
  2 20  1  0
 20 21  2  0
 21 22  1  0
 22 23  2  0
 23 24  1  0
 24 25  2  0
 25 26  1  0
 26 27  2  0
 27 28  1  0
 28 29  2  0
 11  7  1  0
 19 14  1  0
 29 20  1  0
 28 23  1  0
  3 30  1  0
  4 31  1  0
  4 32  1  0
  8 33  1  0
  8 34  1  0
  9 35  1  0
  9 36  1  0
 10 37  1  0
 10 38  1  0
 11 39  1  1
 12 40  1  0
 12 41  1  0
 13 42  1  0
 13 43  1  0
 15 44  1  0
 16 45  1  0
 17 46  1  0
 18 47  1  0
 19 48  1  0
 21 49  1  0
 22 50  1  0
 24 51  1  0
 25 52  1  0
 26 53  1  0
 27 54  1  0
M  END
>  <smiles>  (56) 
O=C(NCC(=O)N1CCCC1CCc1ccccc1)c1ccc2ccccc2n1

>  <score_type>  (56) 
oracle

>  <origin>  (56) 
autodockgpu

>  <m_score__min__energy>  (56) 
-9.3699999999999992

>  <m_primary>  (56) 
energy

>  <rmsd>  (56) 
3.3527710526449837

>  <m_score__min__rmsd>  (56) 
3.3527710526449837

>  <meeko>  (56) 
{"free_energy": -8.95, "intermolecular_energy": -11.04, "internal_energy": -1.5, "cluster_size": 28, "cluster_id": 1, "rank_in_cluster": 5}

>  <energy>  (56) 
-8.87

>  <cluster_rmsd>  (56) 
1.83

>  <cluster>  (56) 
1

$$$$

     RDKit          3D

 54 57  0  0  0  0  0  0  0  0999 V2000
  137.8320   75.9580  222.3800 O   0  0  0  0  0  0  0  0  0  0  0  0
  139.0730   76.2230  222.2430 C   0  0  0  0  0  0  0  0  0  0  0  0
  139.8600   75.1900  221.6690 N   0  0  0  0  0  0  0  0  0  0  0  0
  139.1660   73.9640  221.3090 C   0  0  0  0  0  0  0  0  0  0  0  0
  139.5010   72.9170  222.3300 C   0  0  0  0  0  0  0  0  0  0  0  0
  140.6590   72.9690  222.7970 O   0  0  0  0  0  0  0  0  0  0  0  0
  138.4980   71.9940  222.6590 N   0  0  0  0  0  0  0  0  0  0  0  0
  137.0220   72.2430  222.5900 C   0  0  0  0  0  0  0  0  0  0  0  0
  136.5350   70.9320  221.9400 C   0  0  0  0  0  0  0  0  0  0  0  0
  137.7680   70.0020  221.9410 C   0  0  0  0  0  0  0  0  0  0  0  0
  138.5070   70.6100  223.0940 C   0  0  1  0  0  0  0  0  0  0  0  0
  139.7640   70.0170  223.5330 C   0  0  0  0  0  0  0  0  0  0  0  0
  139.5810   69.3600  224.8800 C   0  0  0  0  0  0  0  0  0  0  0  0
  140.1060   70.2080  225.9810 C   0  0  0  0  0  0  0  0  0  0  0  0
  139.8040   69.9700  227.3110 C   0  0  0  0  0  0  0  0  0  0  0  0
  140.2930   70.7570  228.3380 C   0  0  0  0  0  0  0  0  0  0  0  0
  141.1070   71.8230  228.0680 C   0  0  0  0  0  0  0  0  0  0  0  0
  141.4220   72.0820  226.7490 C   0  0  0  0  0  0  0  0  0  0  0  0
  140.9320   71.2920  225.7300 C   0  0  0  0  0  0  0  0  0  0  0  0
  139.6360   77.5050  222.6520 C   0  0  0  0  0  0  0  0  0  0  0  0
  138.7610   78.4900  223.0610 C   0  0  0  0  0  0  0  0  0  0  0  0
  139.1730   79.7430  223.4710 C   0  0  0  0  0  0  0  0  0  0  0  0
  140.5530   79.9750  223.4510 C   0  0  0  0  0  0  0  0  0  0  0  0
  140.9560   81.2230  223.8600 C   0  0  0  0  0  0  0  0  0  0  0  0
  142.3140   81.4810  223.8510 C   0  0  0  0  0  0  0  0  0  0  0  0
  143.1850   80.5120  223.4460 C   0  0  0  0  0  0  0  0  0  0  0  0
  142.7550   79.2520  223.0350 C   0  0  0  0  0  0  0  0  0  0  0  0
  141.4190   78.9850  223.0400 C   0  0  0  0  0  0  0  0  0  0  0  0
  140.9610   77.7610  222.6450 N   0  0  0  0  0  0  0  0  0  0  0  0
  140.8870   75.3280  221.5210 H   0  0  0  0  0  0  0  0  0  0  0  0
  138.0802   74.1402  221.2991 H   0  0  0  0  0  0  0  0  0  0  0  0
  139.4780   73.6313  220.3080 H   0  0  0  0  0  0  0  0  0  0  0  0
  136.5884   72.3834  223.5911 H   0  0  0  0  0  0  0  0  0  0  0  0
  136.7400   73.1540  222.0418 H   0  0  0  0  0  0  0  0  0  0  0  0
  135.7170   70.4899  222.5277 H   0  0  0  0  0  0  0  0  0  0  0  0
  136.1420   71.0953  220.9257 H   0  0  0  0  0  0  0  0  0  0  0  0
  137.4955   68.9533  222.1306 H   0  0  0  0  0  0  0  0  0  0  0  0
  138.3245   69.9471  220.9937 H   0  0  0  0  0  0  0  0  0  0  0  0
  138.0434   70.4295  224.0750 H   0  0  0  0  0  0  0  0  0  0  0  0
  140.0866   69.2626  222.8003 H   0  0  0  0  0  0  0  0  0  0  0  0
  140.5264   70.8056  223.6159 H   0  0  0  0  0  0  0  0  0  0  0  0
  138.5084   69.1825  225.0472 H   0  0  0  0  0  0  0  0  0  0  0  0
  140.1418   68.4137  224.8789 H   0  0  0  0  0  0  0  0  0  0  0  0
  139.1496   69.1219  227.5608 H   0  0  0  0  0  0  0  0  0  0  0  0
  140.0255   70.5241  229.3793 H   0  0  0  0  0  0  0  0  0  0  0  0
  141.4991   72.4553  228.8782 H   0  0  0  0  0  0  0  0  0  0  0  0
  142.0751   72.9332  226.5065 H   0  0  0  0  0  0  0  0  0  0  0  0
  141.2041   71.5287  224.6908 H   0  0  0  0  0  0  0  0  0  0  0  0
  137.6839   78.2669  223.0606 H   0  0  0  0  0  0  0  0  0  0  0  0
  138.4580   80.5138  223.7944 H   0  0  0  0  0  0  0  0  0  0  0  0
  140.2295   81.9841  224.1808 H   0  0  0  0  0  0  0  0  0  0  0  0
  142.6911   82.4641  224.1692 H   0  0  0  0  0  0  0  0  0  0  0  0
  144.2626   80.7329  223.4439 H   0  0  0  0  0  0  0  0  0  0  0  0
  143.4790   78.4889  222.7133 H   0  0  0  0  0  0  0  0  0  0  0  0
  1  2  2  0
  2  3  1  0
  3  4  1  0
  4  5  1  0
  5  6  2  0
  5  7  1  0
  7  8  1  0
  8  9  1  0
  9 10  1  0
 10 11  1  0
 11 12  1  0
 12 13  1  0
 13 14  1  0
 14 15  2  0
 15 16  1  0
 16 17  2  0
 17 18  1  0
 18 19  2  0
  2 20  1  0
 20 21  2  0
 21 22  1  0
 22 23  2  0
 23 24  1  0
 24 25  2  0
 25 26  1  0
 26 27  2  0
 27 28  1  0
 28 29  2  0
 11  7  1  0
 19 14  1  0
 29 20  1  0
 28 23  1  0
  3 30  1  0
  4 31  1  0
  4 32  1  0
  8 33  1  0
  8 34  1  0
  9 35  1  0
  9 36  1  0
 10 37  1  0
 10 38  1  0
 11 39  1  1
 12 40  1  0
 12 41  1  0
 13 42  1  0
 13 43  1  0
 15 44  1  0
 16 45  1  0
 17 46  1  0
 18 47  1  0
 19 48  1  0
 21 49  1  0
 22 50  1  0
 24 51  1  0
 25 52  1  0
 26 53  1  0
 27 54  1  0
M  END
>  <smiles>  (57) 
O=C(NCC(=O)N1CCCC1CCc1ccccc1)c1ccc2ccccc2n1

>  <score_type>  (57) 
oracle

>  <origin>  (57) 
autodockgpu

>  <m_score__min__energy>  (57) 
-9.3699999999999992

>  <m_primary>  (57) 
energy

>  <rmsd>  (57) 
8.493626190338757

>  <m_score__min__rmsd>  (57) 
8.493626190338757

>  <meeko>  (57) 
{"free_energy": -8.64, "intermolecular_energy": -10.72, "internal_energy": -1.79, "cluster_size": 14, "cluster_id": 3, "rank_in_cluster": 3}

>  <energy>  (57) 
-8.85

>  <cluster_rmsd>  (57) 
1.05

>  <cluster>  (57) 
1

$$$$

     RDKit          3D

 54 57  0  0  0  0  0  0  0  0999 V2000
  141.3950   71.9620  221.6590 O   0  0  0  0  0  0  0  0  0  0  0  0
  140.5430   72.2480  222.5650 C   0  0  0  0  0  0  0  0  0  0  0  0
  139.8260   73.4590  222.3720 N   0  0  0  0  0  0  0  0  0  0  0  0
  140.1450   74.2230  221.1760 C   0  0  0  0  0  0  0  0  0  0  0  0
  139.9500   75.6790  221.4820 C   0  0  0  0  0  0  0  0  0  0  0  0
  139.6520   75.9460  222.6660 O   0  0  0  0  0  0  0  0  0  0  0  0
  140.1200   76.5870  220.4270 N   0  0  0  0  0  0  0  0  0  0  0  0
  139.0210   77.2920  219.6940 C   0  0  0  0  0  0  0  0  0  0  0  0
  139.5980   78.7200  219.6070 C   0  0  0  0  0  0  0  0  0  0  0  0
  141.0590   78.5910  220.0890 C   0  0  0  0  0  0  0  0  0  0  0  0
  141.2790   77.1460  219.7580 C   0  0  1  0  0  0  0  0  0  0  0  0
  142.5870   76.5480  219.9930 C   0  0  0  0  0  0  0  0  0  0  0  0
  142.7100   75.2580  219.2170 C   0  0  0  0  0  0  0  0  0  0  0  0
  143.7550   74.3700  219.7890 C   0  0  0  0  0  0  0  0  0  0  0  0
  144.8570   74.8590  220.4670 C   0  0  0  0  0  0  0  0  0  0  0  0
  145.8310   74.0330  221.0000 C   0  0  0  0  0  0  0  0  0  0  0  0
  145.7360   72.6740  220.8690 C   0  0  0  0  0  0  0  0  0  0  0  0
  144.6460   72.1610  220.1950 C   0  0  0  0  0  0  0  0  0  0  0  0
  143.6790   72.9910  219.6670 C   0  0  0  0  0  0  0  0  0  0  0  0
  140.3260   71.3820  223.7190 C   0  0  0  0  0  0  0  0  0  0  0  0
  139.6390   70.2030  223.5170 C   0  0  0  0  0  0  0  0  0  0  0  0
  139.3720   69.3020  224.5290 C   0  0  0  0  0  0  0  0  0  0  0  0
  139.8420   69.6480  225.8010 C   0  0  0  0  0  0  0  0  0  0  0  0
  139.5740   68.7480  226.8030 C   0  0  0  0  0  0  0  0  0  0  0  0
  140.0260   69.0620  228.0710 C   0  0  0  0  0  0  0  0  0  0  0  0
  140.7060   70.2270  228.2780 C   0  0  0  0  0  0  0  0  0  0  0  0
  140.9690   71.1270  227.2470 C   0  0  0  0  0  0  0  0  0  0  0  0
  140.5280   70.8280  225.9930 C   0  0  0  0  0  0  0  0  0  0  0  0
  140.7670   71.6860  224.9580 N   0  0  0  0  0  0  0  0  0  0  0  0
  139.1090   73.7650  223.0700 H   0  0  0  0  0  0  0  0  0  0  0  0
  141.1902   74.0405  220.8857 H   0  0  0  0  0  0  0  0  0  0  0  0
  139.4905   73.9189  220.3458 H   0  0  0  0  0  0  0  0  0  0  0  0
  138.8587   76.8599  218.6956 H   0  0  0  0  0  0  0  0  0  0  0  0
  138.0365   77.2284  220.1805 H   0  0  0  0  0  0  0  0  0  0  0  0
  139.5638   79.0883  218.5710 H   0  0  0  0  0  0  0  0  0  0  0  0
  139.0242   79.4351  220.2147 H   0  0  0  0  0  0  0  0  0  0  0  0
  141.7388   79.2516  219.5309 H   0  0  0  0  0  0  0  0  0  0  0  0
  141.2417   78.8730  221.1364 H   0  0  0  0  0  0  0  0  0  0  0  0
  141.3408   76.9310  218.6810 H   0  0  0  0  0  0  0  0  0  0  0  0
  143.3713   77.2465  219.6660 H   0  0  0  0  0  0  0  0  0  0  0  0
  142.7008   76.3368  221.0665 H   0  0  0  0  0  0  0  0  0  0  0  0
  141.7435   74.7333  219.2422 H   0  0  0  0  0  0  0  0  0  0  0  0
  142.9977   75.5051  218.1844 H   0  0  0  0  0  0  0  0  0  0  0  0
  144.9633   75.9472  220.5872 H   0  0  0  0  0  0  0  0  0  0  0  0
  146.6876   74.4718  221.5327 H   0  0  0  0  0  0  0  0  0  0  0  0
  146.5059   72.0098  221.2886 H   0  0  0  0  0  0  0  0  0  0  0  0
  144.5469   71.0719  220.0770 H   0  0  0  0  0  0  0  0  0  0  0  0
  142.8248   72.5469  219.1350 H   0  0  0  0  0  0  0  0  0  0  0  0
  139.2870   69.9693  222.5014 H   0  0  0  0  0  0  0  0  0  0  0  0
  138.8221   68.3671  224.3460 H   0  0  0  0  0  0  0  0  0  0  0  0
  139.0230   67.8168  226.6050 H   0  0  0  0  0  0  0  0  0  0  0  0
  139.8384   68.3756  228.9098 H   0  0  0  0  0  0  0  0  0  0  0  0
  141.0584   70.4636  229.2928 H   0  0  0  0  0  0  0  0  0  0  0  0
  141.5207   72.0586  227.4414 H   0  0  0  0  0  0  0  0  0  0  0  0
  1  2  2  0
  2  3  1  0
  3  4  1  0
  4  5  1  0
  5  6  2  0
  5  7  1  0
  7  8  1  0
  8  9  1  0
  9 10  1  0
 10 11  1  0
 11 12  1  0
 12 13  1  0
 13 14  1  0
 14 15  2  0
 15 16  1  0
 16 17  2  0
 17 18  1  0
 18 19  2  0
  2 20  1  0
 20 21  2  0
 21 22  1  0
 22 23  2  0
 23 24  1  0
 24 25  2  0
 25 26  1  0
 26 27  2  0
 27 28  1  0
 28 29  2  0
 11  7  1  0
 19 14  1  0
 29 20  1  0
 28 23  1  0
  3 30  1  0
  4 31  1  0
  4 32  1  0
  8 33  1  0
  8 34  1  0
  9 35  1  0
  9 36  1  0
 10 37  1  0
 10 38  1  0
 11 39  1  6
 12 40  1  0
 12 41  1  0
 13 42  1  0
 13 43  1  0
 15 44  1  0
 16 45  1  0
 17 46  1  0
 18 47  1  0
 19 48  1  0
 21 49  1  0
 22 50  1  0
 24 51  1  0
 25 52  1  0
 26 53  1  0
 27 54  1  0
M  END
>  <smiles>  (58) 
O=C(NCC(=O)N1CCCC1CCc1ccccc1)c1ccc2ccccc2n1

>  <score_type>  (58) 
oracle

>  <origin>  (58) 
autodockgpu

>  <m_score__min__energy>  (58) 
-9.3699999999999992

>  <m_primary>  (58) 
energy

>  <rmsd>  (58) 
1.9739843533759684

>  <m_score__min__rmsd>  (58) 
1.9739843533759684

>  <meeko>  (58) 
{"free_energy": -8.23, "intermolecular_energy": -10.31, "internal_energy": -2.12, "cluster_size": 3, "cluster_id": 4, "rank_in_cluster": 1}

>  <energy>  (58) 
-8.83

>  <cluster_rmsd>  (58) 
1.81

>  <cluster>  (58) 
1

$$$$

     RDKit          3D

 54 57  0  0  0  0  0  0  0  0999 V2000
  141.5410   71.8920  222.1420 O   0  0  0  0  0  0  0  0  0  0  0  0
  140.5660   72.0210  222.9560 C   0  0  0  0  0  0  0  0  0  0  0  0
  139.5520   72.9320  222.5570 N   0  0  0  0  0  0  0  0  0  0  0  0
  139.7430   73.6040  221.2810 C   0  0  0  0  0  0  0  0  0  0  0  0
  140.4300   74.9130  221.5390 C   0  0  0  0  0  0  0  0  0  0  0  0
  139.9210   75.6230  222.4320 O   0  0  0  0  0  0  0  0  0  0  0  0
  141.5610   75.2090  220.7640 N   0  0  0  0  0  0  0  0  0  0  0  0
  142.8370   74.4250  220.7410 C   0  0  0  0  0  0  0  0  0  0  0  0
  143.1250   74.3800  219.2270 C   0  0  0  0  0  0  0  0  0  0  0  0
  142.1030   75.3500  218.5960 C   0  0  0  0  0  0  0  0  0  0  0  0
  141.8680   76.2330  219.7840 C   0  0  1  0  0  0  0  0  0  0  0  0
  140.9790   77.3810  219.6590 C   0  0  0  0  0  0  0  0  0  0  0  0
  141.7650   78.6610  219.8130 C   0  0  0  0  0  0  0  0  0  0  0  0
  141.7960   79.1210  221.2260 C   0  0  0  0  0  0  0  0  0  0  0  0
  141.4370   78.3020  222.2820 C   0  0  0  0  0  0  0  0  0  0  0  0
  141.4660   78.7300  223.5980 C   0  0  0  0  0  0  0  0  0  0  0  0
  141.8560   80.0050  223.9060 C   0  0  0  0  0  0  0  0  0  0  0  0
  142.2170   80.8420  222.8680 C   0  0  0  0  0  0  0  0  0  0  0  0
  142.1870   80.4090  221.5590 C   0  0  0  0  0  0  0  0  0  0  0  0
  140.5050   71.2770  224.2090 C   0  0  0  0  0  0  0  0  0  0  0  0
  140.9920   71.8900  225.3450 C   0  0  0  0  0  0  0  0  0  0  0  0
  140.9890   71.2890  226.5880 C   0  0  0  0  0  0  0  0  0  0  0  0
  140.4560   69.9970  226.6450 C   0  0  0  0  0  0  0  0  0  0  0  0
  140.4560   69.4040  227.8850 C   0  0  0  0  0  0  0  0  0  0  0  0
  139.9350   68.1270  227.9730 C   0  0  0  0  0  0  0  0  0  0  0  0
  139.4520   67.5140  226.8540 C   0  0  0  0  0  0  0  0  0  0  0  0
  139.4610   68.1320  225.6050 C   0  0  0  0  0  0  0  0  0  0  0  0
  139.9710   69.3920  225.5060 C   0  0  0  0  0  0  0  0  0  0  0  0
  139.9970   70.0300  224.2990 N   0  0  0  0  0  0  0  0  0  0  0  0
  138.7170   73.0940  223.1680 H   0  0  0  0  0  0  0  0  0  0  0  0
  140.3646   72.9808  220.6213 H   0  0  0  0  0  0  0  0  0  0  0  0
  138.7725   73.7740  220.7919 H   0  0  0  0  0  0  0  0  0  0  0  0
  143.6385   74.9411  221.2898 H   0  0  0  0  0  0  0  0  0  0  0  0
  142.7719   73.4372  221.2205 H   0  0  0  0  0  0  0  0  0  0  0  0
  144.1527   74.7124  219.0190 H   0  0  0  0  0  0  0  0  0  0  0  0
  143.0343   73.3623  218.8196 H   0  0  0  0  0  0  0  0  0  0  0  0
  142.5281   75.9039  217.7460 H   0  0  0  0  0  0  0  0  0  0  0  0
  141.2056   74.8825  218.1645 H   0  0  0  0  0  0  0  0  0  0  0  0
  142.7178   76.8816  220.0430 H   0  0  0  0  0  0  0  0  0  0  0  0
  140.4996   77.3646  218.6691 H   0  0  0  0  0  0  0  0  0  0  0  0
  140.2116   77.3312  220.4456 H   0  0  0  0  0  0  0  0  0  0  0  0
  142.7964   78.4892  219.4714 H   0  0  0  0  0  0  0  0  0  0  0  0
  141.2742   79.4392  219.2100 H   0  0  0  0  0  0  0  0  0  0  0  0
  141.1164   77.2718  222.0675 H   0  0  0  0  0  0  0  0  0  0  0  0
  141.1732   78.0396  224.4028 H   0  0  0  0  0  0  0  0  0  0  0  0
  141.8813   80.3531  224.9492 H   0  0  0  0  0  0  0  0  0  0  0  0
  142.5339   81.8718  223.0894 H   0  0  0  0  0  0  0  0  0  0  0  0
  142.4809   81.1035  220.7582 H   0  0  0  0  0  0  0  0  0  0  0  0
  141.4025   72.9067  225.2561 H   0  0  0  0  0  0  0  0  0  0  0  0
  141.3827   71.7964  227.4811 H   0  0  0  0  0  0  0  0  0  0  0  0
  140.8536   69.9235  228.7693 H   0  0  0  0  0  0  0  0  0  0  0  0
  139.9098   67.6067  228.9418 H   0  0  0  0  0  0  0  0  0  0  0  0
  139.0414   66.4972  226.9406 H   0  0  0  0  0  0  0  0  0  0  0  0
  139.0653   67.6144  224.7187 H   0  0  0  0  0  0  0  0  0  0  0  0
  1  2  2  0
  2  3  1  0
  3  4  1  0
  4  5  1  0
  5  6  2  0
  5  7  1  0
  7  8  1  0
  8  9  1  0
  9 10  1  0
 10 11  1  0
 11 12  1  0
 12 13  1  0
 13 14  1  0
 14 15  2  0
 15 16  1  0
 16 17  2  0
 17 18  1  0
 18 19  2  0
  2 20  1  0
 20 21  2  0
 21 22  1  0
 22 23  2  0
 23 24  1  0
 24 25  2  0
 25 26  1  0
 26 27  2  0
 27 28  1  0
 28 29  2  0
 11  7  1  0
 19 14  1  0
 29 20  1  0
 28 23  1  0
  3 30  1  0
  4 31  1  0
  4 32  1  0
  8 33  1  0
  8 34  1  0
  9 35  1  0
  9 36  1  0
 10 37  1  0
 10 38  1  0
 11 39  1  1
 12 40  1  0
 12 41  1  0
 13 42  1  0
 13 43  1  0
 15 44  1  0
 16 45  1  0
 17 46  1  0
 18 47  1  0
 19 48  1  0
 21 49  1  0
 22 50  1  0
 24 51  1  0
 25 52  1  0
 26 53  1  0
 27 54  1  0
M  END
>  <smiles>  (59) 
O=C(NCC(=O)N1CCCC1CCc1ccccc1)c1ccc2ccccc2n1

>  <score_type>  (59) 
oracle

>  <origin>  (59) 
autodockgpu

>  <m_score__min__energy>  (59) 
-9.3699999999999992

>  <m_primary>  (59) 
energy

>  <rmsd>  (59) 
3.2843244991436658

>  <m_score__min__rmsd>  (59) 
3.2843244991436658

>  <meeko>  (59) 
{"free_energy": -9.02, "intermolecular_energy": -11.11, "internal_energy": -1.67, "cluster_size": 28, "cluster_id": 1, "rank_in_cluster": 3}

>  <energy>  (59) 
-8.82

>  <cluster_rmsd>  (59) 
1.68

>  <cluster>  (59) 
1

$$$$

     RDKit          3D

 54 57  0  0  0  0  0  0  0  0999 V2000
  141.0590   71.7190  221.4530 O   0  0  0  0  0  0  0  0  0  0  0  0
  140.4690   72.2220  222.4660 C   0  0  0  0  0  0  0  0  0  0  0  0
  140.0320   73.5650  222.3170 N   0  0  0  0  0  0  0  0  0  0  0  0
  140.3080   74.2030  221.0390 C   0  0  0  0  0  0  0  0  0  0  0  0
  141.0860   75.4590  221.2980 C   0  0  0  0  0  0  0  0  0  0  0  0
  140.7910   76.0690  222.3480 O   0  0  0  0  0  0  0  0  0  0  0  0
  142.0560   75.8220  220.3530 N   0  0  0  0  0  0  0  0  0  0  0  0
  143.3580   75.1190  220.1190 C   0  0  0  0  0  0  0  0  0  0  0  0
  143.3980   75.0860  218.5770 C   0  0  0  0  0  0  0  0  0  0  0  0
  142.2300   75.9890  218.1270 C   0  0  0  0  0  0  0  0  0  0  0  0
  142.1360   76.8600  219.3430 C   0  0  1  0  0  0  0  0  0  0  0  0
  141.1690   77.9500  219.3710 C   0  0  0  0  0  0  0  0  0  0  0  0
  141.8010   79.1830  219.9700 C   0  0  0  0  0  0  0  0  0  0  0  0
  141.5700   79.2650  221.4350 C   0  0  0  0  0  0  0  0  0  0  0  0
  140.3530   78.9510  222.0140 C   0  0  0  0  0  0  0  0  0  0  0  0
  140.1360   79.0250  223.3790 C   0  0  0  0  0  0  0  0  0  0  0  0
  141.1390   79.4230  224.2210 C   0  0  0  0  0  0  0  0  0  0  0  0
  142.3630   79.7430  223.6670 C   0  0  0  0  0  0  0  0  0  0  0  0
  142.5720   79.6660  222.3060 C   0  0  0  0  0  0  0  0  0  0  0  0
  140.2590   71.4600  223.6930 C   0  0  0  0  0  0  0  0  0  0  0  0
  139.6030   70.2510  223.5940 C   0  0  0  0  0  0  0  0  0  0  0  0
  139.3460   69.4400  224.6810 C   0  0  0  0  0  0  0  0  0  0  0  0
  139.7930   69.9120  225.9200 C   0  0  0  0  0  0  0  0  0  0  0  0
  139.5350   69.1010  226.9980 C   0  0  0  0  0  0  0  0  0  0  0  0
  139.9650   69.5410  228.2360 C   0  0  0  0  0  0  0  0  0  0  0  0
  140.6140   70.7360  228.3420 C   0  0  0  0  0  0  0  0  0  0  0  0
  140.8670   71.5450  227.2350 C   0  0  0  0  0  0  0  0  0  0  0  0
  140.4480   71.1210  226.0100 C   0  0  0  0  0  0  0  0  0  0  0  0
  140.6780   71.8860  224.9030 N   0  0  0  0  0  0  0  0  0  0  0  0
  139.5380   74.0510  223.1010 H   0  0  0  0  0  0  0  0  0  0  0  0
  140.8971   73.5248  220.4042 H   0  0  0  0  0  0  0  0  0  0  0  0
  139.3662   74.4402  220.5226 H   0  0  0  0  0  0  0  0  0  0  0  0
  144.2043   75.6864  220.5335 H   0  0  0  0  0  0  0  0  0  0  0  0
  143.4337   74.1312  220.5970 H   0  0  0  0  0  0  0  0  0  0  0  0
  144.3560   75.4799  218.2067 H   0  0  0  0  0  0  0  0  0  0  0  0
  143.3045   74.0631  218.1833 H   0  0  0  0  0  0  0  0  0  0  0  0
  142.4770   76.5654  217.2232 H   0  0  0  0  0  0  0  0  0  0  0  0
  141.3051   75.4653  217.8437 H   0  0  0  0  0  0  0  0  0  0  0  0
  142.9744   77.5615  219.4655 H   0  0  0  0  0  0  0  0  0  0  0  0
  140.8390   78.1711  218.3452 H   0  0  0  0  0  0  0  0  0  0  0  0
  140.3054   77.6520  219.9837 H   0  0  0  0  0  0  0  0  0  0  0  0
  142.8843   79.1552  219.7814 H   0  0  0  0  0  0  0  0  0  0  0  0
  141.3405   80.0652  219.5014 H   0  0  0  0  0  0  0  0  0  0  0  0
  139.5257   78.6300  221.3640 H   0  0  0  0  0  0  0  0  0  0  0  0
  139.1502   78.7620  223.7901 H   0  0  0  0  0  0  0  0  0  0  0  0
  140.9751   79.4861  225.3069 H   0  0  0  0  0  0  0  0  0  0  0  0
  143.1855   80.0649  224.3227 H   0  0  0  0  0  0  0  0  0  0  0  0
  143.5599   79.9297  221.9004 H   0  0  0  0  0  0  0  0  0  0  0  0
  139.2684   69.9168  222.6008 H   0  0  0  0  0  0  0  0  0  0  0  0
  138.8206   68.4790  224.5791 H   0  0  0  0  0  0  0  0  0  0  0  0
  139.0086   68.1422  226.8813 H   0  0  0  0  0  0  0  0  0  0  0  0
  139.7844   68.9296  229.1324 H   0  0  0  0  0  0  0  0  0  0  0  0
  140.9490   71.0728  229.3341 H   0  0  0  0  0  0  0  0  0  0  0  0
  141.3932   72.5043  227.3482 H   0  0  0  0  0  0  0  0  0  0  0  0
  1  2  2  0
  2  3  1  0
  3  4  1  0
  4  5  1  0
  5  6  2  0
  5  7  1  0
  7  8  1  0
  8  9  1  0
  9 10  1  0
 10 11  1  0
 11 12  1  0
 12 13  1  0
 13 14  1  0
 14 15  2  0
 15 16  1  0
 16 17  2  0
 17 18  1  0
 18 19  2  0
  2 20  1  0
 20 21  2  0
 21 22  1  0
 22 23  2  0
 23 24  1  0
 24 25  2  0
 25 26  1  0
 26 27  2  0
 27 28  1  0
 28 29  2  0
 11  7  1  0
 19 14  1  0
 29 20  1  0
 28 23  1  0
  3 30  1  0
  4 31  1  0
  4 32  1  0
  8 33  1  0
  8 34  1  0
  9 35  1  0
  9 36  1  0
 10 37  1  0
 10 38  1  0
 11 39  1  1
 12 40  1  0
 12 41  1  0
 13 42  1  0
 13 43  1  0
 15 44  1  0
 16 45  1  0
 17 46  1  0
 18 47  1  0
 19 48  1  0
 21 49  1  0
 22 50  1  0
 24 51  1  0
 25 52  1  0
 26 53  1  0
 27 54  1  0
M  END
>  <smiles>  (60) 
O=C(NCC(=O)N1CCCC1CCc1ccccc1)c1ccc2ccccc2n1

>  <score_type>  (60) 
oracle

>  <origin>  (60) 
autodockgpu

>  <m_score__min__energy>  (60) 
-9.3699999999999992

>  <m_primary>  (60) 
energy

>  <rmsd>  (60) 
2.5647883433259584

>  <m_score__min__rmsd>  (60) 
2.5647883433259584

>  <meeko>  (60) 
{"free_energy": -8.8, "intermolecular_energy": -10.89, "internal_energy": -1.93, "cluster_size": 5, "cluster_id": 2, "rank_in_cluster": 2}

>  <energy>  (60) 
-8.81

>  <cluster_rmsd>  (60) 
1.79

>  <cluster>  (60) 
1

$$$$

     RDKit          3D

 54 57  0  0  0  0  0  0  0  0999 V2000
  138.1920   75.2450  222.3230 O   0  0  0  0  0  0  0  0  0  0  0  0
  139.3010   75.7680  221.9670 C   0  0  0  0  0  0  0  0  0  0  0  0
  140.1090   74.9690  221.1160 N   0  0  0  0  0  0  0  0  0  0  0  0
  139.5840   73.6610  220.7550 C   0  0  0  0  0  0  0  0  0  0  0  0
  139.8300   72.7230  221.9010 C   0  0  0  0  0  0  0  0  0  0  0  0
  140.7110   73.0810  222.7110 O   0  0  0  0  0  0  0  0  0  0  0  0
  139.0580   71.5540  221.9510 N   0  0  0  0  0  0  0  0  0  0  0  0
  138.4790   70.8350  220.7720 C   0  0  0  0  0  0  0  0  0  0  0  0
  138.7980   69.3710  221.1370 C   0  0  0  0  0  0  0  0  0  0  0  0
  139.3040   69.4240  222.5940 C   0  0  0  0  0  0  0  0  0  0  0  0
  138.6190   70.6840  223.0260 C   0  0  1  0  0  0  0  0  0  0  0  0
  138.7570   71.1400  224.4030 C   0  0  0  0  0  0  0  0  0  0  0  0
  140.2050   71.0760  224.8250 C   0  0  0  0  0  0  0  0  0  0  0  0
  140.3930   70.2120  226.0190 C   0  0  0  0  0  0  0  0  0  0  0  0
  140.1690   68.8470  225.9920 C   0  0  0  0  0  0  0  0  0  0  0  0
  140.3450   68.0420  227.1040 C   0  0  0  0  0  0  0  0  0  0  0  0
  140.7530   68.5800  228.2940 C   0  0  0  0  0  0  0  0  0  0  0  0
  140.9820   69.9410  228.3470 C   0  0  0  0  0  0  0  0  0  0  0  0
  140.8060   70.7370  227.2350 C   0  0  0  0  0  0  0  0  0  0  0  0
  139.7010   77.0990  222.4090 C   0  0  0  0  0  0  0  0  0  0  0  0
  138.7050   77.9950  222.7360 C   0  0  0  0  0  0  0  0  0  0  0  0
  138.9570   79.2820  223.1660 C   0  0  0  0  0  0  0  0  0  0  0  0
  140.3050   79.6460  223.2590 C   0  0  0  0  0  0  0  0  0  0  0  0
  140.5500   80.9280  223.6880 C   0  0  0  0  0  0  0  0  0  0  0  0
  141.8730   81.3170  223.7890 C   0  0  0  0  0  0  0  0  0  0  0  0
  142.8640   80.4370  223.4670 C   0  0  0  0  0  0  0  0  0  0  0  0
  142.5950   79.1400  223.0340 C   0  0  0  0  0  0  0  0  0  0  0  0
  141.2950   78.7450  222.9300 C   0  0  0  0  0  0  0  0  0  0  0  0
  140.9920   77.4820  222.5090 N   0  0  0  0  0  0  0  0  0  0  0  0
  141.0340   75.3250  220.7770 H   0  0  0  0  0  0  0  0  0  0  0  0
  138.5040   73.7345  220.5594 H   0  0  0  0  0  0  0  0  0  0  0  0
  140.0818   73.2897  219.8471 H   0  0  0  0  0  0  0  0  0  0  0  0
  137.3953   71.0038  220.6878 H   0  0  0  0  0  0  0  0  0  0  0  0
  138.8806   71.1588  219.8005 H   0  0  0  0  0  0  0  0  0  0  0  0
  137.8940   68.7485  221.0640 H   0  0  0  0  0  0  0  0  0  0  0  0
  139.5409   68.9281  220.4574 H   0  0  0  0  0  0  0  0  0  0  0  0
  138.9741   68.5525  223.1785 H   0  0  0  0  0  0  0  0  0  0  0  0
  140.3968   69.4093  222.7192 H   0  0  0  0  0  0  0  0  0  0  0  0
  137.5281   70.5929  223.1336 H   0  0  0  0  0  0  0  0  0  0  0  0
  138.4004   72.1777  224.4806 H   0  0  0  0  0  0  0  0  0  0  0  0
  138.1602   70.4905  225.0602 H   0  0  0  0  0  0  0  0  0  0  0  0
  140.8006   70.6700  223.9941 H   0  0  0  0  0  0  0  0  0  0  0  0
  140.5314   72.0940  225.0842 H   0  0  0  0  0  0  0  0  0  0  0  0
  139.8384   68.3838  225.0507 H   0  0  0  0  0  0  0  0  0  0  0  0
  140.1553   66.9610  227.0305 H   0  0  0  0  0  0  0  0  0  0  0  0
  140.8945   67.9471  229.1825 H   0  0  0  0  0  0  0  0  0  0  0  0
  141.3103   70.3976  229.2923 H   0  0  0  0  0  0  0  0  0  0  0  0
  140.9982   71.8172  227.3141 H   0  0  0  0  0  0  0  0  0  0  0  0
  137.6583   77.6679  222.6499 H   0  0  0  0  0  0  0  0  0  0  0  0
  138.1462   79.9804  223.4206 H   0  0  0  0  0  0  0  0  0  0  0  0
  139.7291   81.6153  223.9403 H   0  0  0  0  0  0  0  0  0  0  0  0
  142.1254   82.3326  224.1279 H   0  0  0  0  0  0  0  0  0  0  0  0
  143.9114   80.7621  223.5520 H   0  0  0  0  0  0  0  0  0  0  0  0
  143.4140   78.4503  222.7817 H   0  0  0  0  0  0  0  0  0  0  0  0
  1  2  2  0
  2  3  1  0
  3  4  1  0
  4  5  1  0
  5  6  2  0
  5  7  1  0
  7  8  1  0
  8  9  1  0
  9 10  1  0
 10 11  1  0
 11 12  1  0
 12 13  1  0
 13 14  1  0
 14 15  2  0
 15 16  1  0
 16 17  2  0
 17 18  1  0
 18 19  2  0
  2 20  1  0
 20 21  2  0
 21 22  1  0
 22 23  2  0
 23 24  1  0
 24 25  2  0
 25 26  1  0
 26 27  2  0
 27 28  1  0
 28 29  2  0
 11  7  1  0
 19 14  1  0
 29 20  1  0
 28 23  1  0
  3 30  1  0
  4 31  1  0
  4 32  1  0
  8 33  1  0
  8 34  1  0
  9 35  1  0
  9 36  1  0
 10 37  1  0
 10 38  1  0
 11 39  1  6
 12 40  1  0
 12 41  1  0
 13 42  1  0
 13 43  1  0
 15 44  1  0
 16 45  1  0
 17 46  1  0
 18 47  1  0
 19 48  1  0
 21 49  1  0
 22 50  1  0
 24 51  1  0
 25 52  1  0
 26 53  1  0
 27 54  1  0
M  END
>  <smiles>  (61) 
O=C(NCC(=O)N1CCCC1CCc1ccccc1)c1ccc2ccccc2n1

>  <score_type>  (61) 
oracle

>  <origin>  (61) 
autodockgpu

>  <m_score__min__energy>  (61) 
-9.3699999999999992

>  <m_primary>  (61) 
energy

>  <rmsd>  (61) 
8.216690293997194

>  <m_score__min__rmsd>  (61) 
8.216690293997194

>  <meeko>  (61) 
{"free_energy": -8.6, "intermolecular_energy": -10.69, "internal_energy": -1.56, "cluster_size": 14, "cluster_id": 3, "rank_in_cluster": 4}

>  <energy>  (61) 
-8.78

>  <cluster_rmsd>  (61) 
1.86

>  <cluster>  (61) 
1

$$$$

     RDKit          3D

 54 57  0  0  0  0  0  0  0  0999 V2000
  139.7300   70.8980  221.3780 O   0  0  0  0  0  0  0  0  0  0  0  0
  139.7170   71.5570  222.4710 C   0  0  0  0  0  0  0  0  0  0  0  0
  139.5910   72.9650  222.3350 N   0  0  0  0  0  0  0  0  0  0  0  0
  139.4950   73.4840  220.9800 C   0  0  0  0  0  0  0  0  0  0  0  0
  140.3000   74.7480  220.9030 C   0  0  0  0  0  0  0  0  0  0  0  0
  140.6050   75.2620  222.0000 O   0  0  0  0  0  0  0  0  0  0  0  0
  140.6290   75.2250  219.6250 N   0  0  0  0  0  0  0  0  0  0  0  0
  140.2990   74.5520  218.3280 C   0  0  0  0  0  0  0  0  0  0  0  0
  139.8190   75.7540  217.4900 C   0  0  0  0  0  0  0  0  0  0  0  0
  140.1640   76.9970  218.3390 C   0  0  0  0  0  0  0  0  0  0  0  0
  141.2920   76.4180  219.1380 C   0  0  1  0  0  0  0  0  0  0  0  0
  142.0090   77.2650  220.0830 C   0  0  0  0  0  0  0  0  0  0  0  0
  141.1710   78.4700  220.4340 C   0  0  0  0  0  0  0  0  0  0  0  0
  141.5890   79.0760  221.7240 C   0  0  0  0  0  0  0  0  0  0  0  0
  141.4110   78.4350  222.9380 C   0  0  0  0  0  0  0  0  0  0  0  0
  141.8010   78.9980  224.1410 C   0  0  0  0  0  0  0  0  0  0  0  0
  142.3860   80.2340  224.1720 C   0  0  0  0  0  0  0  0  0  0  0  0
  142.5740   80.8940  222.9730 C   0  0  0  0  0  0  0  0  0  0  0  0
  142.1840   80.3270  221.7790 C   0  0  0  0  0  0  0  0  0  0  0  0
  139.8220   70.8990  223.7680 C   0  0  0  0  0  0  0  0  0  0  0  0
  139.3380   69.6120  223.8780 C   0  0  0  0  0  0  0  0  0  0  0  0
  139.3810   68.8850  225.0510 C   0  0  0  0  0  0  0  0  0  0  0  0
  139.9530   69.5310  226.1530 C   0  0  0  0  0  0  0  0  0  0  0  0
  139.9940   68.8030  227.3180 C   0  0  0  0  0  0  0  0  0  0  0  0
  140.5530   69.4150  228.4240 C   0  0  0  0  0  0  0  0  0  0  0  0
  141.0330   70.6870  228.3240 C   0  0  0  0  0  0  0  0  0  0  0  0
  140.9830   71.4090  227.1330 C   0  0  0  0  0  0  0  0  0  0  0  0
  140.4350   70.8170  226.0350 C   0  0  0  0  0  0  0  0  0  0  0  0
  140.3680   71.4920  224.8510 N   0  0  0  0  0  0  0  0  0  0  0  0
  139.5710   73.5780  223.1840 H   0  0  0  0  0  0  0  0  0  0  0  0
  139.8935   72.7450  220.2693 H   0  0  0  0  0  0  0  0  0  0  0  0
  138.4444   73.6869  220.7248 H   0  0  0  0  0  0  0  0  0  0  0  0
  141.1850   74.0763  217.8823 H   0  0  0  0  0  0  0  0  0  0  0  0
  139.5666   73.7357  218.4129 H   0  0  0  0  0  0  0  0  0  0  0  0
  140.3453   75.7870  216.5247 H   0  0  0  0  0  0  0  0  0  0  0  0
  138.7446   75.6953  217.2613 H   0  0  0  0  0  0  0  0  0  0  0  0
  140.4889   77.8450  217.7183 H   0  0  0  0  0  0  0  0  0  0  0  0
  139.3339   77.4201  218.9237 H   0  0  0  0  0  0  0  0  0  0  0  0
  142.2103   76.2337  218.5611 H   0  0  0  0  0  0  0  0  0  0  0  0
  142.2230   76.6913  220.9968 H   0  0  0  0  0  0  0  0  0  0  0  0
  142.9508   77.6010  219.6246 H   0  0  0  0  0  0  0  0  0  0  0  0
  141.2761   79.2211  219.6372 H   0  0  0  0  0  0  0  0  0  0  0  0
  140.1257   78.1422  220.5331 H   0  0  0  0  0  0  0  0  0  0  0  0
  140.9417   77.4402  222.9471 H   0  0  0  0  0  0  0  0  0  0  0  0
  141.6392   78.4471  225.0793 H   0  0  0  0  0  0  0  0  0  0  0  0
  142.6976   80.6891  225.1237 H   0  0  0  0  0  0  0  0  0  0  0  0
  143.0430   81.8890  222.9713 H   0  0  0  0  0  0  0  0  0  0  0  0
  142.3493   80.8823  220.8439 H   0  0  0  0  0  0  0  0  0  0  0  0
  138.8960   69.1417  222.9873 H   0  0  0  0  0  0  0  0  0  0  0  0
  138.9891   67.8592  225.1156 H   0  0  0  0  0  0  0  0  0  0  0  0
  139.5990   67.7776  227.3680 H   0  0  0  0  0  0  0  0  0  0  0  0
  140.6104   68.8774  229.3819 H   0  0  0  0  0  0  0  0  0  0  0  0
  141.4748   71.1596  229.2136 H   0  0  0  0  0  0  0  0  0  0  0  0
  141.3774   72.4345  227.0806 H   0  0  0  0  0  0  0  0  0  0  0  0
  1  2  2  0
  2  3  1  0
  3  4  1  0
  4  5  1  0
  5  6  2  0
  5  7  1  0
  7  8  1  0
  8  9  1  0
  9 10  1  0
 10 11  1  0
 11 12  1  0
 12 13  1  0
 13 14  1  0
 14 15  2  0
 15 16  1  0
 16 17  2  0
 17 18  1  0
 18 19  2  0
  2 20  1  0
 20 21  2  0
 21 22  1  0
 22 23  2  0
 23 24  1  0
 24 25  2  0
 25 26  1  0
 26 27  2  0
 27 28  1  0
 28 29  2  0
 11  7  1  0
 19 14  1  0
 29 20  1  0
 28 23  1  0
  3 30  1  0
  4 31  1  0
  4 32  1  0
  8 33  1  0
  8 34  1  0
  9 35  1  0
  9 36  1  0
 10 37  1  0
 10 38  1  0
 11 39  1  6
 12 40  1  0
 12 41  1  0
 13 42  1  0
 13 43  1  0
 15 44  1  0
 16 45  1  0
 17 46  1  0
 18 47  1  0
 19 48  1  0
 21 49  1  0
 22 50  1  0
 24 51  1  0
 25 52  1  0
 26 53  1  0
 27 54  1  0
M  END
>  <smiles>  (62) 
O=C(NCC(=O)N1CCCC1CCc1ccccc1)c1ccc2ccccc2n1

>  <score_type>  (62) 
oracle

>  <origin>  (62) 
autodockgpu

>  <m_score__min__energy>  (62) 
-9.3699999999999992

>  <m_primary>  (62) 
energy

>  <rmsd>  (62) 
1.895780422902329

>  <m_score__min__rmsd>  (62) 
1.895780422902329

>  <meeko>  (62) 
{"free_energy": -8.54, "intermolecular_energy": -10.62, "internal_energy": -1.9, "cluster_size": 28, "cluster_id": 1, "rank_in_cluster": 21}

>  <energy>  (62) 
-8.76

>  <cluster_rmsd>  (62) 
1.57

>  <cluster>  (62) 
1

$$$$

     RDKit          3D

 54 57  0  0  0  0  0  0  0  0999 V2000
  140.8400   71.3500  221.3010 O   0  0  0  0  0  0  0  0  0  0  0  0
  140.2720   71.9250  222.2880 C   0  0  0  0  0  0  0  0  0  0  0  0
  139.7260   73.2080  222.0180 N   0  0  0  0  0  0  0  0  0  0  0  0
  139.8790   73.7100  220.6620 C   0  0  0  0  0  0  0  0  0  0  0  0
  140.0300   75.2020  220.7280 C   0  0  0  0  0  0  0  0  0  0  0  0
  138.9990   75.8360  221.0370 O   0  0  0  0  0  0  0  0  0  0  0  0
  141.2960   75.7330  220.4400 N   0  0  0  0  0  0  0  0  0  0  0  0
  142.5890   74.9780  220.4650 C   0  0  0  0  0  0  0  0  0  0  0  0
  143.2520   75.4930  219.1710 C   0  0  0  0  0  0  0  0  0  0  0  0
  142.3560   76.6570  218.6980 C   0  0  0  0  0  0  0  0  0  0  0  0
  141.7660   77.0400  220.0210 C   0  0  1  0  0  0  0  0  0  0  0  0
  140.8570   78.1760  220.0990 C   0  0  0  0  0  0  0  0  0  0  0  0
  141.6440   79.4630  220.1460 C   0  0  0  0  0  0  0  0  0  0  0  0
  141.8300   79.9440  221.5390 C   0  0  0  0  0  0  0  0  0  0  0  0
  141.7740   81.2850  221.8760 C   0  0  0  0  0  0  0  0  0  0  0  0
  141.9470   81.7350  223.1730 C   0  0  0  0  0  0  0  0  0  0  0  0
  142.1870   80.8490  224.1890 C   0  0  0  0  0  0  0  0  0  0  0  0
  142.2490   79.5060  223.8770 C   0  0  0  0  0  0  0  0  0  0  0  0
  142.0750   79.0650  222.5820 C   0  0  0  0  0  0  0  0  0  0  0  0
  140.1920   71.2980  223.6030 C   0  0  0  0  0  0  0  0  0  0  0  0
  139.5850   70.0610  223.6890 C   0  0  0  0  0  0  0  0  0  0  0  0
  139.4490   69.3680  224.8750 C   0  0  0  0  0  0  0  0  0  0  0  0
  139.9680   69.9920  226.0160 C   0  0  0  0  0  0  0  0  0  0  0  0
  139.8300   69.2970  227.1930 C   0  0  0  0  0  0  0  0  0  0  0  0
  140.3330   69.8890  228.3360 C   0  0  0  0  0  0  0  0  0  0  0  0
  140.9330   71.1110  228.2590 C   0  0  0  0  0  0  0  0  0  0  0  0
  141.0630   71.8000  227.0550 C   0  0  0  0  0  0  0  0  0  0  0  0
  140.5720   71.2270  225.9200 C   0  0  0  0  0  0  0  0  0  0  0  0
  140.6820   71.8710  224.7220 N   0  0  0  0  0  0  0  0  0  0  0  0
  139.2420   73.7460  222.7750 H   0  0  0  0  0  0  0  0  0  0  0  0
  140.7724   73.2655  220.1991 H   0  0  0  0  0  0  0  0  0  0  0  0
  138.9998   73.4437  220.0570 H   0  0  0  0  0  0  0  0  0  0  0  0
  143.1869   75.2292  221.3535 H   0  0  0  0  0  0  0  0  0  0  0  0
  142.4763   73.8849  220.5141 H   0  0  0  0  0  0  0  0  0  0  0  0
  144.2726   75.8491  219.3750 H   0  0  0  0  0  0  0  0  0  0  0  0
  143.3396   74.7038  218.4097 H   0  0  0  0  0  0  0  0  0  0  0  0
  142.9412   77.4754  218.2534 H   0  0  0  0  0  0  0  0  0  0  0  0
  141.6322   76.4100  217.9074 H   0  0  0  0  0  0  0  0  0  0  0  0
  142.4739   77.5215  220.7117 H   0  0  0  0  0  0  0  0  0  0  0  0
  140.2029   78.1808  219.2146 H   0  0  0  0  0  0  0  0  0  0  0  0
  140.2488   78.0905  221.0116 H   0  0  0  0  0  0  0  0  0  0  0  0
  142.6318   79.2933  219.6928 H   0  0  0  0  0  0  0  0  0  0  0  0
  141.0816   80.2287  219.5916 H   0  0  0  0  0  0  0  0  0  0  0  0
  141.5845   82.0221  221.0817 H   0  0  0  0  0  0  0  0  0  0  0  0
  141.8913   82.8121  223.3894 H   0  0  0  0  0  0  0  0  0  0  0  0
  142.3262   81.1972  225.2231 H   0  0  0  0  0  0  0  0  0  0  0  0
  142.4406   78.7742  224.6756 H   0  0  0  0  0  0  0  0  0  0  0  0
  142.1322   77.9869  222.3713 H   0  0  0  0  0  0  0  0  0  0  0  0
  139.1909   69.6059  222.7684 H   0  0  0  0  0  0  0  0  0  0  0  0
  138.9614   68.3831  224.9211 H   0  0  0  0  0  0  0  0  0  0  0  0
  139.3406   68.3124  227.2243 H   0  0  0  0  0  0  0  0  0  0  0  0
  140.2495   69.3757  229.3053 H   0  0  0  0  0  0  0  0  0  0  0  0
  141.3277   71.5682  229.1783 H   0  0  0  0  0  0  0  0  0  0  0  0
  141.5513   72.7851  227.0212 H   0  0  0  0  0  0  0  0  0  0  0  0
  1  2  2  0
  2  3  1  0
  3  4  1  0
  4  5  1  0
  5  6  2  0
  5  7  1  0
  7  8  1  0
  8  9  1  0
  9 10  1  0
 10 11  1  0
 11 12  1  0
 12 13  1  0
 13 14  1  0
 14 15  2  0
 15 16  1  0
 16 17  2  0
 17 18  1  0
 18 19  2  0
  2 20  1  0
 20 21  2  0
 21 22  1  0
 22 23  2  0
 23 24  1  0
 24 25  2  0
 25 26  1  0
 26 27  2  0
 27 28  1  0
 28 29  2  0
 11  7  1  0
 19 14  1  0
 29 20  1  0
 28 23  1  0
  3 30  1  0
  4 31  1  0
  4 32  1  0
  8 33  1  0
  8 34  1  0
  9 35  1  0
  9 36  1  0
 10 37  1  0
 10 38  1  0
 11 39  1  1
 12 40  1  0
 12 41  1  0
 13 42  1  0
 13 43  1  0
 15 44  1  0
 16 45  1  0
 17 46  1  0
 18 47  1  0
 19 48  1  0
 21 49  1  0
 22 50  1  0
 24 51  1  0
 25 52  1  0
 26 53  1  0
 27 54  1  0
M  END
>  <smiles>  (63) 
O=C(NCC(=O)N1CCCC1CCc1ccccc1)c1ccc2ccccc2n1

>  <score_type>  (63) 
oracle

>  <origin>  (63) 
autodockgpu

>  <m_score__min__energy>  (63) 
-9.3699999999999992

>  <m_primary>  (63) 
energy

>  <rmsd>  (63) 
2.4657829823295505

>  <m_score__min__rmsd>  (63) 
2.4657829823295505

>  <meeko>  (63) 
{"free_energy": -8.81, "intermolecular_energy": -10.9, "internal_energy": -1.48, "cluster_size": 28, "cluster_id": 1, "rank_in_cluster": 10}

>  <energy>  (63) 
-8.67

>  <cluster_rmsd>  (63) 
1.22

>  <cluster>  (63) 
1

$$$$

     RDKit          3D

 54 57  0  0  0  0  0  0  0  0999 V2000
  140.3660   71.0030  221.3690 O   0  0  0  0  0  0  0  0  0  0  0  0
  140.0830   71.6030  222.4590 C   0  0  0  0  0  0  0  0  0  0  0  0
  139.7840   72.9860  222.3370 N   0  0  0  0  0  0  0  0  0  0  0  0
  139.8360   73.5500  220.9970 C   0  0  0  0  0  0  0  0  0  0  0  0
  139.8330   75.0460  221.1160 C   0  0  0  0  0  0  0  0  0  0  0  0
  139.5120   75.4970  222.2360 O   0  0  0  0  0  0  0  0  0  0  0  0
  140.1870   75.7820  219.9760 N   0  0  0  0  0  0  0  0  0  0  0  0
  139.7640   75.4800  218.5720 C   0  0  0  0  0  0  0  0  0  0  0  0
  139.3990   76.8910  218.0670 C   0  0  0  0  0  0  0  0  0  0  0  0
  139.8910   77.8500  219.1720 C   0  0  0  0  0  0  0  0  0  0  0  0
  140.9650   76.9870  219.7590 C   0  0  1  0  0  0  0  0  0  0  0  0
  141.7860   77.5030  220.8470 C   0  0  0  0  0  0  0  0  0  0  0  0
  140.9030   77.9840  221.9740 C   0  0  0  0  0  0  0  0  0  0  0  0
  141.4780   79.1730  222.6550 C   0  0  0  0  0  0  0  0  0  0  0  0
  142.8420   79.3790  222.7670 C   0  0  0  0  0  0  0  0  0  0  0  0
  143.3780   80.4860  223.3990 C   0  0  0  0  0  0  0  0  0  0  0  0
  142.5600   81.4360  223.9500 C   0  0  0  0  0  0  0  0  0  0  0  0
  141.1950   81.2520  223.8520 C   0  0  0  0  0  0  0  0  0  0  0  0
  140.6680   80.1460  223.2190 C   0  0  0  0  0  0  0  0  0  0  0  0
  140.0700   70.9060  223.7400 C   0  0  0  0  0  0  0  0  0  0  0  0
  139.5120   69.6450  223.7800 C   0  0  0  0  0  0  0  0  0  0  0  0
  139.4400   68.8870  224.9320 C   0  0  0  0  0  0  0  0  0  0  0  0
  139.9730   69.4700  226.0870 C   0  0  0  0  0  0  0  0  0  0  0  0
  139.9000   68.7110  227.2290 C   0  0  0  0  0  0  0  0  0  0  0  0
  140.4180   69.2620  228.3870 C   0  0  0  0  0  0  0  0  0  0  0  0
  140.9700   70.5090  228.3550 C   0  0  0  0  0  0  0  0  0  0  0  0
  141.0360   71.2630  227.1850 C   0  0  0  0  0  0  0  0  0  0  0  0
  140.5290   70.7310  226.0380 C   0  0  0  0  0  0  0  0  0  0  0  0
  140.5750   71.4400  224.8720 N   0  0  0  0  0  0  0  0  0  0  0  0
  139.5410   73.5510  223.1840 H   0  0  0  0  0  0  0  0  0  0  0  0
  140.7539   73.2189  220.4893 H   0  0  0  0  0  0  0  0  0  0  0  0
  138.9683   73.2143  220.4102 H   0  0  0  0  0  0  0  0  0  0  0  0
  140.5862   75.0415  217.9875 H   0  0  0  0  0  0  0  0  0  0  0  0
  138.9506   74.7440  218.4910 H   0  0  0  0  0  0  0  0  0  0  0  0
  139.9073   77.1045  217.1152 H   0  0  0  0  0  0  0  0  0  0  0  0
  138.3204   76.9963  217.8784 H   0  0  0  0  0  0  0  0  0  0  0  0
  140.2929   78.7866  218.7582 H   0  0  0  0  0  0  0  0  0  0  0  0
  139.1219   78.1985  219.8770 H   0  0  0  0  0  0  0  0  0  0  0  0
  141.8473   76.8596  219.1145 H   0  0  0  0  0  0  0  0  0  0  0  0
  142.4460   76.7043  221.2163 H   0  0  0  0  0  0  0  0  0  0  0  0
  142.3909   78.3439  220.4768 H   0  0  0  0  0  0  0  0  0  0  0  0
  139.9168   78.2496  221.5654 H   0  0  0  0  0  0  0  0  0  0  0  0
  140.8189   77.1735  222.7129 H   0  0  0  0  0  0  0  0  0  0  0  0
  143.5263   78.6331  222.3365 H   0  0  0  0  0  0  0  0  0  0  0  0
  144.4699   80.6044  223.4596 H   0  0  0  0  0  0  0  0  0  0  0  0
  142.9778   82.3192  224.4555 H   0  0  0  0  0  0  0  0  0  0  0  0
  140.5162   82.0007  224.2864 H   0  0  0  0  0  0  0  0  0  0  0  0
  139.5754   80.0330  223.1601 H   0  0  0  0  0  0  0  0  0  0  0  0
  139.1048   69.2230  222.8494 H   0  0  0  0  0  0  0  0  0  0  0  0
  138.9899   67.8834  224.9412 H   0  0  0  0  0  0  0  0  0  0  0  0
  139.4489   67.7078  227.2231 H   0  0  0  0  0  0  0  0  0  0  0  0
  140.3850   68.6968  229.3301 H   0  0  0  0  0  0  0  0  0  0  0  0
  141.3769   70.9339  229.2845 H   0  0  0  0  0  0  0  0  0  0  0  0
  141.4877   72.2660  227.1876 H   0  0  0  0  0  0  0  0  0  0  0  0
  1  2  2  0
  2  3  1  0
  3  4  1  0
  4  5  1  0
  5  6  2  0
  5  7  1  0
  7  8  1  0
  8  9  1  0
  9 10  1  0
 10 11  1  0
 11 12  1  0
 12 13  1  0
 13 14  1  0
 14 15  2  0
 15 16  1  0
 16 17  2  0
 17 18  1  0
 18 19  2  0
  2 20  1  0
 20 21  2  0
 21 22  1  0
 22 23  2  0
 23 24  1  0
 24 25  2  0
 25 26  1  0
 26 27  2  0
 27 28  1  0
 28 29  2  0
 11  7  1  0
 19 14  1  0
 29 20  1  0
 28 23  1  0
  3 30  1  0
  4 31  1  0
  4 32  1  0
  8 33  1  0
  8 34  1  0
  9 35  1  0
  9 36  1  0
 10 37  1  0
 10 38  1  0
 11 39  1  6
 12 40  1  0
 12 41  1  0
 13 42  1  0
 13 43  1  0
 15 44  1  0
 16 45  1  0
 17 46  1  0
 18 47  1  0
 19 48  1  0
 21 49  1  0
 22 50  1  0
 24 51  1  0
 25 52  1  0
 26 53  1  0
 27 54  1  0
M  END
>  <smiles>  (64) 
O=C(NCC(=O)N1CCCC1CCc1ccccc1)c1ccc2ccccc2n1

>  <score_type>  (64) 
oracle

>  <origin>  (64) 
autodockgpu

>  <m_score__min__energy>  (64) 
-9.3699999999999992

>  <m_primary>  (64) 
energy

>  <rmsd>  (64) 
2.125324163644772

>  <m_score__min__rmsd>  (64) 
2.125324163644772

>  <meeko>  (64) 
{"free_energy": -8.58, "intermolecular_energy": -10.67, "internal_energy": -1.84, "cluster_size": 28, "cluster_id": 1, "rank_in_cluster": 20}

>  <energy>  (64) 
-8.67

>  <cluster_rmsd>  (64) 
1.22

>  <cluster>  (64) 
1

$$$$

     RDKit          3D

 54 57  0  0  0  0  0  0  0  0999 V2000
  137.6960   76.0470  221.9570 O   0  0  0  0  0  0  0  0  0  0  0  0
  138.9500   76.2030  222.1360 C   0  0  0  0  0  0  0  0  0  0  0  0
  139.7510   75.0550  221.8940 N   0  0  0  0  0  0  0  0  0  0  0  0
  139.0540   73.8490  221.4750 C   0  0  0  0  0  0  0  0  0  0  0  0
  139.4140   72.7440  222.4250 C   0  0  0  0  0  0  0  0  0  0  0  0
  140.6180   72.6870  222.7540 O   0  0  0  0  0  0  0  0  0  0  0  0
  138.3800   71.8950  222.8450 N   0  0  0  0  0  0  0  0  0  0  0  0
  136.9260   72.2500  222.9090 C   0  0  0  0  0  0  0  0  0  0  0  0
  136.2890   70.9800  222.3100 C   0  0  0  0  0  0  0  0  0  0  0  0
  137.4470   69.9640  222.2030 C   0  0  0  0  0  0  0  0  0  0  0  0
  138.3290   70.5130  223.2820 C   0  0  1  0  0  0  0  0  0  0  0  0
  139.5740   69.8290  223.6080 C   0  0  0  0  0  0  0  0  0  0  0  0
  139.4810   69.2190  224.9860 C   0  0  0  0  0  0  0  0  0  0  0  0
  140.0260   70.1270  226.0290 C   0  0  0  0  0  0  0  0  0  0  0  0
  139.7050   69.9970  227.3680 C   0  0  0  0  0  0  0  0  0  0  0  0
  140.2120   70.8420  228.3400 C   0  0  0  0  0  0  0  0  0  0  0  0
  141.0640   71.8580  228.0020 C   0  0  0  0  0  0  0  0  0  0  0  0
  141.3980   72.0080  226.6700 C   0  0  0  0  0  0  0  0  0  0  0  0
  140.8900   71.1630  225.7080 C   0  0  0  0  0  0  0  0  0  0  0  0
  139.5150   77.4790  222.5610 C   0  0  0  0  0  0  0  0  0  0  0  0
  138.6390   78.4680  222.9590 C   0  0  0  0  0  0  0  0  0  0  0  0
  139.0510   79.7160  223.3820 C   0  0  0  0  0  0  0  0  0  0  0  0
  140.4330   79.9380  223.3890 C   0  0  0  0  0  0  0  0  0  0  0  0
  140.8370   81.1820  223.8110 C   0  0  0  0  0  0  0  0  0  0  0  0
  142.1970   81.4300  223.8290 C   0  0  0  0  0  0  0  0  0  0  0  0
  143.0680   80.4570  223.4360 C   0  0  0  0  0  0  0  0  0  0  0  0
  142.6380   79.2020  223.0110 C   0  0  0  0  0  0  0  0  0  0  0  0
  141.3000   78.9440  222.9900 C   0  0  0  0  0  0  0  0  0  0  0  0
  140.8420   77.7260  222.5800 N   0  0  0  0  0  0  0  0  0  0  0  0
  140.7900   75.0990  222.0180 H   0  0  0  0  0  0  0  0  0  0  0  0
  137.9676   74.0201  221.4976 H   0  0  0  0  0  0  0  0  0  0  0  0
  139.3465   73.5784  220.4497 H   0  0  0  0  0  0  0  0  0  0  0  0
  136.5960   72.4179  223.9448 H   0  0  0  0  0  0  0  0  0  0  0  0
  136.6621   73.1809  222.3857 H   0  0  0  0  0  0  0  0  0  0  0  0
  135.4977   70.5960  222.9706 H   0  0  0  0  0  0  0  0  0  0  0  0
  135.8186   71.1744  221.3348 H   0  0  0  0  0  0  0  0  0  0  0  0
  137.1180   68.9370  222.4199 H   0  0  0  0  0  0  0  0  0  0  0  0
  137.9103   69.8725  221.2095 H   0  0  0  0  0  0  0  0  0  0  0  0
  137.9449   70.3634  224.3018 H   0  0  0  0  0  0  0  0  0  0  0  0
  139.7578   69.0348  222.8694 H   0  0  0  0  0  0  0  0  0  0  0  0
  140.4009   70.5542  223.5886 H   0  0  0  0  0  0  0  0  0  0  0  0
  138.4251   69.0098  225.2123 H   0  0  0  0  0  0  0  0  0  0  0  0
  140.0770   68.2945  224.9918 H   0  0  0  0  0  0  0  0  0  0  0  0
  139.0206   69.1913  227.6721 H   0  0  0  0  0  0  0  0  0  0  0  0
  139.9278   70.6956  229.3925 H   0  0  0  0  0  0  0  0  0  0  0  0
  141.4707   72.5349  228.7678 H   0  0  0  0  0  0  0  0  0  0  0  0
  142.0818   72.8166  226.3722 H   0  0  0  0  0  0  0  0  0  0  0  0
  141.1774   71.3141  224.6570 H   0  0  0  0  0  0  0  0  0  0  0  0
  137.5607   78.2517  222.9383 H   0  0  0  0  0  0  0  0  0  0  0  0
  138.3352   80.4904  223.6951 H   0  0  0  0  0  0  0  0  0  0  0  0
  140.1099   81.9471  224.1210 H   0  0  0  0  0  0  0  0  0  0  0  0
  142.5752   82.4088  224.1592 H   0  0  0  0  0  0  0  0  0  0  0  0
  144.1469   80.6705  223.4553 H   0  0  0  0  0  0  0  0  0  0  0  0
  143.3629   78.4357  222.6990 H   0  0  0  0  0  0  0  0  0  0  0  0
  1  2  2  0
  2  3  1  0
  3  4  1  0
  4  5  1  0
  5  6  2  0
  5  7  1  0
  7  8  1  0
  8  9  1  0
  9 10  1  0
 10 11  1  0
 11 12  1  0
 12 13  1  0
 13 14  1  0
 14 15  2  0
 15 16  1  0
 16 17  2  0
 17 18  1  0
 18 19  2  0
  2 20  1  0
 20 21  2  0
 21 22  1  0
 22 23  2  0
 23 24  1  0
 24 25  2  0
 25 26  1  0
 26 27  2  0
 27 28  1  0
 28 29  2  0
 11  7  1  0
 19 14  1  0
 29 20  1  0
 28 23  1  0
  3 30  1  0
  4 31  1  0
  4 32  1  0
  8 33  1  0
  8 34  1  0
  9 35  1  0
  9 36  1  0
 10 37  1  0
 10 38  1  0
 11 39  1  1
 12 40  1  0
 12 41  1  0
 13 42  1  0
 13 43  1  0
 15 44  1  0
 16 45  1  0
 17 46  1  0
 18 47  1  0
 19 48  1  0
 21 49  1  0
 22 50  1  0
 24 51  1  0
 25 52  1  0
 26 53  1  0
 27 54  1  0
M  END
>  <smiles>  (65) 
O=C(NCC(=O)N1CCCC1CCc1ccccc1)c1ccc2ccccc2n1

>  <score_type>  (65) 
oracle

>  <origin>  (65) 
autodockgpu

>  <m_score__min__energy>  (65) 
-9.3699999999999992

>  <m_primary>  (65) 
energy

>  <rmsd>  (65) 
8.539432414527507

>  <m_score__min__rmsd>  (65) 
8.539432414527507

>  <meeko>  (65) 
{"free_energy": -8.6, "intermolecular_energy": -10.69, "internal_energy": -1.89, "cluster_size": 14, "cluster_id": 3, "rank_in_cluster": 5}

>  <energy>  (65) 
-8.62

>  <cluster_rmsd>  (65) 
1.23

>  <cluster>  (65) 
1

$$$$

     RDKit          3D

 54 57  0  0  0  0  0  0  0  0999 V2000
  141.2580   71.8280  221.5080 O   0  0  0  0  0  0  0  0  0  0  0  0
  140.5870   72.2820  222.4950 C   0  0  0  0  0  0  0  0  0  0  0  0
  140.0870   73.6020  222.3410 N   0  0  0  0  0  0  0  0  0  0  0  0
  140.3960   74.2750  221.0890 C   0  0  0  0  0  0  0  0  0  0  0  0
  140.7050   75.7120  221.3930 C   0  0  0  0  0  0  0  0  0  0  0  0
  140.3200   76.1230  222.5080 O   0  0  0  0  0  0  0  0  0  0  0  0
  141.3860   76.4450  220.4100 N   0  0  0  0  0  0  0  0  0  0  0  0
  142.7790   76.1790  219.9270 C   0  0  0  0  0  0  0  0  0  0  0  0
  142.5940   76.3350  218.4040 C   0  0  0  0  0  0  0  0  0  0  0  0
  141.1710   76.9070  218.2300 C   0  0  0  0  0  0  0  0  0  0  0  0
  141.0300   77.5700  219.5670 C   0  0  1  0  0  0  0  0  0  0  0  0
  139.8190   78.3230  219.8690 C   0  0  0  0  0  0  0  0  0  0  0  0
  140.1760   79.7390  220.2530 C   0  0  0  0  0  0  0  0  0  0  0  0
  140.9960   79.7830  221.4920 C   0  0  0  0  0  0  0  0  0  0  0  0
  142.1960   80.4680  221.5640 C   0  0  0  0  0  0  0  0  0  0  0  0
  142.9610   80.5110  222.7170 C   0  0  0  0  0  0  0  0  0  0  0  0
  142.5480   79.8600  223.8490 C   0  0  0  0  0  0  0  0  0  0  0  0
  141.3540   79.1680  223.8000 C   0  0  0  0  0  0  0  0  0  0  0  0
  140.5970   79.1310  222.6480 C   0  0  0  0  0  0  0  0  0  0  0  0
  140.3530   71.4880  223.6970 C   0  0  0  0  0  0  0  0  0  0  0  0
  139.7090   70.2770  223.5520 C   0  0  0  0  0  0  0  0  0  0  0  0
  139.4320   69.4370  224.6130 C   0  0  0  0  0  0  0  0  0  0  0  0
  139.8440   69.8830  225.8740 C   0  0  0  0  0  0  0  0  0  0  0  0
  139.5660   69.0430  226.9250 C   0  0  0  0  0  0  0  0  0  0  0  0
  139.9610   69.4560  228.1830 C   0  0  0  0  0  0  0  0  0  0  0  0
  140.5970   70.6530  228.3340 C   0  0  0  0  0  0  0  0  0  0  0  0
  140.8710   71.4910  227.2550 C   0  0  0  0  0  0  0  0  0  0  0  0
  140.4870   71.0940  226.0090 C   0  0  0  0  0  0  0  0  0  0  0  0
  140.7380   71.8880  224.9270 N   0  0  0  0  0  0  0  0  0  0  0  0
  139.5260   74.0470  223.1050 H   0  0  0  0  0  0  0  0  0  0  0  0
  141.2672   73.7989  220.6154 H   0  0  0  0  0  0  0  0  0  0  0  0
  139.5410   74.2076  220.4003 H   0  0  0  0  0  0  0  0  0  0  0  0
  143.4927   76.9153  220.3252 H   0  0  0  0  0  0  0  0  0  0  0  0
  143.1901   75.2072  220.2378 H   0  0  0  0  0  0  0  0  0  0  0  0
  143.3423   77.0286  217.9928 H   0  0  0  0  0  0  0  0  0  0  0  0
  142.7231   75.3806  217.8726 H   0  0  0  0  0  0  0  0  0  0  0  0
  141.1133   77.6287  217.4019 H   0  0  0  0  0  0  0  0  0  0  0  0
  140.3905   76.1745  217.9765 H   0  0  0  0  0  0  0  0  0  0  0  0
  141.6564   78.4645  219.6989 H   0  0  0  0  0  0  0  0  0  0  0  0
  139.1686   78.3387  218.9820 H   0  0  0  0  0  0  0  0  0  0  0  0
  139.2935   77.8422  220.7073 H   0  0  0  0  0  0  0  0  0  0  0  0
  140.7461   80.1980  219.4318 H   0  0  0  0  0  0  0  0  0  0  0  0
  139.2420   80.2891  220.4405 H   0  0  0  0  0  0  0  0  0  0  0  0
  142.5561   80.9990  220.6705 H   0  0  0  0  0  0  0  0  0  0  0  0
  143.9072   81.0720  222.7240 H   0  0  0  0  0  0  0  0  0  0  0  0
  143.1494   79.8876  224.7696 H   0  0  0  0  0  0  0  0  0  0  0  0
  141.0004   78.6368  224.6960 H   0  0  0  0  0  0  0  0  0  0  0  0
  139.6514   78.5691  222.6465 H   0  0  0  0  0  0  0  0  0  0  0  0
  139.4012   69.9651  222.5430 H   0  0  0  0  0  0  0  0  0  0  0  0
  138.9180   68.4743  224.4750 H   0  0  0  0  0  0  0  0  0  0  0  0
  139.0512   68.0831  226.7716 H   0  0  0  0  0  0  0  0  0  0  0  0
  139.7632   68.8216  229.0596 H   0  0  0  0  0  0  0  0  0  0  0  0
  140.9042   70.9677  229.3423 H   0  0  0  0  0  0  0  0  0  0  0  0
  141.3857   72.4514  227.4055 H   0  0  0  0  0  0  0  0  0  0  0  0
  1  2  2  0
  2  3  1  0
  3  4  1  0
  4  5  1  0
  5  6  2  0
  5  7  1  0
  7  8  1  0
  8  9  1  0
  9 10  1  0
 10 11  1  0
 11 12  1  0
 12 13  1  0
 13 14  1  0
 14 15  2  0
 15 16  1  0
 16 17  2  0
 17 18  1  0
 18 19  2  0
  2 20  1  0
 20 21  2  0
 21 22  1  0
 22 23  2  0
 23 24  1  0
 24 25  2  0
 25 26  1  0
 26 27  2  0
 27 28  1  0
 28 29  2  0
 11  7  1  0
 19 14  1  0
 29 20  1  0
 28 23  1  0
  3 30  1  0
  4 31  1  0
  4 32  1  0
  8 33  1  0
  8 34  1  0
  9 35  1  0
  9 36  1  0
 10 37  1  0
 10 38  1  0
 11 39  1  6
 12 40  1  0
 12 41  1  0
 13 42  1  0
 13 43  1  0
 15 44  1  0
 16 45  1  0
 17 46  1  0
 18 47  1  0
 19 48  1  0
 21 49  1  0
 22 50  1  0
 24 51  1  0
 25 52  1  0
 26 53  1  0
 27 54  1  0
M  END
>  <smiles>  (66) 
O=C(NCC(=O)N1CCCC1CCc1ccccc1)c1ccc2ccccc2n1

>  <score_type>  (66) 
oracle

>  <origin>  (66) 
autodockgpu

>  <m_score__min__energy>  (66) 
-9.3699999999999992

>  <m_primary>  (66) 
energy

>  <rmsd>  (66) 
2.594448300247664

>  <m_score__min__rmsd>  (66) 
2.594448300247664

>  <meeko>  (66) 
{"free_energy": -8.62, "intermolecular_energy": -10.71, "internal_energy": -2.14, "cluster_size": 28, "cluster_id": 1, "rank_in_cluster": 16}

>  <energy>  (66) 
-8.62

>  <cluster_rmsd>  (66) 
1.76

>  <cluster>  (66) 
1

$$$$

     RDKit          3D

 54 57  0  0  0  0  0  0  0  0999 V2000
  140.2330   71.2270  221.3340 O   0  0  0  0  0  0  0  0  0  0  0  0
  140.0080   71.8110  222.4470 C   0  0  0  0  0  0  0  0  0  0  0  0
  139.7320   73.2020  222.3640 N   0  0  0  0  0  0  0  0  0  0  0  0
  139.7400   73.7910  221.0340 C   0  0  0  0  0  0  0  0  0  0  0  0
  140.0420   75.2550  221.1700 C   0  0  0  0  0  0  0  0  0  0  0  0
  140.1700   75.6720  222.3400 O   0  0  0  0  0  0  0  0  0  0  0  0
  140.1510   76.0010  219.9880 N   0  0  0  0  0  0  0  0  0  0  0  0
  139.1130   76.0960  218.9130 C   0  0  0  0  0  0  0  0  0  0  0  0
  139.1390   77.6090  218.6150 C   0  0  0  0  0  0  0  0  0  0  0  0
  140.3620   78.1480  219.3890 C   0  0  0  0  0  0  0  0  0  0  0  0
  141.1660   76.8850  219.4480 C   0  0  1  0  0  0  0  0  0  0  0  0
  142.4870   76.9050  220.0630 C   0  0  0  0  0  0  0  0  0  0  0  0
  143.4630   76.1270  219.2140 C   0  0  0  0  0  0  0  0  0  0  0  0
  143.7400   74.7830  219.7840 C   0  0  0  0  0  0  0  0  0  0  0  0
  142.8500   73.7300  219.6710 C   0  0  0  0  0  0  0  0  0  0  0  0
  143.1080   72.4780  220.2010 C   0  0  0  0  0  0  0  0  0  0  0  0
  144.2760   72.2340  220.8720 C   0  0  0  0  0  0  0  0  0  0  0  0
  145.1800   73.2700  220.9980 C   0  0  0  0  0  0  0  0  0  0  0  0
  144.9170   74.5150  220.4670 C   0  0  0  0  0  0  0  0  0  0  0  0
  140.0320   71.0890  223.7140 C   0  0  0  0  0  0  0  0  0  0  0  0
  139.5260   69.8060  223.7330 C   0  0  0  0  0  0  0  0  0  0  0  0
  139.4950   69.0230  224.8700 C   0  0  0  0  0  0  0  0  0  0  0  0
  140.0120   69.6050  226.0320 C   0  0  0  0  0  0  0  0  0  0  0  0
  139.9780   68.8210  227.1600 C   0  0  0  0  0  0  0  0  0  0  0  0
  140.4830   69.3690  228.3240 C   0  0  0  0  0  0  0  0  0  0  0  0
  140.9840   70.6380  228.3140 C   0  0  0  0  0  0  0  0  0  0  0  0
  141.0100   71.4170  227.1590 C   0  0  0  0  0  0  0  0  0  0  0  0
  140.5160   70.8870  226.0040 C   0  0  0  0  0  0  0  0  0  0  0  0
  140.5240   71.6210  224.8530 N   0  0  0  0  0  0  0  0  0  0  0  0
  139.5350   73.7540  223.2310 H   0  0  0  0  0  0  0  0  0  0  0  0
  140.5121   73.3074  220.4175 H   0  0  0  0  0  0  0  0  0  0  0  0
  138.7626   73.6485  220.5500 H   0  0  0  0  0  0  0  0  0  0  0  0
  139.3919   75.5048  218.0283 H   0  0  0  0  0  0  0  0  0  0  0  0
  138.1251   75.7063  219.1996 H   0  0  0  0  0  0  0  0  0  0  0  0
  139.2546   77.7886  217.5359 H   0  0  0  0  0  0  0  0  0  0  0  0
  138.2059   78.1060  218.9189 H   0  0  0  0  0  0  0  0  0  0  0  0
  140.8826   78.9447  218.8375 H   0  0  0  0  0  0  0  0  0  0  0  0
  140.1425   78.6188  220.3586 H   0  0  0  0  0  0  0  0  0  0  0  0
  141.5880   76.5690  218.4825 H   0  0  0  0  0  0  0  0  0  0  0  0
  142.8313   77.9458  220.1529 H   0  0  0  0  0  0  0  0  0  0  0  0
  142.4283   76.4443  221.0601 H   0  0  0  0  0  0  0  0  0  0  0  0
  143.0403   76.0060  218.2057 H   0  0  0  0  0  0  0  0  0  0  0  0
  144.4095   76.6864  219.1811 H   0  0  0  0  0  0  0  0  0  0  0  0
  141.9010   73.8942  219.1396 H   0  0  0  0  0  0  0  0  0  0  0  0
  142.3686   71.6723  220.0822 H   0  0  0  0  0  0  0  0  0  0  0  0
  144.4880   71.2423  221.2980 H   0  0  0  0  0  0  0  0  0  0  0  0
  146.1267   73.0991  221.5314 H   0  0  0  0  0  0  0  0  0  0  0  0
  145.6603   75.3168  220.5883 H   0  0  0  0  0  0  0  0  0  0  0  0
  139.1280   69.3863  222.7973 H   0  0  0  0  0  0  0  0  0  0  0  0
  139.0875   68.0013  224.8623 H   0  0  0  0  0  0  0  0  0  0  0  0
  139.5665   67.8011  227.1375 H   0  0  0  0  0  0  0  0  0  0  0  0
  140.4810   68.7839  229.2555 H   0  0  0  0  0  0  0  0  0  0  0  0
  141.3807   71.0603  229.2490 H   0  0  0  0  0  0  0  0  0  0  0  0
  141.4202   72.4375  227.1786 H   0  0  0  0  0  0  0  0  0  0  0  0
  1  2  2  0
  2  3  1  0
  3  4  1  0
  4  5  1  0
  5  6  2  0
  5  7  1  0
  7  8  1  0
  8  9  1  0
  9 10  1  0
 10 11  1  0
 11 12  1  0
 12 13  1  0
 13 14  1  0
 14 15  2  0
 15 16  1  0
 16 17  2  0
 17 18  1  0
 18 19  2  0
  2 20  1  0
 20 21  2  0
 21 22  1  0
 22 23  2  0
 23 24  1  0
 24 25  2  0
 25 26  1  0
 26 27  2  0
 27 28  1  0
 28 29  2  0
 11  7  1  0
 19 14  1  0
 29 20  1  0
 28 23  1  0
  3 30  1  0
  4 31  1  0
  4 32  1  0
  8 33  1  0
  8 34  1  0
  9 35  1  0
  9 36  1  0
 10 37  1  0
 10 38  1  0
 11 39  1  6
 12 40  1  0
 12 41  1  0
 13 42  1  0
 13 43  1  0
 15 44  1  0
 16 45  1  0
 17 46  1  0
 18 47  1  0
 19 48  1  0
 21 49  1  0
 22 50  1  0
 24 51  1  0
 25 52  1  0
 26 53  1  0
 27 54  1  0
M  END
>  <smiles>  (67) 
O=C(NCC(=O)N1CCCC1CCc1ccccc1)c1ccc2ccccc2n1

>  <score_type>  (67) 
oracle

>  <origin>  (67) 
autodockgpu

>  <m_score__min__energy>  (67) 
-9.3699999999999992

>  <m_primary>  (67) 
energy

>  <rmsd>  (67) 
1.6746546332498615

>  <m_score__min__rmsd>  (67) 
1.6746546332498615

>  <meeko>  (67) 
{"free_energy": -7.9, "intermolecular_energy": -9.99, "internal_energy": -2.5, "cluster_size": 3, "cluster_id": 4, "rank_in_cluster": 3}

>  <energy>  (67) 
-8.61

>  <cluster_rmsd>  (67) 
1.95

>  <cluster>  (67) 
1

$$$$

     RDKit          3D

 54 57  0  0  0  0  0  0  0  0999 V2000
  139.4030   72.9090  221.7920 O   0  0  0  0  0  0  0  0  0  0  0  0
  140.3790   72.2670  222.3090 C   0  0  0  0  0  0  0  0  0  0  0  0
  141.6120   72.3620  221.6120 N   0  0  0  0  0  0  0  0  0  0  0  0
  141.6180   73.1710  220.4020 C   0  0  0  0  0  0  0  0  0  0  0  0
  142.7350   74.1680  220.5090 C   0  0  0  0  0  0  0  0  0  0  0  0
  143.8380   73.7050  220.8700 O   0  0  0  0  0  0  0  0  0  0  0  0
  142.4380   75.5020  220.1970 N   0  0  0  0  0  0  0  0  0  0  0  0
  143.0960   76.3190  219.1290 C   0  0  0  0  0  0  0  0  0  0  0  0
  141.8720   77.0120  218.4950 C   0  0  0  0  0  0  0  0  0  0  0  0
  140.6950   76.6860  219.4390 C   0  0  0  0  0  0  0  0  0  0  0  0
  141.4730   76.4610  220.7000 C   0  0  1  0  0  0  0  0  0  0  0  0
  140.7630   76.1650  221.9380 C   0  0  0  0  0  0  0  0  0  0  0  0
  140.0070   77.3870  222.4030 C   0  0  0  0  0  0  0  0  0  0  0  0
  140.9060   78.5580  222.5750 C   0  0  0  0  0  0  0  0  0  0  0  0
  141.7070   78.7210  223.6920 C   0  0  0  0  0  0  0  0  0  0  0  0
  142.5450   79.8100  223.8540 C   0  0  0  0  0  0  0  0  0  0  0  0
  142.6100   80.7850  222.8960 C   0  0  0  0  0  0  0  0  0  0  0  0
  141.8190   80.6450  221.7720 C   0  0  0  0  0  0  0  0  0  0  0  0
  140.9870   79.5570  221.6170 C   0  0  0  0  0  0  0  0  0  0  0  0
  140.2270   71.4920  223.5350 C   0  0  0  0  0  0  0  0  0  0  0  0
  139.5100   70.3150  223.4670 C   0  0  0  0  0  0  0  0  0  0  0  0
  139.2970   69.4950  224.5570 C   0  0  0  0  0  0  0  0  0  0  0  0
  139.8570   69.9230  225.7670 C   0  0  0  0  0  0  0  0  0  0  0  0
  139.6430   69.1030  226.8480 C   0  0  0  0  0  0  0  0  0  0  0  0
  140.1840   69.5000  228.0570 C   0  0  0  0  0  0  0  0  0  0  0  0
  140.8940   70.6630  228.1320 C   0  0  0  0  0  0  0  0  0  0  0  0
  141.1000   71.4800  227.0230 C   0  0  0  0  0  0  0  0  0  0  0  0
  140.5720   71.1000  225.8250 C   0  0  0  0  0  0  0  0  0  0  0  0
  140.7540   71.8750  224.7170 N   0  0  0  0  0  0  0  0  0  0  0  0
  142.4610   71.8660  221.9700 H   0  0  0  0  0  0  0  0  0  0  0  0
  141.7767   72.5270  219.5244 H   0  0  0  0  0  0  0  0  0  0  0  0
  140.6551   73.6905  220.2879 H   0  0  0  0  0  0  0  0  0  0  0  0
  143.7990   77.0501  219.5547 H   0  0  0  0  0  0  0  0  0  0  0  0
  143.7049   75.7365  218.4219 H   0  0  0  0  0  0  0  0  0  0  0  0
  142.0306   78.0989  218.4359 H   0  0  0  0  0  0  0  0  0  0  0  0
  141.6864   76.6646  217.4679 H   0  0  0  0  0  0  0  0  0  0  0  0
  139.9926   77.5275  219.5306 H   0  0  0  0  0  0  0  0  0  0  0  0
  140.0477   75.8544  219.1238 H   0  0  0  0  0  0  0  0  0  0  0  0
  141.9087   77.3735  221.1329 H   0  0  0  0  0  0  0  0  0  0  0  0
  140.0541   75.3421  221.7639 H   0  0  0  0  0  0  0  0  0  0  0  0
  141.4895   75.8733  222.7108 H   0  0  0  0  0  0  0  0  0  0  0  0
  139.2374   77.6351  221.6572 H   0  0  0  0  0  0  0  0  0  0  0  0
  139.5523   77.1581  223.3781 H   0  0  0  0  0  0  0  0  0  0  0  0
  141.6762   77.9554  224.4812 H   0  0  0  0  0  0  0  0  0  0  0  0
  143.1637   79.8927  224.7598 H   0  0  0  0  0  0  0  0  0  0  0  0
  143.2726   81.6546  223.0173 H   0  0  0  0  0  0  0  0  0  0  0  0
  141.8538   81.4150  220.9872 H   0  0  0  0  0  0  0  0  0  0  0  0
  140.3709   79.4793  220.7091 H   0  0  0  0  0  0  0  0  0  0  0  0
  139.0874   70.0154  222.4966 H   0  0  0  0  0  0  0  0  0  0  0  0
  138.7215   68.5608  224.4796 H   0  0  0  0  0  0  0  0  0  0  0  0
  139.0662   68.1709  226.7559 H   0  0  0  0  0  0  0  0  0  0  0  0
  140.0426   68.8807  228.9550 H   0  0  0  0  0  0  0  0  0  0  0  0
  141.3179   70.9654  229.1010 H   0  0  0  0  0  0  0  0  0  0  0  0
  141.6767   72.4125  227.1119 H   0  0  0  0  0  0  0  0  0  0  0  0
  1  2  2  0
  2  3  1  0
  3  4  1  0
  4  5  1  0
  5  6  2  0
  5  7  1  0
  7  8  1  0
  8  9  1  0
  9 10  1  0
 10 11  1  0
 11 12  1  0
 12 13  1  0
 13 14  1  0
 14 15  2  0
 15 16  1  0
 16 17  2  0
 17 18  1  0
 18 19  2  0
  2 20  1  0
 20 21  2  0
 21 22  1  0
 22 23  2  0
 23 24  1  0
 24 25  2  0
 25 26  1  0
 26 27  2  0
 27 28  1  0
 28 29  2  0
 11  7  1  0
 19 14  1  0
 29 20  1  0
 28 23  1  0
  3 30  1  0
  4 31  1  0
  4 32  1  0
  8 33  1  0
  8 34  1  0
  9 35  1  0
  9 36  1  0
 10 37  1  0
 10 38  1  0
 11 39  1  1
 12 40  1  0
 12 41  1  0
 13 42  1  0
 13 43  1  0
 15 44  1  0
 16 45  1  0
 17 46  1  0
 18 47  1  0
 19 48  1  0
 21 49  1  0
 22 50  1  0
 24 51  1  0
 25 52  1  0
 26 53  1  0
 27 54  1  0
M  END
>  <smiles>  (68) 
O=C(NCC(=O)N1CCCC1CCc1ccccc1)c1ccc2ccccc2n1

>  <score_type>  (68) 
oracle

>  <origin>  (68) 
autodockgpu

>  <m_score__min__energy>  (68) 
-9.3699999999999992

>  <m_primary>  (68) 
energy

>  <rmsd>  (68) 
3.0599902108721038

>  <m_score__min__rmsd>  (68) 
3.0599902108721038

>  <meeko>  (68) 
{"free_energy": -8.45, "intermolecular_energy": -10.53, "internal_energy": -1.87, "cluster_size": 5, "cluster_id": 2, "rank_in_cluster": 5}

>  <energy>  (68) 
-8.6

>  <cluster_rmsd>  (68) 
1.81

>  <cluster>  (68) 
1

$$$$

     RDKit          3D

 54 57  0  0  0  0  0  0  0  0999 V2000
  141.4460   72.3230  221.8510 O   0  0  0  0  0  0  0  0  0  0  0  0
  140.4510   72.3790  222.6490 C   0  0  0  0  0  0  0  0  0  0  0  0
  139.5810   73.4860  222.4660 N   0  0  0  0  0  0  0  0  0  0  0  0
  139.9230   74.4170  221.4010 C   0  0  0  0  0  0  0  0  0  0  0  0
  139.4480   75.7830  221.8010 C   0  0  0  0  0  0  0  0  0  0  0  0
  138.5730   75.8100  222.6920 O   0  0  0  0  0  0  0  0  0  0  0  0
  140.0230   76.8810  221.1450 N   0  0  0  0  0  0  0  0  0  0  0  0
  141.3420   76.8850  220.4350 C   0  0  0  0  0  0  0  0  0  0  0  0
  140.9800   77.6620  219.1530 C   0  0  0  0  0  0  0  0  0  0  0  0
  139.5590   78.2110  219.4050 C   0  0  0  0  0  0  0  0  0  0  0  0
  139.5930   78.2450  220.9030 C   0  0  1  0  0  0  0  0  0  0  0  0
  138.4450   78.7650  221.6340 C   0  0  0  0  0  0  0  0  0  0  0  0
  138.8360   79.0630  223.0620 C   0  0  0  0  0  0  0  0  0  0  0  0
  140.2020   79.6410  223.1490 C   0  0  0  0  0  0  0  0  0  0  0  0
  140.4530   80.9880  222.9560 C   0  0  0  0  0  0  0  0  0  0  0  0
  141.7250   81.5270  223.0380 C   0  0  0  0  0  0  0  0  0  0  0  0
  142.8010   80.7290  223.3170 C   0  0  0  0  0  0  0  0  0  0  0  0
  142.5760   79.3810  223.5130 C   0  0  0  0  0  0  0  0  0  0  0  0
  141.3060   78.8500  223.4310 C   0  0  0  0  0  0  0  0  0  0  0  0
  140.2300   71.3680  223.6760 C   0  0  0  0  0  0  0  0  0  0  0  0
  139.5030   70.2480  223.3300 C   0  0  0  0  0  0  0  0  0  0  0  0
  139.2290   69.2220  224.2140 C   0  0  0  0  0  0  0  0  0  0  0  0
  139.7340   69.3750  225.5100 C   0  0  0  0  0  0  0  0  0  0  0  0
  139.4580   68.3530  226.3840 C   0  0  0  0  0  0  0  0  0  0  0  0
  139.9450   68.4760  227.6720 C   0  0  0  0  0  0  0  0  0  0  0  0
  140.6630   69.5810  228.0220 C   0  0  0  0  0  0  0  0  0  0  0  0
  140.9330   70.6080  227.1200 C   0  0  0  0  0  0  0  0  0  0  0  0
  140.4600   70.4980  225.8470 C   0  0  0  0  0  0  0  0  0  0  0  0
  140.7040   71.4840  224.9350 N   0  0  0  0  0  0  0  0  0  0  0  0
  138.7400   73.6050  223.0790 H   0  0  0  0  0  0  0  0  0  0  0  0
  141.0130   74.4302  221.2539 H   0  0  0  0  0  0  0  0  0  0  0  0
  139.4446   74.1093  220.4595 H   0  0  0  0  0  0  0  0  0  0  0  0
  142.1144   77.4063  221.0195 H   0  0  0  0  0  0  0  0  0  0  0  0
  141.7654   75.8855  220.2566 H   0  0  0  0  0  0  0  0  0  0  0  0
  141.6891   78.4865  218.9876 H   0  0  0  0  0  0  0  0  0  0  0  0
  141.0234   77.0243  218.2577 H   0  0  0  0  0  0  0  0  0  0  0  0
  139.4191   79.2122  218.9713 H   0  0  0  0  0  0  0  0  0  0  0  0
  138.7378   77.6299  218.9601 H   0  0  0  0  0  0  0  0  0  0  0  0
  140.2499   79.0194  221.3258 H   0  0  0  0  0  0  0  0  0  0  0  0
  138.0938   79.6891  221.1517 H   0  0  0  0  0  0  0  0  0  0  0  0
  137.6417   78.0136  221.6281 H   0  0  0  0  0  0  0  0  0  0  0  0
  138.1178   79.7803  223.4859 H   0  0  0  0  0  0  0  0  0  0  0  0
  138.8275   78.1175  223.6241 H   0  0  0  0  0  0  0  0  0  0  0  0
  139.6091   81.6560  222.7287 H   0  0  0  0  0  0  0  0  0  0  0  0
  141.8722   82.6052  222.8776 H   0  0  0  0  0  0  0  0  0  0  0  0
  143.8154   81.1492  223.3832 H   0  0  0  0  0  0  0  0  0  0  0  0
  143.4249   78.7188  223.7386 H   0  0  0  0  0  0  0  0  0  0  0  0
  141.1648   77.7713  223.5934 H   0  0  0  0  0  0  0  0  0  0  0  0
  139.1231   70.1678  222.3008 H   0  0  0  0  0  0  0  0  0  0  0  0
  138.6479   68.3367  223.9164 H   0  0  0  0  0  0  0  0  0  0  0  0
  138.8744   67.4740  226.0729 H   0  0  0  0  0  0  0  0  0  0  0  0
  139.7539   67.6849  228.4121 H   0  0  0  0  0  0  0  0  0  0  0  0
  141.0419   69.6645  229.0513 H   0  0  0  0  0  0  0  0  0  0  0  0
  141.5154   71.4885  227.4289 H   0  0  0  0  0  0  0  0  0  0  0  0
  1  2  2  0
  2  3  1  0
  3  4  1  0
  4  5  1  0
  5  6  2  0
  5  7  1  0
  7  8  1  0
  8  9  1  0
  9 10  1  0
 10 11  1  0
 11 12  1  0
 12 13  1  0
 13 14  1  0
 14 15  2  0
 15 16  1  0
 16 17  2  0
 17 18  1  0
 18 19  2  0
  2 20  1  0
 20 21  2  0
 21 22  1  0
 22 23  2  0
 23 24  1  0
 24 25  2  0
 25 26  1  0
 26 27  2  0
 27 28  1  0
 28 29  2  0
 11  7  1  0
 19 14  1  0
 29 20  1  0
 28 23  1  0
  3 30  1  0
  4 31  1  0
  4 32  1  0
  8 33  1  0
  8 34  1  0
  9 35  1  0
  9 36  1  0
 10 37  1  0
 10 38  1  0
 11 39  1  6
 12 40  1  0
 12 41  1  0
 13 42  1  0
 13 43  1  0
 15 44  1  0
 16 45  1  0
 17 46  1  0
 18 47  1  0
 19 48  1  0
 21 49  1  0
 22 50  1  0
 24 51  1  0
 25 52  1  0
 26 53  1  0
 27 54  1  0
M  END
>  <smiles>  (69) 
O=C(NCC(=O)N1CCCC1CCc1ccccc1)c1ccc2ccccc2n1

>  <score_type>  (69) 
oracle

>  <origin>  (69) 
autodockgpu

>  <m_score__min__energy>  (69) 
-9.3699999999999992

>  <m_primary>  (69) 
energy

>  <rmsd>  (69) 
3.1073612609984447

>  <m_score__min__rmsd>  (69) 
3.1073612609984447

>  <meeko>  (69) 
{"free_energy": -8.53, "intermolecular_energy": -10.62, "internal_energy": -2.1, "cluster_size": 28, "cluster_id": 1, "rank_in_cluster": 22}

>  <energy>  (69) 
-8.58

>  <cluster_rmsd>  (69) 
1.81

>  <cluster>  (69) 
1

$$$$

     RDKit          3D

 54 57  0  0  0  0  0  0  0  0999 V2000
  141.0680   71.7210  221.4370 O   0  0  0  0  0  0  0  0  0  0  0  0
  140.4790   72.2250  222.4510 C   0  0  0  0  0  0  0  0  0  0  0  0
  140.0460   73.5690  222.3020 N   0  0  0  0  0  0  0  0  0  0  0  0
  140.3250   74.2070  221.0250 C   0  0  0  0  0  0  0  0  0  0  0  0
  141.1160   75.4560  221.2860 C   0  0  0  0  0  0  0  0  0  0  0  0
  140.8460   76.0530  222.3500 O   0  0  0  0  0  0  0  0  0  0  0  0
  142.0680   75.8270  220.3260 N   0  0  0  0  0  0  0  0  0  0  0  0
  143.3660   75.1270  220.0640 C   0  0  0  0  0  0  0  0  0  0  0  0
  143.3800   75.1050  218.5220 C   0  0  0  0  0  0  0  0  0  0  0  0
  142.2020   76.0090  218.0990 C   0  0  0  0  0  0  0  0  0  0  0  0
  142.1290   76.8710  219.3220 C   0  0  1  0  0  0  0  0  0  0  0  0
  141.1610   77.9590  219.3750 C   0  0  0  0  0  0  0  0  0  0  0  0
  141.8020   79.1900  219.9710 C   0  0  0  0  0  0  0  0  0  0  0  0
  141.5720   79.2760  221.4360 C   0  0  0  0  0  0  0  0  0  0  0  0
  140.3640   78.9370  222.0200 C   0  0  0  0  0  0  0  0  0  0  0  0
  140.1490   79.0160  223.3850 C   0  0  0  0  0  0  0  0  0  0  0  0
  141.1440   79.4430  224.2210 C   0  0  0  0  0  0  0  0  0  0  0  0
  142.3590   79.7880  223.6620 C   0  0  0  0  0  0  0  0  0  0  0  0
  142.5660   79.7060  222.3010 C   0  0  0  0  0  0  0  0  0  0  0  0
  140.2660   71.4620  223.6760 C   0  0  0  0  0  0  0  0  0  0  0  0
  139.5950   70.2610  223.5770 C   0  0  0  0  0  0  0  0  0  0  0  0
  139.3330   69.4500  224.6640 C   0  0  0  0  0  0  0  0  0  0  0  0
  139.7920   69.9130  225.9020 C   0  0  0  0  0  0  0  0  0  0  0  0
  139.5290   69.1020  226.9790 C   0  0  0  0  0  0  0  0  0  0  0  0
  139.9710   69.5340  228.2160 C   0  0  0  0  0  0  0  0  0  0  0  0
  140.6340   70.7210  228.3210 C   0  0  0  0  0  0  0  0  0  0  0  0
  140.8920   71.5290  227.2160 C   0  0  0  0  0  0  0  0  0  0  0  0
  140.4620   71.1140  225.9910 C   0  0  0  0  0  0  0  0  0  0  0  0
  140.6960   71.8800  224.8850 N   0  0  0  0  0  0  0  0  0  0  0  0
  139.5540   74.0560  223.0870 H   0  0  0  0  0  0  0  0  0  0  0  0
  140.9064   73.5248  220.3873 H   0  0  0  0  0  0  0  0  0  0  0  0
  139.3845   74.4541  220.5108 H   0  0  0  0  0  0  0  0  0  0  0  0
  144.2189   75.6921  220.4680 H   0  0  0  0  0  0  0  0  0  0  0  0
  143.4503   74.1357  220.5332 H   0  0  0  0  0  0  0  0  0  0  0  0
  144.3306   75.5038  218.1382 H   0  0  0  0  0  0  0  0  0  0  0  0
  143.2823   74.0848  218.1223 H   0  0  0  0  0  0  0  0  0  0  0  0
  142.4315   76.5919  217.1948 H   0  0  0  0  0  0  0  0  0  0  0  0
  141.2730   75.4857  217.8288 H   0  0  0  0  0  0  0  0  0  0  0  0
  142.9691   77.5723  219.4338 H   0  0  0  0  0  0  0  0  0  0  0  0
  140.8119   78.1863  218.3569 H   0  0  0  0  0  0  0  0  0  0  0  0
  140.3093   77.6553  220.0014 H   0  0  0  0  0  0  0  0  0  0  0  0
  142.8850   79.1548  219.7819 H   0  0  0  0  0  0  0  0  0  0  0  0
  141.3477   80.0745  219.5006 H   0  0  0  0  0  0  0  0  0  0  0  0
  139.5431   78.5914  221.3745 H   0  0  0  0  0  0  0  0  0  0  0  0
  139.1706   78.7333  223.8007 H   0  0  0  0  0  0  0  0  0  0  0  0
  140.9812   79.5097  225.3068 H   0  0  0  0  0  0  0  0  0  0  0  0
  143.1752   80.1340  224.3133 H   0  0  0  0  0  0  0  0  0  0  0  0
  143.5465   79.9895  221.8908 H   0  0  0  0  0  0  0  0  0  0  0  0
  139.2520   69.9332  222.5846 H   0  0  0  0  0  0  0  0  0  0  0  0
  138.7950   68.4960  224.5623 H   0  0  0  0  0  0  0  0  0  0  0  0
  138.9901   68.1501  226.8625 H   0  0  0  0  0  0  0  0  0  0  0  0
  139.7885   68.9225  229.1119 H   0  0  0  0  0  0  0  0  0  0  0  0
  140.9769   71.0519  229.3124 H   0  0  0  0  0  0  0  0  0  0  0  0
  141.4310   72.4812  227.3296 H   0  0  0  0  0  0  0  0  0  0  0  0
  1  2  2  0
  2  3  1  0
  3  4  1  0
  4  5  1  0
  5  6  2  0
  5  7  1  0
  7  8  1  0
  8  9  1  0
  9 10  1  0
 10 11  1  0
 11 12  1  0
 12 13  1  0
 13 14  1  0
 14 15  2  0
 15 16  1  0
 16 17  2  0
 17 18  1  0
 18 19  2  0
  2 20  1  0
 20 21  2  0
 21 22  1  0
 22 23  2  0
 23 24  1  0
 24 25  2  0
 25 26  1  0
 26 27  2  0
 27 28  1  0
 28 29  2  0
 11  7  1  0
 19 14  1  0
 29 20  1  0
 28 23  1  0
  3 30  1  0
  4 31  1  0
  4 32  1  0
  8 33  1  0
  8 34  1  0
  9 35  1  0
  9 36  1  0
 10 37  1  0
 10 38  1  0
 11 39  1  1
 12 40  1  0
 12 41  1  0
 13 42  1  0
 13 43  1  0
 15 44  1  0
 16 45  1  0
 17 46  1  0
 18 47  1  0
 19 48  1  0
 21 49  1  0
 22 50  1  0
 24 51  1  0
 25 52  1  0
 26 53  1  0
 27 54  1  0
M  END
>  <smiles>  (70) 
O=C(NCC(=O)N1CCCC1CCc1ccccc1)c1ccc2ccccc2n1

>  <score_type>  (70) 
oracle

>  <origin>  (70) 
autodockgpu

>  <m_score__min__energy>  (70) 
-9.3699999999999992

>  <m_primary>  (70) 
energy

>  <rmsd>  (70) 
2.566268323626776

>  <m_score__min__rmsd>  (70) 
2.566268323626776

>  <meeko>  (70) 
{"free_energy": -8.8, "intermolecular_energy": -10.89, "internal_energy": -1.92, "cluster_size": 5, "cluster_id": 2, "rank_in_cluster": 3}

>  <energy>  (70) 
-8.58

>  <cluster_rmsd>  (70) 
1.31

>  <cluster>  (70) 
1

$$$$

     RDKit          3D

 54 57  0  0  0  0  0  0  0  0999 V2000
  140.9530   71.8540  221.3290 O   0  0  0  0  0  0  0  0  0  0  0  0
  140.4020   72.2990  222.3910 C   0  0  0  0  0  0  0  0  0  0  0  0
  139.9440   73.6410  222.3270 N   0  0  0  0  0  0  0  0  0  0  0  0
  140.1560   74.3450  221.0720 C   0  0  0  0  0  0  0  0  0  0  0  0
  140.2540   75.8130  221.3660 C   0  0  0  0  0  0  0  0  0  0  0  0
  140.2510   76.1220  222.5770 O   0  0  0  0  0  0  0  0  0  0  0  0
  140.3400   76.6850  220.2710 N   0  0  0  0  0  0  0  0  0  0  0  0
  139.1850   77.3560  219.5940 C   0  0  0  0  0  0  0  0  0  0  0  0
  139.7410   78.7840  219.4170 C   0  0  0  0  0  0  0  0  0  0  0  0
  141.2330   78.6820  219.7990 C   0  0  0  0  0  0  0  0  0  0  0  0
  141.4430   77.2290  219.5030 C   0  0  1  0  0  0  0  0  0  0  0  0
  142.7700   76.6480  219.6650 C   0  0  0  0  0  0  0  0  0  0  0  0
  142.8010   75.2590  219.0730 C   0  0  0  0  0  0  0  0  0  0  0  0
  143.7210   74.3630  219.8190 C   0  0  0  0  0  0  0  0  0  0  0  0
  144.8520   74.8310  220.4650 C   0  0  0  0  0  0  0  0  0  0  0  0
  145.7100   73.9970  221.1610 C   0  0  0  0  0  0  0  0  0  0  0  0
  145.4660   72.6520  221.2320 C   0  0  0  0  0  0  0  0  0  0  0  0
  144.3440   72.1610  220.5930 C   0  0  0  0  0  0  0  0  0  0  0  0
  143.4930   72.9980  219.9030 C   0  0  0  0  0  0  0  0  0  0  0  0
  140.2560   71.4740  223.5850 C   0  0  0  0  0  0  0  0  0  0  0  0
  139.6290   70.2530  223.4500 C   0  0  0  0  0  0  0  0  0  0  0  0
  139.4320   69.3840  224.5050 C   0  0  0  0  0  0  0  0  0  0  0  0
  139.9080   69.8100  225.7500 C   0  0  0  0  0  0  0  0  0  0  0  0
  139.7090   68.9420  226.7960 C   0  0  0  0  0  0  0  0  0  0  0  0
  140.1690   69.3360  228.0390 C   0  0  0  0  0  0  0  0  0  0  0  0
  140.7890   70.5430  228.1800 C   0  0  0  0  0  0  0  0  0  0  0  0
  140.9820   71.4100  227.1060 C   0  0  0  0  0  0  0  0  0  0  0  0
  140.5330   71.0320  225.8760 C   0  0  0  0  0  0  0  0  0  0  0  0
  140.7040   71.8550  224.8000 N   0  0  0  0  0  0  0  0  0  0  0  0
  139.4800   74.0810  223.1560 H   0  0  0  0  0  0  0  0  0  0  0  0
  141.0880   73.9966  220.6029 H   0  0  0  0  0  0  0  0  0  0  0  0
  139.3206   74.1514  220.3831 H   0  0  0  0  0  0  0  0  0  0  0  0
  138.9565   76.8879  218.6251 H   0  0  0  0  0  0  0  0  0  0  0  0
  138.2380   77.3026  220.1510 H   0  0  0  0  0  0  0  0  0  0  0  0
  139.6308   79.1153  218.3739 H   0  0  0  0  0  0  0  0  0  0  0  0
  139.2045   79.5162  220.0384 H   0  0  0  0  0  0  0  0  0  0  0  0
  141.8657   79.3277  219.1723 H   0  0  0  0  0  0  0  0  0  0  0  0
  141.4859   79.0013  220.8208 H   0  0  0  0  0  0  0  0  0  0  0  0
  141.4309   76.9781  218.4321 H   0  0  0  0  0  0  0  0  0  0  0  0
  143.5095   77.2797  219.1511 H   0  0  0  0  0  0  0  0  0  0  0  0
  143.0103   76.5894  220.7368 H   0  0  0  0  0  0  0  0  0  0  0  0
  141.7865   74.8351  219.1057 H   0  0  0  0  0  0  0  0  0  0  0  0
  143.1634   75.3363  218.0373 H   0  0  0  0  0  0  0  0  0  0  0  0
  145.0777   75.9068  220.4238 H   0  0  0  0  0  0  0  0  0  0  0  0
  146.5947   74.4184  221.6608 H   0  0  0  0  0  0  0  0  0  0  0  0
  146.1434   71.9819  221.7816 H   0  0  0  0  0  0  0  0  0  0  0  0
  144.1258   71.0837  220.6354 H   0  0  0  0  0  0  0  0  0  0  0  0
  142.6094   72.5714  219.4058 H   0  0  0  0  0  0  0  0  0  0  0  0
  139.2684   69.9571  222.4538 H   0  0  0  0  0  0  0  0  0  0  0  0
  138.9303   68.4138  224.3743 H   0  0  0  0  0  0  0  0  0  0  0  0
  139.2053   67.9749  226.6509 H   0  0  0  0  0  0  0  0  0  0  0  0
  140.0356   68.6787  228.9109 H   0  0  0  0  0  0  0  0  0  0  0  0
  141.1489   70.8422  229.1755 H   0  0  0  0  0  0  0  0  0  0  0  0
  141.4854   72.3777  227.2479 H   0  0  0  0  0  0  0  0  0  0  0  0
  1  2  2  0
  2  3  1  0
  3  4  1  0
  4  5  1  0
  5  6  2  0
  5  7  1  0
  7  8  1  0
  8  9  1  0
  9 10  1  0
 10 11  1  0
 11 12  1  0
 12 13  1  0
 13 14  1  0
 14 15  2  0
 15 16  1  0
 16 17  2  0
 17 18  1  0
 18 19  2  0
  2 20  1  0
 20 21  2  0
 21 22  1  0
 22 23  2  0
 23 24  1  0
 24 25  2  0
 25 26  1  0
 26 27  2  0
 27 28  1  0
 28 29  2  0
 11  7  1  0
 19 14  1  0
 29 20  1  0
 28 23  1  0
  3 30  1  0
  4 31  1  0
  4 32  1  0
  8 33  1  0
  8 34  1  0
  9 35  1  0
  9 36  1  0
 10 37  1  0
 10 38  1  0
 11 39  1  6
 12 40  1  0
 12 41  1  0
 13 42  1  0
 13 43  1  0
 15 44  1  0
 16 45  1  0
 17 46  1  0
 18 47  1  0
 19 48  1  0
 21 49  1  0
 22 50  1  0
 24 51  1  0
 25 52  1  0
 26 53  1  0
 27 54  1  0
M  END
>  <smiles>  (71) 
O=C(NCC(=O)N1CCCC1CCc1ccccc1)c1ccc2ccccc2n1

>  <score_type>  (71) 
oracle

>  <origin>  (71) 
autodockgpu

>  <m_score__min__energy>  (71) 
-9.3699999999999992

>  <m_primary>  (71) 
energy

>  <rmsd>  (71) 
1.9461422651176299

>  <m_score__min__rmsd>  (71) 
1.9461422651176299

>  <meeko>  (71) 
{"free_energy": -8.07, "intermolecular_energy": -10.16, "internal_energy": -2.28, "cluster_size": 3, "cluster_id": 4, "rank_in_cluster": 2}

>  <energy>  (71) 
-8.54

>  <cluster_rmsd>  (71) 
1.65

>  <cluster>  (71) 
1

$$$$

     RDKit          3D

 54 57  0  0  0  0  0  0  0  0999 V2000
  141.5620   72.1000  221.8550 O   0  0  0  0  0  0  0  0  0  0  0  0
  140.5830   72.2310  222.6630 C   0  0  0  0  0  0  0  0  0  0  0  0
  139.7660   73.3730  222.4550 N   0  0  0  0  0  0  0  0  0  0  0  0
  140.1380   74.2510  221.3570 C   0  0  0  0  0  0  0  0  0  0  0  0
  139.8350   75.6640  221.7610 C   0  0  0  0  0  0  0  0  0  0  0  0
  139.0410   75.7930  222.7170 O   0  0  0  0  0  0  0  0  0  0  0  0
  140.4620   76.6890  221.0380 N   0  0  0  0  0  0  0  0  0  0  0  0
  141.8400   76.6320  220.4540 C   0  0  0  0  0  0  0  0  0  0  0  0
  141.5940   77.2500  219.0630 C   0  0  0  0  0  0  0  0  0  0  0  0
  140.1530   77.8020  219.1200 C   0  0  0  0  0  0  0  0  0  0  0  0
  140.0490   78.0090  220.6010 C   0  0  1  0  0  0  0  0  0  0  0  0
  138.8360   78.5910  221.1600 C   0  0  0  0  0  0  0  0  0  0  0  0
  139.0100   78.8180  222.6420 C   0  0  0  0  0  0  0  0  0  0  0  0
  140.2780   79.5300  222.9450 C   0  0  0  0  0  0  0  0  0  0  0  0
  140.4360   80.8890  222.7380 C   0  0  0  0  0  0  0  0  0  0  0  0
  141.6160   81.5530  223.0210 C   0  0  0  0  0  0  0  0  0  0  0  0
  142.6930   80.8730  223.5230 C   0  0  0  0  0  0  0  0  0  0  0  0
  142.5610   79.5150  223.7370 C   0  0  0  0  0  0  0  0  0  0  0  0
  141.3810   78.8600  223.4540 C   0  0  0  0  0  0  0  0  0  0  0  0
  140.3280   71.2650  223.7260 C   0  0  0  0  0  0  0  0  0  0  0  0
  139.5640   70.1580  223.4190 C   0  0  0  0  0  0  0  0  0  0  0  0
  139.2540   69.1750  224.3380 C   0  0  0  0  0  0  0  0  0  0  0  0
  139.7640   69.3570  225.6290 C   0  0  0  0  0  0  0  0  0  0  0  0
  139.4520   68.3760  226.5390 C   0  0  0  0  0  0  0  0  0  0  0  0
  139.9420   68.5290  227.8230 C   0  0  0  0  0  0  0  0  0  0  0  0
  140.6970   69.6220  228.1340 C   0  0  0  0  0  0  0  0  0  0  0  0
  141.0020   70.6060  227.1960 C   0  0  0  0  0  0  0  0  0  0  0  0
  140.5260   70.4660  225.9270 C   0  0  0  0  0  0  0  0  0  0  0  0
  140.8040   71.4100  224.9810 N   0  0  0  0  0  0  0  0  0  0  0  0
  138.9410   73.5530  223.0750 H   0  0  0  0  0  0  0  0  0  0  0  0
  141.2123   74.1469  221.1449 H   0  0  0  0  0  0  0  0  0  0  0  0
  139.5727   73.9860  220.4513 H   0  0  0  0  0  0  0  0  0  0  0  0
  142.5530   77.2293  221.0413 H   0  0  0  0  0  0  0  0  0  0  0  0
  142.2824   75.6252  220.4317 H   0  0  0  0  0  0  0  0  0  0  0  0
  142.3112   78.0609  218.8679 H   0  0  0  0  0  0  0  0  0  0  0  0
  141.7230   76.5144  218.2554 H   0  0  0  0  0  0  0  0  0  0  0  0
  140.0483   78.7442  218.5620 H   0  0  0  0  0  0  0  0  0  0  0  0
  139.3791   77.1605  218.6732 H   0  0  0  0  0  0  0  0  0  0  0  0
  140.6602   78.8376  220.9881 H   0  0  0  0  0  0  0  0  0  0  0  0
  138.6313   79.5520  220.6655 H   0  0  0  0  0  0  0  0  0  0  0  0
  137.9949   77.9014  220.9959 H   0  0  0  0  0  0  0  0  0  0  0  0
  138.1665   79.4196  223.0117 H   0  0  0  0  0  0  0  0  0  0  0  0
  139.0419   77.8363  223.1372 H   0  0  0  0  0  0  0  0  0  0  0  0
  139.5902   81.4637  222.3326 H   0  0  0  0  0  0  0  0  0  0  0  0
  141.6896   82.6357  222.8413 H   0  0  0  0  0  0  0  0  0  0  0  0
  143.6356   81.3929  223.7492 H   0  0  0  0  0  0  0  0  0  0  0  0
  143.4118   78.9461  224.1401 H   0  0  0  0  0  0  0  0  0  0  0  0
  141.3125   77.7774  223.6367 H   0  0  0  0  0  0  0  0  0  0  0  0
  139.1833   70.0533  222.3923 H   0  0  0  0  0  0  0  0  0  0  0  0
  138.6424   68.3005  224.0714 H   0  0  0  0  0  0  0  0  0  0  0  0
  138.8391   67.5067  226.2584 H   0  0  0  0  0  0  0  0  0  0  0  0
  139.7239   67.7722  228.5909 H   0  0  0  0  0  0  0  0  0  0  0  0
  141.0779   69.7300  229.1603 H   0  0  0  0  0  0  0  0  0  0  0  0
  141.6138   71.4770  227.4738 H   0  0  0  0  0  0  0  0  0  0  0  0
  1  2  2  0
  2  3  1  0
  3  4  1  0
  4  5  1  0
  5  6  2  0
  5  7  1  0
  7  8  1  0
  8  9  1  0
  9 10  1  0
 10 11  1  0
 11 12  1  0
 12 13  1  0
 13 14  1  0
 14 15  2  0
 15 16  1  0
 16 17  2  0
 17 18  1  0
 18 19  2  0
  2 20  1  0
 20 21  2  0
 21 22  1  0
 22 23  2  0
 23 24  1  0
 24 25  2  0
 25 26  1  0
 26 27  2  0
 27 28  1  0
 28 29  2  0
 11  7  1  0
 19 14  1  0
 29 20  1  0
 28 23  1  0
  3 30  1  0
  4 31  1  0
  4 32  1  0
  8 33  1  0
  8 34  1  0
  9 35  1  0
  9 36  1  0
 10 37  1  0
 10 38  1  0
 11 39  1  1
 12 40  1  0
 12 41  1  0
 13 42  1  0
 13 43  1  0
 15 44  1  0
 16 45  1  0
 17 46  1  0
 18 47  1  0
 19 48  1  0
 21 49  1  0
 22 50  1  0
 24 51  1  0
 25 52  1  0
 26 53  1  0
 27 54  1  0
M  END
>  <smiles>  (72) 
O=C(NCC(=O)N1CCCC1CCc1ccccc1)c1ccc2ccccc2n1

>  <score_type>  (72) 
oracle

>  <origin>  (72) 
autodockgpu

>  <m_score__min__energy>  (72) 
-9.3699999999999992

>  <m_primary>  (72) 
energy

>  <rmsd>  (72) 
2.952511357610078

>  <m_score__min__rmsd>  (72) 
2.952511357610078

>  <meeko>  (72) 
{"free_energy": -8.62, "intermolecular_energy": -10.71, "internal_energy": -2.07, "cluster_size": 28, "cluster_id": 1, "rank_in_cluster": 15}

>  <energy>  (72) 
-8.53

>  <cluster_rmsd>  (72) 
1.17

>  <cluster>  (72) 
1

$$$$

     RDKit          3D

 54 57  0  0  0  0  0  0  0  0999 V2000
  139.4790   73.5590  222.5870 O   0  0  0  0  0  0  0  0  0  0  0  0
  140.2960   72.5820  222.6690 C   0  0  0  0  0  0  0  0  0  0  0  0
  141.2620   72.5030  221.6320 N   0  0  0  0  0  0  0  0  0  0  0  0
  141.2060   73.5340  220.6070 C   0  0  0  0  0  0  0  0  0  0  0  0
  142.5570   74.1830  220.5190 C   0  0  0  0  0  0  0  0  0  0  0  0
  143.5320   73.4280  220.7190 O   0  0  0  0  0  0  0  0  0  0  0  0
  142.5940   75.5530  220.2250 N   0  0  0  0  0  0  0  0  0  0  0  0
  143.7060   76.2690  219.5230 C   0  0  0  0  0  0  0  0  0  0  0  0
  142.9100   77.1660  218.5530 C   0  0  0  0  0  0  0  0  0  0  0  0
  141.4380   77.0230  218.9940 C   0  0  0  0  0  0  0  0  0  0  0  0
  141.6660   76.6500  220.4270 C   0  0  1  0  0  0  0  0  0  0  0  0
  140.5220   76.4540  221.3080 C   0  0  0  0  0  0  0  0  0  0  0  0
  140.8340   76.9920  222.6840 C   0  0  0  0  0  0  0  0  0  0  0  0
  141.2290   78.4240  222.6390 C   0  0  0  0  0  0  0  0  0  0  0  0
  140.6530   79.3270  221.7620 C   0  0  0  0  0  0  0  0  0  0  0  0
  141.0190   80.6600  221.7200 C   0  0  0  0  0  0  0  0  0  0  0  0
  141.9870   81.1420  222.5600 C   0  0  0  0  0  0  0  0  0  0  0  0
  142.5780   80.2600  223.4420 C   0  0  0  0  0  0  0  0  0  0  0  0
  142.2070   78.9320  223.4800 C   0  0  0  0  0  0  0  0  0  0  0  0
  140.2350   71.6170  223.7610 C   0  0  0  0  0  0  0  0  0  0  0  0
  139.6670   70.3870  223.5010 C   0  0  0  0  0  0  0  0  0  0  0  0
  139.5520   69.3910  224.4510 C   0  0  0  0  0  0  0  0  0  0  0  0
  140.0500   69.6940  225.7230 C   0  0  0  0  0  0  0  0  0  0  0  0
  139.9330   68.7000  226.6640 C   0  0  0  0  0  0  0  0  0  0  0  0
  140.4160   68.9710  227.9300 C   0  0  0  0  0  0  0  0  0  0  0  0
  140.9780   70.1850  228.1960 C   0  0  0  0  0  0  0  0  0  0  0  0
  141.0880   71.1800  227.2270 C   0  0  0  0  0  0  0  0  0  0  0  0
  140.6160   70.9260  225.9740 C   0  0  0  0  0  0  0  0  0  0  0  0
  140.7060   71.8760  224.9990 N   0  0  0  0  0  0  0  0  0  0  0  0
  141.9700   71.7310  221.6260 H   0  0  0  0  0  0  0  0  0  0  0  0
  140.9463   73.0821  219.6383 H   0  0  0  0  0  0  0  0  0  0  0  0
  140.4413   74.2823  220.8626 H   0  0  0  0  0  0  0  0  0  0  0  0
  144.3083   76.8660  220.2236 H   0  0  0  0  0  0  0  0  0  0  0  0
  144.4353   75.6065  219.0339 H   0  0  0  0  0  0  0  0  0  0  0  0
  143.2387   78.2125  218.6362 H   0  0  0  0  0  0  0  0  0  0  0  0
  143.0573   76.8722  217.5032 H   0  0  0  0  0  0  0  0  0  0  0  0
  140.8830   77.9676  218.8956 H   0  0  0  0  0  0  0  0  0  0  0  0
  140.8323   76.3156  218.4086 H   0  0  0  0  0  0  0  0  0  0  0  0
  142.0463   77.4696  221.0544 H   0  0  0  0  0  0  0  0  0  0  0  0
  139.6506   76.9853  220.8977 H   0  0  0  0  0  0  0  0  0  0  0  0
  140.3017   75.3788  221.3812 H   0  0  0  0  0  0  0  0  0  0  0  0
  139.9410   76.8885  223.3179 H   0  0  0  0  0  0  0  0  0  0  0  0
  141.6776   76.4168  223.0934 H   0  0  0  0  0  0  0  0  0  0  0  0
  139.8741   78.9705  221.0719 H   0  0  0  0  0  0  0  0  0  0  0  0
  140.5287   81.3383  221.0062 H   0  0  0  0  0  0  0  0  0  0  0  0
  142.2848   82.2006  222.5327 H   0  0  0  0  0  0  0  0  0  0  0  0
  143.3588   80.6226  224.1268 H   0  0  0  0  0  0  0  0  0  0  0  0
  142.7001   78.2584  224.1964 H   0  0  0  0  0  0  0  0  0  0  0  0
  139.2872   70.1898  222.4877 H   0  0  0  0  0  0  0  0  0  0  0  0
  139.0957   68.4168  224.2211 H   0  0  0  0  0  0  0  0  0  0  0  0
  139.4746   67.7302  226.4202 H   0  0  0  0  0  0  0  0  0  0  0  0
  140.3474   68.2098  228.7211 H   0  0  0  0  0  0  0  0  0  0  0  0
  141.3569   70.3851  229.2091 H   0  0  0  0  0  0  0  0  0  0  0  0
  141.5463   72.1504  227.4683 H   0  0  0  0  0  0  0  0  0  0  0  0
  1  2  2  0
  2  3  1  0
  3  4  1  0
  4  5  1  0
  5  6  2  0
  5  7  1  0
  7  8  1  0
  8  9  1  0
  9 10  1  0
 10 11  1  0
 11 12  1  0
 12 13  1  0
 13 14  1  0
 14 15  2  0
 15 16  1  0
 16 17  2  0
 17 18  1  0
 18 19  2  0
  2 20  1  0
 20 21  2  0
 21 22  1  0
 22 23  2  0
 23 24  1  0
 24 25  2  0
 25 26  1  0
 26 27  2  0
 27 28  1  0
 28 29  2  0
 11  7  1  0
 19 14  1  0
 29 20  1  0
 28 23  1  0
  3 30  1  0
  4 31  1  0
  4 32  1  0
  8 33  1  0
  8 34  1  0
  9 35  1  0
  9 36  1  0
 10 37  1  0
 10 38  1  0
 11 39  1  1
 12 40  1  0
 12 41  1  0
 13 42  1  0
 13 43  1  0
 15 44  1  0
 16 45  1  0
 17 46  1  0
 18 47  1  0
 19 48  1  0
 21 49  1  0
 22 50  1  0
 24 51  1  0
 25 52  1  0
 26 53  1  0
 27 54  1  0
M  END
>  <smiles>  (73) 
O=C(NCC(=O)N1CCCC1CCc1ccccc1)c1ccc2ccccc2n1

>  <score_type>  (73) 
oracle

>  <origin>  (73) 
autodockgpu

>  <m_score__min__energy>  (73) 
-9.3699999999999992

>  <m_primary>  (73) 
energy

>  <rmsd>  (73) 
3.098527779462597

>  <m_score__min__rmsd>  (73) 
3.098527779462597

>  <meeko>  (73) 
{"free_energy": -8.78, "intermolecular_energy": -10.86, "internal_energy": -1.8, "cluster_size": 5, "cluster_id": 2, "rank_in_cluster": 4}

>  <energy>  (73) 
-8.46

>  <cluster_rmsd>  (73) 
1.16

>  <cluster>  (73) 
1

$$$$

     RDKit          3D

 54 57  0  0  0  0  0  0  0  0999 V2000
  141.0370   71.4740  221.4880 O   0  0  0  0  0  0  0  0  0  0  0  0
  140.2180   71.8610  222.3860 C   0  0  0  0  0  0  0  0  0  0  0  0
  139.4080   72.9750  222.0390 N   0  0  0  0  0  0  0  0  0  0  0  0
  139.6070   73.5380  220.7120 C   0  0  0  0  0  0  0  0  0  0  0  0
  139.1150   74.9560  220.7250 C   0  0  0  0  0  0  0  0  0  0  0  0
  138.0110   75.1380  221.2820 O   0  0  0  0  0  0  0  0  0  0  0  0
  139.9290   75.9250  220.1200 N   0  0  0  0  0  0  0  0  0  0  0  0
  140.1250   76.1080  218.6470 C   0  0  0  0  0  0  0  0  0  0  0  0
  140.0350   77.6430  218.5290 C   0  0  0  0  0  0  0  0  0  0  0  0
  140.0390   78.1570  219.9850 C   0  0  0  0  0  0  0  0  0  0  0  0
  140.7510   77.0060  220.6280 C   0  0  1  0  0  0  0  0  0  0  0  0
  141.0520   77.0550  222.0540 C   0  0  0  0  0  0  0  0  0  0  0  0
  140.1870   78.0930  222.7270 C   0  0  0  0  0  0  0  0  0  0  0  0
  140.9600   79.3130  223.0750 C   0  0  0  0  0  0  0  0  0  0  0  0
  142.1440   79.2630  223.7890 C   0  0  0  0  0  0  0  0  0  0  0  0
  142.8660   80.3980  224.1130 C   0  0  0  0  0  0  0  0  0  0  0  0
  142.4220   81.6360  223.7330 C   0  0  0  0  0  0  0  0  0  0  0  0
  141.2410   81.7110  223.0210 C   0  0  0  0  0  0  0  0  0  0  0  0
  140.5280   80.5760  222.7010 C   0  0  0  0  0  0  0  0  0  0  0  0
  140.1250   71.1970  223.6820 C   0  0  0  0  0  0  0  0  0  0  0  0
  139.4570   69.9910  223.7390 C   0  0  0  0  0  0  0  0  0  0  0  0
  139.3030   69.2670  224.9050 C   0  0  0  0  0  0  0  0  0  0  0  0
  139.8700   69.8260  226.0550 C   0  0  0  0  0  0  0  0  0  0  0  0
  139.7140   69.1020  227.2120 C   0  0  0  0  0  0  0  0  0  0  0  0
  140.2640   69.6290  228.3650 C   0  0  0  0  0  0  0  0  0  0  0  0
  140.9250   70.8210  228.3170 C   0  0  0  0  0  0  0  0  0  0  0  0
  141.0730   71.5410  227.1330 C   0  0  0  0  0  0  0  0  0  0  0  0
  140.5360   71.0310  225.9890 C   0  0  0  0  0  0  0  0  0  0  0  0
  140.6610   71.7080  224.8100 N   0  0  0  0  0  0  0  0  0  0  0  0
  138.7090   73.3540  222.7200 H   0  0  0  0  0  0  0  0  0  0  0  0
  140.6764   73.5174  220.4554 H   0  0  0  0  0  0  0  0  0  0  0  0
  139.0542   72.9511  219.9637 H   0  0  0  0  0  0  0  0  0  0  0  0
  141.1066   75.7342  218.3202 H   0  0  0  0  0  0  0  0  0  0  0  0
  139.4042   75.5612  218.0214 H   0  0  0  0  0  0  0  0  0  0  0  0
  140.8997   78.0396  217.9767 H   0  0  0  0  0  0  0  0  0  0  0  0
  139.1369   77.9631  217.9804 H   0  0  0  0  0  0  0  0  0  0  0  0
  140.5966   79.0994  220.0898 H   0  0  0  0  0  0  0  0  0  0  0  0
  139.0531   78.4029  220.4063 H   0  0  0  0  0  0  0  0  0  0  0  0
  141.8190   76.9342  220.3745 H   0  0  0  0  0  0  0  0  0  0  0  0
  140.8550   76.0700  222.5023 H   0  0  0  0  0  0  0  0  0  0  0  0
  142.1103   77.3216  222.1915 H   0  0  0  0  0  0  0  0  0  0  0  0
  139.3696   78.3716  222.0456 H   0  0  0  0  0  0  0  0  0  0  0  0
  139.7943   77.6594  223.6586 H   0  0  0  0  0  0  0  0  0  0  0  0
  142.5261   78.2832  224.1115 H   0  0  0  0  0  0  0  0  0  0  0  0
  143.8039   80.3049  224.6802 H   0  0  0  0  0  0  0  0  0  0  0  0
  142.9889   82.5438  223.9871 H   0  0  0  0  0  0  0  0  0  0  0  0
  140.8628   82.6940  222.7037 H   0  0  0  0  0  0  0  0  0  0  0  0
  139.5909   80.6749  222.1336 H   0  0  0  0  0  0  0  0  0  0  0  0
  139.0264   69.5867  222.8110 H   0  0  0  0  0  0  0  0  0  0  0  0
  138.7660   68.3072  224.9279 H   0  0  0  0  0  0  0  0  0  0  0  0
  139.1743   68.1436  227.2203 H   0  0  0  0  0  0  0  0  0  0  0  0
  140.1690   69.0888  229.3185 H   0  0  0  0  0  0  0  0  0  0  0  0
  141.3557   71.2277  229.2439 H   0  0  0  0  0  0  0  0  0  0  0  0
  141.6115   72.5001  227.1221 H   0  0  0  0  0  0  0  0  0  0  0  0
  1  2  2  0
  2  3  1  0
  3  4  1  0
  4  5  1  0
  5  6  2  0
  5  7  1  0
  7  8  1  0
  8  9  1  0
  9 10  1  0
 10 11  1  0
 11 12  1  0
 12 13  1  0
 13 14  1  0
 14 15  2  0
 15 16  1  0
 16 17  2  0
 17 18  1  0
 18 19  2  0
  2 20  1  0
 20 21  2  0
 21 22  1  0
 22 23  2  0
 23 24  1  0
 24 25  2  0
 25 26  1  0
 26 27  2  0
 27 28  1  0
 28 29  2  0
 11  7  1  0
 19 14  1  0
 29 20  1  0
 28 23  1  0
  3 30  1  0
  4 31  1  0
  4 32  1  0
  8 33  1  0
  8 34  1  0
  9 35  1  0
  9 36  1  0
 10 37  1  0
 10 38  1  0
 11 39  1  6
 12 40  1  0
 12 41  1  0
 13 42  1  0
 13 43  1  0
 15 44  1  0
 16 45  1  0
 17 46  1  0
 18 47  1  0
 19 48  1  0
 21 49  1  0
 22 50  1  0
 24 51  1  0
 25 52  1  0
 26 53  1  0
 27 54  1  0
M  END
>  <smiles>  (74) 
O=C(NCC(=O)N1CCCC1CCc1ccccc1)c1ccc2ccccc2n1

>  <score_type>  (74) 
oracle

>  <origin>  (74) 
autodockgpu

>  <m_score__min__energy>  (74) 
-9.3699999999999992

>  <m_primary>  (74) 
energy

>  <rmsd>  (74) 
2.452659322465014

>  <m_score__min__rmsd>  (74) 
2.452659322465014

>  <meeko>  (74) 
{"free_energy": -8.14, "intermolecular_energy": -10.23, "internal_energy": -1.68, "cluster_size": 28, "cluster_id": 1, "rank_in_cluster": 27}

>  <energy>  (74) 
-8.43

>  <cluster_rmsd>  (74) 
1.4

>  <cluster>  (74) 
1

$$$$

     RDKit          3D

 54 57  0  0  0  0  0  0  0  0999 V2000
  141.4230   72.2220  221.5610 O   0  0  0  0  0  0  0  0  0  0  0  0
  140.5630   72.4620  222.4730 C   0  0  0  0  0  0  0  0  0  0  0  0
  139.8520   73.6830  222.3380 N   0  0  0  0  0  0  0  0  0  0  0  0
  140.1850   74.5100  221.1890 C   0  0  0  0  0  0  0  0  0  0  0  0
  140.1000   75.9490  221.6040 C   0  0  0  0  0  0  0  0  0  0  0  0
  139.4820   76.1680  222.6680 O   0  0  0  0  0  0  0  0  0  0  0  0
  140.7140   76.8960  220.7720 N   0  0  0  0  0  0  0  0  0  0  0  0
  142.1500   76.8890  220.3470 C   0  0  0  0  0  0  0  0  0  0  0  0
  142.0130   77.2290  218.8490 C   0  0  0  0  0  0  0  0  0  0  0  0
  140.5320   77.6250  218.6630 C   0  0  0  0  0  0  0  0  0  0  0  0
  140.2400   78.0690  220.0630 C   0  0  1  0  0  0  0  0  0  0  0  0
  138.9230   78.6050  220.3850 C   0  0  0  0  0  0  0  0  0  0  0  0
  139.0640   79.8250  221.2630 C   0  0  0  0  0  0  0  0  0  0  0  0
  140.3400   79.8120  222.0240 C   0  0  0  0  0  0  0  0  0  0  0  0
  141.4410   80.5580  221.6410 C   0  0  0  0  0  0  0  0  0  0  0  0
  142.6300   80.5470  222.3490 C   0  0  0  0  0  0  0  0  0  0  0  0
  142.7610   79.7800  223.4750 C   0  0  0  0  0  0  0  0  0  0  0  0
  141.6760   79.0250  223.8760 C   0  0  0  0  0  0  0  0  0  0  0  0
  140.4940   79.0420  223.1660 C   0  0  0  0  0  0  0  0  0  0  0  0
  140.3320   71.5350  223.5760 C   0  0  0  0  0  0  0  0  0  0  0  0
  139.6880   70.3480  223.2940 C   0  0  0  0  0  0  0  0  0  0  0  0
  139.4130   69.3920  224.2520 C   0  0  0  0  0  0  0  0  0  0  0  0
  139.8270   69.6900  225.5550 C   0  0  0  0  0  0  0  0  0  0  0  0
  139.5510   68.7350  226.5030 C   0  0  0  0  0  0  0  0  0  0  0  0
  139.9490   69.0010  227.8000 C   0  0  0  0  0  0  0  0  0  0  0  0
  140.5850   70.1730  228.0870 C   0  0  0  0  0  0  0  0  0  0  0  0
  140.8570   71.1290  227.1100 C   0  0  0  0  0  0  0  0  0  0  0  0
  140.4700   70.8780  225.8270 C   0  0  0  0  0  0  0  0  0  0  0  0
  140.7190   71.7910  224.8430 N   0  0  0  0  0  0  0  0  0  0  0  0
  139.1280   73.9540  223.0450 H   0  0  0  0  0  0  0  0  0  0  0  0
  141.2056   74.2806  220.8489 H   0  0  0  0  0  0  0  0  0  0  0  0
  139.4853   74.3116  220.3637 H   0  0  0  0  0  0  0  0  0  0  0  0
  142.7340   77.6517  220.8829 H   0  0  0  0  0  0  0  0  0  0  0  0
  142.6799   75.9472  220.5524 H   0  0  0  0  0  0  0  0  0  0  0  0
  142.6738   78.0664  218.5806 H   0  0  0  0  0  0  0  0  0  0  0  0
  142.2987   76.3838  218.2056 H   0  0  0  0  0  0  0  0  0  0  0  0
  140.4100   78.4414  217.9359 H   0  0  0  0  0  0  0  0  0  0  0  0
  139.8745   76.8375  218.2660 H   0  0  0  0  0  0  0  0  0  0  0  0
  140.7277   79.0120  220.3509 H   0  0  0  0  0  0  0  0  0  0  0  0
  138.4053   78.8830  219.4551 H   0  0  0  0  0  0  0  0  0  0  0  0
  138.3420   77.8395  220.9202 H   0  0  0  0  0  0  0  0  0  0  0  0
  139.0358   80.7244  220.6303 H   0  0  0  0  0  0  0  0  0  0  0  0
  138.2346   79.8242  221.9856 H   0  0  0  0  0  0  0  0  0  0  0  0
  141.3682   81.1837  220.7392 H   0  0  0  0  0  0  0  0  0  0  0  0
  143.4763   81.1593  222.0042 H   0  0  0  0  0  0  0  0  0  0  0  0
  143.7024   79.7652  224.0438 H   0  0  0  0  0  0  0  0  0  0  0  0
  141.7562   78.3994  224.7772 H   0  0  0  0  0  0  0  0  0  0  0  0
  139.6508   78.4280  223.5154 H   0  0  0  0  0  0  0  0  0  0  0  0
  139.3787   70.1537  222.2564 H   0  0  0  0  0  0  0  0  0  0  0  0
  138.8987   68.4515  224.0052 H   0  0  0  0  0  0  0  0  0  0  0  0
  139.0356   67.7991  226.2415 H   0  0  0  0  0  0  0  0  0  0  0  0
  139.7534   68.2697  228.5981 H   0  0  0  0  0  0  0  0  0  0  0  0
  140.8936   70.3702  229.1243 H   0  0  0  0  0  0  0  0  0  0  0  0
  141.3727   72.0656  227.3684 H   0  0  0  0  0  0  0  0  0  0  0  0
  1  2  2  0
  2  3  1  0
  3  4  1  0
  4  5  1  0
  5  6  2  0
  5  7  1  0
  7  8  1  0
  8  9  1  0
  9 10  1  0
 10 11  1  0
 11 12  1  0
 12 13  1  0
 13 14  1  0
 14 15  2  0
 15 16  1  0
 16 17  2  0
 17 18  1  0
 18 19  2  0
  2 20  1  0
 20 21  2  0
 21 22  1  0
 22 23  2  0
 23 24  1  0
 24 25  2  0
 25 26  1  0
 26 27  2  0
 27 28  1  0
 28 29  2  0
 11  7  1  0
 19 14  1  0
 29 20  1  0
 28 23  1  0
  3 30  1  0
  4 31  1  0
  4 32  1  0
  8 33  1  0
  8 34  1  0
  9 35  1  0
  9 36  1  0
 10 37  1  0
 10 38  1  0
 11 39  1  1
 12 40  1  0
 12 41  1  0
 13 42  1  0
 13 43  1  0
 15 44  1  0
 16 45  1  0
 17 46  1  0
 18 47  1  0
 19 48  1  0
 21 49  1  0
 22 50  1  0
 24 51  1  0
 25 52  1  0
 26 53  1  0
 27 54  1  0
M  END
>  <smiles>  (75) 
O=C(NCC(=O)N1CCCC1CCc1ccccc1)c1ccc2ccccc2n1

>  <score_type>  (75) 
oracle

>  <origin>  (75) 
autodockgpu

>  <m_score__min__energy>  (75) 
-9.3699999999999992

>  <m_primary>  (75) 
energy

>  <rmsd>  (75) 
2.810623191610594

>  <m_score__min__rmsd>  (75) 
2.810623191610594

>  <meeko>  (75) 
{"free_energy": -8.32, "intermolecular_energy": -10.41, "internal_energy": -2.24, "cluster_size": 28, "cluster_id": 1, "rank_in_cluster": 26}

>  <energy>  (75) 
-8.38

>  <cluster_rmsd>  (75) 
0.88

>  <cluster>  (75) 
1

$$$$

     RDKit          3D

 54 57  0  0  0  0  0  0  0  0999 V2000
  141.3110   72.2600  221.0860 O   0  0  0  0  0  0  0  0  0  0  0  0
  140.5740   73.1370  221.6510 C   0  0  0  0  0  0  0  0  0  0  0  0
  139.4880   72.6270  222.4110 N   0  0  0  0  0  0  0  0  0  0  0  0
  139.3450   71.1800  222.4550 C   0  0  0  0  0  0  0  0  0  0  0  0
  138.0910   70.8550  223.2130 C   0  0  0  0  0  0  0  0  0  0  0  0
  137.4790   71.8350  223.6880 O   0  0  0  0  0  0  0  0  0  0  0  0
  137.7320   69.5030  223.3120 N   0  0  0  0  0  0  0  0  0  0  0  0
  136.4570   68.8960  222.8110 C   0  0  0  0  0  0  0  0  0  0  0  0
  136.9880   67.6080  222.1500 C   0  0  0  0  0  0  0  0  0  0  0  0
  138.4710   67.5250  222.5680 C   0  0  0  0  0  0  0  0  0  0  0  0
  138.3930   68.3230  223.8340 C   0  0  1  0  0  0  0  0  0  0  0  0
  139.5880   68.4870  224.6530 C   0  0  0  0  0  0  0  0  0  0  0  0
  139.1970   68.8330  226.0700 C   0  0  0  0  0  0  0  0  0  0  0  0
  139.9470   70.0120  226.5750 C   0  0  0  0  0  0  0  0  0  0  0  0
  140.7680   70.7750  225.7640 C   0  0  0  0  0  0  0  0  0  0  0  0
  141.4660   71.8740  226.2330 C   0  0  0  0  0  0  0  0  0  0  0  0
  141.3680   72.2500  227.5450 C   0  0  0  0  0  0  0  0  0  0  0  0
  140.5560   71.5030  228.3760 C   0  0  0  0  0  0  0  0  0  0  0  0
  139.8620   70.4100  227.9010 C   0  0  0  0  0  0  0  0  0  0  0  0
  140.8380   74.5650  221.5180 C   0  0  0  0  0  0  0  0  0  0  0  0
  141.8160   74.9580  220.6280 C   0  0  0  0  0  0  0  0  0  0  0  0
  142.1570   76.2790  220.4140 C   0  0  0  0  0  0  0  0  0  0  0  0
  141.4470   77.2260  221.1620 C   0  0  0  0  0  0  0  0  0  0  0  0
  141.7900   78.5380  220.9450 C   0  0  0  0  0  0  0  0  0  0  0  0
  141.1060   79.4970  221.6700 C   0  0  0  0  0  0  0  0  0  0  0  0
  140.1390   79.1150  222.5530 C   0  0  0  0  0  0  0  0  0  0  0  0
  139.8050   77.7780  222.7580 C   0  0  0  0  0  0  0  0  0  0  0  0
  140.4720   76.8240  222.0490 C   0  0  0  0  0  0  0  0  0  0  0  0
  140.1720   75.5040  222.2230 N   0  0  0  0  0  0  0  0  0  0  0  0
  138.8370   73.2800  222.9060 H   0  0  0  0  0  0  0  0  0  0  0  0
  139.2755   70.7815  221.4321 H   0  0  0  0  0  0  0  0  0  0  0  0
  140.2164   70.7272  222.9506 H   0  0  0  0  0  0  0  0  0  0  0  0
  135.7645   68.6716  223.6356 H   0  0  0  0  0  0  0  0  0  0  0  0
  135.8772   69.5460  222.1393 H   0  0  0  0  0  0  0  0  0  0  0  0
  136.4342   66.7302  222.5143 H   0  0  0  0  0  0  0  0  0  0  0  0
  136.8678   67.6256  221.0567 H   0  0  0  0  0  0  0  0  0  0  0  0
  138.7922   66.4890  222.7508 H   0  0  0  0  0  0  0  0  0  0  0  0
  139.1969   67.8829  221.8230 H   0  0  0  0  0  0  0  0  0  0  0  0
  137.8620   67.8199  224.6555 H   0  0  0  0  0  0  0  0  0  0  0  0
  140.1624   67.5489  224.6519 H   0  0  0  0  0  0  0  0  0  0  0  0
  140.2023   69.2998  224.2383 H   0  0  0  0  0  0  0  0  0  0  0  0
  138.1204   69.0567  226.0982 H   0  0  0  0  0  0  0  0  0  0  0  0
  139.4380   67.9728  226.7119 H   0  0  0  0  0  0  0  0  0  0  0  0
  140.8700   70.4971  224.7046 H   0  0  0  0  0  0  0  0  0  0  0  0
  142.1042   72.4494  225.5462 H   0  0  0  0  0  0  0  0  0  0  0  0
  141.9197   73.1217  227.9268 H   0  0  0  0  0  0  0  0  0  0  0  0
  140.4613   71.7848  229.4351 H   0  0  0  0  0  0  0  0  0  0  0  0
  139.2243   69.8389  228.5918 H   0  0  0  0  0  0  0  0  0  0  0  0
  142.3503   74.1813  220.0612 H   0  0  0  0  0  0  0  0  0  0  0  0
  142.9400   76.5700  219.6983 H   0  0  0  0  0  0  0  0  0  0  0  0
  142.5749   78.8143  220.2256 H   0  0  0  0  0  0  0  0  0  0  0  0
  141.3408   80.5631  221.5351 H   0  0  0  0  0  0  0  0  0  0  0  0
  139.6045   79.8893  223.1229 H   0  0  0  0  0  0  0  0  0  0  0  0
  139.0202   77.4985  223.4763 H   0  0  0  0  0  0  0  0  0  0  0  0
  1  2  2  0
  2  3  1  0
  3  4  1  0
  4  5  1  0
  5  6  2  0
  5  7  1  0
  7  8  1  0
  8  9  1  0
  9 10  1  0
 10 11  1  0
 11 12  1  0
 12 13  1  0
 13 14  1  0
 14 15  2  0
 15 16  1  0
 16 17  2  0
 17 18  1  0
 18 19  2  0
  2 20  1  0
 20 21  2  0
 21 22  1  0
 22 23  2  0
 23 24  1  0
 24 25  2  0
 25 26  1  0
 26 27  2  0
 27 28  1  0
 28 29  2  0
 11  7  1  0
 19 14  1  0
 29 20  1  0
 28 23  1  0
  3 30  1  0
  4 31  1  0
  4 32  1  0
  8 33  1  0
  8 34  1  0
  9 35  1  0
  9 36  1  0
 10 37  1  0
 10 38  1  0
 11 39  1  1
 12 40  1  0
 12 41  1  0
 13 42  1  0
 13 43  1  0
 15 44  1  0
 16 45  1  0
 17 46  1  0
 18 47  1  0
 19 48  1  0
 21 49  1  0
 22 50  1  0
 24 51  1  0
 25 52  1  0
 26 53  1  0
 27 54  1  0
M  END
>  <smiles>  (76) 
O=C(NCC(=O)N1CCCC1CCc1ccccc1)c1ccc2ccccc2n1

>  <score_type>  (76) 
oracle

>  <origin>  (76) 
autodockgpu

>  <m_score__min__energy>  (76) 
-9.3699999999999992

>  <m_primary>  (76) 
energy

>  <rmsd>  (76) 
8.443804479538908

>  <m_score__min__rmsd>  (76) 
8.443804479538908

>  <meeko>  (76) 
{"free_energy": -7.97, "intermolecular_energy": -10.05, "internal_energy": -2.38, "cluster_size": 14, "cluster_id": 3, "rank_in_cluster": 14}

>  <energy>  (76) 
-8.32

>  <cluster_rmsd>  (76) 
1.52

>  <cluster>  (76) 
1

$$$$

     RDKit          3D

 54 57  0  0  0  0  0  0  0  0999 V2000
  141.0860   72.2220  221.7320 O   0  0  0  0  0  0  0  0  0  0  0  0
  140.1180   72.3200  222.5590 C   0  0  0  0  0  0  0  0  0  0  0  0
  139.1090   73.2580  222.2120 N   0  0  0  0  0  0  0  0  0  0  0  0
  139.2970   73.9900  220.9690 C   0  0  0  0  0  0  0  0  0  0  0  0
  140.1430   75.1960  221.2570 C   0  0  0  0  0  0  0  0  0  0  0  0
  141.1530   74.9900  221.9640 O   0  0  0  0  0  0  0  0  0  0  0  0
  139.7250   76.4190  220.7140 N   0  0  0  0  0  0  0  0  0  0  0  0
  139.9650   76.8810  219.3090 C   0  0  0  0  0  0  0  0  0  0  0  0
  138.5830   77.4650  218.9540 C   0  0  0  0  0  0  0  0  0  0  0  0
  137.8010   77.4790  220.2850 C   0  0  0  0  0  0  0  0  0  0  0  0
  138.9620   77.5400  221.2290 C   0  0  1  0  0  0  0  0  0  0  0  0
  138.7170   77.6280  222.6630 C   0  0  0  0  0  0  0  0  0  0  0  0
  138.8040   79.0660  223.1120 C   0  0  0  0  0  0  0  0  0  0  0  0
  140.2100   79.5430  223.1690 C   0  0  0  0  0  0  0  0  0  0  0  0
  140.5370   80.8720  223.3670 C   0  0  0  0  0  0  0  0  0  0  0  0
  141.8460   81.3170  223.4200 C   0  0  0  0  0  0  0  0  0  0  0  0
  142.8850   80.4380  223.2740 C   0  0  0  0  0  0  0  0  0  0  0  0
  142.5840   79.1050  223.0740 C   0  0  0  0  0  0  0  0  0  0  0  0
  141.2770   78.6690  223.0230 C   0  0  0  0  0  0  0  0  0  0  0  0
  140.0600   71.5170  223.7750 C   0  0  0  0  0  0  0  0  0  0  0  0
  139.3660   70.3260  223.7260 C   0  0  0  0  0  0  0  0  0  0  0  0
  139.2400   69.4790  224.8100 C   0  0  0  0  0  0  0  0  0  0  0  0
  139.8640   69.8960  225.9910 C   0  0  0  0  0  0  0  0  0  0  0  0
  139.7360   69.0500  227.0650 C   0  0  0  0  0  0  0  0  0  0  0  0
  140.3430   69.4340  228.2470 C   0  0  0  0  0  0  0  0  0  0  0  0
  141.0300   70.6110  228.3030 C   0  0  0  0  0  0  0  0  0  0  0  0
  141.1490   71.4560  227.2010 C   0  0  0  0  0  0  0  0  0  0  0  0
  140.5560   71.0870  226.0310 C   0  0  0  0  0  0  0  0  0  0  0  0
  140.6510   71.8890  224.9300 N   0  0  0  0  0  0  0  0  0  0  0  0
  138.2810   73.3980  222.8370 H   0  0  0  0  0  0  0  0  0  0  0  0
  139.8022   73.3484  220.2320 H   0  0  0  0  0  0  0  0  0  0  0  0
  138.3238   74.2982  220.5592 H   0  0  0  0  0  0  0  0  0  0  0  0
  140.7518   77.6484  219.2645 H   0  0  0  0  0  0  0  0  0  0  0  0
  140.3148   76.0936  218.6252 H   0  0  0  0  0  0  0  0  0  0  0  0
  138.6852   78.4850  218.5550 H   0  0  0  0  0  0  0  0  0  0  0  0
  138.0711   76.8739  218.1803 H   0  0  0  0  0  0  0  0  0  0  0  0
  137.1495   78.3610  220.3729 H   0  0  0  0  0  0  0  0  0  0  0  0
  137.1066   76.6397  220.4380 H   0  0  0  0  0  0  0  0  0  0  0  0
  139.4951   78.5022  221.2309 H   0  0  0  0  0  0  0  0  0  0  0  0
  137.7136   77.2364  222.8862 H   0  0  0  0  0  0  0  0  0  0  0  0
  139.4748   77.0356  223.1967 H   0  0  0  0  0  0  0  0  0  0  0  0
  138.2434   79.6944  222.4043 H   0  0  0  0  0  0  0  0  0  0  0  0
  138.3789   79.1341  224.1243 H   0  0  0  0  0  0  0  0  0  0  0  0
  139.7247   81.6039  223.4871 H   0  0  0  0  0  0  0  0  0  0  0  0
  142.0533   82.3853  223.5807 H   0  0  0  0  0  0  0  0  0  0  0  0
  143.9287   80.7830  223.3147 H   0  0  0  0  0  0  0  0  0  0  0  0
  143.4012   78.3786  222.9533 H   0  0  0  0  0  0  0  0  0  0  0  0
  141.0751   77.5997  222.8622 H   0  0  0  0  0  0  0  0  0  0  0  0
  138.8897   70.0366  222.7776 H   0  0  0  0  0  0  0  0  0  0  0  0
  138.6823   68.5329  224.7484 H   0  0  0  0  0  0  0  0  0  0  0  0
  139.1746   68.1071  226.9886 H   0  0  0  0  0  0  0  0  0  0  0  0
  140.2720   68.7929  229.1381 H   0  0  0  0  0  0  0  0  0  0  0  0
  141.5065   70.9033  229.2504 H   0  0  0  0  0  0  0  0  0  0  0  0
  141.7092   72.3998  227.2742 H   0  0  0  0  0  0  0  0  0  0  0  0
  1  2  2  0
  2  3  1  0
  3  4  1  0
  4  5  1  0
  5  6  2  0
  5  7  1  0
  7  8  1  0
  8  9  1  0
  9 10  1  0
 10 11  1  0
 11 12  1  0
 12 13  1  0
 13 14  1  0
 14 15  2  0
 15 16  1  0
 16 17  2  0
 17 18  1  0
 18 19  2  0
  2 20  1  0
 20 21  2  0
 21 22  1  0
 22 23  2  0
 23 24  1  0
 24 25  2  0
 25 26  1  0
 26 27  2  0
 27 28  1  0
 28 29  2  0
 11  7  1  0
 19 14  1  0
 29 20  1  0
 28 23  1  0
  3 30  1  0
  4 31  1  0
  4 32  1  0
  8 33  1  0
  8 34  1  0
  9 35  1  0
  9 36  1  0
 10 37  1  0
 10 38  1  0
 11 39  1  6
 12 40  1  0
 12 41  1  0
 13 42  1  0
 13 43  1  0
 15 44  1  0
 16 45  1  0
 17 46  1  0
 18 47  1  0
 19 48  1  0
 21 49  1  0
 22 50  1  0
 24 51  1  0
 25 52  1  0
 26 53  1  0
 27 54  1  0
M  END
>  <smiles>  (77) 
O=C(NCC(=O)N1CCCC1CCc1ccccc1)c1ccc2ccccc2n1

>  <score_type>  (77) 
oracle

>  <origin>  (77) 
autodockgpu

>  <m_score__min__energy>  (77) 
-9.3699999999999992

>  <m_primary>  (77) 
energy

>  <rmsd>  (77) 
2.9115233848223485

>  <m_score__min__rmsd>  (77) 
2.9115233848223485

>  <meeko>  (77) 
{"free_energy": -8.85, "intermolecular_energy": -10.93, "internal_energy": -1.4, "cluster_size": 28, "cluster_id": 1, "rank_in_cluster": 7}

>  <energy>  (77) 
-8.14

>  <cluster_rmsd>  (77) 
1.26

>  <cluster>  (77) 
1

$$$$

     RDKit          3D

 54 57  0  0  0  0  0  0  0  0999 V2000
  138.8220   73.1210  222.3070 O   0  0  0  0  0  0  0  0  0  0  0  0
  139.8960   72.5450  222.6860 C   0  0  0  0  0  0  0  0  0  0  0  0
  141.0790   72.9450  222.0110 N   0  0  0  0  0  0  0  0  0  0  0  0
  140.9280   73.9550  220.9740 C   0  0  0  0  0  0  0  0  0  0  0  0
  142.2860   74.5120  220.6600 C   0  0  0  0  0  0  0  0  0  0  0  0
  143.2450   73.7320  220.8440 O   0  0  0  0  0  0  0  0  0  0  0  0
  142.3470   75.8350  220.1980 N   0  0  0  0  0  0  0  0  0  0  0  0
  143.4150   76.4060  219.3170 C   0  0  0  0  0  0  0  0  0  0  0  0
  142.5660   77.2190  218.3190 C   0  0  0  0  0  0  0  0  0  0  0  0
  141.1370   77.2030  218.9030 C   0  0  0  0  0  0  0  0  0  0  0  0
  141.4860   76.9920  220.3450 C   0  0  1  0  0  0  0  0  0  0  0  0
  140.4240   76.9590  221.3420 C   0  0  0  0  0  0  0  0  0  0  0  0
  141.0070   77.1470  222.7220 C   0  0  0  0  0  0  0  0  0  0  0  0
  141.2910   78.5770  223.0100 C   0  0  0  0  0  0  0  0  0  0  0  0
  140.2990   79.4760  223.3620 C   0  0  0  0  0  0  0  0  0  0  0  0
  140.5630   80.8070  223.6310 C   0  0  0  0  0  0  0  0  0  0  0  0
  141.8400   81.2920  223.5540 C   0  0  0  0  0  0  0  0  0  0  0  0
  142.8470   80.4150  223.2030 C   0  0  0  0  0  0  0  0  0  0  0  0
  142.5770   79.0890  222.9370 C   0  0  0  0  0  0  0  0  0  0  0  0
  139.8980   71.5420  223.7460 C   0  0  0  0  0  0  0  0  0  0  0  0
  139.2860   70.3330  223.4890 C   0  0  0  0  0  0  0  0  0  0  0  0
  139.2230   69.3070  224.4110 C   0  0  0  0  0  0  0  0  0  0  0  0
  139.8230   69.5560  225.6500 C   0  0  0  0  0  0  0  0  0  0  0  0
  139.7570   68.5310  226.5630 C   0  0  0  0  0  0  0  0  0  0  0  0
  140.3420   68.7470  227.7970 C   0  0  0  0  0  0  0  0  0  0  0  0
  140.9480   69.9410  228.0590 C   0  0  0  0  0  0  0  0  0  0  0  0
  141.0050   70.9680  227.1190 C   0  0  0  0  0  0  0  0  0  0  0  0
  140.4320   70.7660  225.8990 C   0  0  0  0  0  0  0  0  0  0  0  0
  140.4680   71.7500  224.9520 N   0  0  0  0  0  0  0  0  0  0  0  0
  142.0010   72.5210  222.2630 H   0  0  0  0  0  0  0  0  0  0  0  0
  140.4945   73.4998  220.0713 H   0  0  0  0  0  0  0  0  0  0  0  0
  140.2591   74.7570  221.3195 H   0  0  0  0  0  0  0  0  0  0  0  0
  144.1032   77.0516  219.8823 H   0  0  0  0  0  0  0  0  0  0  0  0
  144.0691   75.6547  218.8506 H   0  0  0  0  0  0  0  0  0  0  0  0
  142.9409   78.2503  218.2430 H   0  0  0  0  0  0  0  0  0  0  0  0
  142.6023   76.7948  217.3047 H   0  0  0  0  0  0  0  0  0  0  0  0
  140.6121   78.1557  218.7392 H   0  0  0  0  0  0  0  0  0  0  0  0
  140.4513   76.4626  218.4652 H   0  0  0  0  0  0  0  0  0  0  0  0
  141.9559   77.8605  220.8296 H   0  0  0  0  0  0  0  0  0  0  0  0
  139.7059   77.7666  221.1365 H   0  0  0  0  0  0  0  0  0  0  0  0
  139.9136   75.9858  221.2946 H   0  0  0  0  0  0  0  0  0  0  0  0
  140.2902   76.7693  223.4660 H   0  0  0  0  0  0  0  0  0  0  0  0
  141.9560   76.5929  222.7711 H   0  0  0  0  0  0  0  0  0  0  0  0
  139.2610   79.1183  223.4304 H   0  0  0  0  0  0  0  0  0  0  0  0
  139.7394   81.4810  223.9091 H   0  0  0  0  0  0  0  0  0  0  0  0
  142.0580   82.3493  223.7655 H   0  0  0  0  0  0  0  0  0  0  0  0
  143.8823   80.7802  223.1344 H   0  0  0  0  0  0  0  0  0  0  0  0
  143.4045   78.4196  222.6594 H   0  0  0  0  0  0  0  0  0  0  0  0
  138.8258   70.1786  222.5019 H   0  0  0  0  0  0  0  0  0  0  0  0
  138.7300   68.3501  224.1846 H   0  0  0  0  0  0  0  0  0  0  0  0
  139.2601   67.5796  226.3224 H   0  0  0  0  0  0  0  0  0  0  0  0
  140.3189   67.9593  228.5645 H   0  0  0  0  0  0  0  0  0  0  0  0
  141.4073   70.0983  229.0461 H   0  0  0  0  0  0  0  0  0  0  0  0
  141.5014   71.9205  227.3563 H   0  0  0  0  0  0  0  0  0  0  0  0
  1  2  2  0
  2  3  1  0
  3  4  1  0
  4  5  1  0
  5  6  2  0
  5  7  1  0
  7  8  1  0
  8  9  1  0
  9 10  1  0
 10 11  1  0
 11 12  1  0
 12 13  1  0
 13 14  1  0
 14 15  2  0
 15 16  1  0
 16 17  2  0
 17 18  1  0
 18 19  2  0
  2 20  1  0
 20 21  2  0
 21 22  1  0
 22 23  2  0
 23 24  1  0
 24 25  2  0
 25 26  1  0
 26 27  2  0
 27 28  1  0
 28 29  2  0
 11  7  1  0
 19 14  1  0
 29 20  1  0
 28 23  1  0
  3 30  1  0
  4 31  1  0
  4 32  1  0
  8 33  1  0
  8 34  1  0
  9 35  1  0
  9 36  1  0
 10 37  1  0
 10 38  1  0
 11 39  1  1
 12 40  1  0
 12 41  1  0
 13 42  1  0
 13 43  1  0
 15 44  1  0
 16 45  1  0
 17 46  1  0
 18 47  1  0
 19 48  1  0
 21 49  1  0
 22 50  1  0
 24 51  1  0
 25 52  1  0
 26 53  1  0
 27 54  1  0
M  END
>  <smiles>  (78) 
O=C(NCC(=O)N1CCCC1CCc1ccccc1)c1ccc2ccccc2n1

>  <score_type>  (78) 
oracle

>  <origin>  (78) 
autodockgpu

>  <m_score__min__energy>  (78) 
-9.3699999999999992

>  <m_primary>  (78) 
energy

>  <rmsd>  (78) 
2.999440053118505

>  <m_score__min__rmsd>  (78) 
2.999440053118505

>  <meeko>  (78) 
{"free_energy": -8.61, "intermolecular_energy": -10.7, "internal_energy": -1.95, "cluster_size": 28, "cluster_id": 1, "rank_in_cluster": 17}

>  <energy>  (78) 
-8.13

>  <cluster_rmsd>  (78) 
1.22

>  <cluster>  (78) 
1

$$$$

     RDKit          3D

 54 57  0  0  0  0  0  0  0  0999 V2000
  140.7470   71.6490  221.4490 O   0  0  0  0  0  0  0  0  0  0  0  0
  140.0770   72.0600  222.4550 C   0  0  0  0  0  0  0  0  0  0  0  0
  139.3220   73.2440  222.2450 N   0  0  0  0  0  0  0  0  0  0  0  0
  139.4020   73.8440  220.9220 C   0  0  0  0  0  0  0  0  0  0  0  0
  140.6260   74.7110  220.8720 C   0  0  0  0  0  0  0  0  0  0  0  0
  141.0880   75.0550  221.9810 O   0  0  0  0  0  0  0  0  0  0  0  0
  141.1250   75.0460  219.6060 N   0  0  0  0  0  0  0  0  0  0  0  0
  141.0200   74.2030  218.3720 C   0  0  0  0  0  0  0  0  0  0  0  0
  140.6270   75.2650  217.3250 C   0  0  0  0  0  0  0  0  0  0  0  0
  140.7940   76.6190  218.0480 C   0  0  0  0  0  0  0  0  0  0  0  0
  141.8090   76.2070  219.0690 C   0  0  1  0  0  0  0  0  0  0  0  0
  142.3430   77.2000  219.9920 C   0  0  0  0  0  0  0  0  0  0  0  0
  141.2390   78.1220  220.4510 C   0  0  0  0  0  0  0  0  0  0  0  0
  141.6200   78.8680  221.6790 C   0  0  0  0  0  0  0  0  0  0  0  0
  141.4340   78.3530  222.9490 C   0  0  0  0  0  0  0  0  0  0  0  0
  141.7880   79.0460  224.0930 C   0  0  0  0  0  0  0  0  0  0  0  0
  142.3440   80.2930  224.0050 C   0  0  0  0  0  0  0  0  0  0  0  0
  142.5390   80.8300  222.7480 C   0  0  0  0  0  0  0  0  0  0  0  0
  142.1840   80.1330  221.6120 C   0  0  0  0  0  0  0  0  0  0  0  0
  140.0910   71.3520  223.7300 C   0  0  0  0  0  0  0  0  0  0  0  0
  139.5740   70.0740  223.7620 C   0  0  0  0  0  0  0  0  0  0  0  0
  139.5320   69.3040  224.9080 C   0  0  0  0  0  0  0  0  0  0  0  0
  140.0510   69.8950  226.0650 C   0  0  0  0  0  0  0  0  0  0  0  0
  140.0060   69.1240  227.2020 C   0  0  0  0  0  0  0  0  0  0  0  0
  140.5110   69.6820  228.3620 C   0  0  0  0  0  0  0  0  0  0  0  0
  141.0230   70.9460  228.3380 C   0  0  0  0  0  0  0  0  0  0  0  0
  141.0590   71.7120  227.1750 C   0  0  0  0  0  0  0  0  0  0  0  0
  140.5650   71.1730  226.0250 C   0  0  0  0  0  0  0  0  0  0  0  0
  140.5840   71.8930  224.8650 N   0  0  0  0  0  0  0  0  0  0  0  0
  138.7440   73.6470  223.0200 H   0  0  0  0  0  0  0  0  0  0  0  0
  139.4736   73.0547  220.1592 H   0  0  0  0  0  0  0  0  0  0  0  0
  138.5027   74.4454  220.7232 H   0  0  0  0  0  0  0  0  0  0  0  0
  141.9804   73.7273  218.1244 H   0  0  0  0  0  0  0  0  0  0  0  0
  140.3141   73.3634  218.4543 H   0  0  0  0  0  0  0  0  0  0  0  0
  141.2910   75.2095  216.4498 H   0  0  0  0  0  0  0  0  0  0  0  0
  139.6024   75.1189  216.9524 H   0  0  0  0  0  0  0  0  0  0  0  0
  141.1767   77.4020  217.3768 H   0  0  0  0  0  0  0  0  0  0  0  0
  139.8700   77.0624  218.4475 H   0  0  0  0  0  0  0  0  0  0  0  0
  142.8095   76.0073  218.6577 H   0  0  0  0  0  0  0  0  0  0  0  0
  142.7785   76.6902  220.8641 H   0  0  0  0  0  0  0  0  0  0  0  0
  143.1178   77.7898  219.4804 H   0  0  0  0  0  0  0  0  0  0  0  0
  141.0204   78.8429  219.6495 H   0  0  0  0  0  0  0  0  0  0  0  0
  140.3551   77.5095  220.6825 H   0  0  0  0  0  0  0  0  0  0  0  0
  140.9872   77.3533  223.0537 H   0  0  0  0  0  0  0  0  0  0  0  0
  141.6212   78.5910  225.0805 H   0  0  0  0  0  0  0  0  0  0  0  0
  142.6274   80.8515  224.9093 H   0  0  0  0  0  0  0  0  0  0  0  0
  142.9851   81.8308  222.6509 H   0  0  0  0  0  0  0  0  0  0  0  0
  142.3527   80.5927  220.6270 H   0  0  0  0  0  0  0  0  0  0  0  0
  139.1758   69.6471  222.8297 H   0  0  0  0  0  0  0  0  0  0  0  0
  139.1150   68.2861  224.9108 H   0  0  0  0  0  0  0  0  0  0  0  0
  139.5865   68.1072  227.1897 H   0  0  0  0  0  0  0  0  0  0  0  0
  140.4999   69.1086  229.3007 H   0  0  0  0  0  0  0  0  0  0  0  0
  141.4212   71.3754  229.2692 H   0  0  0  0  0  0  0  0  0  0  0  0
  141.4770   72.7295  227.1847 H   0  0  0  0  0  0  0  0  0  0  0  0
  1  2  2  0
  2  3  1  0
  3  4  1  0
  4  5  1  0
  5  6  2  0
  5  7  1  0
  7  8  1  0
  8  9  1  0
  9 10  1  0
 10 11  1  0
 11 12  1  0
 12 13  1  0
 13 14  1  0
 14 15  2  0
 15 16  1  0
 16 17  2  0
 17 18  1  0
 18 19  2  0
  2 20  1  0
 20 21  2  0
 21 22  1  0
 22 23  2  0
 23 24  1  0
 24 25  2  0
 25 26  1  0
 26 27  2  0
 27 28  1  0
 28 29  2  0
 11  7  1  0
 19 14  1  0
 29 20  1  0
 28 23  1  0
  3 30  1  0
  4 31  1  0
  4 32  1  0
  8 33  1  0
  8 34  1  0
  9 35  1  0
  9 36  1  0
 10 37  1  0
 10 38  1  0
 11 39  1  6
 12 40  1  0
 12 41  1  0
 13 42  1  0
 13 43  1  0
 15 44  1  0
 16 45  1  0
 17 46  1  0
 18 47  1  0
 19 48  1  0
 21 49  1  0
 22 50  1  0
 24 51  1  0
 25 52  1  0
 26 53  1  0
 27 54  1  0
M  END
>  <smiles>  (79) 
O=C(NCC(=O)N1CCCC1CCc1ccccc1)c1ccc2ccccc2n1

>  <score_type>  (79) 
oracle

>  <origin>  (79) 
autodockgpu

>  <m_score__min__energy>  (79) 
-9.3699999999999992

>  <m_primary>  (79) 
energy

>  <rmsd>  (79) 
2.020440218436165

>  <m_score__min__rmsd>  (79) 
2.020440218436165

>  <meeko>  (79) 
{"free_energy": -8.83, "intermolecular_energy": -10.92, "internal_energy": -1.53, "cluster_size": 28, "cluster_id": 1, "rank_in_cluster": 8}

>  <energy>  (79) 
-9.02

>  <cluster_rmsd>  (79) 
0.0

>  <cluster>  (79) 
2

$$$$

     RDKit          3D

 54 57  0  0  0  0  0  0  0  0999 V2000
  140.4320   71.5340  221.7950 O   0  0  0  0  0  0  0  0  0  0  0  0
  139.6030   71.6050  222.7640 C   0  0  0  0  0  0  0  0  0  0  0  0
  138.5710   72.5690  222.6170 N   0  0  0  0  0  0  0  0  0  0  0  0
  138.5800   73.3540  221.3930 C   0  0  0  0  0  0  0  0  0  0  0  0
  139.2870   74.6490  221.6710 C   0  0  0  0  0  0  0  0  0  0  0  0
  140.4950   74.5500  221.9750 O   0  0  0  0  0  0  0  0  0  0  0  0
  138.5350   75.8280  221.5640 N   0  0  0  0  0  0  0  0  0  0  0  0
  137.0400   75.9140  221.5470 C   0  0  0  0  0  0  0  0  0  0  0  0
  136.8060   77.1110  222.4910 C   0  0  0  0  0  0  0  0  0  0  0  0
  138.2090   77.7060  222.7380 C   0  0  0  0  0  0  0  0  0  0  0  0
  138.8770   77.2350  221.4820 C   0  0  1  0  0  0  0  0  0  0  0  0
  140.2610   77.6110  221.2220 C   0  0  0  0  0  0  0  0  0  0  0  0
  141.0530   77.5820  222.5070 C   0  0  0  0  0  0  0  0  0  0  0  0
  141.4500   78.9460  222.9410 C   0  0  0  0  0  0  0  0  0  0  0  0
  140.5230   79.9290  223.2430 C   0  0  0  0  0  0  0  0  0  0  0  0
  140.8910   81.2000  223.6480 C   0  0  0  0  0  0  0  0  0  0  0  0
  142.2120   81.5370  223.7630 C   0  0  0  0  0  0  0  0  0  0  0  0
  143.1560   80.5730  223.4660 C   0  0  0  0  0  0  0  0  0  0  0  0
  142.7820   79.3080  223.0640 C   0  0  0  0  0  0  0  0  0  0  0  0
  139.7170   70.7470  223.9380 C   0  0  0  0  0  0  0  0  0  0  0  0
  139.1760   69.4800  223.8640 C   0  0  0  0  0  0  0  0  0  0  0  0
  139.2210   68.5770  224.9080 C   0  0  0  0  0  0  0  0  0  0  0  0
  139.8550   69.0170  226.0750 C   0  0  0  0  0  0  0  0  0  0  0  0
  139.8960   68.1150  227.1100 C   0  0  0  0  0  0  0  0  0  0  0  0
  140.5160   68.5210  228.2770 C   0  0  0  0  0  0  0  0  0  0  0  0
  141.0520   69.7730  228.3580 C   0  0  0  0  0  0  0  0  0  0  0  0
  141.0000   70.6740  227.2960 C   0  0  0  0  0  0  0  0  0  0  0  0
  140.3920   70.2850  226.1410 C   0  0  0  0  0  0  0  0  0  0  0  0
  140.3220   71.1400  225.0790 N   0  0  0  0  0  0  0  0  0  0  0  0
  137.8500   72.6890  223.3670 H   0  0  0  0  0  0  0  0  0  0  0  0
  139.1093   72.8033  220.6014 H   0  0  0  0  0  0  0  0  0  0  0  0
  137.5502   73.5477  221.0584 H   0  0  0  0  0  0  0  0  0  0  0  0
  136.6580   76.1160  220.5354 H   0  0  0  0  0  0  0  0  0  0  0  0
  136.5281   74.9889  221.8506 H   0  0  0  0  0  0  0  0  0  0  0  0
  136.1488   77.8547  222.0166 H   0  0  0  0  0  0  0  0  0  0  0  0
  136.3150   76.8084  223.4277 H   0  0  0  0  0  0  0  0  0  0  0  0
  138.1867   78.8035  222.8086 H   0  0  0  0  0  0  0  0  0  0  0  0
  138.6953   77.4061  223.6780 H   0  0  0  0  0  0  0  0  0  0  0  0
  138.5351   77.7427  220.5680 H   0  0  0  0  0  0  0  0  0  0  0  0
  140.7027   76.9027  220.5056 H   0  0  0  0  0  0  0  0  0  0  0  0
  140.2869   78.6283  220.8043 H   0  0  0  0  0  0  0  0  0  0  0  0
  140.4373   77.1229  223.2945 H   0  0  0  0  0  0  0  0  0  0  0  0
  141.9690   76.9989  222.3311 H   0  0  0  0  0  0  0  0  0  0  0  0
  139.4526   79.6905  223.1577 H   0  0  0  0  0  0  0  0  0  0  0  0
  140.1155   81.9451  223.8792 H   0  0  0  0  0  0  0  0  0  0  0  0
  142.5135   82.5455  224.0824 H   0  0  0  0  0  0  0  0  0  0  0  0
  144.2248   80.8188  223.5517 H   0  0  0  0  0  0  0  0  0  0  0  0
  143.5617   78.5666  222.8349 H   0  0  0  0  0  0  0  0  0  0  0  0
  138.6851   69.1743  222.9283 H   0  0  0  0  0  0  0  0  0  0  0  0
  138.7840   67.5708  224.8268 H   0  0  0  0  0  0  0  0  0  0  0  0
  139.4543   67.1121  227.0144 H   0  0  0  0  0  0  0  0  0  0  0  0
  140.5769   67.8375  229.1367 H   0  0  0  0  0  0  0  0  0  0  0  0
  141.5418   70.0818  229.2933 H   0  0  0  0  0  0  0  0  0  0  0  0
  141.4405   71.6777  227.3886 H   0  0  0  0  0  0  0  0  0  0  0  0
  1  2  2  0
  2  3  1  0
  3  4  1  0
  4  5  1  0
  5  6  2  0
  5  7  1  0
  7  8  1  0
  8  9  1  0
  9 10  1  0
 10 11  1  0
 11 12  1  0
 12 13  1  0
 13 14  1  0
 14 15  2  0
 15 16  1  0
 16 17  2  0
 17 18  1  0
 18 19  2  0
  2 20  1  0
 20 21  2  0
 21 22  1  0
 22 23  2  0
 23 24  1  0
 24 25  2  0
 25 26  1  0
 26 27  2  0
 27 28  1  0
 28 29  2  0
 11  7  1  0
 19 14  1  0
 29 20  1  0
 28 23  1  0
  3 30  1  0
  4 31  1  0
  4 32  1  0
  8 33  1  0
  8 34  1  0
  9 35  1  0
  9 36  1  0
 10 37  1  0
 10 38  1  0
 11 39  1  6
 12 40  1  0
 12 41  1  0
 13 42  1  0
 13 43  1  0
 15 44  1  0
 16 45  1  0
 17 46  1  0
 18 47  1  0
 19 48  1  0
 21 49  1  0
 22 50  1  0
 24 51  1  0
 25 52  1  0
 26 53  1  0
 27 54  1  0
M  END
>  <smiles>  (80) 
O=C(NCC(=O)N1CCCC1CCc1ccccc1)c1ccc2ccccc2n1

>  <score_type>  (80) 
oracle

>  <origin>  (80) 
autodockgpu

>  <m_score__min__energy>  (80) 
-9.3699999999999992

>  <m_primary>  (80) 
energy

>  <rmsd>  (80) 
2.59084181495867

>  <m_score__min__rmsd>  (80) 
2.59084181495867

>  <meeko>  (80) 
{"free_energy": -9.37, "intermolecular_energy": -11.46, "internal_energy": -1.31, "cluster_size": 28, "cluster_id": 1, "rank_in_cluster": 1}

>  <energy>  (80) 
-8.8

>  <cluster_rmsd>  (80) 
1.36

>  <cluster>  (80) 
2

$$$$

     RDKit          3D

 54 57  0  0  0  0  0  0  0  0999 V2000
  141.2740   71.7210  221.5500 O   0  0  0  0  0  0  0  0  0  0  0  0
  140.4950   72.1400  222.4710 C   0  0  0  0  0  0  0  0  0  0  0  0
  139.8270   73.3630  222.1990 N   0  0  0  0  0  0  0  0  0  0  0  0
  140.1060   73.9880  220.9160 C   0  0  0  0  0  0  0  0  0  0  0  0
  140.5580   75.3970  221.1680 C   0  0  0  0  0  0  0  0  0  0  0  0
  139.8900   76.0350  222.0100 O   0  0  0  0  0  0  0  0  0  0  0  0
  141.6690   75.8550  220.4460 N   0  0  0  0  0  0  0  0  0  0  0  0
  142.9940   75.1640  220.3460 C   0  0  0  0  0  0  0  0  0  0  0  0
  143.2890   75.3160  218.8400 C   0  0  0  0  0  0  0  0  0  0  0  0
  142.2080   76.2870  218.3170 C   0  0  0  0  0  0  0  0  0  0  0  0
  141.9120   77.0060  219.5970 C   0  0  1  0  0  0  0  0  0  0  0  0
  140.9490   78.1000  219.5990 C   0  0  0  0  0  0  0  0  0  0  0  0
  141.6420   79.3950  219.9500 C   0  0  0  0  0  0  0  0  0  0  0  0
  141.8410   79.5340  221.4160 C   0  0  0  0  0  0  0  0  0  0  0  0
  142.6440   80.5160  221.9670 C   0  0  0  0  0  0  0  0  0  0  0  0
  142.8300   80.6470  223.3320 C   0  0  0  0  0  0  0  0  0  0  0  0
  142.2140   79.7890  224.2020 C   0  0  0  0  0  0  0  0  0  0  0  0
  141.4080   78.7990  223.6760 C   0  0  0  0  0  0  0  0  0  0  0  0
  141.2270   78.6750  222.3140 C   0  0  0  0  0  0  0  0  0  0  0  0
  140.3100   71.4030  223.7170 C   0  0  0  0  0  0  0  0  0  0  0  0
  139.6150   70.2130  223.6620 C   0  0  0  0  0  0  0  0  0  0  0  0
  139.3750   69.4270  224.7720 C   0  0  0  0  0  0  0  0  0  0  0  0
  139.8830   69.9040  225.9850 C   0  0  0  0  0  0  0  0  0  0  0  0
  139.6420   69.1170  227.0850 C   0  0  0  0  0  0  0  0  0  0  0  0
  140.1310   69.5630  228.2990 C   0  0  0  0  0  0  0  0  0  0  0  0
  140.8190   70.7390  228.3610 C   0  0  0  0  0  0  0  0  0  0  0  0
  141.0540   71.5230  227.2320 C   0  0  0  0  0  0  0  0  0  0  0  0
  140.5770   71.0940  226.0300 C   0  0  0  0  0  0  0  0  0  0  0  0
  140.7870   71.8350  224.9030 N   0  0  0  0  0  0  0  0  0  0  0  0
  139.1700   73.7740  222.9030 H   0  0  0  0  0  0  0  0  0  0  0  0
  140.8983   73.4305  220.3949 H   0  0  0  0  0  0  0  0  0  0  0  0
  139.2027   73.9857  220.2883 H   0  0  0  0  0  0  0  0  0  0  0  0
  143.7579   75.6633  220.9601 H   0  0  0  0  0  0  0  0  0  0  0  0
  142.9929   74.1247  220.7063 H   0  0  0  0  0  0  0  0  0  0  0  0
  144.2938   75.7353  218.6832 H   0  0  0  0  0  0  0  0  0  0  0  0
  143.2655   74.3498  218.3148 H   0  0  0  0  0  0  0  0  0  0  0  0
  142.5991   76.9638  217.5431 H   0  0  0  0  0  0  0  0  0  0  0  0
  141.3442   75.8172  217.8239 H   0  0  0  0  0  0  0  0  0  0  0  0
  142.7168   77.6733  219.9391 H   0  0  0  0  0  0  0  0  0  0  0  0
  140.4953   78.1882  218.6008 H   0  0  0  0  0  0  0  0  0  0  0  0
  140.1682   77.8934  220.3458 H   0  0  0  0  0  0  0  0  0  0  0  0
  142.6232   79.4198  219.4534 H   0  0  0  0  0  0  0  0  0  0  0  0
  141.0063   80.2261  219.6107 H   0  0  0  0  0  0  0  0  0  0  0  0
  143.1547   81.2204  221.2940 H   0  0  0  0  0  0  0  0  0  0  0  0
  143.4778   81.4467  223.7205 H   0  0  0  0  0  0  0  0  0  0  0  0
  142.3568   79.8852  225.2884 H   0  0  0  0  0  0  0  0  0  0  0  0
  140.9014   78.0970  224.3547 H   0  0  0  0  0  0  0  0  0  0  0  0
  140.5785   77.8735  221.9306 H   0  0  0  0  0  0  0  0  0  0  0  0
  139.2337   69.8737  222.6876 H   0  0  0  0  0  0  0  0  0  0  0  0
  138.8171   68.4813  224.7061 H   0  0  0  0  0  0  0  0  0  0  0  0
  139.0840   68.1726  227.0035 H   0  0  0  0  0  0  0  0  0  0  0  0
  139.9657   68.9715  229.2115 H   0  0  0  0  0  0  0  0  0  0  0  0
  141.2013   71.0805  229.3342 H   0  0  0  0  0  0  0  0  0  0  0  0
  141.6125   72.4675  227.3101 H   0  0  0  0  0  0  0  0  0  0  0  0
  1  2  2  0
  2  3  1  0
  3  4  1  0
  4  5  1  0
  5  6  2  0
  5  7  1  0
  7  8  1  0
  8  9  1  0
  9 10  1  0
 10 11  1  0
 11 12  1  0
 12 13  1  0
 13 14  1  0
 14 15  2  0
 15 16  1  0
 16 17  2  0
 17 18  1  0
 18 19  2  0
  2 20  1  0
 20 21  2  0
 21 22  1  0
 22 23  2  0
 23 24  1  0
 24 25  2  0
 25 26  1  0
 26 27  2  0
 27 28  1  0
 28 29  2  0
 11  7  1  0
 19 14  1  0
 29 20  1  0
 28 23  1  0
  3 30  1  0
  4 31  1  0
  4 32  1  0
  8 33  1  0
  8 34  1  0
  9 35  1  0
  9 36  1  0
 10 37  1  0
 10 38  1  0
 11 39  1  1
 12 40  1  0
 12 41  1  0
 13 42  1  0
 13 43  1  0
 15 44  1  0
 16 45  1  0
 17 46  1  0
 18 47  1  0
 19 48  1  0
 21 49  1  0
 22 50  1  0
 24 51  1  0
 25 52  1  0
 26 53  1  0
 27 54  1  0
M  END
>  <smiles>  (81) 
O=C(NCC(=O)N1CCCC1CCc1ccccc1)c1ccc2ccccc2n1

>  <score_type>  (81) 
oracle

>  <origin>  (81) 
autodockgpu

>  <m_score__min__energy>  (81) 
-9.3699999999999992

>  <m_primary>  (81) 
energy

>  <rmsd>  (81) 
2.5012454242442415

>  <m_score__min__rmsd>  (81) 
2.5012454242442415

>  <meeko>  (81) 
{"free_energy": -9.01, "intermolecular_energy": -11.1, "internal_energy": -1.77, "cluster_size": 28, "cluster_id": 1, "rank_in_cluster": 4}

>  <energy>  (81) 
-8.8

>  <cluster_rmsd>  (81) 
1.36

>  <cluster>  (81) 
2

$$$$

     RDKit          3D

 54 57  0  0  0  0  0  0  0  0999 V2000
  139.5120   70.4420  221.7830 O   0  0  0  0  0  0  0  0  0  0  0  0
  139.4220   71.2880  222.7350 C   0  0  0  0  0  0  0  0  0  0  0  0
  138.9100   72.5630  222.3750 N   0  0  0  0  0  0  0  0  0  0  0  0
  138.5540   72.7520  220.9780 C   0  0  0  0  0  0  0  0  0  0  0  0
  139.1640   74.0410  220.5080 C   0  0  0  0  0  0  0  0  0  0  0  0
  138.4670   74.7090  219.7150 O   0  0  0  0  0  0  0  0  0  0  0  0
  140.4370   74.3650  220.9960 N   0  0  0  0  0  0  0  0  0  0  0  0
  141.5930   73.4210  221.1250 C   0  0  0  0  0  0  0  0  0  0  0  0
  142.7440   74.2930  220.5840 C   0  0  0  0  0  0  0  0  0  0  0  0
  142.1410   75.7070  220.4410 C   0  0  0  0  0  0  0  0  0  0  0  0
  141.0520   75.5920  221.4640 C   0  0  1  0  0  0  0  0  0  0  0  0
  140.2050   76.7450  221.7410 C   0  0  0  0  0  0  0  0  0  0  0  0
  140.7360   77.9600  221.0190 C   0  0  0  0  0  0  0  0  0  0  0  0
  141.3280   78.9460  221.9610 C   0  0  0  0  0  0  0  0  0  0  0  0
  141.6690   80.2300  221.5750 C   0  0  0  0  0  0  0  0  0  0  0  0
  142.2200   81.1490  222.4510 C   0  0  0  0  0  0  0  0  0  0  0  0
  142.4530   80.8100  223.7570 C   0  0  0  0  0  0  0  0  0  0  0  0
  142.1220   79.5340  224.1650 C   0  0  0  0  0  0  0  0  0  0  0  0
  141.5730   78.6240  223.2870 C   0  0  0  0  0  0  0  0  0  0  0  0
  139.8200   70.9570  224.0990 C   0  0  0  0  0  0  0  0  0  0  0  0
  140.5570   71.8910  224.7980 C   0  0  0  0  0  0  0  0  0  0  0  0
  140.9920   71.6940  226.0940 C   0  0  0  0  0  0  0  0  0  0  0  0
  140.6410   70.4740  226.6820 C   0  0  0  0  0  0  0  0  0  0  0  0
  141.0750   70.2840  227.9710 C   0  0  0  0  0  0  0  0  0  0  0  0
  140.7440   69.0870  228.5780 C   0  0  0  0  0  0  0  0  0  0  0  0
  140.0150   68.1590  227.8940 C   0  0  0  0  0  0  0  0  0  0  0  0
  139.5830   68.3710  226.5860 C   0  0  0  0  0  0  0  0  0  0  0  0
  139.9030   69.5470  225.9760 C   0  0  0  0  0  0  0  0  0  0  0  0
  139.4970   69.7900  224.6960 N   0  0  0  0  0  0  0  0  0  0  0  0
  138.8040   73.3130  223.0980 H   0  0  0  0  0  0  0  0  0  0  0  0
  138.9428   71.9158  220.3784 H   0  0  0  0  0  0  0  0  0  0  0  0
  137.4602   72.7866  220.8662 H   0  0  0  0  0  0  0  0  0  0  0  0
  141.7633   73.1310  222.1723 H   0  0  0  0  0  0  0  0  0  0  0  0
  141.4602   72.4653  220.5968 H   0  0  0  0  0  0  0  0  0  0  0  0
  143.5872   74.3019  221.2904 H   0  0  0  0  0  0  0  0  0  0  0  0
  143.1368   73.9129  219.6294 H   0  0  0  0  0  0  0  0  0  0  0  0
  142.8663   76.4940  220.6952 H   0  0  0  0  0  0  0  0  0  0  0  0
  141.8156   75.9860  219.4280 H   0  0  0  0  0  0  0  0  0  0  0  0
  141.4076   75.5642  222.5046 H   0  0  0  0  0  0  0  0  0  0  0  0
  139.1810   76.5358  221.3979 H   0  0  0  0  0  0  0  0  0  0  0  0
  140.2027   76.9401  222.8236 H   0  0  0  0  0  0  0  0  0  0  0  0
  141.5095   77.6404  220.3052 H   0  0  0  0  0  0  0  0  0  0  0  0
  139.8956   78.4442  220.5001 H   0  0  0  0  0  0  0  0  0  0  0  0
  141.4955   80.5322  220.5316 H   0  0  0  0  0  0  0  0  0  0  0  0
  142.4725   82.1589  222.0955 H   0  0  0  0  0  0  0  0  0  0  0  0
  142.8911   81.5335  224.4603 H   0  0  0  0  0  0  0  0  0  0  0  0
  142.2994   79.2377  225.2094 H   0  0  0  0  0  0  0  0  0  0  0  0
  141.3227   77.6156  223.6481 H   0  0  0  0  0  0  0  0  0  0  0  0
  140.8103   72.8380  224.2990 H   0  0  0  0  0  0  0  0  0  0  0  0
  141.5800   72.4519  226.6323 H   0  0  0  0  0  0  0  0  0  0  0  0
  141.6609   71.0515  228.4979 H   0  0  0  0  0  0  0  0  0  0  0  0
  141.0675   68.8835  229.6095 H   0  0  0  0  0  0  0  0  0  0  0  0
  139.7595   67.2117  228.3913 H   0  0  0  0  0  0  0  0  0  0  0  0
  138.9962   67.6054  226.0572 H   0  0  0  0  0  0  0  0  0  0  0  0
  1  2  2  0
  2  3  1  0
  3  4  1  0
  4  5  1  0
  5  6  2  0
  5  7  1  0
  7  8  1  0
  8  9  1  0
  9 10  1  0
 10 11  1  0
 11 12  1  0
 12 13  1  0
 13 14  1  0
 14 15  2  0
 15 16  1  0
 16 17  2  0
 17 18  1  0
 18 19  2  0
  2 20  1  0
 20 21  2  0
 21 22  1  0
 22 23  2  0
 23 24  1  0
 24 25  2  0
 25 26  1  0
 26 27  2  0
 27 28  1  0
 28 29  2  0
 11  7  1  0
 19 14  1  0
 29 20  1  0
 28 23  1  0
  3 30  1  0
  4 31  1  0
  4 32  1  0
  8 33  1  0
  8 34  1  0
  9 35  1  0
  9 36  1  0
 10 37  1  0
 10 38  1  0
 11 39  1  1
 12 40  1  0
 12 41  1  0
 13 42  1  0
 13 43  1  0
 15 44  1  0
 16 45  1  0
 17 46  1  0
 18 47  1  0
 19 48  1  0
 21 49  1  0
 22 50  1  0
 24 51  1  0
 25 52  1  0
 26 53  1  0
 27 54  1  0
M  END
>  <smiles>  (82) 
O=C(NCC(=O)N1CCCC1CCc1ccccc1)c1ccc2ccccc2n1

>  <score_type>  (82) 
oracle

>  <origin>  (82) 
autodockgpu

>  <m_score__min__energy>  (82) 
-9.3699999999999992

>  <m_primary>  (82) 
energy

>  <rmsd>  (82) 
3.276325546907893

>  <m_score__min__rmsd>  (82) 
3.276325546907893

>  <meeko>  (82) 
{"free_energy": -8.76, "intermolecular_energy": -10.85, "internal_energy": -1.51, "cluster_size": 28, "cluster_id": 1, "rank_in_cluster": 12}

>  <energy>  (82) 
-8.78

>  <cluster_rmsd>  (82) 
0.43

>  <cluster>  (82) 
2

$$$$

     RDKit          3D

 54 57  0  0  0  0  0  0  0  0999 V2000
  140.3400   71.6650  221.8670 O   0  0  0  0  0  0  0  0  0  0  0  0
  139.5070   71.6640  222.8340 C   0  0  0  0  0  0  0  0  0  0  0  0
  138.4240   72.5730  222.7100 N   0  0  0  0  0  0  0  0  0  0  0  0
  138.3920   73.3920  221.5080 C   0  0  0  0  0  0  0  0  0  0  0  0
  139.1630   74.6510  221.7770 C   0  0  0  0  0  0  0  0  0  0  0  0
  140.2860   74.4950  222.3020 O   0  0  0  0  0  0  0  0  0  0  0  0
  138.5580   75.8650  221.4200 N   0  0  0  0  0  0  0  0  0  0  0  0
  137.0990   76.0690  221.1490 C   0  0  0  0  0  0  0  0  0  0  0  0
  136.8450   77.3890  221.9040 C   0  0  0  0  0  0  0  0  0  0  0  0
  138.2460   77.8950  222.3090 C   0  0  0  0  0  0  0  0  0  0  0  0
  139.0480   77.2180  221.2400 C   0  0  1  0  0  0  0  0  0  0  0  0
  140.4850   77.4450  221.1690 C   0  0  0  0  0  0  0  0  0  0  0  0
  141.0730   77.4600  222.5590 C   0  0  0  0  0  0  0  0  0  0  0  0
  141.4660   78.8310  222.9770 C   0  0  0  0  0  0  0  0  0  0  0  0
  140.5530   79.7490  223.4650 C   0  0  0  0  0  0  0  0  0  0  0  0
  140.9170   81.0260  223.8550 C   0  0  0  0  0  0  0  0  0  0  0  0
  142.2200   81.4340  223.7670 C   0  0  0  0  0  0  0  0  0  0  0  0
  143.1500   80.5360  223.2810 C   0  0  0  0  0  0  0  0  0  0  0  0
  142.7800   79.2640  222.8950 C   0  0  0  0  0  0  0  0  0  0  0  0
  139.6660   70.7820  223.9850 C   0  0  0  0  0  0  0  0  0  0  0  0
  139.1700   69.4980  223.8840 C   0  0  0  0  0  0  0  0  0  0  0  0
  139.2600   68.5710  224.9030 C   0  0  0  0  0  0  0  0  0  0  0  0
  139.8910   69.0040  226.0750 C   0  0  0  0  0  0  0  0  0  0  0  0
  139.9770   68.0780  227.0860 C   0  0  0  0  0  0  0  0  0  0  0  0
  140.5960   68.4770  228.2550 C   0  0  0  0  0  0  0  0  0  0  0  0
  141.0870   69.7450  228.3630 C   0  0  0  0  0  0  0  0  0  0  0  0
  140.9910   70.6700  227.3250 C   0  0  0  0  0  0  0  0  0  0  0  0
  140.3830   70.2880  226.1670 C   0  0  0  0  0  0  0  0  0  0  0  0
  140.2700   71.1670  225.1280 N   0  0  0  0  0  0  0  0  0  0  0  0
  137.6960   72.6330  223.4600 H   0  0  0  0  0  0  0  0  0  0  0  0
  138.8526   72.8448  220.6723 H   0  0  0  0  0  0  0  0  0  0  0  0
  137.3526   73.6331  221.2404 H   0  0  0  0  0  0  0  0  0  0  0  0
  136.8982   76.1736  220.0725 H   0  0  0  0  0  0  0  0  0  0  0  0
  136.4567   75.2337  221.4646 H   0  0  0  0  0  0  0  0  0  0  0  0
  136.3450   78.1183  221.2497 H   0  0  0  0  0  0  0  0  0  0  0  0
  136.1898   77.2462  222.7760 H   0  0  0  0  0  0  0  0  0  0  0  0
  138.3226   78.9909  222.2525 H   0  0  0  0  0  0  0  0  0  0  0  0
  138.5507   77.6770  223.3432 H   0  0  0  0  0  0  0  0  0  0  0  0
  138.9032   77.6336  220.2319 H   0  0  0  0  0  0  0  0  0  0  0  0
  140.9528   76.6395  220.5839 H   0  0  0  0  0  0  0  0  0  0  0  0
  140.6746   78.4147  220.6856 H   0  0  0  0  0  0  0  0  0  0  0  0
  140.3248   77.0728  223.2663 H   0  0  0  0  0  0  0  0  0  0  0  0
  141.9758   76.8316  222.5553 H   0  0  0  0  0  0  0  0  0  0  0  0
  139.4969   79.4523  223.5461 H   0  0  0  0  0  0  0  0  0  0  0  0
  140.1530   81.7182  224.2386 H   0  0  0  0  0  0  0  0  0  0  0  0
  142.5181   82.4473  224.0742 H   0  0  0  0  0  0  0  0  0  0  0  0
  144.2040   80.8401  223.2002 H   0  0  0  0  0  0  0  0  0  0  0  0
  143.5479   78.5757  222.5122 H   0  0  0  0  0  0  0  0  0  0  0  0
  138.6792   69.1988  222.9461 H   0  0  0  0  0  0  0  0  0  0  0  0
  138.8593   67.5518  224.8000 H   0  0  0  0  0  0  0  0  0  0  0  0
  139.5705   67.0625  226.9699 H   0  0  0  0  0  0  0  0  0  0  0  0
  140.6925   67.7744  229.0959 H   0  0  0  0  0  0  0  0  0  0  0  0
  141.5752   70.0477  229.3011 H   0  0  0  0  0  0  0  0  0  0  0  0
  141.3971   71.6860  227.4381 H   0  0  0  0  0  0  0  0  0  0  0  0
  1  2  2  0
  2  3  1  0
  3  4  1  0
  4  5  1  0
  5  6  2  0
  5  7  1  0
  7  8  1  0
  8  9  1  0
  9 10  1  0
 10 11  1  0
 11 12  1  0
 12 13  1  0
 13 14  1  0
 14 15  2  0
 15 16  1  0
 16 17  2  0
 17 18  1  0
 18 19  2  0
  2 20  1  0
 20 21  2  0
 21 22  1  0
 22 23  2  0
 23 24  1  0
 24 25  2  0
 25 26  1  0
 26 27  2  0
 27 28  1  0
 28 29  2  0
 11  7  1  0
 19 14  1  0
 29 20  1  0
 28 23  1  0
  3 30  1  0
  4 31  1  0
  4 32  1  0
  8 33  1  0
  8 34  1  0
  9 35  1  0
  9 36  1  0
 10 37  1  0
 10 38  1  0
 11 39  1  6
 12 40  1  0
 12 41  1  0
 13 42  1  0
 13 43  1  0
 15 44  1  0
 16 45  1  0
 17 46  1  0
 18 47  1  0
 19 48  1  0
 21 49  1  0
 22 50  1  0
 24 51  1  0
 25 52  1  0
 26 53  1  0
 27 54  1  0
M  END
>  <smiles>  (83) 
O=C(NCC(=O)N1CCCC1CCc1ccccc1)c1ccc2ccccc2n1

>  <score_type>  (83) 
oracle

>  <origin>  (83) 
autodockgpu

>  <m_score__min__energy>  (83) 
-9.3699999999999992

>  <m_primary>  (83) 
energy

>  <rmsd>  (83) 
2.5115436954489856

>  <m_score__min__rmsd>  (83) 
2.5115436954489856

>  <meeko>  (83) 
{"free_energy": -9.28, "intermolecular_energy": -11.36, "internal_energy": -1.29, "cluster_size": 28, "cluster_id": 1, "rank_in_cluster": 2}

>  <energy>  (83) 
-8.45

>  <cluster_rmsd>  (83) 
0.36

>  <cluster>  (83) 
2

$$$$

     RDKit          3D

 54 57  0  0  0  0  0  0  0  0999 V2000
  141.5220   72.1360  221.8830 O   0  0  0  0  0  0  0  0  0  0  0  0
  140.5430   72.2560  222.6930 C   0  0  0  0  0  0  0  0  0  0  0  0
  139.6930   73.3700  222.4650 N   0  0  0  0  0  0  0  0  0  0  0  0
  140.0350   74.2350  221.3470 C   0  0  0  0  0  0  0  0  0  0  0  0
  139.7760   75.6560  221.7550 C   0  0  0  0  0  0  0  0  0  0  0  0
  138.9830   75.8070  222.7080 O   0  0  0  0  0  0  0  0  0  0  0  0
  140.4400   76.6620  221.0370 N   0  0  0  0  0  0  0  0  0  0  0  0
  141.8220   76.5660  220.4680 C   0  0  0  0  0  0  0  0  0  0  0  0
  141.6070   77.1900  219.0740 C   0  0  0  0  0  0  0  0  0  0  0  0
  140.1820   77.7830  219.1170 C   0  0  0  0  0  0  0  0  0  0  0  0
  140.0690   77.9930  220.5960 C   0  0  1  0  0  0  0  0  0  0  0  0
  138.8670   78.6090  221.1430 C   0  0  0  0  0  0  0  0  0  0  0  0
  139.0270   78.8200  222.6300 C   0  0  0  0  0  0  0  0  0  0  0  0
  140.2930   79.5280  222.9520 C   0  0  0  0  0  0  0  0  0  0  0  0
  141.3900   78.8800  223.4920 C   0  0  0  0  0  0  0  0  0  0  0  0
  142.5700   79.5380  223.7920 C   0  0  0  0  0  0  0  0  0  0  0  0
  142.6940   80.8810  223.5630 C   0  0  0  0  0  0  0  0  0  0  0  0
  141.6110   81.5510  223.0260 C   0  0  0  0  0  0  0  0  0  0  0  0
  140.4390   80.8880  222.7290 C   0  0  0  0  0  0  0  0  0  0  0  0
  140.3200   71.3060  223.7780 C   0  0  0  0  0  0  0  0  0  0  0  0
  139.5990   70.1650  223.4940 C   0  0  0  0  0  0  0  0  0  0  0  0
  139.3220   69.1920  224.4350 C   0  0  0  0  0  0  0  0  0  0  0  0
  139.8190   69.4240  225.7220 C   0  0  0  0  0  0  0  0  0  0  0  0
  139.5410   68.4530  226.6540 C   0  0  0  0  0  0  0  0  0  0  0  0
  140.0190   68.6530  227.9350 C   0  0  0  0  0  0  0  0  0  0  0  0
  140.7320   69.7800  228.2240 C   0  0  0  0  0  0  0  0  0  0  0  0
  141.0040   70.7530  227.2640 C   0  0  0  0  0  0  0  0  0  0  0  0
  140.5390   70.5670  225.9970 C   0  0  0  0  0  0  0  0  0  0  0  0
  140.7850   71.4980  225.0300 N   0  0  0  0  0  0  0  0  0  0  0  0
  138.8660   73.5400  223.0840 H   0  0  0  0  0  0  0  0  0  0  0  0
  141.0973   74.1092  221.0907 H   0  0  0  0  0  0  0  0  0  0  0  0
  139.4272   73.9762  220.4674 H   0  0  0  0  0  0  0  0  0  0  0  0
  142.5452   77.1436  221.0625 H   0  0  0  0  0  0  0  0  0  0  0  0
  142.2369   75.5474  220.4510 H   0  0  0  0  0  0  0  0  0  0  0  0
  142.3489   77.9799  218.8854 H   0  0  0  0  0  0  0  0  0  0  0  0
  141.7226   76.4504  218.2680 H   0  0  0  0  0  0  0  0  0  0  0  0
  140.1099   78.7277  218.5582 H   0  0  0  0  0  0  0  0  0  0  0  0
  139.3947   77.1637  218.6625 H   0  0  0  0  0  0  0  0  0  0  0  0
  140.6995   78.8042  220.9891 H   0  0  0  0  0  0  0  0  0  0  0  0
  138.6996   79.5795  220.6531 H   0  0  0  0  0  0  0  0  0  0  0  0
  138.0072   77.9472  220.9622 H   0  0  0  0  0  0  0  0  0  0  0  0
  138.1805   79.4182  222.9982 H   0  0  0  0  0  0  0  0  0  0  0  0
  139.0532   77.8332  223.1153 H   0  0  0  0  0  0  0  0  0  0  0  0
  141.3215   77.8002  223.6905 H   0  0  0  0  0  0  0  0  0  0  0  0
  143.4148   78.9767  224.2179 H   0  0  0  0  0  0  0  0  0  0  0  0
  143.6280   81.4119  223.7993 H   0  0  0  0  0  0  0  0  0  0  0  0
  141.6852   82.6313  222.8323 H   0  0  0  0  0  0  0  0  0  0  0  0
  139.5971   81.4539  222.3036 H   0  0  0  0  0  0  0  0  0  0  0  0
  139.2265   70.0228  222.4688 H   0  0  0  0  0  0  0  0  0  0  0  0
  138.7451   68.2888  224.1870 H   0  0  0  0  0  0  0  0  0  0  0  0
  138.9626   67.5549  226.3914 H   0  0  0  0  0  0  0  0  0  0  0  0
  139.8254   67.9062  228.7191 H   0  0  0  0  0  0  0  0  0  0  0  0
  141.1045   69.9254  229.2488 H   0  0  0  0  0  0  0  0  0  0  0  0
  141.5819   71.6522  227.5238 H   0  0  0  0  0  0  0  0  0  0  0  0
  1  2  2  0
  2  3  1  0
  3  4  1  0
  4  5  1  0
  5  6  2  0
  5  7  1  0
  7  8  1  0
  8  9  1  0
  9 10  1  0
 10 11  1  0
 11 12  1  0
 12 13  1  0
 13 14  1  0
 14 15  2  0
 15 16  1  0
 16 17  2  0
 17 18  1  0
 18 19  2  0
  2 20  1  0
 20 21  2  0
 21 22  1  0
 22 23  2  0
 23 24  1  0
 24 25  2  0
 25 26  1  0
 26 27  2  0
 27 28  1  0
 28 29  2  0
 11  7  1  0
 19 14  1  0
 29 20  1  0
 28 23  1  0
  3 30  1  0
  4 31  1  0
  4 32  1  0
  8 33  1  0
  8 34  1  0
  9 35  1  0
  9 36  1  0
 10 37  1  0
 10 38  1  0
 11 39  1  1
 12 40  1  0
 12 41  1  0
 13 42  1  0
 13 43  1  0
 15 44  1  0
 16 45  1  0
 17 46  1  0
 18 47  1  0
 19 48  1  0
 21 49  1  0
 22 50  1  0
 24 51  1  0
 25 52  1  0
 26 53  1  0
 27 54  1  0
M  END
>  <smiles>  (84) 
O=C(NCC(=O)N1CCCC1CCc1ccccc1)c1ccc2ccccc2n1

>  <score_type>  (84) 
oracle

>  <origin>  (84) 
autodockgpu

>  <m_score__min__energy>  (84) 
-9.3699999999999992

>  <m_primary>  (84) 
energy

>  <rmsd>  (84) 
2.927195512468019

>  <m_score__min__rmsd>  (84) 
2.927195512468019

>  <meeko>  (84) 
{"free_energy": -8.67, "intermolecular_energy": -10.76, "internal_energy": -2.03, "cluster_size": 28, "cluster_id": 1, "rank_in_cluster": 13}

>  <energy>  (84) 
-8.87

>  <cluster_rmsd>  (84) 
0.0

>  <cluster>  (84) 
3

$$$$

     RDKit          3D

 54 57  0  0  0  0  0  0  0  0999 V2000
  137.4560   76.1840  222.1830 O   0  0  0  0  0  0  0  0  0  0  0  0
  138.7150   76.2880  222.3690 C   0  0  0  0  0  0  0  0  0  0  0  0
  139.4590   75.0900  222.2080 N   0  0  0  0  0  0  0  0  0  0  0  0
  138.7070   73.8960  221.8550 C   0  0  0  0  0  0  0  0  0  0  0  0
  139.5580   72.6970  222.1580 C   0  0  0  0  0  0  0  0  0  0  0  0
  140.6550   72.9390  222.7050 O   0  0  0  0  0  0  0  0  0  0  0  0
  139.0470   71.4400  221.8030 N   0  0  0  0  0  0  0  0  0  0  0  0
  139.0070   70.8710  220.4180 C   0  0  0  0  0  0  0  0  0  0  0  0
  139.4730   69.4250  220.6840 C   0  0  0  0  0  0  0  0  0  0  0  0
  139.4880   69.2860  222.2210 C   0  0  0  0  0  0  0  0  0  0  0  0
  138.4760   70.3390  222.5530 C   0  0  1  0  0  0  0  0  0  0  0  0
  138.0940   70.5540  223.9430 C   0  0  0  0  0  0  0  0  0  0  0  0
  138.7830   69.5450  224.8290 C   0  0  0  0  0  0  0  0  0  0  0  0
  139.5670   70.2020  225.9060 C   0  0  0  0  0  0  0  0  0  0  0  0
  140.3470   71.3230  225.6810 C   0  0  0  0  0  0  0  0  0  0  0  0
  141.0770   71.9360  226.6830 C   0  0  0  0  0  0  0  0  0  0  0  0
  141.0540   71.4430  227.9600 C   0  0  0  0  0  0  0  0  0  0  0  0
  140.2850   70.3240  228.2100 C   0  0  0  0  0  0  0  0  0  0  0  0
  139.5590   69.7180  227.2060 C   0  0  0  0  0  0  0  0  0  0  0  0
  139.3380   77.5590  222.7220 C   0  0  0  0  0  0  0  0  0  0  0  0
  138.5100   78.6100  223.0580 C   0  0  0  0  0  0  0  0  0  0  0  0
  138.9800   79.8600  223.4100 C   0  0  0  0  0  0  0  0  0  0  0  0
  140.3710   80.0160  223.4090 C   0  0  0  0  0  0  0  0  0  0  0  0
  140.8330   81.2620  223.7600 C   0  0  0  0  0  0  0  0  0  0  0  0
  142.2030   81.4470  223.7690 C   0  0  0  0  0  0  0  0  0  0  0  0
  143.0280   80.4130  223.4370 C   0  0  0  0  0  0  0  0  0  0  0  0
  142.5390   79.1560  223.0840 C   0  0  0  0  0  0  0  0  0  0  0  0
  141.1910   78.9610  223.0720 C   0  0  0  0  0  0  0  0  0  0  0  0
  140.6750   77.7440  222.7320 N   0  0  0  0  0  0  0  0  0  0  0  0
  140.4980   75.0900  222.3420 H   0  0  0  0  0  0  0  0  0  0  0  0
  137.7795   73.8526  222.4447 H   0  0  0  0  0  0  0  0  0  0  0  0
  138.4449   73.9149  220.7869 H   0  0  0  0  0  0  0  0  0  0  0  0
  137.9903   70.8977  219.9989 H   0  0  0  0  0  0  0  0  0  0  0  0
  139.6173   71.4177  219.6840 H   0  0  0  0  0  0  0  0  0  0  0  0
  138.7718   68.7046  220.2376 H   0  0  0  0  0  0  0  0  0  0  0  0
  140.4590   69.2208  220.2412 H   0  0  0  0  0  0  0  0  0  0  0  0
  139.1678   68.2861  222.5492 H   0  0  0  0  0  0  0  0  0  0  0  0
  140.4713   69.4026  222.7001 H   0  0  0  0  0  0  0  0  0  0  0  0
  137.4432   70.0780  222.2786 H   0  0  0  0  0  0  0  0  0  0  0  0
  138.3883   71.5688  224.2490 H   0  0  0  0  0  0  0  0  0  0  0  0
  137.0047   70.4364  224.0407 H   0  0  0  0  0  0  0  0  0  0  0  0
  138.0227   68.8956  225.2874 H   0  0  0  0  0  0  0  0  0  0  0  0
  139.4779   68.9616  224.2071 H   0  0  0  0  0  0  0  0  0  0  0  0
  140.3879   71.7429  224.6651 H   0  0  0  0  0  0  0  0  0  0  0  0
  141.6805   72.8262  226.4522 H   0  0  0  0  0  0  0  0  0  0  0  0
  141.6312   71.9243  228.7632 H   0  0  0  0  0  0  0  0  0  0  0  0
  140.2507   69.9084  229.2279 H   0  0  0  0  0  0  0  0  0  0  0  0
  138.9579   68.8276  227.4423 H   0  0  0  0  0  0  0  0  0  0  0  0
  137.4226   78.4444  223.0449 H   0  0  0  0  0  0  0  0  0  0  0  0
  138.3015   80.6841  223.6754 H   0  0  0  0  0  0  0  0  0  0  0  0
  140.1423   82.0769  224.0225 H   0  0  0  0  0  0  0  0  0  0  0  0
  142.6262   82.4247  224.0430 H   0  0  0  0  0  0  0  0  0  0  0  0
  144.1158   80.5763  223.4481 H   0  0  0  0  0  0  0  0  0  0  0  0
  143.2271   78.3392  222.8208 H   0  0  0  0  0  0  0  0  0  0  0  0
  1  2  2  0
  2  3  1  0
  3  4  1  0
  4  5  1  0
  5  6  2  0
  5  7  1  0
  7  8  1  0
  8  9  1  0
  9 10  1  0
 10 11  1  0
 11 12  1  0
 12 13  1  0
 13 14  1  0
 14 15  2  0
 15 16  1  0
 16 17  2  0
 17 18  1  0
 18 19  2  0
  2 20  1  0
 20 21  2  0
 21 22  1  0
 22 23  2  0
 23 24  1  0
 24 25  2  0
 25 26  1  0
 26 27  2  0
 27 28  1  0
 28 29  2  0
 11  7  1  0
 19 14  1  0
 29 20  1  0
 28 23  1  0
  3 30  1  0
  4 31  1  0
  4 32  1  0
  8 33  1  0
  8 34  1  0
  9 35  1  0
  9 36  1  0
 10 37  1  0
 10 38  1  0
 11 39  1  6
 12 40  1  0
 12 41  1  0
 13 42  1  0
 13 43  1  0
 15 44  1  0
 16 45  1  0
 17 46  1  0
 18 47  1  0
 19 48  1  0
 21 49  1  0
 22 50  1  0
 24 51  1  0
 25 52  1  0
 26 53  1  0
 27 54  1  0
M  END
>  <smiles>  (85) 
O=C(NCC(=O)N1CCCC1CCc1ccccc1)c1ccc2ccccc2n1

>  <score_type>  (85) 
oracle

>  <origin>  (85) 
autodockgpu

>  <m_score__min__energy>  (85) 
-9.3699999999999992

>  <m_primary>  (85) 
energy

>  <rmsd>  (85) 
8.486936874628062

>  <m_score__min__rmsd>  (85) 
8.486936874628062

>  <meeko>  (85) 
{"free_energy": -8.41, "intermolecular_energy": -10.5, "internal_energy": -2.16, "cluster_size": 14, "cluster_id": 3, "rank_in_cluster": 10}

>  <energy>  (85) 
-8.8

>  <cluster_rmsd>  (85) 
1.83

>  <cluster>  (85) 
3

$$$$

     RDKit          3D

 54 57  0  0  0  0  0  0  0  0999 V2000
  137.5200   76.0640  222.1770 O   0  0  0  0  0  0  0  0  0  0  0  0
  138.7850   76.2000  222.2830 C   0  0  0  0  0  0  0  0  0  0  0  0
  139.5520   75.0410  221.9900 N   0  0  0  0  0  0  0  0  0  0  0  0
  138.8130   73.8480  221.6090 C   0  0  0  0  0  0  0  0  0  0  0  0
  139.2650   72.7160  222.4840 C   0  0  0  0  0  0  0  0  0  0  0  0
  140.4920   72.6680  222.7150 O   0  0  0  0  0  0  0  0  0  0  0  0
  138.2800   71.8340  222.9530 N   0  0  0  0  0  0  0  0  0  0  0  0
  136.8240   72.1480  223.1060 C   0  0  0  0  0  0  0  0  0  0  0  0
  136.1870   70.8670  222.5280 C   0  0  0  0  0  0  0  0  0  0  0  0
  137.3640   69.8850  222.3410 C   0  0  0  0  0  0  0  0  0  0  0  0
  138.2920   70.4460  223.3740 C   0  0  1  0  0  0  0  0  0  0  0  0
  139.5720   69.7930  223.6180 C   0  0  0  0  0  0  0  0  0  0  0  0
  139.5790   69.1700  224.9930 C   0  0  0  0  0  0  0  0  0  0  0  0
  140.0750   70.1180  226.0240 C   0  0  0  0  0  0  0  0  0  0  0  0
  140.9030   71.1830  225.7180 C   0  0  0  0  0  0  0  0  0  0  0  0
  141.3650   72.0670  226.6770 C   0  0  0  0  0  0  0  0  0  0  0  0
  141.0130   71.9140  227.9900 C   0  0  0  0  0  0  0  0  0  0  0  0
  140.1880   70.8570  228.3220 C   0  0  0  0  0  0  0  0  0  0  0  0
  139.7310   69.9810  227.3600 C   0  0  0  0  0  0  0  0  0  0  0  0
  139.3930   77.4660  222.6790 C   0  0  0  0  0  0  0  0  0  0  0  0
  138.5520   78.4900  223.0620 C   0  0  0  0  0  0  0  0  0  0  0  0
  139.0070   79.7330  223.4580 C   0  0  0  0  0  0  0  0  0  0  0  0
  140.3960   79.9100  223.4510 C   0  0  0  0  0  0  0  0  0  0  0  0
  140.8420   81.1480  223.8450 C   0  0  0  0  0  0  0  0  0  0  0  0
  142.2090   81.3530  223.8490 C   0  0  0  0  0  0  0  0  0  0  0  0
  143.0460   80.3450  223.4700 C   0  0  0  0  0  0  0  0  0  0  0  0
  142.5730   79.0960  223.0740 C   0  0  0  0  0  0  0  0  0  0  0  0
  141.2280   78.8810  223.0670 C   0  0  0  0  0  0  0  0  0  0  0  0
  140.7270   77.6700  222.6840 N   0  0  0  0  0  0  0  0  0  0  0  0
  140.5970   75.0700  222.0530 H   0  0  0  0  0  0  0  0  0  0  0  0
  137.7350   74.0179  221.7474 H   0  0  0  0  0  0  0  0  0  0  0  0
  138.9987   73.6080  220.5517 H   0  0  0  0  0  0  0  0  0  0  0  0
  136.5507   72.2948  224.1613 H   0  0  0  0  0  0  0  0  0  0  0  0
  136.5051   73.0772  222.6112 H   0  0  0  0  0  0  0  0  0  0  0  0
  135.4461   70.4537  223.2282 H   0  0  0  0  0  0  0  0  0  0  0  0
  135.6553   71.0593  221.5844 H   0  0  0  0  0  0  0  0  0  0  0  0
  137.0762   68.8469  222.5633 H   0  0  0  0  0  0  0  0  0  0  0  0
  137.7709   69.8178  221.3213 H   0  0  0  0  0  0  0  0  0  0  0  0
  137.9722   70.2744  224.4124 H   0  0  0  0  0  0  0  0  0  0  0  0
  139.7315   69.0098  222.8622 H   0  0  0  0  0  0  0  0  0  0  0  0
  140.3767   70.5404  223.5557 H   0  0  0  0  0  0  0  0  0  0  0  0
  138.5539   68.8663  225.2518 H   0  0  0  0  0  0  0  0  0  0  0  0
  140.2544   68.3020  224.9724 H   0  0  0  0  0  0  0  0  0  0  0  0
  141.2060   71.3330  224.6713 H   0  0  0  0  0  0  0  0  0  0  0  0
  142.0205   72.8994  226.3812 H   0  0  0  0  0  0  0  0  0  0  0  0
  141.3762   72.6120  228.7587 H   0  0  0  0  0  0  0  0  0  0  0  0
  139.8907   70.7116  229.3710 H   0  0  0  0  0  0  0  0  0  0  0  0
  139.0754   69.1506  227.6610 H   0  0  0  0  0  0  0  0  0  0  0  0
  137.4672   78.3083  223.0517 H   0  0  0  0  0  0  0  0  0  0  0  0
  138.3189   80.5360  223.7608 H   0  0  0  0  0  0  0  0  0  0  0  0
  140.1418   81.9418  224.1443 H   0  0  0  0  0  0  0  0  0  0  0  0
  142.6203   82.3257  224.1568 H   0  0  0  0  0  0  0  0  0  0  0  0
  144.1313   80.5244  223.4773 H   0  0  0  0  0  0  0  0  0  0  0  0
  143.2707   78.3005  222.7734 H   0  0  0  0  0  0  0  0  0  0  0  0
  1  2  2  0
  2  3  1  0
  3  4  1  0
  4  5  1  0
  5  6  2  0
  5  7  1  0
  7  8  1  0
  8  9  1  0
  9 10  1  0
 10 11  1  0
 11 12  1  0
 12 13  1  0
 13 14  1  0
 14 15  2  0
 15 16  1  0
 16 17  2  0
 17 18  1  0
 18 19  2  0
  2 20  1  0
 20 21  2  0
 21 22  1  0
 22 23  2  0
 23 24  1  0
 24 25  2  0
 25 26  1  0
 26 27  2  0
 27 28  1  0
 28 29  2  0
 11  7  1  0
 19 14  1  0
 29 20  1  0
 28 23  1  0
  3 30  1  0
  4 31  1  0
  4 32  1  0
  8 33  1  0
  8 34  1  0
  9 35  1  0
  9 36  1  0
 10 37  1  0
 10 38  1  0
 11 39  1  1
 12 40  1  0
 12 41  1  0
 13 42  1  0
 13 43  1  0
 15 44  1  0
 16 45  1  0
 17 46  1  0
 18 47  1  0
 19 48  1  0
 21 49  1  0
 22 50  1  0
 24 51  1  0
 25 52  1  0
 26 53  1  0
 27 54  1  0
M  END
>  <smiles>  (86) 
O=C(NCC(=O)N1CCCC1CCc1ccccc1)c1ccc2ccccc2n1

>  <score_type>  (86) 
oracle

>  <origin>  (86) 
autodockgpu

>  <m_score__min__energy>  (86) 
-9.3699999999999992

>  <m_primary>  (86) 
energy

>  <rmsd>  (86) 
8.545875610694056

>  <m_score__min__rmsd>  (86) 
8.545875610694056

>  <meeko>  (86) 
{"free_energy": -8.57, "intermolecular_energy": -10.66, "internal_energy": -1.94, "cluster_size": 14, "cluster_id": 3, "rank_in_cluster": 6}

>  <energy>  (86) 
-8.64

>  <cluster_rmsd>  (86) 
1.69

>  <cluster>  (86) 
3

$$$$

     RDKit          3D

 54 57  0  0  0  0  0  0  0  0999 V2000
  141.5230   72.1260  221.8740 O   0  0  0  0  0  0  0  0  0  0  0  0
  140.5440   72.2500  222.6830 C   0  0  0  0  0  0  0  0  0  0  0  0
  139.7000   73.3690  222.4560 N   0  0  0  0  0  0  0  0  0  0  0  0
  140.0480   74.2340  221.3390 C   0  0  0  0  0  0  0  0  0  0  0  0
  139.8140   75.6570  221.7550 C   0  0  0  0  0  0  0  0  0  0  0  0
  139.0470   75.8150  222.7280 O   0  0  0  0  0  0  0  0  0  0  0  0
  140.4710   76.6570  221.0230 N   0  0  0  0  0  0  0  0  0  0  0  0
  141.8520   76.5610  220.4530 C   0  0  0  0  0  0  0  0  0  0  0  0
  141.6320   77.1640  219.0510 C   0  0  0  0  0  0  0  0  0  0  0  0
  140.2040   77.7490  219.0870 C   0  0  0  0  0  0  0  0  0  0  0  0
  140.0910   77.9790  220.5630 C   0  0  1  0  0  0  0  0  0  0  0  0
  138.8860   78.5950  221.1030 C   0  0  0  0  0  0  0  0  0  0  0  0
  139.0350   78.8010  222.5910 C   0  0  0  0  0  0  0  0  0  0  0  0
  140.2950   79.5140  222.9260 C   0  0  0  0  0  0  0  0  0  0  0  0
  141.3960   78.8670  223.4570 C   0  0  0  0  0  0  0  0  0  0  0  0
  142.5700   79.5300  223.7690 C   0  0  0  0  0  0  0  0  0  0  0  0
  142.6840   80.8780  223.5590 C   0  0  0  0  0  0  0  0  0  0  0  0
  141.5970   81.5460  223.0300 C   0  0  0  0  0  0  0  0  0  0  0  0
  140.4300   80.8790  222.7210 C   0  0  0  0  0  0  0  0  0  0  0  0
  140.3140   71.3000  223.7660 C   0  0  0  0  0  0  0  0  0  0  0  0
  139.5910   70.1610  223.4800 C   0  0  0  0  0  0  0  0  0  0  0  0
  139.3090   69.1890  224.4190 C   0  0  0  0  0  0  0  0  0  0  0  0
  139.8030   69.4180  225.7080 C   0  0  0  0  0  0  0  0  0  0  0  0
  139.5200   68.4470  226.6380 C   0  0  0  0  0  0  0  0  0  0  0  0
  139.9940   68.6460  227.9210 C   0  0  0  0  0  0  0  0  0  0  0  0
  140.7090   69.7700  228.2130 C   0  0  0  0  0  0  0  0  0  0  0  0
  140.9870   70.7430  227.2540 C   0  0  0  0  0  0  0  0  0  0  0  0
  140.5250   70.5590  225.9860 C   0  0  0  0  0  0  0  0  0  0  0  0
  140.7770   71.4900  225.0200 N   0  0  0  0  0  0  0  0  0  0  0  0
  138.8740   73.5430  223.0750 H   0  0  0  0  0  0  0  0  0  0  0  0
  141.1064   74.0929  221.0748 H   0  0  0  0  0  0  0  0  0  0  0  0
  139.4303   73.9886  220.4625 H   0  0  0  0  0  0  0  0  0  0  0  0
  142.5728   77.1508  221.0382 H   0  0  0  0  0  0  0  0  0  0  0  0
  142.2722   75.5444  220.4494 H   0  0  0  0  0  0  0  0  0  0  0  0
  142.3691   77.9556  218.8506 H   0  0  0  0  0  0  0  0  0  0  0  0
  141.7511   76.4138  218.2553 H   0  0  0  0  0  0  0  0  0  0  0  0
  140.1259   78.6854  218.5151 H   0  0  0  0  0  0  0  0  0  0  0  0
  139.4199   77.1188  218.6419 H   0  0  0  0  0  0  0  0  0  0  0  0
  140.7168   78.7999  220.9433 H   0  0  0  0  0  0  0  0  0  0  0  0
  138.7236   79.5673  220.6149 H   0  0  0  0  0  0  0  0  0  0  0  0
  138.0266   77.9350  220.9137 H   0  0  0  0  0  0  0  0  0  0  0  0
  138.1829   79.3935  222.9555 H   0  0  0  0  0  0  0  0  0  0  0  0
  139.0635   77.8121  223.0719 H   0  0  0  0  0  0  0  0  0  0  0  0
  141.3362   77.7837  223.6383 H   0  0  0  0  0  0  0  0  0  0  0  0
  143.4182   78.9695  224.1890 H   0  0  0  0  0  0  0  0  0  0  0  0
  143.6133   81.4130  223.8042 H   0  0  0  0  0  0  0  0  0  0  0  0
  141.6632   82.6295  222.8519 H   0  0  0  0  0  0  0  0  0  0  0  0
  139.5847   81.4441  222.3012 H   0  0  0  0  0  0  0  0  0  0  0  0
  139.2210   70.0201  222.4537 H   0  0  0  0  0  0  0  0  0  0  0  0
  138.7302   68.2877  224.1686 H   0  0  0  0  0  0  0  0  0  0  0  0
  138.9412   67.5500  226.3729 H   0  0  0  0  0  0  0  0  0  0  0  0
  139.7951   67.8999  228.7044 H   0  0  0  0  0  0  0  0  0  0  0  0
  141.0786   69.9136  229.2390 H   0  0  0  0  0  0  0  0  0  0  0  0
  141.5671   71.6402  227.5158 H   0  0  0  0  0  0  0  0  0  0  0  0
  1  2  2  0
  2  3  1  0
  3  4  1  0
  4  5  1  0
  5  6  2  0
  5  7  1  0
  7  8  1  0
  8  9  1  0
  9 10  1  0
 10 11  1  0
 11 12  1  0
 12 13  1  0
 13 14  1  0
 14 15  2  0
 15 16  1  0
 16 17  2  0
 17 18  1  0
 18 19  2  0
  2 20  1  0
 20 21  2  0
 21 22  1  0
 22 23  2  0
 23 24  1  0
 24 25  2  0
 25 26  1  0
 26 27  2  0
 27 28  1  0
 28 29  2  0
 11  7  1  0
 19 14  1  0
 29 20  1  0
 28 23  1  0
  3 30  1  0
  4 31  1  0
  4 32  1  0
  8 33  1  0
  8 34  1  0
  9 35  1  0
  9 36  1  0
 10 37  1  0
 10 38  1  0
 11 39  1  1
 12 40  1  0
 12 41  1  0
 13 42  1  0
 13 43  1  0
 15 44  1  0
 16 45  1  0
 17 46  1  0
 18 47  1  0
 19 48  1  0
 21 49  1  0
 22 50  1  0
 24 51  1  0
 25 52  1  0
 26 53  1  0
 27 54  1  0
M  END
>  <smiles>  (87) 
O=C(NCC(=O)N1CCCC1CCc1ccccc1)c1ccc2ccccc2n1

>  <score_type>  (87) 
oracle

>  <origin>  (87) 
autodockgpu

>  <m_score__min__energy>  (87) 
-9.3699999999999992

>  <m_primary>  (87) 
energy

>  <rmsd>  (87) 
2.9149185385607708

>  <m_score__min__rmsd>  (87) 
2.9149185385607708

>  <meeko>  (87) 
{"free_energy": -8.67, "intermolecular_energy": -10.76, "internal_energy": -2.03, "cluster_size": 28, "cluster_id": 1, "rank_in_cluster": 14}

>  <energy>  (87) 
-8.6

>  <cluster_rmsd>  (87) 
1.65

>  <cluster>  (87) 
3

$$$$

     RDKit          3D

 54 57  0  0  0  0  0  0  0  0999 V2000
  141.1390   71.4120  221.4890 O   0  0  0  0  0  0  0  0  0  0  0  0
  140.5280   71.9050  222.4950 C   0  0  0  0  0  0  0  0  0  0  0  0
  140.0940   73.2490  222.3510 N   0  0  0  0  0  0  0  0  0  0  0  0
  140.3960   73.9000  221.0860 C   0  0  0  0  0  0  0  0  0  0  0  0
  140.5700   75.3690  221.3420 C   0  0  0  0  0  0  0  0  0  0  0  0
  139.9670   75.8170  222.3400 O   0  0  0  0  0  0  0  0  0  0  0  0
  141.3810   76.0860  220.4510 N   0  0  0  0  0  0  0  0  0  0  0  0
  142.7270   75.6570  219.9530 C   0  0  0  0  0  0  0  0  0  0  0  0
  142.6070   76.0010  218.4540 C   0  0  0  0  0  0  0  0  0  0  0  0
  141.2940   76.8060  218.3330 C   0  0  0  0  0  0  0  0  0  0  0  0
  141.2240   77.3360  219.7320 C   0  0  1  0  0  0  0  0  0  0  0  0
  140.1380   78.2330  220.1050 C   0  0  0  0  0  0  0  0  0  0  0  0
  140.6710   79.6320  220.3040 C   0  0  0  0  0  0  0  0  0  0  0  0
  141.3060   79.7950  221.6380 C   0  0  0  0  0  0  0  0  0  0  0  0
  141.9830   80.9450  222.0020 C   0  0  0  0  0  0  0  0  0  0  0  0
  142.5740   81.0990  223.2440 C   0  0  0  0  0  0  0  0  0  0  0  0
  142.5080   80.0970  224.1740 C   0  0  0  0  0  0  0  0  0  0  0  0
  141.8380   78.9380  223.8330 C   0  0  0  0  0  0  0  0  0  0  0  0
  141.2510   78.7920  222.5930 C   0  0  0  0  0  0  0  0  0  0  0  0
  140.2940   71.1300  223.7090 C   0  0  0  0  0  0  0  0  0  0  0  0
  139.5640   69.9650  223.5960 C   0  0  0  0  0  0  0  0  0  0  0  0
  139.2770   69.1460  224.6710 C   0  0  0  0  0  0  0  0  0  0  0  0
  139.7740   69.5630  225.9120 C   0  0  0  0  0  0  0  0  0  0  0  0
  139.4850   68.7450  226.9770 C   0  0  0  0  0  0  0  0  0  0  0  0
  139.9630   69.1310  228.2150 C   0  0  0  0  0  0  0  0  0  0  0  0
  140.6850   70.2820  228.3340 C   0  0  0  0  0  0  0  0  0  0  0  0
  140.9670   71.0980  227.2410 C   0  0  0  0  0  0  0  0  0  0  0  0
  140.5030   70.7280  226.0140 C   0  0  0  0  0  0  0  0  0  0  0  0
  140.7590   71.5030  224.9200 N   0  0  0  0  0  0  0  0  0  0  0  0
  139.5850   73.7270  223.1310 H   0  0  0  0  0  0  0  0  0  0  0  0
  141.3230   73.4833  220.6652 H   0  0  0  0  0  0  0  0  0  0  0  0
  139.5780   73.7343  220.3695 H   0  0  0  0  0  0  0  0  0  0  0  0
  143.5363   76.2253  220.4347 H   0  0  0  0  0  0  0  0  0  0  0  0
  142.9737   74.6051  220.1594 H   0  0  0  0  0  0  0  0  0  0  0  0
  143.4642   76.6077  218.1266 H   0  0  0  0  0  0  0  0  0  0  0  0
  142.5994   75.1004  217.8225 H   0  0  0  0  0  0  0  0  0  0  0  0
  141.3700   77.6121  217.5884 H   0  0  0  0  0  0  0  0  0  0  0  0
  140.4157   76.2364  217.9951 H   0  0  0  0  0  0  0  0  0  0  0  0
  141.9780   78.1023  219.9650 H   0  0  0  0  0  0  0  0  0  0  0  0
  139.3814   78.2413  219.3065 H   0  0  0  0  0  0  0  0  0  0  0  0
  139.6848   77.8816  221.0437 H   0  0  0  0  0  0  0  0  0  0  0  0
  141.4189   79.8424  219.5253 H   0  0  0  0  0  0  0  0  0  0  0  0
  139.8257   80.3329  220.2392 H   0  0  0  0  0  0  0  0  0  0  0  0
  142.0544   81.7687  221.2765 H   0  0  0  0  0  0  0  0  0  0  0  0
  143.1008   82.0339  223.4855 H   0  0  0  0  0  0  0  0  0  0  0  0
  142.9746   80.2112  225.1636 H   0  0  0  0  0  0  0  0  0  0  0  0
  141.7714   78.1175  224.5626 H   0  0  0  0  0  0  0  0  0  0  0  0
  140.7256   77.8551  222.3561 H   0  0  0  0  0  0  0  0  0  0  0  0
  139.1926   69.6741  222.6023 H   0  0  0  0  0  0  0  0  0  0  0  0
  138.6925   68.2209  224.5587 H   0  0  0  0  0  0  0  0  0  0  0  0
  138.8987   67.8230  226.8501 H   0  0  0  0  0  0  0  0  0  0  0  0
  139.7618   68.5118  229.1016 H   0  0  0  0  0  0  0  0  0  0  0  0
  141.0571   70.5757  229.3266 H   0  0  0  0  0  0  0  0  0  0  0  0
  141.5517   72.0214  227.3654 H   0  0  0  0  0  0  0  0  0  0  0  0
  1  2  2  0
  2  3  1  0
  3  4  1  0
  4  5  1  0
  5  6  2  0
  5  7  1  0
  7  8  1  0
  8  9  1  0
  9 10  1  0
 10 11  1  0
 11 12  1  0
 12 13  1  0
 13 14  1  0
 14 15  2  0
 15 16  1  0
 16 17  2  0
 17 18  1  0
 18 19  2  0
  2 20  1  0
 20 21  2  0
 21 22  1  0
 22 23  2  0
 23 24  1  0
 24 25  2  0
 25 26  1  0
 26 27  2  0
 27 28  1  0
 28 29  2  0
 11  7  1  0
 19 14  1  0
 29 20  1  0
 28 23  1  0
  3 30  1  0
  4 31  1  0
  4 32  1  0
  8 33  1  0
  8 34  1  0
  9 35  1  0
  9 36  1  0
 10 37  1  0
 10 38  1  0
 11 39  1  1
 12 40  1  0
 12 41  1  0
 13 42  1  0
 13 43  1  0
 15 44  1  0
 16 45  1  0
 17 46  1  0
 18 47  1  0
 19 48  1  0
 21 49  1  0
 22 50  1  0
 24 51  1  0
 25 52  1  0
 26 53  1  0
 27 54  1  0
M  END
>  <smiles>  (88) 
O=C(NCC(=O)N1CCCC1CCc1ccccc1)c1ccc2ccccc2n1

>  <score_type>  (88) 
oracle

>  <origin>  (88) 
autodockgpu

>  <m_score__min__energy>  (88) 
-9.3699999999999992

>  <m_primary>  (88) 
energy

>  <rmsd>  (88) 
2.5071454852902053

>  <m_score__min__rmsd>  (88) 
2.5071454852902053

>  <meeko>  (88) 
{"free_energy": -8.82, "intermolecular_energy": -10.9, "internal_energy": -1.99, "cluster_size": 28, "cluster_id": 1, "rank_in_cluster": 9}

>  <energy>  (88) 
-8.6

>  <cluster_rmsd>  (88) 
1.66

>  <cluster>  (88) 
3

$$$$

     RDKit          3D

 54 57  0  0  0  0  0  0  0  0999 V2000
  140.6720   71.5490  221.4220 O   0  0  0  0  0  0  0  0  0  0  0  0
  140.0690   72.0130  222.4470 C   0  0  0  0  0  0  0  0  0  0  0  0
  139.3870   73.2430  222.2520 N   0  0  0  0  0  0  0  0  0  0  0  0
  139.4560   73.8240  220.9200 C   0  0  0  0  0  0  0  0  0  0  0  0
  140.6440   74.7390  220.8680 C   0  0  0  0  0  0  0  0  0  0  0  0
  141.0540   75.1550  221.9720 O   0  0  0  0  0  0  0  0  0  0  0  0
  141.1730   75.0340  219.6030 N   0  0  0  0  0  0  0  0  0  0  0  0
  141.0250   74.1910  218.3740 C   0  0  0  0  0  0  0  0  0  0  0  0
  140.7070   75.2690  217.3180 C   0  0  0  0  0  0  0  0  0  0  0  0
  140.9510   76.6150  218.0340 C   0  0  0  0  0  0  0  0  0  0  0  0
  141.9320   76.1470  219.0650 C   0  0  1  0  0  0  0  0  0  0  0  0
  142.5190   77.1110  219.9860 C   0  0  0  0  0  0  0  0  0  0  0  0
  141.6190   78.3170  220.1130 C   0  0  0  0  0  0  0  0  0  0  0  0
  141.7550   78.9690  221.4410 C   0  0  0  0  0  0  0  0  0  0  0  0
  141.4410   78.3210  222.6230 C   0  0  0  0  0  0  0  0  0  0  0  0
  141.5680   78.9260  223.8600 C   0  0  0  0  0  0  0  0  0  0  0  0
  142.0160   80.2160  223.9600 C   0  0  0  0  0  0  0  0  0  0  0  0
  142.3340   80.8850  222.7940 C   0  0  0  0  0  0  0  0  0  0  0  0
  142.2060   80.2740  221.5640 C   0  0  0  0  0  0  0  0  0  0  0  0
  140.0850   71.3180  223.7300 C   0  0  0  0  0  0  0  0  0  0  0  0
  139.5580   70.0440  223.7760 C   0  0  0  0  0  0  0  0  0  0  0  0
  139.5160   69.2850  224.9300 C   0  0  0  0  0  0  0  0  0  0  0  0
  140.0460   69.8830  226.0790 C   0  0  0  0  0  0  0  0  0  0  0  0
  140.0010   69.1240  227.2230 C   0  0  0  0  0  0  0  0  0  0  0  0
  140.5180   69.6890  228.3740 C   0  0  0  0  0  0  0  0  0  0  0  0
  141.0390   70.9480  228.3360 C   0  0  0  0  0  0  0  0  0  0  0  0
  141.0760   71.7020  227.1640 C   0  0  0  0  0  0  0  0  0  0  0  0
  140.5700   71.1570  226.0230 C   0  0  0  0  0  0  0  0  0  0  0  0
  140.5880   71.8650  224.8560 N   0  0  0  0  0  0  0  0  0  0  0  0
  138.8670   73.6900  223.0430 H   0  0  0  0  0  0  0  0  0  0  0  0
  139.5676   73.0260  220.1711 H   0  0  0  0  0  0  0  0  0  0  0  0
  138.5350   74.3847  220.7021 H   0  0  0  0  0  0  0  0  0  0  0  0
  141.9557   73.6547  218.1369 H   0  0  0  0  0  0  0  0  0  0  0  0
  140.2678   73.3973  218.4556 H   0  0  0  0  0  0  0  0  0  0  0  0
  141.3735   75.1671  216.4489 H   0  0  0  0  0  0  0  0  0  0  0  0
  139.6782   75.1840  216.9380 H   0  0  0  0  0  0  0  0  0  0  0  0
  141.3856   77.3690  217.3612 H   0  0  0  0  0  0  0  0  0  0  0  0
  140.0532   77.1170  218.4237 H   0  0  0  0  0  0  0  0  0  0  0  0
  142.9213   75.8829  218.6631 H   0  0  0  0  0  0  0  0  0  0  0  0
  142.6425   76.6428  220.9737 H   0  0  0  0  0  0  0  0  0  0  0  0
  143.4983   77.4299  219.5996 H   0  0  0  0  0  0  0  0  0  0  0  0
  141.8844   79.0434  219.3308 H   0  0  0  0  0  0  0  0  0  0  0  0
  140.5778   77.9800  220.0024 H   0  0  0  0  0  0  0  0  0  0  0  0
  141.0762   77.2843  222.5766 H   0  0  0  0  0  0  0  0  0  0  0  0
  141.3071   78.3667  224.7705 H   0  0  0  0  0  0  0  0  0  0  0  0
  142.1196   80.7051  224.9398 H   0  0  0  0  0  0  0  0  0  0  0  0
  142.6954   81.9226  222.8473 H   0  0  0  0  0  0  0  0  0  0  0  0
  142.4688   80.8373  220.6565 H   0  0  0  0  0  0  0  0  0  0  0  0
  139.1517   69.6116  222.8497 H   0  0  0  0  0  0  0  0  0  0  0  0
  139.0910   68.2705  224.9447 H   0  0  0  0  0  0  0  0  0  0  0  0
  139.5724   68.1110  227.2233 H   0  0  0  0  0  0  0  0  0  0  0  0
  140.5089   69.1241  229.3178 H   0  0  0  0  0  0  0  0  0  0  0  0
  141.4439   71.3838  229.2613 H   0  0  0  0  0  0  0  0  0  0  0  0
  141.5045   72.7151  227.1608 H   0  0  0  0  0  0  0  0  0  0  0  0
  1  2  2  0
  2  3  1  0
  3  4  1  0
  4  5  1  0
  5  6  2  0
  5  7  1  0
  7  8  1  0
  8  9  1  0
  9 10  1  0
 10 11  1  0
 11 12  1  0
 12 13  1  0
 13 14  1  0
 14 15  2  0
 15 16  1  0
 16 17  2  0
 17 18  1  0
 18 19  2  0
  2 20  1  0
 20 21  2  0
 21 22  1  0
 22 23  2  0
 23 24  1  0
 24 25  2  0
 25 26  1  0
 26 27  2  0
 27 28  1  0
 28 29  2  0
 11  7  1  0
 19 14  1  0
 29 20  1  0
 28 23  1  0
  3 30  1  0
  4 31  1  0
  4 32  1  0
  8 33  1  0
  8 34  1  0
  9 35  1  0
  9 36  1  0
 10 37  1  0
 10 38  1  0
 11 39  1  6
 12 40  1  0
 12 41  1  0
 13 42  1  0
 13 43  1  0
 15 44  1  0
 16 45  1  0
 17 46  1  0
 18 47  1  0
 19 48  1  0
 21 49  1  0
 22 50  1  0
 24 51  1  0
 25 52  1  0
 26 53  1  0
 27 54  1  0
M  END
>  <smiles>  (89) 
O=C(NCC(=O)N1CCCC1CCc1ccccc1)c1ccc2ccccc2n1

>  <score_type>  (89) 
oracle

>  <origin>  (89) 
autodockgpu

>  <m_score__min__energy>  (89) 
-9.3699999999999992

>  <m_primary>  (89) 
energy

>  <rmsd>  (89) 
2.044255700996617

>  <m_score__min__rmsd>  (89) 
2.044255700996617

>  <meeko>  (89) 
{"free_energy": -8.78, "intermolecular_energy": -10.86, "internal_energy": -1.57, "cluster_size": 28, "cluster_id": 1, "rank_in_cluster": 11}

>  <energy>  (89) 
-8.57

>  <cluster_rmsd>  (89) 
1.66

>  <cluster>  (89) 
3

$$$$

     RDKit          3D

 54 57  0  0  0  0  0  0  0  0999 V2000
  138.9500   70.9140  221.4650 O   0  0  0  0  0  0  0  0  0  0  0  0
  139.0980   71.6580  222.4920 C   0  0  0  0  0  0  0  0  0  0  0  0
  138.8510   73.0410  222.2870 N   0  0  0  0  0  0  0  0  0  0  0  0
  138.4640   73.4440  220.9440 C   0  0  0  0  0  0  0  0  0  0  0  0
  139.6950   73.4610  220.0850 C   0  0  0  0  0  0  0  0  0  0  0  0
  139.5140   73.1970  218.8780 O   0  0  0  0  0  0  0  0  0  0  0  0
  140.9110   73.7670  220.7120 N   0  0  0  0  0  0  0  0  0  0  0  0
  142.0510   72.8190  220.9230 C   0  0  0  0  0  0  0  0  0  0  0  0
  143.2480   73.7100  220.5330 C   0  0  0  0  0  0  0  0  0  0  0  0
  142.6580   75.1290  220.3810 C   0  0  0  0  0  0  0  0  0  0  0  0
  141.4710   74.9770  221.2830 C   0  0  1  0  0  0  0  0  0  0  0  0
  140.5960   76.1190  221.5150 C   0  0  0  0  0  0  0  0  0  0  0  0
  141.1840   77.3560  220.8780 C   0  0  0  0  0  0  0  0  0  0  0  0
  141.5260   78.3870  221.8910 C   0  0  0  0  0  0  0  0  0  0  0  0
  141.9360   79.6620  221.5440 C   0  0  0  0  0  0  0  0  0  0  0  0
  142.2540   80.6240  222.4870 C   0  0  0  0  0  0  0  0  0  0  0  0
  142.1760   80.3400  223.8230 C   0  0  0  0  0  0  0  0  0  0  0  0
  141.7700   79.0730  224.1950 C   0  0  0  0  0  0  0  0  0  0  0  0
  141.4540   78.1200  223.2500 C   0  0  0  0  0  0  0  0  0  0  0  0
  139.4930   71.1130  223.7860 C   0  0  0  0  0  0  0  0  0  0  0  0
  139.2400   69.7790  224.0260 C   0  0  0  0  0  0  0  0  0  0  0  0
  139.5680   69.1490  225.2110 C   0  0  0  0  0  0  0  0  0  0  0  0
  140.1830   69.9470  226.1820 C   0  0  0  0  0  0  0  0  0  0  0  0
  140.5060   69.3150  227.3580 C   0  0  0  0  0  0  0  0  0  0  0  0
  141.1150   70.0780  228.3370 C   0  0  0  0  0  0  0  0  0  0  0  0
  141.3670   71.3990  228.1070 C   0  0  0  0  0  0  0  0  0  0  0  0
  141.0320   72.0210  226.9070 C   0  0  0  0  0  0  0  0  0  0  0  0
  140.4310   71.2790  225.9340 C   0  0  0  0  0  0  0  0  0  0  0  0
  140.0880   71.8550  224.7440 N   0  0  0  0  0  0  0  0  0  0  0  0
  138.9500   73.7190  223.0790 H   0  0  0  0  0  0  0  0  0  0  0  0
  137.7354   72.7280  220.5360 H   0  0  0  0  0  0  0  0  0  0  0  0
  138.0026   74.4423  220.9656 H   0  0  0  0  0  0  0  0  0  0  0  0
  142.1155   72.4912  221.9710 H   0  0  0  0  0  0  0  0  0  0  0  0
  141.9756   71.8832  220.3498 H   0  0  0  0  0  0  0  0  0  0  0  0
  144.0155   73.6929  221.3208 H   0  0  0  0  0  0  0  0  0  0  0  0
  143.7363   73.3647  219.6098 H   0  0  0  0  0  0  0  0  0  0  0  0
  143.3511   75.9058  220.7362 H   0  0  0  0  0  0  0  0  0  0  0  0
  142.4365   75.4452  219.3510 H   0  0  0  0  0  0  0  0  0  0  0  0
  141.7196   74.9120  222.3526 H   0  0  0  0  0  0  0  0  0  0  0  0
  139.6083   75.9168  221.0751 H   0  0  0  0  0  0  0  0  0  0  0  0
  140.4947   76.2830  222.5980 H   0  0  0  0  0  0  0  0  0  0  0  0
  142.0971   77.0760  220.3323 H   0  0  0  0  0  0  0  0  0  0  0  0
  140.4319   77.7811  220.1971 H   0  0  0  0  0  0  0  0  0  0  0  0
  142.0122   79.9212  220.4777 H   0  0  0  0  0  0  0  0  0  0  0  0
  142.5720   81.6249  222.1596 H   0  0  0  0  0  0  0  0  0  0  0  0
  142.4291   81.0982  224.5787 H   0  0  0  0  0  0  0  0  0  0  0  0
  141.6976   78.8202  225.2631 H   0  0  0  0  0  0  0  0  0  0  0  0
  141.1362   77.1209  223.5830 H   0  0  0  0  0  0  0  0  0  0  0  0
  138.7536   69.1880  223.2360 H   0  0  0  0  0  0  0  0  0  0  0  0
  139.3580   68.0827  225.3812 H   0  0  0  0  0  0  0  0  0  0  0  0
  140.2895   68.2479  227.5141 H   0  0  0  0  0  0  0  0  0  0  0  0
  141.3953   69.6217  229.2978 H   0  0  0  0  0  0  0  0  0  0  0  0
  141.8512   71.9928  228.8962 H   0  0  0  0  0  0  0  0  0  0  0  0
  141.2476   73.0878  226.7476 H   0  0  0  0  0  0  0  0  0  0  0  0
  1  2  2  0
  2  3  1  0
  3  4  1  0
  4  5  1  0
  5  6  2  0
  5  7  1  0
  7  8  1  0
  8  9  1  0
  9 10  1  0
 10 11  1  0
 11 12  1  0
 12 13  1  0
 13 14  1  0
 14 15  2  0
 15 16  1  0
 16 17  2  0
 17 18  1  0
 18 19  2  0
  2 20  1  0
 20 21  2  0
 21 22  1  0
 22 23  2  0
 23 24  1  0
 24 25  2  0
 25 26  1  0
 26 27  2  0
 27 28  1  0
 28 29  2  0
 11  7  1  0
 19 14  1  0
 29 20  1  0
 28 23  1  0
  3 30  1  0
  4 31  1  0
  4 32  1  0
  8 33  1  0
  8 34  1  0
  9 35  1  0
  9 36  1  0
 10 37  1  0
 10 38  1  0
 11 39  1  1
 12 40  1  0
 12 41  1  0
 13 42  1  0
 13 43  1  0
 15 44  1  0
 16 45  1  0
 17 46  1  0
 18 47  1  0
 19 48  1  0
 21 49  1  0
 22 50  1  0
 24 51  1  0
 25 52  1  0
 26 53  1  0
 27 54  1  0
M  END
>  <smiles>  (90) 
O=C(NCC(=O)N1CCCC1CCc1ccccc1)c1ccc2ccccc2n1

>  <score_type>  (90) 
oracle

>  <origin>  (90) 
autodockgpu

>  <m_score__min__energy>  (90) 
-9.3699999999999992

>  <m_primary>  (90) 
energy

>  <rmsd>  (90) 
2.5587924594675964

>  <m_score__min__rmsd>  (90) 
2.5587924594675964

>  <meeko>  (90) 
{"free_energy": -8.6, "intermolecular_energy": -10.69, "internal_energy": -1.77, "cluster_size": 28, "cluster_id": 1, "rank_in_cluster": 18}

>  <energy>  (90) 
-8.53

>  <cluster_rmsd>  (90) 
1.69

>  <cluster>  (90) 
3

$$$$

     RDKit          3D

 54 57  0  0  0  0  0  0  0  0999 V2000
  141.0900   71.7090  221.4700 O   0  0  0  0  0  0  0  0  0  0  0  0
  140.4930   72.2050  222.4840 C   0  0  0  0  0  0  0  0  0  0  0  0
  140.0560   73.5480  222.3420 N   0  0  0  0  0  0  0  0  0  0  0  0
  140.3380   74.1950  221.0710 C   0  0  0  0  0  0  0  0  0  0  0  0
  140.7770   75.6040  221.3470 C   0  0  0  0  0  0  0  0  0  0  0  0
  140.3150   76.1180  222.3870 O   0  0  0  0  0  0  0  0  0  0  0  0
  141.6510   76.1980  220.4240 N   0  0  0  0  0  0  0  0  0  0  0  0
  143.0230   75.7090  220.0780 C   0  0  0  0  0  0  0  0  0  0  0  0
  143.0050   75.8520  218.5430 C   0  0  0  0  0  0  0  0  0  0  0  0
  141.7100   76.6310  218.2290 C   0  0  0  0  0  0  0  0  0  0  0  0
  141.5510   77.3420  219.5390 C   0  0  1  0  0  0  0  0  0  0  0  0
  140.4490   78.2790  219.7170 C   0  0  0  0  0  0  0  0  0  0  0  0
  140.9870   79.6430  220.0760 C   0  0  0  0  0  0  0  0  0  0  0  0
  141.4240   79.7070  221.4950 C   0  0  0  0  0  0  0  0  0  0  0  0
  142.5230   80.4430  221.9030 C   0  0  0  0  0  0  0  0  0  0  0  0
  142.9300   80.5030  223.2240 C   0  0  0  0  0  0  0  0  0  0  0  0
  142.2460   79.8210  224.1930 C   0  0  0  0  0  0  0  0  0  0  0  0
  141.1460   79.0780  223.8110 C   0  0  0  0  0  0  0  0  0  0  0  0
  140.7460   79.0230  222.4930 C   0  0  0  0  0  0  0  0  0  0  0  0
  140.2790   71.4330  223.7040 C   0  0  0  0  0  0  0  0  0  0  0  0
  139.6190   70.2270  223.5930 C   0  0  0  0  0  0  0  0  0  0  0  0
  139.3570   69.4070  224.6740 C   0  0  0  0  0  0  0  0  0  0  0  0
  139.8020   69.8690  225.9180 C   0  0  0  0  0  0  0  0  0  0  0  0
  139.5390   69.0490  226.9880 C   0  0  0  0  0  0  0  0  0  0  0  0
  139.9660   69.4790  228.2310 C   0  0  0  0  0  0  0  0  0  0  0  0
  140.6180   70.6710  228.3480 C   0  0  0  0  0  0  0  0  0  0  0  0
  140.8760   71.4880  227.2490 C   0  0  0  0  0  0  0  0  0  0  0  0
  140.4600   71.0750  226.0190 C   0  0  0  0  0  0  0  0  0  0  0  0
  140.6950   71.8490  224.9190 N   0  0  0  0  0  0  0  0  0  0  0  0
  139.5580   74.0280  223.1280 H   0  0  0  0  0  0  0  0  0  0  0  0
  141.1381   73.6520  220.5466 H   0  0  0  0  0  0  0  0  0  0  0  0
  139.4385   74.1952  220.4378 H   0  0  0  0  0  0  0  0  0  0  0  0
  143.8029   76.3369  220.5335 H   0  0  0  0  0  0  0  0  0  0  0  0
  143.2476   74.6939  220.4372 H   0  0  0  0  0  0  0  0  0  0  0  0
  143.8864   76.4116  218.1966 H   0  0  0  0  0  0  0  0  0  0  0  0
  143.0327   74.8757  218.0369 H   0  0  0  0  0  0  0  0  0  0  0  0
  141.8413   77.3315  217.3911 H   0  0  0  0  0  0  0  0  0  0  0  0
  140.8520   76.0204  217.9112 H   0  0  0  0  0  0  0  0  0  0  0  0
  142.2927   78.1340  219.7195 H   0  0  0  0  0  0  0  0  0  0  0  0
  139.8744   78.3482  218.7815 H   0  0  0  0  0  0  0  0  0  0  0  0
  139.7975   77.9218  220.5281 H   0  0  0  0  0  0  0  0  0  0  0  0
  141.8467   79.8687  219.4280 H   0  0  0  0  0  0  0  0  0  0  0  0
  140.1808   80.3775  219.9327 H   0  0  0  0  0  0  0  0  0  0  0  0
  143.0950   81.0019  221.1477 H   0  0  0  0  0  0  0  0  0  0  0  0
  143.8101   81.1036  223.4973 H   0  0  0  0  0  0  0  0  0  0  0  0
  142.5628   79.8631  225.2455 H   0  0  0  0  0  0  0  0  0  0  0  0
  140.5795   78.5207  224.5716 H   0  0  0  0  0  0  0  0  0  0  0  0
  139.8654   78.4204  222.2256 H   0  0  0  0  0  0  0  0  0  0  0  0
  139.2853   69.9024  222.5964 H   0  0  0  0  0  0  0  0  0  0  0  0
  138.8299   68.4479  224.5634 H   0  0  0  0  0  0  0  0  0  0  0  0
  139.0117   68.0919  226.8617 H   0  0  0  0  0  0  0  0  0  0  0  0
  139.7804   68.8617  229.1223 H   0  0  0  0  0  0  0  0  0  0  0  0
  140.9516   70.9987  229.3437 H   0  0  0  0  0  0  0  0  0  0  0  0
  141.4039   72.4452  227.3718 H   0  0  0  0  0  0  0  0  0  0  0  0
  1  2  2  0
  2  3  1  0
  3  4  1  0
  4  5  1  0
  5  6  2  0
  5  7  1  0
  7  8  1  0
  8  9  1  0
  9 10  1  0
 10 11  1  0
 11 12  1  0
 12 13  1  0
 13 14  1  0
 14 15  2  0
 15 16  1  0
 16 17  2  0
 17 18  1  0
 18 19  2  0
  2 20  1  0
 20 21  2  0
 21 22  1  0
 22 23  2  0
 23 24  1  0
 24 25  2  0
 25 26  1  0
 26 27  2  0
 27 28  1  0
 28 29  2  0
 11  7  1  0
 19 14  1  0
 29 20  1  0
 28 23  1  0
  3 30  1  0
  4 31  1  0
  4 32  1  0
  8 33  1  0
  8 34  1  0
  9 35  1  0
  9 36  1  0
 10 37  1  0
 10 38  1  0
 11 39  1  1
 12 40  1  0
 12 41  1  0
 13 42  1  0
 13 43  1  0
 15 44  1  0
 16 45  1  0
 17 46  1  0
 18 47  1  0
 19 48  1  0
 21 49  1  0
 22 50  1  0
 24 51  1  0
 25 52  1  0
 26 53  1  0
 27 54  1  0
M  END
>  <smiles>  (91) 
O=C(NCC(=O)N1CCCC1CCc1ccccc1)c1ccc2ccccc2n1

>  <score_type>  (91) 
oracle

>  <origin>  (91) 
autodockgpu

>  <m_score__min__energy>  (91) 
-9.3699999999999992

>  <m_primary>  (91) 
energy

>  <rmsd>  (91) 
2.558010374763613

>  <m_score__min__rmsd>  (91) 
2.558010374763613

>  <meeko>  (91) 
{"free_energy": -8.87, "intermolecular_energy": -10.96, "internal_energy": -2.02, "cluster_size": 28, "cluster_id": 1, "rank_in_cluster": 6}

>  <energy>  (91) 
-8.47

>  <cluster_rmsd>  (91) 
1.81

>  <cluster>  (91) 
3

$$$$

     RDKit          3D

 54 57  0  0  0  0  0  0  0  0999 V2000
  138.2250   76.1910  220.6090 O   0  0  0  0  0  0  0  0  0  0  0  0
  138.8920   76.2120  221.6970 C   0  0  0  0  0  0  0  0  0  0  0  0
  139.0520   74.9580  222.3420 N   0  0  0  0  0  0  0  0  0  0  0  0
  138.4410   73.8080  221.6940 C   0  0  0  0  0  0  0  0  0  0  0  0
  139.1000   72.5660  222.2210 C   0  0  0  0  0  0  0  0  0  0  0  0
  140.1870   72.7420  222.8110 O   0  0  0  0  0  0  0  0  0  0  0  0
  138.4420   71.3470  222.0030 N   0  0  0  0  0  0  0  0  0  0  0  0
  137.8030   70.9140  220.7190 C   0  0  0  0  0  0  0  0  0  0  0  0
  138.2850   69.4510  220.6330 C   0  0  0  0  0  0  0  0  0  0  0  0
  138.9390   69.1640  222.0020 C   0  0  0  0  0  0  0  0  0  0  0  0
  138.1980   70.1760  222.8220 C   0  0  1  0  0  0  0  0  0  0  0  0
  138.4440   70.2540  224.2570 C   0  0  0  0  0  0  0  0  0  0  0  0
  139.9090   70.0270  224.5420 C   0  0  0  0  0  0  0  0  0  0  0  0
  140.3060   70.5870  225.8600 C   0  0  0  0  0  0  0  0  0  0  0  0
  139.9630   69.9840  227.0570 C   0  0  0  0  0  0  0  0  0  0  0  0
  140.3330   70.5040  228.2850 C   0  0  0  0  0  0  0  0  0  0  0  0
  141.0660   71.6580  228.3580 C   0  0  0  0  0  0  0  0  0  0  0  0
  141.4200   72.2790  227.1770 C   0  0  0  0  0  0  0  0  0  0  0  0
  141.0480   71.7540  225.9570 C   0  0  0  0  0  0  0  0  0  0  0  0
  139.4510   77.4480  222.2330 C   0  0  0  0  0  0  0  0  0  0  0  0
  138.5710   78.4070  222.6900 C   0  0  0  0  0  0  0  0  0  0  0  0
  138.9770   79.6160  223.2190 C   0  0  0  0  0  0  0  0  0  0  0  0
  140.3590   79.8300  223.2720 C   0  0  0  0  0  0  0  0  0  0  0  0
  140.7580   81.0340  223.7990 C   0  0  0  0  0  0  0  0  0  0  0  0
  142.1180   81.2750  223.8650 C   0  0  0  0  0  0  0  0  0  0  0  0
  142.9950   80.3320  223.4140 C   0  0  0  0  0  0  0  0  0  0  0  0
  142.5700   79.1160  222.8830 C   0  0  0  0  0  0  0  0  0  0  0  0
  141.2320   78.8670  222.8130 C   0  0  0  0  0  0  0  0  0  0  0  0
  140.7780   77.6870  222.2990 N   0  0  0  0  0  0  0  0  0  0  0  0
  139.5870   74.8890  223.2400 H   0  0  0  0  0  0  0  0  0  0  0  0
  137.3646   73.7823  221.9192 H   0  0  0  0  0  0  0  0  0  0  0  0
  138.5712   73.8732  220.6037 H   0  0  0  0  0  0  0  0  0  0  0  0
  136.7060   70.9760  220.7720 H   0  0  0  0  0  0  0  0  0  0  0  0
  138.0677   71.5319  219.8483 H   0  0  0  0  0  0  0  0  0  0  0  0
  137.4356   68.7737  220.4608 H   0  0  0  0  0  0  0  0  0  0  0  0
  138.9860   69.2955  219.7997 H   0  0  0  0  0  0  0  0  0  0  0  0
  138.7499   68.1357  222.3437 H   0  0  0  0  0  0  0  0  0  0  0  0
  140.0361   69.2382  222.0310 H   0  0  0  0  0  0  0  0  0  0  0  0
  137.1364   69.9386  222.9854 H   0  0  0  0  0  0  0  0  0  0  0  0
  138.1514   71.2491  224.6233 H   0  0  0  0  0  0  0  0  0  0  0  0
  137.8523   69.4800  224.7677 H   0  0  0  0  0  0  0  0  0  0  0  0
  140.1092   68.9454  224.5394 H   0  0  0  0  0  0  0  0  0  0  0  0
  140.4931   70.5380  223.7625 H   0  0  0  0  0  0  0  0  0  0  0  0
  139.3736   69.0556  227.0317 H   0  0  0  0  0  0  0  0  0  0  0  0
  140.0360   69.9864  229.2091 H   0  0  0  0  0  0  0  0  0  0  0  0
  141.3643   72.0783  229.3298 H   0  0  0  0  0  0  0  0  0  0  0  0
  142.0084   73.2078  227.2095 H   0  0  0  0  0  0  0  0  0  0  0  0
  141.3482   72.2754  225.0361 H   0  0  0  0  0  0  0  0  0  0  0  0
  137.4927   78.1982  222.6300 H   0  0  0  0  0  0  0  0  0  0  0  0
  138.2570   80.3664  223.5775 H   0  0  0  0  0  0  0  0  0  0  0  0
  140.0266   81.7752  224.1535 H   0  0  0  0  0  0  0  0  0  0  0  0
  142.4914   82.2231  224.2794 H   0  0  0  0  0  0  0  0  0  0  0  0
  144.0739   80.5388  223.4716 H   0  0  0  0  0  0  0  0  0  0  0  0
  143.2990   78.3727  222.5278 H   0  0  0  0  0  0  0  0  0  0  0  0
  1  2  2  0
  2  3  1  0
  3  4  1  0
  4  5  1  0
  5  6  2  0
  5  7  1  0
  7  8  1  0
  8  9  1  0
  9 10  1  0
 10 11  1  0
 11 12  1  0
 12 13  1  0
 13 14  1  0
 14 15  2  0
 15 16  1  0
 16 17  2  0
 17 18  1  0
 18 19  2  0
  2 20  1  0
 20 21  2  0
 21 22  1  0
 22 23  2  0
 23 24  1  0
 24 25  2  0
 25 26  1  0
 26 27  2  0
 27 28  1  0
 28 29  2  0
 11  7  1  0
 19 14  1  0
 29 20  1  0
 28 23  1  0
  3 30  1  0
  4 31  1  0
  4 32  1  0
  8 33  1  0
  8 34  1  0
  9 35  1  0
  9 36  1  0
 10 37  1  0
 10 38  1  0
 11 39  1  1
 12 40  1  0
 12 41  1  0
 13 42  1  0
 13 43  1  0
 15 44  1  0
 16 45  1  0
 17 46  1  0
 18 47  1  0
 19 48  1  0
 21 49  1  0
 22 50  1  0
 24 51  1  0
 25 52  1  0
 26 53  1  0
 27 54  1  0
M  END
>  <smiles>  (92) 
O=C(NCC(=O)N1CCCC1CCc1ccccc1)c1ccc2ccccc2n1

>  <score_type>  (92) 
oracle

>  <origin>  (92) 
autodockgpu

>  <m_score__min__energy>  (92) 
-9.3699999999999992

>  <m_primary>  (92) 
energy

>  <rmsd>  (92) 
8.441695614561452

>  <m_score__min__rmsd>  (92) 
8.441695614561452

>  <meeko>  (92) 
{"free_energy": -8.8, "intermolecular_energy": -10.89, "internal_energy": -1.86, "cluster_size": 14, "cluster_id": 3, "rank_in_cluster": 2}

>  <energy>  (92) 
-8.42

>  <cluster_rmsd>  (92) 
0.42

>  <cluster>  (92) 
3

$$$$

     RDKit          3D

 54 57  0  0  0  0  0  0  0  0999 V2000
  141.2750   73.9380  220.5360 O   0  0  0  0  0  0  0  0  0  0  0  0
  140.6440   74.7420  221.3000 C   0  0  0  0  0  0  0  0  0  0  0  0
  139.5380   74.1850  221.9960 N   0  0  0  0  0  0  0  0  0  0  0  0
  139.2580   72.7780  221.7570 C   0  0  0  0  0  0  0  0  0  0  0  0
  138.0890   72.3800  222.6090 C   0  0  0  0  0  0  0  0  0  0  0  0
  137.1740   73.2250  222.6980 O   0  0  0  0  0  0  0  0  0  0  0  0
  138.1360   71.1160  223.2150 N   0  0  0  0  0  0  0  0  0  0  0  0
  136.9910   70.1570  223.3310 C   0  0  0  0  0  0  0  0  0  0  0  0
  137.6840   68.8300  222.9600 C   0  0  0  0  0  0  0  0  0  0  0  0
  139.1900   69.1640  222.9150 C   0  0  0  0  0  0  0  0  0  0  0  0
  139.1880   70.3400  223.8430 C   0  0  1  0  0  0  0  0  0  0  0  0
  140.4480   70.9950  224.1720 C   0  0  0  0  0  0  0  0  0  0  0  0
  140.4290   71.4520  225.6110 C   0  0  0  0  0  0  0  0  0  0  0  0
  140.4870   70.3050  226.5540 C   0  0  0  0  0  0  0  0  0  0  0  0
  139.9560   70.3650  227.8300 C   0  0  0  0  0  0  0  0  0  0  0  0
  140.0090   69.2970  228.7090 C   0  0  0  0  0  0  0  0  0  0  0  0
  140.6030   68.1210  228.3380 C   0  0  0  0  0  0  0  0  0  0  0  0
  141.1410   68.0380  227.0700 C   0  0  0  0  0  0  0  0  0  0  0  0
  141.0840   69.1050  226.1990 C   0  0  0  0  0  0  0  0  0  0  0  0
  141.0390   76.1390  221.4430 C   0  0  0  0  0  0  0  0  0  0  0  0
  141.4100   76.8220  220.3040 C   0  0  0  0  0  0  0  0  0  0  0  0
  141.8040   78.1460  220.3110 C   0  0  0  0  0  0  0  0  0  0  0  0
  141.8100   78.7790  221.5590 C   0  0  0  0  0  0  0  0  0  0  0  0
  142.2020   80.0950  221.5600 C   0  0  0  0  0  0  0  0  0  0  0  0
  142.2180   80.7480  222.7790 C   0  0  0  0  0  0  0  0  0  0  0  0
  141.8540   80.0780  223.9100 C   0  0  0  0  0  0  0  0  0  0  0  0
  141.4580   78.7420  223.8880 C   0  0  0  0  0  0  0  0  0  0  0  0
  141.4380   78.0880  222.6920 C   0  0  0  0  0  0  0  0  0  0  0  0
  141.0560   76.7790  222.6310 N   0  0  0  0  0  0  0  0  0  0  0  0
  138.9680   74.7780  222.6430 H   0  0  0  0  0  0  0  0  0  0  0  0
  139.0151   72.6220  220.6956 H   0  0  0  0  0  0  0  0  0  0  0  0
  140.1374   72.1678  222.0105 H   0  0  0  0  0  0  0  0  0  0  0  0
  136.5877   70.1305  224.3540 H   0  0  0  0  0  0  0  0  0  0  0  0
  136.1228   70.4074  222.7036 H   0  0  0  0  0  0  0  0  0  0  0  0
  137.4810   68.0620  223.7209 H   0  0  0  0  0  0  0  0  0  0  0  0
  137.3213   68.4285  222.0023 H   0  0  0  0  0  0  0  0  0  0  0  0
  139.8087   68.3378  223.2952 H   0  0  0  0  0  0  0  0  0  0  0  0
  139.6075   69.3477  221.9140 H   0  0  0  0  0  0  0  0  0  0  0  0
  139.0089   70.0855  224.8981 H   0  0  0  0  0  0  0  0  0  0  0  0
  141.2766   70.2866  224.0252 H   0  0  0  0  0  0  0  0  0  0  0  0
  140.5845   71.8678  223.5165 H   0  0  0  0  0  0  0  0  0  0  0  0
  141.2969   72.1040  225.7892 H   0  0  0  0  0  0  0  0  0  0  0  0
  139.4869   71.9921  225.7863 H   0  0  0  0  0  0  0  0  0  0  0  0
  139.4731   71.2971  228.1587 H   0  0  0  0  0  0  0  0  0  0  0  0
  139.5705   69.3941  229.7131 H   0  0  0  0  0  0  0  0  0  0  0  0
  140.6501   67.2673  229.0301 H   0  0  0  0  0  0  0  0  0  0  0  0
  141.6241   67.1035  226.7484 H   0  0  0  0  0  0  0  0  0  0  0  0
  141.5237   69.0017  225.1960 H   0  0  0  0  0  0  0  0  0  0  0  0
  141.3913   76.2866  219.3433 H   0  0  0  0  0  0  0  0  0  0  0  0
  142.0958   78.6717  219.3899 H   0  0  0  0  0  0  0  0  0  0  0  0
  142.4910   80.6080  220.6308 H   0  0  0  0  0  0  0  0  0  0  0  0
  142.5230   81.8033  222.8363 H   0  0  0  0  0  0  0  0  0  0  0  0
  141.8737   80.6104  224.8724 H   0  0  0  0  0  0  0  0  0  0  0  0
  141.1679   78.2264  224.8154 H   0  0  0  0  0  0  0  0  0  0  0  0
  1  2  2  0
  2  3  1  0
  3  4  1  0
  4  5  1  0
  5  6  2  0
  5  7  1  0
  7  8  1  0
  8  9  1  0
  9 10  1  0
 10 11  1  0
 11 12  1  0
 12 13  1  0
 13 14  1  0
 14 15  2  0
 15 16  1  0
 16 17  2  0
 17 18  1  0
 18 19  2  0
  2 20  1  0
 20 21  2  0
 21 22  1  0
 22 23  2  0
 23 24  1  0
 24 25  2  0
 25 26  1  0
 26 27  2  0
 27 28  1  0
 28 29  2  0
 11  7  1  0
 19 14  1  0
 29 20  1  0
 28 23  1  0
  3 30  1  0
  4 31  1  0
  4 32  1  0
  8 33  1  0
  8 34  1  0
  9 35  1  0
  9 36  1  0
 10 37  1  0
 10 38  1  0
 11 39  1  1
 12 40  1  0
 12 41  1  0
 13 42  1  0
 13 43  1  0
 15 44  1  0
 16 45  1  0
 17 46  1  0
 18 47  1  0
 19 48  1  0
 21 49  1  0
 22 50  1  0
 24 51  1  0
 25 52  1  0
 26 53  1  0
 27 54  1  0
M  END
>  <smiles>  (93) 
O=C(NCC(=O)N1CCCC1CCc1ccccc1)c1ccc2ccccc2n1

>  <score_type>  (93) 
oracle

>  <origin>  (93) 
autodockgpu

>  <m_score__min__energy>  (93) 
-9.3699999999999992

>  <m_primary>  (93) 
energy

>  <rmsd>  (93) 
8.255690315847694

>  <m_score__min__rmsd>  (93) 
8.255690315847694

>  <meeko>  (93) 
{"free_energy": -8.42, "intermolecular_energy": -10.5, "internal_energy": -1.85, "cluster_size": 14, "cluster_id": 3, "rank_in_cluster": 9}

>  <energy>  (93) 
-8.41

>  <cluster_rmsd>  (93) 
1.81

>  <cluster>  (93) 
3

$$$$

     RDKit          3D

 54 57  0  0  0  0  0  0  0  0999 V2000
  137.4510   76.0610  222.5760 O   0  0  0  0  0  0  0  0  0  0  0  0
  138.7050   76.2470  222.4270 C   0  0  0  0  0  0  0  0  0  0  0  0
  139.4400   75.1260  221.9580 N   0  0  0  0  0  0  0  0  0  0  0  0
  138.6830   73.9100  221.7060 C   0  0  0  0  0  0  0  0  0  0  0  0
  139.5410   72.7370  222.0830 C   0  0  0  0  0  0  0  0  0  0  0  0
  140.7130   73.0110  222.4160 O   0  0  0  0  0  0  0  0  0  0  0  0
  138.9520   71.4650  222.0250 N   0  0  0  0  0  0  0  0  0  0  0  0
  138.5450   70.7440  220.7770 C   0  0  0  0  0  0  0  0  0  0  0  0
  139.0620   69.3230  221.0810 C   0  0  0  0  0  0  0  0  0  0  0  0
  139.4840   69.3590  222.5650 C   0  0  0  0  0  0  0  0  0  0  0  0
  138.5970   70.4760  223.0250 C   0  0  1  0  0  0  0  0  0  0  0  0
  138.5980   70.8600  224.4300 C   0  0  0  0  0  0  0  0  0  0  0  0
  140.0160   71.0520  224.9110 C   0  0  0  0  0  0  0  0  0  0  0  0
  140.3330   70.1650  226.0600 C   0  0  0  0  0  0  0  0  0  0  0  0
  140.2610   68.7860  225.9770 C   0  0  0  0  0  0  0  0  0  0  0  0
  140.5570   67.9590  227.0460 C   0  0  0  0  0  0  0  0  0  0  0  0
  140.9360   68.4890  228.2500 C   0  0  0  0  0  0  0  0  0  0  0  0
  141.0150   69.8630  228.3580 C   0  0  0  0  0  0  0  0  0  0  0  0
  140.7200   70.6810  227.2880 C   0  0  0  0  0  0  0  0  0  0  0  0
  139.3330   77.5310  222.7210 C   0  0  0  0  0  0  0  0  0  0  0  0
  138.5090   78.6170  222.9300 C   0  0  0  0  0  0  0  0  0  0  0  0
  138.9840   79.8820  223.2160 C   0  0  0  0  0  0  0  0  0  0  0  0
  140.3750   80.0160  223.2860 C   0  0  0  0  0  0  0  0  0  0  0  0
  140.8410   81.2760  223.5700 C   0  0  0  0  0  0  0  0  0  0  0  0
  142.2120   81.4390  223.6460 C   0  0  0  0  0  0  0  0  0  0  0  0
  143.0340   80.3700  223.4390 C   0  0  0  0  0  0  0  0  0  0  0  0
  142.5410   79.0990  223.1520 C   0  0  0  0  0  0  0  0  0  0  0  0
  141.1910   78.9250  223.0750 C   0  0  0  0  0  0  0  0  0  0  0  0
  140.6710   77.6940  222.7960 N   0  0  0  0  0  0  0  0  0  0  0  0
  140.4740   75.1960  221.8090 H   0  0  0  0  0  0  0  0  0  0  0  0
  137.7652   73.9103  222.3124 H   0  0  0  0  0  0  0  0  0  0  0  0
  138.4026   73.8501  220.6440 H   0  0  0  0  0  0  0  0  0  0  0  0
  137.4536   70.7568  220.6400 H   0  0  0  0  0  0  0  0  0  0  0  0
  138.9397   71.1829  219.8488 H   0  0  0  0  0  0  0  0  0  0  0  0
  138.2660   68.5803  220.9236 H   0  0  0  0  0  0  0  0  0  0  0  0
  139.8950   69.0372  220.4219 H   0  0  0  0  0  0  0  0  0  0  0  0
  139.2610   68.4139  223.0817 H   0  0  0  0  0  0  0  0  0  0  0  0
  140.5593   69.4972  222.7512 H   0  0  0  0  0  0  0  0  0  0  0  0
  137.5279   70.2205  223.0655 H   0  0  0  0  0  0  0  0  0  0  0  0
  138.0416   71.8012  224.5509 H   0  0  0  0  0  0  0  0  0  0  0  0
  138.1200   70.0657  225.0221 H   0  0  0  0  0  0  0  0  0  0  0  0
  140.7061   70.8252  224.0850 H   0  0  0  0  0  0  0  0  0  0  0  0
  140.1265   72.0949  225.2430 H   0  0  0  0  0  0  0  0  0  0  0  0
  139.9565   68.3291  225.0238 H   0  0  0  0  0  0  0  0  0  0  0  0
  140.4873   66.8676  226.9276 H   0  0  0  0  0  0  0  0  0  0  0  0
  141.1706   67.8393  229.1060 H   0  0  0  0  0  0  0  0  0  0  0  0
  141.3187   70.3132  229.3146 H   0  0  0  0  0  0  0  0  0  0  0  0
  140.7935   71.7716  227.4114 H   0  0  0  0  0  0  0  0  0  0  0  0
  137.4210   78.4685  222.8658 H   0  0  0  0  0  0  0  0  0  0  0  0
  138.3082   80.7344  223.3792 H   0  0  0  0  0  0  0  0  0  0  0  0
  140.1533   82.1194  223.7302 H   0  0  0  0  0  0  0  0  0  0  0  0
  142.6385   82.4273  223.8726 H   0  0  0  0  0  0  0  0  0  0  0  0
  144.1224   80.5165  223.5008 H   0  0  0  0  0  0  0  0  0  0  0  0
  143.2264   78.2538  222.9909 H   0  0  0  0  0  0  0  0  0  0  0  0
  1  2  2  0
  2  3  1  0
  3  4  1  0
  4  5  1  0
  5  6  2  0
  5  7  1  0
  7  8  1  0
  8  9  1  0
  9 10  1  0
 10 11  1  0
 11 12  1  0
 12 13  1  0
 13 14  1  0
 14 15  2  0
 15 16  1  0
 16 17  2  0
 17 18  1  0
 18 19  2  0
  2 20  1  0
 20 21  2  0
 21 22  1  0
 22 23  2  0
 23 24  1  0
 24 25  2  0
 25 26  1  0
 26 27  2  0
 27 28  1  0
 28 29  2  0
 11  7  1  0
 19 14  1  0
 29 20  1  0
 28 23  1  0
  3 30  1  0
  4 31  1  0
  4 32  1  0
  8 33  1  0
  8 34  1  0
  9 35  1  0
  9 36  1  0
 10 37  1  0
 10 38  1  0
 11 39  1  6
 12 40  1  0
 12 41  1  0
 13 42  1  0
 13 43  1  0
 15 44  1  0
 16 45  1  0
 17 46  1  0
 18 47  1  0
 19 48  1  0
 21 49  1  0
 22 50  1  0
 24 51  1  0
 25 52  1  0
 26 53  1  0
 27 54  1  0
M  END
>  <smiles>  (94) 
O=C(NCC(=O)N1CCCC1CCc1ccccc1)c1ccc2ccccc2n1

>  <score_type>  (94) 
oracle

>  <origin>  (94) 
autodockgpu

>  <m_score__min__energy>  (94) 
-9.3699999999999992

>  <m_primary>  (94) 
energy

>  <rmsd>  (94) 
8.425749885443402

>  <m_score__min__rmsd>  (94) 
8.425749885443402

>  <meeko>  (94) 
{"free_energy": -8.53, "intermolecular_energy": -10.62, "internal_energy": -1.95, "cluster_size": 14, "cluster_id": 3, "rank_in_cluster": 7}

>  <energy>  (94) 
-8.39

>  <cluster_rmsd>  (94) 
1.24

>  <cluster>  (94) 
3

$$$$

     RDKit          3D

 54 57  0  0  0  0  0  0  0  0999 V2000
  138.6680   70.9220  221.6380 O   0  0  0  0  0  0  0  0  0  0  0  0
  139.0520   71.6670  222.6000 C   0  0  0  0  0  0  0  0  0  0  0  0
  138.9830   73.0650  222.3570 N   0  0  0  0  0  0  0  0  0  0  0  0
  138.4890   73.4770  221.0520 C   0  0  0  0  0  0  0  0  0  0  0  0
  139.6640   73.6270  220.1300 C   0  0  0  0  0  0  0  0  0  0  0  0
  139.4470   73.3470  218.9320 O   0  0  0  0  0  0  0  0  0  0  0  0
  140.8720   74.0590  220.6940 N   0  0  0  0  0  0  0  0  0  0  0  0
  141.9990   73.1760  221.1350 C   0  0  0  0  0  0  0  0  0  0  0  0
  143.2110   73.9490  220.5770 C   0  0  0  0  0  0  0  0  0  0  0  0
  142.6370   75.3000  220.0980 C   0  0  0  0  0  0  0  0  0  0  0  0
  141.4340   75.3630  220.9880 C   0  0  1  0  0  0  0  0  0  0  0  0
  140.5670   76.5330  220.9400 C   0  0  0  0  0  0  0  0  0  0  0  0
  140.3870   77.0990  222.3290 C   0  0  0  0  0  0  0  0  0  0  0  0
  141.1430   78.3650  222.5100 C   0  0  0  0  0  0  0  0  0  0  0  0
  141.3950   79.2360  221.4650 C   0  0  0  0  0  0  0  0  0  0  0  0
  142.0980   80.4160  221.6320 C   0  0  0  0  0  0  0  0  0  0  0  0
  142.5810   80.7680  222.8640 C   0  0  0  0  0  0  0  0  0  0  0  0
  142.3440   79.9140  223.9220 C   0  0  0  0  0  0  0  0  0  0  0  0
  141.6410   78.7400  223.7480 C   0  0  0  0  0  0  0  0  0  0  0  0
  139.5270   71.1120  223.8620 C   0  0  0  0  0  0  0  0  0  0  0  0
  140.4100   71.8680  224.6050 C   0  0  0  0  0  0  0  0  0  0  0  0
  140.9300   71.4510  225.8150 C   0  0  0  0  0  0  0  0  0  0  0  0
  140.5090   70.1940  226.2650 C   0  0  0  0  0  0  0  0  0  0  0  0
  141.0280   69.7850  227.4690 C   0  0  0  0  0  0  0  0  0  0  0  0
  140.6300   68.5480  227.9390 C   0  0  0  0  0  0  0  0  0  0  0  0
  139.7580   67.7940  227.2100 C   0  0  0  0  0  0  0  0  0  0  0  0
  139.2410   68.2280  225.9900 C   0  0  0  0  0  0  0  0  0  0  0  0
  139.6250   69.4460  225.5160 C   0  0  0  0  0  0  0  0  0  0  0  0
  139.1400   69.9040  224.3250 N   0  0  0  0  0  0  0  0  0  0  0  0
  139.2790   73.7450  223.0960 H   0  0  0  0  0  0  0  0  0  0  0  0
  137.8010   72.7150  220.6570 H   0  0  0  0  0  0  0  0  0  0  0  0
  137.9478   74.4311  221.1351 H   0  0  0  0  0  0  0  0  0  0  0  0
  142.0423   73.0926  222.2310 H   0  0  0  0  0  0  0  0  0  0  0  0
  141.9241   72.1354  220.7863 H   0  0  0  0  0  0  0  0  0  0  0  0
  143.9646   74.1059  221.3628 H   0  0  0  0  0  0  0  0  0  0  0  0
  143.7120   73.4017  219.7650 H   0  0  0  0  0  0  0  0  0  0  0  0
  143.3315   76.1330  220.2815 H   0  0  0  0  0  0  0  0  0  0  0  0
  142.4357   75.3761  219.0193 H   0  0  0  0  0  0  0  0  0  0  0  0
  141.6634   75.5399  222.0492 H   0  0  0  0  0  0  0  0  0  0  0  0
  141.0210   77.2966  220.2913 H   0  0  0  0  0  0  0  0  0  0  0  0
  139.5855   76.2393  220.5394 H   0  0  0  0  0  0  0  0  0  0  0  0
  139.3179   77.2952  222.4979 H   0  0  0  0  0  0  0  0  0  0  0  0
  140.7724   76.3639  223.0509 H   0  0  0  0  0  0  0  0  0  0  0  0
  141.0219   78.9804  220.4623 H   0  0  0  0  0  0  0  0  0  0  0  0
  142.2701   81.0760  220.7690 H   0  0  0  0  0  0  0  0  0  0  0  0
  143.1414   81.7038  223.0063 H   0  0  0  0  0  0  0  0  0  0  0  0
  142.7224   80.1741  224.9216 H   0  0  0  0  0  0  0  0  0  0  0  0
  141.4711   78.0841  224.6146 H   0  0  0  0  0  0  0  0  0  0  0  0
  140.7148   72.8504  224.2150 H   0  0  0  0  0  0  0  0  0  0  0  0
  141.6334   72.0702  226.3910 H   0  0  0  0  0  0  0  0  0  0  0  0
  141.7302   70.4149  228.0348 H   0  0  0  0  0  0  0  0  0  0  0  0
  141.0154   68.1724  228.8984 H   0  0  0  0  0  0  0  0  0  0  0  0
  139.4525   66.8109  227.5974 H   0  0  0  0  0  0  0  0  0  0  0  0
  138.5382   67.6004  225.4225 H   0  0  0  0  0  0  0  0  0  0  0  0
  1  2  2  0
  2  3  1  0
  3  4  1  0
  4  5  1  0
  5  6  2  0
  5  7  1  0
  7  8  1  0
  8  9  1  0
  9 10  1  0
 10 11  1  0
 11 12  1  0
 12 13  1  0
 13 14  1  0
 14 15  2  0
 15 16  1  0
 16 17  2  0
 17 18  1  0
 18 19  2  0
  2 20  1  0
 20 21  2  0
 21 22  1  0
 22 23  2  0
 23 24  1  0
 24 25  2  0
 25 26  1  0
 26 27  2  0
 27 28  1  0
 28 29  2  0
 11  7  1  0
 19 14  1  0
 29 20  1  0
 28 23  1  0
  3 30  1  0
  4 31  1  0
  4 32  1  0
  8 33  1  0
  8 34  1  0
  9 35  1  0
  9 36  1  0
 10 37  1  0
 10 38  1  0
 11 39  1  1
 12 40  1  0
 12 41  1  0
 13 42  1  0
 13 43  1  0
 15 44  1  0
 16 45  1  0
 17 46  1  0
 18 47  1  0
 19 48  1  0
 21 49  1  0
 22 50  1  0
 24 51  1  0
 25 52  1  0
 26 53  1  0
 27 54  1  0
M  END
>  <smiles>  (95) 
O=C(NCC(=O)N1CCCC1CCc1ccccc1)c1ccc2ccccc2n1

>  <score_type>  (95) 
oracle

>  <origin>  (95) 
autodockgpu

>  <m_score__min__energy>  (95) 
-9.3699999999999992

>  <m_primary>  (95) 
energy

>  <rmsd>  (95) 
3.309595834100575

>  <m_score__min__rmsd>  (95) 
3.309595834100575

>  <meeko>  (95) 
{"free_energy": -8.58, "intermolecular_energy": -10.67, "internal_energy": -1.61, "cluster_size": 28, "cluster_id": 1, "rank_in_cluster": 19}

>  <energy>  (95) 
-8.38

>  <cluster_rmsd>  (95) 
1.83

>  <cluster>  (95) 
3

$$$$

     RDKit          3D

 54 57  0  0  0  0  0  0  0  0999 V2000
  141.2180   72.2290  221.7540 O   0  0  0  0  0  0  0  0  0  0  0  0
  140.2510   72.3320  222.5810 C   0  0  0  0  0  0  0  0  0  0  0  0
  139.2680   73.3030  222.2560 N   0  0  0  0  0  0  0  0  0  0  0  0
  139.4770   74.0590  221.0310 C   0  0  0  0  0  0  0  0  0  0  0  0
  138.7630   75.3730  221.1610 C   0  0  0  0  0  0  0  0  0  0  0  0
  137.8670   75.4150  222.0310 O   0  0  0  0  0  0  0  0  0  0  0  0
  139.1630   76.4100  220.3080 N   0  0  0  0  0  0  0  0  0  0  0  0
  138.4230   76.8810  219.0940 C   0  0  0  0  0  0  0  0  0  0  0  0
  138.5290   78.4100  219.2630 C   0  0  0  0  0  0  0  0  0  0  0  0
  139.5250   78.6160  220.4250 C   0  0  0  0  0  0  0  0  0  0  0  0
  140.2840   77.3310  220.3010 C   0  0  1  0  0  0  0  0  0  0  0  0
  141.4120   77.0760  221.1890 C   0  0  0  0  0  0  0  0  0  0  0  0
  141.0190   77.3670  222.6170 C   0  0  0  0  0  0  0  0  0  0  0  0
  141.3440   78.7650  223.0040 C   0  0  0  0  0  0  0  0  0  0  0  0
  142.6300   79.2730  222.9450 C   0  0  0  0  0  0  0  0  0  0  0  0
  142.9330   80.5740  223.3040 C   0  0  0  0  0  0  0  0  0  0  0  0
  141.9510   81.4210  223.7410 C   0  0  0  0  0  0  0  0  0  0  0  0
  140.6590   80.9360  223.8100 C   0  0  0  0  0  0  0  0  0  0  0  0
  140.3640   79.6390  223.4500 C   0  0  0  0  0  0  0  0  0  0  0  0
  140.1700   71.5020  223.7780 C   0  0  0  0  0  0  0  0  0  0  0  0
  139.5320   70.2830  223.6730 C   0  0  0  0  0  0  0  0  0  0  0  0
  139.3910   69.4100  224.7340 C   0  0  0  0  0  0  0  0  0  0  0  0
  139.9400   69.8280  225.9510 C   0  0  0  0  0  0  0  0  0  0  0  0
  139.7970   68.9550  227.0020 C   0  0  0  0  0  0  0  0  0  0  0  0
  140.3300   69.3410  228.2190 C   0  0  0  0  0  0  0  0  0  0  0  0
  140.9610   70.5440  228.3300 C   0  0  0  0  0  0  0  0  0  0  0  0
  141.0960   71.4160  227.2510 C   0  0  0  0  0  0  0  0  0  0  0  0
  140.5760   71.0470  226.0470 C   0  0  0  0  0  0  0  0  0  0  0  0
  140.6890   71.8740  224.9670 N   0  0  0  0  0  0  0  0  0  0  0  0
  138.4420   73.4490  222.8820 H   0  0  0  0  0  0  0  0  0  0  0  0
  140.5526   74.2334  220.8804 H   0  0  0  0  0  0  0  0  0  0  0  0
  139.0865   73.4990  220.1685 H   0  0  0  0  0  0  0  0  0  0  0  0
  138.9090   76.5419  218.1673 H   0  0  0  0  0  0  0  0  0  0  0  0
  137.3931   76.5029  219.0144 H   0  0  0  0  0  0  0  0  0  0  0  0
  138.9086   78.8754  218.3414 H   0  0  0  0  0  0  0  0  0  0  0  0
  137.5521   78.8714  219.4697 H   0  0  0  0  0  0  0  0  0  0  0  0
  140.1688   79.4939  220.2677 H   0  0  0  0  0  0  0  0  0  0  0  0
  139.0749   78.8106  221.4097 H   0  0  0  0  0  0  0  0  0  0  0  0
  140.9293   77.2693  219.4123 H   0  0  0  0  0  0  0  0  0  0  0  0
  141.7138   76.0218  221.1015 H   0  0  0  0  0  0  0  0  0  0  0  0
  142.2509   77.7282  220.9046 H   0  0  0  0  0  0  0  0  0  0  0  0
  139.9360   77.2093  222.7276 H   0  0  0  0  0  0  0  0  0  0  0  0
  141.5856   76.6897  223.2729 H   0  0  0  0  0  0  0  0  0  0  0  0
  143.4424   78.6169  222.5993 H   0  0  0  0  0  0  0  0  0  0  0  0
  143.9715   80.9306  223.2377 H   0  0  0  0  0  0  0  0  0  0  0  0
  142.1833   82.4570  224.0287 H   0  0  0  0  0  0  0  0  0  0  0  0
  139.8517   81.5969  224.1585 H   0  0  0  0  0  0  0  0  0  0  0  0
  139.3238   79.2877  223.5182 H   0  0  0  0  0  0  0  0  0  0  0  0
  139.1156   69.9925  222.6972 H   0  0  0  0  0  0  0  0  0  0  0  0
  138.8773   68.4431  224.6283 H   0  0  0  0  0  0  0  0  0  0  0  0
  139.2811   67.9910  226.8812 H   0  0  0  0  0  0  0  0  0  0  0  0
  140.2448   68.6795  229.0937 H   0  0  0  0  0  0  0  0  0  0  0  0
  141.3781   70.8369  229.3048 H   0  0  0  0  0  0  0  0  0  0  0  0
  141.6110   72.3808  227.3690 H   0  0  0  0  0  0  0  0  0  0  0  0
  1  2  2  0
  2  3  1  0
  3  4  1  0
  4  5  1  0
  5  6  2  0
  5  7  1  0
  7  8  1  0
  8  9  1  0
  9 10  1  0
 10 11  1  0
 11 12  1  0
 12 13  1  0
 13 14  1  0
 14 15  2  0
 15 16  1  0
 16 17  2  0
 17 18  1  0
 18 19  2  0
  2 20  1  0
 20 21  2  0
 21 22  1  0
 22 23  2  0
 23 24  1  0
 24 25  2  0
 25 26  1  0
 26 27  2  0
 27 28  1  0
 28 29  2  0
 11  7  1  0
 19 14  1  0
 29 20  1  0
 28 23  1  0
  3 30  1  0
  4 31  1  0
  4 32  1  0
  8 33  1  0
  8 34  1  0
  9 35  1  0
  9 36  1  0
 10 37  1  0
 10 38  1  0
 11 39  1  6
 12 40  1  0
 12 41  1  0
 13 42  1  0
 13 43  1  0
 15 44  1  0
 16 45  1  0
 17 46  1  0
 18 47  1  0
 19 48  1  0
 21 49  1  0
 22 50  1  0
 24 51  1  0
 25 52  1  0
 26 53  1  0
 27 54  1  0
M  END
>  <smiles>  (96) 
O=C(NCC(=O)N1CCCC1CCc1ccccc1)c1ccc2ccccc2n1

>  <score_type>  (96) 
oracle

>  <origin>  (96) 
autodockgpu

>  <m_score__min__energy>  (96) 
-9.3699999999999992

>  <m_primary>  (96) 
energy

>  <rmsd>  (96) 
2.400023643187753

>  <m_score__min__rmsd>  (96) 
2.400023643187753

>  <meeko>  (96) 
{"free_energy": -8.46, "intermolecular_energy": -10.55, "internal_energy": -1.96, "cluster_size": 28, "cluster_id": 1, "rank_in_cluster": 23}

>  <energy>  (96) 
-8.3

>  <cluster_rmsd>  (96) 
1.78

>  <cluster>  (96) 
3

$$$$

     RDKit          3D

 54 57  0  0  0  0  0  0  0  0999 V2000
  139.5820   73.5820  222.4880 O   0  0  0  0  0  0  0  0  0  0  0  0
  140.3290   72.5520  222.5860 C   0  0  0  0  0  0  0  0  0  0  0  0
  141.2690   72.3750  221.5370 N   0  0  0  0  0  0  0  0  0  0  0  0
  141.2690   73.3780  220.4840 C   0  0  0  0  0  0  0  0  0  0  0  0
  142.5390   74.1710  220.5890 C   0  0  0  0  0  0  0  0  0  0  0  0
  143.5660   73.5100  220.8550 O   0  0  0  0  0  0  0  0  0  0  0  0
  142.4530   75.5550  220.3820 N   0  0  0  0  0  0  0  0  0  0  0  0
  143.3570   76.3680  219.5080 C   0  0  0  0  0  0  0  0  0  0  0  0
  142.3330   77.2690  218.7880 C   0  0  0  0  0  0  0  0  0  0  0  0
  140.9970   77.0210  219.5200 C   0  0  0  0  0  0  0  0  0  0  0  0
  141.5440   76.5860  220.8450 C   0  0  1  0  0  0  0  0  0  0  0  0
  140.6250   76.2800  221.9350 C   0  0  0  0  0  0  0  0  0  0  0  0
  139.8850   77.5280  222.3510 C   0  0  0  0  0  0  0  0  0  0  0  0
  140.8100   78.6720  222.5590 C   0  0  0  0  0  0  0  0  0  0  0  0
  140.8980   79.7290  221.6690 C   0  0  0  0  0  0  0  0  0  0  0  0
  141.7580   80.7950  221.8620 C   0  0  0  0  0  0  0  0  0  0  0  0
  142.5720   80.8410  222.9620 C   0  0  0  0  0  0  0  0  0  0  0  0
  142.5030   79.7980  223.8640 C   0  0  0  0  0  0  0  0  0  0  0  0
  141.6430   78.7390  223.6660 C   0  0  0  0  0  0  0  0  0  0  0  0
  140.2180   71.6240  223.7060 C   0  0  0  0  0  0  0  0  0  0  0  0
  139.6140   70.4050  223.4740 C   0  0  0  0  0  0  0  0  0  0  0  0
  139.4510   69.4450  224.4530 C   0  0  0  0  0  0  0  0  0  0  0  0
  139.9380   69.7720  225.7230 C   0  0  0  0  0  0  0  0  0  0  0  0
  139.7720   68.8120  226.6920 C   0  0  0  0  0  0  0  0  0  0  0  0
  140.2440   69.1070  227.9580 C   0  0  0  0  0  0  0  0  0  0  0  0
  140.8410   70.3100  228.1950 C   0  0  0  0  0  0  0  0  0  0  0  0
  141.0000   71.2700  227.1980 C   0  0  0  0  0  0  0  0  0  0  0  0
  140.5400   70.9910  225.9460 C   0  0  0  0  0  0  0  0  0  0  0  0
  140.6770   71.9070  224.9430 N   0  0  0  0  0  0  0  0  0  0  0  0
  141.9200   71.5550  221.5430 H   0  0  0  0  0  0  0  0  0  0  0  0
  141.2178   72.8859  219.5015 H   0  0  0  0  0  0  0  0  0  0  0  0
  140.3980   74.0411  220.5919 H   0  0  0  0  0  0  0  0  0  0  0  0
  144.0691   76.9597  220.1020 H   0  0  0  0  0  0  0  0  0  0  0  0
  143.9928   75.7744  218.8347 H   0  0  0  0  0  0  0  0  0  0  0  0
  142.6261   78.3263  218.8664 H   0  0  0  0  0  0  0  0  0  0  0  0
  142.2642   77.0396  217.7144 H   0  0  0  0  0  0  0  0  0  0  0  0
  140.3935   77.9370  219.6018 H   0  0  0  0  0  0  0  0  0  0  0  0
  140.3104   76.3134  219.0322 H   0  0  0  0  0  0  0  0  0  0  0  0
  142.0150   77.3913  221.4279 H   0  0  0  0  0  0  0  0  0  0  0  0
  139.9017   75.5221  221.5999 H   0  0  0  0  0  0  0  0  0  0  0  0
  141.1967   75.8960  222.7927 H   0  0  0  0  0  0  0  0  0  0  0  0
  139.1621   77.7924  221.5652 H   0  0  0  0  0  0  0  0  0  0  0  0
  139.3744   77.3224  223.3034 H   0  0  0  0  0  0  0  0  0  0  0  0
  140.2591   79.7207  220.7736 H   0  0  0  0  0  0  0  0  0  0  0  0
  141.7882   81.6120  221.1261 H   0  0  0  0  0  0  0  0  0  0  0  0
  143.2604   81.6838  223.1223 H   0  0  0  0  0  0  0  0  0  0  0  0
  143.1458   79.8123  224.7566 H   0  0  0  0  0  0  0  0  0  0  0  0
  141.6167   77.9253  224.4057 H   0  0  0  0  0  0  0  0  0  0  0  0
  139.2448   70.1878  222.4608 H   0  0  0  0  0  0  0  0  0  0  0  0
  138.9664   68.4793  224.2463 H   0  0  0  0  0  0  0  0  0  0  0  0
  139.2850   67.8509  226.4704 H   0  0  0  0  0  0  0  0  0  0  0  0
  140.1382   68.3737  228.7711 H   0  0  0  0  0  0  0  0  0  0  0  0
  141.2095   70.5298  229.2078 H   0  0  0  0  0  0  0  0  0  0  0  0
  141.4862   72.2322  227.4167 H   0  0  0  0  0  0  0  0  0  0  0  0
  1  2  2  0
  2  3  1  0
  3  4  1  0
  4  5  1  0
  5  6  2  0
  5  7  1  0
  7  8  1  0
  8  9  1  0
  9 10  1  0
 10 11  1  0
 11 12  1  0
 12 13  1  0
 13 14  1  0
 14 15  2  0
 15 16  1  0
 16 17  2  0
 17 18  1  0
 18 19  2  0
  2 20  1  0
 20 21  2  0
 21 22  1  0
 22 23  2  0
 23 24  1  0
 24 25  2  0
 25 26  1  0
 26 27  2  0
 27 28  1  0
 28 29  2  0
 11  7  1  0
 19 14  1  0
 29 20  1  0
 28 23  1  0
  3 30  1  0
  4 31  1  0
  4 32  1  0
  8 33  1  0
  8 34  1  0
  9 35  1  0
  9 36  1  0
 10 37  1  0
 10 38  1  0
 11 39  1  1
 12 40  1  0
 12 41  1  0
 13 42  1  0
 13 43  1  0
 15 44  1  0
 16 45  1  0
 17 46  1  0
 18 47  1  0
 19 48  1  0
 21 49  1  0
 22 50  1  0
 24 51  1  0
 25 52  1  0
 26 53  1  0
 27 54  1  0
M  END
>  <smiles>  (97) 
O=C(NCC(=O)N1CCCC1CCc1ccccc1)c1ccc2ccccc2n1

>  <score_type>  (97) 
oracle

>  <origin>  (97) 
autodockgpu

>  <m_score__min__energy>  (97) 
-9.3699999999999992

>  <m_primary>  (97) 
energy

>  <rmsd>  (97) 
3.064254456772741

>  <m_score__min__rmsd>  (97) 
3.064254456772741

>  <meeko>  (97) 
{"free_energy": -9.02, "intermolecular_energy": -11.11, "internal_energy": -1.79, "cluster_size": 5, "cluster_id": 2, "rank_in_cluster": 1}

>  <energy>  (97) 
-7.97

>  <cluster_rmsd>  (97) 
1.51

>  <cluster>  (97) 
3

$$$$

     RDKit          3D

 54 57  0  0  0  0  0  0  0  0999 V2000
  141.2870   72.5010  222.0040 O   0  0  0  0  0  0  0  0  0  0  0  0
  140.2360   72.3900  222.7200 C   0  0  0  0  0  0  0  0  0  0  0  0
  139.1390   73.2030  222.3300 N   0  0  0  0  0  0  0  0  0  0  0  0
  139.3420   74.0590  221.1710 C   0  0  0  0  0  0  0  0  0  0  0  0
  138.3070   75.1470  221.2040 C   0  0  0  0  0  0  0  0  0  0  0  0
  137.2740   74.8890  221.8570 O   0  0  0  0  0  0  0  0  0  0  0  0
  138.5960   76.3300  220.5080 N   0  0  0  0  0  0  0  0  0  0  0  0
  138.7130   76.4650  219.0210 C   0  0  0  0  0  0  0  0  0  0  0  0
  137.9300   77.7720  218.7850 C   0  0  0  0  0  0  0  0  0  0  0  0
  137.6710   78.3440  220.1950 C   0  0  0  0  0  0  0  0  0  0  0  0
  138.8200   77.7040  220.9120 C   0  0  1  0  0  0  0  0  0  0  0  0
  139.0380   77.9990  222.3230 C   0  0  0  0  0  0  0  0  0  0  0  0
  140.4750   77.7170  222.6910 C   0  0  0  0  0  0  0  0  0  0  0  0
  141.2070   78.9610  223.0450 C   0  0  0  0  0  0  0  0  0  0  0  0
  142.5850   79.0600  222.9670 C   0  0  0  0  0  0  0  0  0  0  0  0
  143.2680   80.2180  223.2950 C   0  0  0  0  0  0  0  0  0  0  0  0
  142.5890   81.3280  223.7190 C   0  0  0  0  0  0  0  0  0  0  0  0
  141.2130   81.2540  223.8060 C   0  0  0  0  0  0  0  0  0  0  0  0
  140.5390   80.0970  223.4760 C   0  0  0  0  0  0  0  0  0  0  0  0
  140.1750   71.4840  223.8620 C   0  0  0  0  0  0  0  0  0  0  0  0
  139.5570   70.2640  223.6820 C   0  0  0  0  0  0  0  0  0  0  0  0
  139.4360   69.3230  224.6850 C   0  0  0  0  0  0  0  0  0  0  0  0
  139.9840   69.6720  225.9250 C   0  0  0  0  0  0  0  0  0  0  0  0
  139.8610   68.7310  226.9190 C   0  0  0  0  0  0  0  0  0  0  0  0
  140.3930   69.0470  228.1550 C   0  0  0  0  0  0  0  0  0  0  0  0
  141.0050   70.2520  228.3410 C   0  0  0  0  0  0  0  0  0  0  0  0
  141.1200   71.1930  227.3190 C   0  0  0  0  0  0  0  0  0  0  0  0
  140.6000   70.8920  226.0950 C   0  0  0  0  0  0  0  0  0  0  0  0
  140.6930   71.7890  225.0700 N   0  0  0  0  0  0  0  0  0  0  0  0
  138.2400   73.1710  222.8650 H   0  0  0  0  0  0  0  0  0  0  0  0
  140.3485   74.5013  221.2065 H   0  0  0  0  0  0  0  0  0  0  0  0
  139.2479   73.4731  220.2448 H   0  0  0  0  0  0  0  0  0  0  0  0
  139.7623   76.5594  218.7047 H   0  0  0  0  0  0  0  0  0  0  0  0
  138.3359   75.6005  218.4549 H   0  0  0  0  0  0  0  0  0  0  0  0
  138.5255   78.4764  218.1856 H   0  0  0  0  0  0  0  0  0  0  0  0
  136.9952   77.5989  218.2317 H   0  0  0  0  0  0  0  0  0  0  0  0
  137.7313   79.4422  220.2137 H   0  0  0  0  0  0  0  0  0  0  0  0
  136.6748   78.1422  220.6156 H   0  0  0  0  0  0  0  0  0  0  0  0
  139.8061   78.1105  220.6432 H   0  0  0  0  0  0  0  0  0  0  0  0
  138.8142   79.0591  222.5128 H   0  0  0  0  0  0  0  0  0  0  0  0
  138.3771   77.3646  222.9319 H   0  0  0  0  0  0  0  0  0  0  0  0
  140.4946   77.0344  223.5534 H   0  0  0  0  0  0  0  0  0  0  0  0
  140.9696   77.2651  221.8186 H   0  0  0  0  0  0  0  0  0  0  0  0
  143.1598   78.1843  222.6313 H   0  0  0  0  0  0  0  0  0  0  0  0
  144.3647   80.2465  223.2143 H   0  0  0  0  0  0  0  0  0  0  0  0
  143.1239   82.2523  223.9828 H   0  0  0  0  0  0  0  0  0  0  0  0
  140.6447   82.1329  224.1443 H   0  0  0  0  0  0  0  0  0  0  0  0
  139.4422   80.0748  223.5569 H   0  0  0  0  0  0  0  0  0  0  0  0
  139.1404   70.0295  222.6913 H   0  0  0  0  0  0  0  0  0  0  0  0
  138.9384   68.3561  224.5195 H   0  0  0  0  0  0  0  0  0  0  0  0
  139.3608   67.7680  226.7388 H   0  0  0  0  0  0  0  0  0  0  0  0
  140.3232   68.3294  228.9857 H   0  0  0  0  0  0  0  0  0  0  0  0
  141.4218   70.4891  229.3310 H   0  0  0  0  0  0  0  0  0  0  0  0
  141.6192   72.1571  227.4961 H   0  0  0  0  0  0  0  0  0  0  0  0
  1  2  2  0
  2  3  1  0
  3  4  1  0
  4  5  1  0
  5  6  2  0
  5  7  1  0
  7  8  1  0
  8  9  1  0
  9 10  1  0
 10 11  1  0
 11 12  1  0
 12 13  1  0
 13 14  1  0
 14 15  2  0
 15 16  1  0
 16 17  2  0
 17 18  1  0
 18 19  2  0
  2 20  1  0
 20 21  2  0
 21 22  1  0
 22 23  2  0
 23 24  1  0
 24 25  2  0
 25 26  1  0
 26 27  2  0
 27 28  1  0
 28 29  2  0
 11  7  1  0
 19 14  1  0
 29 20  1  0
 28 23  1  0
  3 30  1  0
  4 31  1  0
  4 32  1  0
  8 33  1  0
  8 34  1  0
  9 35  1  0
  9 36  1  0
 10 37  1  0
 10 38  1  0
 11 39  1  6
 12 40  1  0
 12 41  1  0
 13 42  1  0
 13 43  1  0
 15 44  1  0
 16 45  1  0
 17 46  1  0
 18 47  1  0
 19 48  1  0
 21 49  1  0
 22 50  1  0
 24 51  1  0
 25 52  1  0
 26 53  1  0
 27 54  1  0
M  END
>  <smiles>  (98) 
O=C(NCC(=O)N1CCCC1CCc1ccccc1)c1ccc2ccccc2n1

>  <score_type>  (98) 
oracle

>  <origin>  (98) 
autodockgpu

>  <m_score__min__energy>  (98) 
-9.3699999999999992

>  <m_primary>  (98) 
energy

>  <rmsd>  (98) 
2.804162315156617

>  <m_score__min__rmsd>  (98) 
2.804162315156617

>  <meeko>  (98) 
{"free_energy": -8.13, "intermolecular_energy": -10.22, "internal_energy": -1.83, "cluster_size": 28, "cluster_id": 1, "rank_in_cluster": 28}

>  <energy>  (98) 
-8.23

>  <cluster_rmsd>  (98) 
0.0

>  <cluster>  (98) 
4

$$$$

     RDKit          3D

 54 57  0  0  0  0  0  0  0  0999 V2000
  141.4500   71.8570  221.6410 O   0  0  0  0  0  0  0  0  0  0  0  0
  140.5990   72.1470  222.5480 C   0  0  0  0  0  0  0  0  0  0  0  0
  139.9180   73.3810  222.3770 N   0  0  0  0  0  0  0  0  0  0  0  0
  140.2690   74.1630  221.2020 C   0  0  0  0  0  0  0  0  0  0  0  0
  140.0560   75.6140  221.5220 C   0  0  0  0  0  0  0  0  0  0  0  0
  139.2880   75.8480  222.4790 O   0  0  0  0  0  0  0  0  0  0  0  0
  140.7290   76.5530  220.7280 N   0  0  0  0  0  0  0  0  0  0  0  0
  142.1460   76.4440  220.2540 C   0  0  0  0  0  0  0  0  0  0  0  0
  141.9980   76.8900  218.7850 C   0  0  0  0  0  0  0  0  0  0  0  0
  140.5550   77.4280  218.6740 C   0  0  0  0  0  0  0  0  0  0  0  0
  140.3440   77.8070  220.1090 C   0  0  1  0  0  0  0  0  0  0  0  0
  139.0920   78.4360  220.5080 C   0  0  0  0  0  0  0  0  0  0  0  0
  139.1310   78.7730  221.9790 C   0  0  0  0  0  0  0  0  0  0  0  0
  140.4220   79.3970  222.3670 C   0  0  0  0  0  0  0  0  0  0  0  0
  141.3730   78.7300  223.1180 C   0  0  0  0  0  0  0  0  0  0  0  0
  142.5770   79.3090  223.4800 C   0  0  0  0  0  0  0  0  0  0  0  0
  142.8730   80.5910  223.1000 C   0  0  0  0  0  0  0  0  0  0  0  0
  141.9380   81.2780  222.3510 C   0  0  0  0  0  0  0  0  0  0  0  0
  140.7420   80.6940  221.9930 C   0  0  0  0  0  0  0  0  0  0  0  0
  140.3480   71.2610  223.6790 C   0  0  0  0  0  0  0  0  0  0  0  0
  139.6080   70.1190  223.4500 C   0  0  0  0  0  0  0  0  0  0  0  0
  139.3050   69.2040  224.4390 C   0  0  0  0  0  0  0  0  0  0  0  0
  139.7950   69.4950  225.7170 C   0  0  0  0  0  0  0  0  0  0  0  0
  139.4910   68.5810  226.6970 C   0  0  0  0  0  0  0  0  0  0  0  0
  139.9620   68.8410  227.9700 C   0  0  0  0  0  0  0  0  0  0  0  0
  140.6940   69.9680  228.2040 C   0  0  0  0  0  0  0  0  0  0  0  0
  140.9920   70.8830  227.1960 C   0  0  0  0  0  0  0  0  0  0  0  0
  140.5340   70.6370  225.9370 C   0  0  0  0  0  0  0  0  0  0  0  0
  140.8070   71.5110  224.9240 N   0  0  0  0  0  0  0  0  0  0  0  0
  139.2030   73.6910  223.0760 H   0  0  0  0  0  0  0  0  0  0  0  0
  141.3236   73.9903  220.9415 H   0  0  0  0  0  0  0  0  0  0  0  0
  139.6422   73.8668  220.3479 H   0  0  0  0  0  0  0  0  0  0  0  0
  142.8128   77.1153  220.8151 H   0  0  0  0  0  0  0  0  0  0  0  0
  142.5927   75.4471  220.3832 H   0  0  0  0  0  0  0  0  0  0  0  0
  142.7247   77.6804  218.5459 H   0  0  0  0  0  0  0  0  0  0  0  0
  142.1867   76.0654  218.0819 H   0  0  0  0  0  0  0  0  0  0  0  0
  140.4877   78.2966  218.0024 H   0  0  0  0  0  0  0  0  0  0  0  0
  139.8173   76.7293  218.2526 H   0  0  0  0  0  0  0  0  0  0  0  0
  140.9230   78.6829  220.4368 H   0  0  0  0  0  0  0  0  0  0  0  0
  138.9458   79.3582  219.9265 H   0  0  0  0  0  0  0  0  0  0  0  0
  138.2612   77.7405  220.3182 H   0  0  0  0  0  0  0  0  0  0  0  0
  138.3142   79.4740  222.2056 H   0  0  0  0  0  0  0  0  0  0  0  0
  139.0182   77.8381  222.5475 H   0  0  0  0  0  0  0  0  0  0  0  0
  141.1643   77.6991  223.4401 H   0  0  0  0  0  0  0  0  0  0  0  0
  143.3012   78.7354  224.0771 H   0  0  0  0  0  0  0  0  0  0  0  0
  143.8271   81.0596  223.3830 H   0  0  0  0  0  0  0  0  0  0  0  0
  142.1516   82.3096  222.0345 H   0  0  0  0  0  0  0  0  0  0  0  0
  140.0220   81.2717  221.3948 H   0  0  0  0  0  0  0  0  0  0  0  0
  139.2418   69.9283  222.4304 H   0  0  0  0  0  0  0  0  0  0  0  0
  138.7133   68.2996  224.2342 H   0  0  0  0  0  0  0  0  0  0  0  0
  138.8981   67.6808  226.4776 H   0  0  0  0  0  0  0  0  0  0  0  0
  139.7474   68.1417  228.7915 H   0  0  0  0  0  0  0  0  0  0  0  0
  141.0614   70.1611  229.2227 H   0  0  0  0  0  0  0  0  0  0  0  0
  141.5842   71.7843  227.4124 H   0  0  0  0  0  0  0  0  0  0  0  0
  1  2  2  0
  2  3  1  0
  3  4  1  0
  4  5  1  0
  5  6  2  0
  5  7  1  0
  7  8  1  0
  8  9  1  0
  9 10  1  0
 10 11  1  0
 11 12  1  0
 12 13  1  0
 13 14  1  0
 14 15  2  0
 15 16  1  0
 16 17  2  0
 17 18  1  0
 18 19  2  0
  2 20  1  0
 20 21  2  0
 21 22  1  0
 22 23  2  0
 23 24  1  0
 24 25  2  0
 25 26  1  0
 26 27  2  0
 27 28  1  0
 28 29  2  0
 11  7  1  0
 19 14  1  0
 29 20  1  0
 28 23  1  0
  3 30  1  0
  4 31  1  0
  4 32  1  0
  8 33  1  0
  8 34  1  0
  9 35  1  0
  9 36  1  0
 10 37  1  0
 10 38  1  0
 11 39  1  1
 12 40  1  0
 12 41  1  0
 13 42  1  0
 13 43  1  0
 15 44  1  0
 16 45  1  0
 17 46  1  0
 18 47  1  0
 19 48  1  0
 21 49  1  0
 22 50  1  0
 24 51  1  0
 25 52  1  0
 26 53  1  0
 27 54  1  0
M  END
>  <smiles>  (99) 
O=C(NCC(=O)N1CCCC1CCc1ccccc1)c1ccc2ccccc2n1

>  <score_type>  (99) 
oracle

>  <origin>  (99) 
autodockgpu

>  <m_score__min__energy>  (99) 
-9.3699999999999992

>  <m_primary>  (99) 
energy

>  <rmsd>  (99) 
2.750109041326509

>  <m_score__min__rmsd>  (99) 
2.750109041326509

>  <meeko>  (99) 
{"free_energy": -8.43, "intermolecular_energy": -10.52, "internal_energy": -2.14, "cluster_size": 28, "cluster_id": 1, "rank_in_cluster": 24}

>  <energy>  (99) 
-8.07

>  <cluster_rmsd>  (99) 
0.31

>  <cluster>  (99) 
4

$$$$

     RDKit          3D

 54 57  0  0  0  0  0  0  0  0999 V2000
  141.5190   73.8070  220.9270 O   0  0  0  0  0  0  0  0  0  0  0  0
  140.7770   74.6360  221.5520 C   0  0  0  0  0  0  0  0  0  0  0  0
  139.6290   74.0800  222.1770 N   0  0  0  0  0  0  0  0  0  0  0  0
  139.4370   72.6450  222.0320 C   0  0  0  0  0  0  0  0  0  0  0  0
  138.1680   72.2670  222.7390 C   0  0  0  0  0  0  0  0  0  0  0  0
  137.1620   72.9440  222.4390 O   0  0  0  0  0  0  0  0  0  0  0  0
  138.2330   71.2060  223.6530 N   0  0  0  0  0  0  0  0  0  0  0  0
  137.0710   70.3940  224.1370 C   0  0  0  0  0  0  0  0  0  0  0  0
  137.6620   68.9710  224.0680 C   0  0  0  0  0  0  0  0  0  0  0  0
  139.1650   69.1750  223.7830 C   0  0  0  0  0  0  0  0  0  0  0  0
  139.3190   70.5510  224.3570 C   0  0  1  0  0  0  0  0  0  0  0  0
  140.6340   71.1790  224.3690 C   0  0  0  0  0  0  0  0  0  0  0  0
  141.0340   71.5070  225.7880 C   0  0  0  0  0  0  0  0  0  0  0  0
  140.7840   70.3670  226.7080 C   0  0  0  0  0  0  0  0  0  0  0  0
  141.3140   69.1080  226.4920 C   0  0  0  0  0  0  0  0  0  0  0  0
  141.0820   68.0460  227.3480 C   0  0  0  0  0  0  0  0  0  0  0  0
  140.3010   68.2080  228.4610 C   0  0  0  0  0  0  0  0  0  0  0  0
  139.7600   69.4560  228.6970 C   0  0  0  0  0  0  0  0  0  0  0  0
  139.9960   70.5100  227.8400 C   0  0  0  0  0  0  0  0  0  0  0  0
  141.0950   76.0580  221.6150 C   0  0  0  0  0  0  0  0  0  0  0  0
  141.4450   76.6910  220.4400 C   0  0  0  0  0  0  0  0  0  0  0  0
  141.7660   78.0320  220.3720 C   0  0  0  0  0  0  0  0  0  0  0  0
  141.7200   78.7390  221.5790 C   0  0  0  0  0  0  0  0  0  0  0  0
  142.0410   80.0720  221.5050 C   0  0  0  0  0  0  0  0  0  0  0  0
  142.0040   80.7960  222.6820 C   0  0  0  0  0  0  0  0  0  0  0  0
  141.6600   80.1770  223.8480 C   0  0  0  0  0  0  0  0  0  0  0  0
  141.3370   78.8220  223.9020 C   0  0  0  0  0  0  0  0  0  0  0  0
  141.3690   78.0980  222.7480 C   0  0  0  0  0  0  0  0  0  0  0  0
  141.0590   76.7680  222.7620 N   0  0  0  0  0  0  0  0  0  0  0  0
  138.9690   74.6930  222.7110 H   0  0  0  0  0  0  0  0  0  0  0  0
  139.3605   72.3855  220.9658 H   0  0  0  0  0  0  0  0  0  0  0  0
  140.2896   72.1021  222.4661 H   0  0  0  0  0  0  0  0  0  0  0  0
  136.7881   70.6652  225.1648 H   0  0  0  0  0  0  0  0  0  0  0  0
  136.1469   70.5313  223.5564 H   0  0  0  0  0  0  0  0  0  0  0  0
  137.5177   68.4458  225.0237 H   0  0  0  0  0  0  0  0  0  0  0  0
  137.1747   68.3587  223.2950 H   0  0  0  0  0  0  0  0  0  0  0  0
  139.7895   68.4360  224.3063 H   0  0  0  0  0  0  0  0  0  0  0  0
  139.4705   69.0602  222.7325 H   0  0  0  0  0  0  0  0  0  0  0  0
  139.2541   70.5963  225.4541 H   0  0  0  0  0  0  0  0  0  0  0  0
  141.3715   70.4895  223.9323 H   0  0  0  0  0  0  0  0  0  0  0  0
  140.5977   72.1068  223.7793 H   0  0  0  0  0  0  0  0  0  0  0  0
  142.1060   71.7527  225.8083 H   0  0  0  0  0  0  0  0  0  0  0  0
  140.4271   72.3597  226.1265 H   0  0  0  0  0  0  0  0  0  0  0  0
  141.9443   68.9446  225.6054 H   0  0  0  0  0  0  0  0  0  0  0  0
  141.5284   67.0640  227.1328 H   0  0  0  0  0  0  0  0  0  0  0  0
  140.1104   67.3690  229.1464 H   0  0  0  0  0  0  0  0  0  0  0  0
  139.1294   69.6123  229.5846 H   0  0  0  0  0  0  0  0  0  0  0  0
  139.5474   71.4900  228.0600 H   0  0  0  0  0  0  0  0  0  0  0  0
  141.4694   76.0989  219.5133 H   0  0  0  0  0  0  0  0  0  0  0  0
  142.0420   78.5168  219.4239 H   0  0  0  0  0  0  0  0  0  0  0  0
  142.3158   80.5436  220.5500 H   0  0  0  0  0  0  0  0  0  0  0  0
  142.2511   81.8679  222.6784 H   0  0  0  0  0  0  0  0  0  0  0  0
  141.6367   80.7666  224.7763 H   0  0  0  0  0  0  0  0  0  0  0  0
  141.0622   78.3475  224.8556 H   0  0  0  0  0  0  0  0  0  0  0  0
  1  2  2  0
  2  3  1  0
  3  4  1  0
  4  5  1  0
  5  6  2  0
  5  7  1  0
  7  8  1  0
  8  9  1  0
  9 10  1  0
 10 11  1  0
 11 12  1  0
 12 13  1  0
 13 14  1  0
 14 15  2  0
 15 16  1  0
 16 17  2  0
 17 18  1  0
 18 19  2  0
  2 20  1  0
 20 21  2  0
 21 22  1  0
 22 23  2  0
 23 24  1  0
 24 25  2  0
 25 26  1  0
 26 27  2  0
 27 28  1  0
 28 29  2  0
 11  7  1  0
 19 14  1  0
 29 20  1  0
 28 23  1  0
  3 30  1  0
  4 31  1  0
  4 32  1  0
  8 33  1  0
  8 34  1  0
  9 35  1  0
  9 36  1  0
 10 37  1  0
 10 38  1  0
 11 39  1  1
 12 40  1  0
 12 41  1  0
 13 42  1  0
 13 43  1  0
 15 44  1  0
 16 45  1  0
 17 46  1  0
 18 47  1  0
 19 48  1  0
 21 49  1  0
 22 50  1  0
 24 51  1  0
 25 52  1  0
 26 53  1  0
 27 54  1  0
M  END
>  <smiles>  (100) 
O=C(NCC(=O)N1CCCC1CCc1ccccc1)c1ccc2ccccc2n1

>  <score_type>  (100) 
oracle

>  <origin>  (100) 
autodockgpu

>  <m_score__min__energy>  (100) 
-9.3699999999999992

>  <m_primary>  (100) 
energy

>  <rmsd>  (100) 
8.300547918581875

>  <m_score__min__rmsd>  (100) 
8.300547918581875

>  <meeko>  (100) 
{"free_energy": -8.87, "intermolecular_energy": -10.96, "internal_energy": -1.71, "cluster_size": 14, "cluster_id": 3, "rank_in_cluster": 1}

>  <energy>  (100) 
-7.9

>  <cluster_rmsd>  (100) 
0.73

>  <cluster>  (100) 
4

$$$$
