
     RDKit          3D

 38 39  0  0  0  0  0  0  0  0999 V2000
  139.3110   78.3580  220.9480 C   0  0  0  0  0  0  0  0  0  0  0  0
  140.6070   77.6770  221.2680 C   0  0  1  0  0  0  0  0  0  0  0  0
  140.6280   76.2900  220.8630 N   0  0  0  0  0  0  0  0  0  0  0  0
  139.9780   75.3150  221.6670 C   0  0  0  0  0  0  0  0  0  0  0  0
  139.3820   75.6250  222.7240 O   0  0  0  0  0  0  0  0  0  0  0  0
  139.9950   73.8850  221.2560 C   0  0  0  0  0  0  0  0  0  0  0  0
  139.9230   73.0380  222.4230 N   0  0  0  0  0  0  0  0  0  0  0  0
  140.0290   71.6260  222.3570 C   0  0  0  0  0  0  0  0  0  0  0  0
  140.1940   71.0360  221.2510 O   0  0  0  0  0  0  0  0  0  0  0  0
  139.9460   70.8380  223.5910 C   0  0  0  0  0  0  0  0  0  0  0  0
  139.4760   69.5500  223.5850 C   0  0  0  0  0  0  0  0  0  0  0  0
  139.4090   68.8330  224.7670 C   0  0  0  0  0  0  0  0  0  0  0  0
  139.8230   69.4300  225.9470 C   0  0  0  0  0  0  0  0  0  0  0  0
  139.7740   68.7450  227.1610 C   0  0  0  0  0  0  0  0  0  0  0  0
  140.1830   69.3310  228.3440 C   0  0  0  0  0  0  0  0  0  0  0  0
  140.6490   70.6310  228.2920 C   0  0  0  0  0  0  0  0  0  0  0  0
  140.7000   71.3180  227.0930 C   0  0  0  0  0  0  0  0  0  0  0  0
  140.2870   70.7090  225.9350 C   0  0  0  0  0  0  0  0  0  0  0  0
  140.3410   71.3850  224.7730 N   0  0  0  0  0  0  0  0  0  0  0  0
  141.6810   78.3770  220.5110 C   0  0  0  0  0  0  0  0  0  0  0  0
  142.1560   79.6790  220.8970 N   0  0  0  0  0  0  0  0  0  0  0  0
  142.2330   77.8780  219.4990 O   0  0  0  0  0  0  0  0  0  0  0  0
  138.7979   78.6276  221.8829 H   0  0  0  0  0  0  0  0  0  0  0  0
  139.5097   79.2682  220.3631 H   0  0  0  0  0  0  0  0  0  0  0  0
  138.6741   77.6781  220.3631 H   0  0  0  0  0  0  0  0  0  0  0  0
  140.7472   77.7153  222.3584 H   0  0  0  0  0  0  0  0  0  0  0  0
  141.1330   76.0660  219.9770 H   0  0  0  0  0  0  0  0  0  0  0  0
  139.1323   73.6824  220.6044 H   0  0  0  0  0  0  0  0  0  0  0  0
  140.9282   73.6751  220.7129 H   0  0  0  0  0  0  0  0  0  0  0  0
  139.7860   73.4620  223.3830 H   0  0  0  0  0  0  0  0  0  0  0  0
  139.1523   69.0867  222.6413 H   0  0  0  0  0  0  0  0  0  0  0  0
  139.0310   67.8000  224.7697 H   0  0  0  0  0  0  0  0  0  0  0  0
  139.3998   67.7107  227.1773 H   0  0  0  0  0  0  0  0  0  0  0  0
  140.1390   68.7808  229.2955 H   0  0  0  0  0  0  0  0  0  0  0  0
  140.9835   71.1254  229.2159 H   0  0  0  0  0  0  0  0  0  0  0  0
  141.0718   72.3530  227.0676 H   0  0  0  0  0  0  0  0  0  0  0  0
  141.6760   80.5220  220.5030 H   0  0  0  0  0  0  0  0  0  0  0  0
  142.9680   79.7350  221.5580 H   0  0  0  0  0  0  0  0  0  0  0  0
  1  2  1  0
  2  3  1  0
  3  4  1  0
  4  5  2  0
  4  6  1  0
  6  7  1  0
  7  8  1  0
  8  9  2  0
  8 10  1  0
 10 11  2  0
 11 12  1  0
 12 13  2  0
 13 14  1  0
 14 15  2  0
 15 16  1  0
 16 17  2  0
 17 18  1  0
 18 19  2  0
  2 20  1  0
 20 21  1  0
 20 22  2  0
 19 10  1  0
 18 13  1  0
  1 23  1  0
  1 24  1  0
  1 25  1  0
  2 26  1  1
  3 27  1  0
  6 28  1  0
  6 29  1  0
  7 30  1  0
 11 31  1  0
 12 32  1  0
 14 33  1  0
 15 34  1  0
 16 35  1  0
 17 36  1  0
 21 37  1  0
 21 38  1  0
M  END
>  <smiles>  (1) 
C[C@@H](NC(=O)CNC(=O)c1ccc2ccccc2n1)C(N)=O

>  <score_type>  (1) 
oracle

>  <origin>  (1) 
autodockgpu

>  <m_score__min__energy>  (1) 
-7.75

>  <m_primary>  (1) 
energy

>  <rmsd>  (1) 
1.7775525792878912

>  <m_score__min__rmsd>  (1) 
1.7775525792878912

>  <meeko>  (1) 
{"free_energy": -6.16, "intermolecular_energy": -7.65, "internal_energy": -2.19, "cluster_size": 20, "cluster_id": 1, "rank_in_cluster": 20}

>  <energy>  (1) 
-7.75

>  <cluster_rmsd>  (1) 
0.0

>  <cluster>  (1) 
1

$$$$

     RDKit          3D

 38 39  0  0  0  0  0  0  0  0999 V2000
  143.2980   75.5390  219.3020 C   0  0  0  0  0  0  0  0  0  0  0  0
  143.2920   74.5920  220.4620 C   0  0  1  0  0  0  0  0  0  0  0  0
  142.0800   73.8100  220.5440 N   0  0  0  0  0  0  0  0  0  0  0  0
  140.9970   74.2750  221.3370 C   0  0  0  0  0  0  0  0  0  0  0  0
  141.0630   75.3510  221.9730 O   0  0  0  0  0  0  0  0  0  0  0  0
  139.7460   73.4740  221.4240 C   0  0  0  0  0  0  0  0  0  0  0  0
  139.7860   72.6280  222.5940 N   0  0  0  0  0  0  0  0  0  0  0  0
  139.6520   71.2180  222.5300 C   0  0  0  0  0  0  0  0  0  0  0  0
  139.4900   70.6290  221.4230 O   0  0  0  0  0  0  0  0  0  0  0  0
  139.7040   70.4310  223.7660 C   0  0  0  0  0  0  0  0  0  0  0  0
  139.1840   69.1650  223.8280 C   0  0  0  0  0  0  0  0  0  0  0  0
  139.2480   68.4480  225.0110 C   0  0  0  0  0  0  0  0  0  0  0  0
  139.8430   69.0240  226.1220 C   0  0  0  0  0  0  0  0  0  0  0  0
  139.9300   68.3390  227.3340 C   0  0  0  0  0  0  0  0  0  0  0  0
  140.5200   68.9040  228.4480 C   0  0  0  0  0  0  0  0  0  0  0  0
  141.0290   70.1840  228.3290 C   0  0  0  0  0  0  0  0  0  0  0  0
  140.9460   70.8710  227.1320 C   0  0  0  0  0  0  0  0  0  0  0  0
  140.3540   70.2830  226.0430 C   0  0  0  0  0  0  0  0  0  0  0  0
  140.2790   70.9590  224.8810 N   0  0  0  0  0  0  0  0  0  0  0  0
  144.4230   73.6420  220.2740 C   0  0  0  0  0  0  0  0  0  0  0  0
  145.7930   74.0490  220.4440 N   0  0  0  0  0  0  0  0  0  0  0  0
  144.2520   72.4380  219.9570 O   0  0  0  0  0  0  0  0  0  0  0  0
  143.3046   76.5742  219.6738 H   0  0  0  0  0  0  0  0  0  0  0  0
  144.1951   75.3635  218.6900 H   0  0  0  0  0  0  0  0  0  0  0  0
  142.3988   75.3749  218.6900 H   0  0  0  0  0  0  0  0  0  0  0  0
  143.3742   75.1885  221.3826 H   0  0  0  0  0  0  0  0  0  0  0  0
  142.0590   72.9170  220.0010 H   0  0  0  0  0  0  0  0  0  0  0  0
  138.8825   74.1520  221.4931 H   0  0  0  0  0  0  0  0  0  0  0  0
  139.6539   72.8463  220.5254 H   0  0  0  0  0  0  0  0  0  0  0  0
  139.9190   73.0510  223.5550 H   0  0  0  0  0  0  0  0  0  0  0  0
  138.7159   68.7183  222.9385 H   0  0  0  0  0  0  0  0  0  0  0  0
  138.8308   67.4318  225.0682 H   0  0  0  0  0  0  0  0  0  0  0  0
  139.5177   67.3216  227.4046 H   0  0  0  0  0  0  0  0  0  0  0  0
  140.5828   68.3537  229.3984 H   0  0  0  0  0  0  0  0  0  0  0  0
  141.5060   70.6617  229.1975 H   0  0  0  0  0  0  0  0  0  0  0  0
  141.3547   71.8892  227.0528 H   0  0  0  0  0  0  0  0  0  0  0  0
  146.3060   74.4320  219.6150 H   0  0  0  0  0  0  0  0  0  0  0  0
  146.2270   73.9450  221.3930 H   0  0  0  0  0  0  0  0  0  0  0  0
  1  2  1  0
  2  3  1  0
  3  4  1  0
  4  5  2  0
  4  6  1  0
  6  7  1  0
  7  8  1  0
  8  9  2  0
  8 10  1  0
 10 11  2  0
 11 12  1  0
 12 13  2  0
 13 14  1  0
 14 15  2  0
 15 16  1  0
 16 17  2  0
 17 18  1  0
 18 19  2  0
  2 20  1  0
 20 21  1  0
 20 22  2  0
 19 10  1  0
 18 13  1  0
  1 23  1  0
  1 24  1  0
  1 25  1  0
  2 26  1  1
  3 27  1  0
  6 28  1  0
  6 29  1  0
  7 30  1  0
 11 31  1  0
 12 32  1  0
 14 33  1  0
 15 34  1  0
 16 35  1  0
 17 36  1  0
 21 37  1  0
 21 38  1  0
M  END
>  <smiles>  (2) 
C[C@@H](NC(=O)CNC(=O)c1ccc2ccccc2n1)C(N)=O

>  <score_type>  (2) 
oracle

>  <origin>  (2) 
autodockgpu

>  <m_score__min__energy>  (2) 
-7.75

>  <m_primary>  (2) 
energy

>  <rmsd>  (2) 
2.6781318799640665

>  <m_score__min__rmsd>  (2) 
2.6781318799640665

>  <meeko>  (2) 
{"free_energy": -6.81, "intermolecular_energy": -8.3, "internal_energy": -1.8, "cluster_size": 17, "cluster_id": 2, "rank_in_cluster": 6}

>  <energy>  (2) 
-7.69

>  <cluster_rmsd>  (2) 
0.2

>  <cluster>  (2) 
1

$$$$

     RDKit          3D

 38 39  0  0  0  0  0  0  0  0999 V2000
  145.1250   70.6170  219.1810 C   0  0  0  0  0  0  0  0  0  0  0  0
  144.6910   72.0510  219.1950 C   0  0  1  0  0  0  0  0  0  0  0  0
  143.3810   72.2360  219.7760 N   0  0  0  0  0  0  0  0  0  0  0  0
  142.9810   73.5290  220.2080 C   0  0  0  0  0  0  0  0  0  0  0  0
  143.7370   74.5210  220.0990 O   0  0  0  0  0  0  0  0  0  0  0  0
  141.6330   73.7260  220.8060 C   0  0  0  0  0  0  0  0  0  0  0  0
  141.5000   75.0840  221.2800 N   0  0  0  0  0  0  0  0  0  0  0  0
  140.3670   75.5410  221.9990 C   0  0  0  0  0  0  0  0  0  0  0  0
  139.4060   74.7630  222.2620 O   0  0  0  0  0  0  0  0  0  0  0  0
  140.3100   76.9360  222.4450 C   0  0  0  0  0  0  0  0  0  0  0  0
  139.1150   77.5550  222.7030 C   0  0  0  0  0  0  0  0  0  0  0  0
  139.0950   78.8740  223.1220 C   0  0  0  0  0  0  0  0  0  0  0  0
  140.2930   79.5550  223.2780 C   0  0  0  0  0  0  0  0  0  0  0  0
  140.3210   80.8840  223.6990 C   0  0  0  0  0  0  0  0  0  0  0  0
  141.5090   81.5720  223.8570 C   0  0  0  0  0  0  0  0  0  0  0  0
  142.6850   80.8990  223.5840 C   0  0  0  0  0  0  0  0  0  0  0  0
  142.6660   79.5810  223.1660 C   0  0  0  0  0  0  0  0  0  0  0  0
  141.4710   78.9250  223.0180 C   0  0  0  0  0  0  0  0  0  0  0  0
  141.4620   77.6420  222.6110 N   0  0  0  0  0  0  0  0  0  0  0  0
  145.6600   72.8060  220.0360 C   0  0  0  0  0  0  0  0  0  0  0  0
  145.4810   72.9520  221.4560 N   0  0  0  0  0  0  0  0  0  0  0  0
  146.6850   73.3570  219.5610 O   0  0  0  0  0  0  0  0  0  0  0  0
  145.2340   70.2568  220.2146 H   0  0  0  0  0  0  0  0  0  0  0  0
  144.3702   70.0105  218.6590 H   0  0  0  0  0  0  0  0  0  0  0  0
  146.0894   70.5309  218.6590 H   0  0  0  0  0  0  0  0  0  0  0  0
  144.6540   72.4013  218.1529 H   0  0  0  0  0  0  0  0  0  0  0  0
  142.7760   71.3880  219.8520 H   0  0  0  0  0  0  0  0  0  0  0  0
  140.8638   73.5282  220.0450 H   0  0  0  0  0  0  0  0  0  0  0  0
  141.5065   73.0331  221.6509 H   0  0  0  0  0  0  0  0  0  0  0  0
  142.2660   75.7910  221.0960 H   0  0  0  0  0  0  0  0  0  0  0  0
  138.1716   77.0036  222.5771 H   0  0  0  0  0  0  0  0  0  0  0  0
  138.1388   79.3769  223.3291 H   0  0  0  0  0  0  0  0  0  0  0  0
  139.3721   81.3985  223.9110 H   0  0  0  0  0  0  0  0  0  0  0  0
  141.5184   82.6206  224.1891 H   0  0  0  0  0  0  0  0  0  0  0  0
  143.6477   81.4182  223.7007 H   0  0  0  0  0  0  0  0  0  0  0  0
  143.6101   79.0585  222.9521 H   0  0  0  0  0  0  0  0  0  0  0  0
  144.9250   73.7670  221.8070 H   0  0  0  0  0  0  0  0  0  0  0  0
  145.9150   72.2360  222.0870 H   0  0  0  0  0  0  0  0  0  0  0  0
  1  2  1  0
  2  3  1  0
  3  4  1  0
  4  5  2  0
  4  6  1  0
  6  7  1  0
  7  8  1  0
  8  9  2  0
  8 10  1  0
 10 11  2  0
 11 12  1  0
 12 13  2  0
 13 14  1  0
 14 15  2  0
 15 16  1  0
 16 17  2  0
 17 18  1  0
 18 19  2  0
  2 20  1  0
 20 21  1  0
 20 22  2  0
 19 10  1  0
 18 13  1  0
  1 23  1  0
  1 24  1  0
  1 25  1  0
  2 26  1  6
  3 27  1  0
  6 28  1  0
  6 29  1  0
  7 30  1  0
 11 31  1  0
 12 32  1  0
 14 33  1  0
 15 34  1  0
 16 35  1  0
 17 36  1  0
 21 37  1  0
 21 38  1  0
M  END
>  <smiles>  (3) 
C[C@@H](NC(=O)CNC(=O)c1ccc2ccccc2n1)C(N)=O

>  <score_type>  (3) 
oracle

>  <origin>  (3) 
autodockgpu

>  <m_score__min__energy>  (3) 
-7.75

>  <m_primary>  (3) 
energy

>  <rmsd>  (3) 
8.15297671927274

>  <m_score__min__rmsd>  (3) 
8.15297671927274

>  <meeko>  (3) 
{"free_energy": -6.78, "intermolecular_energy": -8.27, "internal_energy": -1.96, "cluster_size": 9, "cluster_id": 3, "rank_in_cluster": 4}

>  <energy>  (3) 
-7.68

>  <cluster_rmsd>  (3) 
0.2

>  <cluster>  (3) 
1

$$$$

     RDKit          3D

 38 39  0  0  0  0  0  0  0  0999 V2000
  146.2190   73.1500  220.7770 C   0  0  0  0  0  0  0  0  0  0  0  0
  145.2760   72.1920  220.1160 C   0  0  1  0  0  0  0  0  0  0  0  0
  143.9080   72.3610  220.5470 N   0  0  0  0  0  0  0  0  0  0  0  0
  143.2670   73.6170  220.3700 C   0  0  0  0  0  0  0  0  0  0  0  0
  143.8580   74.5890  219.8470 O   0  0  0  0  0  0  0  0  0  0  0  0
  141.8580   73.7980  220.8120 C   0  0  0  0  0  0  0  0  0  0  0  0
  141.6620   75.1470  221.2890 N   0  0  0  0  0  0  0  0  0  0  0  0
  140.4650   75.5760  221.9160 C   0  0  0  0  0  0  0  0  0  0  0  0
  139.4990   74.7800  222.0880 O   0  0  0  0  0  0  0  0  0  0  0  0
  140.3470   76.9640  222.3720 C   0  0  0  0  0  0  0  0  0  0  0  0
  139.1270   77.5250  222.6440 C   0  0  0  0  0  0  0  0  0  0  0  0
  139.0490   78.8400  223.0720 C   0  0  0  0  0  0  0  0  0  0  0  0
  140.2140   79.5740  223.2220 C   0  0  0  0  0  0  0  0  0  0  0  0
  140.1840   80.9010  223.6520 C   0  0  0  0  0  0  0  0  0  0  0  0
  141.3400   81.6430  223.8030 C   0  0  0  0  0  0  0  0  0  0  0  0
  142.5440   81.0270  223.5160 C   0  0  0  0  0  0  0  0  0  0  0  0
  142.5830   79.7120  223.0890 C   0  0  0  0  0  0  0  0  0  0  0  0
  141.4190   79.0020  222.9470 C   0  0  0  0  0  0  0  0  0  0  0  0
  141.4660   77.7230  222.5320 N   0  0  0  0  0  0  0  0  0  0  0  0
  145.3170   72.4580  218.6520 C   0  0  0  0  0  0  0  0  0  0  0  0
  145.6700   73.7500  218.1250 N   0  0  0  0  0  0  0  0  0  0  0  0
  145.0470   71.5800  217.7950 O   0  0  0  0  0  0  0  0  0  0  0  0
  146.1288   73.0584  221.8695 H   0  0  0  0  0  0  0  0  0  0  0  0
  147.2504   72.9175  220.4735 H   0  0  0  0  0  0  0  0  0  0  0  0
  145.9703   74.1776  220.4735 H   0  0  0  0  0  0  0  0  0  0  0  0
  145.5923   71.1725  220.3818 H   0  0  0  0  0  0  0  0  0  0  0  0
  143.4440   71.5310  220.9800 H   0  0  0  0  0  0  0  0  0  0  0  0
  141.1827   73.6091  219.9645 H   0  0  0  0  0  0  0  0  0  0  0  0
  141.6400   73.0908  221.6259 H   0  0  0  0  0  0  0  0  0  0  0  0
  142.4280   75.8690  221.1780 H   0  0  0  0  0  0  0  0  0  0  0  0
  138.2092   76.9309  222.5224 H   0  0  0  0  0  0  0  0  0  0  0  0
  138.0723   79.2965  223.2905 H   0  0  0  0  0  0  0  0  0  0  0  0
  139.2143   81.3691  223.8768 H   0  0  0  0  0  0  0  0  0  0  0  0
  141.3034   82.6893  224.1404 H   0  0  0  0  0  0  0  0  0  0  0  0
  143.4825   81.5896  223.6286 H   0  0  0  0  0  0  0  0  0  0  0  0
  143.5485   79.2357  222.8633 H   0  0  0  0  0  0  0  0  0  0  0  0
  144.9090   74.4530  217.9780 H   0  0  0  0  0  0  0  0  0  0  0  0
  146.6790   73.9370  217.9070 H   0  0  0  0  0  0  0  0  0  0  0  0
  1  2  1  0
  2  3  1  0
  3  4  1  0
  4  5  2  0
  4  6  1  0
  6  7  1  0
  7  8  1  0
  8  9  2  0
  8 10  1  0
 10 11  2  0
 11 12  1  0
 12 13  2  0
 13 14  1  0
 14 15  2  0
 15 16  1  0
 16 17  2  0
 17 18  1  0
 18 19  2  0
  2 20  1  0
 20 21  1  0
 20 22  2  0
 19 10  1  0
 18 13  1  0
  1 23  1  0
  1 24  1  0
  1 25  1  0
  2 26  1  6
  3 27  1  0
  6 28  1  0
  6 29  1  0
  7 30  1  0
 11 31  1  0
 12 32  1  0
 14 33  1  0
 15 34  1  0
 16 35  1  0
 17 36  1  0
 21 37  1  0
 21 38  1  0
M  END
>  <smiles>  (4) 
C[C@@H](NC(=O)CNC(=O)c1ccc2ccccc2n1)C(N)=O

>  <score_type>  (4) 
oracle

>  <origin>  (4) 
autodockgpu

>  <m_score__min__energy>  (4) 
-7.75

>  <m_primary>  (4) 
energy

>  <rmsd>  (4) 
8.208176362890113

>  <m_score__min__rmsd>  (4) 
8.208176362890113

>  <meeko>  (4) 
{"free_energy": -6.36, "intermolecular_energy": -7.85, "internal_energy": -2.13, "cluster_size": 9, "cluster_id": 3, "rank_in_cluster": 8}

>  <energy>  (4) 
-7.64

>  <cluster_rmsd>  (4) 
0.23

>  <cluster>  (4) 
1

$$$$

     RDKit          3D

 38 39  0  0  0  0  0  0  0  0999 V2000
  144.0580   74.5710  218.8190 C   0  0  0  0  0  0  0  0  0  0  0  0
  143.8890   73.8370  220.1140 C   0  0  1  0  0  0  0  0  0  0  0  0
  142.5150   73.4830  220.3850 N   0  0  0  0  0  0  0  0  0  0  0  0
  141.8480   72.5600  219.5350 C   0  0  0  0  0  0  0  0  0  0  0  0
  142.4220   72.0400  218.5510 O   0  0  0  0  0  0  0  0  0  0  0  0
  140.4330   72.1910  219.8090 C   0  0  0  0  0  0  0  0  0  0  0  0
  140.3420   71.4970  221.0720 N   0  0  0  0  0  0  0  0  0  0  0  0
  140.3090   72.1710  222.3190 C   0  0  0  0  0  0  0  0  0  0  0  0
  140.3590   73.4330  222.3790 O   0  0  0  0  0  0  0  0  0  0  0  0
  140.2150   71.3920  223.5580 C   0  0  0  0  0  0  0  0  0  0  0  0
  139.6590   70.1390  223.5720 C   0  0  0  0  0  0  0  0  0  0  0  0
  139.5840   69.4290  224.7580 C   0  0  0  0  0  0  0  0  0  0  0  0
  140.0760   69.9980  225.9220 C   0  0  0  0  0  0  0  0  0  0  0  0
  140.0220   69.3190  227.1390 C   0  0  0  0  0  0  0  0  0  0  0  0
  140.5080   69.8770  228.3060 C   0  0  0  0  0  0  0  0  0  0  0  0
  141.0590   71.1430  228.2330 C   0  0  0  0  0  0  0  0  0  0  0  0
  141.1160   71.8240  227.0310 C   0  0  0  0  0  0  0  0  0  0  0  0
  140.6240   71.2430  225.8900 C   0  0  0  0  0  0  0  0  0  0  0  0
  140.6850   71.9130  224.7240 N   0  0  0  0  0  0  0  0  0  0  0  0
  144.6640   72.5700  220.0180 C   0  0  0  0  0  0  0  0  0  0  0  0
  144.1450   71.3220  220.5130 N   0  0  0  0  0  0  0  0  0  0  0  0
  145.8090   72.5120  219.5030 O   0  0  0  0  0  0  0  0  0  0  0  0
  144.3005   75.6243  219.0235 H   0  0  0  0  0  0  0  0  0  0  0  0
  144.8740   74.1123  218.2413 H   0  0  0  0  0  0  0  0  0  0  0  0
  143.1235   74.5153  218.2413 H   0  0  0  0  0  0  0  0  0  0  0  0
  144.2353   74.4981  220.9221 H   0  0  0  0  0  0  0  0  0  0  0  0
  142.0670   73.9350  221.2130 H   0  0  0  0  0  0  0  0  0  0  0  0
  139.8194   73.1031  219.8489 H   0  0  0  0  0  0  0  0  0  0  0  0
  140.0685   71.5325  219.0068 H   0  0  0  0  0  0  0  0  0  0  0  0
  140.2960   70.4400  221.1000 H   0  0  0  0  0  0  0  0  0  0  0  0
  139.2726   69.6980  222.6413 H   0  0  0  0  0  0  0  0  0  0  0  0
  139.1384   68.4234  224.7763 H   0  0  0  0  0  0  0  0  0  0  0  0
  139.5806   68.3120  227.1708 H   0  0  0  0  0  0  0  0  0  0  0  0
  140.4582   69.3326  229.2605 H   0  0  0  0  0  0  0  0  0  0  0  0
  141.4574   71.6147  229.1434 H   0  0  0  0  0  0  0  0  0  0  0  0
  141.5558   72.8314  226.9898 H   0  0  0  0  0  0  0  0  0  0  0  0
  144.3300   71.0670  221.5110 H   0  0  0  0  0  0  0  0  0  0  0  0
  143.6000   70.7160  219.8540 H   0  0  0  0  0  0  0  0  0  0  0  0
  1  2  1  0
  2  3  1  0
  3  4  1  0
  4  5  2  0
  4  6  1  0
  6  7  1  0
  7  8  1  0
  8  9  2  0
  8 10  1  0
 10 11  2  0
 11 12  1  0
 12 13  2  0
 13 14  1  0
 14 15  2  0
 15 16  1  0
 16 17  2  0
 17 18  1  0
 18 19  2  0
  2 20  1  0
 20 21  1  0
 20 22  2  0
 19 10  1  0
 18 13  1  0
  1 23  1  0
  1 24  1  0
  1 25  1  0
  2 26  1  1
  3 27  1  0
  6 28  1  0
  6 29  1  0
  7 30  1  0
 11 31  1  0
 12 32  1  0
 14 33  1  0
 15 34  1  0
 16 35  1  0
 17 36  1  0
 21 37  1  0
 21 38  1  0
M  END
>  <smiles>  (5) 
C[C@@H](NC(=O)CNC(=O)c1ccc2ccccc2n1)C(N)=O

>  <score_type>  (5) 
oracle

>  <origin>  (5) 
autodockgpu

>  <m_score__min__energy>  (5) 
-7.75

>  <m_primary>  (5) 
energy

>  <rmsd>  (5) 
3.610605060875674

>  <m_score__min__rmsd>  (5) 
3.610605060875674

>  <meeko>  (5) 
{"free_energy": -6.56, "intermolecular_energy": -8.05, "internal_energy": -2.02, "cluster_size": 17, "cluster_id": 2, "rank_in_cluster": 14}

>  <energy>  (5) 
-7.43

>  <cluster_rmsd>  (5) 
0.88

>  <cluster>  (5) 
1

$$$$

     RDKit          3D

 38 39  0  0  0  0  0  0  0  0999 V2000
  139.6320   79.4360  222.2330 C   0  0  0  0  0  0  0  0  0  0  0  0
  140.5270   78.5520  223.0450 C   0  0  1  0  0  0  0  0  0  0  0  0
  140.8390   77.3070  222.3820 N   0  0  0  0  0  0  0  0  0  0  0  0
  139.8020   76.3690  222.1280 C   0  0  0  0  0  0  0  0  0  0  0  0
  138.6170   76.5930  222.4630 O   0  0  0  0  0  0  0  0  0  0  0  0
  140.1160   75.0850  221.4450 C   0  0  0  0  0  0  0  0  0  0  0  0
  139.8350   73.9780  222.3290 N   0  0  0  0  0  0  0  0  0  0  0  0
  140.6030   72.7860  222.3390 C   0  0  0  0  0  0  0  0  0  0  0  0
  141.5870   72.6400  221.5600 O   0  0  0  0  0  0  0  0  0  0  0  0
  140.2510   71.7090  223.2690 C   0  0  0  0  0  0  0  0  0  0  0  0
  139.4760   70.6500  222.8740 C   0  0  0  0  0  0  0  0  0  0  0  0
  139.1600   69.6490  223.7770 C   0  0  0  0  0  0  0  0  0  0  0  0
  139.6370   69.7310  225.0750 C   0  0  0  0  0  0  0  0  0  0  0  0
  139.3440   68.7460  226.0180 C   0  0  0  0  0  0  0  0  0  0  0  0
  139.8140   68.8180  227.3160 C   0  0  0  0  0  0  0  0  0  0  0  0
  140.5920   69.9080  227.6600 C   0  0  0  0  0  0  0  0  0  0  0  0
  140.8860   70.8900  226.7320 C   0  0  0  0  0  0  0  0  0  0  0  0
  140.4050   70.7900  225.4510 C   0  0  0  0  0  0  0  0  0  0  0  0
  140.6970   71.7500  224.5540 N   0  0  0  0  0  0  0  0  0  0  0  0
  141.8100   79.2790  223.2510 C   0  0  0  0  0  0  0  0  0  0  0  0
  142.9350   79.0990  222.3720 N   0  0  0  0  0  0  0  0  0  0  0  0
  141.9880   80.0870  224.1980 O   0  0  0  0  0  0  0  0  0  0  0  0
  139.0127   80.0477  222.9055 H   0  0  0  0  0  0  0  0  0  0  0  0
  140.2441   80.0939  221.5985 H   0  0  0  0  0  0  0  0  0  0  0  0
  138.9818   78.8159  221.5985 H   0  0  0  0  0  0  0  0  0  0  0  0
  140.0048   78.3160  223.9840 H   0  0  0  0  0  0  0  0  0  0  0  0
  141.8370   77.1520  222.1160 H   0  0  0  0  0  0  0  0  0  0  0  0
  139.4998   74.9936  220.5384 H   0  0  0  0  0  0  0  0  0  0  0  0
  141.1816   75.0702  221.1725 H   0  0  0  0  0  0  0  0  0  0  0  0
  139.0260   74.0300  223.0100 H   0  0  0  0  0  0  0  0  0  0  0  0
  139.1051   70.5952  221.8399 H   0  0  0  0  0  0  0  0  0  0  0  0
  138.5366   68.7974  223.4669 H   0  0  0  0  0  0  0  0  0  0  0  0
  138.7221   67.8887  225.7208 H   0  0  0  0  0  0  0  0  0  0  0  0
  139.5770   68.0343  228.0506 H   0  0  0  0  0  0  0  0  0  0  0  0
  140.9820   69.9951  228.6849 H   0  0  0  0  0  0  0  0  0  0  0  0
  141.5057   71.7517  227.0209 H   0  0  0  0  0  0  0  0  0  0  0  0
  143.6210   78.3380  222.5890 H   0  0  0  0  0  0  0  0  0  0  0  0
  143.0260   79.7380  221.5450 H   0  0  0  0  0  0  0  0  0  0  0  0
  1  2  1  0
  2  3  1  0
  3  4  1  0
  4  5  2  0
  4  6  1  0
  6  7  1  0
  7  8  1  0
  8  9  2  0
  8 10  1  0
 10 11  2  0
 11 12  1  0
 12 13  2  0
 13 14  1  0
 14 15  2  0
 15 16  1  0
 16 17  2  0
 17 18  1  0
 18 19  2  0
  2 20  1  0
 20 21  1  0
 20 22  2  0
 19 10  1  0
 18 13  1  0
  1 23  1  0
  1 24  1  0
  1 25  1  0
  2 26  1  1
  3 27  1  0
  6 28  1  0
  6 29  1  0
  7 30  1  0
 11 31  1  0
 12 32  1  0
 14 33  1  0
 15 34  1  0
 16 35  1  0
 17 36  1  0
 21 37  1  0
 21 38  1  0
M  END
>  <smiles>  (6) 
C[C@@H](NC(=O)CNC(=O)c1ccc2ccccc2n1)C(N)=O

>  <score_type>  (6) 
oracle

>  <origin>  (6) 
autodockgpu

>  <m_score__min__energy>  (6) 
-7.75

>  <m_primary>  (6) 
energy

>  <rmsd>  (6) 
2.623692755527684

>  <m_score__min__rmsd>  (6) 
2.623692755527684

>  <meeko>  (6) 
{"free_energy": -7.75, "intermolecular_energy": -9.24, "internal_energy": -1.03, "cluster_size": 20, "cluster_id": 1, "rank_in_cluster": 1}

>  <energy>  (6) 
-6.56

>  <cluster_rmsd>  (6) 
1.55

>  <cluster>  (6) 
1

$$$$

     RDKit          3D

 38 39  0  0  0  0  0  0  0  0999 V2000
  138.5370   77.8530  220.2400 C   0  0  0  0  0  0  0  0  0  0  0  0
  139.2610   76.8000  221.0200 C   0  0  1  0  0  0  0  0  0  0  0  0
  138.6090   75.5110  220.9650 N   0  0  0  0  0  0  0  0  0  0  0  0
  139.2050   74.3950  221.6100 C   0  0  0  0  0  0  0  0  0  0  0  0
  140.2890   74.4960  222.2300 O   0  0  0  0  0  0  0  0  0  0  0  0
  138.5390   73.0660  221.5580 C   0  0  0  0  0  0  0  0  0  0  0  0
  138.9390   72.2710  222.6960 N   0  0  0  0  0  0  0  0  0  0  0  0
  138.5650   70.9130  222.8550 C   0  0  0  0  0  0  0  0  0  0  0  0
  137.8530   70.3280  221.9910 O   0  0  0  0  0  0  0  0  0  0  0  0
  139.0140   70.1760  224.0410 C   0  0  0  0  0  0  0  0  0  0  0  0
  138.8250   68.8230  224.1540 C   0  0  0  0  0  0  0  0  0  0  0  0
  139.2590   68.1560  225.2870 C   0  0  0  0  0  0  0  0  0  0  0  0
  139.8850   68.8710  226.2960 C   0  0  0  0  0  0  0  0  0  0  0  0
  140.3400   68.2410  227.4550 C   0  0  0  0  0  0  0  0  0  0  0  0
  140.9640   68.9430  228.4680 C   0  0  0  0  0  0  0  0  0  0  0  0
  141.1290   70.3050  228.3010 C   0  0  0  0  0  0  0  0  0  0  0  0
  140.6810   70.9380  227.1560 C   0  0  0  0  0  0  0  0  0  0  0  0
  140.0650   70.2140  226.1680 C   0  0  0  0  0  0  0  0  0  0  0  0
  139.6330   70.8380  225.0570 N   0  0  0  0  0  0  0  0  0  0  0  0
  140.6110   76.6400  220.4140 C   0  0  0  0  0  0  0  0  0  0  0  0
  141.7990   76.5420  221.2210 N   0  0  0  0  0  0  0  0  0  0  0  0
  140.7960   76.5830  219.1720 O   0  0  0  0  0  0  0  0  0  0  0  0
  138.0536   78.5561  220.9342 H   0  0  0  0  0  0  0  0  0  0  0  0
  139.2528   78.3971  219.6064 H   0  0  0  0  0  0  0  0  0  0  0  0
  137.7727   77.3794  219.6064 H   0  0  0  0  0  0  0  0  0  0  0  0
  139.2911   77.1219  222.0714 H   0  0  0  0  0  0  0  0  0  0  0  0
  137.7070   75.4630  220.4400 H   0  0  0  0  0  0  0  0  0  0  0  0
  137.4478   73.2039  221.5748 H   0  0  0  0  0  0  0  0  0  0  0  0
  138.8341   72.5488  220.6331 H   0  0  0  0  0  0  0  0  0  0  0  0
  139.5360   72.6950  223.4600 H   0  0  0  0  0  0  0  0  0  0  0  0
  138.3286   68.2674  223.3447 H   0  0  0  0  0  0  0  0  0  0  0  0
  139.1087   67.0708  225.3853 H   0  0  0  0  0  0  0  0  0  0  0  0
  140.1979   67.1558  227.5650 H   0  0  0  0  0  0  0  0  0  0  0  0
  141.3178   68.4349  229.3772 H   0  0  0  0  0  0  0  0  0  0  0  0
  141.6229   70.8929  229.0887 H   0  0  0  0  0  0  0  0  0  0  0  0
  140.8189   72.0229  227.0379 H   0  0  0  0  0  0  0  0  0  0  0  0
  142.2960   77.4250  221.4850 H   0  0  0  0  0  0  0  0  0  0  0  0
  142.1220   75.5890  221.5140 H   0  0  0  0  0  0  0  0  0  0  0  0
  1  2  1  0
  2  3  1  0
  3  4  1  0
  4  5  2  0
  4  6  1  0
  6  7  1  0
  7  8  1  0
  8  9  2  0
  8 10  1  0
 10 11  2  0
 11 12  1  0
 12 13  2  0
 13 14  1  0
 14 15  2  0
 15 16  1  0
 16 17  2  0
 17 18  1  0
 18 19  2  0
  2 20  1  0
 20 21  1  0
 20 22  2  0
 19 10  1  0
 18 13  1  0
  1 23  1  0
  1 24  1  0
  1 25  1  0
  2 26  1  1
  3 27  1  0
  6 28  1  0
  6 29  1  0
  7 30  1  0
 11 31  1  0
 12 32  1  0
 14 33  1  0
 15 34  1  0
 16 35  1  0
 17 36  1  0
 21 37  1  0
 21 38  1  0
M  END
>  <smiles>  (7) 
C[C@@H](NC(=O)CNC(=O)c1ccc2ccccc2n1)C(N)=O

>  <score_type>  (7) 
oracle

>  <origin>  (7) 
autodockgpu

>  <m_score__min__energy>  (7) 
-7.75

>  <m_primary>  (7) 
energy

>  <rmsd>  (7) 
1.6086741629958703

>  <m_score__min__rmsd>  (7) 
1.6086741629958703

>  <meeko>  (7) 
{"free_energy": -6.24, "intermolecular_energy": -7.73, "internal_energy": -2.17, "cluster_size": 2, "cluster_id": 5, "rank_in_cluster": 2}

>  <energy>  (7) 
-6.55

>  <cluster_rmsd>  (7) 
1.79

>  <cluster>  (7) 
1

$$$$

     RDKit          3D

 38 39  0  0  0  0  0  0  0  0999 V2000
  141.8430   75.7320  219.7940 C   0  0  0  0  0  0  0  0  0  0  0  0
  140.4270   76.1920  219.9580 C   0  0  1  0  0  0  0  0  0  0  0  0
  139.4990   75.1000  220.1420 N   0  0  0  0  0  0  0  0  0  0  0  0
  139.5400   74.3370  221.3400 C   0  0  0  0  0  0  0  0  0  0  0  0
  140.3650   74.5870  222.2490 O   0  0  0  0  0  0  0  0  0  0  0  0
  138.5870   73.2130  221.5350 C   0  0  0  0  0  0  0  0  0  0  0  0
  138.9800   72.4300  222.6840 N   0  0  0  0  0  0  0  0  0  0  0  0
  138.6090   71.0720  222.8530 C   0  0  0  0  0  0  0  0  0  0  0  0
  137.9060   70.4760  221.9890 O   0  0  0  0  0  0  0  0  0  0  0  0
  139.0510   70.3480  224.0500 C   0  0  0  0  0  0  0  0  0  0  0  0
  138.8570   68.9970  224.1780 C   0  0  0  0  0  0  0  0  0  0  0  0
  139.2840   68.3420  225.3210 C   0  0  0  0  0  0  0  0  0  0  0  0
  139.9080   69.0670  226.3240 C   0  0  0  0  0  0  0  0  0  0  0  0
  140.3550   68.4490  227.4920 C   0  0  0  0  0  0  0  0  0  0  0  0
  140.9770   69.1620  228.5000 C   0  0  0  0  0  0  0  0  0  0  0  0
  141.1480   70.5210  228.3170 C   0  0  0  0  0  0  0  0  0  0  0  0
  140.7070   71.1420  227.1630 C   0  0  0  0  0  0  0  0  0  0  0  0
  140.0920   70.4080  226.1810 C   0  0  0  0  0  0  0  0  0  0  0  0
  139.6670   71.0200  225.0600 N   0  0  0  0  0  0  0  0  0  0  0  0
  140.3680   77.0360  221.1830 C   0  0  0  0  0  0  0  0  0  0  0  0
  141.4480   77.0730  222.1330 N   0  0  0  0  0  0  0  0  0  0  0  0
  139.3800   77.7620  221.4590 O   0  0  0  0  0  0  0  0  0  0  0  0
  142.2976   75.5843  220.7847 H   0  0  0  0  0  0  0  0  0  0  0  0
  141.8581   74.7827  219.2384 H   0  0  0  0  0  0  0  0  0  0  0  0
  142.4131   76.4911  219.2384 H   0  0  0  0  0  0  0  0  0  0  0  0
  140.1404   76.7316  219.0433 H   0  0  0  0  0  0  0  0  0  0  0  0
  138.8250   74.9200  219.3640 H   0  0  0  0  0  0  0  0  0  0  0  0
  137.5761   73.6155  221.6962 H   0  0  0  0  0  0  0  0  0  0  0  0
  138.5936   72.5728  220.6405 H   0  0  0  0  0  0  0  0  0  0  0  0
  139.5700   72.8630  223.4490 H   0  0  0  0  0  0  0  0  0  0  0  0
  138.3624   68.4335  223.3732 H   0  0  0  0  0  0  0  0  0  0  0  0
  139.1297   67.2585  225.4316 H   0  0  0  0  0  0  0  0  0  0  0  0
  140.2087   67.3656  227.6142 H   0  0  0  0  0  0  0  0  0  0  0  0
  141.3243   68.6640  229.4173 H   0  0  0  0  0  0  0  0  0  0  0  0
  141.6413   71.1164  229.0994 H   0  0  0  0  0  0  0  0  0  0  0  0
  140.8494   72.2249  227.0324 H   0  0  0  0  0  0  0  0  0  0  0  0
  141.4470   76.3770  222.9160 H   0  0  0  0  0  0  0  0  0  0  0  0
  142.1970   77.7960  222.0060 H   0  0  0  0  0  0  0  0  0  0  0  0
  1  2  1  0
  2  3  1  0
  3  4  1  0
  4  5  2  0
  4  6  1  0
  6  7  1  0
  7  8  1  0
  8  9  2  0
  8 10  1  0
 10 11  2  0
 11 12  1  0
 12 13  2  0
 13 14  1  0
 14 15  2  0
 15 16  1  0
 16 17  2  0
 17 18  1  0
 18 19  2  0
  2 20  1  0
 20 21  1  0
 20 22  2  0
 19 10  1  0
 18 13  1  0
  1 23  1  0
  1 24  1  0
  1 25  1  0
  2 26  1  6
  3 27  1  0
  6 28  1  0
  6 29  1  0
  7 30  1  0
 11 31  1  0
 12 32  1  0
 14 33  1  0
 15 34  1  0
 16 35  1  0
 17 36  1  0
 21 37  1  0
 21 38  1  0
M  END
>  <smiles>  (8) 
C[C@@H](NC(=O)CNC(=O)c1ccc2ccccc2n1)C(N)=O

>  <score_type>  (8) 
oracle

>  <origin>  (8) 
autodockgpu

>  <m_score__min__energy>  (8) 
-7.75

>  <m_primary>  (8) 
energy

>  <rmsd>  (8) 
1.4272519141453086

>  <m_score__min__rmsd>  (8) 
1.4272519141453086

>  <meeko>  (8) 
{"free_energy": -6.36, "intermolecular_energy": -7.85, "internal_energy": -2.21, "cluster_size": 20, "cluster_id": 1, "rank_in_cluster": 16}

>  <energy>  (8) 
-6.55

>  <cluster_rmsd>  (8) 
1.55

>  <cluster>  (8) 
1

$$$$

     RDKit          3D

 38 39  0  0  0  0  0  0  0  0999 V2000
  144.9370   70.5230  219.0450 C   0  0  0  0  0  0  0  0  0  0  0  0
  144.5290   71.9610  219.1440 C   0  0  1  0  0  0  0  0  0  0  0  0
  143.2790   72.1440  219.8460 N   0  0  0  0  0  0  0  0  0  0  0  0
  142.8780   73.4500  220.2350 C   0  0  0  0  0  0  0  0  0  0  0  0
  143.5820   74.4560  219.9840 O   0  0  0  0  0  0  0  0  0  0  0  0
  141.5930   73.6460  220.9580 C   0  0  0  0  0  0  0  0  0  0  0  0
  141.4870   75.0140  221.4090 N   0  0  0  0  0  0  0  0  0  0  0  0
  140.2980   75.5510  221.9640 C   0  0  0  0  0  0  0  0  0  0  0  0
  139.2600   74.8420  222.0910 O   0  0  0  0  0  0  0  0  0  0  0  0
  140.2740   76.9510  222.3990 C   0  0  0  0  0  0  0  0  0  0  0  0
  139.0930   77.5990  222.6540 C   0  0  0  0  0  0  0  0  0  0  0  0
  139.1030   78.9220  223.0620 C   0  0  0  0  0  0  0  0  0  0  0  0
  140.3160   79.5770  223.2090 C   0  0  0  0  0  0  0  0  0  0  0  0
  140.3750   80.9090  223.6190 C   0  0  0  0  0  0  0  0  0  0  0  0
  141.5780   81.5720  223.7680 C   0  0  0  0  0  0  0  0  0  0  0  0
  142.7380   80.8700  223.4990 C   0  0  0  0  0  0  0  0  0  0  0  0
  142.6890   79.5490  223.0920 C   0  0  0  0  0  0  0  0  0  0  0  0
  141.4790   78.9190  222.9520 C   0  0  0  0  0  0  0  0  0  0  0  0
  141.4410   77.6330  222.5560 N   0  0  0  0  0  0  0  0  0  0  0  0
  145.5820   72.6750  219.9160 C   0  0  0  0  0  0  0  0  0  0  0  0
  145.4340   72.9610  221.3180 N   0  0  0  0  0  0  0  0  0  0  0  0
  146.6550   73.0710  219.3940 O   0  0  0  0  0  0  0  0  0  0  0  0
  145.0556   70.1051  220.0556 H   0  0  0  0  0  0  0  0  0  0  0  0
  144.1635   69.9588  218.5034 H   0  0  0  0  0  0  0  0  0  0  0  0
  145.8915   70.4491  218.5034 H   0  0  0  0  0  0  0  0  0  0  0  0
  144.4036   72.3463  218.1213 H   0  0  0  0  0  0  0  0  0  0  0  0
  142.7180   71.2850  220.0390 H   0  0  0  0  0  0  0  0  0  0  0  0
  140.7556   73.4189  220.2818 H   0  0  0  0  0  0  0  0  0  0  0  0
  141.5607   72.9740  221.8283 H   0  0  0  0  0  0  0  0  0  0  0  0
  142.3160   75.6670  221.3340 H   0  0  0  0  0  0  0  0  0  0  0  0
  138.1373   77.0677  222.5344 H   0  0  0  0  0  0  0  0  0  0  0  0
  138.1588   79.4477  223.2673 H   0  0  0  0  0  0  0  0  0  0  0  0
  139.4384   81.4461  223.8294 H   0  0  0  0  0  0  0  0  0  0  0  0
  141.6115   82.6233  224.0899 H   0  0  0  0  0  0  0  0  0  0  0  0
  143.7124   81.3682  223.6100 H   0  0  0  0  0  0  0  0  0  0  0  0
  143.6207   79.0037  222.8806 H   0  0  0  0  0  0  0  0  0  0  0  0
  144.9720   73.8580  221.5990 H   0  0  0  0  0  0  0  0  0  0  0  0
  145.7950   72.2580  222.0080 H   0  0  0  0  0  0  0  0  0  0  0  0
  1  2  1  0
  2  3  1  0
  3  4  1  0
  4  5  2  0
  4  6  1  0
  6  7  1  0
  7  8  1  0
  8  9  2  0
  8 10  1  0
 10 11  2  0
 11 12  1  0
 12 13  2  0
 13 14  1  0
 14 15  2  0
 15 16  1  0
 16 17  2  0
 17 18  1  0
 18 19  2  0
  2 20  1  0
 20 21  1  0
 20 22  2  0
 19 10  1  0
 18 13  1  0
  1 23  1  0
  1 24  1  0
  1 25  1  0
  2 26  1  6
  3 27  1  0
  6 28  1  0
  6 29  1  0
  7 30  1  0
 11 31  1  0
 12 32  1  0
 14 33  1  0
 15 34  1  0
 16 35  1  0
 17 36  1  0
 21 37  1  0
 21 38  1  0
M  END
>  <smiles>  (9) 
C[C@@H](NC(=O)CNC(=O)c1ccc2ccccc2n1)C(N)=O

>  <score_type>  (9) 
oracle

>  <origin>  (9) 
autodockgpu

>  <m_score__min__energy>  (9) 
-7.75

>  <m_primary>  (9) 
energy

>  <rmsd>  (9) 
8.165412153865743

>  <m_score__min__rmsd>  (9) 
8.165412153865743

>  <meeko>  (9) 
{"free_energy": -6.8, "intermolecular_energy": -8.3, "internal_energy": -2.1, "cluster_size": 9, "cluster_id": 3, "rank_in_cluster": 3}

>  <energy>  (9) 
-6.53

>  <cluster_rmsd>  (9) 
1.56

>  <cluster>  (9) 
1

$$$$

     RDKit          3D

 38 39  0  0  0  0  0  0  0  0999 V2000
  141.0500   76.0930  220.1150 C   0  0  0  0  0  0  0  0  0  0  0  0
  139.6050   76.2680  220.4670 C   0  0  1  0  0  0  0  0  0  0  0  0
  138.8800   75.0190  220.5080 N   0  0  0  0  0  0  0  0  0  0  0  0
  139.2140   74.0460  221.4890 C   0  0  0  0  0  0  0  0  0  0  0  0
  140.1240   74.2420  222.3260 O   0  0  0  0  0  0  0  0  0  0  0  0
  138.4710   72.7580  221.5360 C   0  0  0  0  0  0  0  0  0  0  0  0
  138.8670   72.0060  222.7050 N   0  0  0  0  0  0  0  0  0  0  0  0
  138.5980   70.6230  222.8570 C   0  0  0  0  0  0  0  0  0  0  0  0
  137.9890   69.9750  221.9600 O   0  0  0  0  0  0  0  0  0  0  0  0
  139.0350   69.9340  224.0750 C   0  0  0  0  0  0  0  0  0  0  0  0
  138.8340   68.5880  224.2450 C   0  0  0  0  0  0  0  0  0  0  0  0
  139.2580   67.9670  225.4070 C   0  0  0  0  0  0  0  0  0  0  0  0
  139.8840   68.7180  226.3890 C   0  0  0  0  0  0  0  0  0  0  0  0
  140.3280   68.1340  227.5750 C   0  0  0  0  0  0  0  0  0  0  0  0
  140.9530   68.8740  228.5610 C   0  0  0  0  0  0  0  0  0  0  0  0
  141.1310   70.2270  228.3370 C   0  0  0  0  0  0  0  0  0  0  0  0
  140.6930   70.8140  227.1640 C   0  0  0  0  0  0  0  0  0  0  0  0
  140.0760   70.0530  226.2050 C   0  0  0  0  0  0  0  0  0  0  0  0
  139.6540   70.6330  225.0650 N   0  0  0  0  0  0  0  0  0  0  0  0
  139.5430   76.8630  221.8300 C   0  0  0  0  0  0  0  0  0  0  0  0
  138.5820   76.4240  222.8070 N   0  0  0  0  0  0  0  0  0  0  0  0
  140.3190   77.7770  222.2080 O   0  0  0  0  0  0  0  0  0  0  0  0
  141.6458   76.0208  221.0369 H   0  0  0  0  0  0  0  0  0  0  0  0
  141.1748   75.1732  219.5248 H   0  0  0  0  0  0  0  0  0  0  0  0
  141.3908   76.9564  219.5248 H   0  0  0  0  0  0  0  0  0  0  0  0
  139.1456   76.9019  219.6942 H   0  0  0  0  0  0  0  0  0  0  0  0
  138.1280   74.8880  219.7950 H   0  0  0  0  0  0  0  0  0  0  0  0
  137.3909   72.9611  221.5812 H   0  0  0  0  0  0  0  0  0  0  0  0
  138.7010   72.1732  220.6332 H   0  0  0  0  0  0  0  0  0  0  0  0
  139.3820   72.4830  223.4970 H   0  0  0  0  0  0  0  0  0  0  0  0
  138.3361   68.0023  223.4582 H   0  0  0  0  0  0  0  0  0  0  0  0
  139.0996   66.8878  225.5496 H   0  0  0  0  0  0  0  0  0  0  0  0
  140.1768   67.0555  227.7299 H   0  0  0  0  0  0  0  0  0  0  0  0
  141.2975   68.4023  229.4931 H   0  0  0  0  0  0  0  0  0  0  0  0
  141.6269   70.8437  229.1011 H   0  0  0  0  0  0  0  0  0  0  0  0
  140.8397   71.8918  227.0004 H   0  0  0  0  0  0  0  0  0  0  0  0
  137.6460   76.8940  222.8320 H   0  0  0  0  0  0  0  0  0  0  0  0
  138.8550   75.6500  223.4580 H   0  0  0  0  0  0  0  0  0  0  0  0
  1  2  1  0
  2  3  1  0
  3  4  1  0
  4  5  2  0
  4  6  1  0
  6  7  1  0
  7  8  1  0
  8  9  2  0
  8 10  1  0
 10 11  2  0
 11 12  1  0
 12 13  2  0
 13 14  1  0
 14 15  2  0
 15 16  1  0
 16 17  2  0
 17 18  1  0
 18 19  2  0
  2 20  1  0
 20 21  1  0
 20 22  2  0
 19 10  1  0
 18 13  1  0
  1 23  1  0
  1 24  1  0
  1 25  1  0
  2 26  1  6
  3 27  1  0
  6 28  1  0
  6 29  1  0
  7 30  1  0
 11 31  1  0
 12 32  1  0
 14 33  1  0
 15 34  1  0
 16 35  1  0
 17 36  1  0
 21 37  1  0
 21 38  1  0
M  END
>  <smiles>  (10) 
C[C@@H](NC(=O)CNC(=O)c1ccc2ccccc2n1)C(N)=O

>  <score_type>  (10) 
oracle

>  <origin>  (10) 
autodockgpu

>  <m_score__min__energy>  (10) 
-7.75

>  <m_primary>  (10) 
energy

>  <rmsd>  (10) 
1.8365559576038475

>  <m_score__min__rmsd>  (10) 
1.8365559576038475

>  <meeko>  (10) 
{"free_energy": -6.28, "intermolecular_energy": -7.77, "internal_energy": -2.14, "cluster_size": 2, "cluster_id": 5, "rank_in_cluster": 1}

>  <energy>  (10) 
-6.53

>  <cluster_rmsd>  (10) 
1.71

>  <cluster>  (10) 
1

$$$$

     RDKit          3D

 38 39  0  0  0  0  0  0  0  0999 V2000
  139.2510   78.6590  219.6940 C   0  0  0  0  0  0  0  0  0  0  0  0
  139.1710   77.7290  220.8650 C   0  0  1  0  0  0  0  0  0  0  0  0
  139.3630   76.3450  220.4990 N   0  0  0  0  0  0  0  0  0  0  0  0
  139.4760   75.3590  221.5160 C   0  0  0  0  0  0  0  0  0  0  0  0
  139.4130   75.6580  222.7300 O   0  0  0  0  0  0  0  0  0  0  0  0
  139.6740   73.9320  221.1450 C   0  0  0  0  0  0  0  0  0  0  0  0
  139.7180   73.1170  222.3370 N   0  0  0  0  0  0  0  0  0  0  0  0
  139.8990   71.7110  222.3010 C   0  0  0  0  0  0  0  0  0  0  0  0
  140.0340   71.1000  221.2040 O   0  0  0  0  0  0  0  0  0  0  0  0
  139.9320   70.9570  223.5580 C   0  0  0  0  0  0  0  0  0  0  0  0
  139.5070   69.6550  223.6200 C   0  0  0  0  0  0  0  0  0  0  0  0
  139.5500   68.9700  224.8230 C   0  0  0  0  0  0  0  0  0  0  0  0
  140.0270   69.6140  225.9540 C   0  0  0  0  0  0  0  0  0  0  0  0
  140.0890   68.9630  227.1850 C   0  0  0  0  0  0  0  0  0  0  0  0
  140.5620   69.5950  228.3200 C   0  0  0  0  0  0  0  0  0  0  0  0
  140.9790   70.9080  228.1990 C   0  0  0  0  0  0  0  0  0  0  0  0
  140.9200   71.5610  226.9820 C   0  0  0  0  0  0  0  0  0  0  0  0
  140.4450   70.9070  225.8740 C   0  0  0  0  0  0  0  0  0  0  0  0
  140.3920   71.5500  224.6930 N   0  0  0  0  0  0  0  0  0  0  0  0
  140.2640   78.0960  221.8070 C   0  0  0  0  0  0  0  0  0  0  0  0
  141.4520   77.2950  221.9410 N   0  0  0  0  0  0  0  0  0  0  0  0
  140.2170   79.1190  222.5360 O   0  0  0  0  0  0  0  0  0  0  0  0
  139.3401   79.6947  220.0537 H   0  0  0  0  0  0  0  0  0  0  0  0
  140.1307   78.4057  219.0841 H   0  0  0  0  0  0  0  0  0  0  0  0
  138.3410   78.5597  219.0841 H   0  0  0  0  0  0  0  0  0  0  0  0
  138.1673   77.8279  221.3041 H   0  0  0  0  0  0  0  0  0  0  0  0
  139.4120   76.1310  219.4780 H   0  0  0  0  0  0  0  0  0  0  0  0
  138.8407   73.6016  220.5075 H   0  0  0  0  0  0  0  0  0  0  0  0
  140.6231   73.8275  220.5989 H   0  0  0  0  0  0  0  0  0  0  0  0
  139.6120   73.5610  223.2920 H   0  0  0  0  0  0  0  0  0  0  0  0
  139.1321   69.1547  222.7149 H   0  0  0  0  0  0  0  0  0  0  0  0
  139.2092   67.9257  224.8803 H   0  0  0  0  0  0  0  0  0  0  0  0
  139.7525   67.9181  227.2553 H   0  0  0  0  0  0  0  0  0  0  0  0
  140.6052   69.0713  229.2864 H   0  0  0  0  0  0  0  0  0  0  0  0
  141.3625   71.4395  229.0824 H   0  0  0  0  0  0  0  0  0  0  0  0
  141.2543   72.6059  226.9022 H   0  0  0  0  0  0  0  0  0  0  0  0
  141.4510   76.5160  222.6400 H   0  0  0  0  0  0  0  0  0  0  0  0
  142.2750   77.5220  221.3320 H   0  0  0  0  0  0  0  0  0  0  0  0
  1  2  1  0
  2  3  1  0
  3  4  1  0
  4  5  2  0
  4  6  1  0
  6  7  1  0
  7  8  1  0
  8  9  2  0
  8 10  1  0
 10 11  2  0
 11 12  1  0
 12 13  2  0
 13 14  1  0
 14 15  2  0
 15 16  1  0
 16 17  2  0
 17 18  1  0
 18 19  2  0
  2 20  1  0
 20 21  1  0
 20 22  2  0
 19 10  1  0
 18 13  1  0
  1 23  1  0
  1 24  1  0
  1 25  1  0
  2 26  1  1
  3 27  1  0
  6 28  1  0
  6 29  1  0
  7 30  1  0
 11 31  1  0
 12 32  1  0
 14 33  1  0
 15 34  1  0
 16 35  1  0
 17 36  1  0
 21 37  1  0
 21 38  1  0
M  END
>  <smiles>  (11) 
C[C@@H](NC(=O)CNC(=O)c1ccc2ccccc2n1)C(N)=O

>  <score_type>  (11) 
oracle

>  <origin>  (11) 
autodockgpu

>  <m_score__min__energy>  (11) 
-7.75

>  <m_primary>  (11) 
energy

>  <rmsd>  (11) 
1.569782587618745

>  <m_score__min__rmsd>  (11) 
1.569782587618745

>  <meeko>  (11) 
{"free_energy": -6.44, "intermolecular_energy": -7.93, "internal_energy": -2.07, "cluster_size": 20, "cluster_id": 1, "rank_in_cluster": 14}

>  <energy>  (11) 
-6.48

>  <cluster_rmsd>  (11) 
1.56

>  <cluster>  (11) 
1

$$$$

     RDKit          3D

 38 39  0  0  0  0  0  0  0  0999 V2000
  146.0140   72.4340  220.4500 C   0  0  0  0  0  0  0  0  0  0  0  0
  145.0140   72.1580  219.3700 C   0  0  1  0  0  0  0  0  0  0  0  0
  143.6490   72.3350  219.8090 N   0  0  0  0  0  0  0  0  0  0  0  0
  143.2570   73.5630  220.4050 C   0  0  0  0  0  0  0  0  0  0  0  0
  144.0670   74.5060  220.5610 O   0  0  0  0  0  0  0  0  0  0  0  0
  141.8530   73.7520  220.8580 C   0  0  0  0  0  0  0  0  0  0  0  0
  141.6650   75.1060  221.3250 N   0  0  0  0  0  0  0  0  0  0  0  0
  140.4620   75.5520  221.9280 C   0  0  0  0  0  0  0  0  0  0  0  0
  139.4830   74.7690  222.0860 O   0  0  0  0  0  0  0  0  0  0  0  0
  140.3530   76.9440  222.3750 C   0  0  0  0  0  0  0  0  0  0  0  0
  139.1360   77.5150  222.6420 C   0  0  0  0  0  0  0  0  0  0  0  0
  139.0660   78.8330  223.0610 C   0  0  0  0  0  0  0  0  0  0  0  0
  140.2360   79.5600  223.2090 C   0  0  0  0  0  0  0  0  0  0  0  0
  140.2150   80.8900  223.6300 C   0  0  0  0  0  0  0  0  0  0  0  0
  141.3750   81.6250  223.7790 C   0  0  0  0  0  0  0  0  0  0  0  0
  142.5750   80.9990  223.4970 C   0  0  0  0  0  0  0  0  0  0  0  0
  142.6060   79.6810  223.0790 C   0  0  0  0  0  0  0  0  0  0  0  0
  141.4370   78.9780  222.9390 C   0  0  0  0  0  0  0  0  0  0  0  0
  141.4770   77.6960  222.5320 N   0  0  0  0  0  0  0  0  0  0  0  0
  145.2580   73.1330  218.2720 C   0  0  0  0  0  0  0  0  0  0  0  0
  144.3260   74.1880  217.9730 N   0  0  0  0  0  0  0  0  0  0  0  0
  146.2820   73.0940  217.5450 O   0  0  0  0  0  0  0  0  0  0  0  0
  145.5379   72.3026  221.4329 H   0  0  0  0  0  0  0  0  0  0  0  0
  146.8583   71.7353  220.3552 H   0  0  0  0  0  0  0  0  0  0  0  0
  146.3804   73.4668  220.3552 H   0  0  0  0  0  0  0  0  0  0  0  0
  145.1372   71.1107  219.0570 H   0  0  0  0  0  0  0  0  0  0  0  0
  143.0000   71.5290  219.6630 H   0  0  0  0  0  0  0  0  0  0  0  0
  141.1695   73.5576  220.0183 H   0  0  0  0  0  0  0  0  0  0  0  0
  141.6405   73.0526  221.6800 H   0  0  0  0  0  0  0  0  0  0  0  0
  142.4420   75.8180  221.2250 H   0  0  0  0  0  0  0  0  0  0  0  0
  138.2145   76.9261  222.5234 H   0  0  0  0  0  0  0  0  0  0  0  0
  138.0920   79.2977  223.2740 H   0  0  0  0  0  0  0  0  0  0  0  0
  139.2481   81.3664  223.8493 H   0  0  0  0  0  0  0  0  0  0  0  0
  141.3450   82.6733  224.1109 H   0  0  0  0  0  0  0  0  0  0  0  0
  143.5171   81.5563  223.6065 H   0  0  0  0  0  0  0  0  0  0  0  0
  143.5687   79.1965  222.8588 H   0  0  0  0  0  0  0  0  0  0  0  0
  143.5550   73.9940  217.2910 H   0  0  0  0  0  0  0  0  0  0  0  0
  144.4550   75.1130  218.4490 H   0  0  0  0  0  0  0  0  0  0  0  0
  1  2  1  0
  2  3  1  0
  3  4  1  0
  4  5  2  0
  4  6  1  0
  6  7  1  0
  7  8  1  0
  8  9  2  0
  8 10  1  0
 10 11  2  0
 11 12  1  0
 12 13  2  0
 13 14  1  0
 14 15  2  0
 15 16  1  0
 16 17  2  0
 17 18  1  0
 18 19  2  0
  2 20  1  0
 20 21  1  0
 20 22  2  0
 19 10  1  0
 18 13  1  0
  1 23  1  0
  1 24  1  0
  1 25  1  0
  2 26  1  6
  3 27  1  0
  6 28  1  0
  6 29  1  0
  7 30  1  0
 11 31  1  0
 12 32  1  0
 14 33  1  0
 15 34  1  0
 16 35  1  0
 17 36  1  0
 21 37  1  0
 21 38  1  0
M  END
>  <smiles>  (12) 
C[C@@H](NC(=O)CNC(=O)c1ccc2ccccc2n1)C(N)=O

>  <score_type>  (12) 
oracle

>  <origin>  (12) 
autodockgpu

>  <m_score__min__energy>  (12) 
-7.75

>  <m_primary>  (12) 
energy

>  <rmsd>  (12) 
8.178364051901383

>  <m_score__min__rmsd>  (12) 
8.178364051901383

>  <meeko>  (12) 
{"free_energy": -6.36, "intermolecular_energy": -7.85, "internal_energy": -2.07, "cluster_size": 9, "cluster_id": 3, "rank_in_cluster": 7}

>  <energy>  (12) 
-6.44

>  <cluster_rmsd>  (12) 
1.58

>  <cluster>  (12) 
1

$$$$

     RDKit          3D

 38 39  0  0  0  0  0  0  0  0999 V2000
  144.5730   70.4230  219.1000 C   0  0  0  0  0  0  0  0  0  0  0  0
  144.1830   71.8670  219.1720 C   0  0  1  0  0  0  0  0  0  0  0  0
  142.9990   72.0910  219.9700 N   0  0  0  0  0  0  0  0  0  0  0  0
  142.6520   73.4140  220.3540 C   0  0  0  0  0  0  0  0  0  0  0  0
  143.3470   74.4000  220.0180 O   0  0  0  0  0  0  0  0  0  0  0  0
  141.4340   73.6510  221.1750 C   0  0  0  0  0  0  0  0  0  0  0  0
  141.3900   75.0300  221.6020 N   0  0  0  0  0  0  0  0  0  0  0  0
  140.2050   75.6560  222.0630 C   0  0  0  0  0  0  0  0  0  0  0  0
  139.1140   75.0210  222.1220 O   0  0  0  0  0  0  0  0  0  0  0  0
  140.2470   77.0610  222.4800 C   0  0  0  0  0  0  0  0  0  0  0  0
  139.0980   77.7710  222.7130 C   0  0  0  0  0  0  0  0  0  0  0  0
  139.1700   79.0970  223.1040 C   0  0  0  0  0  0  0  0  0  0  0  0
  140.4130   79.6920  223.2570 C   0  0  0  0  0  0  0  0  0  0  0  0
  140.5340   81.0250  223.6500 C   0  0  0  0  0  0  0  0  0  0  0  0
  141.7680   81.6280  223.8040 C   0  0  0  0  0  0  0  0  0  0  0  0
  142.8940   80.8650  223.5570 C   0  0  0  0  0  0  0  0  0  0  0  0
  142.7830   79.5440  223.1660 C   0  0  0  0  0  0  0  0  0  0  0  0
  141.5440   78.9730  223.0210 C   0  0  0  0  0  0  0  0  0  0  0  0
  141.4460   77.6850  222.6410 N   0  0  0  0  0  0  0  0  0  0  0  0
  145.3020   72.6040  219.8210 C   0  0  0  0  0  0  0  0  0  0  0  0
  145.2870   72.9260  221.2240 N   0  0  0  0  0  0  0  0  0  0  0  0
  146.3190   72.9860  219.1900 O   0  0  0  0  0  0  0  0  0  0  0  0
  144.6815   70.0213  220.1183 H   0  0  0  0  0  0  0  0  0  0  0  0
  143.7949   69.8593  218.5644 H   0  0  0  0  0  0  0  0  0  0  0  0
  145.5291   70.3277  218.5644 H   0  0  0  0  0  0  0  0  0  0  0  0
  143.9729   72.2094  218.1480 H   0  0  0  0  0  0  0  0  0  0  0  0
  142.4430   71.2470  220.2320 H   0  0  0  0  0  0  0  0  0  0  0  0
  140.5400   73.4263  220.5747 H   0  0  0  0  0  0  0  0  0  0  0  0
  141.4611   72.9984  222.0601 H   0  0  0  0  0  0  0  0  0  0  0  0
  142.2660   75.6240  221.5800 H   0  0  0  0  0  0  0  0  0  0  0  0
  138.1181   77.2869  222.5892 H   0  0  0  0  0  0  0  0  0  0  0  0
  138.2513   79.6722  223.2912 H   0  0  0  0  0  0  0  0  0  0  0  0
  139.6235   81.6115  223.8423 H   0  0  0  0  0  0  0  0  0  0  0  0
  141.8514   82.6804  224.1129 H   0  0  0  0  0  0  0  0  0  0  0  0
  143.8910   81.3150  223.6731 H   0  0  0  0  0  0  0  0  0  0  0  0
  143.6883   78.9503  222.9710 H   0  0  0  0  0  0  0  0  0  0  0  0
  144.8510   73.8290  221.5230 H   0  0  0  0  0  0  0  0  0  0  0  0
  145.7150   72.2420  221.8940 H   0  0  0  0  0  0  0  0  0  0  0  0
  1  2  1  0
  2  3  1  0
  3  4  1  0
  4  5  2  0
  4  6  1  0
  6  7  1  0
  7  8  1  0
  8  9  2  0
  8 10  1  0
 10 11  2  0
 11 12  1  0
 12 13  2  0
 13 14  1  0
 14 15  2  0
 15 16  1  0
 16 17  2  0
 17 18  1  0
 18 19  2  0
  2 20  1  0
 20 21  1  0
 20 22  2  0
 19 10  1  0
 18 13  1  0
  1 23  1  0
  1 24  1  0
  1 25  1  0
  2 26  1  6
  3 27  1  0
  6 28  1  0
  6 29  1  0
  7 30  1  0
 11 31  1  0
 12 32  1  0
 14 33  1  0
 15 34  1  0
 16 35  1  0
 17 36  1  0
 21 37  1  0
 21 38  1  0
M  END
>  <smiles>  (13) 
C[C@@H](NC(=O)CNC(=O)c1ccc2ccccc2n1)C(N)=O

>  <score_type>  (13) 
oracle

>  <origin>  (13) 
autodockgpu

>  <m_score__min__energy>  (13) 
-7.75

>  <m_primary>  (13) 
energy

>  <rmsd>  (13) 
8.178566234759773

>  <m_score__min__rmsd>  (13) 
8.178566234759773

>  <meeko>  (13) 
{"free_energy": -6.84, "intermolecular_energy": -8.33, "internal_energy": -2.05, "cluster_size": 9, "cluster_id": 3, "rank_in_cluster": 1}

>  <energy>  (13) 
-6.44

>  <cluster_rmsd>  (13) 
1.58

>  <cluster>  (13) 
1

$$$$

     RDKit          3D

 38 39  0  0  0  0  0  0  0  0999 V2000
  143.5860   75.5760  219.2490 C   0  0  0  0  0  0  0  0  0  0  0  0
  143.4890   74.7230  220.4760 C   0  0  1  0  0  0  0  0  0  0  0  0
  142.2030   74.0770  220.6120 N   0  0  0  0  0  0  0  0  0  0  0  0
  141.0460   74.8630  220.8630 C   0  0  0  0  0  0  0  0  0  0  0  0
  141.1090   76.1090  220.9700 O   0  0  0  0  0  0  0  0  0  0  0  0
  139.7200   74.2040  221.0030 C   0  0  0  0  0  0  0  0  0  0  0  0
  139.6940   73.4020  222.2040 N   0  0  0  0  0  0  0  0  0  0  0  0
  140.2420   72.0960  222.2690 C   0  0  0  0  0  0  0  0  0  0  0  0
  140.7870   71.5680  221.2590 O   0  0  0  0  0  0  0  0  0  0  0  0
  140.1760   71.3490  223.5290 C   0  0  0  0  0  0  0  0  0  0  0  0
  139.6570   70.0810  223.5800 C   0  0  0  0  0  0  0  0  0  0  0  0
  139.6070   69.4020  224.7860 C   0  0  0  0  0  0  0  0  0  0  0  0
  140.0870   70.0170  225.9310 C   0  0  0  0  0  0  0  0  0  0  0  0
  140.0580   69.3700  227.1670 C   0  0  0  0  0  0  0  0  0  0  0  0
  140.5330   69.9750  228.3150 C   0  0  0  0  0  0  0  0  0  0  0  0
  141.0460   71.2540  228.2060 C   0  0  0  0  0  0  0  0  0  0  0  0
  141.0790   71.9020  226.9850 C   0  0  0  0  0  0  0  0  0  0  0  0
  140.5990   71.2770  225.8630 C   0  0  0  0  0  0  0  0  0  0  0  0
  140.6350   71.9150  224.6780 N   0  0  0  0  0  0  0  0  0  0  0  0
  144.5150   73.6510  220.3610 C   0  0  0  0  0  0  0  0  0  0  0  0
  145.9220   73.9300  220.4780 N   0  0  0  0  0  0  0  0  0  0  0  0
  144.2180   72.4470  220.1570 O   0  0  0  0  0  0  0  0  0  0  0  0
  143.7058   76.6292  219.5431 H   0  0  0  0  0  0  0  0  0  0  0  0
  144.4541   75.2612  218.6513 H   0  0  0  0  0  0  0  0  0  0  0  0
  142.6693   75.4642  218.6513 H   0  0  0  0  0  0  0  0  0  0  0  0
  143.6366   75.3740  221.3503 H   0  0  0  0  0  0  0  0  0  0  0  0
  142.1870   73.0370  220.5170 H   0  0  0  0  0  0  0  0  0  0  0  0
  138.9350   74.9725  221.0605 H   0  0  0  0  0  0  0  0  0  0  0  0
  139.5435   73.5567  220.1313 H   0  0  0  0  0  0  0  0  0  0  0  0
  139.2540   73.7800  223.0890 H   0  0  0  0  0  0  0  0  0  0  0  0
  139.2805   69.6032  222.6635 H   0  0  0  0  0  0  0  0  0  0  0  0
  139.1905   68.3850  224.8343 H   0  0  0  0  0  0  0  0  0  0  0  0
  139.6463   68.3519  227.2291 H   0  0  0  0  0  0  0  0  0  0  0  0
  140.5038   69.4556  229.2842 H   0  0  0  0  0  0  0  0  0  0  0  0
  141.4327   71.7624  229.1015 H   0  0  0  0  0  0  0  0  0  0  0  0
  141.4906   72.9196  226.9137 H   0  0  0  0  0  0  0  0  0  0  0  0
  146.4530   74.1850  219.6130 H   0  0  0  0  0  0  0  0  0  0  0  0
  146.3630   73.8680  221.4270 H   0  0  0  0  0  0  0  0  0  0  0  0
  1  2  1  0
  2  3  1  0
  3  4  1  0
  4  5  2  0
  4  6  1  0
  6  7  1  0
  7  8  1  0
  8  9  2  0
  8 10  1  0
 10 11  2  0
 11 12  1  0
 12 13  2  0
 13 14  1  0
 14 15  2  0
 15 16  1  0
 16 17  2  0
 17 18  1  0
 18 19  2  0
  2 20  1  0
 20 21  1  0
 20 22  2  0
 19 10  1  0
 18 13  1  0
  1 23  1  0
  1 24  1  0
  1 25  1  0
  2 26  1  1
  3 27  1  0
  6 28  1  0
  6 29  1  0
  7 30  1  0
 11 31  1  0
 12 32  1  0
 14 33  1  0
 15 34  1  0
 16 35  1  0
 17 36  1  0
 21 37  1  0
 21 38  1  0
M  END
>  <smiles>  (14) 
C[C@@H](NC(=O)CNC(=O)c1ccc2ccccc2n1)C(N)=O

>  <score_type>  (14) 
oracle

>  <origin>  (14) 
autodockgpu

>  <m_score__min__energy>  (14) 
-7.75

>  <m_primary>  (14) 
energy

>  <rmsd>  (14) 
2.8195539118723696

>  <m_score__min__rmsd>  (14) 
2.8195539118723696

>  <meeko>  (14) 
{"free_energy": -6.88, "intermolecular_energy": -8.37, "internal_energy": -2.38, "cluster_size": 17, "cluster_id": 2, "rank_in_cluster": 5}

>  <energy>  (14) 
-6.44

>  <cluster_rmsd>  (14) 
1.51

>  <cluster>  (14) 
1

$$$$

     RDKit          3D

 38 39  0  0  0  0  0  0  0  0999 V2000
  141.3490   69.8070  226.3230 C   0  0  0  0  0  0  0  0  0  0  0  0
  139.9520   69.5670  225.8360 C   0  0  1  0  0  0  0  0  0  0  0  0
  139.7770   69.9060  224.4420 N   0  0  0  0  0  0  0  0  0  0  0  0
  139.9930   71.2420  224.0120 C   0  0  0  0  0  0  0  0  0  0  0  0
  140.3340   72.1430  224.8120 O   0  0  0  0  0  0  0  0  0  0  0  0
  139.8150   71.5970  222.5780 C   0  0  0  0  0  0  0  0  0  0  0  0
  140.0990   72.9990  222.3800 N   0  0  0  0  0  0  0  0  0  0  0  0
  140.9560   73.4730  221.3540 C   0  0  0  0  0  0  0  0  0  0  0  0
  141.5180   72.6730  220.5540 O   0  0  0  0  0  0  0  0  0  0  0  0
  141.1910   74.9140  221.2210 C   0  0  0  0  0  0  0  0  0  0  0  0
  141.8940   75.4270  220.1620 C   0  0  0  0  0  0  0  0  0  0  0  0
  142.1000   76.7930  220.0640 C   0  0  0  0  0  0  0  0  0  0  0  0
  141.5880   77.6280  221.0450 C   0  0  0  0  0  0  0  0  0  0  0  0
  141.7710   79.0090  220.9880 C   0  0  0  0  0  0  0  0  0  0  0  0
  141.2660   79.8510  221.9610 C   0  0  0  0  0  0  0  0  0  0  0  0
  140.5640   79.2800  223.0060 C   0  0  0  0  0  0  0  0  0  0  0  0
  140.3790   77.9110  223.0710 C   0  0  0  0  0  0  0  0  0  0  0  0
  140.8930   77.1010  222.0910 C   0  0  0  0  0  0  0  0  0  0  0  0
  140.7070   75.7700  222.1610 N   0  0  0  0  0  0  0  0  0  0  0  0
  139.6690   68.1130  225.9800 C   0  0  0  0  0  0  0  0  0  0  0  0
  139.9420   67.4030  227.2010 N   0  0  0  0  0  0  0  0  0  0  0  0
  139.1790   67.4220  225.0510 O   0  0  0  0  0  0  0  0  0  0  0  0
  141.3586   69.8087  227.4230 H   0  0  0  0  0  0  0  0  0  0  0  0
  142.0089   69.0091  225.9517 H   0  0  0  0  0  0  0  0  0  0  0  0
  141.7048   70.7794  225.9517 H   0  0  0  0  0  0  0  0  0  0  0  0
  139.2755   70.2015  226.4275 H   0  0  0  0  0  0  0  0  0  0  0  0
  139.4920   69.1310  223.8020 H   0  0  0  0  0  0  0  0  0  0  0  0
  140.5025   70.9955  221.9653 H   0  0  0  0  0  0  0  0  0  0  0  0
  138.7760   71.3923  222.2804 H   0  0  0  0  0  0  0  0  0  0  0  0
  139.6630   73.7270  223.0120 H   0  0  0  0  0  0  0  0  0  0  0  0
  142.2946   74.7536  219.3899 H   0  0  0  0  0  0  0  0  0  0  0  0
  142.6638   77.2109  219.2169 H   0  0  0  0  0  0  0  0  0  0  0  0
  142.3324   79.4401  220.1460 H   0  0  0  0  0  0  0  0  0  0  0  0
  141.4177   80.9391  221.9056 H   0  0  0  0  0  0  0  0  0  0  0  0
  140.1473   79.9225  223.7957 H   0  0  0  0  0  0  0  0  0  0  0  0
  139.8190   77.4714  223.9096 H   0  0  0  0  0  0  0  0  0  0  0  0
  140.8900   66.9760  227.3280 H   0  0  0  0  0  0  0  0  0  0  0  0
  139.1800   67.3400  227.9190 H   0  0  0  0  0  0  0  0  0  0  0  0
  1  2  1  0
  2  3  1  0
  3  4  1  0
  4  5  2  0
  4  6  1  0
  6  7  1  0
  7  8  1  0
  8  9  2  0
  8 10  1  0
 10 11  2  0
 11 12  1  0
 12 13  2  0
 13 14  1  0
 14 15  2  0
 15 16  1  0
 16 17  2  0
 17 18  1  0
 18 19  2  0
  2 20  1  0
 20 21  1  0
 20 22  2  0
 19 10  1  0
 18 13  1  0
  1 23  1  0
  1 24  1  0
  1 25  1  0
  2 26  1  1
  3 27  1  0
  6 28  1  0
  6 29  1  0
  7 30  1  0
 11 31  1  0
 12 32  1  0
 14 33  1  0
 15 34  1  0
 16 35  1  0
 17 36  1  0
 21 37  1  0
 21 38  1  0
M  END
>  <smiles>  (15) 
C[C@@H](NC(=O)CNC(=O)c1ccc2ccccc2n1)C(N)=O

>  <score_type>  (15) 
oracle

>  <origin>  (15) 
autodockgpu

>  <m_score__min__energy>  (15) 
-7.75

>  <m_primary>  (15) 
energy

>  <rmsd>  (15) 
8.746458887986103

>  <m_score__min__rmsd>  (15) 
8.746458887986103

>  <meeko>  (15) 
{"free_energy": -6.59, "intermolecular_energy": -8.08, "internal_energy": -2.1, "cluster_size": 2, "cluster_id": 4, "rank_in_cluster": 2}

>  <energy>  (15) 
-6.41

>  <cluster_rmsd>  (15) 
1.51

>  <cluster>  (15) 
1

$$$$

     RDKit          3D

 38 39  0  0  0  0  0  0  0  0999 V2000
  139.5980   79.3460  222.1530 C   0  0  0  0  0  0  0  0  0  0  0  0
  140.4990   78.4770  222.9750 C   0  0  1  0  0  0  0  0  0  0  0  0
  140.8540   77.2450  222.3080 N   0  0  0  0  0  0  0  0  0  0  0  0
  139.8840   76.2140  222.1760 C   0  0  0  0  0  0  0  0  0  0  0  0
  138.7220   76.3440  222.6240 O   0  0  0  0  0  0  0  0  0  0  0  0
  140.2430   74.9440  221.4900 C   0  0  0  0  0  0  0  0  0  0  0  0
  139.9260   73.8200  222.3400 N   0  0  0  0  0  0  0  0  0  0  0  0
  140.6750   72.6170  222.3360 C   0  0  0  0  0  0  0  0  0  0  0  0
  141.6720   72.4730  221.5730 O   0  0  0  0  0  0  0  0  0  0  0  0
  140.2870   71.5230  223.2320 C   0  0  0  0  0  0  0  0  0  0  0  0
  139.5360   70.4670  222.7850 C   0  0  0  0  0  0  0  0  0  0  0  0
  139.1850   69.4500  223.6570 C   0  0  0  0  0  0  0  0  0  0  0  0
  139.6010   69.5140  224.9770 C   0  0  0  0  0  0  0  0  0  0  0  0
  139.2720   68.5120  225.8900 C   0  0  0  0  0  0  0  0  0  0  0  0
  139.6810   68.5660  227.2090 C   0  0  0  0  0  0  0  0  0  0  0  0
  140.4370   69.6530  227.6050 C   0  0  0  0  0  0  0  0  0  0  0  0
  140.7680   70.6520  226.7070 C   0  0  0  0  0  0  0  0  0  0  0  0
  140.3460   70.5700  225.4040 C   0  0  0  0  0  0  0  0  0  0  0  0
  140.6740   71.5450  224.5370 N   0  0  0  0  0  0  0  0  0  0  0  0
  141.7590   79.2330  223.2120 C   0  0  0  0  0  0  0  0  0  0  0  0
  142.8960   79.1070  222.3380 N   0  0  0  0  0  0  0  0  0  0  0  0
  141.9070   80.0190  224.1810 O   0  0  0  0  0  0  0  0  0  0  0  0
  138.9677   79.9540  222.8186 H   0  0  0  0  0  0  0  0  0  0  0  0
  140.2058   80.0076  221.5183 H   0  0  0  0  0  0  0  0  0  0  0  0
  138.9588   78.7147  221.5183 H   0  0  0  0  0  0  0  0  0  0  0  0
  139.9649   78.2203  223.9017 H   0  0  0  0  0  0  0  0  0  0  0  0
  141.8310   77.1700  221.9470 H   0  0  0  0  0  0  0  0  0  0  0  0
  139.6751   74.8632  220.5514 H   0  0  0  0  0  0  0  0  0  0  0  0
  141.3214   74.9416  221.2732 H   0  0  0  0  0  0  0  0  0  0  0  0
  139.1050   73.8690  223.0060 H   0  0  0  0  0  0  0  0  0  0  0  0
  139.2124   70.4274  221.7344 H   0  0  0  0  0  0  0  0  0  0  0  0
  138.5820   68.5999  223.3052 H   0  0  0  0  0  0  0  0  0  0  0  0
  138.6707   67.6556  225.5509 H   0  0  0  0  0  0  0  0  0  0  0  0
  139.4137   67.7703  227.9199 H   0  0  0  0  0  0  0  0  0  0  0  0
  140.7800   69.7248  228.6477 H   0  0  0  0  0  0  0  0  0  0  0  0
  141.3693   71.5118  227.0375 H   0  0  0  0  0  0  0  0  0  0  0  0
  143.6010   78.3600  222.5420 H   0  0  0  0  0  0  0  0  0  0  0  0
  142.9760   79.7700  221.5300 H   0  0  0  0  0  0  0  0  0  0  0  0
  1  2  1  0
  2  3  1  0
  3  4  1  0
  4  5  2  0
  4  6  1  0
  6  7  1  0
  7  8  1  0
  8  9  2  0
  8 10  1  0
 10 11  2  0
 11 12  1  0
 12 13  2  0
 13 14  1  0
 14 15  2  0
 15 16  1  0
 16 17  2  0
 17 18  1  0
 18 19  2  0
  2 20  1  0
 20 21  1  0
 20 22  2  0
 19 10  1  0
 18 13  1  0
  1 23  1  0
  1 24  1  0
  1 25  1  0
  2 26  1  1
  3 27  1  0
  6 28  1  0
  6 29  1  0
  7 30  1  0
 11 31  1  0
 12 32  1  0
 14 33  1  0
 15 34  1  0
 16 35  1  0
 17 36  1  0
 21 37  1  0
 21 38  1  0
M  END
>  <smiles>  (16) 
C[C@@H](NC(=O)CNC(=O)c1ccc2ccccc2n1)C(N)=O

>  <score_type>  (16) 
oracle

>  <origin>  (16) 
autodockgpu

>  <m_score__min__energy>  (16) 
-7.75

>  <m_primary>  (16) 
energy

>  <rmsd>  (16) 
2.584082473980525

>  <m_score__min__rmsd>  (16) 
2.584082473980525

>  <meeko>  (16) 
{"free_energy": -7.68, "intermolecular_energy": -9.18, "internal_energy": -1.13, "cluster_size": 20, "cluster_id": 1, "rank_in_cluster": 3}

>  <energy>  (16) 
-6.36

>  <cluster_rmsd>  (16) 
1.84

>  <cluster>  (16) 
1

$$$$

     RDKit          3D

 38 39  0  0  0  0  0  0  0  0999 V2000
  141.3130   77.0990  219.9200 C   0  0  0  0  0  0  0  0  0  0  0  0
  139.9630   77.2020  220.5620 C   0  0  1  0  0  0  0  0  0  0  0  0
  139.2280   75.9590  220.5260 N   0  0  0  0  0  0  0  0  0  0  0  0
  139.6900   74.8490  221.2830 C   0  0  0  0  0  0  0  0  0  0  0  0
  140.7240   74.9170  221.9850 O   0  0  0  0  0  0  0  0  0  0  0  0
  138.9360   73.5660  221.2510 C   0  0  0  0  0  0  0  0  0  0  0  0
  139.2420   72.7890  222.4290 N   0  0  0  0  0  0  0  0  0  0  0  0
  139.0120   71.3920  222.5110 C   0  0  0  0  0  0  0  0  0  0  0  0
  138.5210   70.7550  221.5360 O   0  0  0  0  0  0  0  0  0  0  0  0
  139.3510   70.6760  223.7440 C   0  0  0  0  0  0  0  0  0  0  0  0
  139.1130   69.3330  223.8780 C   0  0  0  0  0  0  0  0  0  0  0  0
  139.4430   68.6860  225.0570 C   0  0  0  0  0  0  0  0  0  0  0  0
  140.0160   69.4090  226.0910 C   0  0  0  0  0  0  0  0  0  0  0  0
  140.3660   68.7990  227.2950 C   0  0  0  0  0  0  0  0  0  0  0  0
  140.9370   69.5110  228.3330 C   0  0  0  0  0  0  0  0  0  0  0  0
  141.1560   70.8630  228.1430 C   0  0  0  0  0  0  0  0  0  0  0  0
  140.8110   71.4760  226.9520 C   0  0  0  0  0  0  0  0  0  0  0  0
  140.2460   70.7430  225.9410 C   0  0  0  0  0  0  0  0  0  0  0  0
  139.9150   71.3480  224.7850 N   0  0  0  0  0  0  0  0  0  0  0  0
  140.1710   77.5560  221.9930 C   0  0  0  0  0  0  0  0  0  0  0  0
  141.4560   77.4270  222.6280 N   0  0  0  0  0  0  0  0  0  0  0  0
  139.2460   77.9840  222.7270 O   0  0  0  0  0  0  0  0  0  0  0  0
  142.0864   77.0400  220.7000 H   0  0  0  0  0  0  0  0  0  0  0  0
  141.3535   76.1952  219.2944 H   0  0  0  0  0  0  0  0  0  0  0  0
  141.4902   77.9862  219.2944 H   0  0  0  0  0  0  0  0  0  0  0  0
  139.3834   77.9555  220.0086 H   0  0  0  0  0  0  0  0  0  0  0  0
  138.3700   75.9370  219.9310 H   0  0  0  0  0  0  0  0  0  0  0  0
  137.8568   73.7773  221.2231 H   0  0  0  0  0  0  0  0  0  0  0  0
  139.2257   72.9969  220.3553 H   0  0  0  0  0  0  0  0  0  0  0  0
  139.6560   73.2550  223.2850 H   0  0  0  0  0  0  0  0  0  0  0  0
  138.6600   68.7692  223.0492 H   0  0  0  0  0  0  0  0  0  0  0  0
  139.2521   67.6088  225.1716 H   0  0  0  0  0  0  0  0  0  0  0  0
  140.1827   67.7219  227.4222 H   0  0  0  0  0  0  0  0  0  0  0  0
  141.2081   69.0186  229.2785 H   0  0  0  0  0  0  0  0  0  0  0  0
  141.6101   71.4583  228.9488 H   0  0  0  0  0  0  0  0  0  0  0  0
  140.9903   72.5528  226.8161 H   0  0  0  0  0  0  0  0  0  0  0  0
  141.7000   76.5130  223.0770 H   0  0  0  0  0  0  0  0  0  0  0  0
  142.1000   78.2540  222.6170 H   0  0  0  0  0  0  0  0  0  0  0  0
  1  2  1  0
  2  3  1  0
  3  4  1  0
  4  5  2  0
  4  6  1  0
  6  7  1  0
  7  8  1  0
  8  9  2  0
  8 10  1  0
 10 11  2  0
 11 12  1  0
 12 13  2  0
 13 14  1  0
 14 15  2  0
 15 16  1  0
 16 17  2  0
 17 18  1  0
 18 19  2  0
  2 20  1  0
 20 21  1  0
 20 22  2  0
 19 10  1  0
 18 13  1  0
  1 23  1  0
  1 24  1  0
  1 25  1  0
  2 26  1  6
  3 27  1  0
  6 28  1  0
  6 29  1  0
  7 30  1  0
 11 31  1  0
 12 32  1  0
 14 33  1  0
 15 34  1  0
 16 35  1  0
 17 36  1  0
 21 37  1  0
 21 38  1  0
M  END
>  <smiles>  (17) 
C[C@@H](NC(=O)CNC(=O)c1ccc2ccccc2n1)C(N)=O

>  <score_type>  (17) 
oracle

>  <origin>  (17) 
autodockgpu

>  <m_score__min__energy>  (17) 
-7.75

>  <m_primary>  (17) 
energy

>  <rmsd>  (17) 
1.3233538719942997

>  <m_score__min__rmsd>  (17) 
1.3233538719942997

>  <meeko>  (17) 
{"free_energy": -6.53, "intermolecular_energy": -8.02, "internal_energy": -2.11, "cluster_size": 20, "cluster_id": 1, "rank_in_cluster": 10}

>  <energy>  (17) 
-6.35

>  <cluster_rmsd>  (17) 
1.92

>  <cluster>  (17) 
1

$$$$

     RDKit          3D

 38 39  0  0  0  0  0  0  0  0999 V2000
  141.0990   77.9220  222.7690 C   0  0  0  0  0  0  0  0  0  0  0  0
  140.5080   76.9660  221.7790 C   0  0  1  0  0  0  0  0  0  0  0  0
  141.2560   75.7350  221.6700 N   0  0  0  0  0  0  0  0  0  0  0  0
  140.8580   74.7520  220.7240 C   0  0  0  0  0  0  0  0  0  0  0  0
  139.8680   74.9240  219.9760 O   0  0  0  0  0  0  0  0  0  0  0  0
  141.6250   73.4830  220.6060 C   0  0  0  0  0  0  0  0  0  0  0  0
  141.3910   72.6590  221.7690 N   0  0  0  0  0  0  0  0  0  0  0  0
  140.0960   72.4120  222.2900 C   0  0  0  0  0  0  0  0  0  0  0  0
  139.0700   72.9120  221.7480 O   0  0  0  0  0  0  0  0  0  0  0  0
  139.9450   71.5610  223.4740 C   0  0  0  0  0  0  0  0  0  0  0  0
  139.1840   70.4220  223.4430 C   0  0  0  0  0  0  0  0  0  0  0  0
  139.0600   69.6410  224.5790 C   0  0  0  0  0  0  0  0  0  0  0  0
  139.7140   70.0230  225.7400 C   0  0  0  0  0  0  0  0  0  0  0  0
  139.6190   69.2660  226.9070 C   0  0  0  0  0  0  0  0  0  0  0  0
  140.2660   69.6390  228.0710 C   0  0  0  0  0  0  0  0  0  0  0  0
  141.0210   70.7960  228.0450 C   0  0  0  0  0  0  0  0  0  0  0  0
  141.1210   71.5530  226.8920 C   0  0  0  0  0  0  0  0  0  0  0  0
  140.4660   71.1570  225.7540 C   0  0  0  0  0  0  0  0  0  0  0  0
  140.5690   71.8990  224.6360 N   0  0  0  0  0  0  0  0  0  0  0  0
  139.1420   76.6140  222.2550 C   0  0  0  0  0  0  0  0  0  0  0  0
  138.6560   75.2600  222.2360 N   0  0  0  0  0  0  0  0  0  0  0  0
  138.3360   77.4710  222.6980 O   0  0  0  0  0  0  0  0  0  0  0  0
  140.8832   77.5730  223.7896 H   0  0  0  0  0  0  0  0  0  0  0  0
  142.1879   77.9753  222.6222 H   0  0  0  0  0  0  0  0  0  0  0  0
  140.6600   78.9199  222.6222 H   0  0  0  0  0  0  0  0  0  0  0  0
  140.5136   77.4559  220.7942 H   0  0  0  0  0  0  0  0  0  0  0  0
  142.0750   75.6240  222.3090 H   0  0  0  0  0  0  0  0  0  0  0  0
  141.3003   72.9427  219.7045 H   0  0  0  0  0  0  0  0  0  0  0  0
  142.6983   73.7131  220.5343 H   0  0  0  0  0  0  0  0  0  0  0  0
  142.2030   72.2060  222.2740 H   0  0  0  0  0  0  0  0  0  0  0  0
  138.6715   70.1282  222.5151 H   0  0  0  0  0  0  0  0  0  0  0  0
  138.4488   68.7266  224.5607 H   0  0  0  0  0  0  0  0  0  0  0  0
  139.0134   68.3477  226.9017 H   0  0  0  0  0  0  0  0  0  0  0  0
  140.1824   69.0350  228.9866 H   0  0  0  0  0  0  0  0  0  0  0  0
  141.5497   71.1193  228.9538 H   0  0  0  0  0  0  0  0  0  0  0  0
  141.7254   72.4720  226.8876 H   0  0  0  0  0  0  0  0  0  0  0  0
  138.1720   74.9160  221.3740 H   0  0  0  0  0  0  0  0  0  0  0  0
  138.8050   74.6680  223.0890 H   0  0  0  0  0  0  0  0  0  0  0  0
  1  2  1  0
  2  3  1  0
  3  4  1  0
  4  5  2  0
  4  6  1  0
  6  7  1  0
  7  8  1  0
  8  9  2  0
  8 10  1  0
 10 11  2  0
 11 12  1  0
 12 13  2  0
 13 14  1  0
 14 15  2  0
 15 16  1  0
 16 17  2  0
 17 18  1  0
 18 19  2  0
  2 20  1  0
 20 21  1  0
 20 22  2  0
 19 10  1  0
 18 13  1  0
  1 23  1  0
  1 24  1  0
  1 25  1  0
  2 26  1  6
  3 27  1  0
  6 28  1  0
  6 29  1  0
  7 30  1  0
 11 31  1  0
 12 32  1  0
 14 33  1  0
 15 34  1  0
 16 35  1  0
 17 36  1  0
 21 37  1  0
 21 38  1  0
M  END
>  <smiles>  (18) 
C[C@@H](NC(=O)CNC(=O)c1ccc2ccccc2n1)C(N)=O

>  <score_type>  (18) 
oracle

>  <origin>  (18) 
autodockgpu

>  <m_score__min__energy>  (18) 
-7.75

>  <m_primary>  (18) 
energy

>  <rmsd>  (18) 
2.6379794523574462

>  <m_score__min__rmsd>  (18) 
2.6379794523574462

>  <meeko>  (18) 
{"free_energy": -6.56, "intermolecular_energy": -8.05, "internal_energy": -2.36, "cluster_size": 20, "cluster_id": 1, "rank_in_cluster": 6}

>  <energy>  (18) 
-6.31

>  <cluster_rmsd>  (18) 
1.61

>  <cluster>  (18) 
1

$$$$

     RDKit          3D

 38 39  0  0  0  0  0  0  0  0999 V2000
  139.6230   79.3090  222.0140 C   0  0  0  0  0  0  0  0  0  0  0  0
  140.4810   78.4460  222.8870 C   0  0  1  0  0  0  0  0  0  0  0  0
  140.8540   77.2010  222.2560 N   0  0  0  0  0  0  0  0  0  0  0  0
  139.8870   76.1710  222.1080 C   0  0  0  0  0  0  0  0  0  0  0  0
  138.7100   76.3120  222.5130 O   0  0  0  0  0  0  0  0  0  0  0  0
  140.2640   74.8870  221.4580 C   0  0  0  0  0  0  0  0  0  0  0  0
  139.9530   73.7830  222.3360 N   0  0  0  0  0  0  0  0  0  0  0  0
  140.7000   72.5770  222.3500 C   0  0  0  0  0  0  0  0  0  0  0  0
  141.6890   72.4150  221.5810 O   0  0  0  0  0  0  0  0  0  0  0  0
  140.3180   71.5040  223.2730 C   0  0  0  0  0  0  0  0  0  0  0  0
  139.5720   70.4330  222.8530 C   0  0  0  0  0  0  0  0  0  0  0  0
  139.2270   69.4360  223.7490 C   0  0  0  0  0  0  0  0  0  0  0  0
  139.6440   69.5340  225.0670 C   0  0  0  0  0  0  0  0  0  0  0  0
  139.3200   68.5530  226.0040 C   0  0  0  0  0  0  0  0  0  0  0  0
  139.7300   68.6420  227.3210 C   0  0  0  0  0  0  0  0  0  0  0  0
  140.4800   69.7430  227.6900 C   0  0  0  0  0  0  0  0  0  0  0  0
  140.8050   70.7200  226.7670 C   0  0  0  0  0  0  0  0  0  0  0  0
  140.3830   70.6050  225.4680 C   0  0  0  0  0  0  0  0  0  0  0  0
  140.7050   71.5600  224.5760 N   0  0  0  0  0  0  0  0  0  0  0  0
  141.7360   79.1960  223.1670 C   0  0  0  0  0  0  0  0  0  0  0  0
  142.9080   79.0490  222.3450 N   0  0  0  0  0  0  0  0  0  0  0  0
  141.8480   79.9950  224.1310 O   0  0  0  0  0  0  0  0  0  0  0  0
  138.9867   79.9490  222.6430 H   0  0  0  0  0  0  0  0  0  0  0  0
  140.2630   79.9392  221.3789 H   0  0  0  0  0  0  0  0  0  0  0  0
  138.9891   78.6727  221.3789 H   0  0  0  0  0  0  0  0  0  0  0  0
  139.9050   78.2080  223.7934 H   0  0  0  0  0  0  0  0  0  0  0  0
  141.8430   77.1170  221.9300 H   0  0  0  0  0  0  0  0  0  0  0  0
  139.7032   74.7752  220.5183 H   0  0  0  0  0  0  0  0  0  0  0  0
  141.3437   74.8902  221.2478 H   0  0  0  0  0  0  0  0  0  0  0  0
  139.1380   73.8470  223.0070 H   0  0  0  0  0  0  0  0  0  0  0  0
  139.2477   70.3661  221.8040 H   0  0  0  0  0  0  0  0  0  0  0  0
  138.6280   68.5747  223.4183 H   0  0  0  0  0  0  0  0  0  0  0  0
  138.7225   67.6857  225.6865 H   0  0  0  0  0  0  0  0  0  0  0  0
  139.4681   67.8623  228.0514 H   0  0  0  0  0  0  0  0  0  0  0  0
  140.8224   69.8431  228.7305 H   0  0  0  0  0  0  0  0  0  0  0  0
  141.4028   71.5903  227.0755 H   0  0  0  0  0  0  0  0  0  0  0  0
  143.5970   78.3000  222.5890 H   0  0  0  0  0  0  0  0  0  0  0  0
  143.0270   79.7000  221.5320 H   0  0  0  0  0  0  0  0  0  0  0  0
  1  2  1  0
  2  3  1  0
  3  4  1  0
  4  5  2  0
  4  6  1  0
  6  7  1  0
  7  8  1  0
  8  9  2  0
  8 10  1  0
 10 11  2  0
 11 12  1  0
 12 13  2  0
 13 14  1  0
 14 15  2  0
 15 16  1  0
 16 17  2  0
 17 18  1  0
 18 19  2  0
  2 20  1  0
 20 21  1  0
 20 22  2  0
 19 10  1  0
 18 13  1  0
  1 23  1  0
  1 24  1  0
  1 25  1  0
  2 26  1  1
  3 27  1  0
  6 28  1  0
  6 29  1  0
  7 30  1  0
 11 31  1  0
 12 32  1  0
 14 33  1  0
 15 34  1  0
 16 35  1  0
 17 36  1  0
 21 37  1  0
 21 38  1  0
M  END
>  <smiles>  (19) 
C[C@@H](NC(=O)CNC(=O)c1ccc2ccccc2n1)C(N)=O

>  <score_type>  (19) 
oracle

>  <origin>  (19) 
autodockgpu

>  <m_score__min__energy>  (19) 
-7.75

>  <m_primary>  (19) 
energy

>  <rmsd>  (19) 
2.5263792814054744

>  <m_score__min__rmsd>  (19) 
2.5263792814054744

>  <meeko>  (19) 
{"free_energy": -7.69, "intermolecular_energy": -9.18, "internal_energy": -1.11, "cluster_size": 20, "cluster_id": 1, "rank_in_cluster": 2}

>  <energy>  (19) 
-6.3

>  <cluster_rmsd>  (19) 
1.82

>  <cluster>  (19) 
1

$$$$

     RDKit          3D

 38 39  0  0  0  0  0  0  0  0999 V2000
  143.3630   75.3810  219.2660 C   0  0  0  0  0  0  0  0  0  0  0  0
  143.2730   74.6320  220.5600 C   0  0  1  0  0  0  0  0  0  0  0  0
  142.0240   73.9230  220.7130 N   0  0  0  0  0  0  0  0  0  0  0  0
  140.7970   74.6330  220.6170 C   0  0  0  0  0  0  0  0  0  0  0  0
  140.7670   75.8660  220.4000 O   0  0  0  0  0  0  0  0  0  0  0  0
  139.5080   73.9080  220.7730 C   0  0  0  0  0  0  0  0  0  0  0  0
  139.5020   73.1790  222.0210 N   0  0  0  0  0  0  0  0  0  0  0  0
  140.1710   71.9400  222.1910 C   0  0  0  0  0  0  0  0  0  0  0  0
  140.8130   71.4110  221.2410 O   0  0  0  0  0  0  0  0  0  0  0  0
  140.1160   71.2650  223.4920 C   0  0  0  0  0  0  0  0  0  0  0  0
  139.5530   70.0230  223.6280 C   0  0  0  0  0  0  0  0  0  0  0  0
  139.5160   69.4120  224.8700 C   0  0  0  0  0  0  0  0  0  0  0  0
  140.0550   70.0690  225.9650 C   0  0  0  0  0  0  0  0  0  0  0  0
  140.0410   69.4920  227.2340 C   0  0  0  0  0  0  0  0  0  0  0  0
  140.5740   70.1380  228.3340 C   0  0  0  0  0  0  0  0  0  0  0  0
  141.1310   71.3880  228.1380 C   0  0  0  0  0  0  0  0  0  0  0  0
  141.1490   71.9680  226.8830 C   0  0  0  0  0  0  0  0  0  0  0  0
  140.6100   71.3020  225.8120 C   0  0  0  0  0  0  0  0  0  0  0  0
  140.6330   71.8740  224.5940 N   0  0  0  0  0  0  0  0  0  0  0  0
  144.3640   73.6190  220.5700 C   0  0  0  0  0  0  0  0  0  0  0  0
  145.7500   73.9950  220.4810 N   0  0  0  0  0  0  0  0  0  0  0  0
  144.1430   72.3850  220.6550 O   0  0  0  0  0  0  0  0  0  0  0  0
  143.4919   76.4539  219.4716 H   0  0  0  0  0  0  0  0  0  0  0  0
  144.2233   75.0124  218.6881 H   0  0  0  0  0  0  0  0  0  0  0  0
  142.4399   75.2267  218.6881 H   0  0  0  0  0  0  0  0  0  0  0  0
  143.3513   75.3631  221.3782 H   0  0  0  0  0  0  0  0  0  0  0  0
  142.0860   72.8950  220.8930 H   0  0  0  0  0  0  0  0  0  0  0  0
  138.6796   74.6317  220.7693 H   0  0  0  0  0  0  0  0  0  0  0  0
  139.3871   73.2004  219.9395 H   0  0  0  0  0  0  0  0  0  0  0  0
  138.9850   73.5620  222.8610 H   0  0  0  0  0  0  0  0  0  0  0  0
  139.1305   69.5115  222.7506 H   0  0  0  0  0  0  0  0  0  0  0  0
  139.0638   68.4160  224.9864 H   0  0  0  0  0  0  0  0  0  0  0  0
  139.5936   68.4955  227.3636 H   0  0  0  0  0  0  0  0  0  0  0  0
  140.5555   69.6733  229.3309 H   0  0  0  0  0  0  0  0  0  0  0  0
  141.5657   71.9284  228.9919 H   0  0  0  0  0  0  0  0  0  0  0  0
  141.5956   72.9635  226.7435 H   0  0  0  0  0  0  0  0  0  0  0  0
  146.1830   74.0850  219.5320 H   0  0  0  0  0  0  0  0  0  0  0  0
  146.2760   74.1650  221.3720 H   0  0  0  0  0  0  0  0  0  0  0  0
  1  2  1  0
  2  3  1  0
  3  4  1  0
  4  5  2  0
  4  6  1  0
  6  7  1  0
  7  8  1  0
  8  9  2  0
  8 10  1  0
 10 11  2  0
 11 12  1  0
 12 13  2  0
 13 14  1  0
 14 15  2  0
 15 16  1  0
 16 17  2  0
 17 18  1  0
 18 19  2  0
  2 20  1  0
 20 21  1  0
 20 22  2  0
 19 10  1  0
 18 13  1  0
  1 23  1  0
  1 24  1  0
  1 25  1  0
  2 26  1  1
  3 27  1  0
  6 28  1  0
  6 29  1  0
  7 30  1  0
 11 31  1  0
 12 32  1  0
 14 33  1  0
 15 34  1  0
 16 35  1  0
 17 36  1  0
 21 37  1  0
 21 38  1  0
M  END
>  <smiles>  (20) 
C[C@@H](NC(=O)CNC(=O)c1ccc2ccccc2n1)C(N)=O

>  <score_type>  (20) 
oracle

>  <origin>  (20) 
autodockgpu

>  <m_score__min__energy>  (20) 
-7.75

>  <m_primary>  (20) 
energy

>  <rmsd>  (20) 
2.7596745547998127

>  <m_score__min__rmsd>  (20) 
2.7596745547998127

>  <meeko>  (20) 
{"free_energy": -6.61, "intermolecular_energy": -8.1, "internal_energy": -2.33, "cluster_size": 17, "cluster_id": 2, "rank_in_cluster": 12}

>  <energy>  (20) 
-6.16

>  <cluster_rmsd>  (20) 
1.65

>  <cluster>  (20) 
1

$$$$

     RDKit          3D

 38 39  0  0  0  0  0  0  0  0999 V2000
  143.4500   71.6840  218.7970 C   0  0  0  0  0  0  0  0  0  0  0  0
  142.9650   73.0170  219.2780 C   0  0  1  0  0  0  0  0  0  0  0  0
  141.6450   72.9580  219.8630 N   0  0  0  0  0  0  0  0  0  0  0  0
  141.0760   74.1290  220.4310 C   0  0  0  0  0  0  0  0  0  0  0  0
  141.6890   75.2210  220.4390 O   0  0  0  0  0  0  0  0  0  0  0  0
  139.7170   74.0740  221.0340 C   0  0  0  0  0  0  0  0  0  0  0  0
  139.7510   73.3010  222.2530 N   0  0  0  0  0  0  0  0  0  0  0  0
  139.9480   71.8970  222.2690 C   0  0  0  0  0  0  0  0  0  0  0  0
  140.1040   71.2490  221.1950 O   0  0  0  0  0  0  0  0  0  0  0  0
  139.9700   71.1870  223.5510 C   0  0  0  0  0  0  0  0  0  0  0  0
  139.5090   69.9010  223.6630 C   0  0  0  0  0  0  0  0  0  0  0  0
  139.5430   69.2580  224.8890 C   0  0  0  0  0  0  0  0  0  0  0  0
  140.0480   69.9270  225.9920 C   0  0  0  0  0  0  0  0  0  0  0  0
  140.1030   69.3180  227.2460 C   0  0  0  0  0  0  0  0  0  0  0  0
  140.6040   69.9760  228.3530 C   0  0  0  0  0  0  0  0  0  0  0  0
  141.0570   71.2710  228.1830 C   0  0  0  0  0  0  0  0  0  0  0  0
  141.0060   71.8830  226.9440 C   0  0  0  0  0  0  0  0  0  0  0  0
  140.5030   71.2040  225.8640 C   0  0  0  0  0  0  0  0  0  0  0  0
  140.4580   71.8060  224.6610 N   0  0  0  0  0  0  0  0  0  0  0  0
  143.9010   73.4800  220.3400 C   0  0  0  0  0  0  0  0  0  0  0  0
  144.3240   74.8520  220.4340 N   0  0  0  0  0  0  0  0  0  0  0  0
  144.3750   72.7080  221.2100 O   0  0  0  0  0  0  0  0  0  0  0  0
  143.6826   71.0447  219.6614 H   0  0  0  0  0  0  0  0  0  0  0  0
  142.6678   71.2071  218.1882 H   0  0  0  0  0  0  0  0  0  0  0  0
  144.3558   71.8213  218.1882 H   0  0  0  0  0  0  0  0  0  0  0  0
  142.9228   73.6920  218.4105 H   0  0  0  0  0  0  0  0  0  0  0  0
  141.1620   72.0320  219.8390 H   0  0  0  0  0  0  0  0  0  0  0  0
  139.3763   75.0954  221.2592 H   0  0  0  0  0  0  0  0  0  0  0  0
  139.0245   73.5992  220.3234 H   0  0  0  0  0  0  0  0  0  0  0  0
  139.6280   73.7770  223.1900 H   0  0  0  0  0  0  0  0  0  0  0  0
  139.1122   69.3799  222.7793 H   0  0  0  0  0  0  0  0  0  0  0  0
  139.1728   68.2267  224.9861 H   0  0  0  0  0  0  0  0  0  0  0  0
  139.7377   68.2863  227.3565 H   0  0  0  0  0  0  0  0  0  0  0  0
  140.6412   69.4856  229.3369 H   0  0  0  0  0  0  0  0  0  0  0  0
  141.4632   71.8216  229.0443 H   0  0  0  0  0  0  0  0  0  0  0  0
  141.3689   72.9145  226.8248 H   0  0  0  0  0  0  0  0  0  0  0  0
  145.1760   75.1490  219.9030 H   0  0  0  0  0  0  0  0  0  0  0  0
  143.7610   75.5050  221.0320 H   0  0  0  0  0  0  0  0  0  0  0  0
  1  2  1  0
  2  3  1  0
  3  4  1  0
  4  5  2  0
  4  6  1  0
  6  7  1  0
  7  8  1  0
  8  9  2  0
  8 10  1  0
 10 11  2  0
 11 12  1  0
 12 13  2  0
 13 14  1  0
 14 15  2  0
 15 16  1  0
 16 17  2  0
 17 18  1  0
 18 19  2  0
  2 20  1  0
 20 21  1  0
 20 22  2  0
 19 10  1  0
 18 13  1  0
  1 23  1  0
  1 24  1  0
  1 25  1  0
  2 26  1  6
  3 27  1  0
  6 28  1  0
  6 29  1  0
  7 30  1  0
 11 31  1  0
 12 32  1  0
 14 33  1  0
 15 34  1  0
 16 35  1  0
 17 36  1  0
 21 37  1  0
 21 38  1  0
M  END
>  <smiles>  (21) 
C[C@@H](NC(=O)CNC(=O)c1ccc2ccccc2n1)C(N)=O

>  <score_type>  (21) 
oracle

>  <origin>  (21) 
autodockgpu

>  <m_score__min__energy>  (21) 
-7.75

>  <m_primary>  (21) 
energy

>  <rmsd>  (21) 
3.1387146403161053

>  <m_score__min__rmsd>  (21) 
3.1387146403161053

>  <meeko>  (21) 
{"free_energy": -6.13, "intermolecular_energy": -7.62, "internal_energy": -2.46, "cluster_size": 17, "cluster_id": 2, "rank_in_cluster": 17}

>  <energy>  (21) 
-6.99

>  <cluster_rmsd>  (21) 
0.0

>  <cluster>  (21) 
2

$$$$

     RDKit          3D

 38 39  0  0  0  0  0  0  0  0999 V2000
  144.8760   70.5780  218.8030 C   0  0  0  0  0  0  0  0  0  0  0  0
  144.5150   72.0190  218.9920 C   0  0  1  0  0  0  0  0  0  0  0  0
  143.2560   72.1980  219.6780 N   0  0  0  0  0  0  0  0  0  0  0  0
  142.9160   73.4760  220.1990 C   0  0  0  0  0  0  0  0  0  0  0  0
  143.6810   74.4590  220.0790 O   0  0  0  0  0  0  0  0  0  0  0  0
  141.6210   73.6660  220.9060 C   0  0  0  0  0  0  0  0  0  0  0  0
  141.5030   75.0340  221.3550 N   0  0  0  0  0  0  0  0  0  0  0  0
  140.3260   75.5490  221.9550 C   0  0  0  0  0  0  0  0  0  0  0  0
  139.3100   74.8180  222.1270 O   0  0  0  0  0  0  0  0  0  0  0  0
  140.2900   76.9500  222.3840 C   0  0  0  0  0  0  0  0  0  0  0  0
  139.1030   77.5890  222.6350 C   0  0  0  0  0  0  0  0  0  0  0  0
  139.1020   78.9140  223.0380 C   0  0  0  0  0  0  0  0  0  0  0  0
  140.3090   79.5790  223.1850 C   0  0  0  0  0  0  0  0  0  0  0  0
  140.3560   80.9130  223.5890 C   0  0  0  0  0  0  0  0  0  0  0  0
  141.5530   81.5870  223.7380 C   0  0  0  0  0  0  0  0  0  0  0  0
  142.7200   80.8930  223.4730 C   0  0  0  0  0  0  0  0  0  0  0  0
  142.6820   79.5710  223.0710 C   0  0  0  0  0  0  0  0  0  0  0  0
  141.4780   78.9300  222.9320 C   0  0  0  0  0  0  0  0  0  0  0  0
  141.4510   77.6420  222.5410 N   0  0  0  0  0  0  0  0  0  0  0  0
  145.5720   72.6420  219.8350 C   0  0  0  0  0  0  0  0  0  0  0  0
  145.4290   72.7710  221.2610 N   0  0  0  0  0  0  0  0  0  0  0  0
  146.6450   73.0890  219.3570 O   0  0  0  0  0  0  0  0  0  0  0  0
  144.9962   70.0982  219.7855 H   0  0  0  0  0  0  0  0  0  0  0  0
  144.0773   70.0704  218.2423 H   0  0  0  0  0  0  0  0  0  0  0  0
  145.8197   70.5069  218.2423 H   0  0  0  0  0  0  0  0  0  0  0  0
  144.4281   72.4764  217.9954 H   0  0  0  0  0  0  0  0  0  0  0  0
  142.6410   71.3580  219.7600 H   0  0  0  0  0  0  0  0  0  0  0  0
  140.7932   73.4345  220.2196 H   0  0  0  0  0  0  0  0  0  0  0  0
  141.5810   72.9941  221.7761 H   0  0  0  0  0  0  0  0  0  0  0  0
  142.3150   75.7040  221.2440 H   0  0  0  0  0  0  0  0  0  0  0  0
  138.1518   77.0494  222.5163 H   0  0  0  0  0  0  0  0  0  0  0  0
  138.1533   79.4331  223.2393 H   0  0  0  0  0  0  0  0  0  0  0  0
  139.4144   81.4431  223.7947 H   0  0  0  0  0  0  0  0  0  0  0  0
  141.5771   82.6396  224.0565 H   0  0  0  0  0  0  0  0  0  0  0  0
  143.6902   81.3995  223.5836 H   0  0  0  0  0  0  0  0  0  0  0  0
  143.6184   79.0328  222.8624 H   0  0  0  0  0  0  0  0  0  0  0  0
  144.9710   73.6330  221.6400 H   0  0  0  0  0  0  0  0  0  0  0  0
  145.7900   71.9960  221.8680 H   0  0  0  0  0  0  0  0  0  0  0  0
  1  2  1  0
  2  3  1  0
  3  4  1  0
  4  5  2  0
  4  6  1  0
  6  7  1  0
  7  8  1  0
  8  9  2  0
  8 10  1  0
 10 11  2  0
 11 12  1  0
 12 13  2  0
 13 14  1  0
 14 15  2  0
 15 16  1  0
 16 17  2  0
 17 18  1  0
 18 19  2  0
  2 20  1  0
 20 21  1  0
 20 22  2  0
 19 10  1  0
 18 13  1  0
  1 23  1  0
  1 24  1  0
  1 25  1  0
  2 26  1  6
  3 27  1  0
  6 28  1  0
  6 29  1  0
  7 30  1  0
 11 31  1  0
 12 32  1  0
 14 33  1  0
 15 34  1  0
 16 35  1  0
 17 36  1  0
 21 37  1  0
 21 38  1  0
M  END
>  <smiles>  (22) 
C[C@@H](NC(=O)CNC(=O)c1ccc2ccccc2n1)C(N)=O

>  <score_type>  (22) 
oracle

>  <origin>  (22) 
autodockgpu

>  <m_score__min__energy>  (22) 
-7.75

>  <m_primary>  (22) 
energy

>  <rmsd>  (22) 
8.170786615787014

>  <m_score__min__rmsd>  (22) 
8.170786615787014

>  <meeko>  (22) 
{"free_energy": -6.77, "intermolecular_energy": -8.26, "internal_energy": -2.06, "cluster_size": 9, "cluster_id": 3, "rank_in_cluster": 5}

>  <energy>  (22) 
-6.97

>  <cluster_rmsd>  (22) 
1.09

>  <cluster>  (22) 
2

$$$$

     RDKit          3D

 38 39  0  0  0  0  0  0  0  0999 V2000
  141.1070   77.7990  222.7560 C   0  0  0  0  0  0  0  0  0  0  0  0
  140.5340   76.8410  221.7570 C   0  0  1  0  0  0  0  0  0  0  0  0
  141.2810   75.6070  221.6680 N   0  0  0  0  0  0  0  0  0  0  0  0
  140.8990   74.6230  220.7180 C   0  0  0  0  0  0  0  0  0  0  0  0
  139.9260   74.7940  219.9490 O   0  0  0  0  0  0  0  0  0  0  0  0
  141.6640   73.3510  220.6210 C   0  0  0  0  0  0  0  0  0  0  0  0
  141.4470   72.5560  221.8070 N   0  0  0  0  0  0  0  0  0  0  0  0
  140.1590   72.3110  222.3450 C   0  0  0  0  0  0  0  0  0  0  0  0
  139.1240   72.7870  221.7980 O   0  0  0  0  0  0  0  0  0  0  0  0
  140.0250   71.4920  223.5540 C   0  0  0  0  0  0  0  0  0  0  0  0
  139.3080   70.3230  223.5490 C   0  0  0  0  0  0  0  0  0  0  0  0
  139.2010   69.5730  224.7070 C   0  0  0  0  0  0  0  0  0  0  0  0
  139.8250   70.0150  225.8620 C   0  0  0  0  0  0  0  0  0  0  0  0
  139.7430   69.2910  227.0520 C   0  0  0  0  0  0  0  0  0  0  0  0
  140.3610   69.7230  228.2100 C   0  0  0  0  0  0  0  0  0  0  0  0
  141.0720   70.9070  228.1580 C   0  0  0  0  0  0  0  0  0  0  0  0
  141.1570   71.6320  226.9840 C   0  0  0  0  0  0  0  0  0  0  0  0
  140.5320   71.1770  225.8500 C   0  0  0  0  0  0  0  0  0  0  0  0
  140.6210   71.8890  224.7110 N   0  0  0  0  0  0  0  0  0  0  0  0
  139.1570   76.4960  222.2030 C   0  0  0  0  0  0  0  0  0  0  0  0
  138.6800   75.1380  222.2140 N   0  0  0  0  0  0  0  0  0  0  0  0
  138.3330   77.3610  222.5940 O   0  0  0  0  0  0  0  0  0  0  0  0
  140.8922   77.4399  223.7733 H   0  0  0  0  0  0  0  0  0  0  0  0
  142.1955   77.8692  222.6141 H   0  0  0  0  0  0  0  0  0  0  0  0
  140.6540   78.7913  222.6141 H   0  0  0  0  0  0  0  0  0  0  0  0
  140.5624   77.3273  220.7707 H   0  0  0  0  0  0  0  0  0  0  0  0
  142.0860   75.4970  222.3240 H   0  0  0  0  0  0  0  0  0  0  0  0
  141.3264   72.7886  219.7380 H   0  0  0  0  0  0  0  0  0  0  0  0
  142.7361   73.5790  220.5287 H   0  0  0  0  0  0  0  0  0  0  0  0
  142.2680   72.1250  222.3190 H   0  0  0  0  0  0  0  0  0  0  0  0
  138.8182   69.9817  222.6251 H   0  0  0  0  0  0  0  0  0  0  0  0
  138.6262   68.6352  224.7103 H   0  0  0  0  0  0  0  0  0  0  0  0
  139.1712   68.3514  227.0688 H   0  0  0  0  0  0  0  0  0  0  0  0
  140.2894   69.1437  229.1424 H   0  0  0  0  0  0  0  0  0  0  0  0
  141.5768   71.2773  229.0625 H   0  0  0  0  0  0  0  0  0  0  0  0
  141.7255   72.5734  226.9587 H   0  0  0  0  0  0  0  0  0  0  0  0
  138.2240   74.7630  221.3490 H   0  0  0  0  0  0  0  0  0  0  0  0
  138.8070   74.5750  223.0890 H   0  0  0  0  0  0  0  0  0  0  0  0
  1  2  1  0
  2  3  1  0
  3  4  1  0
  4  5  2  0
  4  6  1  0
  6  7  1  0
  7  8  1  0
  8  9  2  0
  8 10  1  0
 10 11  2  0
 11 12  1  0
 12 13  2  0
 13 14  1  0
 14 15  2  0
 15 16  1  0
 16 17  2  0
 17 18  1  0
 18 19  2  0
  2 20  1  0
 20 21  1  0
 20 22  2  0
 19 10  1  0
 18 13  1  0
  1 23  1  0
  1 24  1  0
  1 25  1  0
  2 26  1  6
  3 27  1  0
  6 28  1  0
  6 29  1  0
  7 30  1  0
 11 31  1  0
 12 32  1  0
 14 33  1  0
 15 34  1  0
 16 35  1  0
 17 36  1  0
 21 37  1  0
 21 38  1  0
M  END
>  <smiles>  (23) 
C[C@@H](NC(=O)CNC(=O)c1ccc2ccccc2n1)C(N)=O

>  <score_type>  (23) 
oracle

>  <origin>  (23) 
autodockgpu

>  <m_score__min__energy>  (23) 
-7.75

>  <m_primary>  (23) 
energy

>  <rmsd>  (23) 
2.6485595199968968

>  <m_score__min__rmsd>  (23) 
2.6485595199968968

>  <meeko>  (23) 
{"free_energy": -6.53, "intermolecular_energy": -8.02, "internal_energy": -2.39, "cluster_size": 20, "cluster_id": 1, "rank_in_cluster": 9}

>  <energy>  (23) 
-6.95

>  <cluster_rmsd>  (23) 
0.15

>  <cluster>  (23) 
2

$$$$

     RDKit          3D

 38 39  0  0  0  0  0  0  0  0999 V2000
  143.7170   75.4120  219.3030 C   0  0  0  0  0  0  0  0  0  0  0  0
  143.5650   74.4360  220.4290 C   0  0  1  0  0  0  0  0  0  0  0  0
  142.2300   73.8920  220.5250 N   0  0  0  0  0  0  0  0  0  0  0  0
  141.1720   74.7110  221.0040 C   0  0  0  0  0  0  0  0  0  0  0  0
  141.3650   75.9000  221.3460 O   0  0  0  0  0  0  0  0  0  0  0  0
  139.7950   74.1580  221.1050 C   0  0  0  0  0  0  0  0  0  0  0  0
  139.6860   73.3260  222.2810 N   0  0  0  0  0  0  0  0  0  0  0  0
  140.3460   72.0770  222.4050 C   0  0  0  0  0  0  0  0  0  0  0  0
  141.0720   71.6300  221.4730 O   0  0  0  0  0  0  0  0  0  0  0  0
  140.1820   71.2940  223.6330 C   0  0  0  0  0  0  0  0  0  0  0  0
  139.5620   70.0720  223.6240 C   0  0  0  0  0  0  0  0  0  0  0  0
  139.4220   69.3570  224.8010 C   0  0  0  0  0  0  0  0  0  0  0  0
  139.9170   69.8900  225.9810 C   0  0  0  0  0  0  0  0  0  0  0  0
  139.8000   69.2050  227.1900 C   0  0  0  0  0  0  0  0  0  0  0  0
  140.2890   69.7280  228.3730 C   0  0  0  0  0  0  0  0  0  0  0  0
  140.9070   70.9640  228.3240 C   0  0  0  0  0  0  0  0  0  0  0  0
  141.0270   71.6500  227.1300 C   0  0  0  0  0  0  0  0  0  0  0  0
  140.5310   71.1050  225.9730 C   0  0  0  0  0  0  0  0  0  0  0  0
  140.6530   71.7800  224.8150 N   0  0  0  0  0  0  0  0  0  0  0  0
  144.4900   73.2990  220.1660 C   0  0  0  0  0  0  0  0  0  0  0  0
  144.3430   72.0310  220.8300 N   0  0  0  0  0  0  0  0  0  0  0  0
  145.4480   73.3770  219.3560 O   0  0  0  0  0  0  0  0  0  0  0  0
  143.8742   76.4213  219.7113 H   0  0  0  0  0  0  0  0  0  0  0  0
  144.5817   75.1276  218.6854 H   0  0  0  0  0  0  0  0  0  0  0  0
  142.8068   75.4040  218.6854 H   0  0  0  0  0  0  0  0  0  0  0  0
  143.7841   74.9675  221.3668 H   0  0  0  0  0  0  0  0  0  0  0  0
  142.1050   72.8980  220.2320 H   0  0  0  0  0  0  0  0  0  0  0  0
  139.0736   74.9854  221.1751 H   0  0  0  0  0  0  0  0  0  0  0  0
  139.5804   73.5533  220.2115 H   0  0  0  0  0  0  0  0  0  0  0  0
  139.0940   73.6360  223.1020 H   0  0  0  0  0  0  0  0  0  0  0  0
  139.1752   69.6589  222.6807 H   0  0  0  0  0  0  0  0  0  0  0  0
  138.9233   68.3765  224.7999 H   0  0  0  0  0  0  0  0  0  0  0  0
  139.3056   68.2225  227.2030 H   0  0  0  0  0  0  0  0  0  0  0  0
  140.1897   69.1792  229.3212 H   0  0  0  0  0  0  0  0  0  0  0  0
  141.3084   71.4071  229.2473 H   0  0  0  0  0  0  0  0  0  0  0  0
  141.5202   72.6330  227.1076 H   0  0  0  0  0  0  0  0  0  0  0  0
  144.8290   71.8880  221.7460 H   0  0  0  0  0  0  0  0  0  0  0  0
  143.7520   71.2960  220.3700 H   0  0  0  0  0  0  0  0  0  0  0  0
  1  2  1  0
  2  3  1  0
  3  4  1  0
  4  5  2  0
  4  6  1  0
  6  7  1  0
  7  8  1  0
  8  9  2  0
  8 10  1  0
 10 11  2  0
 11 12  1  0
 12 13  2  0
 13 14  1  0
 14 15  2  0
 15 16  1  0
 16 17  2  0
 17 18  1  0
 18 19  2  0
  2 20  1  0
 20 21  1  0
 20 22  2  0
 19 10  1  0
 18 13  1  0
  1 23  1  0
  1 24  1  0
  1 25  1  0
  2 26  1  1
  3 27  1  0
  6 28  1  0
  6 29  1  0
  7 30  1  0
 11 31  1  0
 12 32  1  0
 14 33  1  0
 15 34  1  0
 16 35  1  0
 17 36  1  0
 21 37  1  0
 21 38  1  0
M  END
>  <smiles>  (24) 
C[C@@H](NC(=O)CNC(=O)c1ccc2ccccc2n1)C(N)=O

>  <score_type>  (24) 
oracle

>  <origin>  (24) 
autodockgpu

>  <m_score__min__energy>  (24) 
-7.75

>  <m_primary>  (24) 
energy

>  <rmsd>  (24) 
3.002628719729102

>  <m_score__min__rmsd>  (24) 
3.002628719729102

>  <meeko>  (24) 
{"free_energy": -6.99, "intermolecular_energy": -8.49, "internal_energy": -1.8, "cluster_size": 17, "cluster_id": 2, "rank_in_cluster": 1}

>  <energy>  (24) 
-6.94

>  <cluster_rmsd>  (24) 
1.01

>  <cluster>  (24) 
2

$$$$

     RDKit          3D

 38 39  0  0  0  0  0  0  0  0999 V2000
  141.0640   77.8570  222.8320 C   0  0  0  0  0  0  0  0  0  0  0  0
  140.4840   76.9170  221.8200 C   0  0  1  0  0  0  0  0  0  0  0  0
  141.2330   75.6870  221.7010 N   0  0  0  0  0  0  0  0  0  0  0  0
  140.8480   74.7220  220.7320 C   0  0  0  0  0  0  0  0  0  0  0  0
  139.8700   74.9080  219.9720 O   0  0  0  0  0  0  0  0  0  0  0  0
  141.6150   73.4540  220.6040 C   0  0  0  0  0  0  0  0  0  0  0  0
  141.3960   72.6280  221.7690 N   0  0  0  0  0  0  0  0  0  0  0  0
  140.1070   72.3700  222.2980 C   0  0  0  0  0  0  0  0  0  0  0  0
  139.0730   72.8610  221.7630 O   0  0  0  0  0  0  0  0  0  0  0  0
  139.9710   71.5190  223.4840 C   0  0  0  0  0  0  0  0  0  0  0  0
  139.2570   70.3490  223.4460 C   0  0  0  0  0  0  0  0  0  0  0  0
  139.1470   69.5680  224.5830 C   0  0  0  0  0  0  0  0  0  0  0  0
  139.7660   69.9810  225.7520 C   0  0  0  0  0  0  0  0  0  0  0  0
  139.6820   69.2250  226.9220 C   0  0  0  0  0  0  0  0  0  0  0  0
  140.2940   69.6280  228.0940 C   0  0  0  0  0  0  0  0  0  0  0  0
  141.0020   70.8160  228.0750 C   0  0  0  0  0  0  0  0  0  0  0  0
  141.0900   71.5710  226.9210 C   0  0  0  0  0  0  0  0  0  0  0  0
  140.4710   71.1450  225.7740 C   0  0  0  0  0  0  0  0  0  0  0  0
  140.5620   71.8860  224.6540 N   0  0  0  0  0  0  0  0  0  0  0  0
  139.1120   76.5590  222.2730 C   0  0  0  0  0  0  0  0  0  0  0  0
  138.6310   75.2030  222.2430 N   0  0  0  0  0  0  0  0  0  0  0  0
  138.2950   77.4120  222.7040 O   0  0  0  0  0  0  0  0  0  0  0  0
  140.8381   77.4908  223.8444 H   0  0  0  0  0  0  0  0  0  0  0  0
  142.1543   77.9136  222.6974 H   0  0  0  0  0  0  0  0  0  0  0  0
  140.6256   78.8568  222.6974 H   0  0  0  0  0  0  0  0  0  0  0  0
  140.5016   77.4223  220.8431 H   0  0  0  0  0  0  0  0  0  0  0  0
  142.0420   75.5640  222.3500 H   0  0  0  0  0  0  0  0  0  0  0  0
  141.2804   72.9142  219.7059 H   0  0  0  0  0  0  0  0  0  0  0  0
  142.6871   73.6857  220.5203 H   0  0  0  0  0  0  0  0  0  0  0  0
  142.2150   72.1820  222.2690 H   0  0  0  0  0  0  0  0  0  0  0  0
  138.7716   70.0312  222.5115 H   0  0  0  0  0  0  0  0  0  0  0  0
  138.5742   68.6292  224.5591 H   0  0  0  0  0  0  0  0  0  0  0  0
  139.1136   68.2833  226.9112 H   0  0  0  0  0  0  0  0  0  0  0  0
  140.2205   69.0244  229.0106 H   0  0  0  0  0  0  0  0  0  0  0  0
  141.5018   71.1645  228.9908 H   0  0  0  0  0  0  0  0  0  0  0  0
  141.6567   72.5138  226.9225 H   0  0  0  0  0  0  0  0  0  0  0  0
  138.1630   74.8590  221.3720 H   0  0  0  0  0  0  0  0  0  0  0  0
  138.7680   74.6100  223.0970 H   0  0  0  0  0  0  0  0  0  0  0  0
  1  2  1  0
  2  3  1  0
  3  4  1  0
  4  5  2  0
  4  6  1  0
  6  7  1  0
  7  8  1  0
  8  9  2  0
  8 10  1  0
 10 11  2  0
 11 12  1  0
 12 13  2  0
 13 14  1  0
 14 15  2  0
 15 16  1  0
 16 17  2  0
 17 18  1  0
 18 19  2  0
  2 20  1  0
 20 21  1  0
 20 22  2  0
 19 10  1  0
 18 13  1  0
  1 23  1  0
  1 24  1  0
  1 25  1  0
  2 26  1  6
  3 27  1  0
  6 28  1  0
  6 29  1  0
  7 30  1  0
 11 31  1  0
 12 32  1  0
 14 33  1  0
 15 34  1  0
 16 35  1  0
 17 36  1  0
 21 37  1  0
 21 38  1  0
M  END
>  <smiles>  (25) 
C[C@@H](NC(=O)CNC(=O)c1ccc2ccccc2n1)C(N)=O

>  <score_type>  (25) 
oracle

>  <origin>  (25) 
autodockgpu

>  <m_score__min__energy>  (25) 
-7.75

>  <m_primary>  (25) 
energy

>  <rmsd>  (25) 
2.6462917724072526

>  <m_score__min__rmsd>  (25) 
2.6462917724072526

>  <meeko>  (25) 
{"free_energy": -6.55, "intermolecular_energy": -8.04, "internal_energy": -2.37, "cluster_size": 20, "cluster_id": 1, "rank_in_cluster": 8}

>  <energy>  (25) 
-6.88

>  <cluster_rmsd>  (25) 
1.07

>  <cluster>  (25) 
2

$$$$

     RDKit          3D

 38 39  0  0  0  0  0  0  0  0999 V2000
  143.6240   75.6800  219.2390 C   0  0  0  0  0  0  0  0  0  0  0  0
  143.4400   74.8100  220.4440 C   0  0  1  0  0  0  0  0  0  0  0  0
  142.1590   74.1410  220.4640 N   0  0  0  0  0  0  0  0  0  0  0  0
  141.0090   74.8390  220.9200 C   0  0  0  0  0  0  0  0  0  0  0  0
  141.0730   76.0280  221.3090 O   0  0  0  0  0  0  0  0  0  0  0  0
  139.6880   74.1560  220.9430 C   0  0  0  0  0  0  0  0  0  0  0  0
  139.5730   73.3470  222.1340 N   0  0  0  0  0  0  0  0  0  0  0  0
  140.3420   72.1750  222.3450 C   0  0  0  0  0  0  0  0  0  0  0  0
  141.1760   71.7790  221.4830 O   0  0  0  0  0  0  0  0  0  0  0  0
  140.1650   71.4110  223.5840 C   0  0  0  0  0  0  0  0  0  0  0  0
  139.4950   70.2150  223.5960 C   0  0  0  0  0  0  0  0  0  0  0  0
  139.3440   69.5170  224.7820 C   0  0  0  0  0  0  0  0  0  0  0  0
  139.8780   70.0410  225.9490 C   0  0  0  0  0  0  0  0  0  0  0  0
  139.7510   69.3730  227.1670 C   0  0  0  0  0  0  0  0  0  0  0  0
  140.2780   69.8870  228.3370 C   0  0  0  0  0  0  0  0  0  0  0  0
  140.9440   71.0960  228.2670 C   0  0  0  0  0  0  0  0  0  0  0  0
  141.0740   71.7650  227.0640 C   0  0  0  0  0  0  0  0  0  0  0  0
  140.5400   71.2300  225.9200 C   0  0  0  0  0  0  0  0  0  0  0  0
  140.6720   71.8880  224.7530 N   0  0  0  0  0  0  0  0  0  0  0  0
  144.4910   73.7570  220.4050 C   0  0  0  0  0  0  0  0  0  0  0  0
  145.8890   74.0750  220.5340 N   0  0  0  0  0  0  0  0  0  0  0  0
  144.2250   72.5380  220.2590 O   0  0  0  0  0  0  0  0  0  0  0  0
  143.8417   76.7094  219.5598 H   0  0  0  0  0  0  0  0  0  0  0  0
  144.4614   75.2990  218.6361 H   0  0  0  0  0  0  0  0  0  0  0  0
  142.7040   75.6706  218.6361 H   0  0  0  0  0  0  0  0  0  0  0  0
  143.5024   75.4526  221.3346 H   0  0  0  0  0  0  0  0  0  0  0  0
  142.1410   73.1500  220.1340 H   0  0  0  0  0  0  0  0  0  0  0  0
  138.8874   74.9103  220.9358 H   0  0  0  0  0  0  0  0  0  0  0  0
  139.5989   73.5103  220.0569 H   0  0  0  0  0  0  0  0  0  0  0  0
  138.8950   73.6180  222.9000 H   0  0  0  0  0  0  0  0  0  0  0  0
  139.0771   69.8097  222.6627 H   0  0  0  0  0  0  0  0  0  0  0  0
  138.8064   68.5575  224.7981 H   0  0  0  0  0  0  0  0  0  0  0  0
  139.2173   68.4116  227.1972 H   0  0  0  0  0  0  0  0  0  0  0  0
  140.1709   69.3516  229.2919 H   0  0  0  0  0  0  0  0  0  0  0  0
  141.3761   71.5315  229.1800 H   0  0  0  0  0  0  0  0  0  0  0  0
  141.6061   72.7269  227.0246 H   0  0  0  0  0  0  0  0  0  0  0  0
  146.4320   74.2960  219.6670 H   0  0  0  0  0  0  0  0  0  0  0  0
  146.3120   74.0720  221.4940 H   0  0  0  0  0  0  0  0  0  0  0  0
  1  2  1  0
  2  3  1  0
  3  4  1  0
  4  5  2  0
  4  6  1  0
  6  7  1  0
  7  8  1  0
  8  9  2  0
  8 10  1  0
 10 11  2  0
 11 12  1  0
 12 13  2  0
 13 14  1  0
 14 15  2  0
 15 16  1  0
 16 17  2  0
 17 18  1  0
 18 19  2  0
  2 20  1  0
 20 21  1  0
 20 22  2  0
 19 10  1  0
 18 13  1  0
  1 23  1  0
  1 24  1  0
  1 25  1  0
  2 26  1  1
  3 27  1  0
  6 28  1  0
  6 29  1  0
  7 30  1  0
 11 31  1  0
 12 32  1  0
 14 33  1  0
 15 34  1  0
 16 35  1  0
 17 36  1  0
 21 37  1  0
 21 38  1  0
M  END
>  <smiles>  (26) 
C[C@@H](NC(=O)CNC(=O)c1ccc2ccccc2n1)C(N)=O

>  <score_type>  (26) 
oracle

>  <origin>  (26) 
autodockgpu

>  <m_score__min__energy>  (26) 
-7.75

>  <m_primary>  (26) 
energy

>  <rmsd>  (26) 
2.791322295077017

>  <m_score__min__rmsd>  (26) 
2.791322295077017

>  <meeko>  (26) 
{"free_energy": -6.97, "intermolecular_energy": -8.46, "internal_energy": -2.3, "cluster_size": 17, "cluster_id": 2, "rank_in_cluster": 2}

>  <energy>  (26) 
-6.81

>  <cluster_rmsd>  (26) 
1.3

>  <cluster>  (26) 
2

$$$$

     RDKit          3D

 38 39  0  0  0  0  0  0  0  0999 V2000
  143.7400   75.3040  219.2880 C   0  0  0  0  0  0  0  0  0  0  0  0
  143.6120   74.3690  220.4520 C   0  0  1  0  0  0  0  0  0  0  0  0
  142.2690   73.8660  220.6240 N   0  0  0  0  0  0  0  0  0  0  0  0
  141.2160   74.7670  220.9370 C   0  0  0  0  0  0  0  0  0  0  0  0
  141.4210   75.9960  221.0700 O   0  0  0  0  0  0  0  0  0  0  0  0
  139.8310   74.2550  221.1150 C   0  0  0  0  0  0  0  0  0  0  0  0
  139.7610   73.4280  222.2970 N   0  0  0  0  0  0  0  0  0  0  0  0
  140.3220   72.1270  222.3600 C   0  0  0  0  0  0  0  0  0  0  0  0
  140.9180   71.6260  221.3650 O   0  0  0  0  0  0  0  0  0  0  0  0
  140.2080   71.3520  223.6000 C   0  0  0  0  0  0  0  0  0  0  0  0
  139.6430   70.1030  223.6120 C   0  0  0  0  0  0  0  0  0  0  0  0
  139.5490   69.3970  224.7990 C   0  0  0  0  0  0  0  0  0  0  0  0
  140.0330   69.9660  225.9660 C   0  0  0  0  0  0  0  0  0  0  0  0
  139.9600   69.2920  227.1850 C   0  0  0  0  0  0  0  0  0  0  0  0
  140.4380   69.8500  228.3550 C   0  0  0  0  0  0  0  0  0  0  0  0
  140.9980   71.1120  228.2850 C   0  0  0  0  0  0  0  0  0  0  0  0
  141.0740   71.7880  227.0820 C   0  0  0  0  0  0  0  0  0  0  0  0
  140.5900   71.2080  225.9370 C   0  0  0  0  0  0  0  0  0  0  0  0
  140.6690   71.8730  224.7700 N   0  0  0  0  0  0  0  0  0  0  0  0
  144.4950   73.2000  220.1880 C   0  0  0  0  0  0  0  0  0  0  0  0
  144.3270   71.9500  220.8810 N   0  0  0  0  0  0  0  0  0  0  0  0
  145.4320   73.2320  219.3520 O   0  0  0  0  0  0  0  0  0  0  0  0
  143.8806   76.3309  219.6563 H   0  0  0  0  0  0  0  0  0  0  0  0
  144.6065   75.0119  218.6766 H   0  0  0  0  0  0  0  0  0  0  0  0
  142.8268   75.2555  218.6766 H   0  0  0  0  0  0  0  0  0  0  0  0
  143.8856   74.9240  221.3614 H   0  0  0  0  0  0  0  0  0  0  0  0
  142.1330   72.8370  220.5060 H   0  0  0  0  0  0  0  0  0  0  0  0
  139.1393   75.1036  221.2221 H   0  0  0  0  0  0  0  0  0  0  0  0
  139.5507   73.6555  220.2363 H   0  0  0  0  0  0  0  0  0  0  0  0
  139.2770   73.7820  223.1690 H   0  0  0  0  0  0  0  0  0  0  0  0
  139.2643   69.6617  222.6782 H   0  0  0  0  0  0  0  0  0  0  0  0
  139.0950   68.3952  224.8156 H   0  0  0  0  0  0  0  0  0  0  0  0
  139.5096   68.2889  227.2156 H   0  0  0  0  0  0  0  0  0  0  0  0
  140.3751   69.3082  229.3103 H   0  0  0  0  0  0  0  0  0  0  0  0
  141.3881   71.5842  229.1987 H   0  0  0  0  0  0  0  0  0  0  0  0
  141.5228   72.7915  227.0426 H   0  0  0  0  0  0  0  0  0  0  0  0
  144.8330   71.8100  221.7870 H   0  0  0  0  0  0  0  0  0  0  0  0
  143.7030   71.2250  220.4510 H   0  0  0  0  0  0  0  0  0  0  0  0
  1  2  1  0
  2  3  1  0
  3  4  1  0
  4  5  2  0
  4  6  1  0
  6  7  1  0
  7  8  1  0
  8  9  2  0
  8 10  1  0
 10 11  2  0
 11 12  1  0
 12 13  2  0
 13 14  1  0
 14 15  2  0
 15 16  1  0
 16 17  2  0
 17 18  1  0
 18 19  2  0
  2 20  1  0
 20 21  1  0
 20 22  2  0
 19 10  1  0
 18 13  1  0
  1 23  1  0
  1 24  1  0
  1 25  1  0
  2 26  1  1
  3 27  1  0
  6 28  1  0
  6 29  1  0
  7 30  1  0
 11 31  1  0
 12 32  1  0
 14 33  1  0
 15 34  1  0
 16 35  1  0
 17 36  1  0
 21 37  1  0
 21 38  1  0
M  END
>  <smiles>  (27) 
C[C@@H](NC(=O)CNC(=O)c1ccc2ccccc2n1)C(N)=O

>  <score_type>  (27) 
oracle

>  <origin>  (27) 
autodockgpu

>  <m_score__min__energy>  (27) 
-7.75

>  <m_primary>  (27) 
energy

>  <rmsd>  (27) 
3.050755772229786

>  <m_score__min__rmsd>  (27) 
3.050755772229786

>  <meeko>  (27) 
{"free_energy": -6.95, "intermolecular_energy": -8.45, "internal_energy": -1.83, "cluster_size": 17, "cluster_id": 2, "rank_in_cluster": 3}

>  <energy>  (27) 
-6.73

>  <cluster_rmsd>  (27) 
1.4

>  <cluster>  (27) 
2

$$$$

     RDKit          3D

 38 39  0  0  0  0  0  0  0  0999 V2000
  138.1960   77.3330  221.5550 C   0  0  0  0  0  0  0  0  0  0  0  0
  139.0150   76.4080  222.4000 C   0  0  1  0  0  0  0  0  0  0  0  0
  138.9060   75.0260  221.9920 N   0  0  0  0  0  0  0  0  0  0  0  0
  139.2190   74.6630  220.6540 C   0  0  0  0  0  0  0  0  0  0  0  0
  139.5920   75.5130  219.8130 O   0  0  0  0  0  0  0  0  0  0  0  0
  139.1090   73.2420  220.2270 C   0  0  0  0  0  0  0  0  0  0  0  0
  139.1070   72.3800  221.3860 N   0  0  0  0  0  0  0  0  0  0  0  0
  140.1050   72.4400  222.3920 C   0  0  0  0  0  0  0  0  0  0  0  0
  141.0570   73.2680  222.3160 O   0  0  0  0  0  0  0  0  0  0  0  0
  140.0290   71.5290  223.5380 C   0  0  0  0  0  0  0  0  0  0  0  0
  139.4160   70.3070  223.4380 C   0  0  0  0  0  0  0  0  0  0  0  0
  139.3600   69.4690  224.5390 C   0  0  0  0  0  0  0  0  0  0  0  0
  139.9300   69.8800  225.7340 C   0  0  0  0  0  0  0  0  0  0  0  0
  139.8990   69.0690  226.8680 C   0  0  0  0  0  0  0  0  0  0  0  0
  140.4630   69.4690  228.0650 C   0  0  0  0  0  0  0  0  0  0  0  0
  141.0690   70.7110  228.1080 C   0  0  0  0  0  0  0  0  0  0  0  0
  141.1040   71.5220  226.9890 C   0  0  0  0  0  0  0  0  0  0  0  0
  140.5350   71.0970  225.8150 C   0  0  0  0  0  0  0  0  0  0  0  0
  140.5750   71.8920  224.7300 N   0  0  0  0  0  0  0  0  0  0  0  0
  140.4420   76.8040  222.2480 C   0  0  0  0  0  0  0  0  0  0  0  0
  141.4210   75.9150  221.6810 N   0  0  0  0  0  0  0  0  0  0  0  0
  140.8750   77.9300  222.6030 O   0  0  0  0  0  0  0  0  0  0  0  0
  137.6073   77.9979  222.2040 H   0  0  0  0  0  0  0  0  0  0  0  0
  138.8619   77.9358  220.9200 H   0  0  0  0  0  0  0  0  0  0  0  0
  137.5170   76.7450  220.9200 H   0  0  0  0  0  0  0  0  0  0  0  0
  138.6488   76.4869  223.4343 H   0  0  0  0  0  0  0  0  0  0  0  0
  138.5920   74.3440  222.7180 H   0  0  0  0  0  0  0  0  0  0  0  0
  138.1735   73.1010  219.6658 H   0  0  0  0  0  0  0  0  0  0  0  0
  139.9675   72.9880  219.5878 H   0  0  0  0  0  0  0  0  0  0  0  0
  138.3410   71.6630  221.5170 H   0  0  0  0  0  0  0  0  0  0  0  0
  138.9688   69.9922  222.4836 H   0  0  0  0  0  0  0  0  0  0  0  0
  138.8685   68.4876  224.4662 H   0  0  0  0  0  0  0  0  0  0  0  0
  139.4125   68.0842  226.8084 H   0  0  0  0  0  0  0  0  0  0  0  0
  140.4308   68.8210  228.9533 H   0  0  0  0  0  0  0  0  0  0  0  0
  141.5293   71.0583  229.0448 H   0  0  0  0  0  0  0  0  0  0  0  0
  141.5882   72.5084  227.0398 H   0  0  0  0  0  0  0  0  0  0  0  0
  141.9310   75.2620  222.3210 H   0  0  0  0  0  0  0  0  0  0  0  0
  141.5870   75.9550  220.6470 H   0  0  0  0  0  0  0  0  0  0  0  0
  1  2  1  0
  2  3  1  0
  3  4  1  0
  4  5  2  0
  4  6  1  0
  6  7  1  0
  7  8  1  0
  8  9  2  0
  8 10  1  0
 10 11  2  0
 11 12  1  0
 12 13  2  0
 13 14  1  0
 14 15  2  0
 15 16  1  0
 16 17  2  0
 17 18  1  0
 18 19  2  0
  2 20  1  0
 20 21  1  0
 20 22  2  0
 19 10  1  0
 18 13  1  0
  1 23  1  0
  1 24  1  0
  1 25  1  0
  2 26  1  1
  3 27  1  0
  6 28  1  0
  6 29  1  0
  7 30  1  0
 11 31  1  0
 12 32  1  0
 14 33  1  0
 15 34  1  0
 16 35  1  0
 17 36  1  0
 21 37  1  0
 21 38  1  0
M  END
>  <smiles>  (28) 
C[C@@H](NC(=O)CNC(=O)c1ccc2ccccc2n1)C(N)=O

>  <score_type>  (28) 
oracle

>  <origin>  (28) 
autodockgpu

>  <m_score__min__energy>  (28) 
-7.75

>  <m_primary>  (28) 
energy

>  <rmsd>  (28) 
2.19889204742721

>  <m_score__min__rmsd>  (28) 
2.19889204742721

>  <meeko>  (28) 
{"free_energy": -6.41, "intermolecular_energy": -7.9, "internal_energy": -2.08, "cluster_size": 20, "cluster_id": 1, "rank_in_cluster": 15}

>  <energy>  (28) 
-6.7

>  <cluster_rmsd>  (28) 
1.07

>  <cluster>  (28) 
2

$$$$

     RDKit          3D

 38 39  0  0  0  0  0  0  0  0999 V2000
  141.4660   69.7220  225.9970 C   0  0  0  0  0  0  0  0  0  0  0  0
  139.9890   69.5250  225.8380 C   0  0  1  0  0  0  0  0  0  0  0  0
  139.5090   69.9060  224.5290 N   0  0  0  0  0  0  0  0  0  0  0  0
  139.7710   71.2130  224.0390 C   0  0  0  0  0  0  0  0  0  0  0  0
  140.4130   72.0510  224.7130 O   0  0  0  0  0  0  0  0  0  0  0  0
  139.2800   71.6120  222.6930 C   0  0  0  0  0  0  0  0  0  0  0  0
  139.6560   72.9790  222.4180 N   0  0  0  0  0  0  0  0  0  0  0  0
  140.7320   73.3240  221.5620 C   0  0  0  0  0  0  0  0  0  0  0  0
  141.4220   72.4320  220.9910 O   0  0  0  0  0  0  0  0  0  0  0  0
  141.0480   74.7380  221.3350 C   0  0  0  0  0  0  0  0  0  0  0  0
  141.8930   75.1280  220.3290 C   0  0  0  0  0  0  0  0  0  0  0  0
  142.1730   76.4700  220.1410 C   0  0  0  0  0  0  0  0  0  0  0  0
  141.5880   77.4080  220.9770 C   0  0  0  0  0  0  0  0  0  0  0  0
  141.8400   78.7720  220.8240 C   0  0  0  0  0  0  0  0  0  0  0  0
  141.2630   79.7160  221.6530 C   0  0  0  0  0  0  0  0  0  0  0  0
  140.4170   79.2670  222.6500 C   0  0  0  0  0  0  0  0  0  0  0  0
  140.1630   77.9170  222.8090 C   0  0  0  0  0  0  0  0  0  0  0  0
  140.7510   77.0040  221.9710 C   0  0  0  0  0  0  0  0  0  0  0  0
  140.4960   75.6930  222.1330 N   0  0  0  0  0  0  0  0  0  0  0  0
  139.7080   68.0730  226.0090 C   0  0  0  0  0  0  0  0  0  0  0  0
  139.9680   67.3900  227.2480 N   0  0  0  0  0  0  0  0  0  0  0  0
  139.2320   67.3610  225.0890 O   0  0  0  0  0  0  0  0  0  0  0  0
  141.7183   69.7557  227.0671 H   0  0  0  0  0  0  0  0  0  0  0  0
  142.0007   68.8872  225.5203 H   0  0  0  0  0  0  0  0  0  0  0  0
  141.7632   70.6677  225.5203 H   0  0  0  0  0  0  0  0  0  0  0  0
  139.4831   70.1565  226.5832 H   0  0  0  0  0  0  0  0  0  0  0  0
  138.9780   69.1830  223.9940 H   0  0  0  0  0  0  0  0  0  0  0  0
  139.7229   70.9519  221.9327 H   0  0  0  0  0  0  0  0  0  0  0  0
  138.1837   71.5257  222.6671 H   0  0  0  0  0  0  0  0  0  0  0  0
  139.1230   73.7790  222.8610 H   0  0  0  0  0  0  0  0  0  0  0  0
  142.3489   74.3738  219.6706 H   0  0  0  0  0  0  0  0  0  0  0  0
  142.8525   76.7889  219.3369 H   0  0  0  0  0  0  0  0  0  0  0  0
  142.5157   79.1049  220.0224 H   0  0  0  0  0  0  0  0  0  0  0  0
  141.4701   80.7886  221.5237 H   0  0  0  0  0  0  0  0  0  0  0  0
  139.9400   79.9926  223.3252 H   0  0  0  0  0  0  0  0  0  0  0  0
  139.4889   77.5750  223.6081 H   0  0  0  0  0  0  0  0  0  0  0  0
  140.9150   66.9680  227.3960 H   0  0  0  0  0  0  0  0  0  0  0  0
  139.1980   67.3400  227.9580 H   0  0  0  0  0  0  0  0  0  0  0  0
  1  2  1  0
  2  3  1  0
  3  4  1  0
  4  5  2  0
  4  6  1  0
  6  7  1  0
  7  8  1  0
  8  9  2  0
  8 10  1  0
 10 11  2  0
 11 12  1  0
 12 13  2  0
 13 14  1  0
 14 15  2  0
 15 16  1  0
 16 17  2  0
 17 18  1  0
 18 19  2  0
  2 20  1  0
 20 21  1  0
 20 22  2  0
 19 10  1  0
 18 13  1  0
  1 23  1  0
  1 24  1  0
  1 25  1  0
  2 26  1  1
  3 27  1  0
  6 28  1  0
  6 29  1  0
  7 30  1  0
 11 31  1  0
 12 32  1  0
 14 33  1  0
 15 34  1  0
 16 35  1  0
 17 36  1  0
 21 37  1  0
 21 38  1  0
M  END
>  <smiles>  (29) 
C[C@@H](NC(=O)CNC(=O)c1ccc2ccccc2n1)C(N)=O

>  <score_type>  (29) 
oracle

>  <origin>  (29) 
autodockgpu

>  <m_score__min__energy>  (29) 
-7.75

>  <m_primary>  (29) 
energy

>  <rmsd>  (29) 
8.684278223601018

>  <m_score__min__rmsd>  (29) 
8.684278223601018

>  <meeko>  (29) 
{"free_energy": -6.72, "intermolecular_energy": -8.21, "internal_energy": -1.89, "cluster_size": 2, "cluster_id": 4, "rank_in_cluster": 1}

>  <energy>  (29) 
-6.67

>  <cluster_rmsd>  (29) 
1.09

>  <cluster>  (29) 
2

$$$$

     RDKit          3D

 38 39  0  0  0  0  0  0  0  0999 V2000
  144.5050   70.3530  219.1120 C   0  0  0  0  0  0  0  0  0  0  0  0
  144.1330   71.8030  219.1780 C   0  0  1  0  0  0  0  0  0  0  0  0
  142.9530   72.0440  219.9770 N   0  0  0  0  0  0  0  0  0  0  0  0
  142.5940   73.3780  220.3120 C   0  0  0  0  0  0  0  0  0  0  0  0
  143.2750   74.3570  219.9310 O   0  0  0  0  0  0  0  0  0  0  0  0
  141.3800   73.6330  221.1340 C   0  0  0  0  0  0  0  0  0  0  0  0
  141.3580   75.0130  221.5610 N   0  0  0  0  0  0  0  0  0  0  0  0
  140.1810   75.6600  222.0120 C   0  0  0  0  0  0  0  0  0  0  0  0
  139.0780   75.0450  222.0610 O   0  0  0  0  0  0  0  0  0  0  0  0
  140.2440   77.0650  222.4280 C   0  0  0  0  0  0  0  0  0  0  0  0
  139.1060   77.7900  222.6690 C   0  0  0  0  0  0  0  0  0  0  0  0
  139.2000   79.1150  223.0610 C   0  0  0  0  0  0  0  0  0  0  0  0
  140.4510   79.6920  223.2060 C   0  0  0  0  0  0  0  0  0  0  0  0
  140.5930   81.0230  223.5990 C   0  0  0  0  0  0  0  0  0  0  0  0
  141.8360   81.6090  223.7460 C   0  0  0  0  0  0  0  0  0  0  0  0
  142.9500   80.8310  223.4910 C   0  0  0  0  0  0  0  0  0  0  0  0
  142.8180   79.5110  223.1010 C   0  0  0  0  0  0  0  0  0  0  0  0
  141.5710   78.9580  222.9630 C   0  0  0  0  0  0  0  0  0  0  0  0
  141.4520   77.6720  222.5830 N   0  0  0  0  0  0  0  0  0  0  0  0
  145.2620   72.5280  219.8210 C   0  0  0  0  0  0  0  0  0  0  0  0
  145.2190   72.9290  221.2030 N   0  0  0  0  0  0  0  0  0  0  0  0
  146.3130   72.8330  219.2030 O   0  0  0  0  0  0  0  0  0  0  0  0
  144.6074   69.9539  220.1319 H   0  0  0  0  0  0  0  0  0  0  0  0
  143.7204   69.7971  218.5778 H   0  0  0  0  0  0  0  0  0  0  0  0
  145.4603   70.2435  218.5778 H   0  0  0  0  0  0  0  0  0  0  0  0
  143.9254   72.1446  218.1532 H   0  0  0  0  0  0  0  0  0  0  0  0
  142.4090   71.2050  220.2780 H   0  0  0  0  0  0  0  0  0  0  0  0
  140.4823   73.4221  220.5344 H   0  0  0  0  0  0  0  0  0  0  0  0
  141.3972   72.9797  222.0188 H   0  0  0  0  0  0  0  0  0  0  0  0
  142.2450   75.5900  221.5470 H   0  0  0  0  0  0  0  0  0  0  0  0
  138.1186   77.3197  222.5511 H   0  0  0  0  0  0  0  0  0  0  0  0
  138.2908   79.7030  223.2552 H   0  0  0  0  0  0  0  0  0  0  0  0
  139.6918   81.6219  223.7971 H   0  0  0  0  0  0  0  0  0  0  0  0
  141.9357   82.6598  224.0557 H   0  0  0  0  0  0  0  0  0  0  0  0
  143.9538   81.2675  223.5997 H   0  0  0  0  0  0  0  0  0  0  0  0
  143.7137   78.9044  222.9014 H   0  0  0  0  0  0  0  0  0  0  0  0
  144.8130   73.8640  221.4380 H   0  0  0  0  0  0  0  0  0  0  0  0
  145.5970   72.2670  221.9230 H   0  0  0  0  0  0  0  0  0  0  0  0
  1  2  1  0
  2  3  1  0
  3  4  1  0
  4  5  2  0
  4  6  1  0
  6  7  1  0
  7  8  1  0
  8  9  2  0
  8 10  1  0
 10 11  2  0
 11 12  1  0
 12 13  2  0
 13 14  1  0
 14 15  2  0
 15 16  1  0
 16 17  2  0
 17 18  1  0
 18 19  2  0
  2 20  1  0
 20 21  1  0
 20 22  2  0
 19 10  1  0
 18 13  1  0
  1 23  1  0
  1 24  1  0
  1 25  1  0
  2 26  1  6
  3 27  1  0
  6 28  1  0
  6 29  1  0
  7 30  1  0
 11 31  1  0
 12 32  1  0
 14 33  1  0
 15 34  1  0
 16 35  1  0
 17 36  1  0
 21 37  1  0
 21 38  1  0
M  END
>  <smiles>  (30) 
C[C@@H](NC(=O)CNC(=O)c1ccc2ccccc2n1)C(N)=O

>  <score_type>  (30) 
oracle

>  <origin>  (30) 
autodockgpu

>  <m_score__min__energy>  (30) 
-7.75

>  <m_primary>  (30) 
energy

>  <rmsd>  (30) 
8.187484709072512

>  <m_score__min__rmsd>  (30) 
8.187484709072512

>  <meeko>  (30) 
{"free_energy": -6.81, "intermolecular_energy": -8.3, "internal_energy": -2.06, "cluster_size": 9, "cluster_id": 3, "rank_in_cluster": 2}

>  <energy>  (30) 
-6.67

>  <cluster_rmsd>  (30) 
1.42

>  <cluster>  (30) 
2

$$$$

     RDKit          3D

 38 39  0  0  0  0  0  0  0  0999 V2000
  144.0800   74.9850  219.7330 C   0  0  0  0  0  0  0  0  0  0  0  0
  144.0240   73.8000  220.6470 C   0  0  1  0  0  0  0  0  0  0  0  0
  142.6870   73.2750  220.8060 N   0  0  0  0  0  0  0  0  0  0  0  0
  142.0320   72.6760  219.6960 C   0  0  0  0  0  0  0  0  0  0  0  0
  142.5840   72.5890  218.5750 O   0  0  0  0  0  0  0  0  0  0  0  0
  140.6560   72.1330  219.8530 C   0  0  0  0  0  0  0  0  0  0  0  0
  140.5410   71.4450  221.1180 N   0  0  0  0  0  0  0  0  0  0  0  0
  140.3120   72.1200  222.3430 C   0  0  0  0  0  0  0  0  0  0  0  0
  140.1950   73.3780  222.3820 O   0  0  0  0  0  0  0  0  0  0  0  0
  140.2070   71.3460  223.5840 C   0  0  0  0  0  0  0  0  0  0  0  0
  139.5990   70.1170  223.6090 C   0  0  0  0  0  0  0  0  0  0  0  0
  139.5150   69.4110  224.7970 C   0  0  0  0  0  0  0  0  0  0  0  0
  140.0510   69.9590  225.9510 C   0  0  0  0  0  0  0  0  0  0  0  0
  139.9900   69.2830  227.1700 C   0  0  0  0  0  0  0  0  0  0  0  0
  140.5210   69.8210  228.3270 C   0  0  0  0  0  0  0  0  0  0  0  0
  141.1230   71.0620  228.2440 C   0  0  0  0  0  0  0  0  0  0  0  0
  141.1880   71.7400  227.0400 C   0  0  0  0  0  0  0  0  0  0  0  0
  140.6510   71.1800  225.9090 C   0  0  0  0  0  0  0  0  0  0  0  0
  140.7190   71.8460  224.7410 N   0  0  0  0  0  0  0  0  0  0  0  0
  144.8550   72.7240  220.0410 C   0  0  0  0  0  0  0  0  0  0  0  0
  144.4640   71.3400  220.0960 N   0  0  0  0  0  0  0  0  0  0  0  0
  145.9390   72.9560  219.4490 O   0  0  0  0  0  0  0  0  0  0  0  0
  144.1236   75.9074  220.3308 H   0  0  0  0  0  0  0  0  0  0  0  0
  144.9759   74.9166  219.0984 H   0  0  0  0  0  0  0  0  0  0  0  0
  143.1816   75.0014  219.0984 H   0  0  0  0  0  0  0  0  0  0  0  0
  144.3830   74.1214  221.6358 H   0  0  0  0  0  0  0  0  0  0  0  0
  142.2560   73.3640  221.7530 H   0  0  0  0  0  0  0  0  0  0  0  0
  139.9315   72.9600  219.8203 H   0  0  0  0  0  0  0  0  0  0  0  0
  140.4499   71.4260  219.0359 H   0  0  0  0  0  0  0  0  0  0  0  0
  140.6270   70.3910  221.1620 H   0  0  0  0  0  0  0  0  0  0  0  0
  139.1783   69.6923  222.6856 H   0  0  0  0  0  0  0  0  0  0  0  0
  139.0277   68.4252  224.8243 H   0  0  0  0  0  0  0  0  0  0  0  0
  139.5065   68.2958  227.2113 H   0  0  0  0  0  0  0  0  0  0  0  0
  140.4662   69.2790  229.2827 H   0  0  0  0  0  0  0  0  0  0  0  0
  141.5562   71.5167  229.1471 H   0  0  0  0  0  0  0  0  0  0  0  0
  141.6700   72.7275  226.9897 H   0  0  0  0  0  0  0  0  0  0  0  0
  144.7700   70.7680  220.9180 H   0  0  0  0  0  0  0  0  0  0  0  0
  143.8870   70.9560  219.3100 H   0  0  0  0  0  0  0  0  0  0  0  0
  1  2  1  0
  2  3  1  0
  3  4  1  0
  4  5  2  0
  4  6  1  0
  6  7  1  0
  7  8  1  0
  8  9  2  0
  8 10  1  0
 10 11  2  0
 11 12  1  0
 12 13  2  0
 13 14  1  0
 14 15  2  0
 15 16  1  0
 16 17  2  0
 17 18  1  0
 18 19  2  0
  2 20  1  0
 20 21  1  0
 20 22  2  0
 19 10  1  0
 18 13  1  0
  1 23  1  0
  1 24  1  0
  1 25  1  0
  2 26  1  1
  3 27  1  0
  6 28  1  0
  6 29  1  0
  7 30  1  0
 11 31  1  0
 12 32  1  0
 14 33  1  0
 15 34  1  0
 16 35  1  0
 17 36  1  0
 21 37  1  0
 21 38  1  0
M  END
>  <smiles>  (31) 
C[C@@H](NC(=O)CNC(=O)c1ccc2ccccc2n1)C(N)=O

>  <score_type>  (31) 
oracle

>  <origin>  (31) 
autodockgpu

>  <m_score__min__energy>  (31) 
-7.75

>  <m_primary>  (31) 
energy

>  <rmsd>  (31) 
3.6674851136220012

>  <m_score__min__rmsd>  (31) 
3.6674851136220012

>  <meeko>  (31) 
{"free_energy": -6.73, "intermolecular_energy": -8.22, "internal_energy": -1.98, "cluster_size": 17, "cluster_id": 2, "rank_in_cluster": 7}

>  <energy>  (31) 
-6.64

>  <cluster_rmsd>  (31) 
1.39

>  <cluster>  (31) 
2

$$$$

     RDKit          3D

 38 39  0  0  0  0  0  0  0  0999 V2000
  141.0820   77.8770  222.7940 C   0  0  0  0  0  0  0  0  0  0  0  0
  140.5170   76.9290  221.7800 C   0  0  1  0  0  0  0  0  0  0  0  0
  141.2570   75.6910  221.6940 N   0  0  0  0  0  0  0  0  0  0  0  0
  140.8950   74.7230  220.7190 C   0  0  0  0  0  0  0  0  0  0  0  0
  139.9450   74.9140  219.9260 O   0  0  0  0  0  0  0  0  0  0  0  0
  141.6520   73.4470  220.6260 C   0  0  0  0  0  0  0  0  0  0  0  0
  141.4050   72.6420  221.7990 N   0  0  0  0  0  0  0  0  0  0  0  0
  140.1040   72.3980  222.3050 C   0  0  0  0  0  0  0  0  0  0  0  0
  139.0840   72.8840  221.7400 O   0  0  0  0  0  0  0  0  0  0  0  0
  139.9390   71.5680  223.5020 C   0  0  0  0  0  0  0  0  0  0  0  0
  139.1190   70.4690  223.5020 C   0  0  0  0  0  0  0  0  0  0  0  0
  138.9850   69.7060  224.6490 C   0  0  0  0  0  0  0  0  0  0  0  0
  139.6870   70.0650  225.7890 C   0  0  0  0  0  0  0  0  0  0  0  0
  139.5820   69.3250  226.9670 C   0  0  0  0  0  0  0  0  0  0  0  0
  140.2760   69.6750  228.1100 C   0  0  0  0  0  0  0  0  0  0  0  0
  141.0890   70.7910  228.0530 C   0  0  0  0  0  0  0  0  0  0  0  0
  141.1990   71.5310  226.8900 C   0  0  0  0  0  0  0  0  0  0  0  0
  140.4960   71.1590  225.7730 C   0  0  0  0  0  0  0  0  0  0  0  0
  140.6090   71.8840  224.6440 N   0  0  0  0  0  0  0  0  0  0  0  0
  139.1310   76.5910  222.2040 C   0  0  0  0  0  0  0  0  0  0  0  0
  138.6430   75.2370  222.1920 N   0  0  0  0  0  0  0  0  0  0  0  0
  138.3100   77.4580  222.5940 O   0  0  0  0  0  0  0  0  0  0  0  0
  140.8610   77.5062  223.8058 H   0  0  0  0  0  0  0  0  0  0  0  0
  142.1714   77.9505  222.6603 H   0  0  0  0  0  0  0  0  0  0  0  0
  140.6283   78.8701  222.6603 H   0  0  0  0  0  0  0  0  0  0  0  0
  140.5629   77.4209  220.7972 H   0  0  0  0  0  0  0  0  0  0  0  0
  142.0420   75.5650  222.3710 H   0  0  0  0  0  0  0  0  0  0  0  0
  141.3288   72.8957  219.7307 H   0  0  0  0  0  0  0  0  0  0  0  0
  142.7274   73.6682  220.5587 H   0  0  0  0  0  0  0  0  0  0  0  0
  142.2120   72.2020  222.3240 H   0  0  0  0  0  0  0  0  0  0  0  0
  138.5678   70.1938  222.5907 H   0  0  0  0  0  0  0  0  0  0  0  0
  138.3281   68.8237  224.6558 H   0  0  0  0  0  0  0  0  0  0  0  0
  138.9296   68.4395  226.9867 H   0  0  0  0  0  0  0  0  0  0  0  0
  140.1842   69.0851  229.0339 H   0  0  0  0  0  0  0  0  0  0  0  0
  141.6565   71.0949  228.9450 H   0  0  0  0  0  0  0  0  0  0  0  0
  141.8499   72.4173  226.8610 H   0  0  0  0  0  0  0  0  0  0  0  0
  138.1950   74.8760  221.3170 H   0  0  0  0  0  0  0  0  0  0  0  0
  138.7530   74.6620  223.0620 H   0  0  0  0  0  0  0  0  0  0  0  0
  1  2  1  0
  2  3  1  0
  3  4  1  0
  4  5  2  0
  4  6  1  0
  6  7  1  0
  7  8  1  0
  8  9  2  0
  8 10  1  0
 10 11  2  0
 11 12  1  0
 12 13  2  0
 13 14  1  0
 14 15  2  0
 15 16  1  0
 16 17  2  0
 17 18  1  0
 18 19  2  0
  2 20  1  0
 20 21  1  0
 20 22  2  0
 19 10  1  0
 18 13  1  0
  1 23  1  0
  1 24  1  0
  1 25  1  0
  2 26  1  6
  3 27  1  0
  6 28  1  0
  6 29  1  0
  7 30  1  0
 11 31  1  0
 12 32  1  0
 14 33  1  0
 15 34  1  0
 16 35  1  0
 17 36  1  0
 21 37  1  0
 21 38  1  0
M  END
>  <smiles>  (32) 
C[C@@H](NC(=O)CNC(=O)c1ccc2ccccc2n1)C(N)=O

>  <score_type>  (32) 
oracle

>  <origin>  (32) 
autodockgpu

>  <m_score__min__energy>  (32) 
-7.75

>  <m_primary>  (32) 
energy

>  <rmsd>  (32) 
2.6551933044997695

>  <m_score__min__rmsd>  (32) 
2.6551933044997695

>  <meeko>  (32) 
{"free_energy": -6.48, "intermolecular_energy": -7.97, "internal_energy": -2.41, "cluster_size": 20, "cluster_id": 1, "rank_in_cluster": 11}

>  <energy>  (32) 
-6.61

>  <cluster_rmsd>  (32) 
1.14

>  <cluster>  (32) 
2

$$$$

     RDKit          3D

 38 39  0  0  0  0  0  0  0  0999 V2000
  141.3150   77.8990  223.0700 C   0  0  0  0  0  0  0  0  0  0  0  0
  140.6830   77.1080  221.9660 C   0  0  1  0  0  0  0  0  0  0  0  0
  141.3380   75.8410  221.7370 N   0  0  0  0  0  0  0  0  0  0  0  0
  140.8800   74.9940  220.6910 C   0  0  0  0  0  0  0  0  0  0  0  0
  139.9180   75.3170  219.9570 O   0  0  0  0  0  0  0  0  0  0  0  0
  141.5500   73.6880  220.4490 C   0  0  0  0  0  0  0  0  0  0  0  0
  141.4040   72.8390  221.6090 N   0  0  0  0  0  0  0  0  0  0  0  0
  140.1560   72.6050  222.2390 C   0  0  0  0  0  0  0  0  0  0  0  0
  139.0970   73.1410  221.8050 O   0  0  0  0  0  0  0  0  0  0  0  0
  140.0940   71.7280  223.4120 C   0  0  0  0  0  0  0  0  0  0  0  0
  139.5350   70.4780  223.3400 C   0  0  0  0  0  0  0  0  0  0  0  0
  139.4910   69.6740  224.4660 C   0  0  0  0  0  0  0  0  0  0  0  0
  140.0170   70.1460  225.6580 C   0  0  0  0  0  0  0  0  0  0  0  0
  139.9950   69.3710  226.8170 C   0  0  0  0  0  0  0  0  0  0  0  0
  140.5150   69.8320  228.0120 C   0  0  0  0  0  0  0  0  0  0  0  0
  141.0670   71.1000  228.0270 C   0  0  0  0  0  0  0  0  0  0  0  0
  141.0930   71.8760  226.8830 C   0  0  0  0  0  0  0  0  0  0  0  0
  140.5680   71.3900  225.7130 C   0  0  0  0  0  0  0  0  0  0  0  0
  140.5980   72.1520  224.6030 N   0  0  0  0  0  0  0  0  0  0  0  0
  139.2800   76.8170  222.3690 C   0  0  0  0  0  0  0  0  0  0  0  0
  138.7370   75.4850  222.3240 N   0  0  0  0  0  0  0  0  0  0  0  0
  138.4900   77.7090  222.7690 O   0  0  0  0  0  0  0  0  0  0  0  0
  140.9926   77.4955  224.0412 H   0  0  0  0  0  0  0  0  0  0  0  0
  142.4099   77.8306  222.9898 H   0  0  0  0  0  0  0  0  0  0  0  0
  141.0066   78.9518  222.9898 H   0  0  0  0  0  0  0  0  0  0  0  0
  140.7562   77.7005  221.0421 H   0  0  0  0  0  0  0  0  0  0  0  0
  142.1360   75.6020  222.3670 H   0  0  0  0  0  0  0  0  0  0  0  0
  141.0904   73.1980  219.5780 H   0  0  0  0  0  0  0  0  0  0  0  0
  142.6196   73.8592  220.2574 H   0  0  0  0  0  0  0  0  0  0  0  0
  142.2480   72.3570  222.0270 H   0  0  0  0  0  0  0  0  0  0  0  0
  139.1217   70.1142  222.3877 H   0  0  0  0  0  0  0  0  0  0  0  0
  139.0430   68.6706  224.4151 H   0  0  0  0  0  0  0  0  0  0  0  0
  139.5516   68.3650  226.7794 H   0  0  0  0  0  0  0  0  0  0  0  0
  140.4906   69.2115  228.9200 H   0  0  0  0  0  0  0  0  0  0  0  0
  141.4910   71.4964  228.9614 H   0  0  0  0  0  0  0  0  0  0  0  0
  141.5347   72.8830  226.9113 H   0  0  0  0  0  0  0  0  0  0  0  0
  138.2850   75.1610  221.4370 H   0  0  0  0  0  0  0  0  0  0  0  0
  138.8150   74.8880  223.1820 H   0  0  0  0  0  0  0  0  0  0  0  0
  1  2  1  0
  2  3  1  0
  3  4  1  0
  4  5  2  0
  4  6  1  0
  6  7  1  0
  7  8  1  0
  8  9  2  0
  8 10  1  0
 10 11  2  0
 11 12  1  0
 12 13  2  0
 13 14  1  0
 14 15  2  0
 15 16  1  0
 16 17  2  0
 17 18  1  0
 18 19  2  0
  2 20  1  0
 20 21  1  0
 20 22  2  0
 19 10  1  0
 18 13  1  0
  1 23  1  0
  1 24  1  0
  1 25  1  0
  2 26  1  6
  3 27  1  0
  6 28  1  0
  6 29  1  0
  7 30  1  0
 11 31  1  0
 12 32  1  0
 14 33  1  0
 15 34  1  0
 16 35  1  0
 17 36  1  0
 21 37  1  0
 21 38  1  0
M  END
>  <smiles>  (33) 
C[C@@H](NC(=O)CNC(=O)c1ccc2ccccc2n1)C(N)=O

>  <score_type>  (33) 
oracle

>  <origin>  (33) 
autodockgpu

>  <m_score__min__energy>  (33) 
-7.75

>  <m_primary>  (33) 
energy

>  <rmsd>  (33) 
2.6958134582581708

>  <m_score__min__rmsd>  (33) 
2.6958134582581708

>  <meeko>  (33) 
{"free_energy": -6.44, "intermolecular_energy": -7.94, "internal_energy": -2.42, "cluster_size": 20, "cluster_id": 1, "rank_in_cluster": 12}

>  <energy>  (33) 
-6.6

>  <cluster_rmsd>  (33) 
1.2

>  <cluster>  (33) 
2

$$$$

     RDKit          3D

 38 39  0  0  0  0  0  0  0  0999 V2000
  144.1600   74.9660  219.9200 C   0  0  0  0  0  0  0  0  0  0  0  0
  144.1240   73.6750  220.6780 C   0  0  1  0  0  0  0  0  0  0  0  0
  142.7900   73.1370  220.8100 N   0  0  0  0  0  0  0  0  0  0  0  0
  142.0880   72.7090  219.6510 C   0  0  0  0  0  0  0  0  0  0  0  0
  142.5970   72.7840  218.5100 O   0  0  0  0  0  0  0  0  0  0  0  0
  140.7140   72.1540  219.7810 C   0  0  0  0  0  0  0  0  0  0  0  0
  140.5790   71.4670  221.0440 N   0  0  0  0  0  0  0  0  0  0  0  0
  140.3870   72.1460  222.2730 C   0  0  0  0  0  0  0  0  0  0  0  0
  140.3240   73.4080  222.3170 O   0  0  0  0  0  0  0  0  0  0  0  0
  140.2580   71.3730  223.5120 C   0  0  0  0  0  0  0  0  0  0  0  0
  139.6790   70.1310  223.5210 C   0  0  0  0  0  0  0  0  0  0  0  0
  139.5710   69.4260  224.7080 C   0  0  0  0  0  0  0  0  0  0  0  0
  140.0550   69.9890  225.8780 C   0  0  0  0  0  0  0  0  0  0  0  0
  139.9680   69.3160  227.0960 C   0  0  0  0  0  0  0  0  0  0  0  0
  140.4460   69.8690  228.2690 C   0  0  0  0  0  0  0  0  0  0  0  0
  141.0220   71.1240  228.2020 C   0  0  0  0  0  0  0  0  0  0  0  0
  141.1110   71.7990  226.9980 C   0  0  0  0  0  0  0  0  0  0  0  0
  140.6270   71.2240  225.8510 C   0  0  0  0  0  0  0  0  0  0  0  0
  140.7190   71.8880  224.6840 N   0  0  0  0  0  0  0  0  0  0  0  0
  144.9300   72.6830  219.9160 C   0  0  0  0  0  0  0  0  0  0  0  0
  144.5130   71.3130  219.7750 N   0  0  0  0  0  0  0  0  0  0  0  0
  146.0150   72.9780  219.3530 O   0  0  0  0  0  0  0  0  0  0  0  0
  144.1835   75.8068  220.6288 H   0  0  0  0  0  0  0  0  0  0  0  0
  145.0593   74.9947  219.2872 H   0  0  0  0  0  0  0  0  0  0  0  0
  143.2637   75.0448  219.2872 H   0  0  0  0  0  0  0  0  0  0  0  0
  144.5140   73.8679  221.6883 H   0  0  0  0  0  0  0  0  0  0  0  0
  142.3950   73.0890  221.7760 H   0  0  0  0  0  0  0  0  0  0  0  0
  139.9830   72.9746  219.7322 H   0  0  0  0  0  0  0  0  0  0  0  0
  140.5311   71.4439  218.9611 H   0  0  0  0  0  0  0  0  0  0  0  0
  140.6210   70.4100  221.0840 H   0  0  0  0  0  0  0  0  0  0  0  0
  139.3000   69.6940  222.5853 H   0  0  0  0  0  0  0  0  0  0  0  0
  139.1058   68.4293  224.7219 H   0  0  0  0  0  0  0  0  0  0  0  0
  139.5065   68.3179  227.1241 H   0  0  0  0  0  0  0  0  0  0  0  0
  140.3706   69.3286  229.2241 H   0  0  0  0  0  0  0  0  0  0  0  0
  141.4143   71.5914  229.1172 H   0  0  0  0  0  0  0  0  0  0  0  0
  141.5703   72.7978  226.9605 H   0  0  0  0  0  0  0  0  0  0  0  0
  144.8130   70.6230  220.5030 H   0  0  0  0  0  0  0  0  0  0  0  0
  143.9230   71.0570  218.9460 H   0  0  0  0  0  0  0  0  0  0  0  0
  1  2  1  0
  2  3  1  0
  3  4  1  0
  4  5  2  0
  4  6  1  0
  6  7  1  0
  7  8  1  0
  8  9  2  0
  8 10  1  0
 10 11  2  0
 11 12  1  0
 12 13  2  0
 13 14  1  0
 14 15  2  0
 15 16  1  0
 16 17  2  0
 17 18  1  0
 18 19  2  0
  2 20  1  0
 20 21  1  0
 20 22  2  0
 19 10  1  0
 18 13  1  0
  1 23  1  0
  1 24  1  0
  1 25  1  0
  2 26  1  1
  3 27  1  0
  6 28  1  0
  6 29  1  0
  7 30  1  0
 11 31  1  0
 12 32  1  0
 14 33  1  0
 15 34  1  0
 16 35  1  0
 17 36  1  0
 21 37  1  0
 21 38  1  0
M  END
>  <smiles>  (34) 
C[C@@H](NC(=O)CNC(=O)c1ccc2ccccc2n1)C(N)=O

>  <score_type>  (34) 
oracle

>  <origin>  (34) 
autodockgpu

>  <m_score__min__energy>  (34) 
-7.75

>  <m_primary>  (34) 
energy

>  <rmsd>  (34) 
3.7364856483232787

>  <m_score__min__rmsd>  (34) 
3.7364856483232787

>  <meeko>  (34) 
{"free_energy": -6.67, "intermolecular_energy": -8.16, "internal_energy": -1.96, "cluster_size": 17, "cluster_id": 2, "rank_in_cluster": 10}

>  <energy>  (34) 
-6.56

>  <cluster_rmsd>  (34) 
1.41

>  <cluster>  (34) 
2

$$$$

     RDKit          3D

 38 39  0  0  0  0  0  0  0  0999 V2000
  139.4670   78.5740  221.2070 C   0  0  0  0  0  0  0  0  0  0  0  0
  140.8210   77.9400  221.3040 C   0  0  1  0  0  0  0  0  0  0  0  0
  140.8250   76.5570  220.8870 N   0  0  0  0  0  0  0  0  0  0  0  0
  140.1430   75.5860  221.6690 C   0  0  0  0  0  0  0  0  0  0  0  0
  139.5330   75.8970  222.7170 O   0  0  0  0  0  0  0  0  0  0  0  0
  140.1430   74.1600  221.2440 C   0  0  0  0  0  0  0  0  0  0  0  0
  139.9800   73.3050  222.3970 N   0  0  0  0  0  0  0  0  0  0  0  0
  140.3430   71.9350  222.3960 C   0  0  0  0  0  0  0  0  0  0  0  0
  140.8350   71.3920  221.3670 O   0  0  0  0  0  0  0  0  0  0  0  0
  140.1450   71.1360  223.6100 C   0  0  0  0  0  0  0  0  0  0  0  0
  139.5740   69.8910  223.5590 C   0  0  0  0  0  0  0  0  0  0  0  0
  139.3990   69.1620  224.7230 C   0  0  0  0  0  0  0  0  0  0  0  0
  139.8090   69.7040  225.9310 C   0  0  0  0  0  0  0  0  0  0  0  0
  139.6540   69.0050  227.1280 C   0  0  0  0  0  0  0  0  0  0  0  0
  140.0580   69.5360  228.3380 C   0  0  0  0  0  0  0  0  0  0  0  0
  140.6290   70.7950  228.3310 C   0  0  0  0  0  0  0  0  0  0  0  0
  140.7860   71.4950  227.1480 C   0  0  0  0  0  0  0  0  0  0  0  0
  140.3740   70.9420  225.9630 C   0  0  0  0  0  0  0  0  0  0  0  0
  140.5320   71.6300  224.8170 N   0  0  0  0  0  0  0  0  0  0  0  0
  141.7320   78.6830  220.3900 C   0  0  0  0  0  0  0  0  0  0  0  0
  142.1780   80.0200  220.6830 N   0  0  0  0  0  0  0  0  0  0  0  0
  142.1640   78.1920  219.3170 O   0  0  0  0  0  0  0  0  0  0  0  0
  139.0748   78.7576  222.2182 H   0  0  0  0  0  0  0  0  0  0  0  0
  139.5469   79.5283  220.6658 H   0  0  0  0  0  0  0  0  0  0  0  0
  138.7852   77.9015  220.6658 H   0  0  0  0  0  0  0  0  0  0  0  0
  141.1359   77.9784  222.3573 H   0  0  0  0  0  0  0  0  0  0  0  0
  141.3440   76.3320  220.0080 H   0  0  0  0  0  0  0  0  0  0  0  0
  139.3137   73.9883  220.5420 H   0  0  0  0  0  0  0  0  0  0  0  0
  141.0993   73.9279  220.7524 H   0  0  0  0  0  0  0  0  0  0  0  0
  139.5740   73.6910  223.2950 H   0  0  0  0  0  0  0  0  0  0  0  0
  139.2549   69.4712  222.5936 H   0  0  0  0  0  0  0  0  0  0  0  0
  138.9394   68.1632  224.6894 H   0  0  0  0  0  0  0  0  0  0  0  0
  139.1979   68.0042  227.1082 H   0  0  0  0  0  0  0  0  0  0  0  0
  139.9295   68.9755  229.2757 H   0  0  0  0  0  0  0  0  0  0  0  0
  140.9625   71.2456  229.2774 H   0  0  0  0  0  0  0  0  0  0  0  0
  141.2418   72.4961  227.1582 H   0  0  0  0  0  0  0  0  0  0  0  0
  141.5950   80.8230  220.3490 H   0  0  0  0  0  0  0  0  0  0  0  0
  143.0700   80.1380  221.2210 H   0  0  0  0  0  0  0  0  0  0  0  0
  1  2  1  0
  2  3  1  0
  3  4  1  0
  4  5  2  0
  4  6  1  0
  6  7  1  0
  7  8  1  0
  8  9  2  0
  8 10  1  0
 10 11  2  0
 11 12  1  0
 12 13  2  0
 13 14  1  0
 14 15  2  0
 15 16  1  0
 16 17  2  0
 17 18  1  0
 18 19  2  0
  2 20  1  0
 20 21  1  0
 20 22  2  0
 19 10  1  0
 18 13  1  0
  1 23  1  0
  1 24  1  0
  1 25  1  0
  2 26  1  1
  3 27  1  0
  6 28  1  0
  6 29  1  0
  7 30  1  0
 11 31  1  0
 12 32  1  0
 14 33  1  0
 15 34  1  0
 16 35  1  0
 17 36  1  0
 21 37  1  0
 21 38  1  0
M  END
>  <smiles>  (35) 
C[C@@H](NC(=O)CNC(=O)c1ccc2ccccc2n1)C(N)=O

>  <score_type>  (35) 
oracle

>  <origin>  (35) 
autodockgpu

>  <m_score__min__energy>  (35) 
-7.75

>  <m_primary>  (35) 
energy

>  <rmsd>  (35) 
1.9584710193891355

>  <m_score__min__rmsd>  (35) 
1.9584710193891355

>  <meeko>  (35) 
{"free_energy": -6.31, "intermolecular_energy": -7.8, "internal_energy": -2.11, "cluster_size": 20, "cluster_id": 1, "rank_in_cluster": 18}

>  <energy>  (35) 
-6.54

>  <cluster_rmsd>  (35) 
1.02

>  <cluster>  (35) 
2

$$$$

     RDKit          3D

 38 39  0  0  0  0  0  0  0  0999 V2000
  146.0250   72.8500  220.8910 C   0  0  0  0  0  0  0  0  0  0  0  0
  145.0580   72.0220  220.1010 C   0  0  1  0  0  0  0  0  0  0  0  0
  143.6840   72.2330  220.4940 N   0  0  0  0  0  0  0  0  0  0  0  0
  143.1390   73.5450  220.4640 C   0  0  0  0  0  0  0  0  0  0  0  0
  143.8210   74.5320  220.1030 O   0  0  0  0  0  0  0  0  0  0  0  0
  141.7250   73.7690  220.8680 C   0  0  0  0  0  0  0  0  0  0  0  0
  141.5580   75.1240  221.3410 N   0  0  0  0  0  0  0  0  0  0  0  0
  140.3690   75.5810  221.9630 C   0  0  0  0  0  0  0  0  0  0  0  0
  139.3850   74.8070  222.1340 O   0  0  0  0  0  0  0  0  0  0  0  0
  140.2810   76.9730  222.4150 C   0  0  0  0  0  0  0  0  0  0  0  0
  139.0730   77.5560  222.6970 C   0  0  0  0  0  0  0  0  0  0  0  0
  139.0240   78.8730  223.1220 C   0  0  0  0  0  0  0  0  0  0  0  0
  140.2040   79.5870  223.2570 C   0  0  0  0  0  0  0  0  0  0  0  0
  140.2020   80.9160  223.6820 C   0  0  0  0  0  0  0  0  0  0  0  0
  141.3720   81.6380  223.8200 C   0  0  0  0  0  0  0  0  0  0  0  0
  142.5620   80.9990  223.5230 C   0  0  0  0  0  0  0  0  0  0  0  0
  142.5730   79.6820  223.1000 C   0  0  0  0  0  0  0  0  0  0  0  0
  141.3950   78.9930  222.9720 C   0  0  0  0  0  0  0  0  0  0  0  0
  141.4150   77.7110  222.5620 N   0  0  0  0  0  0  0  0  0  0  0  0
  145.1790   72.4280  218.6740 C   0  0  0  0  0  0  0  0  0  0  0  0
  145.5700   73.7610  218.2940 N   0  0  0  0  0  0  0  0  0  0  0  0
  144.9500   71.6400  217.7220 O   0  0  0  0  0  0  0  0  0  0  0  0
  145.8463   72.6970  221.9655 H   0  0  0  0  0  0  0  0  0  0  0  0
  147.0535   72.5482  220.6437 H   0  0  0  0  0  0  0  0  0  0  0  0
  145.8852   73.9127  220.6437 H   0  0  0  0  0  0  0  0  0  0  0  0
  145.3025   70.9637  220.2746 H   0  0  0  0  0  0  0  0  0  0  0  0
  143.1450   71.3890  220.7900 H   0  0  0  0  0  0  0  0  0  0  0  0
  141.0673   73.6011  220.0024 H   0  0  0  0  0  0  0  0  0  0  0  0
  141.4634   73.0687  221.6749 H   0  0  0  0  0  0  0  0  0  0  0  0
  142.3410   75.8280  221.2310 H   0  0  0  0  0  0  0  0  0  0  0  0
  138.1435   76.9783  222.5859 H   0  0  0  0  0  0  0  0  0  0  0  0
  138.0582   79.3476  223.3501 H   0  0  0  0  0  0  0  0  0  0  0  0
  139.2428   81.4022  223.9135 H   0  0  0  0  0  0  0  0  0  0  0  0
  141.3574   82.6857  224.1548 H   0  0  0  0  0  0  0  0  0  0  0  0
  143.5116   81.5448  223.6244 H   0  0  0  0  0  0  0  0  0  0  0  0
  143.5274   79.1875  222.8663 H   0  0  0  0  0  0  0  0  0  0  0  0
  144.8220   74.4840  218.1760 H   0  0  0  0  0  0  0  0  0  0  0  0
  146.5890   73.9560  218.1480 H   0  0  0  0  0  0  0  0  0  0  0  0
  1  2  1  0
  2  3  1  0
  3  4  1  0
  4  5  2  0
  4  6  1  0
  6  7  1  0
  7  8  1  0
  8  9  2  0
  8 10  1  0
 10 11  2  0
 11 12  1  0
 12 13  2  0
 13 14  1  0
 14 15  2  0
 15 16  1  0
 16 17  2  0
 17 18  1  0
 18 19  2  0
  2 20  1  0
 20 21  1  0
 20 22  2  0
 19 10  1  0
 18 13  1  0
  1 23  1  0
  1 24  1  0
  1 25  1  0
  2 26  1  6
  3 27  1  0
  6 28  1  0
  6 29  1  0
  7 30  1  0
 11 31  1  0
 12 32  1  0
 14 33  1  0
 15 34  1  0
 16 35  1  0
 17 36  1  0
 21 37  1  0
 21 38  1  0
M  END
>  <smiles>  (36) 
C[C@@H](NC(=O)CNC(=O)c1ccc2ccccc2n1)C(N)=O

>  <score_type>  (36) 
oracle

>  <origin>  (36) 
autodockgpu

>  <m_score__min__energy>  (36) 
-7.75

>  <m_primary>  (36) 
energy

>  <rmsd>  (36) 
8.188688509951731

>  <m_score__min__rmsd>  (36) 
8.188688509951731

>  <meeko>  (36) 
{"free_energy": -6.35, "intermolecular_energy": -7.84, "internal_energy": -2.22, "cluster_size": 9, "cluster_id": 3, "rank_in_cluster": 9}

>  <energy>  (36) 
-6.38

>  <cluster_rmsd>  (36) 
1.4

>  <cluster>  (36) 
2

$$$$

     RDKit          3D

 38 39  0  0  0  0  0  0  0  0999 V2000
  143.4290   75.4370  219.2420 C   0  0  0  0  0  0  0  0  0  0  0  0
  143.3500   74.6990  220.5440 C   0  0  1  0  0  0  0  0  0  0  0  0
  142.0730   74.0550  220.7490 N   0  0  0  0  0  0  0  0  0  0  0  0
  140.9010   74.8480  220.8840 C   0  0  0  0  0  0  0  0  0  0  0  0
  140.9440   76.0980  220.8300 O   0  0  0  0  0  0  0  0  0  0  0  0
  139.5830   74.1910  221.0950 C   0  0  0  0  0  0  0  0  0  0  0  0
  139.6230   73.3840  222.2920 N   0  0  0  0  0  0  0  0  0  0  0  0
  140.1300   72.0600  222.3120 C   0  0  0  0  0  0  0  0  0  0  0  0
  140.5790   71.5190  221.2620 O   0  0  0  0  0  0  0  0  0  0  0  0
  140.1350   71.3090  223.5710 C   0  0  0  0  0  0  0  0  0  0  0  0
  139.7000   70.0110  223.6290 C   0  0  0  0  0  0  0  0  0  0  0  0
  139.7160   69.3280  224.8340 C   0  0  0  0  0  0  0  0  0  0  0  0
  140.1760   69.9720  225.9720 C   0  0  0  0  0  0  0  0  0  0  0  0
  140.2110   69.3240  227.2060 C   0  0  0  0  0  0  0  0  0  0  0  0
  140.6670   69.9560  228.3470 C   0  0  0  0  0  0  0  0  0  0  0  0
  141.0950   71.2650  228.2310 C   0  0  0  0  0  0  0  0  0  0  0  0
  141.0630   71.9160  227.0120 C   0  0  0  0  0  0  0  0  0  0  0  0
  140.6040   71.2620  225.8970 C   0  0  0  0  0  0  0  0  0  0  0  0
  140.5780   71.9020  224.7130 N   0  0  0  0  0  0  0  0  0  0  0  0
  144.3870   73.6310  220.5190 C   0  0  0  0  0  0  0  0  0  0  0  0
  145.7900   73.9330  220.6270 N   0  0  0  0  0  0  0  0  0  0  0  0
  144.1040   72.4120  220.4040 O   0  0  0  0  0  0  0  0  0  0  0  0
  143.5442   76.5134  219.4371 H   0  0  0  0  0  0  0  0  0  0  0  0
  144.2934   75.0740  218.6667 H   0  0  0  0  0  0  0  0  0  0  0  0
  142.5073   75.2652  218.6667 H   0  0  0  0  0  0  0  0  0  0  0  0
  143.4966   75.4291  221.3536 H   0  0  0  0  0  0  0  0  0  0  0  0
  142.0730   73.0110  220.7890 H   0  0  0  0  0  0  0  0  0  0  0  0
  138.8042   74.9607  221.1997 H   0  0  0  0  0  0  0  0  0  0  0  0
  139.3561   73.5481  220.2318 H   0  0  0  0  0  0  0  0  0  0  0  0
  139.2640   73.7720  223.2090 H   0  0  0  0  0  0  0  0  0  0  0  0
  139.3380   69.5112  222.7184 H   0  0  0  0  0  0  0  0  0  0  0  0
  139.3675   68.2860  224.8872 H   0  0  0  0  0  0  0  0  0  0  0  0
  139.8663   68.2815  227.2730 H   0  0  0  0  0  0  0  0  0  0  0  0
  140.6887   69.4347  229.3154 H   0  0  0  0  0  0  0  0  0  0  0  0
  141.4659   71.7957  229.1203 H   0  0  0  0  0  0  0  0  0  0  0  0
  141.4056   72.9585  226.9361 H   0  0  0  0  0  0  0  0  0  0  0  0
  146.3270   74.1260  219.7490 H   0  0  0  0  0  0  0  0  0  0  0  0
  146.2230   73.9470  221.5820 H   0  0  0  0  0  0  0  0  0  0  0  0
  1  2  1  0
  2  3  1  0
  3  4  1  0
  4  5  2  0
  4  6  1  0
  6  7  1  0
  7  8  1  0
  8  9  2  0
  8 10  1  0
 10 11  2  0
 11 12  1  0
 12 13  2  0
 13 14  1  0
 14 15  2  0
 15 16  1  0
 16 17  2  0
 17 18  1  0
 18 19  2  0
  2 20  1  0
 20 21  1  0
 20 22  2  0
 19 10  1  0
 18 13  1  0
  1 23  1  0
  1 24  1  0
  1 25  1  0
  2 26  1  1
  3 27  1  0
  6 28  1  0
  6 29  1  0
  7 30  1  0
 11 31  1  0
 12 32  1  0
 14 33  1  0
 15 34  1  0
 16 35  1  0
 17 36  1  0
 21 37  1  0
 21 38  1  0
M  END
>  <smiles>  (37) 
C[C@@H](NC(=O)CNC(=O)c1ccc2ccccc2n1)C(N)=O

>  <score_type>  (37) 
oracle

>  <origin>  (37) 
autodockgpu

>  <m_score__min__energy>  (37) 
-7.75

>  <m_primary>  (37) 
energy

>  <rmsd>  (37) 
2.7658836673788953

>  <m_score__min__rmsd>  (37) 
2.7658836673788953

>  <meeko>  (37) 
{"free_energy": -6.7, "intermolecular_energy": -8.19, "internal_energy": -2.42, "cluster_size": 17, "cluster_id": 2, "rank_in_cluster": 8}

>  <energy>  (37) 
-6.13

>  <cluster_rmsd>  (37) 
1.41

>  <cluster>  (37) 
2

$$$$

     RDKit          3D

 38 39  0  0  0  0  0  0  0  0999 V2000
  143.6910   75.0440  218.9880 C   0  0  0  0  0  0  0  0  0  0  0  0
  143.6670   74.6270  220.4270 C   0  0  1  0  0  0  0  0  0  0  0  0
  142.3560   74.7440  221.0240 N   0  0  0  0  0  0  0  0  0  0  0  0
  141.2470   74.1000  220.4130 C   0  0  0  0  0  0  0  0  0  0  0  0
  141.3730   73.4290  219.3640 O   0  0  0  0  0  0  0  0  0  0  0  0
  139.8950   74.2160  221.0240 C   0  0  0  0  0  0  0  0  0  0  0  0
  139.8300   73.4210  222.2280 N   0  0  0  0  0  0  0  0  0  0  0  0
  140.3010   72.0850  222.2940 C   0  0  0  0  0  0  0  0  0  0  0  0
  140.8070   71.5220  221.2820 O   0  0  0  0  0  0  0  0  0  0  0  0
  140.1980   71.3470  223.5560 C   0  0  0  0  0  0  0  0  0  0  0  0
  139.6180   70.1060  223.6130 C   0  0  0  0  0  0  0  0  0  0  0  0
  139.5350   69.4350  224.8200 C   0  0  0  0  0  0  0  0  0  0  0  0
  140.0460   70.0290  225.9630 C   0  0  0  0  0  0  0  0  0  0  0  0
  139.9860   69.3900  227.2010 C   0  0  0  0  0  0  0  0  0  0  0  0
  140.4920   69.9740  228.3470 C   0  0  0  0  0  0  0  0  0  0  0  0
  141.0670   71.2250  228.2330 C   0  0  0  0  0  0  0  0  0  0  0  0
  141.1310   71.8670  227.0100 C   0  0  0  0  0  0  0  0  0  0  0  0
  140.6200   71.2620  225.8900 C   0  0  0  0  0  0  0  0  0  0  0  0
  140.6860   71.8930  224.7030 N   0  0  0  0  0  0  0  0  0  0  0  0
  144.0560   73.1920  220.4860 C   0  0  0  0  0  0  0  0  0  0  0  0
  143.1030   72.1580  220.7960 N   0  0  0  0  0  0  0  0  0  0  0  0
  145.2300   72.7970  220.2700 O   0  0  0  0  0  0  0  0  0  0  0  0
  143.7541   76.1404  218.9250 H   0  0  0  0  0  0  0  0  0  0  0  0
  144.5649   74.5973  218.4913 H   0  0  0  0  0  0  0  0  0  0  0  0
  142.7716   74.7005  218.4913 H   0  0  0  0  0  0  0  0  0  0  0  0
  144.3527   75.2860  220.9798 H   0  0  0  0  0  0  0  0  0  0  0  0
  142.2870   75.3110  221.8990 H   0  0  0  0  0  0  0  0  0  0  0  0
  139.6955   75.2692  221.2711 H   0  0  0  0  0  0  0  0  0  0  0  0
  139.1420   73.8528  220.3091 H   0  0  0  0  0  0  0  0  0  0  0  0
  139.4190   73.8270  223.1140 H   0  0  0  0  0  0  0  0  0  0  0  0
  139.2184   69.6435  222.6984 H   0  0  0  0  0  0  0  0  0  0  0  0
  139.0682   68.4403  224.8719 H   0  0  0  0  0  0  0  0  0  0  0  0
  139.5234   68.3942  227.2673 H   0  0  0  0  0  0  0  0  0  0  0  0
  140.4386   69.4596  229.3179 H   0  0  0  0  0  0  0  0  0  0  0  0
  141.4792   71.7166  229.1265 H   0  0  0  0  0  0  0  0  0  0  0  0
  141.5918   72.8630  226.9352 H   0  0  0  0  0  0  0  0  0  0  0  0
  142.9570   71.9010  221.8000 H   0  0  0  0  0  0  0  0  0  0  0  0
  142.5910   71.7020  220.0040 H   0  0  0  0  0  0  0  0  0  0  0  0
  1  2  1  0
  2  3  1  0
  3  4  1  0
  4  5  2  0
  4  6  1  0
  6  7  1  0
  7  8  1  0
  8  9  2  0
  8 10  1  0
 10 11  2  0
 11 12  1  0
 12 13  2  0
 13 14  1  0
 14 15  2  0
 15 16  1  0
 16 17  2  0
 17 18  1  0
 18 19  2  0
  2 20  1  0
 20 21  1  0
 20 22  2  0
 19 10  1  0
 18 13  1  0
  1 23  1  0
  1 24  1  0
  1 25  1  0
  2 26  1  1
  3 27  1  0
  6 28  1  0
  6 29  1  0
  7 30  1  0
 11 31  1  0
 12 32  1  0
 14 33  1  0
 15 34  1  0
 16 35  1  0
 17 36  1  0
 21 37  1  0
 21 38  1  0
M  END
>  <smiles>  (38) 
C[C@@H](NC(=O)CNC(=O)c1ccc2ccccc2n1)C(N)=O

>  <score_type>  (38) 
oracle

>  <origin>  (38) 
autodockgpu

>  <m_score__min__energy>  (38) 
-7.75

>  <m_primary>  (38) 
energy

>  <rmsd>  (38) 
2.9967222444000323

>  <m_score__min__rmsd>  (38) 
2.9967222444000323

>  <meeko>  (38) 
{"free_energy": -6.54, "intermolecular_energy": -8.03, "internal_energy": -2.32, "cluster_size": 17, "cluster_id": 2, "rank_in_cluster": 15}

>  <energy>  (38) 
-6.84

>  <cluster_rmsd>  (38) 
0.0

>  <cluster>  (38) 
3

$$$$

     RDKit          3D

 38 39  0  0  0  0  0  0  0  0999 V2000
  139.6190   79.3510  222.1760 C   0  0  0  0  0  0  0  0  0  0  0  0
  140.5250   78.4760  222.9860 C   0  0  1  0  0  0  0  0  0  0  0  0
  140.8780   77.2500  222.3070 N   0  0  0  0  0  0  0  0  0  0  0  0
  139.9200   76.2060  222.2020 C   0  0  0  0  0  0  0  0  0  0  0  0
  138.7700   76.3180  222.6850 O   0  0  0  0  0  0  0  0  0  0  0  0
  140.2760   74.9410  221.5050 C   0  0  0  0  0  0  0  0  0  0  0  0
  139.9570   73.8100  222.3440 N   0  0  0  0  0  0  0  0  0  0  0  0
  140.7130   72.6110  222.3400 C   0  0  0  0  0  0  0  0  0  0  0  0
  141.7190   72.4780  221.5870 O   0  0  0  0  0  0  0  0  0  0  0  0
  140.3220   71.5090  223.2250 C   0  0  0  0  0  0  0  0  0  0  0  0
  139.5560   70.4670  222.7710 C   0  0  0  0  0  0  0  0  0  0  0  0
  139.2030   69.4420  223.6320 C   0  0  0  0  0  0  0  0  0  0  0  0
  139.6320   69.4830  224.9490 C   0  0  0  0  0  0  0  0  0  0  0  0
  139.3010   68.4720  225.8510 C   0  0  0  0  0  0  0  0  0  0  0  0
  139.7230   68.5040  227.1670 C   0  0  0  0  0  0  0  0  0  0  0  0
  140.4930   69.5790  227.5700 C   0  0  0  0  0  0  0  0  0  0  0  0
  140.8260   70.5860  226.6830 C   0  0  0  0  0  0  0  0  0  0  0  0
  140.3920   70.5260  225.3830 C   0  0  0  0  0  0  0  0  0  0  0  0
  140.7210   71.5100  224.5260 N   0  0  0  0  0  0  0  0  0  0  0  0
  141.7860   79.2310  223.2230 C   0  0  0  0  0  0  0  0  0  0  0  0
  142.9370   79.0730  222.3730 N   0  0  0  0  0  0  0  0  0  0  0  0
  141.9210   80.0450  224.1710 O   0  0  0  0  0  0  0  0  0  0  0  0
  138.9937   79.9549  222.8500 H   0  0  0  0  0  0  0  0  0  0  0  0
  140.2229   80.0164  221.5415 H   0  0  0  0  0  0  0  0  0  0  0  0
  138.9750   78.7244  221.5415 H   0  0  0  0  0  0  0  0  0  0  0  0
  139.9955   78.2113  223.9131 H   0  0  0  0  0  0  0  0  0  0  0  0
  141.8450   77.1900  221.9170 H   0  0  0  0  0  0  0  0  0  0  0  0
  139.7079   74.8699  220.5658 H   0  0  0  0  0  0  0  0  0  0  0  0
  141.3545   74.9383  221.2888 H   0  0  0  0  0  0  0  0  0  0  0  0
  139.1290   73.8500  223.0010 H   0  0  0  0  0  0  0  0  0  0  0  0
  139.2219   70.4452  221.7232 H   0  0  0  0  0  0  0  0  0  0  0  0
  138.5879   68.6032  223.2742 H   0  0  0  0  0  0  0  0  0  0  0  0
  138.6877   67.6265  225.5060 H   0  0  0  0  0  0  0  0  0  0  0  0
  139.4552   67.7012  227.8697 H   0  0  0  0  0  0  0  0  0  0  0  0
  140.8456   69.6340  228.6105 H   0  0  0  0  0  0  0  0  0  0  0  0
  141.4389   71.4351  227.0197 H   0  0  0  0  0  0  0  0  0  0  0  0
  143.6330   78.3280  222.6110 H   0  0  0  0  0  0  0  0  0  0  0  0
  143.0350   79.7120  221.5480 H   0  0  0  0  0  0  0  0  0  0  0  0
  1  2  1  0
  2  3  1  0
  3  4  1  0
  4  5  2  0
  4  6  1  0
  6  7  1  0
  7  8  1  0
  8  9  2  0
  8 10  1  0
 10 11  2  0
 11 12  1  0
 12 13  2  0
 13 14  1  0
 14 15  2  0
 15 16  1  0
 16 17  2  0
 17 18  1  0
 18 19  2  0
  2 20  1  0
 20 21  1  0
 20 22  2  0
 19 10  1  0
 18 13  1  0
  1 23  1  0
  1 24  1  0
  1 25  1  0
  2 26  1  1
  3 27  1  0
  6 28  1  0
  6 29  1  0
  7 30  1  0
 11 31  1  0
 12 32  1  0
 14 33  1  0
 15 34  1  0
 16 35  1  0
 17 36  1  0
 21 37  1  0
 21 38  1  0
M  END
>  <smiles>  (39) 
C[C@@H](NC(=O)CNC(=O)c1ccc2ccccc2n1)C(N)=O

>  <score_type>  (39) 
oracle

>  <origin>  (39) 
autodockgpu

>  <m_score__min__energy>  (39) 
-7.75

>  <m_primary>  (39) 
energy

>  <rmsd>  (39) 
2.601850294657974

>  <m_score__min__rmsd>  (39) 
2.601850294657974

>  <meeko>  (39) 
{"free_energy": -7.64, "intermolecular_energy": -9.13, "internal_energy": -1.14, "cluster_size": 20, "cluster_id": 1, "rank_in_cluster": 4}

>  <energy>  (39) 
-6.81

>  <cluster_rmsd>  (39) 
0.08

>  <cluster>  (39) 
3

$$$$

     RDKit          3D

 38 39  0  0  0  0  0  0  0  0999 V2000
  146.1180   72.8670  221.0180 C   0  0  0  0  0  0  0  0  0  0  0  0
  145.1980   72.0190  220.1960 C   0  0  1  0  0  0  0  0  0  0  0  0
  143.8050   72.2240  220.5190 N   0  0  0  0  0  0  0  0  0  0  0  0
  143.2700   73.5400  220.5160 C   0  0  0  0  0  0  0  0  0  0  0  0
  143.9760   74.5360  220.2370 O   0  0  0  0  0  0  0  0  0  0  0  0
  141.8360   73.7580  220.8480 C   0  0  0  0  0  0  0  0  0  0  0  0
  141.6410   75.1090  221.3210 N   0  0  0  0  0  0  0  0  0  0  0  0
  140.4450   75.5400  221.9480 C   0  0  0  0  0  0  0  0  0  0  0  0
  139.4790   74.7440  222.1240 O   0  0  0  0  0  0  0  0  0  0  0  0
  140.3280   76.9290  222.4000 C   0  0  0  0  0  0  0  0  0  0  0  0
  139.1080   77.4900  222.6750 C   0  0  0  0  0  0  0  0  0  0  0  0
  139.0310   78.8060  223.0990 C   0  0  0  0  0  0  0  0  0  0  0  0
  140.1970   79.5420  223.2420 C   0  0  0  0  0  0  0  0  0  0  0  0
  140.1680   80.8700  223.6670 C   0  0  0  0  0  0  0  0  0  0  0  0
  141.3240   81.6130  223.8120 C   0  0  0  0  0  0  0  0  0  0  0  0
  142.5270   80.9970  223.5220 C   0  0  0  0  0  0  0  0  0  0  0  0
  142.5650   79.6810  223.1000 C   0  0  0  0  0  0  0  0  0  0  0  0
  141.4010   78.9700  222.9640 C   0  0  0  0  0  0  0  0  0  0  0  0
  141.4470   77.6890  222.5530 N   0  0  0  0  0  0  0  0  0  0  0  0
  145.3840   72.4040  218.7700 C   0  0  0  0  0  0  0  0  0  0  0  0
  145.6350   73.7660  218.3780 N   0  0  0  0  0  0  0  0  0  0  0  0
  145.3340   71.5720  217.8300 O   0  0  0  0  0  0  0  0  0  0  0  0
  145.9246   72.6887  222.0861 H   0  0  0  0  0  0  0  0  0  0  0  0
  147.1614   72.6073  220.7860 H   0  0  0  0  0  0  0  0  0  0  0  0
  145.9440   73.9281  220.7860 H   0  0  0  0  0  0  0  0  0  0  0  0
  145.4429   70.9657  220.3977 H   0  0  0  0  0  0  0  0  0  0  0  0
  143.2440   71.3720  220.7470 H   0  0  0  0  0  0  0  0  0  0  0  0
  141.2244   73.5946  219.9484 H   0  0  0  0  0  0  0  0  0  0  0  0
  141.5350   73.0515  221.6355 H   0  0  0  0  0  0  0  0  0  0  0  0
  142.4070   75.8300  221.2070 H   0  0  0  0  0  0  0  0  0  0  0  0
  138.1902   76.8949  222.5589 H   0  0  0  0  0  0  0  0  0  0  0  0
  138.0549   79.2625  223.3200 H   0  0  0  0  0  0  0  0  0  0  0  0
  139.1988   81.3386  223.8929 H   0  0  0  0  0  0  0  0  0  0  0  0
  141.2881   82.6601  224.1471 H   0  0  0  0  0  0  0  0  0  0  0  0
  143.4655   81.5608  223.6283 H   0  0  0  0  0  0  0  0  0  0  0  0
  143.5300   79.2042  222.8732 H   0  0  0  0  0  0  0  0  0  0  0  0
  144.8150   74.3860  218.1780 H   0  0  0  0  0  0  0  0  0  0  0  0
  146.6310   74.0860  218.3070 H   0  0  0  0  0  0  0  0  0  0  0  0
  1  2  1  0
  2  3  1  0
  3  4  1  0
  4  5  2  0
  4  6  1  0
  6  7  1  0
  7  8  1  0
  8  9  2  0
  8 10  1  0
 10 11  2  0
 11 12  1  0
 12 13  2  0
 13 14  1  0
 14 15  2  0
 15 16  1  0
 16 17  2  0
 17 18  1  0
 18 19  2  0
  2 20  1  0
 20 21  1  0
 20 22  2  0
 19 10  1  0
 18 13  1  0
  1 23  1  0
  1 24  1  0
  1 25  1  0
  2 26  1  6
  3 27  1  0
  6 28  1  0
  6 29  1  0
  7 30  1  0
 11 31  1  0
 12 32  1  0
 14 33  1  0
 15 34  1  0
 16 35  1  0
 17 36  1  0
 21 37  1  0
 21 38  1  0
M  END
>  <smiles>  (40) 
C[C@@H](NC(=O)CNC(=O)c1ccc2ccccc2n1)C(N)=O

>  <score_type>  (40) 
oracle

>  <origin>  (40) 
autodockgpu

>  <m_score__min__energy>  (40) 
-7.75

>  <m_primary>  (40) 
energy

>  <rmsd>  (40) 
8.20435266887441

>  <m_score__min__rmsd>  (40) 
8.20435266887441

>  <meeko>  (40) 
{"free_energy": -6.38, "intermolecular_energy": -7.87, "internal_energy": -2.18, "cluster_size": 9, "cluster_id": 3, "rank_in_cluster": 6}

>  <energy>  (40) 
-6.8

>  <cluster_rmsd>  (40) 
0.24

>  <cluster>  (40) 
3

$$$$

     RDKit          3D

 38 39  0  0  0  0  0  0  0  0999 V2000
  144.0440   74.8180  219.3120 C   0  0  0  0  0  0  0  0  0  0  0  0
  143.9030   73.8640  220.4590 C   0  0  1  0  0  0  0  0  0  0  0  0
  142.5430   73.4190  220.6560 N   0  0  0  0  0  0  0  0  0  0  0  0
  141.9100   72.6330  219.6560 C   0  0  0  0  0  0  0  0  0  0  0  0
  142.5020   72.3120  218.6000 O   0  0  0  0  0  0  0  0  0  0  0  0
  140.5100   72.1710  219.8530 C   0  0  0  0  0  0  0  0  0  0  0  0
  140.3930   71.4830  221.1170 N   0  0  0  0  0  0  0  0  0  0  0  0
  140.1990   72.1610  222.3470 C   0  0  0  0  0  0  0  0  0  0  0  0
  140.1190   73.4210  222.3910 O   0  0  0  0  0  0  0  0  0  0  0  0
  140.0900   71.3860  223.5870 C   0  0  0  0  0  0  0  0  0  0  0  0
  139.4440   70.1780  223.6190 C   0  0  0  0  0  0  0  0  0  0  0  0
  139.3570   69.4710  224.8060 C   0  0  0  0  0  0  0  0  0  0  0  0
  139.9290   69.9970  225.9530 C   0  0  0  0  0  0  0  0  0  0  0  0
  139.8670   69.3200  227.1710 C   0  0  0  0  0  0  0  0  0  0  0  0
  140.4330   69.8370  228.3210 C   0  0  0  0  0  0  0  0  0  0  0  0
  141.0730   71.0590  228.2310 C   0  0  0  0  0  0  0  0  0  0  0  0
  141.1400   71.7370  227.0280 C   0  0  0  0  0  0  0  0  0  0  0  0
  140.5670   71.1990  225.9040 C   0  0  0  0  0  0  0  0  0  0  0  0
  140.6370   71.8660  224.7370 N   0  0  0  0  0  0  0  0  0  0  0  0
  144.7240   72.6620  220.1470 C   0  0  0  0  0  0  0  0  0  0  0  0
  144.2500   71.3300  220.4150 N   0  0  0  0  0  0  0  0  0  0  0  0
  145.8700   72.7360  219.6370 O   0  0  0  0  0  0  0  0  0  0  0  0
  144.1946   75.8367  219.6988 H   0  0  0  0  0  0  0  0  0  0  0  0
  144.9090   74.5275  218.6976 H   0  0  0  0  0  0  0  0  0  0  0  0
  143.1320   74.7901  218.6976 H   0  0  0  0  0  0  0  0  0  0  0  0
  144.2253   74.3855  221.3723 H   0  0  0  0  0  0  0  0  0  0  0  0
  142.0790   73.7050  221.5470 H   0  0  0  0  0  0  0  0  0  0  0  0
  139.8350   73.0395  219.8466 H   0  0  0  0  0  0  0  0  0  0  0  0
  140.2378   71.4826  219.0393 H   0  0  0  0  0  0  0  0  0  0  0  0
  140.4500   70.4270  221.1570 H   0  0  0  0  0  0  0  0  0  0  0  0
  138.9946   69.7701  222.7016 H   0  0  0  0  0  0  0  0  0  0  0  0
  138.8388   68.5012  224.8382 H   0  0  0  0  0  0  0  0  0  0  0  0
  139.3537   68.3482  227.2175 H   0  0  0  0  0  0  0  0  0  0  0  0
  140.3761   69.2942  229.2761 H   0  0  0  0  0  0  0  0  0  0  0  0
  141.5348   71.4975  229.1279 H   0  0  0  0  0  0  0  0  0  0  0  0
  141.6531   72.7084  226.9723 H   0  0  0  0  0  0  0  0  0  0  0  0
  144.4450   70.9110  221.3540 H   0  0  0  0  0  0  0  0  0  0  0  0
  143.7280   70.8280  219.6570 H   0  0  0  0  0  0  0  0  0  0  0  0
  1  2  1  0
  2  3  1  0
  3  4  1  0
  4  5  2  0
  4  6  1  0
  6  7  1  0
  7  8  1  0
  8  9  2  0
  8 10  1  0
 10 11  2  0
 11 12  1  0
 12 13  2  0
 13 14  1  0
 14 15  2  0
 15 16  1  0
 16 17  2  0
 17 18  1  0
 18 19  2  0
  2 20  1  0
 20 21  1  0
 20 22  2  0
 19 10  1  0
 18 13  1  0
  1 23  1  0
  1 24  1  0
  1 25  1  0
  2 26  1  1
  3 27  1  0
  6 28  1  0
  6 29  1  0
  7 30  1  0
 11 31  1  0
 12 32  1  0
 14 33  1  0
 15 34  1  0
 16 35  1  0
 17 36  1  0
 21 37  1  0
 21 38  1  0
M  END
>  <smiles>  (41) 
C[C@@H](NC(=O)CNC(=O)c1ccc2ccccc2n1)C(N)=O

>  <score_type>  (41) 
oracle

>  <origin>  (41) 
autodockgpu

>  <m_score__min__energy>  (41) 
-7.75

>  <m_primary>  (41) 
energy

>  <rmsd>  (41) 
3.6040673074672505

>  <m_score__min__rmsd>  (41) 
3.6040673074672505

>  <meeko>  (41) 
{"free_energy": -6.64, "intermolecular_energy": -8.13, "internal_energy": -1.99, "cluster_size": 17, "cluster_id": 2, "rank_in_cluster": 11}

>  <energy>  (41) 
-6.78

>  <cluster_rmsd>  (41) 
0.37

>  <cluster>  (41) 
3

$$$$

     RDKit          3D

 38 39  0  0  0  0  0  0  0  0999 V2000
  141.1210   76.3370  219.8660 C   0  0  0  0  0  0  0  0  0  0  0  0
  139.8180   76.5960  220.5580 C   0  0  1  0  0  0  0  0  0  0  0  0
  138.9860   75.4180  220.6480 N   0  0  0  0  0  0  0  0  0  0  0  0
  139.3760   74.3460  221.4950 C   0  0  0  0  0  0  0  0  0  0  0  0
  140.4290   74.3930  222.1710 O   0  0  0  0  0  0  0  0  0  0  0  0
  138.5230   73.1310  221.5920 C   0  0  0  0  0  0  0  0  0  0  0  0
  138.9350   72.3310  222.7220 N   0  0  0  0  0  0  0  0  0  0  0  0
  138.5180   70.9890  222.9080 C   0  0  0  0  0  0  0  0  0  0  0  0
  137.7530   70.4240  222.0760 O   0  0  0  0  0  0  0  0  0  0  0  0
  138.9830   70.2460  224.0830 C   0  0  0  0  0  0  0  0  0  0  0  0
  138.8170   68.8890  224.1800 C   0  0  0  0  0  0  0  0  0  0  0  0
  139.2660   68.2150  225.3040 C   0  0  0  0  0  0  0  0  0  0  0  0
  139.8840   68.9280  226.3190 C   0  0  0  0  0  0  0  0  0  0  0  0
  140.3540   68.2910  227.4680 C   0  0  0  0  0  0  0  0  0  0  0  0
  140.9700   68.9920  228.4880 C   0  0  0  0  0  0  0  0  0  0  0  0
  141.1130   70.3580  228.3360 C   0  0  0  0  0  0  0  0  0  0  0  0
  140.6500   70.9980  227.2000 C   0  0  0  0  0  0  0  0  0  0  0  0
  140.0410   70.2750  226.2060 C   0  0  0  0  0  0  0  0  0  0  0  0
  139.5950   70.9050  225.1040 N   0  0  0  0  0  0  0  0  0  0  0  0
  140.1260   77.0300  221.9480 C   0  0  0  0  0  0  0  0  0  0  0  0
  141.4460   76.9070  222.5080 N   0  0  0  0  0  0  0  0  0  0  0  0
  139.2590   77.5270  222.7110 O   0  0  0  0  0  0  0  0  0  0  0  0
  141.9099   76.1802  220.6164 H   0  0  0  0  0  0  0  0  0  0  0  0
  141.0299   75.4394  219.2367 H   0  0  0  0  0  0  0  0  0  0  0  0
  141.3801   77.2012  219.2367 H   0  0  0  0  0  0  0  0  0  0  0  0
  139.2727   77.3541  219.9766 H   0  0  0  0  0  0  0  0  0  0  0  0
  138.1150   75.4130  220.0710 H   0  0  0  0  0  0  0  0  0  0  0  0
  137.4729   73.4318  221.7214 H   0  0  0  0  0  0  0  0  0  0  0  0
  138.6290   72.5391  220.6709 H   0  0  0  0  0  0  0  0  0  0  0  0
  139.5760   72.7390  223.4590 H   0  0  0  0  0  0  0  0  0  0  0  0
  138.3273   68.3351  223.3655 H   0  0  0  0  0  0  0  0  0  0  0  0
  139.1335   67.1264  225.3898 H   0  0  0  0  0  0  0  0  0  0  0  0
  140.2311   67.2022  227.5648 H   0  0  0  0  0  0  0  0  0  0  0  0
  141.3342   68.4794  229.3906 H   0  0  0  0  0  0  0  0  0  0  0  0
  141.6013   70.9442  229.1284 H   0  0  0  0  0  0  0  0  0  0  0  0
  140.7702   72.0863  227.0940 H   0  0  0  0  0  0  0  0  0  0  0  0
  141.6980   76.0160  222.9980 H   0  0  0  0  0  0  0  0  0  0  0  0
  142.1060   77.7150  222.4040 H   0  0  0  0  0  0  0  0  0  0  0  0
  1  2  1  0
  2  3  1  0
  3  4  1  0
  4  5  2  0
  4  6  1  0
  6  7  1  0
  7  8  1  0
  8  9  2  0
  8 10  1  0
 10 11  2  0
 11 12  1  0
 12 13  2  0
 13 14  1  0
 14 15  2  0
 15 16  1  0
 16 17  2  0
 17 18  1  0
 18 19  2  0
  2 20  1  0
 20 21  1  0
 20 22  2  0
 19 10  1  0
 18 13  1  0
  1 23  1  0
  1 24  1  0
  1 25  1  0
  2 26  1  6
  3 27  1  0
  6 28  1  0
  6 29  1  0
  7 30  1  0
 11 31  1  0
 12 32  1  0
 14 33  1  0
 15 34  1  0
 16 35  1  0
 17 36  1  0
 21 37  1  0
 21 38  1  0
M  END
>  <smiles>  (42) 
C[C@@H](NC(=O)CNC(=O)c1ccc2ccccc2n1)C(N)=O

>  <score_type>  (42) 
oracle

>  <origin>  (42) 
autodockgpu

>  <m_score__min__energy>  (42) 
-7.75

>  <m_primary>  (42) 
energy

>  <rmsd>  (42) 
1.4838121644758357

>  <m_score__min__rmsd>  (42) 
1.4838121644758357

>  <meeko>  (42) 
{"free_energy": -6.55, "intermolecular_energy": -8.04, "internal_energy": -2.16, "cluster_size": 20, "cluster_id": 1, "rank_in_cluster": 7}

>  <energy>  (42) 
-6.77

>  <cluster_rmsd>  (42) 
0.29

>  <cluster>  (42) 
3

$$$$

     RDKit          3D

 38 39  0  0  0  0  0  0  0  0999 V2000
  141.2910   77.9140  223.0310 C   0  0  0  0  0  0  0  0  0  0  0  0
  140.6690   77.1190  221.9250 C   0  0  1  0  0  0  0  0  0  0  0  0
  141.3290   75.8530  221.7010 N   0  0  0  0  0  0  0  0  0  0  0  0
  140.8820   75.0040  220.6540 C   0  0  0  0  0  0  0  0  0  0  0  0
  139.9240   75.3230  219.9120 O   0  0  0  0  0  0  0  0  0  0  0  0
  141.5570   73.6990  220.4190 C   0  0  0  0  0  0  0  0  0  0  0  0
  141.4070   72.8520  221.5790 N   0  0  0  0  0  0  0  0  0  0  0  0
  140.1560   72.6160  222.2030 C   0  0  0  0  0  0  0  0  0  0  0  0
  139.0980   73.1480  221.7620 O   0  0  0  0  0  0  0  0  0  0  0  0
  140.0900   71.7420  223.3780 C   0  0  0  0  0  0  0  0  0  0  0  0
  139.5280   70.4940  223.3080 C   0  0  0  0  0  0  0  0  0  0  0  0
  139.4800   69.6920  224.4360 C   0  0  0  0  0  0  0  0  0  0  0  0
  140.0060   70.1650  225.6270 C   0  0  0  0  0  0  0  0  0  0  0  0
  139.9800   69.3920  226.7880 C   0  0  0  0  0  0  0  0  0  0  0  0
  140.5010   69.8540  227.9820 C   0  0  0  0  0  0  0  0  0  0  0  0
  141.0580   71.1190  227.9950 C   0  0  0  0  0  0  0  0  0  0  0  0
  141.0870   71.8930  226.8490 C   0  0  0  0  0  0  0  0  0  0  0  0
  140.5610   71.4070  225.6800 C   0  0  0  0  0  0  0  0  0  0  0  0
  140.5950   72.1660  224.5690 N   0  0  0  0  0  0  0  0  0  0  0  0
  139.2640   76.8240  222.3180 C   0  0  0  0  0  0  0  0  0  0  0  0
  138.7240   75.4910  222.2670 N   0  0  0  0  0  0  0  0  0  0  0  0
  138.4690   77.7140  222.7150 O   0  0  0  0  0  0  0  0  0  0  0  0
  140.9713   77.5054  224.0010 H   0  0  0  0  0  0  0  0  0  0  0  0
  142.3867   77.8569  222.9523 H   0  0  0  0  0  0  0  0  0  0  0  0
  140.9720   78.9638  222.9523 H   0  0  0  0  0  0  0  0  0  0  0  0
  140.7473   77.7111  221.0012 H   0  0  0  0  0  0  0  0  0  0  0  0
  142.1230   75.6180  222.3380 H   0  0  0  0  0  0  0  0  0  0  0  0
  141.1039   73.2059  219.5463 H   0  0  0  0  0  0  0  0  0  0  0  0
  142.6272   73.8731  220.2337 H   0  0  0  0  0  0  0  0  0  0  0  0
  142.2500   72.3740  222.0040 H   0  0  0  0  0  0  0  0  0  0  0  0
  139.1151   70.1294  222.3559 H   0  0  0  0  0  0  0  0  0  0  0  0
  139.0289   68.6899  224.3867 H   0  0  0  0  0  0  0  0  0  0  0  0
  139.5328   68.3877  226.7523 H   0  0  0  0  0  0  0  0  0  0  0  0
  140.4733   69.2357  228.8914 H   0  0  0  0  0  0  0  0  0  0  0  0
  141.4836   71.5153  228.9287 H   0  0  0  0  0  0  0  0  0  0  0  0
  141.5322   72.8985  226.8756 H   0  0  0  0  0  0  0  0  0  0  0  0
  138.2780   75.1670  221.3770 H   0  0  0  0  0  0  0  0  0  0  0  0
  138.7980   74.8930  223.1250 H   0  0  0  0  0  0  0  0  0  0  0  0
  1  2  1  0
  2  3  1  0
  3  4  1  0
  4  5  2  0
  4  6  1  0
  6  7  1  0
  7  8  1  0
  8  9  2  0
  8 10  1  0
 10 11  2  0
 11 12  1  0
 12 13  2  0
 13 14  1  0
 14 15  2  0
 15 16  1  0
 16 17  2  0
 17 18  1  0
 18 19  2  0
  2 20  1  0
 20 21  1  0
 20 22  2  0
 19 10  1  0
 18 13  1  0
  1 23  1  0
  1 24  1  0
  1 25  1  0
  2 26  1  6
  3 27  1  0
  6 28  1  0
  6 29  1  0
  7 30  1  0
 11 31  1  0
 12 32  1  0
 14 33  1  0
 15 34  1  0
 16 35  1  0
 17 36  1  0
 21 37  1  0
 21 38  1  0
M  END
>  <smiles>  (43) 
C[C@@H](NC(=O)CNC(=O)c1ccc2ccccc2n1)C(N)=O

>  <score_type>  (43) 
oracle

>  <origin>  (43) 
autodockgpu

>  <m_score__min__energy>  (43) 
-7.75

>  <m_primary>  (43) 
energy

>  <rmsd>  (43) 
2.689854617138475

>  <m_score__min__rmsd>  (43) 
2.689854617138475

>  <meeko>  (43) 
{"free_energy": -6.44, "intermolecular_energy": -7.93, "internal_energy": -2.42, "cluster_size": 20, "cluster_id": 1, "rank_in_cluster": 13}

>  <energy>  (43) 
-6.38

>  <cluster_rmsd>  (43) 
1.35

>  <cluster>  (43) 
3

$$$$

     RDKit          3D

 38 39  0  0  0  0  0  0  0  0999 V2000
  141.5300   75.9210  220.0760 C   0  0  0  0  0  0  0  0  0  0  0  0
  140.1050   76.3140  220.3150 C   0  0  1  0  0  0  0  0  0  0  0  0
  139.2210   75.1780  220.4350 N   0  0  0  0  0  0  0  0  0  0  0  0
  139.4390   74.2240  221.4640 C   0  0  0  0  0  0  0  0  0  0  0  0
  140.3840   74.3400  222.2790 O   0  0  0  0  0  0  0  0  0  0  0  0
  138.5320   73.0520  221.5930 C   0  0  0  0  0  0  0  0  0  0  0  0
  138.9160   72.2570  222.7370 N   0  0  0  0  0  0  0  0  0  0  0  0
  138.5640   70.8910  222.8780 C   0  0  0  0  0  0  0  0  0  0  0  0
  137.8860   70.2980  221.9910 O   0  0  0  0  0  0  0  0  0  0  0  0
  138.9940   70.1550  224.0710 C   0  0  0  0  0  0  0  0  0  0  0  0
  138.7840   68.8060  224.1910 C   0  0  0  0  0  0  0  0  0  0  0  0
  139.2010   68.1400  225.3310 C   0  0  0  0  0  0  0  0  0  0  0  0
  139.8310   68.8510  226.3400 C   0  0  0  0  0  0  0  0  0  0  0  0
  140.2690   68.2210  227.5050 C   0  0  0  0  0  0  0  0  0  0  0  0
  140.8980   68.9210  228.5180 C   0  0  0  0  0  0  0  0  0  0  0  0
  141.0850   70.2790  228.3430 C   0  0  0  0  0  0  0  0  0  0  0  0
  140.6530   70.9110  227.1910 C   0  0  0  0  0  0  0  0  0  0  0  0
  140.0320   70.1900  226.2040 C   0  0  0  0  0  0  0  0  0  0  0  0
  139.6160   70.8140  225.0860 N   0  0  0  0  0  0  0  0  0  0  0  0
  140.0530   77.0550  221.6050 C   0  0  0  0  0  0  0  0  0  0  0  0
  141.0680   76.8980  222.6130 N   0  0  0  0  0  0  0  0  0  0  0  0
  139.1280   77.8560  221.8910 O   0  0  0  0  0  0  0  0  0  0  0  0
  142.0385   75.7808  221.0413 H   0  0  0  0  0  0  0  0  0  0  0  0
  141.5604   74.9809  219.5056 H   0  0  0  0  0  0  0  0  0  0  0  0
  142.0379   76.7126  219.5056 H   0  0  0  0  0  0  0  0  0  0  0  0
  139.7733   76.9141  219.4548 H   0  0  0  0  0  0  0  0  0  0  0  0
  138.4440   75.1110  219.7400 H   0  0  0  0  0  0  0  0  0  0  0  0
  137.4979   73.4036  221.7236 H   0  0  0  0  0  0  0  0  0  0  0  0
  138.6033   72.4368  220.6839 H   0  0  0  0  0  0  0  0  0  0  0  0
  139.4850   72.6870  223.5190 H   0  0  0  0  0  0  0  0  0  0  0  0
  138.2844   68.2527  223.3821 H   0  0  0  0  0  0  0  0  0  0  0  0
  139.0340   67.0577  225.4347 H   0  0  0  0  0  0  0  0  0  0  0  0
  140.1098   67.1388  227.6208 H   0  0  0  0  0  0  0  0  0  0  0  0
  141.2383   68.4138  229.4329 H   0  0  0  0  0  0  0  0  0  0  0  0
  141.5836   70.8645  229.1295 H   0  0  0  0  0  0  0  0  0  0  0  0
  140.8078   71.9929  227.0666 H   0  0  0  0  0  0  0  0  0  0  0  0
  140.9470   76.1440  223.3290 H   0  0  0  0  0  0  0  0  0  0  0  0
  141.8920   77.5460  222.5920 H   0  0  0  0  0  0  0  0  0  0  0  0
  1  2  1  0
  2  3  1  0
  3  4  1  0
  4  5  2  0
  4  6  1  0
  6  7  1  0
  7  8  1  0
  8  9  2  0
  8 10  1  0
 10 11  2  0
 11 12  1  0
 12 13  2  0
 13 14  1  0
 14 15  2  0
 15 16  1  0
 16 17  2  0
 17 18  1  0
 18 19  2  0
  2 20  1  0
 20 21  1  0
 20 22  2  0
 19 10  1  0
 18 13  1  0
  1 23  1  0
  1 24  1  0
  1 25  1  0
  2 26  1  6
  3 27  1  0
  6 28  1  0
  6 29  1  0
  7 30  1  0
 11 31  1  0
 12 32  1  0
 14 33  1  0
 15 34  1  0
 16 35  1  0
 17 36  1  0
 21 37  1  0
 21 38  1  0
M  END
>  <smiles>  (44) 
C[C@@H](NC(=O)CNC(=O)c1ccc2ccccc2n1)C(N)=O

>  <score_type>  (44) 
oracle

>  <origin>  (44) 
autodockgpu

>  <m_score__min__energy>  (44) 
-7.75

>  <m_primary>  (44) 
energy

>  <rmsd>  (44) 
1.529998712328358

>  <m_score__min__rmsd>  (44) 
1.529998712328358

>  <meeko>  (44) 
{"free_energy": -6.3, "intermolecular_energy": -7.8, "internal_energy": -2.29, "cluster_size": 20, "cluster_id": 1, "rank_in_cluster": 19}

>  <energy>  (44) 
-6.36

>  <cluster_rmsd>  (44) 
1.38

>  <cluster>  (44) 
3

$$$$

     RDKit          3D

 38 39  0  0  0  0  0  0  0  0999 V2000
  144.0940   71.5270  220.1450 C   0  0  0  0  0  0  0  0  0  0  0  0
  143.3520   72.7950  219.8520 C   0  0  1  0  0  0  0  0  0  0  0  0
  142.0670   72.8590  220.5100 N   0  0  0  0  0  0  0  0  0  0  0  0
  141.2090   73.9650  220.2660 C   0  0  0  0  0  0  0  0  0  0  0  0
  141.5360   74.8920  219.4910 O   0  0  0  0  0  0  0  0  0  0  0  0
  139.8850   74.0370  220.9400 C   0  0  0  0  0  0  0  0  0  0  0  0
  139.9160   73.2760  222.1680 N   0  0  0  0  0  0  0  0  0  0  0  0
  139.9130   71.8590  222.1960 C   0  0  0  0  0  0  0  0  0  0  0  0
  139.8820   71.1870  221.1260 O   0  0  0  0  0  0  0  0  0  0  0  0
  139.9480   71.1630  223.4860 C   0  0  0  0  0  0  0  0  0  0  0  0
  139.4910   69.8770  223.6150 C   0  0  0  0  0  0  0  0  0  0  0  0
  139.5360   69.2480  224.8470 C   0  0  0  0  0  0  0  0  0  0  0  0
  140.0480   69.9300  225.9400 C   0  0  0  0  0  0  0  0  0  0  0  0
  140.1140   69.3360  227.1990 C   0  0  0  0  0  0  0  0  0  0  0  0
  140.6210   70.0070  228.2960 C   0  0  0  0  0  0  0  0  0  0  0  0
  141.0700   71.3020  228.1070 C   0  0  0  0  0  0  0  0  0  0  0  0
  141.0080   71.8990  226.8620 C   0  0  0  0  0  0  0  0  0  0  0  0
  140.4980   71.2070  225.7930 C   0  0  0  0  0  0  0  0  0  0  0  0
  140.4420   71.7960  224.5850 N   0  0  0  0  0  0  0  0  0  0  0  0
  144.1720   73.9250  220.3670 C   0  0  0  0  0  0  0  0  0  0  0  0
  143.9610   75.2790  219.9260 N   0  0  0  0  0  0  0  0  0  0  0  0
  145.0910   73.7680  221.2090 O   0  0  0  0  0  0  0  0  0  0  0  0
  144.1732   71.3917  221.2338 H   0  0  0  0  0  0  0  0  0  0  0  0
  143.5516   70.6755  219.7082 H   0  0  0  0  0  0  0  0  0  0  0  0
  145.1020   71.5827  219.7082 H   0  0  0  0  0  0  0  0  0  0  0  0
  143.1809   72.8416  218.7664 H   0  0  0  0  0  0  0  0  0  0  0  0
  141.8260   72.0690  221.1500 H   0  0  0  0  0  0  0  0  0  0  0  0
  139.6482   75.0869  221.1674 H   0  0  0  0  0  0  0  0  0  0  0  0
  139.1163   73.6182  220.2738 H   0  0  0  0  0  0  0  0  0  0  0  0
  139.9440   73.7720  223.1030 H   0  0  0  0  0  0  0  0  0  0  0  0
  139.0888   69.3454  222.7400 H   0  0  0  0  0  0  0  0  0  0  0  0
  139.1691   68.2169  224.9579 H   0  0  0  0  0  0  0  0  0  0  0  0
  139.7526   68.3045  227.3232 H   0  0  0  0  0  0  0  0  0  0  0  0
  140.6659   69.5279  229.2852 H   0  0  0  0  0  0  0  0  0  0  0  0
  141.4816   71.8636  228.9585 H   0  0  0  0  0  0  0  0  0  0  0  0
  141.3679   72.9298  226.7283 H   0  0  0  0  0  0  0  0  0  0  0  0
  144.4810   75.6150  219.0810 H   0  0  0  0  0  0  0  0  0  0  0  0
  143.2940   75.8790  220.4690 H   0  0  0  0  0  0  0  0  0  0  0  0
  1  2  1  0
  2  3  1  0
  3  4  1  0
  4  5  2  0
  4  6  1  0
  6  7  1  0
  7  8  1  0
  8  9  2  0
  8 10  1  0
 10 11  2  0
 11 12  1  0
 12 13  2  0
 13 14  1  0
 14 15  2  0
 15 16  1  0
 16 17  2  0
 17 18  1  0
 18 19  2  0
  2 20  1  0
 20 21  1  0
 20 22  2  0
 19 10  1  0
 18 13  1  0
  1 23  1  0
  1 24  1  0
  1 25  1  0
  2 26  1  6
  3 27  1  0
  6 28  1  0
  6 29  1  0
  7 30  1  0
 11 31  1  0
 12 32  1  0
 14 33  1  0
 15 34  1  0
 16 35  1  0
 17 36  1  0
 21 37  1  0
 21 38  1  0
M  END
>  <smiles>  (45) 
C[C@@H](NC(=O)CNC(=O)c1ccc2ccccc2n1)C(N)=O

>  <score_type>  (45) 
oracle

>  <origin>  (45) 
autodockgpu

>  <m_score__min__energy>  (45) 
-7.75

>  <m_primary>  (45) 
energy

>  <rmsd>  (45) 
3.2823607695570622

>  <m_score__min__rmsd>  (45) 
3.2823607695570622

>  <meeko>  (45) 
{"free_energy": -6.38, "intermolecular_energy": -7.87, "internal_energy": -2.28, "cluster_size": 17, "cluster_id": 2, "rank_in_cluster": 16}

>  <energy>  (45) 
-6.36

>  <cluster_rmsd>  (45) 
1.45

>  <cluster>  (45) 
3

$$$$

     RDKit          3D

 38 39  0  0  0  0  0  0  0  0999 V2000
  140.8890   79.4850  220.9040 C   0  0  0  0  0  0  0  0  0  0  0  0
  140.7940   78.4620  221.9940 C   0  0  1  0  0  0  0  0  0  0  0  0
  141.0760   77.1210  221.5340 N   0  0  0  0  0  0  0  0  0  0  0  0
  140.1190   76.0920  221.7450 C   0  0  0  0  0  0  0  0  0  0  0  0
  139.0300   76.3150  222.3220 O   0  0  0  0  0  0  0  0  0  0  0  0
  140.4020   74.7100  221.2730 C   0  0  0  0  0  0  0  0  0  0  0  0
  140.0970   73.7620  222.3180 N   0  0  0  0  0  0  0  0  0  0  0  0
  140.6570   72.4600  222.3660 C   0  0  0  0  0  0  0  0  0  0  0  0
  141.4650   72.0670  221.4770 O   0  0  0  0  0  0  0  0  0  0  0  0
  140.2950   71.5590  223.4630 C   0  0  0  0  0  0  0  0  0  0  0  0
  139.6040   70.3970  223.2340 C   0  0  0  0  0  0  0  0  0  0  0  0
  139.2760   69.5670  224.2920 C   0  0  0  0  0  0  0  0  0  0  0  0
  139.6540   69.9230  225.5770 C   0  0  0  0  0  0  0  0  0  0  0  0
  139.3460   69.1170  226.6730 C   0  0  0  0  0  0  0  0  0  0  0  0
  139.7170   69.4640  227.9580 C   0  0  0  0  0  0  0  0  0  0  0  0
  140.4130   70.6450  228.1310 C   0  0  0  0  0  0  0  0  0  0  0  0
  140.7230   71.4510  227.0510 C   0  0  0  0  0  0  0  0  0  0  0  0
  140.3400   71.0800  225.7870 C   0  0  0  0  0  0  0  0  0  0  0  0
  140.6460   71.8700  224.7410 N   0  0  0  0  0  0  0  0  0  0  0  0
  141.8160   78.8030  223.0210 C   0  0  0  0  0  0  0  0  0  0  0  0
  142.8780   79.7370  222.7550 N   0  0  0  0  0  0  0  0  0  0  0  0
  141.8150   78.3000  224.1730 O   0  0  0  0  0  0  0  0  0  0  0  0
  140.9820   80.4869  221.3485 H   0  0  0  0  0  0  0  0  0  0  0  0
  141.7717   79.2766  220.2815 H   0  0  0  0  0  0  0  0  0  0  0  0
  139.9831   79.4427  220.2815 H   0  0  0  0  0  0  0  0  0  0  0  0
  139.7647   78.4790  222.3817 H   0  0  0  0  0  0  0  0  0  0  0  0
  141.9920   76.9710  221.0570 H   0  0  0  0  0  0  0  0  0  0  0  0
  139.7826   74.4919  220.3905 H   0  0  0  0  0  0  0  0  0  0  0  0
  141.4668   74.6282  221.0092 H   0  0  0  0  0  0  0  0  0  0  0  0
  139.4280   74.0220  223.0970 H   0  0  0  0  0  0  0  0  0  0  0  0
  139.3104   70.1245  222.2095 H   0  0  0  0  0  0  0  0  0  0  0  0
  138.7208   68.6341  224.1147 H   0  0  0  0  0  0  0  0  0  0  0  0
  138.7930   68.1802  226.5100 H   0  0  0  0  0  0  0  0  0  0  0  0
  139.4665   68.8213  228.8149 H   0  0  0  0  0  0  0  0  0  0  0  0
  140.7247   70.9481  229.1414 H   0  0  0  0  0  0  0  0  0  0  0  0
  141.2764   72.3891  227.2053 H   0  0  0  0  0  0  0  0  0  0  0  0
  143.7720   79.3740  222.3480 H   0  0  0  0  0  0  0  0  0  0  0  0
  142.7160   80.7490  222.9800 H   0  0  0  0  0  0  0  0  0  0  0  0
  1  2  1  0
  2  3  1  0
  3  4  1  0
  4  5  2  0
  4  6  1  0
  6  7  1  0
  7  8  1  0
  8  9  2  0
  8 10  1  0
 10 11  2  0
 11 12  1  0
 12 13  2  0
 13 14  1  0
 14 15  2  0
 15 16  1  0
 16 17  2  0
 17 18  1  0
 18 19  2  0
  2 20  1  0
 20 21  1  0
 20 22  2  0
 19 10  1  0
 18 13  1  0
  1 23  1  0
  1 24  1  0
  1 25  1  0
  2 26  1  1
  3 27  1  0
  6 28  1  0
  6 29  1  0
  7 30  1  0
 11 31  1  0
 12 32  1  0
 14 33  1  0
 15 34  1  0
 16 35  1  0
 17 36  1  0
 21 37  1  0
 21 38  1  0
M  END
>  <smiles>  (46) 
C[C@@H](NC(=O)CNC(=O)c1ccc2ccccc2n1)C(N)=O

>  <score_type>  (46) 
oracle

>  <origin>  (46) 
autodockgpu

>  <m_score__min__energy>  (46) 
-7.75

>  <m_primary>  (46) 
energy

>  <rmsd>  (46) 
2.2254847765445143

>  <m_score__min__rmsd>  (46) 
2.2254847765445143

>  <meeko>  (46) 
{"free_energy": -7.43, "intermolecular_energy": -8.92, "internal_energy": -1.23, "cluster_size": 20, "cluster_id": 1, "rank_in_cluster": 5}

>  <energy>  (46) 
-6.35

>  <cluster_rmsd>  (46) 
1.36

>  <cluster>  (46) 
3

$$$$

     RDKit          3D

 38 39  0  0  0  0  0  0  0  0999 V2000
  143.6420   75.6590  219.3090 C   0  0  0  0  0  0  0  0  0  0  0  0
  143.5350   74.6950  220.4510 C   0  0  1  0  0  0  0  0  0  0  0  0
  142.2300   74.0840  220.5510 N   0  0  0  0  0  0  0  0  0  0  0  0
  141.1210   74.8630  220.9800 C   0  0  0  0  0  0  0  0  0  0  0  0
  141.2440   76.0740  221.2760 O   0  0  0  0  0  0  0  0  0  0  0  0
  139.7750   74.2400  221.0840 C   0  0  0  0  0  0  0  0  0  0  0  0
  139.7040   73.4180  222.2700 N   0  0  0  0  0  0  0  0  0  0  0  0
  140.3050   72.1370  222.3550 C   0  0  0  0  0  0  0  0  0  0  0  0
  140.9400   71.6490  221.3770 O   0  0  0  0  0  0  0  0  0  0  0  0
  140.1870   71.3660  223.5970 C   0  0  0  0  0  0  0  0  0  0  0  0
  139.6290   70.1140  223.6100 C   0  0  0  0  0  0  0  0  0  0  0  0
  139.5320   69.4130  224.8000 C   0  0  0  0  0  0  0  0  0  0  0  0
  140.0040   69.9890  225.9680 C   0  0  0  0  0  0  0  0  0  0  0  0
  139.9280   69.3190  227.1890 C   0  0  0  0  0  0  0  0  0  0  0  0
  140.3950   69.8850  228.3600 C   0  0  0  0  0  0  0  0  0  0  0  0
  140.9490   71.1500  228.2880 C   0  0  0  0  0  0  0  0  0  0  0  0
  141.0280   71.8210  227.0820 C   0  0  0  0  0  0  0  0  0  0  0  0
  140.5550   71.2340  225.9370 C   0  0  0  0  0  0  0  0  0  0  0  0
  140.6380   71.8940  224.7680 N   0  0  0  0  0  0  0  0  0  0  0  0
  144.5190   73.6040  220.2120 C   0  0  0  0  0  0  0  0  0  0  0  0
  145.9280   73.7870  220.4460 N   0  0  0  0  0  0  0  0  0  0  0  0
  144.1840   72.4670  219.7950 O   0  0  0  0  0  0  0  0  0  0  0  0
  143.7554   76.6805  219.7009 H   0  0  0  0  0  0  0  0  0  0  0  0
  144.5172   75.4030  218.6939 H   0  0  0  0  0  0  0  0  0  0  0  0
  142.7319   75.6012  218.6939 H   0  0  0  0  0  0  0  0  0  0  0  0
  143.7212   75.2531  221.3804 H   0  0  0  0  0  0  0  0  0  0  0  0
  142.1630   73.0730  220.2960 H   0  0  0  0  0  0  0  0  0  0  0  0
  139.0111   75.0294  221.1411 H   0  0  0  0  0  0  0  0  0  0  0  0
  139.5965   73.6133  220.1978 H   0  0  0  0  0  0  0  0  0  0  0  0
  139.1890   73.7620  223.1280 H   0  0  0  0  0  0  0  0  0  0  0  0
  139.2586   69.6667  222.6758 H   0  0  0  0  0  0  0  0  0  0  0  0
  139.0844   68.4083  224.8178 H   0  0  0  0  0  0  0  0  0  0  0  0
  139.4843   68.3129  227.2207 H   0  0  0  0  0  0  0  0  0  0  0  0
  140.3283   69.3473  229.3173 H   0  0  0  0  0  0  0  0  0  0  0  0
  141.3316   71.6282  229.2017 H   0  0  0  0  0  0  0  0  0  0  0  0
  141.4709   72.8271  227.0410 H   0  0  0  0  0  0  0  0  0  0  0  0
  146.5190   74.1510  219.6630 H   0  0  0  0  0  0  0  0  0  0  0  0
  146.3080   73.5470  221.3930 H   0  0  0  0  0  0  0  0  0  0  0  0
  1  2  1  0
  2  3  1  0
  3  4  1  0
  4  5  2  0
  4  6  1  0
  6  7  1  0
  7  8  1  0
  8  9  2  0
  8 10  1  0
 10 11  2  0
 11 12  1  0
 12 13  2  0
 13 14  1  0
 14 15  2  0
 15 16  1  0
 16 17  2  0
 17 18  1  0
 18 19  2  0
  2 20  1  0
 20 21  1  0
 20 22  2  0
 19 10  1  0
 18 13  1  0
  1 23  1  0
  1 24  1  0
  1 25  1  0
  2 26  1  1
  3 27  1  0
  6 28  1  0
  6 29  1  0
  7 30  1  0
 11 31  1  0
 12 32  1  0
 14 33  1  0
 15 34  1  0
 16 35  1  0
 17 36  1  0
 21 37  1  0
 21 38  1  0
M  END
>  <smiles>  (47) 
C[C@@H](NC(=O)CNC(=O)c1ccc2ccccc2n1)C(N)=O

>  <score_type>  (47) 
oracle

>  <origin>  (47) 
autodockgpu

>  <m_score__min__energy>  (47) 
-7.75

>  <m_primary>  (47) 
energy

>  <rmsd>  (47) 
2.848777478525228

>  <m_score__min__rmsd>  (47) 
2.848777478525228

>  <meeko>  (47) 
{"free_energy": -6.94, "intermolecular_energy": -8.43, "internal_energy": -2.35, "cluster_size": 17, "cluster_id": 2, "rank_in_cluster": 4}

>  <energy>  (47) 
-6.72

>  <cluster_rmsd>  (47) 
0.0

>  <cluster>  (47) 
4

$$$$

     RDKit          3D

 38 39  0  0  0  0  0  0  0  0999 V2000
  143.3880   75.4910  219.2980 C   0  0  0  0  0  0  0  0  0  0  0  0
  143.3410   74.6860  220.5610 C   0  0  1  0  0  0  0  0  0  0  0  0
  142.0680   74.0350  220.7650 N   0  0  0  0  0  0  0  0  0  0  0  0
  140.8750   74.8070  220.7540 C   0  0  0  0  0  0  0  0  0  0  0  0
  140.8960   76.0450  220.5700 O   0  0  0  0  0  0  0  0  0  0  0  0
  139.5610   74.1420  220.9640 C   0  0  0  0  0  0  0  0  0  0  0  0
  139.5940   73.3610  222.1780 N   0  0  0  0  0  0  0  0  0  0  0  0
  140.1130   72.0430  222.2320 C   0  0  0  0  0  0  0  0  0  0  0  0
  140.5790   71.4840  221.1990 O   0  0  0  0  0  0  0  0  0  0  0  0
  140.1100   71.3180  223.5060 C   0  0  0  0  0  0  0  0  0  0  0  0
  139.6560   70.0280  223.5920 C   0  0  0  0  0  0  0  0  0  0  0  0
  139.6660   69.3710  224.8110 C   0  0  0  0  0  0  0  0  0  0  0  0
  140.1390   70.0310  225.9340 C   0  0  0  0  0  0  0  0  0  0  0  0
  140.1680   69.4080  227.1820 C   0  0  0  0  0  0  0  0  0  0  0  0
  140.6360   70.0580  228.3080 C   0  0  0  0  0  0  0  0  0  0  0  0
  141.0830   71.3580  228.1640 C   0  0  0  0  0  0  0  0  0  0  0  0
  141.0570   71.9830  226.9310 C   0  0  0  0  0  0  0  0  0  0  0  0
  140.5860   71.3130  225.8310 C   0  0  0  0  0  0  0  0  0  0  0  0
  140.5650   71.9290  224.6350 N   0  0  0  0  0  0  0  0  0  0  0  0
  144.3730   73.6190  220.4520 C   0  0  0  0  0  0  0  0  0  0  0  0
  145.7810   73.9150  220.5050 N   0  0  0  0  0  0  0  0  0  0  0  0
  144.0820   72.4040  220.3080 O   0  0  0  0  0  0  0  0  0  0  0  0
  143.4504   76.5606  219.5470 H   0  0  0  0  0  0  0  0  0  0  0  0
  144.2706   75.1993  218.7099 H   0  0  0  0  0  0  0  0  0  0  0  0
  142.4774   75.3040  218.7099 H   0  0  0  0  0  0  0  0  0  0  0  0
  143.5115   75.3718  221.4040 H   0  0  0  0  0  0  0  0  0  0  0  0
  142.0860   73.0010  220.9160 H   0  0  0  0  0  0  0  0  0  0  0  0
  138.7739   74.9063  221.0433 H   0  0  0  0  0  0  0  0  0  0  0  0
  139.3506   73.4786  220.1122 H   0  0  0  0  0  0  0  0  0  0  0  0
  139.2210   73.7640  223.0830 H   0  0  0  0  0  0  0  0  0  0  0  0
  139.2838   69.5146  222.6932 H   0  0  0  0  0  0  0  0  0  0  0  0
  139.3022   68.3357  224.8871 H   0  0  0  0  0  0  0  0  0  0  0  0
  139.8089   68.3722  227.2720 H   0  0  0  0  0  0  0  0  0  0  0  0
  140.6523   69.5571  229.2872 H   0  0  0  0  0  0  0  0  0  0  0  0
  141.4640   71.9019  229.0410 H   0  0  0  0  0  0  0  0  0  0  0  0
  141.4145   73.0186  226.8322 H   0  0  0  0  0  0  0  0  0  0  0  0
  146.2770   74.1380  219.6100 H   0  0  0  0  0  0  0  0  0  0  0  0
  146.2570   73.8960  221.4380 H   0  0  0  0  0  0  0  0  0  0  0  0
  1  2  1  0
  2  3  1  0
  3  4  1  0
  4  5  2  0
  4  6  1  0
  6  7  1  0
  7  8  1  0
  8  9  2  0
  8 10  1  0
 10 11  2  0
 11 12  1  0
 12 13  2  0
 13 14  1  0
 14 15  2  0
 15 16  1  0
 16 17  2  0
 17 18  1  0
 18 19  2  0
  2 20  1  0
 20 21  1  0
 20 22  2  0
 19 10  1  0
 18 13  1  0
  1 23  1  0
  1 24  1  0
  1 25  1  0
  2 26  1  1
  3 27  1  0
  6 28  1  0
  6 29  1  0
  7 30  1  0
 11 31  1  0
 12 32  1  0
 14 33  1  0
 15 34  1  0
 16 35  1  0
 17 36  1  0
 21 37  1  0
 21 38  1  0
M  END
>  <smiles>  (48) 
C[C@@H](NC(=O)CNC(=O)c1ccc2ccccc2n1)C(N)=O

>  <score_type>  (48) 
oracle

>  <origin>  (48) 
autodockgpu

>  <m_score__min__energy>  (48) 
-7.75

>  <m_primary>  (48) 
energy

>  <rmsd>  (48) 
2.762084998770262

>  <m_score__min__rmsd>  (48) 
2.762084998770262

>  <meeko>  (48) 
{"free_energy": -6.67, "intermolecular_energy": -8.16, "internal_energy": -2.37, "cluster_size": 17, "cluster_id": 2, "rank_in_cluster": 9}

>  <energy>  (48) 
-6.59

>  <cluster_rmsd>  (48) 
0.32

>  <cluster>  (48) 
4

$$$$

     RDKit          3D

 38 39  0  0  0  0  0  0  0  0999 V2000
  143.3610   75.3050  219.1730 C   0  0  0  0  0  0  0  0  0  0  0  0
  143.3330   74.5670  220.4760 C   0  0  1  0  0  0  0  0  0  0  0  0
  142.1040   73.8360  220.6820 N   0  0  0  0  0  0  0  0  0  0  0  0
  140.9340   74.5300  221.0910 C   0  0  0  0  0  0  0  0  0  0  0  0
  140.9370   75.7680  221.2800 O   0  0  0  0  0  0  0  0  0  0  0  0
  139.6650   73.7830  221.3040 C   0  0  0  0  0  0  0  0  0  0  0  0
  139.7770   72.9520  222.4800 N   0  0  0  0  0  0  0  0  0  0  0  0
  139.6830   71.5380  222.4340 C   0  0  0  0  0  0  0  0  0  0  0  0
  139.4950   70.9330  221.3410 O   0  0  0  0  0  0  0  0  0  0  0  0
  139.8080   70.7670  223.6750 C   0  0  0  0  0  0  0  0  0  0  0  0
  139.4470   69.4450  223.7330 C   0  0  0  0  0  0  0  0  0  0  0  0
  139.5760   68.7450  224.9200 C   0  0  0  0  0  0  0  0  0  0  0  0
  140.0730   69.3930  226.0400 C   0  0  0  0  0  0  0  0  0  0  0  0
  140.2210   68.7270  227.2560 C   0  0  0  0  0  0  0  0  0  0  0  0
  140.7150   69.3630  228.3790 C   0  0  0  0  0  0  0  0  0  0  0  0
  141.0640   70.6960  228.2630 C   0  0  0  0  0  0  0  0  0  0  0  0
  140.9200   71.3640  227.0610 C   0  0  0  0  0  0  0  0  0  0  0  0
  140.4270   70.7050  225.9650 C   0  0  0  0  0  0  0  0  0  0  0  0
  140.2910   71.3630  224.7990 N   0  0  0  0  0  0  0  0  0  0  0  0
  144.4420   73.5750  220.4570 C   0  0  0  0  0  0  0  0  0  0  0  0
  145.8230   73.9800  220.4800 N   0  0  0  0  0  0  0  0  0  0  0  0
  144.2430   72.3350  220.4180 O   0  0  0  0  0  0  0  0  0  0  0  0
  143.4021   76.3873  219.3654 H   0  0  0  0  0  0  0  0  0  0  0  0
  144.2482   75.0008  218.5983 H   0  0  0  0  0  0  0  0  0  0  0  0
  142.4532   75.0689  218.5983 H   0  0  0  0  0  0  0  0  0  0  0  0
  143.4275   75.3084  221.2831 H   0  0  0  0  0  0  0  0  0  0  0  0
  142.1360   72.8050  220.5160 H   0  0  0  0  0  0  0  0  0  0  0  0
  138.8393   74.4971  221.4390 H   0  0  0  0  0  0  0  0  0  0  0  0
  139.4666   73.1476  220.4283 H   0  0  0  0  0  0  0  0  0  0  0  0
  139.9350   73.3890  223.4300 H   0  0  0  0  0  0  0  0  0  0  0  0
  139.0553   68.9415  222.8368 H   0  0  0  0  0  0  0  0  0  0  0  0
  139.2870   67.6850  224.9740 H   0  0  0  0  0  0  0  0  0  0  0  0
  139.9368   67.6665  227.3232 H   0  0  0  0  0  0  0  0  0  0  0  0
  140.8268   68.8270  229.3330 H   0  0  0  0  0  0  0  0  0  0  0  0
  141.4611   71.2316  229.1379 H   0  0  0  0  0  0  0  0  0  0  0  0
  141.2012   72.4247  226.9843 H   0  0  0  0  0  0  0  0  0  0  0  0
  146.3050   74.1620  219.5680 H   0  0  0  0  0  0  0  0  0  0  0  0
  146.2960   74.0760  221.4110 H   0  0  0  0  0  0  0  0  0  0  0  0
  1  2  1  0
  2  3  1  0
  3  4  1  0
  4  5  2  0
  4  6  1  0
  6  7  1  0
  7  8  1  0
  8  9  2  0
  8 10  1  0
 10 11  2  0
 11 12  1  0
 12 13  2  0
 13 14  1  0
 14 15  2  0
 15 16  1  0
 16 17  2  0
 17 18  1  0
 18 19  2  0
  2 20  1  0
 20 21  1  0
 20 22  2  0
 19 10  1  0
 18 13  1  0
  1 23  1  0
  1 24  1  0
  1 25  1  0
  2 26  1  1
  3 27  1  0
  6 28  1  0
  6 29  1  0
  7 30  1  0
 11 31  1  0
 12 32  1  0
 14 33  1  0
 15 34  1  0
 16 35  1  0
 17 36  1  0
 21 37  1  0
 21 38  1  0
M  END
>  <smiles>  (49) 
C[C@@H](NC(=O)CNC(=O)c1ccc2ccccc2n1)C(N)=O

>  <score_type>  (49) 
oracle

>  <origin>  (49) 
autodockgpu

>  <m_score__min__energy>  (49) 
-7.75

>  <m_primary>  (49) 
energy

>  <rmsd>  (49) 
2.710424862261114

>  <m_score__min__rmsd>  (49) 
2.710424862261114

>  <meeko>  (49) 
{"free_energy": -6.6, "intermolecular_energy": -8.09, "internal_energy": -1.91, "cluster_size": 17, "cluster_id": 2, "rank_in_cluster": 13}

>  <energy>  (49) 
-6.28

>  <cluster_rmsd>  (49) 
0.0

>  <cluster>  (49) 
5

$$$$

     RDKit          3D

 38 39  0  0  0  0  0  0  0  0999 V2000
  141.0770   76.6610  220.3770 C   0  0  0  0  0  0  0  0  0  0  0  0
  139.6010   76.6030  220.6230 C   0  0  1  0  0  0  0  0  0  0  0  0
  139.0650   75.2660  220.5130 N   0  0  0  0  0  0  0  0  0  0  0  0
  139.4810   74.2650  221.4320 C   0  0  0  0  0  0  0  0  0  0  0  0
  140.3050   74.5110  222.3420 O   0  0  0  0  0  0  0  0  0  0  0  0
  138.9320   72.8870  221.3240 C   0  0  0  0  0  0  0  0  0  0  0  0
  139.1960   72.1570  222.5430 N   0  0  0  0  0  0  0  0  0  0  0  0
  138.9840   70.7600  222.6650 C   0  0  0  0  0  0  0  0  0  0  0  0
  138.5470   70.0810  221.6930 O   0  0  0  0  0  0  0  0  0  0  0  0
  139.2780   70.0950  223.9380 C   0  0  0  0  0  0  0  0  0  0  0  0
  138.9680   68.7750  224.1410 C   0  0  0  0  0  0  0  0  0  0  0  0
  139.2570   68.1760  225.3550 C   0  0  0  0  0  0  0  0  0  0  0  0
  139.8620   68.9230  226.3540 C   0  0  0  0  0  0  0  0  0  0  0  0
  140.1730   68.3610  227.5920 C   0  0  0  0  0  0  0  0  0  0  0  0
  140.7750   69.0970  228.5950 C   0  0  0  0  0  0  0  0  0  0  0  0
  141.0660   70.4230  228.3340 C   0  0  0  0  0  0  0  0  0  0  0  0
  140.7610   70.9890  227.1100 C   0  0  0  0  0  0  0  0  0  0  0  0
  140.1630   70.2330  226.1350 C   0  0  0  0  0  0  0  0  0  0  0  0
  139.8710   70.7910  224.9460 N   0  0  0  0  0  0  0  0  0  0  0  0
  139.3590   77.0660  222.0160 C   0  0  0  0  0  0  0  0  0  0  0  0
  138.4230   76.4020  222.8850 N   0  0  0  0  0  0  0  0  0  0  0  0
  139.9510   78.0560  222.5160 O   0  0  0  0  0  0  0  0  0  0  0  0
  141.6086   76.6819  221.3398 H   0  0  0  0  0  0  0  0  0  0  0  0
  141.3886   75.7744  219.8053 H   0  0  0  0  0  0  0  0  0  0  0  0
  141.3180   77.5693  219.8053 H   0  0  0  0  0  0  0  0  0  0  0  0
  139.1087   77.2299  219.8650 H   0  0  0  0  0  0  0  0  0  0  0  0
  138.3800   75.0950  219.7420 H   0  0  0  0  0  0  0  0  0  0  0  0
  137.8459   72.9388  221.1575 H   0  0  0  0  0  0  0  0  0  0  0  0
  139.4126   72.3701  220.4803 H   0  0  0  0  0  0  0  0  0  0  0  0
  139.5640   72.6600  223.3980 H   0  0  0  0  0  0  0  0  0  0  0  0
  138.4900   68.1924  223.3397 H   0  0  0  0  0  0  0  0  0  0  0  0
  139.0091   67.1179  225.5254 H   0  0  0  0  0  0  0  0  0  0  0  0
  139.9327   67.3033  227.7751 H   0  0  0  0  0  0  0  0  0  0  0  0
  141.0144   68.6431  229.5680 H   0  0  0  0  0  0  0  0  0  0  0  0
  141.5467   71.0360  229.1106 H   0  0  0  0  0  0  0  0  0  0  0  0
  140.9981   72.0459  226.9184 H   0  0  0  0  0  0  0  0  0  0  0  0
  137.4240   76.7160  222.8740 H   0  0  0  0  0  0  0  0  0  0  0  0
  138.7770   75.6290  223.4980 H   0  0  0  0  0  0  0  0  0  0  0  0
  1  2  1  0
  2  3  1  0
  3  4  1  0
  4  5  2  0
  4  6  1  0
  6  7  1  0
  7  8  1  0
  8  9  2  0
  8 10  1  0
 10 11  2  0
 11 12  1  0
 12 13  2  0
 13 14  1  0
 14 15  2  0
 15 16  1  0
 16 17  2  0
 17 18  1  0
 18 19  2  0
  2 20  1  0
 20 21  1  0
 20 22  2  0
 19 10  1  0
 18 13  1  0
  1 23  1  0
  1 24  1  0
  1 25  1  0
  2 26  1  6
  3 27  1  0
  6 28  1  0
  6 29  1  0
  7 30  1  0
 11 31  1  0
 12 32  1  0
 14 33  1  0
 15 34  1  0
 16 35  1  0
 17 36  1  0
 21 37  1  0
 21 38  1  0
M  END
>  <smiles>  (50) 
C[C@@H](NC(=O)CNC(=O)c1ccc2ccccc2n1)C(N)=O

>  <score_type>  (50) 
oracle

>  <origin>  (50) 
autodockgpu

>  <m_score__min__energy>  (50) 
-7.75

>  <m_primary>  (50) 
energy

>  <rmsd>  (50) 
1.8074488942899607

>  <m_score__min__rmsd>  (50) 
1.8074488942899607

>  <meeko>  (50) 
{"free_energy": -6.35, "intermolecular_energy": -7.84, "internal_energy": -2.1, "cluster_size": 20, "cluster_id": 1, "rank_in_cluster": 17}

>  <energy>  (50) 
-6.24

>  <cluster_rmsd>  (50) 
1.56

>  <cluster>  (50) 
5

$$$$
