
     RDKit          3D

 66 70  0  0  0  0  0  0  0  0999 V2000
  132.1500   67.8820  226.0730 C   0  0  0  0  0  0  0  0  0  0  0  0
  133.2700   68.7520  226.1050 N   0  0  0  0  0  0  0  0  0  0  0  0
  134.3350   68.3790  225.2100 C   0  0  0  0  0  0  0  0  0  0  0  0
  135.5390   69.2740  225.3420 C   0  0  0  0  0  0  0  0  0  0  0  0
  135.1540   70.6810  225.3210 N   0  0  0  0  0  0  0  0  0  0  0  0
  135.6780   71.6160  224.4060 C   0  0  0  0  0  0  0  0  0  0  0  0
  135.0160   72.8140  224.1600 C   0  0  0  0  0  0  0  0  0  0  0  0
  135.5190   73.7440  223.2450 C   0  0  0  0  0  0  0  0  0  0  0  0
  136.6460   73.4650  222.6120 N   0  0  0  0  0  0  0  0  0  0  0  0
  137.3500   72.3260  222.7930 C   0  0  0  0  0  0  0  0  0  0  0  0
  138.5750   72.1380  222.0340 C   0  0  0  0  0  0  0  0  0  0  0  0
  139.3790   71.0990  222.1610 C   0  0  0  0  0  0  0  0  0  0  0  0
  139.5470   70.4630  223.4880 C   0  0  0  0  0  0  0  0  0  0  0  0
  139.9560   71.2300  224.5250 N   0  0  0  0  0  0  0  0  0  0  0  0
  140.1090   70.7420  225.7700 C   0  0  0  0  0  0  0  0  0  0  0  0
  140.5340   71.5720  226.8130 C   0  0  0  0  0  0  0  0  0  0  0  0
  140.6700   70.9950  228.0780 C   0  0  0  0  0  0  0  0  0  0  0  0
  140.4010   69.6620  228.3100 C   0  0  0  0  0  0  0  0  0  0  0  0
  139.9900   68.9060  227.2480 C   0  0  0  0  0  0  0  0  0  0  0  0
  139.8340   69.4070  225.9750 C   0  0  0  0  0  0  0  0  0  0  0  0
  139.4240   68.6660  224.8990 C   0  0  0  0  0  0  0  0  0  0  0  0
  139.1770   67.4380  225.1120 O   0  0  0  0  0  0  0  0  0  0  0  0
  139.2730   69.1600  223.6540 N   0  0  0  0  0  0  0  0  0  0  0  0
  138.8170   68.2860  222.6310 C   0  0  0  0  0  0  0  0  0  0  0  0
  137.3770   68.5870  222.2860 C   0  0  0  0  0  0  0  0  0  0  0  0
  136.4650   67.3970  222.2870 C   0  0  0  0  0  0  0  0  0  0  0  0
  135.0440   67.8560  222.1520 C   0  0  0  0  0  0  0  0  0  0  0  0
  134.9640   69.2810  221.7370 C   0  0  0  0  0  0  0  0  0  0  0  0
  135.8840   69.6530  220.5920 C   0  0  0  0  0  0  0  0  0  0  0  0
  137.3120   69.2480  220.9020 C   0  0  0  0  0  0  0  0  0  0  0  0
  136.8470   71.4220  223.6910 C   0  0  0  0  0  0  0  0  0  0  0  0
  134.1520   71.0430  226.3400 C   0  0  0  0  0  0  0  0  0  0  0  0
  132.9600   70.1450  226.0910 C   0  0  0  0  0  0  0  0  0  0  0  0
  131.8420   67.6428  227.1016 H   0  0  0  0  0  0  0  0  0  0  0  0
  131.3188   68.3736  225.5463 H   0  0  0  0  0  0  0  0  0  0  0  0
  132.4207   66.9550  225.5463 H   0  0  0  0  0  0  0  0  0  0  0  0
  134.6377   67.3453  225.4332 H   0  0  0  0  0  0  0  0  0  0  0  0
  133.9571   68.4765  224.1816 H   0  0  0  0  0  0  0  0  0  0  0  0
  136.0467   69.0549  226.2929 H   0  0  0  0  0  0  0  0  0  0  0  0
  136.2102   69.0833  224.4916 H   0  0  0  0  0  0  0  0  0  0  0  0
  134.0802   73.0339  224.6947 H   0  0  0  0  0  0  0  0  0  0  0  0
  134.9880   74.6885  223.0556 H   0  0  0  0  0  0  0  0  0  0  0  0
  138.8507   72.9138  221.3046 H   0  0  0  0  0  0  0  0  0  0  0  0
  139.9207   70.7080  221.2871 H   0  0  0  0  0  0  0  0  0  0  0  0
  140.7524   72.6367  226.6437 H   0  0  0  0  0  0  0  0  0  0  0  0
  141.0025   71.6243  228.9167 H   0  0  0  0  0  0  0  0  0  0  0  0
  140.5131   69.2237  229.3126 H   0  0  0  0  0  0  0  0  0  0  0  0
  139.7725   67.8414  227.4193 H   0  0  0  0  0  0  0  0  0  0  0  0
  139.4404   68.4203  221.7347 H   0  0  0  0  0  0  0  0  0  0  0  0
  138.8894   67.2484  222.9889 H   0  0  0  0  0  0  0  0  0  0  0  0
  137.0184   69.2540  223.0838 H   0  0  0  0  0  0  0  0  0  0  0  0
  136.7196   66.7392  221.4429 H   0  0  0  0  0  0  0  0  0  0  0  0
  136.5838   66.8449  223.2310 H   0  0  0  0  0  0  0  0  0  0  0  0
  134.5392   67.2358  221.3967 H   0  0  0  0  0  0  0  0  0  0  0  0
  134.5567   67.7566  223.1331 H   0  0  0  0  0  0  0  0  0  0  0  0
  133.9292   69.4919  221.4291 H   0  0  0  0  0  0  0  0  0  0  0  0
  135.2844   69.8783  222.6034 H   0  0  0  0  0  0  0  0  0  0  0  0
  135.5519   69.1370  219.6791 H   0  0  0  0  0  0  0  0  0  0  0  0
  135.8478   70.7429  220.4475 H   0  0  0  0  0  0  0  0  0  0  0  0
  137.6630   68.5360  220.1405 H   0  0  0  0  0  0  0  0  0  0  0  0
  137.9522   70.1425  220.8966 H   0  0  0  0  0  0  0  0  0  0  0  0
  137.4046   70.4877  223.8532 H   0  0  0  0  0  0  0  0  0  0  0  0
  134.5546   70.8725  227.3493 H   0  0  0  0  0  0  0  0  0  0  0  0
  133.8763   72.1058  226.2739 H   0  0  0  0  0  0  0  0  0  0  0  0
  132.2105   70.3405  226.8720 H   0  0  0  0  0  0  0  0  0  0  0  0
  132.5906   70.3788  225.0816 H   0  0  0  0  0  0  0  0  0  0  0  0
  1  2  1  0
  2  3  1  0
  3  4  1  0
  4  5  1  0
  5  6  1  0
  6  7  2  0
  7  8  1  0
  8  9  2  0
  9 10  1  0
 10 11  1  0
 11 12  2  0
 12 13  1  0
 13 14  2  0
 14 15  1  0
 15 16  2  0
 16 17  1  0
 17 18  2  0
 18 19  1  0
 19 20  2  0
 20 21  1  0
 21 22  2  0
 21 23  1  0
 23 24  1  0
 24 25  1  0
 25 26  1  0
 26 27  1  0
 27 28  1  0
 28 29  1  0
 29 30  1  0
 10 31  2  0
  5 32  1  0
 32 33  1  0
 33  2  1  0
 31  6  1  0
 23 13  1  0
 30 25  1  0
 20 15  1  0
  1 34  1  0
  1 35  1  0
  1 36  1  0
  3 37  1  0
  3 38  1  0
  4 39  1  0
  4 40  1  0
  7 41  1  0
  8 42  1  0
 11 43  1  0
 12 44  1  0
 16 45  1  0
 17 46  1  0
 18 47  1  0
 19 48  1  0
 24 49  1  0
 24 50  1  0
 25 51  1  0
 26 52  1  0
 26 53  1  0
 27 54  1  0
 27 55  1  0
 28 56  1  0
 28 57  1  0
 29 58  1  0
 29 59  1  0
 30 60  1  0
 30 61  1  0
 31 62  1  0
 32 63  1  0
 32 64  1  0
 33 65  1  0
 33 66  1  0
M  END
>  <smiles>  (1) 
CN1CCN(c2ccnc(/C=C/c3nc4ccccc4c(=O)n3CC3CCCCC3)c2)CC1

>  <score_type>  (1) 
oracle

>  <origin>  (1) 
autodockgpu

>  <m_score__min__energy>  (1) 
-8.8100000000000005

>  <m_primary>  (1) 
energy

>  <rmsd>  (1) 
11.689511467985794

>  <m_score__min__rmsd>  (1) 
11.689511467985794

>  <meeko>  (1) 
{"free_energy": -7.09, "intermolecular_energy": -8.88, "internal_energy": -3.02, "cluster_size": 8, "cluster_id": 7, "rank_in_cluster": 2}

>  <energy>  (1) 
-8.81

>  <cluster_rmsd>  (1) 
0.0

>  <cluster>  (1) 
1

$$$$

     RDKit          3D

 66 70  0  0  0  0  0  0  0  0999 V2000
  131.9010   74.7100  226.9570 C   0  0  0  0  0  0  0  0  0  0  0  0
  132.9520   73.7720  226.7920 N   0  0  0  0  0  0  0  0  0  0  0  0
  132.7360   72.5150  227.4630 C   0  0  0  0  0  0  0  0  0  0  0  0
  133.9130   71.5860  227.3390 C   0  0  0  0  0  0  0  0  0  0  0  0
  134.3720   71.4980  225.9560 N   0  0  0  0  0  0  0  0  0  0  0  0
  134.4820   70.2840  225.2500 C   0  0  0  0  0  0  0  0  0  0  0  0
  133.6180   69.2280  225.5170 C   0  0  0  0  0  0  0  0  0  0  0  0
  133.7240   68.0140  224.8310 C   0  0  0  0  0  0  0  0  0  0  0  0
  134.6700   67.8840  223.9150 N   0  0  0  0  0  0  0  0  0  0  0  0
  135.5480   68.8590  223.5960 C   0  0  0  0  0  0  0  0  0  0  0  0
  136.5430   68.5910  222.5700 C   0  0  0  0  0  0  0  0  0  0  0  0
  137.7900   68.2380  222.8140 C   0  0  0  0  0  0  0  0  0  0  0  0
  138.5720   68.9760  223.8340 C   0  0  0  0  0  0  0  0  0  0  0  0
  138.7350   68.4140  225.0540 N   0  0  0  0  0  0  0  0  0  0  0  0
  139.4510   69.0020  226.0310 C   0  0  0  0  0  0  0  0  0  0  0  0
  139.5950   68.3850  227.2780 C   0  0  0  0  0  0  0  0  0  0  0  0
  140.3520   69.0530  228.2420 C   0  0  0  0  0  0  0  0  0  0  0  0
  140.9450   70.2740  227.9940 C   0  0  0  0  0  0  0  0  0  0  0  0
  140.7660   70.8220  226.7550 C   0  0  0  0  0  0  0  0  0  0  0  0
  140.0330   70.2210  225.7570 C   0  0  0  0  0  0  0  0  0  0  0  0
  139.8420   70.7550  224.5100 C   0  0  0  0  0  0  0  0  0  0  0  0
  140.3880   71.8790  224.2810 O   0  0  0  0  0  0  0  0  0  0  0  0
  139.1240   70.1630  223.5360 N   0  0  0  0  0  0  0  0  0  0  0  0
  139.0250   70.8150  222.2770 C   0  0  0  0  0  0  0  0  0  0  0  0
  138.0360   71.9560  222.3530 C   0  0  0  0  0  0  0  0  0  0  0  0
  136.7260   71.7030  221.6690 C   0  0  0  0  0  0  0  0  0  0  0  0
  135.7670   72.8060  222.0050 C   0  0  0  0  0  0  0  0  0  0  0  0
  136.4580   73.9650  222.6260 C   0  0  0  0  0  0  0  0  0  0  0  0
  137.7260   74.3940  221.9140 C   0  0  0  0  0  0  0  0  0  0  0  0
  138.6660   73.2170  221.7460 C   0  0  0  0  0  0  0  0  0  0  0  0
  135.4340   70.0440  224.2740 C   0  0  0  0  0  0  0  0  0  0  0  0
  134.7020   72.8010  225.3510 C   0  0  0  0  0  0  0  0  0  0  0  0
  133.4500   73.6430  225.4610 C   0  0  0  0  0  0  0  0  0  0  0  0
  131.7193   74.8722  228.0297 H   0  0  0  0  0  0  0  0  0  0  0  0
  132.1823   75.6627  226.4846 H   0  0  0  0  0  0  0  0  0  0  0  0
  130.9863   74.3226  226.4846 H   0  0  0  0  0  0  0  0  0  0  0  0
  132.5525   72.7115  228.5296 H   0  0  0  0  0  0  0  0  0  0  0  0
  131.8729   72.0263  226.9874 H   0  0  0  0  0  0  0  0  0  0  0  0
  134.7345   71.9618  227.9666 H   0  0  0  0  0  0  0  0  0  0  0  0
  133.6018   70.5834  227.6674 H   0  0  0  0  0  0  0  0  0  0  0  0
  132.8368   69.3496  226.2818 H   0  0  0  0  0  0  0  0  0  0  0  0
  133.0352   67.1843  225.0484 H   0  0  0  0  0  0  0  0  0  0  0  0
  136.2345   68.6894  221.5187 H   0  0  0  0  0  0  0  0  0  0  0  0
  138.2465   67.4017  222.2643 H   0  0  0  0  0  0  0  0  0  0  0  0
  139.1298   67.4112  227.4908 H   0  0  0  0  0  0  0  0  0  0  0  0
  140.4800   68.5908  229.2320 H   0  0  0  0  0  0  0  0  0  0  0  0
  141.5394   70.7869  228.7645 H   0  0  0  0  0  0  0  0  0  0  0  0
  141.2327   71.7955  226.5440 H   0  0  0  0  0  0  0  0  0  0  0  0
  140.0122   71.2088  221.9937 H   0  0  0  0  0  0  0  0  0  0  0  0
  138.6783   70.0906  221.5253 H   0  0  0  0  0  0  0  0  0  0  0  0
  137.8096   72.0767  223.4227 H   0  0  0  0  0  0  0  0  0  0  0  0
  136.8807   71.6702  220.5804 H   0  0  0  0  0  0  0  0  0  0  0  0
  136.3137   70.7416  222.0091 H   0  0  0  0  0  0  0  0  0  0  0  0
  135.2702   73.1399  221.0821 H   0  0  0  0  0  0  0  0  0  0  0  0
  135.0353   72.4157  222.7277 H   0  0  0  0  0  0  0  0  0  0  0  0
  135.7623   74.8170  222.6327 H   0  0  0  0  0  0  0  0  0  0  0  0
  136.7574   73.6475  223.6357 H   0  0  0  0  0  0  0  0  0  0  0  0
  137.4666   74.7942  220.9228 H   0  0  0  0  0  0  0  0  0  0  0  0
  138.2275   75.1661  222.5159 H   0  0  0  0  0  0  0  0  0  0  0  0
  138.8553   73.0511  220.6752 H   0  0  0  0  0  0  0  0  0  0  0  0
  139.6134   73.4331  222.2615 H   0  0  0  0  0  0  0  0  0  0  0  0
  136.1397   70.8514  224.0287 H   0  0  0  0  0  0  0  0  0  0  0  0
  135.5309   73.2762  225.8961 H   0  0  0  0  0  0  0  0  0  0  0  0
  135.0207   72.6891  224.3041 H   0  0  0  0  0  0  0  0  0  0  0  0
  133.6749   74.6489  225.0769 H   0  0  0  0  0  0  0  0  0  0  0  0
  132.6702   73.1312  224.8778 H   0  0  0  0  0  0  0  0  0  0  0  0
  1  2  1  0
  2  3  1  0
  3  4  1  0
  4  5  1  0
  5  6  1  0
  6  7  2  0
  7  8  1  0
  8  9  2  0
  9 10  1  0
 10 11  1  0
 11 12  2  0
 12 13  1  0
 13 14  2  0
 14 15  1  0
 15 16  2  0
 16 17  1  0
 17 18  2  0
 18 19  1  0
 19 20  2  0
 20 21  1  0
 21 22  2  0
 21 23  1  0
 23 24  1  0
 24 25  1  0
 25 26  1  0
 26 27  1  0
 27 28  1  0
 28 29  1  0
 29 30  1  0
 10 31  2  0
  5 32  1  0
 32 33  1  0
 33  2  1  0
 31  6  1  0
 23 13  1  0
 30 25  1  0
 20 15  1  0
  1 34  1  0
  1 35  1  0
  1 36  1  0
  3 37  1  0
  3 38  1  0
  4 39  1  0
  4 40  1  0
  7 41  1  0
  8 42  1  0
 11 43  1  0
 12 44  1  0
 16 45  1  0
 17 46  1  0
 18 47  1  0
 19 48  1  0
 24 49  1  0
 24 50  1  0
 25 51  1  0
 26 52  1  0
 26 53  1  0
 27 54  1  0
 27 55  1  0
 28 56  1  0
 28 57  1  0
 29 58  1  0
 29 59  1  0
 30 60  1  0
 30 61  1  0
 31 62  1  0
 32 63  1  0
 32 64  1  0
 33 65  1  0
 33 66  1  0
M  END
>  <smiles>  (2) 
CN1CCN(c2ccnc(/C=C/c3nc4ccccc4c(=O)n3CC3CCCCC3)c2)CC1

>  <score_type>  (2) 
oracle

>  <origin>  (2) 
autodockgpu

>  <m_score__min__energy>  (2) 
-8.8100000000000005

>  <m_primary>  (2) 
energy

>  <rmsd>  (2) 
10.477014055386151

>  <m_score__min__rmsd>  (2) 
10.477014055386151

>  <meeko>  (2) 
{"free_energy": -8.02, "intermolecular_energy": -9.81, "internal_energy": -2.57, "cluster_size": 5, "cluster_id": 5, "rank_in_cluster": 2}

>  <energy>  (2) 
-8.79

>  <cluster_rmsd>  (2) 
0.36

>  <cluster>  (2) 
1

$$$$

     RDKit          3D

 66 70  0  0  0  0  0  0  0  0999 V2000
  132.1050   68.0110  226.0420 C   0  0  0  0  0  0  0  0  0  0  0  0
  133.2200   68.8890  226.0800 N   0  0  0  0  0  0  0  0  0  0  0  0
  134.3110   68.4970  225.2240 C   0  0  0  0  0  0  0  0  0  0  0  0
  135.5050   69.4030  225.3650 C   0  0  0  0  0  0  0  0  0  0  0  0
  135.1140   70.8070  225.2940 N   0  0  0  0  0  0  0  0  0  0  0  0
  135.6570   71.7190  224.3680 C   0  0  0  0  0  0  0  0  0  0  0  0
  135.0470   72.9470  224.1410 C   0  0  0  0  0  0  0  0  0  0  0  0
  135.5690   73.8560  223.2160 C   0  0  0  0  0  0  0  0  0  0  0  0
  136.6650   73.5260  222.5530 N   0  0  0  0  0  0  0  0  0  0  0  0
  137.3180   72.3550  222.7130 C   0  0  0  0  0  0  0  0  0  0  0  0
  138.5140   72.1110  221.9220 C   0  0  0  0  0  0  0  0  0  0  0  0
  139.6770   71.7430  222.4220 C   0  0  0  0  0  0  0  0  0  0  0  0
  139.7150   70.8870  223.6310 C   0  0  0  0  0  0  0  0  0  0  0  0
  139.9980   71.4630  224.8230 N   0  0  0  0  0  0  0  0  0  0  0  0
  140.0270   70.7670  225.9740 C   0  0  0  0  0  0  0  0  0  0  0  0
  140.3240   71.4030  227.1840 C   0  0  0  0  0  0  0  0  0  0  0  0
  140.3350   70.6170  228.3370 C   0  0  0  0  0  0  0  0  0  0  0  0
  140.0660   69.2650  228.3080 C   0  0  0  0  0  0  0  0  0  0  0  0
  139.7830   68.7040  227.0930 C   0  0  0  0  0  0  0  0  0  0  0  0
  139.7540   69.4170  225.9160 C   0  0  0  0  0  0  0  0  0  0  0  0
  139.4740   68.8730  224.6910 C   0  0  0  0  0  0  0  0  0  0  0  0
  139.2260   67.6280  224.6620 O   0  0  0  0  0  0  0  0  0  0  0  0
  139.4470   69.5750  223.5400 N   0  0  0  0  0  0  0  0  0  0  0  0
  139.1170   68.8910  222.3390 C   0  0  0  0  0  0  0  0  0  0  0  0
  137.6170   68.7940  222.1850 C   0  0  0  0  0  0  0  0  0  0  0  0
  137.0670   67.4000  222.2250 C   0  0  0  0  0  0  0  0  0  0  0  0
  135.5700   67.4560  222.2850 C   0  0  0  0  0  0  0  0  0  0  0  0
  135.0560   68.8130  221.9660 C   0  0  0  0  0  0  0  0  0  0  0  0
  135.6860   69.4500  220.7430 C   0  0  0  0  0  0  0  0  0  0  0  0
  137.1980   69.4440  220.8580 C   0  0  0  0  0  0  0  0  0  0  0  0
  136.7970   71.4730  223.6220 C   0  0  0  0  0  0  0  0  0  0  0  0
  134.0820   71.1910  226.2740 C   0  0  0  0  0  0  0  0  0  0  0  0
  132.9020   70.2790  226.0190 C   0  0  0  0  0  0  0  0  0  0  0  0
  131.7952   67.7671  227.0689 H   0  0  0  0  0  0  0  0  0  0  0  0
  131.2723   68.4985  225.5138 H   0  0  0  0  0  0  0  0  0  0  0  0
  132.3836   67.0872  225.5138 H   0  0  0  0  0  0  0  0  0  0  0  0
  134.6130   67.4716  225.4837 H   0  0  0  0  0  0  0  0  0  0  0  0
  133.9611   68.5627  224.1832 H   0  0  0  0  0  0  0  0  0  0  0  0
  135.9865   69.2134  226.3357 H   0  0  0  0  0  0  0  0  0  0  0  0
  136.2006   69.1932  224.5391 H   0  0  0  0  0  0  0  0  0  0  0  0
  134.1363   73.2086  224.6997 H   0  0  0  0  0  0  0  0  0  0  0  0
  135.0786   74.8253  223.0432 H   0  0  0  0  0  0  0  0  0  0  0  0
  138.4433   72.2425  220.8322 H   0  0  0  0  0  0  0  0  0  0  0  0
  140.6129   72.0692  221.9449 H   0  0  0  0  0  0  0  0  0  0  0  0
  140.5405   72.4807  227.2250 H   0  0  0  0  0  0  0  0  0  0  0  0
  140.5661   71.0922  229.3018 H   0  0  0  0  0  0  0  0  0  0  0  0
  140.0785   68.6605  229.2270 H   0  0  0  0  0  0  0  0  0  0  0  0
  139.5672   67.6261  227.0545 H   0  0  0  0  0  0  0  0  0  0  0  0
  139.5348   69.4401  221.4823 H   0  0  0  0  0  0  0  0  0  0  0  0
  139.5387   67.8758  222.3784 H   0  0  0  0  0  0  0  0  0  0  0  0
  137.1986   69.3185  223.0567 H   0  0  0  0  0  0  0  0  0  0  0  0
  137.3778   66.8569  221.3203 H   0  0  0  0  0  0  0  0  0  0  0  0
  137.4508   66.8793  223.1147 H   0  0  0  0  0  0  0  0  0  0  0  0
  135.1574   66.7393  221.5597 H   0  0  0  0  0  0  0  0  0  0  0  0
  135.2590   67.2044  223.3097 H   0  0  0  0  0  0  0  0  0  0  0  0
  133.9719   68.7389  221.7953 H   0  0  0  0  0  0  0  0  0  0  0  0
  135.3126   69.4550  222.8216 H   0  0  0  0  0  0  0  0  0  0  0  0
  135.3892   68.8846  219.8473 H   0  0  0  0  0  0  0  0  0  0  0  0
  135.3400   70.4914  220.6672 H   0  0  0  0  0  0  0  0  0  0  0  0
  137.6255   68.8729  220.0207 H   0  0  0  0  0  0  0  0  0  0  0  0
  137.5683   70.4794  220.8282 H   0  0  0  0  0  0  0  0  0  0  0  0
  137.3144   70.5133  223.7678 H   0  0  0  0  0  0  0  0  0  0  0  0
  134.4577   71.0520  227.2985 H   0  0  0  0  0  0  0  0  0  0  0  0
  133.8020   72.2496  226.1692 H   0  0  0  0  0  0  0  0  0  0  0  0
  132.1310   70.4911  226.7744 H   0  0  0  0  0  0  0  0  0  0  0  0
  132.5576   70.4825  224.9943 H   0  0  0  0  0  0  0  0  0  0  0  0
  1  2  1  0
  2  3  1  0
  3  4  1  0
  4  5  1  0
  5  6  1  0
  6  7  2  0
  7  8  1  0
  8  9  2  0
  9 10  1  0
 10 11  1  0
 11 12  2  0
 12 13  1  0
 13 14  2  0
 14 15  1  0
 15 16  2  0
 16 17  1  0
 17 18  2  0
 18 19  1  0
 19 20  2  0
 20 21  1  0
 21 22  2  0
 21 23  1  0
 23 24  1  0
 24 25  1  0
 25 26  1  0
 26 27  1  0
 27 28  1  0
 28 29  1  0
 29 30  1  0
 10 31  2  0
  5 32  1  0
 32 33  1  0
 33  2  1  0
 31  6  1  0
 23 13  1  0
 30 25  1  0
 20 15  1  0
  1 34  1  0
  1 35  1  0
  1 36  1  0
  3 37  1  0
  3 38  1  0
  4 39  1  0
  4 40  1  0
  7 41  1  0
  8 42  1  0
 11 43  1  0
 12 44  1  0
 16 45  1  0
 17 46  1  0
 18 47  1  0
 19 48  1  0
 24 49  1  0
 24 50  1  0
 25 51  1  0
 26 52  1  0
 26 53  1  0
 27 54  1  0
 27 55  1  0
 28 56  1  0
 28 57  1  0
 29 58  1  0
 29 59  1  0
 30 60  1  0
 30 61  1  0
 31 62  1  0
 32 63  1  0
 32 64  1  0
 33 65  1  0
 33 66  1  0
M  END
>  <smiles>  (3) 
CN1CCN(c2ccnc(/C=C/c3nc4ccccc4c(=O)n3CC3CCCCC3)c2)CC1

>  <score_type>  (3) 
oracle

>  <origin>  (3) 
autodockgpu

>  <m_score__min__energy>  (3) 
-8.8100000000000005

>  <m_primary>  (3) 
energy

>  <rmsd>  (3) 
11.74073636899537

>  <m_score__min__rmsd>  (3) 
11.74073636899537

>  <meeko>  (3) 
{"free_energy": -6.99, "intermolecular_energy": -8.78, "internal_energy": -3.13, "cluster_size": 8, "cluster_id": 7, "rank_in_cluster": 4}

>  <energy>  (3) 
-8.78

>  <cluster_rmsd>  (3) 
0.36

>  <cluster>  (3) 
1

$$$$

     RDKit          3D

 66 70  0  0  0  0  0  0  0  0999 V2000
  142.0610   81.0150  223.7500 C   0  0  0  0  0  0  0  0  0  0  0  0
  141.4070   80.0710  222.9170 N   0  0  0  0  0  0  0  0  0  0  0  0
  142.2000   79.6120  221.8060 C   0  0  0  0  0  0  0  0  0  0  0  0
  141.4370   78.6840  220.8980 C   0  0  0  0  0  0  0  0  0  0  0  0
  140.7510   77.6460  221.6620 N   0  0  0  0  0  0  0  0  0  0  0  0
  140.9330   76.2680  221.4360 C   0  0  0  0  0  0  0  0  0  0  0  0
  141.9400   75.8140  220.5930 C   0  0  0  0  0  0  0  0  0  0  0  0
  142.1230   74.4490  220.3510 C   0  0  0  0  0  0  0  0  0  0  0  0
  141.3140   73.5870  220.9430 N   0  0  0  0  0  0  0  0  0  0  0  0
  140.3110   73.9440  221.7750 C   0  0  0  0  0  0  0  0  0  0  0  0
  139.4900   72.8980  222.3630 C   0  0  0  0  0  0  0  0  0  0  0  0
  139.7900   71.6130  222.3430 C   0  0  0  0  0  0  0  0  0  0  0  0
  139.8940   70.8670  223.6190 C   0  0  0  0  0  0  0  0  0  0  0  0
  140.3960   71.5050  224.7020 N   0  0  0  0  0  0  0  0  0  0  0  0
  140.5020   70.9130  225.9060 C   0  0  0  0  0  0  0  0  0  0  0  0
  141.0260   71.6100  226.9990 C   0  0  0  0  0  0  0  0  0  0  0  0
  141.1040   70.9310  228.2160 C   0  0  0  0  0  0  0  0  0  0  0  0
  140.6860   69.6240  228.3570 C   0  0  0  0  0  0  0  0  0  0  0  0
  140.1830   68.9990  227.2500 C   0  0  0  0  0  0  0  0  0  0  0  0
  140.0760   69.6060  226.0190 C   0  0  0  0  0  0  0  0  0  0  0  0
  139.5760   68.9970  224.8980 C   0  0  0  0  0  0  0  0  0  0  0  0
  139.1900   67.7940  225.0280 O   0  0  0  0  0  0  0  0  0  0  0  0
  139.4730   69.5950  223.6950 N   0  0  0  0  0  0  0  0  0  0  0  0
  138.9120   68.8560  222.6190 C   0  0  0  0  0  0  0  0  0  0  0  0
  137.4240   69.1070  222.5280 C   0  0  0  0  0  0  0  0  0  0  0  0
  136.8160   69.7440  223.7410 C   0  0  0  0  0  0  0  0  0  0  0  0
  135.4010   70.1380  223.4410 C   0  0  0  0  0  0  0  0  0  0  0  0
  134.9100   69.5140  222.1850 C   0  0  0  0  0  0  0  0  0  0  0  0
  135.2190   68.0350  222.0590 C   0  0  0  0  0  0  0  0  0  0  0  0
  136.6990   67.7800  222.2600 C   0  0  0  0  0  0  0  0  0  0  0  0
  140.1420   75.2830  222.0040 C   0  0  0  0  0  0  0  0  0  0  0  0
  139.8520   78.1680  222.7080 C   0  0  0  0  0  0  0  0  0  0  0  0
  140.7120   79.0310  223.6050 C   0  0  0  0  0  0  0  0  0  0  0  0
  141.8833   80.7584  224.8048 H   0  0  0  0  0  0  0  0  0  0  0  0
  143.1417   80.9978  223.5455 H   0  0  0  0  0  0  0  0  0  0  0  0
  141.6651   82.0207  223.5455 H   0  0  0  0  0  0  0  0  0  0  0  0
  142.5289   80.4848  221.2228 H   0  0  0  0  0  0  0  0  0  0  0  0
  143.0550   79.0528  222.2138 H   0  0  0  0  0  0  0  0  0  0  0  0
  140.6930   79.2653  220.3335 H   0  0  0  0  0  0  0  0  0  0  0  0
  142.1502   78.2003  220.2143 H   0  0  0  0  0  0  0  0  0  0  0  0
  142.6058   76.5422  220.1068 H   0  0  0  0  0  0  0  0  0  0  0  0
  142.9233   74.0997  219.6821 H   0  0  0  0  0  0  0  0  0  0  0  0
  138.5549   73.1982  222.8584 H   0  0  0  0  0  0  0  0  0  0  0  0
  139.9617   71.0993  221.3856 H   0  0  0  0  0  0  0  0  0  0  0  0
  141.3635   72.6526  226.9035 H   0  0  0  0  0  0  0  0  0  0  0  0
  141.5126   71.4558  229.0922 H   0  0  0  0  0  0  0  0  0  0  0  0
  140.7548   69.1041  229.3239 H   0  0  0  0  0  0  0  0  0  0  0  0
  139.8461   67.9565  227.3481 H   0  0  0  0  0  0  0  0  0  0  0  0
  139.3902   69.1658  221.6781 H   0  0  0  0  0  0  0  0  0  0  0  0
  139.0834   67.7837  222.7944 H   0  0  0  0  0  0  0  0  0  0  0  0
  137.2976   69.8246  221.7039 H   0  0  0  0  0  0  0  0  0  0  0  0
  136.8283   69.0284  224.5763 H   0  0  0  0  0  0  0  0  0  0  0  0
  137.3955   70.6376  224.0159 H   0  0  0  0  0  0  0  0  0  0  0  0
  134.7577   69.8169  224.2735 H   0  0  0  0  0  0  0  0  0  0  0  0
  135.3690   71.2304  223.3158 H   0  0  0  0  0  0  0  0  0  0  0  0
  133.8184   69.6426  222.1406 H   0  0  0  0  0  0  0  0  0  0  0  0
  135.4344   70.0162  221.3587 H   0  0  0  0  0  0  0  0  0  0  0  0
  134.6501   67.4808  222.8201 H   0  0  0  0  0  0  0  0  0  0  0  0
  134.9349   67.6981  221.0511 H   0  0  0  0  0  0  0  0  0  0  0  0
  136.8403   67.1069  223.1184 H   0  0  0  0  0  0  0  0  0  0  0  0
  137.1140   67.3162  221.3530 H   0  0  0  0  0  0  0  0  0  0  0  0
  139.3308   75.5949  222.6783 H   0  0  0  0  0  0  0  0  0  0  0  0
  139.0484   78.7682  222.2565 H   0  0  0  0  0  0  0  0  0  0  0  0
  139.3736   77.3532  223.2713 H   0  0  0  0  0  0  0  0  0  0  0  0
  140.0647   79.4919  224.3657 H   0  0  0  0  0  0  0  0  0  0  0  0
  141.4767   78.3724  224.0425 H   0  0  0  0  0  0  0  0  0  0  0  0
  1  2  1  0
  2  3  1  0
  3  4  1  0
  4  5  1  0
  5  6  1  0
  6  7  2  0
  7  8  1  0
  8  9  2  0
  9 10  1  0
 10 11  1  0
 11 12  2  0
 12 13  1  0
 13 14  2  0
 14 15  1  0
 15 16  2  0
 16 17  1  0
 17 18  2  0
 18 19  1  0
 19 20  2  0
 20 21  1  0
 21 22  2  0
 21 23  1  0
 23 24  1  0
 24 25  1  0
 25 26  1  0
 26 27  1  0
 27 28  1  0
 28 29  1  0
 29 30  1  0
 10 31  2  0
  5 32  1  0
 32 33  1  0
 33  2  1  0
 31  6  1  0
 23 13  1  0
 30 25  1  0
 20 15  1  0
  1 34  1  0
  1 35  1  0
  1 36  1  0
  3 37  1  0
  3 38  1  0
  4 39  1  0
  4 40  1  0
  7 41  1  0
  8 42  1  0
 11 43  1  0
 12 44  1  0
 16 45  1  0
 17 46  1  0
 18 47  1  0
 19 48  1  0
 24 49  1  0
 24 50  1  0
 25 51  1  0
 26 52  1  0
 26 53  1  0
 27 54  1  0
 27 55  1  0
 28 56  1  0
 28 57  1  0
 29 58  1  0
 29 59  1  0
 30 60  1  0
 30 61  1  0
 31 62  1  0
 32 63  1  0
 32 64  1  0
 33 65  1  0
 33 66  1  0
M  END
>  <smiles>  (4) 
CN1CCN(c2ccnc(/C=C/c3nc4ccccc4c(=O)n3CC3CCCCC3)c2)CC1

>  <score_type>  (4) 
oracle

>  <origin>  (4) 
autodockgpu

>  <m_score__min__energy>  (4) 
-8.8100000000000005

>  <m_primary>  (4) 
energy

>  <rmsd>  (4) 
11.321029135126842

>  <m_score__min__rmsd>  (4) 
11.321029135126842

>  <meeko>  (4) 
{"free_energy": -8.77, "intermolecular_energy": -10.56, "internal_energy": -1.47, "cluster_size": 24, "cluster_id": 1, "rank_in_cluster": 4}

>  <energy>  (4) 
-8.77

>  <cluster_rmsd>  (4) 
0.55

>  <cluster>  (4) 
1

$$$$

     RDKit          3D

 66 70  0  0  0  0  0  0  0  0999 V2000
  132.1600   67.9450  226.0920 C   0  0  0  0  0  0  0  0  0  0  0  0
  133.2290   68.8790  226.0880 N   0  0  0  0  0  0  0  0  0  0  0  0
  134.3590   68.4830  225.2870 C   0  0  0  0  0  0  0  0  0  0  0  0
  135.5030   69.4560  225.3850 C   0  0  0  0  0  0  0  0  0  0  0  0
  135.0440   70.8300  225.2030 N   0  0  0  0  0  0  0  0  0  0  0  0
  135.5640   71.6990  224.2240 C   0  0  0  0  0  0  0  0  0  0  0  0
  134.7870   72.7290  223.7070 C   0  0  0  0  0  0  0  0  0  0  0  0
  135.2880   73.5910  222.7260 C   0  0  0  0  0  0  0  0  0  0  0  0
  136.5250   73.4100  222.2940 N   0  0  0  0  0  0  0  0  0  0  0  0
  137.3440   72.4350  222.7440 C   0  0  0  0  0  0  0  0  0  0  0  0
  138.6840   72.3410  222.1870 C   0  0  0  0  0  0  0  0  0  0  0  0
  139.4470   71.2660  222.2560 C   0  0  0  0  0  0  0  0  0  0  0  0
  139.5990   70.5620  223.5500 C   0  0  0  0  0  0  0  0  0  0  0  0
  140.0010   71.2720  224.6300 N   0  0  0  0  0  0  0  0  0  0  0  0
  140.1400   70.7180  225.8490 C   0  0  0  0  0  0  0  0  0  0  0  0
  140.5570   71.4900  226.9380 C   0  0  0  0  0  0  0  0  0  0  0  0
  140.6790   70.8480  228.1720 C   0  0  0  0  0  0  0  0  0  0  0  0
  140.4020   69.5050  228.3320 C   0  0  0  0  0  0  0  0  0  0  0  0
  139.9990   68.8080  227.2280 C   0  0  0  0  0  0  0  0  0  0  0  0
  139.8570   69.3750  225.9820 C   0  0  0  0  0  0  0  0  0  0  0  0
  139.4560   68.6930  224.8640 C   0  0  0  0  0  0  0  0  0  0  0  0
  139.2010   67.4570  225.0100 O   0  0  0  0  0  0  0  0  0  0  0  0
  139.3180   69.2520  223.6450 N   0  0  0  0  0  0  0  0  0  0  0  0
  138.8690   68.4350  222.5730 C   0  0  0  0  0  0  0  0  0  0  0  0
  137.3940   68.6530  222.3280 C   0  0  0  0  0  0  0  0  0  0  0  0
  136.5730   67.4000  222.2580 C   0  0  0  0  0  0  0  0  0  0  0  0
  135.1170   67.7580  222.2360 C   0  0  0  0  0  0  0  0  0  0  0  0
  134.9100   69.2040  221.9670 C   0  0  0  0  0  0  0  0  0  0  0  0
  135.7360   69.7530  220.8200 C   0  0  0  0  0  0  0  0  0  0  0  0
  137.2040   69.4330  221.0200 C   0  0  0  0  0  0  0  0  0  0  0  0
  136.8430   71.5970  223.7040 C   0  0  0  0  0  0  0  0  0  0  0  0
  133.9710   71.2300  226.1310 C   0  0  0  0  0  0  0  0  0  0  0  0
  132.8440   70.2430  225.9190 C   0  0  0  0  0  0  0  0  0  0  0  0
  131.8861   67.7057  227.1301 H   0  0  0  0  0  0  0  0  0  0  0  0
  131.2918   68.3791  225.5745 H   0  0  0  0  0  0  0  0  0  0  0  0
  132.4737   67.0264  225.5745 H   0  0  0  0  0  0  0  0  0  0  0  0
  134.7049   67.4961  225.6281 H   0  0  0  0  0  0  0  0  0  0  0  0
  134.0319   68.4557  224.2371 H   0  0  0  0  0  0  0  0  0  0  0  0
  135.9702   69.3620  226.3764 H   0  0  0  0  0  0  0  0  0  0  0  0
  136.2279   69.2227  224.5912 H   0  0  0  0  0  0  0  0  0  0  0  0
  133.7601   72.8687  224.0758 H   0  0  0  0  0  0  0  0  0  0  0  0
  134.6658   74.4031  222.3219 H   0  0  0  0  0  0  0  0  0  0  0  0
  139.0892   73.2254  221.6735 H   0  0  0  0  0  0  0  0  0  0  0  0
  139.9658   70.8960  221.3594 H   0  0  0  0  0  0  0  0  0  0  0  0
  140.7802   72.5614  226.8268 H   0  0  0  0  0  0  0  0  0  0  0  0
  141.0065   71.4314  229.0452 H   0  0  0  0  0  0  0  0  0  0  0  0
  140.5020   69.0145  229.3115 H   0  0  0  0  0  0  0  0  0  0  0  0
  139.7762   67.7368  227.3411 H   0  0  0  0  0  0  0  0  0  0  0  0
  139.4297   68.6915  221.6621 H   0  0  0  0  0  0  0  0  0  0  0  0
  139.0356   67.3795  222.8341 H   0  0  0  0  0  0  0  0  0  0  0  0
  137.0320   69.2129  223.2029 H   0  0  0  0  0  0  0  0  0  0  0  0
  136.8281   66.8449  221.3432 H   0  0  0  0  0  0  0  0  0  0  0  0
  136.7837   66.7736  223.1373 H   0  0  0  0  0  0  0  0  0  0  0  0
  134.6184   67.1741  221.4483 H   0  0  0  0  0  0  0  0  0  0  0  0
  134.6931   67.5294  223.2250 H   0  0  0  0  0  0  0  0  0  0  0  0
  133.8471   69.3613  221.7315 H   0  0  0  0  0  0  0  0  0  0  0  0
  135.2332   69.7406  222.8712 H   0  0  0  0  0  0  0  0  0  0  0  0
  135.3923   69.3008  219.8780 H   0  0  0  0  0  0  0  0  0  0  0  0
  135.6124   70.8455  220.7845 H   0  0  0  0  0  0  0  0  0  0  0  0
  137.5630   68.8246  220.1768 H   0  0  0  0  0  0  0  0  0  0  0  0
  137.7760   70.3712  221.0710 H   0  0  0  0  0  0  0  0  0  0  0  0
  137.4945   70.7963  224.0841 H   0  0  0  0  0  0  0  0  0  0  0  0
  134.3283   71.1842  227.1703 H   0  0  0  0  0  0  0  0  0  0  0  0
  133.6416   72.2627  225.9436 H   0  0  0  0  0  0  0  0  0  0  0  0
  132.0454   70.4692  226.6408 H   0  0  0  0  0  0  0  0  0  0  0  0
  132.5147   70.3544  224.8754 H   0  0  0  0  0  0  0  0  0  0  0  0
  1  2  1  0
  2  3  1  0
  3  4  1  0
  4  5  1  0
  5  6  1  0
  6  7  2  0
  7  8  1  0
  8  9  2  0
  9 10  1  0
 10 11  1  0
 11 12  2  0
 12 13  1  0
 13 14  2  0
 14 15  1  0
 15 16  2  0
 16 17  1  0
 17 18  2  0
 18 19  1  0
 19 20  2  0
 20 21  1  0
 21 22  2  0
 21 23  1  0
 23 24  1  0
 24 25  1  0
 25 26  1  0
 26 27  1  0
 27 28  1  0
 28 29  1  0
 29 30  1  0
 10 31  2  0
  5 32  1  0
 32 33  1  0
 33  2  1  0
 31  6  1  0
 23 13  1  0
 30 25  1  0
 20 15  1  0
  1 34  1  0
  1 35  1  0
  1 36  1  0
  3 37  1  0
  3 38  1  0
  4 39  1  0
  4 40  1  0
  7 41  1  0
  8 42  1  0
 11 43  1  0
 12 44  1  0
 16 45  1  0
 17 46  1  0
 18 47  1  0
 19 48  1  0
 24 49  1  0
 24 50  1  0
 25 51  1  0
 26 52  1  0
 26 53  1  0
 27 54  1  0
 27 55  1  0
 28 56  1  0
 28 57  1  0
 29 58  1  0
 29 59  1  0
 30 60  1  0
 30 61  1  0
 31 62  1  0
 32 63  1  0
 32 64  1  0
 33 65  1  0
 33 66  1  0
M  END
>  <smiles>  (5) 
CN1CCN(c2ccnc(/C=C/c3nc4ccccc4c(=O)n3CC3CCCCC3)c2)CC1

>  <score_type>  (5) 
oracle

>  <origin>  (5) 
autodockgpu

>  <m_score__min__energy>  (5) 
-8.8100000000000005

>  <m_primary>  (5) 
energy

>  <rmsd>  (5) 
11.744694822819783

>  <m_score__min__rmsd>  (5) 
11.744694822819783

>  <meeko>  (5) 
{"free_energy": -7.08, "intermolecular_energy": -8.87, "internal_energy": -3.2, "cluster_size": 8, "cluster_id": 7, "rank_in_cluster": 3}

>  <energy>  (5) 
-8.73

>  <cluster_rmsd>  (5) 
0.84

>  <cluster>  (5) 
1

$$$$

     RDKit          3D

 66 70  0  0  0  0  0  0  0  0999 V2000
  142.1190   80.5970  222.5920 C   0  0  0  0  0  0  0  0  0  0  0  0
  141.4550   79.4260  222.1440 N   0  0  0  0  0  0  0  0  0  0  0  0
  141.8210   79.0080  220.8150 C   0  0  0  0  0  0  0  0  0  0  0  0
  141.0270   77.8190  220.3460 C   0  0  0  0  0  0  0  0  0  0  0  0
  141.0030   76.7680  221.3590 N   0  0  0  0  0  0  0  0  0  0  0  0
  141.4300   75.4470  221.1180 C   0  0  0  0  0  0  0  0  0  0  0  0
  142.6080   75.1990  220.4230 C   0  0  0  0  0  0  0  0  0  0  0  0
  143.0360   73.8920  220.1660 C   0  0  0  0  0  0  0  0  0  0  0  0
  142.2950   72.8860  220.6000 N   0  0  0  0  0  0  0  0  0  0  0  0
  141.1390   73.0410  221.2820 C   0  0  0  0  0  0  0  0  0  0  0  0
  140.4160   71.8520  221.7030 C   0  0  0  0  0  0  0  0  0  0  0  0
  139.5100   71.8310  222.6620 C   0  0  0  0  0  0  0  0  0  0  0  0
  139.7210   70.9690  223.8480 C   0  0  0  0  0  0  0  0  0  0  0  0
  140.2870   71.5130  224.9510 N   0  0  0  0  0  0  0  0  0  0  0  0
  140.4910   70.8110  226.0800 C   0  0  0  0  0  0  0  0  0  0  0  0
  141.0800   71.4130  227.1970 C   0  0  0  0  0  0  0  0  0  0  0  0
  141.2600   70.6230  228.3340 C   0  0  0  0  0  0  0  0  0  0  0  0
  140.8790   69.2970  228.3750 C   0  0  0  0  0  0  0  0  0  0  0  0
  140.3090   68.7690  227.2500 C   0  0  0  0  0  0  0  0  0  0  0  0
  140.1010   69.4880  226.0950 C   0  0  0  0  0  0  0  0  0  0  0  0
  139.5330   68.9770  224.9580 C   0  0  0  0  0  0  0  0  0  0  0  0
  139.1820   67.7560  224.9950 O   0  0  0  0  0  0  0  0  0  0  0  0
  139.3310   69.6840  223.8290 N   0  0  0  0  0  0  0  0  0  0  0  0
  138.7090   69.0370  222.7280 C   0  0  0  0  0  0  0  0  0  0  0  0
  137.2130   69.2470  222.7720 C   0  0  0  0  0  0  0  0  0  0  0  0
  136.6660   69.6140  224.1190 C   0  0  0  0  0  0  0  0  0  0  0  0
  135.2260   70.0070  223.9830 C   0  0  0  0  0  0  0  0  0  0  0  0
  134.6730   69.6220  222.6590 C   0  0  0  0  0  0  0  0  0  0  0  0
  135.0090   68.2080  222.2270 C   0  0  0  0  0  0  0  0  0  0  0  0
  136.5050   67.9730  222.2900 C   0  0  0  0  0  0  0  0  0  0  0  0
  140.7300   74.3250  221.5260 C   0  0  0  0  0  0  0  0  0  0  0  0
  140.5010   77.2130  222.6710 C   0  0  0  0  0  0  0  0  0  0  0  0
  141.3930   78.3610  223.0920 C   0  0  0  0  0  0  0  0  0  0  0  0
  142.1291   80.6148  223.6918 H   0  0  0  0  0  0  0  0  0  0  0  0
  143.1527   80.5991  222.2158 H   0  0  0  0  0  0  0  0  0  0  0  0
  141.5901   81.4851  222.2158 H   0  0  0  0  0  0  0  0  0  0  0  0
  141.6470   79.8441  220.1217 H   0  0  0  0  0  0  0  0  0  0  0  0
  142.8809   78.7147  220.8368 H   0  0  0  0  0  0  0  0  0  0  0  0
  139.9955   78.1371  220.1344 H   0  0  0  0  0  0  0  0  0  0  0  0
  141.5027   77.4180  219.4389 H   0  0  0  0  0  0  0  0  0  0  0  0
  143.2146   76.0455  220.0687 H   0  0  0  0  0  0  0  0  0  0  0  0
  143.9692   73.7050  219.6145 H   0  0  0  0  0  0  0  0  0  0  0  0
  140.6393   70.9063  221.1874 H   0  0  0  0  0  0  0  0  0  0  0  0
  138.6040   72.4495  222.5813 H   0  0  0  0  0  0  0  0  0  0  0  0
  141.3895   72.4684  227.1802 H   0  0  0  0  0  0  0  0  0  0  0  0
  141.7205   71.0720  229.2263 H   0  0  0  0  0  0  0  0  0  0  0  0
  141.0283   68.6880  229.2788 H   0  0  0  0  0  0  0  0  0  0  0  0
  140.0002   67.7134  227.2690 H   0  0  0  0  0  0  0  0  0  0  0  0
  139.1064   69.4537  221.7907 H   0  0  0  0  0  0  0  0  0  0  0  0
  138.9203   67.9588  222.7810 H   0  0  0  0  0  0  0  0  0  0  0  0
  137.0185   70.1062  222.1132 H   0  0  0  0  0  0  0  0  0  0  0  0
  136.7482   68.7508  224.7958 H   0  0  0  0  0  0  0  0  0  0  0  0
  137.2393   70.4580  224.5302 H   0  0  0  0  0  0  0  0  0  0  0  0
  134.6442   69.5068  224.7712 H   0  0  0  0  0  0  0  0  0  0  0  0
  135.1592   71.1009  224.0770 H   0  0  0  0  0  0  0  0  0  0  0  0
  133.5780   69.7174  222.7026 H   0  0  0  0  0  0  0  0  0  0  0  0
  135.1329   70.2939  221.9193 H   0  0  0  0  0  0  0  0  0  0  0  0
  134.5026   67.4958  222.8951 H   0  0  0  0  0  0  0  0  0  0  0  0
  134.6704   68.0636  221.1904 H   0  0  0  0  0  0  0  0  0  0  0  0
  136.7162   67.1511  222.9899 H   0  0  0  0  0  0  0  0  0  0  0  0
  136.8734   67.7107  221.2873 H   0  0  0  0  0  0  0  0  0  0  0  0
  139.7904   74.4732  222.0784 H   0  0  0  0  0  0  0  0  0  0  0  0
  139.4576   77.5509  222.5863 H   0  0  0  0  0  0  0  0  0  0  0  0
  140.5208   76.3965  223.4078 H   0  0  0  0  0  0  0  0  0  0  0  0
  141.0119   78.7649  224.0415 H   0  0  0  0  0  0  0  0  0  0  0  0
  142.4117   77.9558  223.1824 H   0  0  0  0  0  0  0  0  0  0  0  0
  1  2  1  0
  2  3  1  0
  3  4  1  0
  4  5  1  0
  5  6  1  0
  6  7  2  0
  7  8  1  0
  8  9  2  0
  9 10  1  0
 10 11  1  0
 11 12  2  0
 12 13  1  0
 13 14  2  0
 14 15  1  0
 15 16  2  0
 16 17  1  0
 17 18  2  0
 18 19  1  0
 19 20  2  0
 20 21  1  0
 21 22  2  0
 21 23  1  0
 23 24  1  0
 24 25  1  0
 25 26  1  0
 26 27  1  0
 27 28  1  0
 28 29  1  0
 29 30  1  0
 10 31  2  0
  5 32  1  0
 32 33  1  0
 33  2  1  0
 31  6  1  0
 23 13  1  0
 30 25  1  0
 20 15  1  0
  1 34  1  0
  1 35  1  0
  1 36  1  0
  3 37  1  0
  3 38  1  0
  4 39  1  0
  4 40  1  0
  7 41  1  0
  8 42  1  0
 11 43  1  0
 12 44  1  0
 16 45  1  0
 17 46  1  0
 18 47  1  0
 19 48  1  0
 24 49  1  0
 24 50  1  0
 25 51  1  0
 26 52  1  0
 26 53  1  0
 27 54  1  0
 27 55  1  0
 28 56  1  0
 28 57  1  0
 29 58  1  0
 29 59  1  0
 30 60  1  0
 30 61  1  0
 31 62  1  0
 32 63  1  0
 32 64  1  0
 33 65  1  0
 33 66  1  0
M  END
>  <smiles>  (6) 
CN1CCN(c2ccnc(/C=C/c3nc4ccccc4c(=O)n3CC3CCCCC3)c2)CC1

>  <score_type>  (6) 
oracle

>  <origin>  (6) 
autodockgpu

>  <m_score__min__energy>  (6) 
-8.8100000000000005

>  <m_primary>  (6) 
energy

>  <rmsd>  (6) 
11.563323614717513

>  <m_score__min__rmsd>  (6) 
11.563323614717513

>  <meeko>  (6) 
{"free_energy": -8.67, "intermolecular_energy": -10.46, "internal_energy": -1.44, "cluster_size": 24, "cluster_id": 1, "rank_in_cluster": 7}

>  <energy>  (6) 
-8.72

>  <cluster_rmsd>  (6) 
1.33

>  <cluster>  (6) 
1

$$$$

     RDKit          3D

 66 70  0  0  0  0  0  0  0  0999 V2000
  141.0490   68.2280  228.2180 C   0  0  0  0  0  0  0  0  0  0  0  0
  140.3700   69.1280  227.3550 N   0  0  0  0  0  0  0  0  0  0  0  0
  141.1120   70.3220  227.0430 C   0  0  0  0  0  0  0  0  0  0  0  0
  140.3210   71.2880  226.2020 C   0  0  0  0  0  0  0  0  0  0  0  0
  139.6970   70.6130  225.0690 N   0  0  0  0  0  0  0  0  0  0  0  0
  139.8940   71.0000  223.7290 C   0  0  0  0  0  0  0  0  0  0  0  0
  139.7160   70.0890  222.6950 C   0  0  0  0  0  0  0  0  0  0  0  0
  139.9200   70.4590  221.3610 C   0  0  0  0  0  0  0  0  0  0  0  0
  140.2880   71.7020  221.0970 N   0  0  0  0  0  0  0  0  0  0  0  0
  140.4820   72.6460  222.0420 C   0  0  0  0  0  0  0  0  0  0  0  0
  140.8870   73.9780  221.6210 C   0  0  0  0  0  0  0  0  0  0  0  0
  140.0940   75.0320  221.6140 C   0  0  0  0  0  0  0  0  0  0  0  0
  140.6830   76.3900  221.5680 C   0  0  0  0  0  0  0  0  0  0  0  0
  140.8050   77.0820  222.7240 N   0  0  0  0  0  0  0  0  0  0  0  0
  141.3530   78.3110  222.7780 C   0  0  0  0  0  0  0  0  0  0  0  0
  141.4590   78.9900  223.9960 C   0  0  0  0  0  0  0  0  0  0  0  0
  142.0390   80.2600  223.9750 C   0  0  0  0  0  0  0  0  0  0  0  0
  142.4960   80.8400  222.8090 C   0  0  0  0  0  0  0  0  0  0  0  0
  142.3630   80.1230  221.6530 C   0  0  0  0  0  0  0  0  0  0  0  0
  141.8020   78.8670  221.5990 C   0  0  0  0  0  0  0  0  0  0  0  0
  141.6590   78.1330  220.4510 C   0  0  0  0  0  0  0  0  0  0  0  0
  142.0800   78.6660  219.3780 O   0  0  0  0  0  0  0  0  0  0  0  0
  141.1090   76.9040  220.4020 N   0  0  0  0  0  0  0  0  0  0  0  0
  141.0430   76.2420  219.1470 C   0  0  0  0  0  0  0  0  0  0  0  0
  142.2610   75.3690  218.9500 C   0  0  0  0  0  0  0  0  0  0  0  0
  143.2680   75.4280  220.0590 C   0  0  0  0  0  0  0  0  0  0  0  0
  144.3030   74.3640  219.8500 C   0  0  0  0  0  0  0  0  0  0  0  0
  144.2330   73.7870  218.4830 C   0  0  0  0  0  0  0  0  0  0  0  0
  144.1170   74.8150  217.3740 C   0  0  0  0  0  0  0  0  0  0  0  0
  142.9580   75.7560  217.6380 C   0  0  0  0  0  0  0  0  0  0  0  0
  140.2790   72.2730  223.3440 C   0  0  0  0  0  0  0  0  0  0  0  0
  138.8450   69.4710  225.4490 C   0  0  0  0  0  0  0  0  0  0  0  0
  139.7330   68.5270  226.2290 C   0  0  0  0  0  0  0  0  0  0  0  0
  140.8447   68.4988  229.2644 H   0  0  0  0  0  0  0  0  0  0  0  0
  140.6972   67.2030  228.0291 H   0  0  0  0  0  0  0  0  0  0  0  0
  142.1312   68.2849  228.0291 H   0  0  0  0  0  0  0  0  0  0  0  0
  141.3916   70.8196  227.9833 H   0  0  0  0  0  0  0  0  0  0  0  0
  141.9988   70.0233  226.4648 H   0  0  0  0  0  0  0  0  0  0  0  0
  139.5370   71.7458  226.8231 H   0  0  0  0  0  0  0  0  0  0  0  0
  141.0072   72.0558  225.8151 H   0  0  0  0  0  0  0  0  0  0  0  0
  139.4094   69.0589  222.9292 H   0  0  0  0  0  0  0  0  0  0  0  0
  139.7773   69.7313  220.5485 H   0  0  0  0  0  0  0  0  0  0  0  0
  141.9255   74.1158  221.2855 H   0  0  0  0  0  0  0  0  0  0  0  0
  139.0019   74.9031  221.6422 H   0  0  0  0  0  0  0  0  0  0  0  0
  141.0996   78.5412  224.9338 H   0  0  0  0  0  0  0  0  0  0  0  0
  142.1348   80.8166  224.9189 H   0  0  0  0  0  0  0  0  0  0  0  0
  142.9503   81.8418  222.8100 H   0  0  0  0  0  0  0  0  0  0  0  0
  142.7233   80.5733  220.7163 H   0  0  0  0  0  0  0  0  0  0  0  0
  140.1389   75.6164  219.1138 H   0  0  0  0  0  0  0  0  0  0  0  0
  141.0094   76.9954  218.3463 H   0  0  0  0  0  0  0  0  0  0  0  0
  141.8811   74.3369  218.9316 H   0  0  0  0  0  0  0  0  0  0  0  0
  143.7526   76.4155  220.0624 H   0  0  0  0  0  0  0  0  0  0  0  0
  142.7630   75.2646  221.0225 H   0  0  0  0  0  0  0  0  0  0  0  0
  145.3003   74.8030  220.0005 H   0  0  0  0  0  0  0  0  0  0  0  0
  144.1134   73.5562  220.5721 H   0  0  0  0  0  0  0  0  0  0  0  0
  145.1456   73.1973  218.3114 H   0  0  0  0  0  0  0  0  0  0  0  0
  143.3165   73.1798  218.4452 H   0  0  0  0  0  0  0  0  0  0  0  0
  145.0495   75.3960  217.3206 H   0  0  0  0  0  0  0  0  0  0  0  0
  143.9397   74.2920  216.4227 H   0  0  0  0  0  0  0  0  0  0  0  0
  143.3348   76.7866  217.7151 H   0  0  0  0  0  0  0  0  0  0  0  0
  142.2374   75.6853  216.8099 H   0  0  0  0  0  0  0  0  0  0  0  0
  140.4306   73.0283  224.1292 H   0  0  0  0  0  0  0  0  0  0  0  0
  138.0069   69.8115  226.0748 H   0  0  0  0  0  0  0  0  0  0  0  0
  138.4140   68.9791  224.5645 H   0  0  0  0  0  0  0  0  0  0  0  0
  139.1171   67.6886  226.5865 H   0  0  0  0  0  0  0  0  0  0  0  0
  140.5322   68.2038  225.5458 H   0  0  0  0  0  0  0  0  0  0  0  0
  1  2  1  0
  2  3  1  0
  3  4  1  0
  4  5  1  0
  5  6  1  0
  6  7  2  0
  7  8  1  0
  8  9  2  0
  9 10  1  0
 10 11  1  0
 11 12  2  0
 12 13  1  0
 13 14  2  0
 14 15  1  0
 15 16  2  0
 16 17  1  0
 17 18  2  0
 18 19  1  0
 19 20  2  0
 20 21  1  0
 21 22  2  0
 21 23  1  0
 23 24  1  0
 24 25  1  0
 25 26  1  0
 26 27  1  0
 27 28  1  0
 28 29  1  0
 29 30  1  0
 10 31  2  0
  5 32  1  0
 32 33  1  0
 33  2  1  0
 31  6  1  0
 23 13  1  0
 30 25  1  0
 20 15  1  0
  1 34  1  0
  1 35  1  0
  1 36  1  0
  3 37  1  0
  3 38  1  0
  4 39  1  0
  4 40  1  0
  7 41  1  0
  8 42  1  0
 11 43  1  0
 12 44  1  0
 16 45  1  0
 17 46  1  0
 18 47  1  0
 19 48  1  0
 24 49  1  0
 24 50  1  0
 25 51  1  0
 26 52  1  0
 26 53  1  0
 27 54  1  0
 27 55  1  0
 28 56  1  0
 28 57  1  0
 29 58  1  0
 29 59  1  0
 30 60  1  0
 30 61  1  0
 31 62  1  0
 32 63  1  0
 32 64  1  0
 33 65  1  0
 33 66  1  0
M  END
>  <smiles>  (7) 
CN1CCN(c2ccnc(/C=C/c3nc4ccccc4c(=O)n3CC3CCCCC3)c2)CC1

>  <score_type>  (7) 
oracle

>  <origin>  (7) 
autodockgpu

>  <m_score__min__energy>  (7) 
-8.8100000000000005

>  <m_primary>  (7) 
energy

>  <rmsd>  (7) 
4.087620468575334

>  <m_score__min__rmsd>  (7) 
4.087620468575334

>  <meeko>  (7) 
{"free_energy": -8.4, "intermolecular_energy": -10.19, "internal_energy": -1.59, "cluster_size": 2, "cluster_id": 4, "rank_in_cluster": 1}

>  <energy>  (7) 
-8.67

>  <cluster_rmsd>  (7) 
0.8

>  <cluster>  (7) 
1

$$$$

     RDKit          3D

 66 70  0  0  0  0  0  0  0  0999 V2000
  139.8300   69.7710  228.3570 C   0  0  0  0  0  0  0  0  0  0  0  0
  140.1250   69.7780  226.9690 N   0  0  0  0  0  0  0  0  0  0  0  0
  139.2090   69.0110  226.1640 C   0  0  0  0  0  0  0  0  0  0  0  0
  139.6110   68.9700  224.7150 C   0  0  0  0  0  0  0  0  0  0  0  0
  139.9290   70.3050  224.2180 N   0  0  0  0  0  0  0  0  0  0  0  0
  139.3010   70.8880  223.0990 C   0  0  0  0  0  0  0  0  0  0  0  0
  138.7360   70.0920  222.1100 C   0  0  0  0  0  0  0  0  0  0  0  0
  138.1210   70.6590  220.9880 C   0  0  0  0  0  0  0  0  0  0  0  0
  138.0840   71.9770  220.8840 N   0  0  0  0  0  0  0  0  0  0  0  0
  138.6090   72.8200  221.7990 C   0  0  0  0  0  0  0  0  0  0  0  0
  138.5050   74.2510  221.5670 C   0  0  0  0  0  0  0  0  0  0  0  0
  139.4460   75.1260  221.8670 C   0  0  0  0  0  0  0  0  0  0  0  0
  140.7960   74.9790  221.2760 C   0  0  0  0  0  0  0  0  0  0  0  0
  141.3940   73.7650  221.3220 N   0  0  0  0  0  0  0  0  0  0  0  0
  142.6070   73.5350  220.7870 C   0  0  0  0  0  0  0  0  0  0  0  0
  143.1870   72.2640  220.8580 C   0  0  0  0  0  0  0  0  0  0  0  0
  144.4470   72.1000  220.2800 C   0  0  0  0  0  0  0  0  0  0  0  0
  145.1110   73.1380  219.6580 C   0  0  0  0  0  0  0  0  0  0  0  0
  144.4890   74.3550  219.6230 C   0  0  0  0  0  0  0  0  0  0  0  0
  143.2490   74.5890  220.1720 C   0  0  0  0  0  0  0  0  0  0  0  0
  142.6100   75.8000  220.1470 C   0  0  0  0  0  0  0  0  0  0  0  0
  143.2200   76.7560  219.5750 O   0  0  0  0  0  0  0  0  0  0  0  0
  141.3950   76.0260  220.6850 N   0  0  0  0  0  0  0  0  0  0  0  0
  140.8340   77.3260  220.5690 C   0  0  0  0  0  0  0  0  0  0  0  0
  141.4940   78.2720  221.5460 C   0  0  0  0  0  0  0  0  0  0  0  0
  140.9170   78.2550  222.9290 C   0  0  0  0  0  0  0  0  0  0  0  0
  141.7900   79.0590  223.8450 C   0  0  0  0  0  0  0  0  0  0  0  0
  142.7640   79.8880  223.0890 C   0  0  0  0  0  0  0  0  0  0  0  0
  142.1670   80.6470  221.9200 C   0  0  0  0  0  0  0  0  0  0  0  0
  141.4130   79.7050  221.0020 C   0  0  0  0  0  0  0  0  0  0  0  0
  139.2100   72.2540  222.8920 C   0  0  0  0  0  0  0  0  0  0  0  0
  140.9650   71.0030  225.0000 C   0  0  0  0  0  0  0  0  0  0  0  0
  140.4510   71.0550  226.4220 C   0  0  0  0  0  0  0  0  0  0  0  0
  140.7679   69.7932  228.9313 H   0  0  0  0  0  0  0  0  0  0  0  0
  139.2254   70.6551  228.6078 H   0  0  0  0  0  0  0  0  0  0  0  0
  139.2680   68.8593  228.6078 H   0  0  0  0  0  0  0  0  0  0  0  0
  139.1766   67.9816  226.5504 H   0  0  0  0  0  0  0  0  0  0  0  0
  138.2238   69.4967  226.2240 H   0  0  0  0  0  0  0  0  0  0  0  0
  140.4963   68.3262  224.6062 H   0  0  0  0  0  0  0  0  0  0  0  0
  138.7683   68.5721  224.1306 H   0  0  0  0  0  0  0  0  0  0  0  0
  138.7728   68.9972  222.2107 H   0  0  0  0  0  0  0  0  0  0  0  0
  137.6776   70.0217  220.2088 H   0  0  0  0  0  0  0  0  0  0  0  0
  137.5790   74.6304  221.1103 H   0  0  0  0  0  0  0  0  0  0  0  0
  139.2292   75.9592  222.5516 H   0  0  0  0  0  0  0  0  0  0  0  0
  142.6705   71.4267  221.3500 H   0  0  0  0  0  0  0  0  0  0  0  0
  144.9266   71.1109  220.3216 H   0  0  0  0  0  0  0  0  0  0  0  0
  146.1036   72.9915  219.2073 H   0  0  0  0  0  0  0  0  0  0  0  0
  145.0069   75.1910  219.1302 H   0  0  0  0  0  0  0  0  0  0  0  0
  140.9872   77.6971  219.5449 H   0  0  0  0  0  0  0  0  0  0  0  0
  139.7586   77.2727  220.7939 H   0  0  0  0  0  0  0  0  0  0  0  0
  142.5321   77.9201  221.6385 H   0  0  0  0  0  0  0  0  0  0  0  0
  139.9068   78.6898  222.9101 H   0  0  0  0  0  0  0  0  0  0  0  0
  140.8632   77.2176  223.2909 H   0  0  0  0  0  0  0  0  0  0  0  0
  141.1551   79.7204  224.4528 H   0  0  0  0  0  0  0  0  0  0  0  0
  142.3546   78.3610  224.4806 H   0  0  0  0  0  0  0  0  0  0  0  0
  143.2062   80.6178  223.7831 H   0  0  0  0  0  0  0  0  0  0  0  0
  143.5054   79.1938  222.6665 H   0  0  0  0  0  0  0  0  0  0  0  0
  141.4744   81.4118  222.3013 H   0  0  0  0  0  0  0  0  0  0  0  0
  142.9810   81.1206  221.3515 H   0  0  0  0  0  0  0  0  0  0  0  0
  140.3591   80.0153  220.9463 H   0  0  0  0  0  0  0  0  0  0  0  0
  141.8631   79.7383  219.9988 H   0  0  0  0  0  0  0  0  0  0  0  0
  139.6454   72.9231  223.6488 H   0  0  0  0  0  0  0  0  0  0  0  0
  141.9143   70.4490  224.9569 H   0  0  0  0  0  0  0  0  0  0  0  0
  141.1571   72.0112  224.6043 H   0  0  0  0  0  0  0  0  0  0  0  0
  141.2262   71.5139  227.0533 H   0  0  0  0  0  0  0  0  0  0  0  0
  139.5194   71.6396  226.4022 H   0  0  0  0  0  0  0  0  0  0  0  0
  1  2  1  0
  2  3  1  0
  3  4  1  0
  4  5  1  0
  5  6  1  0
  6  7  2  0
  7  8  1  0
  8  9  2  0
  9 10  1  0
 10 11  1  0
 11 12  2  0
 12 13  1  0
 13 14  2  0
 14 15  1  0
 15 16  2  0
 16 17  1  0
 17 18  2  0
 18 19  1  0
 19 20  2  0
 20 21  1  0
 21 22  2  0
 21 23  1  0
 23 24  1  0
 24 25  1  0
 25 26  1  0
 26 27  1  0
 27 28  1  0
 28 29  1  0
 29 30  1  0
 10 31  2  0
  5 32  1  0
 32 33  1  0
 33  2  1  0
 31  6  1  0
 23 13  1  0
 30 25  1  0
 20 15  1  0
  1 34  1  0
  1 35  1  0
  1 36  1  0
  3 37  1  0
  3 38  1  0
  4 39  1  0
  4 40  1  0
  7 41  1  0
  8 42  1  0
 11 43  1  0
 12 44  1  0
 16 45  1  0
 17 46  1  0
 18 47  1  0
 19 48  1  0
 24 49  1  0
 24 50  1  0
 25 51  1  0
 26 52  1  0
 26 53  1  0
 27 54  1  0
 27 55  1  0
 28 56  1  0
 28 57  1  0
 29 58  1  0
 29 59  1  0
 30 60  1  0
 30 61  1  0
 31 62  1  0
 32 63  1  0
 32 64  1  0
 33 65  1  0
 33 66  1  0
M  END
>  <smiles>  (8) 
CN1CCN(c2ccnc(/C=C/c3nc4ccccc4c(=O)n3CC3CCCCC3)c2)CC1

>  <score_type>  (8) 
oracle

>  <origin>  (8) 
autodockgpu

>  <m_score__min__energy>  (8) 
-8.8100000000000005

>  <m_primary>  (8) 
energy

>  <rmsd>  (8) 
7.733462506878068

>  <m_score__min__rmsd>  (8) 
7.733462506878068

>  <meeko>  (8) 
{"free_energy": -8.22, "intermolecular_energy": -10.01, "internal_energy": -1.82, "cluster_size": 3, "cluster_id": 3, "rank_in_cluster": 2}

>  <energy>  (8) 
-8.65

>  <cluster_rmsd>  (8) 
0.76

>  <cluster>  (8) 
1

$$$$

     RDKit          3D

 66 70  0  0  0  0  0  0  0  0999 V2000
  142.0760   80.5940  222.6440 C   0  0  0  0  0  0  0  0  0  0  0  0
  141.4070   79.4370  222.1700 N   0  0  0  0  0  0  0  0  0  0  0  0
  141.8190   79.0100  220.8570 C   0  0  0  0  0  0  0  0  0  0  0  0
  141.0200   77.8370  220.3550 C   0  0  0  0  0  0  0  0  0  0  0  0
  140.9340   76.7880  221.3660 N   0  0  0  0  0  0  0  0  0  0  0  0
  141.3430   75.4580  221.1430 C   0  0  0  0  0  0  0  0  0  0  0  0
  142.5270   75.1850  220.4690 C   0  0  0  0  0  0  0  0  0  0  0  0
  142.9380   73.8700  220.2300 C   0  0  0  0  0  0  0  0  0  0  0  0
  142.1750   72.8790  220.6610 N   0  0  0  0  0  0  0  0  0  0  0  0
  141.0120   73.0580  221.3230 C   0  0  0  0  0  0  0  0  0  0  0  0
  140.2630   71.8850  221.7440 C   0  0  0  0  0  0  0  0  0  0  0  0
  139.4070   71.8670  222.7480 C   0  0  0  0  0  0  0  0  0  0  0  0
  139.6570   70.9760  223.9050 C   0  0  0  0  0  0  0  0  0  0  0  0
  140.2420   71.4980  225.0080 N   0  0  0  0  0  0  0  0  0  0  0  0
  140.4830   70.7690  226.1140 C   0  0  0  0  0  0  0  0  0  0  0  0
  141.0890   71.3490  227.2320 C   0  0  0  0  0  0  0  0  0  0  0  0
  141.3060   70.5320  228.3420 C   0  0  0  0  0  0  0  0  0  0  0  0
  140.9440   69.2000  228.3570 C   0  0  0  0  0  0  0  0  0  0  0  0
  140.3550   68.6940  227.2310 C   0  0  0  0  0  0  0  0  0  0  0  0
  140.1100   69.4410  226.1010 C   0  0  0  0  0  0  0  0  0  0  0  0
  139.5230   68.9530  224.9650 C   0  0  0  0  0  0  0  0  0  0  0  0
  139.1880   67.7270  224.9770 O   0  0  0  0  0  0  0  0  0  0  0  0
  139.2850   69.6870  223.8600 N   0  0  0  0  0  0  0  0  0  0  0  0
  138.6450   69.0610  222.7570 C   0  0  0  0  0  0  0  0  0  0  0  0
  137.1500   69.2680  222.8300 C   0  0  0  0  0  0  0  0  0  0  0  0
  136.6150   69.5320  224.2050 C   0  0  0  0  0  0  0  0  0  0  0  0
  135.1740   69.9360  224.1120 C   0  0  0  0  0  0  0  0  0  0  0  0
  134.6090   69.6520  222.7670 C   0  0  0  0  0  0  0  0  0  0  0  0
  134.9400   68.2750  222.2260 C   0  0  0  0  0  0  0  0  0  0  0  0
  136.4360   68.0350  222.2590 C   0  0  0  0  0  0  0  0  0  0  0  0
  140.6190   74.3510  221.5500 C   0  0  0  0  0  0  0  0  0  0  0  0
  140.3870   77.2450  222.6570 C   0  0  0  0  0  0  0  0  0  0  0  0
  141.2840   78.3740  223.1140 C   0  0  0  0  0  0  0  0  0  0  0  0
  142.0755   80.5931  223.7440 H   0  0  0  0  0  0  0  0  0  0  0  0
  143.1133   80.5936  222.2778 H   0  0  0  0  0  0  0  0  0  0  0  0
  141.5582   81.4928  222.2778 H   0  0  0  0  0  0  0  0  0  0  0  0
  141.6916   79.8490  220.1571 H   0  0  0  0  0  0  0  0  0  0  0  0
  142.8707   78.6943  220.9229 H   0  0  0  0  0  0  0  0  0  0  0  0
  140.0046   78.1760  220.1019 H   0  0  0  0  0  0  0  0  0  0  0  0
  141.5232   77.4260  219.4673 H   0  0  0  0  0  0  0  0  0  0  0  0
  143.1524   76.0186  220.1170 H   0  0  0  0  0  0  0  0  0  0  0  0
  143.8765   73.6638  219.6946 H   0  0  0  0  0  0  0  0  0  0  0  0
  140.4207   70.9492  221.1878 H   0  0  0  0  0  0  0  0  0  0  0  0
  138.5141   72.5090  222.7261 H   0  0  0  0  0  0  0  0  0  0  0  0
  141.3835   72.4088  227.2366 H   0  0  0  0  0  0  0  0  0  0  0  0
  141.7815   70.9638  229.2350 H   0  0  0  0  0  0  0  0  0  0  0  0
  141.1224   68.5696  229.2406 H   0  0  0  0  0  0  0  0  0  0  0  0
  140.0615   67.6339  227.2283 H   0  0  0  0  0  0  0  0  0  0  0  0
  139.0262   69.4965  221.8216 H   0  0  0  0  0  0  0  0  0  0  0  0
  138.8581   67.9822  222.7854 H   0  0  0  0  0  0  0  0  0  0  0  0
  136.9514   70.1749  222.2400 H   0  0  0  0  0  0  0  0  0  0  0  0
  136.7014   68.6197  224.8134 H   0  0  0  0  0  0  0  0  0  0  0  0
  137.1932   70.3418  224.6740 H   0  0  0  0  0  0  0  0  0  0  0  0
  134.5982   69.3786  224.8655 H   0  0  0  0  0  0  0  0  0  0  0  0
  135.1097   71.0198  224.2890 H   0  0  0  0  0  0  0  0  0  0  0  0
  133.5145   69.7438  222.8273 H   0  0  0  0  0  0  0  0  0  0  0  0
  135.0631   70.3778  222.0764 H   0  0  0  0  0  0  0  0  0  0  0  0
  134.4381   67.5143  222.8419 H   0  0  0  0  0  0  0  0  0  0  0  0
  134.5931   68.2102  221.1841 H   0  0  0  0  0  0  0  0  0  0  0  0
  136.6516   67.1624  222.8931 H   0  0  0  0  0  0  0  0  0  0  0  0
  136.7958   67.8492  221.2363 H   0  0  0  0  0  0  0  0  0  0  0  0
  139.6736   74.5187  222.0867 H   0  0  0  0  0  0  0  0  0  0  0  0
  139.3553   77.6045  222.5291 H   0  0  0  0  0  0  0  0  0  0  0  0
  140.3592   76.4290  223.3942 H   0  0  0  0  0  0  0  0  0  0  0  0
  140.8727   78.7862  224.0472 H   0  0  0  0  0  0  0  0  0  0  0  0
  142.2895   77.9478  223.2456 H   0  0  0  0  0  0  0  0  0  0  0  0
  1  2  1  0
  2  3  1  0
  3  4  1  0
  4  5  1  0
  5  6  1  0
  6  7  2  0
  7  8  1  0
  8  9  2  0
  9 10  1  0
 10 11  1  0
 11 12  2  0
 12 13  1  0
 13 14  2  0
 14 15  1  0
 15 16  2  0
 16 17  1  0
 17 18  2  0
 18 19  1  0
 19 20  2  0
 20 21  1  0
 21 22  2  0
 21 23  1  0
 23 24  1  0
 24 25  1  0
 25 26  1  0
 26 27  1  0
 27 28  1  0
 28 29  1  0
 29 30  1  0
 10 31  2  0
  5 32  1  0
 32 33  1  0
 33  2  1  0
 31  6  1  0
 23 13  1  0
 30 25  1  0
 20 15  1  0
  1 34  1  0
  1 35  1  0
  1 36  1  0
  3 37  1  0
  3 38  1  0
  4 39  1  0
  4 40  1  0
  7 41  1  0
  8 42  1  0
 11 43  1  0
 12 44  1  0
 16 45  1  0
 17 46  1  0
 18 47  1  0
 19 48  1  0
 24 49  1  0
 24 50  1  0
 25 51  1  0
 26 52  1  0
 26 53  1  0
 27 54  1  0
 27 55  1  0
 28 56  1  0
 28 57  1  0
 29 58  1  0
 29 59  1  0
 30 60  1  0
 30 61  1  0
 31 62  1  0
 32 63  1  0
 32 64  1  0
 33 65  1  0
 33 66  1  0
M  END
>  <smiles>  (9) 
CN1CCN(c2ccnc(/C=C/c3nc4ccccc4c(=O)n3CC3CCCCC3)c2)CC1

>  <score_type>  (9) 
oracle

>  <origin>  (9) 
autodockgpu

>  <m_score__min__energy>  (9) 
-8.8100000000000005

>  <m_primary>  (9) 
energy

>  <rmsd>  (9) 
11.636983918787955

>  <m_score__min__rmsd>  (9) 
11.636983918787955

>  <meeko>  (9) 
{"free_energy": -8.65, "intermolecular_energy": -10.44, "internal_energy": -1.45, "cluster_size": 24, "cluster_id": 1, "rank_in_cluster": 8}

>  <energy>  (9) 
-8.63

>  <cluster_rmsd>  (9) 
0.99

>  <cluster>  (9) 
1

$$$$

     RDKit          3D

 66 70  0  0  0  0  0  0  0  0999 V2000
  141.0180   82.3350  221.9680 C   0  0  0  0  0  0  0  0  0  0  0  0
  141.4720   80.9920  221.9550 N   0  0  0  0  0  0  0  0  0  0  0  0
  141.2790   80.2880  223.1970 C   0  0  0  0  0  0  0  0  0  0  0  0
  141.8580   78.8990  223.1690 C   0  0  0  0  0  0  0  0  0  0  0  0
  141.4520   78.1840  221.9630 N   0  0  0  0  0  0  0  0  0  0  0  0
  140.7910   76.9400  221.9840 C   0  0  0  0  0  0  0  0  0  0  0  0
  139.4400   76.8600  222.2990 C   0  0  0  0  0  0  0  0  0  0  0  0
  138.7750   75.6300  222.3350 C   0  0  0  0  0  0  0  0  0  0  0  0
  139.4600   74.5320  222.0610 N   0  0  0  0  0  0  0  0  0  0  0  0
  140.7730   74.5220  221.7460 C   0  0  0  0  0  0  0  0  0  0  0  0
  141.4120   73.2460  221.4670 C   0  0  0  0  0  0  0  0  0  0  0  0
  141.6200   72.7650  220.2560 C   0  0  0  0  0  0  0  0  0  0  0  0
  142.8980   72.0790  219.9520 C   0  0  0  0  0  0  0  0  0  0  0  0
  142.8830   70.7400  219.7610 N   0  0  0  0  0  0  0  0  0  0  0  0
  143.9910   70.0400  219.4550 C   0  0  0  0  0  0  0  0  0  0  0  0
  143.9300   68.6560  219.2660 C   0  0  0  0  0  0  0  0  0  0  0  0
  145.1200   67.9970  218.9500 C   0  0  0  0  0  0  0  0  0  0  0  0
  146.3200   68.6670  218.8250 C   0  0  0  0  0  0  0  0  0  0  0  0
  146.3110   70.0190  219.0230 C   0  0  0  0  0  0  0  0  0  0  0  0
  145.1770   70.7340  219.3360 C   0  0  0  0  0  0  0  0  0  0  0  0
  145.1480   72.0880  219.5380 C   0  0  0  0  0  0  0  0  0  0  0  0
  146.2530   72.7060  219.4230 O   0  0  0  0  0  0  0  0  0  0  0  0
  144.0360   72.7840  219.8450 N   0  0  0  0  0  0  0  0  0  0  0  0
  144.1410   74.1920  220.0050 C   0  0  0  0  0  0  0  0  0  0  0  0
  143.4430   74.9030  218.8690 C   0  0  0  0  0  0  0  0  0  0  0  0
  144.0490   74.6800  217.5160 C   0  0  0  0  0  0  0  0  0  0  0  0
  143.1450   75.2500  216.4650 C   0  0  0  0  0  0  0  0  0  0  0  0
  142.1050   76.1330  217.0520 C   0  0  0  0  0  0  0  0  0  0  0  0
  142.6280   77.1250  218.0720 C   0  0  0  0  0  0  0  0  0  0  0  0
  143.4210   76.4120  219.1500 C   0  0  0  0  0  0  0  0  0  0  0  0
  141.4130   75.7330  221.7150 C   0  0  0  0  0  0  0  0  0  0  0  0
  141.7840   78.8860  220.7100 C   0  0  0  0  0  0  0  0  0  0  0  0
  141.1120   80.2380  220.7980 C   0  0  0  0  0  0  0  0  0  0  0  0
  140.9036   82.6733  223.0084 H   0  0  0  0  0  0  0  0  0  0  0  0
  141.7499   82.9745  221.4528 H   0  0  0  0  0  0  0  0  0  0  0  0
  140.0482   82.3992  221.4528 H   0  0  0  0  0  0  0  0  0  0  0  0
  141.7649   80.8564  224.0037 H   0  0  0  0  0  0  0  0  0  0  0  0
  140.1956   80.1949  223.3632 H   0  0  0  0  0  0  0  0  0  0  0  0
  142.9556   78.9669  223.1939 H   0  0  0  0  0  0  0  0  0  0  0  0
  141.4845   78.3474  224.0443 H   0  0  0  0  0  0  0  0  0  0  0  0
  138.8830   77.7814  222.5243 H   0  0  0  0  0  0  0  0  0  0  0  0
  137.7053   75.5769  222.5858 H   0  0  0  0  0  0  0  0  0  0  0  0
  141.7445   72.6408  222.3233 H   0  0  0  0  0  0  0  0  0  0  0  0
  140.8502   72.8724  219.4776 H   0  0  0  0  0  0  0  0  0  0  0  0
  142.9814   68.1075  219.3625 H   0  0  0  0  0  0  0  0  0  0  0  0
  145.1002   66.9081  218.7956 H   0  0  0  0  0  0  0  0  0  0  0  0
  147.2487   68.1329  218.5754 H   0  0  0  0  0  0  0  0  0  0  0  0
  147.2609   70.5654  218.9271 H   0  0  0  0  0  0  0  0  0  0  0  0
  143.6746   74.4847  220.9573 H   0  0  0  0  0  0  0  0  0  0  0  0
  145.2043   74.4737  220.0036 H   0  0  0  0  0  0  0  0  0  0  0  0
  142.4320   74.4713  218.8306 H   0  0  0  0  0  0  0  0  0  0  0  0
  145.0288   75.1775  217.4663 H   0  0  0  0  0  0  0  0  0  0  0  0
  144.1772   73.6011  217.3443 H   0  0  0  0  0  0  0  0  0  0  0  0
  143.7486   75.8342  215.7548 H   0  0  0  0  0  0  0  0  0  0  0  0
  142.6387   74.4144  215.9596 H   0  0  0  0  0  0  0  0  0  0  0  0
  141.6316   76.6971  216.2349 H   0  0  0  0  0  0  0  0  0  0  0  0
  141.4008   75.4771  217.5848 H   0  0  0  0  0  0  0  0  0  0  0  0
  143.2785   77.8542  217.5669 H   0  0  0  0  0  0  0  0  0  0  0  0
  141.7742   77.6374  218.5394 H   0  0  0  0  0  0  0  0  0  0  0  0
  144.4516   76.7965  219.1595 H   0  0  0  0  0  0  0  0  0  0  0  0
  142.9485   76.5921  220.1269 H   0  0  0  0  0  0  0  0  0  0  0  0
  142.4833   75.7469  221.4616 H   0  0  0  0  0  0  0  0  0  0  0  0
  142.8734   79.0062  220.6165 H   0  0  0  0  0  0  0  0  0  0  0  0
  141.4410   78.3225  219.8298 H   0  0  0  0  0  0  0  0  0  0  0  0
  141.3882   80.8200  219.9064 H   0  0  0  0  0  0  0  0  0  0  0  0
  140.0300   80.0514  220.8643 H   0  0  0  0  0  0  0  0  0  0  0  0
  1  2  1  0
  2  3  1  0
  3  4  1  0
  4  5  1  0
  5  6  1  0
  6  7  2  0
  7  8  1  0
  8  9  2  0
  9 10  1  0
 10 11  1  0
 11 12  2  0
 12 13  1  0
 13 14  2  0
 14 15  1  0
 15 16  2  0
 16 17  1  0
 17 18  2  0
 18 19  1  0
 19 20  2  0
 20 21  1  0
 21 22  2  0
 21 23  1  0
 23 24  1  0
 24 25  1  0
 25 26  1  0
 26 27  1  0
 27 28  1  0
 28 29  1  0
 29 30  1  0
 10 31  2  0
  5 32  1  0
 32 33  1  0
 33  2  1  0
 31  6  1  0
 23 13  1  0
 30 25  1  0
 20 15  1  0
  1 34  1  0
  1 35  1  0
  1 36  1  0
  3 37  1  0
  3 38  1  0
  4 39  1  0
  4 40  1  0
  7 41  1  0
  8 42  1  0
 11 43  1  0
 12 44  1  0
 16 45  1  0
 17 46  1  0
 18 47  1  0
 19 48  1  0
 24 49  1  0
 24 50  1  0
 25 51  1  0
 26 52  1  0
 26 53  1  0
 27 54  1  0
 27 55  1  0
 28 56  1  0
 28 57  1  0
 29 58  1  0
 29 59  1  0
 30 60  1  0
 30 61  1  0
 31 62  1  0
 32 63  1  0
 32 64  1  0
 33 65  1  0
 33 66  1  0
M  END
>  <smiles>  (10) 
CN1CCN(c2ccnc(/C=C/c3nc4ccccc4c(=O)n3CC3CCCCC3)c2)CC1

>  <score_type>  (10) 
oracle

>  <origin>  (10) 
autodockgpu

>  <m_score__min__energy>  (10) 
-8.8100000000000005

>  <m_primary>  (10) 
energy

>  <rmsd>  (10) 
9.733154954603561

>  <m_score__min__rmsd>  (10) 
9.733154954603561

>  <meeko>  (10) 
{"free_energy": -7.69, "intermolecular_energy": -9.48, "internal_energy": -2.13, "cluster_size": 2, "cluster_id": 6, "rank_in_cluster": 1}

>  <energy>  (10) 
-8.61

>  <cluster_rmsd>  (10) 
0.84

>  <cluster>  (10) 
1

$$$$

     RDKit          3D

 66 70  0  0  0  0  0  0  0  0999 V2000
  142.3940   81.2240  224.0700 C   0  0  0  0  0  0  0  0  0  0  0  0
  141.6550   80.3730  223.2090 N   0  0  0  0  0  0  0  0  0  0  0  0
  142.3300   80.0430  221.9790 C   0  0  0  0  0  0  0  0  0  0  0  0
  141.4750   79.2160  221.0570 C   0  0  0  0  0  0  0  0  0  0  0  0
  140.8640   78.0970  221.7670 N   0  0  0  0  0  0  0  0  0  0  0  0
  141.0150   76.7520  221.3750 C   0  0  0  0  0  0  0  0  0  0  0  0
  141.8360   76.4150  220.3050 C   0  0  0  0  0  0  0  0  0  0  0  0
  141.9840   75.0850  219.8980 C   0  0  0  0  0  0  0  0  0  0  0  0
  141.3250   74.1440  220.5530 N   0  0  0  0  0  0  0  0  0  0  0  0
  140.5080   74.3870  221.6010 C   0  0  0  0  0  0  0  0  0  0  0  0
  139.8380   73.2640  222.2360 C   0  0  0  0  0  0  0  0  0  0  0  0
  140.3430   72.0480  222.3270 C   0  0  0  0  0  0  0  0  0  0  0  0
  140.2090   71.2940  223.5940 C   0  0  0  0  0  0  0  0  0  0  0  0
  140.7010   71.8430  224.7290 N   0  0  0  0  0  0  0  0  0  0  0  0
  140.6000   71.2400  225.9280 C   0  0  0  0  0  0  0  0  0  0  0  0
  141.1240   71.8440  227.0760 C   0  0  0  0  0  0  0  0  0  0  0  0
  140.9800   71.1610  228.2840 C   0  0  0  0  0  0  0  0  0  0  0  0
  140.3490   69.9360  228.3650 C   0  0  0  0  0  0  0  0  0  0  0  0
  139.8600   69.4000  227.2070 C   0  0  0  0  0  0  0  0  0  0  0  0
  139.9650   70.0180  225.9810 C   0  0  0  0  0  0  0  0  0  0  0  0
  139.4820   69.4970  224.8100 C   0  0  0  0  0  0  0  0  0  0  0  0
  138.9010   68.3690  224.8840 O   0  0  0  0  0  0  0  0  0  0  0  0
  139.5860   70.1040  223.6120 N   0  0  0  0  0  0  0  0  0  0  0  0
  139.0190   69.4650  222.4770 C   0  0  0  0  0  0  0  0  0  0  0  0
  137.5370   69.7490  222.4000 C   0  0  0  0  0  0  0  0  0  0  0  0
  137.0640   70.8760  223.2690 C   0  0  0  0  0  0  0  0  0  0  0  0
  135.6380   71.1980  222.9360 C   0  0  0  0  0  0  0  0  0  0  0  0
  135.0130   70.1360  222.1060 C   0  0  0  0  0  0  0  0  0  0  0  0
  135.2680   68.7240  222.5970 C   0  0  0  0  0  0  0  0  0  0  0  0
  136.7540   68.4830  222.7760 C   0  0  0  0  0  0  0  0  0  0  0  0
  140.3700   75.6930  221.9900 C   0  0  0  0  0  0  0  0  0  0  0  0
  140.0770   78.4960  222.9490 C   0  0  0  0  0  0  0  0  0  0  0  0
  141.0270   79.2610  223.8440 C   0  0  0  0  0  0  0  0  0  0  0  0
  142.1722   80.9686  225.1167 H   0  0  0  0  0  0  0  0  0  0  0  0
  143.4696   81.0928  223.8805 H   0  0  0  0  0  0  0  0  0  0  0  0
  142.1133   82.2706  223.8805 H   0  0  0  0  0  0  0  0  0  0  0  0
  142.6028   80.9764  221.4648 H   0  0  0  0  0  0  0  0  0  0  0  0
  143.2190   79.4477  222.2346 H   0  0  0  0  0  0  0  0  0  0  0  0
  140.6811   79.8514  220.6374 H   0  0  0  0  0  0  0  0  0  0  0  0
  142.1134   78.8141  220.2564 H   0  0  0  0  0  0  0  0  0  0  0  0
  142.3785   77.2079  219.7692 H   0  0  0  0  0  0  0  0  0  0  0  0
  142.6355   74.8270  219.0501 H   0  0  0  0  0  0  0  0  0  0  0  0
  138.8426   73.4396  222.6701 H   0  0  0  0  0  0  0  0  0  0  0  0
  140.8602   71.5976  221.4669 H   0  0  0  0  0  0  0  0  0  0  0  0
  141.6299   72.8196  227.0281 H   0  0  0  0  0  0  0  0  0  0  0  0
  141.3826   71.6136  229.2022 H   0  0  0  0  0  0  0  0  0  0  0  0
  140.2437   69.4109  229.3258 H   0  0  0  0  0  0  0  0  0  0  0  0
  139.3560   68.4235  227.2569 H   0  0  0  0  0  0  0  0  0  0  0  0
  139.5083   69.8416  221.5666 H   0  0  0  0  0  0  0  0  0  0  0  0
  139.1707   68.3791  222.5652 H   0  0  0  0  0  0  0  0  0  0  0  0
  137.3525   70.0589  221.3608 H   0  0  0  0  0  0  0  0  0  0  0  0
  137.1360   70.5795  224.3258 H   0  0  0  0  0  0  0  0  0  0  0  0
  137.6911   71.7626  223.0939 H   0  0  0  0  0  0  0  0  0  0  0  0
  135.0682   71.3007  223.8713 H   0  0  0  0  0  0  0  0  0  0  0  0
  135.6241   72.1352  222.3602 H   0  0  0  0  0  0  0  0  0  0  0  0
  133.9261   70.3046  222.0934 H   0  0  0  0  0  0  0  0  0  0  0  0
  135.4704   70.2082  221.1082 H   0  0  0  0  0  0  0  0  0  0  0  0
  134.7592   68.5789  223.5614 H   0  0  0  0  0  0  0  0  0  0  0  0
  134.8801   68.0135  221.8522 H   0  0  0  0  0  0  0  0  0  0  0  0
  136.9581   68.2261  223.8259 H   0  0  0  0  0  0  0  0  0  0  0  0
  137.0682   67.6553  222.1232 H   0  0  0  0  0  0  0  0  0  0  0  0
  139.7081   75.9130  222.8406 H   0  0  0  0  0  0  0  0  0  0  0  0
  139.2350   79.1370  222.6489 H   0  0  0  0  0  0  0  0  0  0  0  0
  139.6536   77.6216  223.4649 H   0  0  0  0  0  0  0  0  0  0  0  0
  140.4614   79.6323  224.7113 H   0  0  0  0  0  0  0  0  0  0  0  0
  141.8283   78.5628  224.1275 H   0  0  0  0  0  0  0  0  0  0  0  0
  1  2  1  0
  2  3  1  0
  3  4  1  0
  4  5  1  0
  5  6  1  0
  6  7  2  0
  7  8  1  0
  8  9  2  0
  9 10  1  0
 10 11  1  0
 11 12  2  0
 12 13  1  0
 13 14  2  0
 14 15  1  0
 15 16  2  0
 16 17  1  0
 17 18  2  0
 18 19  1  0
 19 20  2  0
 20 21  1  0
 21 22  2  0
 21 23  1  0
 23 24  1  0
 24 25  1  0
 25 26  1  0
 26 27  1  0
 27 28  1  0
 28 29  1  0
 29 30  1  0
 10 31  2  0
  5 32  1  0
 32 33  1  0
 33  2  1  0
 31  6  1  0
 23 13  1  0
 30 25  1  0
 20 15  1  0
  1 34  1  0
  1 35  1  0
  1 36  1  0
  3 37  1  0
  3 38  1  0
  4 39  1  0
  4 40  1  0
  7 41  1  0
  8 42  1  0
 11 43  1  0
 12 44  1  0
 16 45  1  0
 17 46  1  0
 18 47  1  0
 19 48  1  0
 24 49  1  0
 24 50  1  0
 25 51  1  0
 26 52  1  0
 26 53  1  0
 27 54  1  0
 27 55  1  0
 28 56  1  0
 28 57  1  0
 29 58  1  0
 29 59  1  0
 30 60  1  0
 30 61  1  0
 31 62  1  0
 32 63  1  0
 32 64  1  0
 33 65  1  0
 33 66  1  0
M  END
>  <smiles>  (11) 
CN1CCN(c2ccnc(/C=C/c3nc4ccccc4c(=O)n3CC3CCCCC3)c2)CC1

>  <score_type>  (11) 
oracle

>  <origin>  (11) 
autodockgpu

>  <m_score__min__energy>  (11) 
-8.8100000000000005

>  <m_primary>  (11) 
energy

>  <rmsd>  (11) 
10.813421924427882

>  <m_score__min__rmsd>  (11) 
10.813421924427882

>  <meeko>  (11) 
{"free_energy": -8.63, "intermolecular_energy": -10.42, "internal_energy": -1.51, "cluster_size": 24, "cluster_id": 1, "rank_in_cluster": 9}

>  <energy>  (11) 
-8.61

>  <cluster_rmsd>  (11) 
0.78

>  <cluster>  (11) 
1

$$$$

     RDKit          3D

 66 70  0  0  0  0  0  0  0  0999 V2000
  141.9620   80.8740  223.6400 C   0  0  0  0  0  0  0  0  0  0  0  0
  141.3360   79.9080  222.8110 N   0  0  0  0  0  0  0  0  0  0  0  0
  142.1880   79.3670  221.7840 C   0  0  0  0  0  0  0  0  0  0  0  0
  141.4590   78.4170  220.8720 C   0  0  0  0  0  0  0  0  0  0  0  0
  140.6870   77.4420  221.6360 N   0  0  0  0  0  0  0  0  0  0  0  0
  140.8370   76.0480  221.4930 C   0  0  0  0  0  0  0  0  0  0  0  0
  141.9400   75.5180  220.8350 C   0  0  0  0  0  0  0  0  0  0  0  0
  142.0940   74.1370  220.6760 C   0  0  0  0  0  0  0  0  0  0  0  0
  141.1640   73.3350  221.1680 N   0  0  0  0  0  0  0  0  0  0  0  0
  140.0640   73.7680  221.8200 C   0  0  0  0  0  0  0  0  0  0  0  0
  139.1140   72.7840  222.3120 C   0  0  0  0  0  0  0  0  0  0  0  0
  139.3300   71.4820  222.3290 C   0  0  0  0  0  0  0  0  0  0  0  0
  139.5780   70.8000  223.6200 C   0  0  0  0  0  0  0  0  0  0  0  0
  140.1210   71.5120  224.6350 N   0  0  0  0  0  0  0  0  0  0  0  0
  140.3560   70.9800  225.8490 C   0  0  0  0  0  0  0  0  0  0  0  0
  140.9190   71.7540  226.8690 C   0  0  0  0  0  0  0  0  0  0  0  0
  141.1340   71.1350  228.1010 C   0  0  0  0  0  0  0  0  0  0  0  0
  140.8100   69.8120  228.3250 C   0  0  0  0  0  0  0  0  0  0  0  0
  140.2630   69.1120  227.2870 C   0  0  0  0  0  0  0  0  0  0  0  0
  140.0240   69.6570  226.0460 C   0  0  0  0  0  0  0  0  0  0  0  0
  139.4780   68.9720  224.9930 C   0  0  0  0  0  0  0  0  0  0  0  0
  139.1790   67.7540  225.1990 O   0  0  0  0  0  0  0  0  0  0  0  0
  139.2450   69.5090  223.7790 N   0  0  0  0  0  0  0  0  0  0  0  0
  138.6500   68.6920  222.7810 C   0  0  0  0  0  0  0  0  0  0  0  0
  137.1620   68.9470  222.7110 C   0  0  0  0  0  0  0  0  0  0  0  0
  136.5170   69.2870  224.0210 C   0  0  0  0  0  0  0  0  0  0  0  0
  135.1050   69.7290  223.7820 C   0  0  0  0  0  0  0  0  0  0  0  0
  134.6510   69.4040  222.4060 C   0  0  0  0  0  0  0  0  0  0  0  0
  134.9810   67.9950  221.9530 C   0  0  0  0  0  0  0  0  0  0  0  0
  136.4600   67.7110  222.1300 C   0  0  0  0  0  0  0  0  0  0  0  0
  139.9230   75.1230  221.9690 C   0  0  0  0  0  0  0  0  0  0  0  0
  139.7360   78.0450  222.5870 C   0  0  0  0  0  0  0  0  0  0  0  0
  140.5590   78.9280  223.4990 C   0  0  0  0  0  0  0  0  0  0  0  0
  141.7942   80.6151  224.6958 H   0  0  0  0  0  0  0  0  0  0  0  0
  143.0423   80.8896  223.4335 H   0  0  0  0  0  0  0  0  0  0  0  0
  141.5349   81.8664  223.4335 H   0  0  0  0  0  0  0  0  0  0  0  0
  142.5867   80.1973  221.1827 H   0  0  0  0  0  0  0  0  0  0  0  0
  142.9926   78.8038  222.2794 H   0  0  0  0  0  0  0  0  0  0  0  0
  140.7762   78.9904  220.2278 H   0  0  0  0  0  0  0  0  0  0  0  0
  142.2010   77.8768  220.2656 H   0  0  0  0  0  0  0  0  0  0  0  0
  142.7060   76.1968  220.4319 H   0  0  0  0  0  0  0  0  0  0  0  0
  142.9701   73.7263  220.1528 H   0  0  0  0  0  0  0  0  0  0  0  0
  138.1500   73.1490  222.6961 H   0  0  0  0  0  0  0  0  0  0  0  0
  139.3258   70.9076  221.3909 H   0  0  0  0  0  0  0  0  0  0  0  0
  141.1821   72.8096  226.7063 H   0  0  0  0  0  0  0  0  0  0  0  0
  141.5762   71.7205  228.9205 H   0  0  0  0  0  0  0  0  0  0  0  0
  140.9856   69.3391  229.3025 H   0  0  0  0  0  0  0  0  0  0  0  0
  139.9996   68.0568  227.4519 H   0  0  0  0  0  0  0  0  0  0  0  0
  139.1037   68.9224  221.8058 H   0  0  0  0  0  0  0  0  0  0  0  0
  138.8198   67.6356  223.0362 H   0  0  0  0  0  0  0  0  0  0  0  0
  137.0468   69.8325  222.0687 H   0  0  0  0  0  0  0  0  0  0  0  0
  136.5186   68.4001  224.6717 H   0  0  0  0  0  0  0  0  0  0  0  0
  137.0784   70.0987  224.5067 H   0  0  0  0  0  0  0  0  0  0  0  0
  134.4465   69.2227  224.5031 H   0  0  0  0  0  0  0  0  0  0  0  0
  135.0627   70.8210  223.9071 H   0  0  0  0  0  0  0  0  0  0  0  0
  133.5592   69.5315  222.3650 H   0  0  0  0  0  0  0  0  0  0  0  0
  135.1884   70.0848  221.7295 H   0  0  0  0  0  0  0  0  0  0  0  0
  134.4008   67.2774  222.5517 H   0  0  0  0  0  0  0  0  0  0  0  0
  134.7254   67.8956  220.8877 H   0  0  0  0  0  0  0  0  0  0  0  0
  136.5889   66.8614  222.8168 H   0  0  0  0  0  0  0  0  0  0  0  0
  136.9024   67.4684  221.1525 H   0  0  0  0  0  0  0  0  0  0  0  0
  139.0333   75.4971  222.4967 H   0  0  0  0  0  0  0  0  0  0  0  0
  138.9866   78.6444  222.0494 H   0  0  0  0  0  0  0  0  0  0  0  0
  139.1927   77.2755  223.1551 H   0  0  0  0  0  0  0  0  0  0  0  0
  139.8755   79.4483  224.1861 H   0  0  0  0  0  0  0  0  0  0  0  0
  141.2677   78.2708  224.0242 H   0  0  0  0  0  0  0  0  0  0  0  0
  1  2  1  0
  2  3  1  0
  3  4  1  0
  4  5  1  0
  5  6  1  0
  6  7  2  0
  7  8  1  0
  8  9  2  0
  9 10  1  0
 10 11  1  0
 11 12  2  0
 12 13  1  0
 13 14  2  0
 14 15  1  0
 15 16  2  0
 16 17  1  0
 17 18  2  0
 18 19  1  0
 19 20  2  0
 20 21  1  0
 21 22  2  0
 21 23  1  0
 23 24  1  0
 24 25  1  0
 25 26  1  0
 26 27  1  0
 27 28  1  0
 28 29  1  0
 29 30  1  0
 10 31  2  0
  5 32  1  0
 32 33  1  0
 33  2  1  0
 31  6  1  0
 23 13  1  0
 30 25  1  0
 20 15  1  0
  1 34  1  0
  1 35  1  0
  1 36  1  0
  3 37  1  0
  3 38  1  0
  4 39  1  0
  4 40  1  0
  7 41  1  0
  8 42  1  0
 11 43  1  0
 12 44  1  0
 16 45  1  0
 17 46  1  0
 18 47  1  0
 19 48  1  0
 24 49  1  0
 24 50  1  0
 25 51  1  0
 26 52  1  0
 26 53  1  0
 27 54  1  0
 27 55  1  0
 28 56  1  0
 28 57  1  0
 29 58  1  0
 29 59  1  0
 30 60  1  0
 30 61  1  0
 31 62  1  0
 32 63  1  0
 32 64  1  0
 33 65  1  0
 33 66  1  0
M  END
>  <smiles>  (12) 
CN1CCN(c2ccnc(/C=C/c3nc4ccccc4c(=O)n3CC3CCCCC3)c2)CC1

>  <score_type>  (12) 
oracle

>  <origin>  (12) 
autodockgpu

>  <m_score__min__energy>  (12) 
-8.8100000000000005

>  <m_primary>  (12) 
energy

>  <rmsd>  (12) 
11.450838944889714

>  <m_score__min__rmsd>  (12) 
11.450838944889714

>  <meeko>  (12) 
{"free_energy": -8.78, "intermolecular_energy": -10.57, "internal_energy": -1.52, "cluster_size": 24, "cluster_id": 1, "rank_in_cluster": 3}

>  <energy>  (12) 
-8.6

>  <cluster_rmsd>  (12) 
0.73

>  <cluster>  (12) 
1

$$$$

     RDKit          3D

 66 70  0  0  0  0  0  0  0  0999 V2000
  142.6540   80.5630  223.7940 C   0  0  0  0  0  0  0  0  0  0  0  0
  141.6420   79.9140  223.0410 N   0  0  0  0  0  0  0  0  0  0  0  0
  142.1380   78.9950  222.0490 C   0  0  0  0  0  0  0  0  0  0  0  0
  141.0360   78.4000  221.2130 C   0  0  0  0  0  0  0  0  0  0  0  0
  139.9480   77.9060  222.0500 N   0  0  0  0  0  0  0  0  0  0  0  0
  139.4750   76.5790  222.0070 C   0  0  0  0  0  0  0  0  0  0  0  0
  138.1110   76.3130  221.9990 C   0  0  0  0  0  0  0  0  0  0  0  0
  137.6290   75.0000  221.9690 C   0  0  0  0  0  0  0  0  0  0  0  0
  138.5010   74.0060  221.9480 N   0  0  0  0  0  0  0  0  0  0  0  0
  139.8410   74.1780  221.9550 C   0  0  0  0  0  0  0  0  0  0  0  0
  140.6940   73.0010  221.9310 C   0  0  0  0  0  0  0  0  0  0  0  0
  140.2590   71.7620  222.0610 C   0  0  0  0  0  0  0  0  0  0  0  0
  140.1390   71.1680  223.4120 C   0  0  0  0  0  0  0  0  0  0  0  0
  140.6980   71.8200  224.4580 N   0  0  0  0  0  0  0  0  0  0  0  0
  140.6150   71.3670  225.7220 C   0  0  0  0  0  0  0  0  0  0  0  0
  141.2080   72.0730  226.7730 C   0  0  0  0  0  0  0  0  0  0  0  0
  141.0800   71.5420  228.0580 C   0  0  0  0  0  0  0  0  0  0  0  0
  140.3980   70.3690  228.3030 C   0  0  0  0  0  0  0  0  0  0  0  0
  139.8410   69.7270  227.2320 C   0  0  0  0  0  0  0  0  0  0  0  0
  139.9270   70.1910  225.9400 C   0  0  0  0  0  0  0  0  0  0  0  0
  139.3770   69.5620  224.8540 C   0  0  0  0  0  0  0  0  0  0  0  0
  138.7490   68.4810  225.0790 O   0  0  0  0  0  0  0  0  0  0  0  0
  139.4640   70.0200  223.5900 N   0  0  0  0  0  0  0  0  0  0  0  0
  138.8260   69.2820  222.5570 C   0  0  0  0  0  0  0  0  0  0  0  0
  137.3800   69.7020  222.4280 C   0  0  0  0  0  0  0  0  0  0  0  0
  137.0170   70.9540  223.1690 C   0  0  0  0  0  0  0  0  0  0  0  0
  135.6320   71.3790  222.7820 C   0  0  0  0  0  0  0  0  0  0  0  0
  134.9090   70.3040  222.0550 C   0  0  0  0  0  0  0  0  0  0  0  0
  135.0200   68.9330  222.6920 C   0  0  0  0  0  0  0  0  0  0  0  0
  136.4730   68.5660  222.9190 C   0  0  0  0  0  0  0  0  0  0  0  0
  140.3000   75.4680  221.9840 C   0  0  0  0  0  0  0  0  0  0  0  0
  139.3860   78.9200  222.9620 C   0  0  0  0  0  0  0  0  0  0  0  0
  140.5440   79.4130  223.8020 C   0  0  0  0  0  0  0  0  0  0  0  0
  142.4522   80.4336  224.8676 H   0  0  0  0  0  0  0  0  0  0  0  0
  143.6321   80.1233  223.5492 H   0  0  0  0  0  0  0  0  0  0  0  0
  142.6624   81.6354  223.5492 H   0  0  0  0  0  0  0  0  0  0  0  0
  142.8328   79.5320  221.3865 H   0  0  0  0  0  0  0  0  0  0  0  0
  142.6393   78.1707  222.5775 H   0  0  0  0  0  0  0  0  0  0  0  0
  140.6444   79.1714  220.5336 H   0  0  0  0  0  0  0  0  0  0  0  0
  141.4486   77.5547  220.6427 H   0  0  0  0  0  0  0  0  0  0  0  0
  137.3974   77.1500  222.0166 H   0  0  0  0  0  0  0  0  0  0  0  0
  136.5476   74.7987  221.9630 H   0  0  0  0  0  0  0  0  0  0  0  0
  141.7749   73.1536  221.7953 H   0  0  0  0  0  0  0  0  0  0  0  0
  139.9873   71.1744  221.1717 H   0  0  0  0  0  0  0  0  0  0  0  0
  141.7544   73.0108  226.5944 H   0  0  0  0  0  0  0  0  0  0  0  0
  141.5384   72.0771  228.9027 H   0  0  0  0  0  0  0  0  0  0  0  0
  140.3055   69.9649  229.3219 H   0  0  0  0  0  0  0  0  0  0  0  0
  139.2950   68.7894  227.4133 H   0  0  0  0  0  0  0  0  0  0  0  0
  139.3443   69.4683  221.6048 H   0  0  0  0  0  0  0  0  0  0  0  0
  138.8666   68.2111  222.8051 H   0  0  0  0  0  0  0  0  0  0  0  0
  137.2332   69.9197  221.3598 H   0  0  0  0  0  0  0  0  0  0  0  0
  137.0530   70.7630  224.2517 H   0  0  0  0  0  0  0  0  0  0  0  0
  137.7304   71.7515  222.9139 H   0  0  0  0  0  0  0  0  0  0  0  0
  135.0699   71.6335  223.6927 H   0  0  0  0  0  0  0  0  0  0  0  0
  135.7150   72.2485  222.1133 H   0  0  0  0  0  0  0  0  0  0  0  0
  133.8443   70.5764  222.0082 H   0  0  0  0  0  0  0  0  0  0  0  0
  135.3762   70.2275  221.0621 H   0  0  0  0  0  0  0  0  0  0  0  0
  134.4937   68.9395  223.6579 H   0  0  0  0  0  0  0  0  0  0  0  0
  134.5682   68.1910  222.0173 H   0  0  0  0  0  0  0  0  0  0  0  0
  136.6442   68.4006  223.9929 H   0  0  0  0  0  0  0  0  0  0  0  0
  136.7068   67.6479  222.3601 H   0  0  0  0  0  0  0  0  0  0  0  0
  141.3879   75.6306  221.9893 H   0  0  0  0  0  0  0  0  0  0  0  0
  138.9495   79.7505  222.3878 H   0  0  0  0  0  0  0  0  0  0  0  0
  138.5848   78.4995  223.5875 H   0  0  0  0  0  0  0  0  0  0  0  0
  140.1789   80.2197  224.4546 H   0  0  0  0  0  0  0  0  0  0  0  0
  140.9181   78.5467  224.3674 H   0  0  0  0  0  0  0  0  0  0  0  0
  1  2  1  0
  2  3  1  0
  3  4  1  0
  4  5  1  0
  5  6  1  0
  6  7  2  0
  7  8  1  0
  8  9  2  0
  9 10  1  0
 10 11  1  0
 11 12  2  0
 12 13  1  0
 13 14  2  0
 14 15  1  0
 15 16  2  0
 16 17  1  0
 17 18  2  0
 18 19  1  0
 19 20  2  0
 20 21  1  0
 21 22  2  0
 21 23  1  0
 23 24  1  0
 24 25  1  0
 25 26  1  0
 26 27  1  0
 27 28  1  0
 28 29  1  0
 29 30  1  0
 10 31  2  0
  5 32  1  0
 32 33  1  0
 33  2  1  0
 31  6  1  0
 23 13  1  0
 30 25  1  0
 20 15  1  0
  1 34  1  0
  1 35  1  0
  1 36  1  0
  3 37  1  0
  3 38  1  0
  4 39  1  0
  4 40  1  0
  7 41  1  0
  8 42  1  0
 11 43  1  0
 12 44  1  0
 16 45  1  0
 17 46  1  0
 18 47  1  0
 19 48  1  0
 24 49  1  0
 24 50  1  0
 25 51  1  0
 26 52  1  0
 26 53  1  0
 27 54  1  0
 27 55  1  0
 28 56  1  0
 28 57  1  0
 29 58  1  0
 29 59  1  0
 30 60  1  0
 30 61  1  0
 31 62  1  0
 32 63  1  0
 32 64  1  0
 33 65  1  0
 33 66  1  0
M  END
>  <smiles>  (13) 
CN1CCN(c2ccnc(/C=C/c3nc4ccccc4c(=O)n3CC3CCCCC3)c2)CC1

>  <score_type>  (13) 
oracle

>  <origin>  (13) 
autodockgpu

>  <m_score__min__energy>  (13) 
-8.8100000000000005

>  <m_primary>  (13) 
energy

>  <rmsd>  (13) 
10.639777258443843

>  <m_score__min__rmsd>  (13) 
10.639777258443843

>  <meeko>  (13) 
{"free_energy": -8.44, "intermolecular_energy": -10.23, "internal_energy": -1.87, "cluster_size": 24, "cluster_id": 1, "rank_in_cluster": 18}

>  <energy>  (13) 
-8.52

>  <cluster_rmsd>  (13) 
0.84

>  <cluster>  (13) 
1

$$$$

     RDKit          3D

 66 70  0  0  0  0  0  0  0  0999 V2000
  132.2260   75.0200  226.4780 C   0  0  0  0  0  0  0  0  0  0  0  0
  133.2190   74.0070  226.4330 N   0  0  0  0  0  0  0  0  0  0  0  0
  132.9050   72.8350  227.2100 C   0  0  0  0  0  0  0  0  0  0  0  0
  134.0230   71.8270  227.2090 C   0  0  0  0  0  0  0  0  0  0  0  0
  134.5090   71.5810  225.8550 N   0  0  0  0  0  0  0  0  0  0  0  0
  134.5580   70.3020  225.2670 C   0  0  0  0  0  0  0  0  0  0  0  0
  133.6880   69.2990  225.6790 C   0  0  0  0  0  0  0  0  0  0  0  0
  133.7350   68.0210  225.1120 C   0  0  0  0  0  0  0  0  0  0  0  0
  134.6290   67.7790  224.1690 N   0  0  0  0  0  0  0  0  0  0  0  0
  135.5100   68.6950  223.7130 C   0  0  0  0  0  0  0  0  0  0  0  0
  136.4450   68.3030  222.6710 C   0  0  0  0  0  0  0  0  0  0  0  0
  137.6420   68.8330  222.5050 C   0  0  0  0  0  0  0  0  0  0  0  0
  138.4480   69.2030  223.6900 C   0  0  0  0  0  0  0  0  0  0  0  0
  138.7750   68.2360  224.5790 N   0  0  0  0  0  0  0  0  0  0  0  0
  139.5260   68.4780  225.6690 C   0  0  0  0  0  0  0  0  0  0  0  0
  139.8400   67.4470  226.5610 C   0  0  0  0  0  0  0  0  0  0  0  0
  140.6240   67.7730  227.6690 C   0  0  0  0  0  0  0  0  0  0  0  0
  141.0820   69.0550  227.8940 C   0  0  0  0  0  0  0  0  0  0  0  0
  140.7390   70.0160  226.9850 C   0  0  0  0  0  0  0  0  0  0  0  0
  139.9710   69.7670  225.8700 C   0  0  0  0  0  0  0  0  0  0  0  0
  139.6170   70.7170  224.9480 C   0  0  0  0  0  0  0  0  0  0  0  0
  140.0380   71.8970  225.1550 O   0  0  0  0  0  0  0  0  0  0  0  0
  138.8640   70.4690  223.8580 N   0  0  0  0  0  0  0  0  0  0  0  0
  138.5900   71.5420  222.9680 C   0  0  0  0  0  0  0  0  0  0  0  0
  139.8560   71.9800  222.2670 C   0  0  0  0  0  0  0  0  0  0  0  0
  139.8160   73.3660  221.6990 C   0  0  0  0  0  0  0  0  0  0  0  0
  141.1880   73.7550  221.2350 C   0  0  0  0  0  0  0  0  0  0  0  0
  142.0980   72.5830  221.1660 C   0  0  0  0  0  0  0  0  0  0  0  0
  141.5000   71.3640  220.4920 C   0  0  0  0  0  0  0  0  0  0  0  0
  140.1750   70.9970  221.1320 C   0  0  0  0  0  0  0  0  0  0  0  0
  135.4550   69.9430  224.2750 C   0  0  0  0  0  0  0  0  0  0  0  0
  134.9380   72.7990  225.1420 C   0  0  0  0  0  0  0  0  0  0  0  0
  133.7390   73.7230  225.1350 C   0  0  0  0  0  0  0  0  0  0  0  0
  131.9925   75.2582  227.5262 H   0  0  0  0  0  0  0  0  0  0  0  0
  132.5993   75.9222  225.9713 H   0  0  0  0  0  0  0  0  0  0  0  0
  131.3166   74.6647  225.9713 H   0  0  0  0  0  0  0  0  0  0  0  0
  132.7076   73.1420  228.2477 H   0  0  0  0  0  0  0  0  0  0  0  0
  132.0242   72.3582  226.7552 H   0  0  0  0  0  0  0  0  0  0  0  0
  134.8513   72.2089  227.8239 H   0  0  0  0  0  0  0  0  0  0  0  0
  133.6401   70.8810  227.6195 H   0  0  0  0  0  0  0  0  0  0  0  0
  132.9493   69.5142  226.4651 H   0  0  0  0  0  0  0  0  0  0  0  0
  133.0422   67.2337  225.4441 H   0  0  0  0  0  0  0  0  0  0  0  0
  136.1336   67.5111  221.9739 H   0  0  0  0  0  0  0  0  0  0  0  0
  138.0383   68.9988  221.4924 H   0  0  0  0  0  0  0  0  0  0  0  0
  139.4831   66.4197  226.3957 H   0  0  0  0  0  0  0  0  0  0  0  0
  140.8854   66.9815  228.3867 H   0  0  0  0  0  0  0  0  0  0  0  0
  141.6999   69.2944  228.7720 H   0  0  0  0  0  0  0  0  0  0  0  0
  141.0955   71.0430  227.1532 H   0  0  0  0  0  0  0  0  0  0  0  0
  137.8556   71.2127  222.2182 H   0  0  0  0  0  0  0  0  0  0  0  0
  138.1883   72.3894  223.5429 H   0  0  0  0  0  0  0  0  0  0  0  0
  140.6346   71.9860  223.0440 H   0  0  0  0  0  0  0  0  0  0  0  0
  139.1194   73.3938  220.8481 H   0  0  0  0  0  0  0  0  0  0  0  0
  139.4769   74.0702  222.4730 H   0  0  0  0  0  0  0  0  0  0  0  0
  141.1114   74.2061  220.2347 H   0  0  0  0  0  0  0  0  0  0  0  0
  141.6048   74.4703  221.9594 H   0  0  0  0  0  0  0  0  0  0  0  0
  142.9978   72.8787  220.6065 H   0  0  0  0  0  0  0  0  0  0  0  0
  142.3147   72.2925  222.2046 H   0  0  0  0  0  0  0  0  0  0  0  0
  141.3384   71.5829  219.4262 H   0  0  0  0  0  0  0  0  0  0  0  0
  142.1950   70.5190  220.6056 H   0  0  0  0  0  0  0  0  0  0  0  0
  139.3785   71.0427  220.3747 H   0  0  0  0  0  0  0  0  0  0  0  0
  140.2392   69.9780  221.5413 H   0  0  0  0  0  0  0  0  0  0  0  0
  136.1644   70.7040  223.9176 H   0  0  0  0  0  0  0  0  0  0  0  0
  135.7816   73.2716  225.6664 H   0  0  0  0  0  0  0  0  0  0  0  0
  135.2758   72.5698  224.1206 H   0  0  0  0  0  0  0  0  0  0  0  0
  134.0365   74.6725  224.6659 H   0  0  0  0  0  0  0  0  0  0  0  0
  132.9425   73.2075  224.5783 H   0  0  0  0  0  0  0  0  0  0  0  0
  1  2  1  0
  2  3  1  0
  3  4  1  0
  4  5  1  0
  5  6  1  0
  6  7  2  0
  7  8  1  0
  8  9  2  0
  9 10  1  0
 10 11  1  0
 11 12  2  0
 12 13  1  0
 13 14  2  0
 14 15  1  0
 15 16  2  0
 16 17  1  0
 17 18  2  0
 18 19  1  0
 19 20  2  0
 20 21  1  0
 21 22  2  0
 21 23  1  0
 23 24  1  0
 24 25  1  0
 25 26  1  0
 26 27  1  0
 27 28  1  0
 28 29  1  0
 29 30  1  0
 10 31  2  0
  5 32  1  0
 32 33  1  0
 33  2  1  0
 31  6  1  0
 23 13  1  0
 30 25  1  0
 20 15  1  0
  1 34  1  0
  1 35  1  0
  1 36  1  0
  3 37  1  0
  3 38  1  0
  4 39  1  0
  4 40  1  0
  7 41  1  0
  8 42  1  0
 11 43  1  0
 12 44  1  0
 16 45  1  0
 17 46  1  0
 18 47  1  0
 19 48  1  0
 24 49  1  0
 24 50  1  0
 25 51  1  0
 26 52  1  0
 26 53  1  0
 27 54  1  0
 27 55  1  0
 28 56  1  0
 28 57  1  0
 29 58  1  0
 29 59  1  0
 30 60  1  0
 30 61  1  0
 31 62  1  0
 32 63  1  0
 32 64  1  0
 33 65  1  0
 33 66  1  0
M  END
>  <smiles>  (14) 
CN1CCN(c2ccnc(/C=C/c3nc4ccccc4c(=O)n3CC3CCCCC3)c2)CC1

>  <score_type>  (14) 
oracle

>  <origin>  (14) 
autodockgpu

>  <m_score__min__energy>  (14) 
-8.8100000000000005

>  <m_primary>  (14) 
energy

>  <rmsd>  (14) 
10.452428010909028

>  <m_score__min__rmsd>  (14) 
10.452428010909028

>  <meeko>  (14) 
{"free_energy": -8.18, "intermolecular_energy": -9.97, "internal_energy": -1.97, "cluster_size": 5, "cluster_id": 5, "rank_in_cluster": 1}

>  <energy>  (14) 
-8.5

>  <cluster_rmsd>  (14) 
1.24

>  <cluster>  (14) 
1

$$$$

     RDKit          3D

 66 70  0  0  0  0  0  0  0  0999 V2000
  139.6970   79.7330  223.8190 C   0  0  0  0  0  0  0  0  0  0  0  0
  139.8920   78.8310  222.7400 N   0  0  0  0  0  0  0  0  0  0  0  0
  141.2690   78.4820  222.5020 C   0  0  0  0  0  0  0  0  0  0  0  0
  141.4380   77.5990  221.2950 C   0  0  0  0  0  0  0  0  0  0  0  0
  140.4950   76.4860  221.3200 N   0  0  0  0  0  0  0  0  0  0  0  0
  140.8860   75.1340  221.2490 C   0  0  0  0  0  0  0  0  0  0  0  0
  142.1770   74.7890  220.8660 C   0  0  0  0  0  0  0  0  0  0  0  0
  142.5740   73.4510  220.7800 C   0  0  0  0  0  0  0  0  0  0  0  0
  141.6920   72.5080  221.0720 N   0  0  0  0  0  0  0  0  0  0  0  0
  140.4210   72.7580  221.4510 C   0  0  0  0  0  0  0  0  0  0  0  0
  139.5480   71.6320  221.7440 C   0  0  0  0  0  0  0  0  0  0  0  0
  138.7350   71.5680  222.7810 C   0  0  0  0  0  0  0  0  0  0  0  0
  139.1500   70.8200  223.9890 C   0  0  0  0  0  0  0  0  0  0  0  0
  139.8910   71.4600  224.9240 N   0  0  0  0  0  0  0  0  0  0  0  0
  140.2890   70.8650  226.0640 C   0  0  0  0  0  0  0  0  0  0  0  0
  141.0540   71.5640  227.0030 C   0  0  0  0  0  0  0  0  0  0  0  0
  141.4300   70.8830  228.1620 C   0  0  0  0  0  0  0  0  0  0  0  0
  141.0710   69.5710  228.3910 C   0  0  0  0  0  0  0  0  0  0  0  0
  140.3230   68.9440  227.4340 C   0  0  0  0  0  0  0  0  0  0  0  0
  139.9170   69.5530  226.2690 C   0  0  0  0  0  0  0  0  0  0  0  0
  139.1680   68.9420  225.2980 C   0  0  0  0  0  0  0  0  0  0  0  0
  138.8370   67.7340  225.5090 O   0  0  0  0  0  0  0  0  0  0  0  0
  138.7730   69.5420  224.1580 N   0  0  0  0  0  0  0  0  0  0  0  0
  137.9770   68.8000  223.2440 C   0  0  0  0  0  0  0  0  0  0  0  0
  138.8400   68.2270  222.1430 C   0  0  0  0  0  0  0  0  0  0  0  0
  138.4540   68.6450  220.7560 C   0  0  0  0  0  0  0  0  0  0  0  0
  139.5080   68.1960  219.7880 C   0  0  0  0  0  0  0  0  0  0  0  0
  140.4360   67.2130  220.4030 C   0  0  0  0  0  0  0  0  0  0  0  0
  139.7520   66.1090  221.1860 C   0  0  0  0  0  0  0  0  0  0  0  0
  138.8060   66.6940  222.2150 C   0  0  0  0  0  0  0  0  0  0  0  0
  140.0430   74.0730  221.5310 C   0  0  0  0  0  0  0  0  0  0  0  0
  139.0850   76.8990  221.4390 C   0  0  0  0  0  0  0  0  0  0  0  0
  138.9950   77.7220  222.7050 C   0  0  0  0  0  0  0  0  0  0  0  0
  139.8132   79.1956  224.7717 H   0  0  0  0  0  0  0  0  0  0  0  0
  140.4412   80.5409  223.7606 H   0  0  0  0  0  0  0  0  0  0  0  0
  138.6855   80.1613  223.7606 H   0  0  0  0  0  0  0  0  0  0  0  0
  141.8456   79.4059  222.3471 H   0  0  0  0  0  0  0  0  0  0  0  0
  141.6292   77.9235  223.3785 H   0  0  0  0  0  0  0  0  0  0  0  0
  141.2653   78.1954  220.3870 H   0  0  0  0  0  0  0  0  0  0  0  0
  142.4594   77.1907  221.3021 H   0  0  0  0  0  0  0  0  0  0  0  0
  142.8995   75.5831  220.6262 H   0  0  0  0  0  0  0  0  0  0  0  0
  143.5978   73.1875  220.4761 H   0  0  0  0  0  0  0  0  0  0  0  0
  139.5670   70.7756  221.0540 H   0  0  0  0  0  0  0  0  0  0  0  0
  137.7553   72.0671  222.7482 H   0  0  0  0  0  0  0  0  0  0  0  0
  141.3482   72.6105  226.8347 H   0  0  0  0  0  0  0  0  0  0  0  0
  142.0320   71.4096  228.9171 H   0  0  0  0  0  0  0  0  0  0  0  0
  141.3754   69.0485  229.3099 H   0  0  0  0  0  0  0  0  0  0  0  0
  140.0302   67.8974  227.6043 H   0  0  0  0  0  0  0  0  0  0  0  0
  137.4794   67.9784  223.7800 H   0  0  0  0  0  0  0  0  0  0  0  0
  137.2256   69.4687  222.7987 H   0  0  0  0  0  0  0  0  0  0  0  0
  139.8477   68.6308  222.3207 H   0  0  0  0  0  0  0  0  0  0  0  0
  137.4910   68.1854  220.4890 H   0  0  0  0  0  0  0  0  0  0  0  0
  138.3608   69.7403  220.7153 H   0  0  0  0  0  0  0  0  0  0  0  0
  139.0192   67.7299  218.9197 H   0  0  0  0  0  0  0  0  0  0  0  0
  140.0931   69.0769  219.4853 H   0  0  0  0  0  0  0  0  0  0  0  0
  141.0273   66.7492  219.5997 H   0  0  0  0  0  0  0  0  0  0  0  0
  141.0527   67.7717  221.1224 H   0  0  0  0  0  0  0  0  0  0  0  0
  139.1832   65.4725  220.4922 H   0  0  0  0  0  0  0  0  0  0  0  0
  140.5183   65.5147  221.7053 H   0  0  0  0  0  0  0  0  0  0  0  0
  137.7837   66.3418  222.0127 H   0  0  0  0  0  0  0  0  0  0  0  0
  139.1182   66.3713  223.2192 H   0  0  0  0  0  0  0  0  0  0  0  0
  139.0106   74.2981  221.8368 H   0  0  0  0  0  0  0  0  0  0  0  0
  138.7894   77.5034  220.5688 H   0  0  0  0  0  0  0  0  0  0  0  0
  138.4129   76.0290  221.4763 H   0  0  0  0  0  0  0  0  0  0  0  0
  137.9678   78.1047  222.7967 H   0  0  0  0  0  0  0  0  0  0  0  0
  139.2753   77.0590  223.5368 H   0  0  0  0  0  0  0  0  0  0  0  0
  1  2  1  0
  2  3  1  0
  3  4  1  0
  4  5  1  0
  5  6  1  0
  6  7  2  0
  7  8  1  0
  8  9  2  0
  9 10  1  0
 10 11  1  0
 11 12  2  0
 12 13  1  0
 13 14  2  0
 14 15  1  0
 15 16  2  0
 16 17  1  0
 17 18  2  0
 18 19  1  0
 19 20  2  0
 20 21  1  0
 21 22  2  0
 21 23  1  0
 23 24  1  0
 24 25  1  0
 25 26  1  0
 26 27  1  0
 27 28  1  0
 28 29  1  0
 29 30  1  0
 10 31  2  0
  5 32  1  0
 32 33  1  0
 33  2  1  0
 31  6  1  0
 23 13  1  0
 30 25  1  0
 20 15  1  0
  1 34  1  0
  1 35  1  0
  1 36  1  0
  3 37  1  0
  3 38  1  0
  4 39  1  0
  4 40  1  0
  7 41  1  0
  8 42  1  0
 11 43  1  0
 12 44  1  0
 16 45  1  0
 17 46  1  0
 18 47  1  0
 19 48  1  0
 24 49  1  0
 24 50  1  0
 25 51  1  0
 26 52  1  0
 26 53  1  0
 27 54  1  0
 27 55  1  0
 28 56  1  0
 28 57  1  0
 29 58  1  0
 29 59  1  0
 30 60  1  0
 30 61  1  0
 31 62  1  0
 32 63  1  0
 32 64  1  0
 33 65  1  0
 33 66  1  0
M  END
>  <smiles>  (15) 
CN1CCN(c2ccnc(/C=C/c3nc4ccccc4c(=O)n3CC3CCCCC3)c2)CC1

>  <score_type>  (15) 
oracle

>  <origin>  (15) 
autodockgpu

>  <m_score__min__energy>  (15) 
-8.8100000000000005

>  <m_primary>  (15) 
energy

>  <rmsd>  (15) 
11.17627141324675

>  <m_score__min__rmsd>  (15) 
11.17627141324675

>  <meeko>  (15) 
{"free_energy": -8.29, "intermolecular_energy": -10.08, "internal_energy": -1.69, "cluster_size": 24, "cluster_id": 1, "rank_in_cluster": 24}

>  <energy>  (15) 
-8.49

>  <cluster_rmsd>  (15) 
1.34

>  <cluster>  (15) 
1

$$$$

     RDKit          3D

 66 70  0  0  0  0  0  0  0  0999 V2000
  139.5330   79.7830  223.8480 C   0  0  0  0  0  0  0  0  0  0  0  0
  139.8030   78.9230  222.7520 N   0  0  0  0  0  0  0  0  0  0  0  0
  141.2050   78.7250  222.4860 C   0  0  0  0  0  0  0  0  0  0  0  0
  141.4450   77.8830  221.2620 C   0  0  0  0  0  0  0  0  0  0  0  0
  140.6250   76.6760  221.2830 N   0  0  0  0  0  0  0  0  0  0  0  0
  141.1550   75.3740  221.1840 C   0  0  0  0  0  0  0  0  0  0  0  0
  142.3450   75.1440  220.5050 C   0  0  0  0  0  0  0  0  0  0  0  0
  142.8750   73.8550  220.3890 C   0  0  0  0  0  0  0  0  0  0  0  0
  142.2190   72.8480  220.9410 N   0  0  0  0  0  0  0  0  0  0  0  0
  141.0580   72.9850  221.6160 C   0  0  0  0  0  0  0  0  0  0  0  0
  140.4340   71.7970  222.1760 C   0  0  0  0  0  0  0  0  0  0  0  0
  139.6320   71.7990  223.2240 C   0  0  0  0  0  0  0  0  0  0  0  0
  139.8120   70.7800  224.2840 C   0  0  0  0  0  0  0  0  0  0  0  0
  140.3810   71.1560  225.4530 N   0  0  0  0  0  0  0  0  0  0  0  0
  140.5580   70.3030  226.4790 C   0  0  0  0  0  0  0  0  0  0  0  0
  141.1510   70.7350  227.6700 C   0  0  0  0  0  0  0  0  0  0  0  0
  141.3020   69.7940  228.6900 C   0  0  0  0  0  0  0  0  0  0  0  0
  140.8890   68.4850  228.5500 C   0  0  0  0  0  0  0  0  0  0  0  0
  140.3180   68.1280  227.3600 C   0  0  0  0  0  0  0  0  0  0  0  0
  140.1370   69.0010  226.3120 C   0  0  0  0  0  0  0  0  0  0  0  0
  139.5670   68.6620  225.1130 C   0  0  0  0  0  0  0  0  0  0  0  0
  139.1870   67.4570  224.9830 O   0  0  0  0  0  0  0  0  0  0  0  0
  139.3920   69.5200  224.0890 N   0  0  0  0  0  0  0  0  0  0  0  0
  138.7650   69.0430  222.9070 C   0  0  0  0  0  0  0  0  0  0  0  0
  137.2810   68.8670  223.1350 C   0  0  0  0  0  0  0  0  0  0  0  0
  136.4780   68.6070  221.8950 C   0  0  0  0  0  0  0  0  0  0  0  0
  135.0770   68.2340  222.2780 C   0  0  0  0  0  0  0  0  0  0  0  0
  134.7970   68.5360  223.7050 C   0  0  0  0  0  0  0  0  0  0  0  0
  135.2550   69.9090  224.1570 C   0  0  0  0  0  0  0  0  0  0  0  0
  136.7190   70.1180  223.8250 C   0  0  0  0  0  0  0  0  0  0  0  0
  140.5490   74.2520  221.7230 C   0  0  0  0  0  0  0  0  0  0  0  0
  139.1810   76.9360  221.4310 C   0  0  0  0  0  0  0  0  0  0  0  0
  139.0280   77.7260  222.7120 C   0  0  0  0  0  0  0  0  0  0  0  0
  139.7032   79.2410  224.7900 H   0  0  0  0  0  0  0  0  0  0  0  0
  140.2002   80.6563  223.8018 H   0  0  0  0  0  0  0  0  0  0  0  0
  138.4864   80.1183  223.8018 H   0  0  0  0  0  0  0  0  0  0  0  0
  141.6781   79.7068  222.3373 H   0  0  0  0  0  0  0  0  0  0  0  0
  141.6374   78.1945  223.3472 H   0  0  0  0  0  0  0  0  0  0  0  0
  141.1947   78.4714  220.3669 H   0  0  0  0  0  0  0  0  0  0  0  0
  142.5037   77.5848  221.2463 H   0  0  0  0  0  0  0  0  0  0  0  0
  142.8799   75.9909  220.0505 H   0  0  0  0  0  0  0  0  0  0  0  0
  143.8181   73.6823  219.8498 H   0  0  0  0  0  0  0  0  0  0  0  0
  140.6447   70.8312  221.6934 H   0  0  0  0  0  0  0  0  0  0  0  0
  138.8351   72.5524  223.3099 H   0  0  0  0  0  0  0  0  0  0  0  0
  141.4852   71.7752  227.7978 H   0  0  0  0  0  0  0  0  0  0  0  0
  141.7658   70.1066  229.6372 H   0  0  0  0  0  0  0  0  0  0  0  0
  141.0143   67.7565  229.3646 H   0  0  0  0  0  0  0  0  0  0  0  0
  139.9855   67.0871  227.2337 H   0  0  0  0  0  0  0  0  0  0  0  0
  138.9240   69.7671  222.0943 H   0  0  0  0  0  0  0  0  0  0  0  0
  139.2033   68.0710  222.6366 H   0  0  0  0  0  0  0  0  0  0  0  0
  137.1858   67.9678  223.7614 H   0  0  0  0  0  0  0  0  0  0  0  0
  136.4593   69.5141  221.2730 H   0  0  0  0  0  0  0  0  0  0  0  0
  136.9353   67.7834  221.3271 H   0  0  0  0  0  0  0  0  0  0  0  0
  134.3734   68.7996  221.6495 H   0  0  0  0  0  0  0  0  0  0  0  0
  134.9581   67.1508  222.1277 H   0  0  0  0  0  0  0  0  0  0  0  0
  133.7109   68.4660  223.8646 H   0  0  0  0  0  0  0  0  0  0  0  0
  135.3660   67.8047  224.2978 H   0  0  0  0  0  0  0  0  0  0  0  0
  134.6551   70.6767  223.6463 H   0  0  0  0  0  0  0  0  0  0  0  0
  135.1234   69.9864  225.2464 H   0  0  0  0  0  0  0  0  0  0  0  0
  136.8209   70.9825  223.1525 H   0  0  0  0  0  0  0  0  0  0  0  0
  137.2787   70.3021  224.7539 H   0  0  0  0  0  0  0  0  0  0  0  0
  139.6035   74.3859  222.2691 H   0  0  0  0  0  0  0  0  0  0  0  0
  138.8081   77.5188  220.5758 H   0  0  0  0  0  0  0  0  0  0  0  0
  138.6046   75.9997  221.4641 H   0  0  0  0  0  0  0  0  0  0  0  0
  137.9680   77.9963  222.8271 H   0  0  0  0  0  0  0  0  0  0  0  0
  139.3925   77.0837  223.5273 H   0  0  0  0  0  0  0  0  0  0  0  0
  1  2  1  0
  2  3  1  0
  3  4  1  0
  4  5  1  0
  5  6  1  0
  6  7  2  0
  7  8  1  0
  8  9  2  0
  9 10  1  0
 10 11  1  0
 11 12  2  0
 12 13  1  0
 13 14  2  0
 14 15  1  0
 15 16  2  0
 16 17  1  0
 17 18  2  0
 18 19  1  0
 19 20  2  0
 20 21  1  0
 21 22  2  0
 21 23  1  0
 23 24  1  0
 24 25  1  0
 25 26  1  0
 26 27  1  0
 27 28  1  0
 28 29  1  0
 29 30  1  0
 10 31  2  0
  5 32  1  0
 32 33  1  0
 33  2  1  0
 31  6  1  0
 23 13  1  0
 30 25  1  0
 20 15  1  0
  1 34  1  0
  1 35  1  0
  1 36  1  0
  3 37  1  0
  3 38  1  0
  4 39  1  0
  4 40  1  0
  7 41  1  0
  8 42  1  0
 11 43  1  0
 12 44  1  0
 16 45  1  0
 17 46  1  0
 18 47  1  0
 19 48  1  0
 24 49  1  0
 24 50  1  0
 25 51  1  0
 26 52  1  0
 26 53  1  0
 27 54  1  0
 27 55  1  0
 28 56  1  0
 28 57  1  0
 29 58  1  0
 29 59  1  0
 30 60  1  0
 30 61  1  0
 31 62  1  0
 32 63  1  0
 32 64  1  0
 33 65  1  0
 33 66  1  0
M  END
>  <smiles>  (16) 
CN1CCN(c2ccnc(/C=C/c3nc4ccccc4c(=O)n3CC3CCCCC3)c2)CC1

>  <score_type>  (16) 
oracle

>  <origin>  (16) 
autodockgpu

>  <m_score__min__energy>  (16) 
-8.8100000000000005

>  <m_primary>  (16) 
energy

>  <rmsd>  (16) 
12.10803312495674

>  <m_score__min__rmsd>  (16) 
12.10803312495674

>  <meeko>  (16) 
{"free_energy": -8.38, "intermolecular_energy": -10.17, "internal_energy": -1.46, "cluster_size": 24, "cluster_id": 1, "rank_in_cluster": 20}

>  <energy>  (16) 
-8.46

>  <cluster_rmsd>  (16) 
1.56

>  <cluster>  (16) 
1

$$$$

     RDKit          3D

 66 70  0  0  0  0  0  0  0  0999 V2000
  145.9360   71.6800  216.8260 C   0  0  0  0  0  0  0  0  0  0  0  0
  145.4930   72.5900  217.8200 N   0  0  0  0  0  0  0  0  0  0  0  0
  144.4270   73.4600  217.3950 C   0  0  0  0  0  0  0  0  0  0  0  0
  144.0520   74.4680  218.4480 C   0  0  0  0  0  0  0  0  0  0  0  0
  143.8710   73.8300  219.7480 N   0  0  0  0  0  0  0  0  0  0  0  0
  142.6880   73.9310  220.5060 C   0  0  0  0  0  0  0  0  0  0  0  0
  142.1610   75.1750  220.8330 C   0  0  0  0  0  0  0  0  0  0  0  0
  140.9940   75.2900  221.5950 C   0  0  0  0  0  0  0  0  0  0  0  0
  140.3930   74.1840  222.0040 N   0  0  0  0  0  0  0  0  0  0  0  0
  140.8390   72.9400  221.7310 C   0  0  0  0  0  0  0  0  0  0  0  0
  140.0880   71.8040  222.2410 C   0  0  0  0  0  0  0  0  0  0  0  0
  139.4190   71.8020  223.3790 C   0  0  0  0  0  0  0  0  0  0  0  0
  139.6890   70.7480  224.3830 C   0  0  0  0  0  0  0  0  0  0  0  0
  140.2720   71.1030  225.5520 N   0  0  0  0  0  0  0  0  0  0  0  0
  140.5300   70.2150  226.5310 C   0  0  0  0  0  0  0  0  0  0  0  0
  141.1330   70.6260  227.7240 C   0  0  0  0  0  0  0  0  0  0  0  0
  141.3690   69.6500  228.6940 C   0  0  0  0  0  0  0  0  0  0  0  0
  141.0280   68.3270  228.5040 C   0  0  0  0  0  0  0  0  0  0  0  0
  140.4410   67.9910  227.3150 C   0  0  0  0  0  0  0  0  0  0  0  0
  140.1790   68.9000  226.3150 C   0  0  0  0  0  0  0  0  0  0  0  0
  139.5930   68.5830  225.1180 C   0  0  0  0  0  0  0  0  0  0  0  0
  139.2780   67.3640  224.9420 O   0  0  0  0  0  0  0  0  0  0  0  0
  139.3370   69.4750  224.1410 N   0  0  0  0  0  0  0  0  0  0  0  0
  138.7020   69.0170  222.9560 C   0  0  0  0  0  0  0  0  0  0  0  0
  137.2040   69.1900  223.0620 C   0  0  0  0  0  0  0  0  0  0  0  0
  136.6760   69.2780  224.4620 C   0  0  0  0  0  0  0  0  0  0  0  0
  135.2290   69.6680  224.4260 C   0  0  0  0  0  0  0  0  0  0  0  0
  134.6580   69.5400  223.0600 C   0  0  0  0  0  0  0  0  0  0  0  0
  135.0050   68.2440  222.3540 C   0  0  0  0  0  0  0  0  0  0  0  0
  136.5040   68.0240  222.3490 C   0  0  0  0  0  0  0  0  0  0  0  0
  141.9830   72.8400  220.9840 C   0  0  0  0  0  0  0  0  0  0  0  0
  145.0390   73.0510  220.2000 C   0  0  0  0  0  0  0  0  0  0  0  0
  145.3030   72.0270  219.1180 C   0  0  0  0  0  0  0  0  0  0  0  0
  146.3686   70.7914  217.3090 H   0  0  0  0  0  0  0  0  0  0  0  0
  145.0839   71.3783  216.1991 H   0  0  0  0  0  0  0  0  0  0  0  0
  146.6990   72.1646  216.1991 H   0  0  0  0  0  0  0  0  0  0  0  0
  144.7493   73.9974  216.4910 H   0  0  0  0  0  0  0  0  0  0  0  0
  143.5429   72.8352  217.2001 H   0  0  0  0  0  0  0  0  0  0  0  0
  144.8509   75.2202  218.5255 H   0  0  0  0  0  0  0  0  0  0  0  0
  143.1022   74.9400  218.1561 H   0  0  0  0  0  0  0  0  0  0  0  0
  142.6712   76.0857  220.4860 H   0  0  0  0  0  0  0  0  0  0  0  0
  140.5843   76.2787  221.8491 H   0  0  0  0  0  0  0  0  0  0  0  0
  140.0766   70.8842  221.6378 H   0  0  0  0  0  0  0  0  0  0  0  0
  138.6660   72.5783  223.5800 H   0  0  0  0  0  0  0  0  0  0  0  0
  141.4105   71.6772  227.8916 H   0  0  0  0  0  0  0  0  0  0  0  0
  141.8428   69.9460  229.6416 H   0  0  0  0  0  0  0  0  0  0  0  0
  141.2208   67.5708  229.2792 H   0  0  0  0  0  0  0  0  0  0  0  0
  140.1638   66.9395  227.1493 H   0  0  0  0  0  0  0  0  0  0  0  0
  139.0742   69.5961  222.0980 H   0  0  0  0  0  0  0  0  0  0  0  0
  138.9297   67.9497  222.8181 H   0  0  0  0  0  0  0  0  0  0  0  0
  136.9868   70.1582  222.5873 H   0  0  0  0  0  0  0  0  0  0  0  0
  136.7802   68.3004  224.9555 H   0  0  0  0  0  0  0  0  0  0  0  0
  137.2459   70.0338  225.0223 H   0  0  0  0  0  0  0  0  0  0  0  0
  134.6669   69.0150  225.1098 H   0  0  0  0  0  0  0  0  0  0  0  0
  135.1506   70.7215  224.7326 H   0  0  0  0  0  0  0  0  0  0  0  0
  133.5628   69.6068  223.1375 H   0  0  0  0  0  0  0  0  0  0  0  0
  135.0962   70.3510  222.4598 H   0  0  0  0  0  0  0  0  0  0  0  0
  134.5185   67.4067  222.8758 H   0  0  0  0  0  0  0  0  0  0  0  0
  134.6516   68.3013  221.3139 H   0  0  0  0  0  0  0  0  0  0  0  0
  136.7368   67.0842  222.8712 H   0  0  0  0  0  0  0  0  0  0  0  0
  136.8592   67.9686  221.3094 H   0  0  0  0  0  0  0  0  0  0  0  0
  142.3633   71.8346  220.7506 H   0  0  0  0  0  0  0  0  0  0  0  0
  145.9118   73.7088  220.3246 H   0  0  0  0  0  0  0  0  0  0  0  0
  144.8507   72.5705  221.1714 H   0  0  0  0  0  0  0  0  0  0  0  0
  146.2094   71.4649  219.3874 H   0  0  0  0  0  0  0  0  0  0  0  0
  144.4098   71.3876  219.0600 H   0  0  0  0  0  0  0  0  0  0  0  0
  1  2  1  0
  2  3  1  0
  3  4  1  0
  4  5  1  0
  5  6  1  0
  6  7  2  0
  7  8  1  0
  8  9  2  0
  9 10  1  0
 10 11  1  0
 11 12  2  0
 12 13  1  0
 13 14  2  0
 14 15  1  0
 15 16  2  0
 16 17  1  0
 17 18  2  0
 18 19  1  0
 19 20  2  0
 20 21  1  0
 21 22  2  0
 21 23  1  0
 23 24  1  0
 24 25  1  0
 25 26  1  0
 26 27  1  0
 27 28  1  0
 28 29  1  0
 29 30  1  0
 10 31  2  0
  5 32  1  0
 32 33  1  0
 33  2  1  0
 31  6  1  0
 23 13  1  0
 30 25  1  0
 20 15  1  0
  1 34  1  0
  1 35  1  0
  1 36  1  0
  3 37  1  0
  3 38  1  0
  4 39  1  0
  4 40  1  0
  7 41  1  0
  8 42  1  0
 11 43  1  0
 12 44  1  0
 16 45  1  0
 17 46  1  0
 18 47  1  0
 19 48  1  0
 24 49  1  0
 24 50  1  0
 25 51  1  0
 26 52  1  0
 26 53  1  0
 27 54  1  0
 27 55  1  0
 28 56  1  0
 28 57  1  0
 29 58  1  0
 29 59  1  0
 30 60  1  0
 30 61  1  0
 31 62  1  0
 32 63  1  0
 32 64  1  0
 33 65  1  0
 33 66  1  0
M  END
>  <smiles>  (17) 
CN1CCN(c2ccnc(/C=C/c3nc4ccccc4c(=O)n3CC3CCCCC3)c2)CC1

>  <score_type>  (17) 
oracle

>  <origin>  (17) 
autodockgpu

>  <m_score__min__energy>  (17) 
-8.8100000000000005

>  <m_primary>  (17) 
energy

>  <rmsd>  (17) 
12.137475400927961

>  <m_score__min__rmsd>  (17) 
12.137475400927961

>  <meeko>  (17) 
{"free_energy": -8.8, "intermolecular_energy": -10.59, "internal_energy": -1.39, "cluster_size": 6, "cluster_id": 2, "rank_in_cluster": 1}

>  <energy>  (17) 
-8.44

>  <cluster_rmsd>  (17) 
1.31

>  <cluster>  (17) 
1

$$$$

     RDKit          3D

 66 70  0  0  0  0  0  0  0  0999 V2000
  144.2050   75.4990  215.9540 C   0  0  0  0  0  0  0  0  0  0  0  0
  144.0380   75.4030  217.3600 N   0  0  0  0  0  0  0  0  0  0  0  0
  143.2690   76.4750  217.9400 C   0  0  0  0  0  0  0  0  0  0  0  0
  143.1960   76.3840  219.4400 C   0  0  0  0  0  0  0  0  0  0  0  0
  142.8330   75.0370  219.8690 N   0  0  0  0  0  0  0  0  0  0  0  0
  141.7260   74.7560  220.6950 C   0  0  0  0  0  0  0  0  0  0  0  0
  141.0150   75.7850  221.3000 C   0  0  0  0  0  0  0  0  0  0  0  0
  139.9220   75.5180  222.1310 C   0  0  0  0  0  0  0  0  0  0  0  0
  139.5720   74.2590  222.3330 N   0  0  0  0  0  0  0  0  0  0  0  0
  140.2090   73.2030  221.7840 C   0  0  0  0  0  0  0  0  0  0  0  0
  139.7260   71.8650  222.0860 C   0  0  0  0  0  0  0  0  0  0  0  0
  138.8510   71.5840  223.0330 C   0  0  0  0  0  0  0  0  0  0  0  0
  139.2430   70.6920  224.1490 C   0  0  0  0  0  0  0  0  0  0  0  0
  139.9570   71.2140  225.1730 N   0  0  0  0  0  0  0  0  0  0  0  0
  140.3330   70.4830  226.2400 C   0  0  0  0  0  0  0  0  0  0  0  0
  141.0700   71.0640  227.2770 C   0  0  0  0  0  0  0  0  0  0  0  0
  141.4230   70.2450  228.3510 C   0  0  0  0  0  0  0  0  0  0  0  0
  141.0690   68.9130  228.4070 C   0  0  0  0  0  0  0  0  0  0  0  0
  140.3490   68.4070  227.3610 C   0  0  0  0  0  0  0  0  0  0  0  0
  139.9650   69.1550  226.2710 C   0  0  0  0  0  0  0  0  0  0  0  0
  139.2440   68.6660  225.2130 C   0  0  0  0  0  0  0  0  0  0  0  0
  138.9180   67.4400  225.2640 O   0  0  0  0  0  0  0  0  0  0  0  0
  138.8710   69.4020  224.1480 N   0  0  0  0  0  0  0  0  0  0  0  0
  138.1030   68.7760  223.1290 C   0  0  0  0  0  0  0  0  0  0  0  0
  139.0020   68.3040  222.0090 C   0  0  0  0  0  0  0  0  0  0  0  0
  138.7270   68.9270  220.6740 C   0  0  0  0  0  0  0  0  0  0  0  0
  139.8140   68.5480  219.7130 C   0  0  0  0  0  0  0  0  0  0  0  0
  140.6490   67.4370  220.2370 C   0  0  0  0  0  0  0  0  0  0  0  0
  139.8600   66.2820  220.8220 C   0  0  0  0  0  0  0  0  0  0  0  0
  138.8830   66.7800  221.8690 C   0  0  0  0  0  0  0  0  0  0  0  0
  141.2780   73.4760  220.9720 C   0  0  0  0  0  0  0  0  0  0  0  0
  143.7250   73.9830  219.3520 C   0  0  0  0  0  0  0  0  0  0  0  0
  143.6880   74.1080  217.8440 C   0  0  0  0  0  0  0  0  0  0  0  0
  145.1390   76.0359  215.7315 H   0  0  0  0  0  0  0  0  0  0  0  0
  144.2503   74.4891  215.5203 H   0  0  0  0  0  0  0  0  0  0  0  0
  143.3552   76.0464  215.5203 H   0  0  0  0  0  0  0  0  0  0  0  0
  143.7363   77.4326  217.6668 H   0  0  0  0  0  0  0  0  0  0  0  0
  142.2433   76.4004  217.5498 H   0  0  0  0  0  0  0  0  0  0  0  0
  144.1775   76.6434  219.8636 H   0  0  0  0  0  0  0  0  0  0  0  0
  142.4241   77.0829  219.7947 H   0  0  0  0  0  0  0  0  0  0  0  0
  141.3169   76.8278  221.1224 H   0  0  0  0  0  0  0  0  0  0  0  0
  139.3650   76.3386  222.6067 H   0  0  0  0  0  0  0  0  0  0  0  0
  140.1164   71.0309  221.4845 H   0  0  0  0  0  0  0  0  0  0  0  0
  137.8373   72.0093  222.9940 H   0  0  0  0  0  0  0  0  0  0  0  0
  141.3601   72.1246  227.2475 H   0  0  0  0  0  0  0  0  0  0  0  0
  142.0028   70.6763  229.1803 H   0  0  0  0  0  0  0  0  0  0  0  0
  141.3553   68.2818  229.2612 H   0  0  0  0  0  0  0  0  0  0  0  0
  140.0612   67.3458  227.3919 H   0  0  0  0  0  0  0  0  0  0  0  0
  137.5702   67.9129  223.5547 H   0  0  0  0  0  0  0  0  0  0  0  0
  137.3822   69.5031  222.7267 H   0  0  0  0  0  0  0  0  0  0  0  0
  140.0167   68.6181  222.2949 H   0  0  0  0  0  0  0  0  0  0  0  0
  137.7594   68.5675  220.2938 H   0  0  0  0  0  0  0  0  0  0  0  0
  138.6954   70.0215  220.7793 H   0  0  0  0  0  0  0  0  0  0  0  0
  139.3564   68.2327  218.7637 H   0  0  0  0  0  0  0  0  0  0  0  0
  140.4626   69.4243  219.5666 H   0  0  0  0  0  0  0  0  0  0  0  0
  141.2642   67.0500  219.4113 H   0  0  0  0  0  0  0  0  0  0  0  0
  141.2484   67.8557  221.0589 H   0  0  0  0  0  0  0  0  0  0  0  0
  139.3029   65.7802  220.0171 H   0  0  0  0  0  0  0  0  0  0  0  0
  140.5599   65.5781  221.2960 H   0  0  0  0  0  0  0  0  0  0  0  0
  137.8583   66.5202  221.5650 H   0  0  0  0  0  0  0  0  0  0  0  0
  139.1143   66.3076  222.8351 H   0  0  0  0  0  0  0  0  0  0  0  0
  141.8108   72.6296  220.5140 H   0  0  0  0  0  0  0  0  0  0  0  0
  144.7496   74.1334  219.7230 H   0  0  0  0  0  0  0  0  0  0  0  0
  143.4022   72.9844  219.6816 H   0  0  0  0  0  0  0  0  0  0  0  0
  144.3927   73.3780  217.4191 H   0  0  0  0  0  0  0  0  0  0  0  0
  142.6486   73.9233  217.5350 H   0  0  0  0  0  0  0  0  0  0  0  0
  1  2  1  0
  2  3  1  0
  3  4  1  0
  4  5  1  0
  5  6  1  0
  6  7  2  0
  7  8  1  0
  8  9  2  0
  9 10  1  0
 10 11  1  0
 11 12  2  0
 12 13  1  0
 13 14  2  0
 14 15  1  0
 15 16  2  0
 16 17  1  0
 17 18  2  0
 18 19  1  0
 19 20  2  0
 20 21  1  0
 21 22  2  0
 21 23  1  0
 23 24  1  0
 24 25  1  0
 25 26  1  0
 26 27  1  0
 27 28  1  0
 28 29  1  0
 29 30  1  0
 10 31  2  0
  5 32  1  0
 32 33  1  0
 33  2  1  0
 31  6  1  0
 23 13  1  0
 30 25  1  0
 20 15  1  0
  1 34  1  0
  1 35  1  0
  1 36  1  0
  3 37  1  0
  3 38  1  0
  4 39  1  0
  4 40  1  0
  7 41  1  0
  8 42  1  0
 11 43  1  0
 12 44  1  0
 16 45  1  0
 17 46  1  0
 18 47  1  0
 19 48  1  0
 24 49  1  0
 24 50  1  0
 25 51  1  0
 26 52  1  0
 26 53  1  0
 27 54  1  0
 27 55  1  0
 28 56  1  0
 28 57  1  0
 29 58  1  0
 29 59  1  0
 30 60  1  0
 30 61  1  0
 31 62  1  0
 32 63  1  0
 32 64  1  0
 33 65  1  0
 33 66  1  0
M  END
>  <smiles>  (18) 
CN1CCN(c2ccnc(/C=C/c3nc4ccccc4c(=O)n3CC3CCCCC3)c2)CC1

>  <score_type>  (18) 
oracle

>  <origin>  (18) 
autodockgpu

>  <m_score__min__energy>  (18) 
-8.8100000000000005

>  <m_primary>  (18) 
energy

>  <rmsd>  (18) 
11.348865854580614

>  <m_score__min__rmsd>  (18) 
11.348865854580614

>  <meeko>  (18) 
{"free_energy": -8.44, "intermolecular_energy": -10.23, "internal_energy": -1.6, "cluster_size": 6, "cluster_id": 2, "rank_in_cluster": 6}

>  <energy>  (18) 
-8.44

>  <cluster_rmsd>  (18) 
1.22

>  <cluster>  (18) 
1

$$$$

     RDKit          3D

 66 70  0  0  0  0  0  0  0  0999 V2000
  142.8120   80.5600  223.7790 C   0  0  0  0  0  0  0  0  0  0  0  0
  141.7530   79.9560  223.0530 N   0  0  0  0  0  0  0  0  0  0  0  0
  142.1850   79.0490  222.0200 C   0  0  0  0  0  0  0  0  0  0  0  0
  141.0350   78.5040  221.2160 C   0  0  0  0  0  0  0  0  0  0  0  0
  139.9680   78.0170  222.0840 N   0  0  0  0  0  0  0  0  0  0  0  0
  139.4600   76.7050  222.0290 C   0  0  0  0  0  0  0  0  0  0  0  0
  138.0890   76.4770  222.0000 C   0  0  0  0  0  0  0  0  0  0  0  0
  137.5710   75.1780  221.9580 C   0  0  0  0  0  0  0  0  0  0  0  0
  138.4150   74.1600  221.9440 N   0  0  0  0  0  0  0  0  0  0  0  0
  139.7580   74.2940  221.9700 C   0  0  0  0  0  0  0  0  0  0  0  0
  140.5780   73.0940  221.9530 C   0  0  0  0  0  0  0  0  0  0  0  0
  140.1120   71.8700  222.1130 C   0  0  0  0  0  0  0  0  0  0  0  0
  140.0500   71.2830  223.4720 C   0  0  0  0  0  0  0  0  0  0  0  0
  140.7320   71.8910  224.4710 N   0  0  0  0  0  0  0  0  0  0  0  0
  140.7090   71.4420  225.7390 C   0  0  0  0  0  0  0  0  0  0  0  0
  141.4290   72.1020  226.7410 C   0  0  0  0  0  0  0  0  0  0  0  0
  141.3580   71.5800  228.0330 C   0  0  0  0  0  0  0  0  0  0  0  0
  140.6120   70.4580  228.3330 C   0  0  0  0  0  0  0  0  0  0  0  0
  139.9310   69.8610  227.3090 C   0  0  0  0  0  0  0  0  0  0  0  0
  139.9560   70.3200  226.0110 C   0  0  0  0  0  0  0  0  0  0  0  0
  139.2820   69.7350  224.9720 C   0  0  0  0  0  0  0  0  0  0  0  0
  138.5940   68.7030  225.2470 O   0  0  0  0  0  0  0  0  0  0  0  0
  139.3080   70.1880  223.7030 N   0  0  0  0  0  0  0  0  0  0  0  0
  138.5430   69.5000  222.7230 C   0  0  0  0  0  0  0  0  0  0  0  0
  137.1140   69.9930  222.7320 C   0  0  0  0  0  0  0  0  0  0  0  0
  136.9080   71.3230  223.3930 C   0  0  0  0  0  0  0  0  0  0  0  0
  135.5080   71.7940  223.1400 C   0  0  0  0  0  0  0  0  0  0  0  0
  134.6480   70.7060  222.6080 C   0  0  0  0  0  0  0  0  0  0  0  0
  134.7710   69.3900  223.3510 C   0  0  0  0  0  0  0  0  0  0  0  0
  136.2220   68.9580  223.4330 C   0  0  0  0  0  0  0  0  0  0  0  0
  140.2540   75.5710  222.0120 C   0  0  0  0  0  0  0  0  0  0  0  0
  139.4710   79.0220  223.0420 C   0  0  0  0  0  0  0  0  0  0  0  0
  140.6740   79.4640  223.8460 C   0  0  0  0  0  0  0  0  0  0  0  0
  142.6247   80.4532  224.8577 H   0  0  0  0  0  0  0  0  0  0  0  0
  143.7611   80.0674  223.5211 H   0  0  0  0  0  0  0  0  0  0  0  0
  142.8712   81.6277  223.5211 H   0  0  0  0  0  0  0  0  0  0  0  0
  142.8670   79.5841  221.3429 H   0  0  0  0  0  0  0  0  0  0  0  0
  142.6851   78.1994  222.5078 H   0  0  0  0  0  0  0  0  0  0  0  0
  140.6374   79.3022  220.5720 H   0  0  0  0  0  0  0  0  0  0  0  0
  141.4018   77.6628  220.6096 H   0  0  0  0  0  0  0  0  0  0  0  0
  137.3988   77.3335  222.0103 H   0  0  0  0  0  0  0  0  0  0  0  0
  136.4846   75.0071  221.9370 H   0  0  0  0  0  0  0  0  0  0  0  0
  141.6601   73.2144  221.7962 H   0  0  0  0  0  0  0  0  0  0  0  0
  139.7717   71.2891  221.2431 H   0  0  0  0  0  0  0  0  0  0  0  0
  142.0277   72.9976  226.5187 H   0  0  0  0  0  0  0  0  0  0  0  0
  141.9151   72.0793  228.8395 H   0  0  0  0  0  0  0  0  0  0  0  0
  140.5672   70.0594  229.3572 H   0  0  0  0  0  0  0  0  0  0  0  0
  139.3313   68.9666  227.5338 H   0  0  0  0  0  0  0  0  0  0  0  0
  138.9818   69.6771  221.7300 H   0  0  0  0  0  0  0  0  0  0  0  0
  138.5519   68.4242  222.9524 H   0  0  0  0  0  0  0  0  0  0  0  0
  136.8445   70.1272  221.6740 H   0  0  0  0  0  0  0  0  0  0  0  0
  137.0715   71.2235  224.4762 H   0  0  0  0  0  0  0  0  0  0  0  0
  137.6208   72.0522  222.9805 H   0  0  0  0  0  0  0  0  0  0  0  0
  135.0784   72.1577  224.0851 H   0  0  0  0  0  0  0  0  0  0  0  0
  135.5476   72.5968  222.3891 H   0  0  0  0  0  0  0  0  0  0  0  0
  133.6004   71.0366  222.6650 H   0  0  0  0  0  0  0  0  0  0  0  0
  134.9827   70.5170  221.5774 H   0  0  0  0  0  0  0  0  0  0  0  0
  134.3715   69.5106  224.3688 H   0  0  0  0  0  0  0  0  0  0  0  0
  134.2019   68.6212  222.8079 H   0  0  0  0  0  0  0  0  0  0  0  0
  136.5192   68.8754  224.4889 H   0  0  0  0  0  0  0  0  0  0  0  0
  136.3389   67.9830  222.9373 H   0  0  0  0  0  0  0  0  0  0  0  0
  141.3459   75.7025  222.0334 H   0  0  0  0  0  0  0  0  0  0  0  0
  139.0344   79.8776  222.5060 H   0  0  0  0  0  0  0  0  0  0  0  0
  138.6847   78.6066  223.6895 H   0  0  0  0  0  0  0  0  0  0  0  0
  140.3568   80.2630  224.5323 H   0  0  0  0  0  0  0  0  0  0  0  0
  141.0475   78.5747  224.3749 H   0  0  0  0  0  0  0  0  0  0  0  0
  1  2  1  0
  2  3  1  0
  3  4  1  0
  4  5  1  0
  5  6  1  0
  6  7  2  0
  7  8  1  0
  8  9  2  0
  9 10  1  0
 10 11  1  0
 11 12  2  0
 12 13  1  0
 13 14  2  0
 14 15  1  0
 15 16  2  0
 16 17  1  0
 17 18  2  0
 18 19  1  0
 19 20  2  0
 20 21  1  0
 21 22  2  0
 21 23  1  0
 23 24  1  0
 24 25  1  0
 25 26  1  0
 26 27  1  0
 27 28  1  0
 28 29  1  0
 29 30  1  0
 10 31  2  0
  5 32  1  0
 32 33  1  0
 33  2  1  0
 31  6  1  0
 23 13  1  0
 30 25  1  0
 20 15  1  0
  1 34  1  0
  1 35  1  0
  1 36  1  0
  3 37  1  0
  3 38  1  0
  4 39  1  0
  4 40  1  0
  7 41  1  0
  8 42  1  0
 11 43  1  0
 12 44  1  0
 16 45  1  0
 17 46  1  0
 18 47  1  0
 19 48  1  0
 24 49  1  0
 24 50  1  0
 25 51  1  0
 26 52  1  0
 26 53  1  0
 27 54  1  0
 27 55  1  0
 28 56  1  0
 28 57  1  0
 29 58  1  0
 29 59  1  0
 30 60  1  0
 30 61  1  0
 31 62  1  0
 32 63  1  0
 32 64  1  0
 33 65  1  0
 33 66  1  0
M  END
>  <smiles>  (19) 
CN1CCN(c2ccnc(/C=C/c3nc4ccccc4c(=O)n3CC3CCCCC3)c2)CC1

>  <score_type>  (19) 
oracle

>  <origin>  (19) 
autodockgpu

>  <m_score__min__energy>  (19) 
-8.8100000000000005

>  <m_primary>  (19) 
energy

>  <rmsd>  (19) 
10.625281449958099

>  <m_score__min__rmsd>  (19) 
10.625281449958099

>  <meeko>  (19) 
{"free_energy": -8.44, "intermolecular_energy": -10.23, "internal_energy": -1.86, "cluster_size": 24, "cluster_id": 1, "rank_in_cluster": 17}

>  <energy>  (19) 
-8.43

>  <cluster_rmsd>  (19) 
1.2

>  <cluster>  (19) 
1

$$$$

     RDKit          3D

 66 70  0  0  0  0  0  0  0  0999 V2000
  140.2370   69.6900  228.1810 C   0  0  0  0  0  0  0  0  0  0  0  0
  140.3280   69.8110  226.7700 N   0  0  0  0  0  0  0  0  0  0  0  0
  139.3230   69.0750  226.0460 C   0  0  0  0  0  0  0  0  0  0  0  0
  139.5120   69.1570  224.5550 C   0  0  0  0  0  0  0  0  0  0  0  0
  139.7240   70.5360  224.1250 N   0  0  0  0  0  0  0  0  0  0  0  0
  138.9270   71.1790  223.1570 C   0  0  0  0  0  0  0  0  0  0  0  0
  137.8560   70.5180  222.5690 C   0  0  0  0  0  0  0  0  0  0  0  0
  137.0650   71.1410  221.5980 C   0  0  0  0  0  0  0  0  0  0  0  0
  137.3550   72.3820  221.2450 N   0  0  0  0  0  0  0  0  0  0  0  0
  138.3770   73.0940  221.7670 C   0  0  0  0  0  0  0  0  0  0  0  0
  138.5920   74.4520  221.2930 C   0  0  0  0  0  0  0  0  0  0  0  0
  139.5810   75.2310  221.6880 C   0  0  0  0  0  0  0  0  0  0  0  0
  140.9470   74.9990  221.1660 C   0  0  0  0  0  0  0  0  0  0  0  0
  141.4820   73.7610  221.2810 N   0  0  0  0  0  0  0  0  0  0  0  0
  142.7050   73.4540  220.8110 C   0  0  0  0  0  0  0  0  0  0  0  0
  143.2190   72.1610  220.9510 C   0  0  0  0  0  0  0  0  0  0  0  0
  144.4940   71.9170  220.4390 C   0  0  0  0  0  0  0  0  0  0  0  0
  145.2360   72.8990  219.8160 C   0  0  0  0  0  0  0  0  0  0  0  0
  144.6770   74.1420  219.7110 C   0  0  0  0  0  0  0  0  0  0  0  0
  143.4250   74.4540  220.1920 C   0  0  0  0  0  0  0  0  0  0  0  0
  142.8480   75.6930  220.0980 C   0  0  0  0  0  0  0  0  0  0  0  0
  143.5310   76.5980  219.5240 O   0  0  0  0  0  0  0  0  0  0  0  0
  141.6230   75.9950  220.5710 N   0  0  0  0  0  0  0  0  0  0  0  0
  141.1330   77.3150  220.3850 C   0  0  0  0  0  0  0  0  0  0  0  0
  141.6810   78.2340  221.4530 C   0  0  0  0  0  0  0  0  0  0  0  0
  141.0380   78.0910  222.8000 C   0  0  0  0  0  0  0  0  0  0  0  0
  141.8120   78.8850  223.8090 C   0  0  0  0  0  0  0  0  0  0  0  0
  142.7650   79.8210  223.1590 C   0  0  0  0  0  0  0  0  0  0  0  0
  142.1780   80.6160  222.0100 C   0  0  0  0  0  0  0  0  0  0  0  0
  141.5340   79.6920  220.9960 C   0  0  0  0  0  0  0  0  0  0  0  0
  139.1440   72.4730  222.7170 C   0  0  0  0  0  0  0  0  0  0  0  0
  140.8450   71.2100  224.8060 C   0  0  0  0  0  0  0  0  0  0  0  0
  140.5400   71.1370  226.2860 C   0  0  0  0  0  0  0  0  0  0  0  0
  140.8333   70.4828  228.6562 H   0  0  0  0  0  0  0  0  0  0  0  0
  139.1858   69.7866  228.4903 H   0  0  0  0  0  0  0  0  0  0  0  0
  140.6214   68.7068  228.4903 H   0  0  0  0  0  0  0  0  0  0  0  0
  139.3711   68.0190  226.3503 H   0  0  0  0  0  0  0  0  0  0  0  0
  138.3457   69.5200  226.2844 H   0  0  0  0  0  0  0  0  0  0  0  0
  140.3868   68.5539  224.2704 H   0  0  0  0  0  0  0  0  0  0  0  0
  138.6029   68.7757  224.0670 H   0  0  0  0  0  0  0  0  0  0  0  0
  137.6258   69.4860  222.8724 H   0  0  0  0  0  0  0  0  0  0  0  0
  136.2191   70.6096  221.1375 H   0  0  0  0  0  0  0  0  0  0  0  0
  137.8828   74.8567  220.5560 H   0  0  0  0  0  0  0  0  0  0  0  0
  139.3919   76.0475  222.4005 H   0  0  0  0  0  0  0  0  0  0  0  0
  142.6405   71.3669  221.4457 H   0  0  0  0  0  0  0  0  0  0  0  0
  144.9216   70.9081  220.5354 H   0  0  0  0  0  0  0  0  0  0  0  0
  146.2401   72.6896  219.4185 H   0  0  0  0  0  0  0  0  0  0  0  0
  145.2577   74.9345  219.2164 H   0  0  0  0  0  0  0  0  0  0  0  0
  141.4448   77.6817  219.3959 H   0  0  0  0  0  0  0  0  0  0  0  0
  140.0352   77.3019  220.4534 H   0  0  0  0  0  0  0  0  0  0  0  0
  142.7339   77.9413  221.5786 H   0  0  0  0  0  0  0  0  0  0  0  0
  140.0042   78.4640  222.7545 H   0  0  0  0  0  0  0  0  0  0  0  0
  141.0322   77.0308  223.0933 H   0  0  0  0  0  0  0  0  0  0  0  0
  141.1070   79.4641  224.4236 H   0  0  0  0  0  0  0  0  0  0  0  0
  142.3899   78.1825  224.4275 H   0  0  0  0  0  0  0  0  0  0  0  0
  143.1236   80.5299  223.9198 H   0  0  0  0  0  0  0  0  0  0  0  0
  143.5701   79.2036  222.7340 H   0  0  0  0  0  0  0  0  0  0  0  0
  141.4186   81.3093  222.4008 H   0  0  0  0  0  0  0  0  0  0  0  0
  142.9863   81.1757  221.5166 H   0  0  0  0  0  0  0  0  0  0  0  0
  140.4662   79.9395  220.9030 H   0  0  0  0  0  0  0  0  0  0  0  0
  142.0304   79.8190  220.0226 H   0  0  0  0  0  0  0  0  0  0  0  0
  139.9812   73.0357  223.1557 H   0  0  0  0  0  0  0  0  0  0  0  0
  141.7914   70.6948  224.5852 H   0  0  0  0  0  0  0  0  0  0  0  0
  140.9534   72.2513  224.4684 H   0  0  0  0  0  0  0  0  0  0  0  0
  141.3863   71.5748  226.8357 H   0  0  0  0  0  0  0  0  0  0  0  0
  139.6013   71.6880  226.4452 H   0  0  0  0  0  0  0  0  0  0  0  0
  1  2  1  0
  2  3  1  0
  3  4  1  0
  4  5  1  0
  5  6  1  0
  6  7  2  0
  7  8  1  0
  8  9  2  0
  9 10  1  0
 10 11  1  0
 11 12  2  0
 12 13  1  0
 13 14  2  0
 14 15  1  0
 15 16  2  0
 16 17  1  0
 17 18  2  0
 18 19  1  0
 19 20  2  0
 20 21  1  0
 21 22  2  0
 21 23  1  0
 23 24  1  0
 24 25  1  0
 25 26  1  0
 26 27  1  0
 27 28  1  0
 28 29  1  0
 29 30  1  0
 10 31  2  0
  5 32  1  0
 32 33  1  0
 33  2  1  0
 31  6  1  0
 23 13  1  0
 30 25  1  0
 20 15  1  0
  1 34  1  0
  1 35  1  0
  1 36  1  0
  3 37  1  0
  3 38  1  0
  4 39  1  0
  4 40  1  0
  7 41  1  0
  8 42  1  0
 11 43  1  0
 12 44  1  0
 16 45  1  0
 17 46  1  0
 18 47  1  0
 19 48  1  0
 24 49  1  0
 24 50  1  0
 25 51  1  0
 26 52  1  0
 26 53  1  0
 27 54  1  0
 27 55  1  0
 28 56  1  0
 28 57  1  0
 29 58  1  0
 29 59  1  0
 30 60  1  0
 30 61  1  0
 31 62  1  0
 32 63  1  0
 32 64  1  0
 33 65  1  0
 33 66  1  0
M  END
>  <smiles>  (20) 
CN1CCN(c2ccnc(/C=C/c3nc4ccccc4c(=O)n3CC3CCCCC3)c2)CC1

>  <score_type>  (20) 
oracle

>  <origin>  (20) 
autodockgpu

>  <m_score__min__energy>  (20) 
-8.8100000000000005

>  <m_primary>  (20) 
energy

>  <rmsd>  (20) 
7.816589480923351

>  <m_score__min__rmsd>  (20) 
7.816589480923351

>  <meeko>  (20) 
{"free_energy": -8.18, "intermolecular_energy": -9.97, "internal_energy": -1.78, "cluster_size": 3, "cluster_id": 3, "rank_in_cluster": 3}

>  <energy>  (20) 
-8.38

>  <cluster_rmsd>  (20) 
0.91

>  <cluster>  (20) 
1

$$$$

     RDKit          3D

 66 70  0  0  0  0  0  0  0  0999 V2000
  140.6920   68.8300  228.3400 C   0  0  0  0  0  0  0  0  0  0  0  0
  140.6220   69.2030  226.9730 N   0  0  0  0  0  0  0  0  0  0  0  0
  139.5470   68.5800  226.2430 C   0  0  0  0  0  0  0  0  0  0  0  0
  139.5660   68.9300  224.7800 C   0  0  0  0  0  0  0  0  0  0  0  0
  139.7170   70.3680  224.5840 N   0  0  0  0  0  0  0  0  0  0  0  0
  138.8120   71.1500  223.8400 C   0  0  0  0  0  0  0  0  0  0  0  0
  137.4410   70.9560  223.9630 C   0  0  0  0  0  0  0  0  0  0  0  0
  136.5320   71.7170  223.2210 C   0  0  0  0  0  0  0  0  0  0  0  0
  137.0020   72.6360  222.3930 N   0  0  0  0  0  0  0  0  0  0  0  0
  138.3170   72.8870  222.2150 C   0  0  0  0  0  0  0  0  0  0  0  0
  138.7050   73.9240  221.2730 C   0  0  0  0  0  0  0  0  0  0  0  0
  139.5630   74.8910  221.5390 C   0  0  0  0  0  0  0  0  0  0  0  0
  140.9700   74.7620  221.0920 C   0  0  0  0  0  0  0  0  0  0  0  0
  141.5730   73.5550  221.1950 N   0  0  0  0  0  0  0  0  0  0  0  0
  142.8390   73.3420  220.7890 C   0  0  0  0  0  0  0  0  0  0  0  0
  143.4230   72.0780  220.9130 C   0  0  0  0  0  0  0  0  0  0  0  0
  144.7390   71.9320  220.4700 C   0  0  0  0  0  0  0  0  0  0  0  0
  145.4530   72.9810  219.9280 C   0  0  0  0  0  0  0  0  0  0  0  0
  144.8240   74.1910  219.8350 C   0  0  0  0  0  0  0  0  0  0  0  0
  143.5290   74.4070  220.2510 C   0  0  0  0  0  0  0  0  0  0  0  0
  142.8820   75.6120  220.1670 C   0  0  0  0  0  0  0  0  0  0  0  0
  143.5390   76.5780  219.6670 O   0  0  0  0  0  0  0  0  0  0  0  0
  141.6150   75.8200  220.5750 N   0  0  0  0  0  0  0  0  0  0  0  0
  141.0550   77.1150  220.4080 C   0  0  0  0  0  0  0  0  0  0  0  0
  141.6210   78.0690  221.4340 C   0  0  0  0  0  0  0  0  0  0  0  0
  141.0290   77.9450  222.8060 C   0  0  0  0  0  0  0  0  0  0  0  0
  141.8220   78.7780  223.7680 C   0  0  0  0  0  0  0  0  0  0  0  0
  142.7320   79.7170  223.0630 C   0  0  0  0  0  0  0  0  0  0  0  0
  142.0890   80.4730  221.9180 C   0  0  0  0  0  0  0  0  0  0  0  0
  141.4280   79.5130  220.9500 C   0  0  0  0  0  0  0  0  0  0  0  0
  139.1970   72.1350  222.9470 C   0  0  0  0  0  0  0  0  0  0  0  0
  140.9030   70.9410  225.2460 C   0  0  0  0  0  0  0  0  0  0  0  0
  140.7680   70.5980  226.7140 C   0  0  0  0  0  0  0  0  0  0  0  0
  140.5258   69.7157  228.9707 H   0  0  0  0  0  0  0  0  0  0  0  0
  139.9195   68.0768  228.5546 H   0  0  0  0  0  0  0  0  0  0  0  0
  141.6850   68.4082  228.5546 H   0  0  0  0  0  0  0  0  0  0  0  0
  139.6367   67.4885  226.3459 H   0  0  0  0  0  0  0  0  0  0  0  0
  138.5996   68.9491  226.6629 H   0  0  0  0  0  0  0  0  0  0  0  0
  140.4079   68.4117  224.2979 H   0  0  0  0  0  0  0  0  0  0  0  0
  138.6108   68.6158  224.3340 H   0  0  0  0  0  0  0  0  0  0  0  0
  137.0642   70.1899  224.6566 H   0  0  0  0  0  0  0  0  0  0  0  0
  135.4488   71.5550  223.3235 H   0  0  0  0  0  0  0  0  0  0  0  0
  138.2528   73.9012  220.2705 H   0  0  0  0  0  0  0  0  0  0  0  0
  139.2361   75.7861  222.0885 H   0  0  0  0  0  0  0  0  0  0  0  0
  142.8674   71.2315  221.3428 H   0  0  0  0  0  0  0  0  0  0  0  0
  145.2228   70.9478  220.5559 H   0  0  0  0  0  0  0  0  0  0  0  0
  146.4893   72.8485  219.5837 H   0  0  0  0  0  0  0  0  0  0  0  0
  145.3813   75.0365  219.4054 H   0  0  0  0  0  0  0  0  0  0  0  0
  141.2915   77.4850  219.3995 H   0  0  0  0  0  0  0  0  0  0  0  0
  139.9649   77.0527  220.5413 H   0  0  0  0  0  0  0  0  0  0  0  0
  142.6835   77.8001  221.5281 H   0  0  0  0  0  0  0  0  0  0  0  0
  139.9867   78.2963  222.7890 H   0  0  0  0  0  0  0  0  0  0  0  0
  141.0552   76.8922  223.1236 H   0  0  0  0  0  0  0  0  0  0  0  0
  141.1275   79.3574  224.3940 H   0  0  0  0  0  0  0  0  0  0  0  0
  142.4359   78.1018  224.3812 H   0  0  0  0  0  0  0  0  0  0  0  0
  143.1026   80.4506  223.7941 H   0  0  0  0  0  0  0  0  0  0  0  0
  143.5339   79.1056  222.6236 H   0  0  0  0  0  0  0  0  0  0  0  0
  141.3304   81.1609  222.3197 H   0  0  0  0  0  0  0  0  0  0  0  0
  142.8679   81.0361  221.3829 H   0  0  0  0  0  0  0  0  0  0  0  0
  140.3527   79.7373  220.8906 H   0  0  0  0  0  0  0  0  0  0  0  0
  141.8865   79.6268  219.9566 H   0  0  0  0  0  0  0  0  0  0  0  0
  140.2727   72.3249  222.8177 H   0  0  0  0  0  0  0  0  0  0  0  0
  141.8219   70.4992  224.8332 H   0  0  0  0  0  0  0  0  0  0  0  0
  140.9654   72.0282  225.0904 H   0  0  0  0  0  0  0  0  0  0  0  0
  141.6679   70.9545  227.2366 H   0  0  0  0  0  0  0  0  0  0  0  0
  139.8492   71.0858  227.0715 H   0  0  0  0  0  0  0  0  0  0  0  0
  1  2  1  0
  2  3  1  0
  3  4  1  0
  4  5  1  0
  5  6  1  0
  6  7  2  0
  7  8  1  0
  8  9  2  0
  9 10  1  0
 10 11  1  0
 11 12  2  0
 12 13  1  0
 13 14  2  0
 14 15  1  0
 15 16  2  0
 16 17  1  0
 17 18  2  0
 18 19  1  0
 19 20  2  0
 20 21  1  0
 21 22  2  0
 21 23  1  0
 23 24  1  0
 24 25  1  0
 25 26  1  0
 26 27  1  0
 27 28  1  0
 28 29  1  0
 29 30  1  0
 10 31  2  0
  5 32  1  0
 32 33  1  0
 33  2  1  0
 31  6  1  0
 23 13  1  0
 30 25  1  0
 20 15  1  0
  1 34  1  0
  1 35  1  0
  1 36  1  0
  3 37  1  0
  3 38  1  0
  4 39  1  0
  4 40  1  0
  7 41  1  0
  8 42  1  0
 11 43  1  0
 12 44  1  0
 16 45  1  0
 17 46  1  0
 18 47  1  0
 19 48  1  0
 24 49  1  0
 24 50  1  0
 25 51  1  0
 26 52  1  0
 26 53  1  0
 27 54  1  0
 27 55  1  0
 28 56  1  0
 28 57  1  0
 29 58  1  0
 29 59  1  0
 30 60  1  0
 30 61  1  0
 31 62  1  0
 32 63  1  0
 32 64  1  0
 33 65  1  0
 33 66  1  0
M  END
>  <smiles>  (21) 
CN1CCN(c2ccnc(/C=C/c3nc4ccccc4c(=O)n3CC3CCCCC3)c2)CC1

>  <score_type>  (21) 
oracle

>  <origin>  (21) 
autodockgpu

>  <m_score__min__energy>  (21) 
-8.8100000000000005

>  <m_primary>  (21) 
energy

>  <rmsd>  (21) 
7.836585228089791

>  <m_score__min__rmsd>  (21) 
7.836585228089791

>  <meeko>  (21) 
{"free_energy": -8.47, "intermolecular_energy": -10.26, "internal_energy": -1.64, "cluster_size": 3, "cluster_id": 3, "rank_in_cluster": 1}

>  <energy>  (21) 
-8.36

>  <cluster_rmsd>  (21) 
1.57

>  <cluster>  (21) 
1

$$$$

     RDKit          3D

 66 70  0  0  0  0  0  0  0  0999 V2000
  132.1500   67.9880  226.0950 C   0  0  0  0  0  0  0  0  0  0  0  0
  133.1960   68.9460  226.0470 N   0  0  0  0  0  0  0  0  0  0  0  0
  134.3700   68.5070  225.3390 C   0  0  0  0  0  0  0  0  0  0  0  0
  135.4860   69.5160  225.3920 C   0  0  0  0  0  0  0  0  0  0  0  0
  135.0040   70.8520  225.0570 N   0  0  0  0  0  0  0  0  0  0  0  0
  135.5480   71.6380  224.0220 C   0  0  0  0  0  0  0  0  0  0  0  0
  134.7290   72.4400  223.2360 C   0  0  0  0  0  0  0  0  0  0  0  0
  135.2560   73.2150  222.1970 C   0  0  0  0  0  0  0  0  0  0  0  0
  136.5590   73.1720  221.9730 N   0  0  0  0  0  0  0  0  0  0  0  0
  137.4220   72.4200  222.6880 C   0  0  0  0  0  0  0  0  0  0  0  0
  138.8330   72.4600  222.3400 C   0  0  0  0  0  0  0  0  0  0  0  0
  139.6440   71.4210  222.3930 C   0  0  0  0  0  0  0  0  0  0  0  0
  139.7200   70.6160  223.6330 C   0  0  0  0  0  0  0  0  0  0  0  0
  140.0790   71.2320  224.7840 N   0  0  0  0  0  0  0  0  0  0  0  0
  140.1480   70.5830  225.9610 C   0  0  0  0  0  0  0  0  0  0  0  0
  140.5230   71.2600  227.1260 C   0  0  0  0  0  0  0  0  0  0  0  0
  140.5720   70.5230  228.3110 C   0  0  0  0  0  0  0  0  0  0  0  0
  140.2650   69.1780  228.3520 C   0  0  0  0  0  0  0  0  0  0  0  0
  139.9060   68.5760  227.1790 C   0  0  0  0  0  0  0  0  0  0  0  0
  139.8360   69.2410  225.9750 C   0  0  0  0  0  0  0  0  0  0  0  0
  139.4790   68.6550  224.7890 C   0  0  0  0  0  0  0  0  0  0  0  0
  139.1960   67.4170  224.8270 O   0  0  0  0  0  0  0  0  0  0  0  0
  139.4120   69.3090  223.6130 N   0  0  0  0  0  0  0  0  0  0  0  0
  139.0040   68.5860  222.4600 C   0  0  0  0  0  0  0  0  0  0  0  0
  137.5070   68.6930  222.2760 C   0  0  0  0  0  0  0  0  0  0  0  0
  136.7940   67.3820  222.1310 C   0  0  0  0  0  0  0  0  0  0  0  0
  135.3130   67.6120  222.1800 C   0  0  0  0  0  0  0  0  0  0  0  0
  134.9740   69.0510  222.0310 C   0  0  0  0  0  0  0  0  0  0  0  0
  135.7090   69.7550  220.9070 C   0  0  0  0  0  0  0  0  0  0  0  0
  137.2050   69.5500  221.0390 C   0  0  0  0  0  0  0  0  0  0  0  0
  136.8950   71.6650  223.7020 C   0  0  0  0  0  0  0  0  0  0  0  0
  133.8800   71.3100  225.8940 C   0  0  0  0  0  0  0  0  0  0  0  0
  132.7880   70.2760  225.7300 C   0  0  0  0  0  0  0  0  0  0  0  0
  131.9056   67.7642  227.1439 H   0  0  0  0  0  0  0  0  0  0  0  0
  131.2602   68.3910  225.5892 H   0  0  0  0  0  0  0  0  0  0  0  0
  132.4734   67.0663  225.5892 H   0  0  0  0  0  0  0  0  0  0  0  0
  134.7225   67.5672  225.7889 H   0  0  0  0  0  0  0  0  0  0  0  0
  134.0923   68.3708  224.2834 H   0  0  0  0  0  0  0  0  0  0  0  0
  135.9087   69.5309  226.4074 H   0  0  0  0  0  0  0  0  0  0  0  0
  136.2525   69.2273  224.6578 H   0  0  0  0  0  0  0  0  0  0  0  0
  133.6473   72.4659  223.4342 H   0  0  0  0  0  0  0  0  0  0  0  0
  134.6006   73.8467  221.5795 H   0  0  0  0  0  0  0  0  0  0  0  0
  139.2527   73.4218  222.0102 H   0  0  0  0  0  0  0  0  0  0  0  0
  140.2599   71.1545  221.5214 H   0  0  0  0  0  0  0  0  0  0  0  0
  140.7698   72.3318  227.1094 H   0  0  0  0  0  0  0  0  0  0  0  0
  140.8647   71.0307  229.2419 H   0  0  0  0  0  0  0  0  0  0  0  0
  140.3077   68.6117  229.2940 H   0  0  0  0  0  0  0  0  0  0  0  0
  139.6600   67.5040  227.1973 H   0  0  0  0  0  0  0  0  0  0  0  0
  139.5089   68.9998  221.5747 H   0  0  0  0  0  0  0  0  0  0  0  0
  139.2741   67.5273  222.5874 H   0  0  0  0  0  0  0  0  0  0  0  0
  137.1302   69.1517  223.2021 H   0  0  0  0  0  0  0  0  0  0  0  0
  137.0624   66.9229  221.1681 H   0  0  0  0  0  0  0  0  0  0  0  0
  137.0888   66.7109  222.9512 H   0  0  0  0  0  0  0  0  0  0  0  0
  134.8376   67.0477  221.3642 H   0  0  0  0  0  0  0  0  0  0  0  0
  134.9461   67.2735  223.1602 H   0  0  0  0  0  0  0  0  0  0  0  0
  133.8938   69.1319  221.8393 H   0  0  0  0  0  0  0  0  0  0  0  0
  135.2822   69.5442  222.9647 H   0  0  0  0  0  0  0  0  0  0  0  0
  135.3716   69.3470  219.9428 H   0  0  0  0  0  0  0  0  0  0  0  0
  135.4920   70.8320  220.9605 H   0  0  0  0  0  0  0  0  0  0  0  0
  137.5841   69.0406  220.1408 H   0  0  0  0  0  0  0  0  0  0  0  0
  137.6967   70.5280  221.1468 H   0  0  0  0  0  0  0  0  0  0  0  0
  137.5814   71.0442  224.2965 H   0  0  0  0  0  0  0  0  0  0  0  0
  134.1898   71.3746  226.9475 H   0  0  0  0  0  0  0  0  0  0  0  0
  133.5355   72.3103  225.5928 H   0  0  0  0  0  0  0  0  0  0  0  0
  131.9518   70.5481  226.3909 H   0  0  0  0  0  0  0  0  0  0  0  0
  132.5053   70.2774  224.6669 H   0  0  0  0  0  0  0  0  0  0  0  0
  1  2  1  0
  2  3  1  0
  3  4  1  0
  4  5  1  0
  5  6  1  0
  6  7  2  0
  7  8  1  0
  8  9  2  0
  9 10  1  0
 10 11  1  0
 11 12  2  0
 12 13  1  0
 13 14  2  0
 14 15  1  0
 15 16  2  0
 16 17  1  0
 17 18  2  0
 18 19  1  0
 19 20  2  0
 20 21  1  0
 21 22  2  0
 21 23  1  0
 23 24  1  0
 24 25  1  0
 25 26  1  0
 26 27  1  0
 27 28  1  0
 28 29  1  0
 29 30  1  0
 10 31  2  0
  5 32  1  0
 32 33  1  0
 33  2  1  0
 31  6  1  0
 23 13  1  0
 30 25  1  0
 20 15  1  0
  1 34  1  0
  1 35  1  0
  1 36  1  0
  3 37  1  0
  3 38  1  0
  4 39  1  0
  4 40  1  0
  7 41  1  0
  8 42  1  0
 11 43  1  0
 12 44  1  0
 16 45  1  0
 17 46  1  0
 18 47  1  0
 19 48  1  0
 24 49  1  0
 24 50  1  0
 25 51  1  0
 26 52  1  0
 26 53  1  0
 27 54  1  0
 27 55  1  0
 28 56  1  0
 28 57  1  0
 29 58  1  0
 29 59  1  0
 30 60  1  0
 30 61  1  0
 31 62  1  0
 32 63  1  0
 32 64  1  0
 33 65  1  0
 33 66  1  0
M  END
>  <smiles>  (22) 
CN1CCN(c2ccnc(/C=C/c3nc4ccccc4c(=O)n3CC3CCCCC3)c2)CC1

>  <score_type>  (22) 
oracle

>  <origin>  (22) 
autodockgpu

>  <m_score__min__energy>  (22) 
-8.8100000000000005

>  <m_primary>  (22) 
energy

>  <rmsd>  (22) 
11.840317060477576

>  <m_score__min__rmsd>  (22) 
11.840317060477576

>  <meeko>  (22) 
{"free_energy": -6.88, "intermolecular_energy": -8.67, "internal_energy": -3.32, "cluster_size": 8, "cluster_id": 7, "rank_in_cluster": 6}

>  <energy>  (22) 
-8.34

>  <cluster_rmsd>  (22) 
0.91

>  <cluster>  (22) 
1

$$$$

     RDKit          3D

 66 70  0  0  0  0  0  0  0  0999 V2000
  145.9460   71.2320  217.1030 C   0  0  0  0  0  0  0  0  0  0  0  0
  145.4940   72.2070  218.0300 N   0  0  0  0  0  0  0  0  0  0  0  0
  144.4840   73.0940  217.5120 C   0  0  0  0  0  0  0  0  0  0  0  0
  144.1020   74.1670  218.4960 C   0  0  0  0  0  0  0  0  0  0  0  0
  143.8360   73.6020  219.8150 N   0  0  0  0  0  0  0  0  0  0  0  0
  142.6240   73.7870  220.5100 C   0  0  0  0  0  0  0  0  0  0  0  0
  142.2150   75.0580  220.8950 C   0  0  0  0  0  0  0  0  0  0  0  0
  141.0200   75.2530  221.5960 C   0  0  0  0  0  0  0  0  0  0  0  0
  140.2780   74.1980  221.8880 N   0  0  0  0  0  0  0  0  0  0  0  0
  140.6020   72.9310  221.5510 C   0  0  0  0  0  0  0  0  0  0  0  0
  139.7010   71.8570  221.9330 C   0  0  0  0  0  0  0  0  0  0  0  0
  138.9650   71.8540  223.0280 C   0  0  0  0  0  0  0  0  0  0  0  0
  139.3270   70.9550  224.1490 C   0  0  0  0  0  0  0  0  0  0  0  0
  140.0360   71.4640  225.1830 N   0  0  0  0  0  0  0  0  0  0  0  0
  140.3850   70.7270  226.2540 C   0  0  0  0  0  0  0  0  0  0  0  0
  141.1190   71.2940  227.3000 C   0  0  0  0  0  0  0  0  0  0  0  0
  141.4440   70.4690  228.3780 C   0  0  0  0  0  0  0  0  0  0  0  0
  141.0650   69.1430  228.4290 C   0  0  0  0  0  0  0  0  0  0  0  0
  140.3500   68.6500  227.3740 C   0  0  0  0  0  0  0  0  0  0  0  0
  139.9940   69.4050  226.2790 C   0  0  0  0  0  0  0  0  0  0  0  0
  139.2780   68.9300  225.2120 C   0  0  0  0  0  0  0  0  0  0  0  0
  138.9290   67.7090  225.2580 O   0  0  0  0  0  0  0  0  0  0  0  0
  138.9320   69.6720  224.1420 N   0  0  0  0  0  0  0  0  0  0  0  0
  138.1670   69.0600  223.1130 C   0  0  0  0  0  0  0  0  0  0  0  0
  136.7310   68.8920  223.5560 C   0  0  0  0  0  0  0  0  0  0  0  0
  135.7660   68.5650  222.4570 C   0  0  0  0  0  0  0  0  0  0  0  0
  134.4360   68.2090  223.0510 C   0  0  0  0  0  0  0  0  0  0  0  0
  134.3550   68.5850  224.4860 C   0  0  0  0  0  0  0  0  0  0  0  0
  134.8580   69.9810  224.7970 C   0  0  0  0  0  0  0  0  0  0  0  0
  136.2600   70.1760  224.2530 C   0  0  0  0  0  0  0  0  0  0  0  0
  141.7750   72.7530  220.8660 C   0  0  0  0  0  0  0  0  0  0  0  0
  144.9490   72.8040  220.3600 C   0  0  0  0  0  0  0  0  0  0  0  0
  145.2220   71.7180  219.3430 C   0  0  0  0  0  0  0  0  0  0  0  0
  146.3477   70.3655  217.6488 H   0  0  0  0  0  0  0  0  0  0  0  0
  145.1055   70.9096  216.4709 H   0  0  0  0  0  0  0  0  0  0  0  0
  146.7352   71.6651  216.4709 H   0  0  0  0  0  0  0  0  0  0  0  0
  144.8688   73.5726  216.5994 H   0  0  0  0  0  0  0  0  0  0  0  0
  143.5855   72.4941  217.3050 H   0  0  0  0  0  0  0  0  0  0  0  0
  144.9262   74.8912  218.5753 H   0  0  0  0  0  0  0  0  0  0  0  0
  143.1865   74.6597  218.1367 H   0  0  0  0  0  0  0  0  0  0  0  0
  142.8420   75.9263  220.6442 H   0  0  0  0  0  0  0  0  0  0  0  0
  140.7043   76.2626  221.8979 H   0  0  0  0  0  0  0  0  0  0  0  0
  139.6275   70.9872  221.2637 H   0  0  0  0  0  0  0  0  0  0  0  0
  138.0888   72.5142  223.1082 H   0  0  0  0  0  0  0  0  0  0  0  0
  141.4284   72.3493  227.2745 H   0  0  0  0  0  0  0  0  0  0  0  0
  142.0213   70.8897  229.2145 H   0  0  0  0  0  0  0  0  0  0  0  0
  141.3286   68.5068  229.2868 H   0  0  0  0  0  0  0  0  0  0  0  0
  140.0426   67.5942  227.4010 H   0  0  0  0  0  0  0  0  0  0  0  0
  138.1976   69.6921  222.2133 H   0  0  0  0  0  0  0  0  0  0  0  0
  138.5916   68.0695  222.8923 H   0  0  0  0  0  0  0  0  0  0  0  0
  136.7323   68.0266  224.2350 H   0  0  0  0  0  0  0  0  0  0  0  0
  135.6515   69.4379  221.7975 H   0  0  0  0  0  0  0  0  0  0  0  0
  136.1477   67.7136  221.8744 H   0  0  0  0  0  0  0  0  0  0  0  0
  133.6459   68.7390  222.4988 H   0  0  0  0  0  0  0  0  0  0  0  0
  134.3080   67.1191  222.9750 H   0  0  0  0  0  0  0  0  0  0  0  0
  133.3026   68.5207  224.7996 H   0  0  0  0  0  0  0  0  0  0  0  0
  135.0082   67.8874  225.0307 H   0  0  0  0  0  0  0  0  0  0  0  0
  134.1852   70.7189  224.3357 H   0  0  0  0  0  0  0  0  0  0  0  0
  134.8789   70.1157  225.8885 H   0  0  0  0  0  0  0  0  0  0  0  0
  136.2590   71.0048  223.5297 H   0  0  0  0  0  0  0  0  0  0  0  0
  136.9424   70.4095  225.0835 H   0  0  0  0  0  0  0  0  0  0  0  0
  142.0588   71.7288  220.5823 H   0  0  0  0  0  0  0  0  0  0  0  0
  145.8406   73.4340  220.4948 H   0  0  0  0  0  0  0  0  0  0  0  0
  144.6967   72.3803  221.3433 H   0  0  0  0  0  0  0  0  0  0  0  0
  146.0920   71.1368  219.6827 H   0  0  0  0  0  0  0  0  0  0  0  0
  144.3077   71.1105  219.2731 H   0  0  0  0  0  0  0  0  0  0  0  0
  1  2  1  0
  2  3  1  0
  3  4  1  0
  4  5  1  0
  5  6  1  0
  6  7  2  0
  7  8  1  0
  8  9  2  0
  9 10  1  0
 10 11  1  0
 11 12  2  0
 12 13  1  0
 13 14  2  0
 14 15  1  0
 15 16  2  0
 16 17  1  0
 17 18  2  0
 18 19  1  0
 19 20  2  0
 20 21  1  0
 21 22  2  0
 21 23  1  0
 23 24  1  0
 24 25  1  0
 25 26  1  0
 26 27  1  0
 27 28  1  0
 28 29  1  0
 29 30  1  0
 10 31  2  0
  5 32  1  0
 32 33  1  0
 33  2  1  0
 31  6  1  0
 23 13  1  0
 30 25  1  0
 20 15  1  0
  1 34  1  0
  1 35  1  0
  1 36  1  0
  3 37  1  0
  3 38  1  0
  4 39  1  0
  4 40  1  0
  7 41  1  0
  8 42  1  0
 11 43  1  0
 12 44  1  0
 16 45  1  0
 17 46  1  0
 18 47  1  0
 19 48  1  0
 24 49  1  0
 24 50  1  0
 25 51  1  0
 26 52  1  0
 26 53  1  0
 27 54  1  0
 27 55  1  0
 28 56  1  0
 28 57  1  0
 29 58  1  0
 29 59  1  0
 30 60  1  0
 30 61  1  0
 31 62  1  0
 32 63  1  0
 32 64  1  0
 33 65  1  0
 33 66  1  0
M  END
>  <smiles>  (23) 
CN1CCN(c2ccnc(/C=C/c3nc4ccccc4c(=O)n3CC3CCCCC3)c2)CC1

>  <score_type>  (23) 
oracle

>  <origin>  (23) 
autodockgpu

>  <m_score__min__energy>  (23) 
-8.8100000000000005

>  <m_primary>  (23) 
energy

>  <rmsd>  (23) 
12.0606187264072

>  <m_score__min__rmsd>  (23) 
12.0606187264072

>  <meeko>  (23) 
{"free_energy": -8.73, "intermolecular_energy": -10.52, "internal_energy": -1.49, "cluster_size": 6, "cluster_id": 2, "rank_in_cluster": 2}

>  <energy>  (23) 
-8.32

>  <cluster_rmsd>  (23) 
1.36

>  <cluster>  (23) 
1

$$$$

     RDKit          3D

 66 70  0  0  0  0  0  0  0  0999 V2000
  132.2260   68.0000  226.0930 C   0  0  0  0  0  0  0  0  0  0  0  0
  133.2370   68.9930  226.0300 N   0  0  0  0  0  0  0  0  0  0  0  0
  134.4500   68.5650  225.3810 C   0  0  0  0  0  0  0  0  0  0  0  0
  135.5250   69.6180  225.4180 C   0  0  0  0  0  0  0  0  0  0  0  0
  135.0060   70.9160  225.0010 N   0  0  0  0  0  0  0  0  0  0  0  0
  135.5550   71.6700  223.9450 C   0  0  0  0  0  0  0  0  0  0  0  0
  134.7330   72.3910  223.0870 C   0  0  0  0  0  0  0  0  0  0  0  0
  135.2650   73.1330  222.0280 C   0  0  0  0  0  0  0  0  0  0  0  0
  136.5770   73.1390  221.8540 N   0  0  0  0  0  0  0  0  0  0  0  0
  137.4440   72.4660  222.6410 C   0  0  0  0  0  0  0  0  0  0  0  0
  138.8640   72.5520  222.3420 C   0  0  0  0  0  0  0  0  0  0  0  0
  139.7030   71.5360  222.4090 C   0  0  0  0  0  0  0  0  0  0  0  0
  139.7580   70.7130  223.6390 C   0  0  0  0  0  0  0  0  0  0  0  0
  140.1060   71.3120  224.8030 N   0  0  0  0  0  0  0  0  0  0  0  0
  140.1560   70.6470  225.9720 C   0  0  0  0  0  0  0  0  0  0  0  0
  140.5210   71.3050  227.1510 C   0  0  0  0  0  0  0  0  0  0  0  0
  140.5490   70.5510  228.3250 C   0  0  0  0  0  0  0  0  0  0  0  0
  140.2340   69.2080  228.3440 C   0  0  0  0  0  0  0  0  0  0  0  0
  139.8860   68.6250  227.1580 C   0  0  0  0  0  0  0  0  0  0  0  0
  139.8360   69.3060  225.9630 C   0  0  0  0  0  0  0  0  0  0  0  0
  139.4910   68.7390  224.7650 C   0  0  0  0  0  0  0  0  0  0  0  0
  139.2000   67.5020  224.7820 O   0  0  0  0  0  0  0  0  0  0  0  0
  139.4430   69.4090  223.5970 N   0  0  0  0  0  0  0  0  0  0  0  0
  139.0450   68.7050  222.4290 C   0  0  0  0  0  0  0  0  0  0  0  0
  137.5430   68.7620  222.2670 C   0  0  0  0  0  0  0  0  0  0  0  0
  136.8670   67.4280  222.1690 C   0  0  0  0  0  0  0  0  0  0  0  0
  135.3810   67.6160  222.2360 C   0  0  0  0  0  0  0  0  0  0  0  0
  134.9970   69.0390  222.0550 C   0  0  0  0  0  0  0  0  0  0  0  0
  135.6930   69.7340  220.9010 C   0  0  0  0  0  0  0  0  0  0  0  0
  137.1960   69.5770  221.0130 C   0  0  0  0  0  0  0  0  0  0  0  0
  136.9110   71.7420  223.6750 C   0  0  0  0  0  0  0  0  0  0  0  0
  133.8390   71.3720  225.7790 C   0  0  0  0  0  0  0  0  0  0  0  0
  132.7910   70.2900  225.6330 C   0  0  0  0  0  0  0  0  0  0  0  0
  131.9975   67.7756  227.1454 H   0  0  0  0  0  0  0  0  0  0  0  0
  131.3189   68.3679  225.5913 H   0  0  0  0  0  0  0  0  0  0  0  0
  132.5776   67.0864  225.5913 H   0  0  0  0  0  0  0  0  0  0  0  0
  134.8222   67.6627  225.8882 H   0  0  0  0  0  0  0  0  0  0  0  0
  134.2125   68.3662  224.3255 H   0  0  0  0  0  0  0  0  0  0  0  0
  135.9125   69.6993  226.4443 H   0  0  0  0  0  0  0  0  0  0  0  0
  136.3255   69.3233  224.7235 H   0  0  0  0  0  0  0  0  0  0  0  0
  133.6443   72.3777  223.2439 H   0  0  0  0  0  0  0  0  0  0  0  0
  134.6067   73.7000  221.3534 H   0  0  0  0  0  0  0  0  0  0  0  0
  139.2661   73.5302  222.0395 H   0  0  0  0  0  0  0  0  0  0  0  0
  140.3576   71.3017  221.5566 H   0  0  0  0  0  0  0  0  0  0  0  0
  140.7760   72.3750  227.1528 H   0  0  0  0  0  0  0  0  0  0  0  0
  140.8317   71.0441  229.2668 H   0  0  0  0  0  0  0  0  0  0  0  0
  140.2619   68.6283  229.2785 H   0  0  0  0  0  0  0  0  0  0  0  0
  139.6324   67.5546  227.1585 H   0  0  0  0  0  0  0  0  0  0  0  0
  139.5222   69.1622  221.5497 H   0  0  0  0  0  0  0  0  0  0  0  0
  139.3547   67.6537  222.5225 H   0  0  0  0  0  0  0  0  0  0  0  0
  137.1673   69.2333  223.1872 H   0  0  0  0  0  0  0  0  0  0  0  0
  137.1338   66.9507  221.2145 H   0  0  0  0  0  0  0  0  0  0  0  0
  137.1941   66.7885  223.0021 H   0  0  0  0  0  0  0  0  0  0  0  0
  134.9100   67.0164  221.4431 H   0  0  0  0  0  0  0  0  0  0  0  0
  135.0398   67.2934  223.2307 H   0  0  0  0  0  0  0  0  0  0  0  0
  133.9121   69.0828  221.8790 H   0  0  0  0  0  0  0  0  0  0  0  0
  135.3047   69.5659  222.9702 H   0  0  0  0  0  0  0  0  0  0  0  0
  135.3527   69.2906  219.9536 H   0  0  0  0  0  0  0  0  0  0  0  0
  135.4449   70.8053  220.9302 H   0  0  0  0  0  0  0  0  0  0  0  0
  137.5759   69.0555  220.1221 H   0  0  0  0  0  0  0  0  0  0  0  0
  137.6600   70.5716  221.0870 H   0  0  0  0  0  0  0  0  0  0  0  0
  137.5999   71.1861  224.3280 H   0  0  0  0  0  0  0  0  0  0  0  0
  134.1114   71.4998  226.8370 H   0  0  0  0  0  0  0  0  0  0  0  0
  133.4686   72.3427  225.4178 H   0  0  0  0  0  0  0  0  0  0  0  0
  131.9238   70.5624  226.2525 H   0  0  0  0  0  0  0  0  0  0  0  0
  132.5439   70.2282  224.5629 H   0  0  0  0  0  0  0  0  0  0  0  0
  1  2  1  0
  2  3  1  0
  3  4  1  0
  4  5  1  0
  5  6  1  0
  6  7  2  0
  7  8  1  0
  8  9  2  0
  9 10  1  0
 10 11  1  0
 11 12  2  0
 12 13  1  0
 13 14  2  0
 14 15  1  0
 15 16  2  0
 16 17  1  0
 17 18  2  0
 18 19  1  0
 19 20  2  0
 20 21  1  0
 21 22  2  0
 21 23  1  0
 23 24  1  0
 24 25  1  0
 25 26  1  0
 26 27  1  0
 27 28  1  0
 28 29  1  0
 29 30  1  0
 10 31  2  0
  5 32  1  0
 32 33  1  0
 33  2  1  0
 31  6  1  0
 23 13  1  0
 30 25  1  0
 20 15  1  0
  1 34  1  0
  1 35  1  0
  1 36  1  0
  3 37  1  0
  3 38  1  0
  4 39  1  0
  4 40  1  0
  7 41  1  0
  8 42  1  0
 11 43  1  0
 12 44  1  0
 16 45  1  0
 17 46  1  0
 18 47  1  0
 19 48  1  0
 24 49  1  0
 24 50  1  0
 25 51  1  0
 26 52  1  0
 26 53  1  0
 27 54  1  0
 27 55  1  0
 28 56  1  0
 28 57  1  0
 29 58  1  0
 29 59  1  0
 30 60  1  0
 30 61  1  0
 31 62  1  0
 32 63  1  0
 32 64  1  0
 33 65  1  0
 33 66  1  0
M  END
>  <smiles>  (24) 
CN1CCN(c2ccnc(/C=C/c3nc4ccccc4c(=O)n3CC3CCCCC3)c2)CC1

>  <score_type>  (24) 
oracle

>  <origin>  (24) 
autodockgpu

>  <m_score__min__energy>  (24) 
-8.8100000000000005

>  <m_primary>  (24) 
energy

>  <rmsd>  (24) 
11.797921074764806

>  <m_score__min__rmsd>  (24) 
11.797921074764806

>  <meeko>  (24) 
{"free_energy": -6.77, "intermolecular_energy": -8.56, "internal_energy": -3.37, "cluster_size": 8, "cluster_id": 7, "rank_in_cluster": 7}

>  <energy>  (24) 
-8.29

>  <cluster_rmsd>  (24) 
1.36

>  <cluster>  (24) 
1

$$$$

     RDKit          3D

 66 70  0  0  0  0  0  0  0  0999 V2000
  142.2290   80.7460  223.0440 C   0  0  0  0  0  0  0  0  0  0  0  0
  141.5060   79.6850  222.4400 N   0  0  0  0  0  0  0  0  0  0  0  0
  141.8550   79.4370  221.0650 C   0  0  0  0  0  0  0  0  0  0  0  0
  141.0020   78.3680  220.4380 C   0  0  0  0  0  0  0  0  0  0  0  0
  140.9180   77.1900  221.2950 N   0  0  0  0  0  0  0  0  0  0  0  0
  141.2760   75.8940  220.8720 C   0  0  0  0  0  0  0  0  0  0  0  0
  141.9400   75.7010  219.6660 C   0  0  0  0  0  0  0  0  0  0  0  0
  142.2900   74.4190  219.2290 C   0  0  0  0  0  0  0  0  0  0  0  0
  141.9760   73.3830  219.9890 N   0  0  0  0  0  0  0  0  0  0  0  0
  141.3320   73.4840  221.1720 C   0  0  0  0  0  0  0  0  0  0  0  0
  141.0440   72.2670  221.9130 C   0  0  0  0  0  0  0  0  0  0  0  0
  139.9620   72.0780  222.6440 C   0  0  0  0  0  0  0  0  0  0  0  0
  140.0070   71.1330  223.7840 C   0  0  0  0  0  0  0  0  0  0  0  0
  140.5070   71.5670  224.9640 N   0  0  0  0  0  0  0  0  0  0  0  0
  140.5610   70.7850  226.0590 C   0  0  0  0  0  0  0  0  0  0  0  0
  141.0870   71.2750  227.2590 C   0  0  0  0  0  0  0  0  0  0  0  0
  141.1100   70.4070  228.3520 C   0  0  0  0  0  0  0  0  0  0  0  0
  140.6380   69.1130  228.2730 C   0  0  0  0  0  0  0  0  0  0  0  0
  140.1370   68.6960  227.0710 C   0  0  0  0  0  0  0  0  0  0  0  0
  140.0830   69.4960  225.9520 C   0  0  0  0  0  0  0  0  0  0  0  0
  139.5860   69.0970  224.7400 C   0  0  0  0  0  0  0  0  0  0  0  0
  139.1500   67.9060  224.6670 O   0  0  0  0  0  0  0  0  0  0  0  0
  139.5340   69.8840  223.6470 N   0  0  0  0  0  0  0  0  0  0  0  0
  138.9710   69.3510  222.4570 C   0  0  0  0  0  0  0  0  0  0  0  0
  137.5000   69.0620  222.6550 C   0  0  0  0  0  0  0  0  0  0  0  0
  136.7500   68.7150  221.4040 C   0  0  0  0  0  0  0  0  0  0  0  0
  135.3750   68.2380  221.7640 C   0  0  0  0  0  0  0  0  0  0  0  0
  135.0380   68.5450  223.1780 C   0  0  0  0  0  0  0  0  0  0  0  0
  135.3750   69.9580  223.6100 C   0  0  0  0  0  0  0  0  0  0  0  0
  136.8250   70.2770  223.3060 C   0  0  0  0  0  0  0  0  0  0  0  0
  140.9950   74.7450  221.5890 C   0  0  0  0  0  0  0  0  0  0  0  0
  140.4350   77.4740  222.6580 C   0  0  0  0  0  0  0  0  0  0  0  0
  141.3840   78.5040  223.2320 C   0  0  0  0  0  0  0  0  0  0  0  0
  142.1672   80.6554  224.1385 H   0  0  0  0  0  0  0  0  0  0  0  0
  143.2823   80.6968  222.7309 H   0  0  0  0  0  0  0  0  0  0  0  0
  141.7979   81.7084  222.7309 H   0  0  0  0  0  0  0  0  0  0  0  0
  141.7278   80.3692  220.4951 H   0  0  0  0  0  0  0  0  0  0  0  0
  142.8980   79.0884  221.0425 H   0  0  0  0  0  0  0  0  0  0  0  0
  139.9896   78.7663  220.2752 H   0  0  0  0  0  0  0  0  0  0  0  0
  141.4605   78.0720  219.4829 H   0  0  0  0  0  0  0  0  0  0  0  0
  142.1948   76.5719  219.0442 H   0  0  0  0  0  0  0  0  0  0  0  0
  142.8154   74.2755  218.2733 H   0  0  0  0  0  0  0  0  0  0  0  0
  141.7773   71.4488  221.8608 H   0  0  0  0  0  0  0  0  0  0  0  0
  139.0332   72.6183  222.4087 H   0  0  0  0  0  0  0  0  0  0  0  0
  141.4676   72.3040  227.3382 H   0  0  0  0  0  0  0  0  0  0  0  0
  141.5180   70.7667  229.3081 H   0  0  0  0  0  0  0  0  0  0  0  0
  140.6638   68.4420  229.1442 H   0  0  0  0  0  0  0  0  0  0  0  0
  139.7569   67.6666  226.9941 H   0  0  0  0  0  0  0  0  0  0  0  0
  139.0910   70.0791  221.6412 H   0  0  0  0  0  0  0  0  0  0  0  0
  139.4887   68.4137  222.2053 H   0  0  0  0  0  0  0  0  0  0  0  0
  137.4611   68.1700  223.2975 H   0  0  0  0  0  0  0  0  0  0  0  0
  136.6734   69.6057  220.7630 H   0  0  0  0  0  0  0  0  0  0  0  0
  137.2849   67.9202  220.8634 H   0  0  0  0  0  0  0  0  0  0  0  0
  134.6434   68.7324  221.1080 H   0  0  0  0  0  0  0  0  0  0  0  0
  135.3468   67.1460  221.6348 H   0  0  0  0  0  0  0  0  0  0  0  0
  133.9573   68.3920  223.3150 H   0  0  0  0  0  0  0  0  0  0  0  0
  135.6487   67.8731  223.7990 H   0  0  0  0  0  0  0  0  0  0  0  0
  134.7283   70.6651  223.0699 H   0  0  0  0  0  0  0  0  0  0  0  0
  135.2123   70.0457  224.6944 H   0  0  0  0  0  0  0  0  0  0  0  0
  136.8738   71.1339  222.6180 H   0  0  0  0  0  0  0  0  0  0  0  0
  137.3465   70.5232  224.2427 H   0  0  0  0  0  0  0  0  0  0  0  0
  140.4703   74.8497  222.5501 H   0  0  0  0  0  0  0  0  0  0  0  0
  139.4111   77.8746  222.6247 H   0  0  0  0  0  0  0  0  0  0  0  0
  140.4094   76.5629  223.2739 H   0  0  0  0  0  0  0  0  0  0  0  0
  141.0200   78.7922  224.2292 H   0  0  0  0  0  0  0  0  0  0  0  0
  142.3796   78.0373  223.2635 H   0  0  0  0  0  0  0  0  0  0  0  0
  1  2  1  0
  2  3  1  0
  3  4  1  0
  4  5  1  0
  5  6  1  0
  6  7  2  0
  7  8  1  0
  8  9  2  0
  9 10  1  0
 10 11  1  0
 11 12  2  0
 12 13  1  0
 13 14  2  0
 14 15  1  0
 15 16  2  0
 16 17  1  0
 17 18  2  0
 18 19  1  0
 19 20  2  0
 20 21  1  0
 21 22  2  0
 21 23  1  0
 23 24  1  0
 24 25  1  0
 25 26  1  0
 26 27  1  0
 27 28  1  0
 28 29  1  0
 29 30  1  0
 10 31  2  0
  5 32  1  0
 32 33  1  0
 33  2  1  0
 31  6  1  0
 23 13  1  0
 30 25  1  0
 20 15  1  0
  1 34  1  0
  1 35  1  0
  1 36  1  0
  3 37  1  0
  3 38  1  0
  4 39  1  0
  4 40  1  0
  7 41  1  0
  8 42  1  0
 11 43  1  0
 12 44  1  0
 16 45  1  0
 17 46  1  0
 18 47  1  0
 19 48  1  0
 24 49  1  0
 24 50  1  0
 25 51  1  0
 26 52  1  0
 26 53  1  0
 27 54  1  0
 27 55  1  0
 28 56  1  0
 28 57  1  0
 29 58  1  0
 29 59  1  0
 30 60  1  0
 30 61  1  0
 31 62  1  0
 32 63  1  0
 32 64  1  0
 33 65  1  0
 33 66  1  0
M  END
>  <smiles>  (25) 
CN1CCN(c2ccnc(/C=C/c3nc4ccccc4c(=O)n3CC3CCCCC3)c2)CC1

>  <score_type>  (25) 
oracle

>  <origin>  (25) 
autodockgpu

>  <m_score__min__energy>  (25) 
-8.8100000000000005

>  <m_primary>  (25) 
energy

>  <rmsd>  (25) 
11.590702414488714

>  <m_score__min__rmsd>  (25) 
11.590702414488714

>  <meeko>  (25) 
{"free_energy": -8.34, "intermolecular_energy": -10.13, "internal_energy": -1.42, "cluster_size": 24, "cluster_id": 1, "rank_in_cluster": 22}

>  <energy>  (25) 
-8.8

>  <cluster_rmsd>  (25) 
0.0

>  <cluster>  (25) 
2

$$$$

     RDKit          3D

 66 70  0  0  0  0  0  0  0  0999 V2000
  142.0970   80.5990  222.7440 C   0  0  0  0  0  0  0  0  0  0  0  0
  141.4600   79.4300  222.2530 N   0  0  0  0  0  0  0  0  0  0  0  0
  141.8110   79.0880  220.8980 C   0  0  0  0  0  0  0  0  0  0  0  0
  141.0440   77.8980  220.3870 C   0  0  0  0  0  0  0  0  0  0  0  0
  141.0720   76.8000  221.3490 N   0  0  0  0  0  0  0  0  0  0  0  0
  141.5340   75.5060  221.0370 C   0  0  0  0  0  0  0  0  0  0  0  0
  142.6900   75.3280  220.2870 C   0  0  0  0  0  0  0  0  0  0  0  0
  143.1520   74.0490  219.9600 C   0  0  0  0  0  0  0  0  0  0  0  0
  142.4640   73.0000  220.3810 N   0  0  0  0  0  0  0  0  0  0  0  0
  141.3320   73.0860  221.1120 C   0  0  0  0  0  0  0  0  0  0  0  0
  140.6670   71.8560  221.5120 C   0  0  0  0  0  0  0  0  0  0  0  0
  139.6240   71.8010  222.3190 C   0  0  0  0  0  0  0  0  0  0  0  0
  139.7380   71.0880  223.6120 C   0  0  0  0  0  0  0  0  0  0  0  0
  140.3410   71.7180  224.6470 N   0  0  0  0  0  0  0  0  0  0  0  0
  140.4640   71.1560  225.8640 C   0  0  0  0  0  0  0  0  0  0  0  0
  141.0940   71.8440  226.9060 C   0  0  0  0  0  0  0  0  0  0  0  0
  141.1840   71.1980  228.1400 C   0  0  0  0  0  0  0  0  0  0  0  0
  140.6780   69.9310  228.3460 C   0  0  0  0  0  0  0  0  0  0  0  0
  140.0740   69.3130  227.2860 C   0  0  0  0  0  0  0  0  0  0  0  0
  139.9490   69.8890  226.0420 C   0  0  0  0  0  0  0  0  0  0  0  0
  139.3490   69.2860  224.9680 C   0  0  0  0  0  0  0  0  0  0  0  0
  138.8830   68.1190  225.1570 O   0  0  0  0  0  0  0  0  0  0  0  0
  139.2290   69.8530  223.7520 N   0  0  0  0  0  0  0  0  0  0  0  0
  138.5610   69.1270  222.7300 C   0  0  0  0  0  0  0  0  0  0  0  0
  137.0990   68.9550  223.0770 C   0  0  0  0  0  0  0  0  0  0  0  0
  136.2280   68.5140  221.9400 C   0  0  0  0  0  0  0  0  0  0  0  0
  134.8650   68.1700  222.4600 C   0  0  0  0  0  0  0  0  0  0  0  0
  134.6660   68.6590  223.8490 C   0  0  0  0  0  0  0  0  0  0  0  0
  135.1140   70.0890  224.0800 C   0  0  0  0  0  0  0  0  0  0  0  0
  136.5480   70.2780  223.6270 C   0  0  0  0  0  0  0  0  0  0  0  0
  140.8900   74.3440  221.4260 C   0  0  0  0  0  0  0  0  0  0  0  0
  140.5840   77.1670  222.6900 C   0  0  0  0  0  0  0  0  0  0  0  0
  141.4490   78.3200  223.1490 C   0  0  0  0  0  0  0  0  0  0  0  0
  142.0899   80.5860  223.8439 H   0  0  0  0  0  0  0  0  0  0  0  0
  143.1361   80.6289  222.3844 H   0  0  0  0  0  0  0  0  0  0  0  0
  141.5588   81.4884  222.3844 H   0  0  0  0  0  0  0  0  0  0  0  0
  141.5971   79.9505  220.2497 H   0  0  0  0  0  0  0  0  0  0  0  0
  142.8797   78.8277  220.8850 H   0  0  0  0  0  0  0  0  0  0  0  0
  139.9993   78.1934  220.2098 H   0  0  0  0  0  0  0  0  0  0  0  0
  141.5135   77.5554  219.4531 H   0  0  0  0  0  0  0  0  0  0  0  0
  143.2522   76.2091  219.9441 H   0  0  0  0  0  0  0  0  0  0  0  0
  144.0681   73.9179  219.3653 H   0  0  0  0  0  0  0  0  0  0  0  0
  141.0596   70.9080  221.1154 H   0  0  0  0  0  0  0  0  0  0  0  0
  138.6766   72.2814  222.0331 H   0  0  0  0  0  0  0  0  0  0  0  0
  141.5025   72.8547  226.7588 H   0  0  0  0  0  0  0  0  0  0  0  0
  141.6750   71.7166  228.9767 H   0  0  0  0  0  0  0  0  0  0  0  0
  140.7574   69.4368  229.3255 H   0  0  0  0  0  0  0  0  0  0  0  0
  139.6665   68.3022  227.4354 H   0  0  0  0  0  0  0  0  0  0  0  0
  138.6463   69.6756  221.7804 H   0  0  0  0  0  0  0  0  0  0  0  0
  139.0251   68.1342  222.6351 H   0  0  0  0  0  0  0  0  0  0  0  0
  137.0676   68.1476  223.8234 H   0  0  0  0  0  0  0  0  0  0  0  0
  136.1453   69.3276  221.2043 H   0  0  0  0  0  0  0  0  0  0  0  0
  136.6715   67.6294  221.4596 H   0  0  0  0  0  0  0  0  0  0  0  0
  134.1082   68.6309  221.8082 H   0  0  0  0  0  0  0  0  0  0  0  0
  134.7670   67.0744  222.4653 H   0  0  0  0  0  0  0  0  0  0  0  0
  133.5942   68.5915  224.0872 H   0  0  0  0  0  0  0  0  0  0  0  0
  135.2901   68.0260  224.4970 H   0  0  0  0  0  0  0  0  0  0  0  0
  134.4625   70.7685  223.5109 H   0  0  0  0  0  0  0  0  0  0  0  0
  135.0492   70.3118  225.1552 H   0  0  0  0  0  0  0  0  0  0  0  0
  136.5838   71.0442  222.8386 H   0  0  0  0  0  0  0  0  0  0  0  0
  137.1599   70.5979  224.4833 H   0  0  0  0  0  0  0  0  0  0  0  0
  139.9699   74.4362  222.0218 H   0  0  0  0  0  0  0  0  0  0  0  0
  139.5295   77.4764  222.6413 H   0  0  0  0  0  0  0  0  0  0  0  0
  140.6435   76.3174  223.3862 H   0  0  0  0  0  0  0  0  0  0  0  0
  141.0751   78.6662  224.1239 H   0  0  0  0  0  0  0  0  0  0  0  0
  142.4810   77.9426  223.2007 H   0  0  0  0  0  0  0  0  0  0  0  0
  1  2  1  0
  2  3  1  0
  3  4  1  0
  4  5  1  0
  5  6  1  0
  6  7  2  0
  7  8  1  0
  8  9  2  0
  9 10  1  0
 10 11  1  0
 11 12  2  0
 12 13  1  0
 13 14  2  0
 14 15  1  0
 15 16  2  0
 16 17  1  0
 17 18  2  0
 18 19  1  0
 19 20  2  0
 20 21  1  0
 21 22  2  0
 21 23  1  0
 23 24  1  0
 24 25  1  0
 25 26  1  0
 26 27  1  0
 27 28  1  0
 28 29  1  0
 29 30  1  0
 10 31  2  0
  5 32  1  0
 32 33  1  0
 33  2  1  0
 31  6  1  0
 23 13  1  0
 30 25  1  0
 20 15  1  0
  1 34  1  0
  1 35  1  0
  1 36  1  0
  3 37  1  0
  3 38  1  0
  4 39  1  0
  4 40  1  0
  7 41  1  0
  8 42  1  0
 11 43  1  0
 12 44  1  0
 16 45  1  0
 17 46  1  0
 18 47  1  0
 19 48  1  0
 24 49  1  0
 24 50  1  0
 25 51  1  0
 26 52  1  0
 26 53  1  0
 27 54  1  0
 27 55  1  0
 28 56  1  0
 28 57  1  0
 29 58  1  0
 29 59  1  0
 30 60  1  0
 30 61  1  0
 31 62  1  0
 32 63  1  0
 32 64  1  0
 33 65  1  0
 33 66  1  0
M  END
>  <smiles>  (26) 
CN1CCN(c2ccnc(/C=C/c3nc4ccccc4c(=O)n3CC3CCCCC3)c2)CC1

>  <score_type>  (26) 
oracle

>  <origin>  (26) 
autodockgpu

>  <m_score__min__energy>  (26) 
-8.8100000000000005

>  <m_primary>  (26) 
energy

>  <rmsd>  (26) 
11.540591334836767

>  <m_score__min__rmsd>  (26) 
11.540591334836767

>  <meeko>  (26) 
{"free_energy": -8.61, "intermolecular_energy": -10.4, "internal_energy": -1.48, "cluster_size": 24, "cluster_id": 1, "rank_in_cluster": 11}

>  <energy>  (26) 
-8.73

>  <cluster_rmsd>  (26) 
0.59

>  <cluster>  (26) 
2

$$$$

     RDKit          3D

 66 70  0  0  0  0  0  0  0  0999 V2000
  132.1030   74.7380  226.7660 C   0  0  0  0  0  0  0  0  0  0  0  0
  133.1200   73.7590  226.6200 N   0  0  0  0  0  0  0  0  0  0  0  0
  132.8340   72.5060  227.2700 C   0  0  0  0  0  0  0  0  0  0  0  0
  133.9760   71.5310  227.1680 C   0  0  0  0  0  0  0  0  0  0  0  0
  134.4690   71.4390  225.7970 N   0  0  0  0  0  0  0  0  0  0  0  0
  134.5500   70.2280  225.0810 C   0  0  0  0  0  0  0  0  0  0  0  0
  133.6030   69.2280  225.2710 C   0  0  0  0  0  0  0  0  0  0  0  0
  133.6790   68.0170  224.5740 C   0  0  0  0  0  0  0  0  0  0  0  0
  134.6750   67.8370  223.7230 N   0  0  0  0  0  0  0  0  0  0  0  0
  135.6350   68.7560  223.4810 C   0  0  0  0  0  0  0  0  0  0  0  0
  136.6790   68.4360  222.5210 C   0  0  0  0  0  0  0  0  0  0  0  0
  137.9170   68.1170  222.8450 C   0  0  0  0  0  0  0  0  0  0  0  0
  138.6330   68.9120  223.8700 C   0  0  0  0  0  0  0  0  0  0  0  0
  138.7920   68.3820  225.1050 N   0  0  0  0  0  0  0  0  0  0  0  0
  139.4510   69.0230  226.0880 C   0  0  0  0  0  0  0  0  0  0  0  0
  139.5920   68.4380  227.3500 C   0  0  0  0  0  0  0  0  0  0  0  0
  140.2890   69.1620  228.3200 C   0  0  0  0  0  0  0  0  0  0  0  0
  140.8250   70.4060  228.0630 C   0  0  0  0  0  0  0  0  0  0  0  0
  140.6520   70.9220  226.8090 C   0  0  0  0  0  0  0  0  0  0  0  0
  139.9780   70.2650  225.8050 C   0  0  0  0  0  0  0  0  0  0  0  0
  139.7930   70.7660  224.5430 C   0  0  0  0  0  0  0  0  0  0  0  0
  140.2870   71.9120  224.3060 O   0  0  0  0  0  0  0  0  0  0  0  0
  139.1320   70.1200  223.5620 N   0  0  0  0  0  0  0  0  0  0  0  0
  139.0340   70.7420  222.2890 C   0  0  0  0  0  0  0  0  0  0  0  0
  138.0470   71.8860  222.3380 C   0  0  0  0  0  0  0  0  0  0  0  0
  136.7880   71.6690  221.5540 C   0  0  0  0  0  0  0  0  0  0  0  0
  135.8130   72.7650  221.8630 C   0  0  0  0  0  0  0  0  0  0  0  0
  136.4620   73.8950  222.5760 C   0  0  0  0  0  0  0  0  0  0  0  0
  137.7800   74.3420  221.9740 C   0  0  0  0  0  0  0  0  0  0  0  0
  138.7250   73.1660  221.8270 C   0  0  0  0  0  0  0  0  0  0  0  0
  135.5500   69.9380  224.1690 C   0  0  0  0  0  0  0  0  0  0  0  0
  134.8680   72.7330  225.2160 C   0  0  0  0  0  0  0  0  0  0  0  0
  133.6480   73.6240  225.3010 C   0  0  0  0  0  0  0  0  0  0  0  0
  131.9171   74.9169  227.8353 H   0  0  0  0  0  0  0  0  0  0  0  0
  132.4247   75.6750  226.2879 H   0  0  0  0  0  0  0  0  0  0  0  0
  131.1789   74.3809  226.2879 H   0  0  0  0  0  0  0  0  0  0  0  0
  132.6285   72.6988  228.3333 H   0  0  0  0  0  0  0  0  0  0  0  0
  131.9653   72.0579  226.7654 H   0  0  0  0  0  0  0  0  0  0  0  0
  134.7942   71.8667  227.8220 H   0  0  0  0  0  0  0  0  0  0  0  0
  133.6160   70.5385  227.4767 H   0  0  0  0  0  0  0  0  0  0  0  0
  132.7795   69.3916  225.9817 H   0  0  0  0  0  0  0  0  0  0  0  0
  132.9257   67.2309  224.7308 H   0  0  0  0  0  0  0  0  0  0  0  0
  136.4188   68.4617  221.4525 H   0  0  0  0  0  0  0  0  0  0  0  0
  138.4149   67.2660  222.3573 H   0  0  0  0  0  0  0  0  0  0  0  0
  139.1704   67.4462  227.5704 H   0  0  0  0  0  0  0  0  0  0  0  0
  140.4144   68.7254  229.3218 H   0  0  0  0  0  0  0  0  0  0  0  0
  141.3717   70.9627  228.8384 H   0  0  0  0  0  0  0  0  0  0  0  0
  141.0736   71.9143  226.5910 H   0  0  0  0  0  0  0  0  0  0  0  0
  140.0219   71.1274  221.9966 H   0  0  0  0  0  0  0  0  0  0  0  0
  138.6859   70.0007  221.5547 H   0  0  0  0  0  0  0  0  0  0  0  0
  137.7449   71.9670  223.3926 H   0  0  0  0  0  0  0  0  0  0  0  0
  137.0196   71.6764  220.4787 H   0  0  0  0  0  0  0  0  0  0  0  0
  136.3481   70.6985  221.8272 H   0  0  0  0  0  0  0  0  0  0  0  0
  135.3851   73.1373  220.9205 H   0  0  0  0  0  0  0  0  0  0  0  0
  135.0302   72.3524  222.5165 H   0  0  0  0  0  0  0  0  0  0  0  0
  135.7711   74.7508  222.5651 H   0  0  0  0  0  0  0  0  0  0  0  0
  136.6863   73.5375  223.5918 H   0  0  0  0  0  0  0  0  0  0  0  0
  137.5941   74.7825  220.9833 H   0  0  0  0  0  0  0  0  0  0  0  0
  138.2404   75.0860  222.6407 H   0  0  0  0  0  0  0  0  0  0  0  0
  138.9896   73.0406  220.7667 H   0  0  0  0  0  0  0  0  0  0  0  0
  139.6343   73.3552  222.4164 H   0  0  0  0  0  0  0  0  0  0  0  0
  136.3213   70.7007  223.9859 H   0  0  0  0  0  0  0  0  0  0  0  0
  135.6998   73.1687  225.7890 H   0  0  0  0  0  0  0  0  0  0  0  0
  135.2112   72.6188  224.1772 H   0  0  0  0  0  0  0  0  0  0  0  0
  133.9234   74.6239  224.9344 H   0  0  0  0  0  0  0  0  0  0  0  0
  132.8645   73.1508  224.6909 H   0  0  0  0  0  0  0  0  0  0  0  0
  1  2  1  0
  2  3  1  0
  3  4  1  0
  4  5  1  0
  5  6  1  0
  6  7  2  0
  7  8  1  0
  8  9  2  0
  9 10  1  0
 10 11  1  0
 11 12  2  0
 12 13  1  0
 13 14  2  0
 14 15  1  0
 15 16  2  0
 16 17  1  0
 17 18  2  0
 18 19  1  0
 19 20  2  0
 20 21  1  0
 21 22  2  0
 21 23  1  0
 23 24  1  0
 24 25  1  0
 25 26  1  0
 26 27  1  0
 27 28  1  0
 28 29  1  0
 29 30  1  0
 10 31  2  0
  5 32  1  0
 32 33  1  0
 33  2  1  0
 31  6  1  0
 23 13  1  0
 30 25  1  0
 20 15  1  0
  1 34  1  0
  1 35  1  0
  1 36  1  0
  3 37  1  0
  3 38  1  0
  4 39  1  0
  4 40  1  0
  7 41  1  0
  8 42  1  0
 11 43  1  0
 12 44  1  0
 16 45  1  0
 17 46  1  0
 18 47  1  0
 19 48  1  0
 24 49  1  0
 24 50  1  0
 25 51  1  0
 26 52  1  0
 26 53  1  0
 27 54  1  0
 27 55  1  0
 28 56  1  0
 28 57  1  0
 29 58  1  0
 29 59  1  0
 30 60  1  0
 30 61  1  0
 31 62  1  0
 32 63  1  0
 32 64  1  0
 33 65  1  0
 33 66  1  0
M  END
>  <smiles>  (27) 
CN1CCN(c2ccnc(/C=C/c3nc4ccccc4c(=O)n3CC3CCCCC3)c2)CC1

>  <score_type>  (27) 
oracle

>  <origin>  (27) 
autodockgpu

>  <m_score__min__energy>  (27) 
-8.8100000000000005

>  <m_primary>  (27) 
energy

>  <rmsd>  (27) 
10.442956805263181

>  <m_score__min__rmsd>  (27) 
10.442956805263181

>  <meeko>  (27) 
{"free_energy": -7.93, "intermolecular_energy": -9.72, "internal_energy": -2.64, "cluster_size": 5, "cluster_id": 5, "rank_in_cluster": 4}

>  <energy>  (27) 
-8.69

>  <cluster_rmsd>  (27) 
0.23

>  <cluster>  (27) 
2

$$$$

     RDKit          3D

 66 70  0  0  0  0  0  0  0  0999 V2000
  141.4690   80.4620  223.4820 C   0  0  0  0  0  0  0  0  0  0  0  0
  141.1240   79.4500  222.5500 N   0  0  0  0  0  0  0  0  0  0  0  0
  142.1680   79.1280  221.6100 C   0  0  0  0  0  0  0  0  0  0  0  0
  141.7280   78.1180  220.5850 C   0  0  0  0  0  0  0  0  0  0  0  0
  141.0670   76.9800  221.2150 N   0  0  0  0  0  0  0  0  0  0  0  0
  141.4830   75.6450  221.0400 C   0  0  0  0  0  0  0  0  0  0  0  0
  142.6440   75.3520  220.3340 C   0  0  0  0  0  0  0  0  0  0  0  0
  143.0610   74.0310  220.1430 C   0  0  0  0  0  0  0  0  0  0  0  0
  142.3260   73.0540  220.6490 N   0  0  0  0  0  0  0  0  0  0  0  0
  141.1860   73.2530  221.3450 C   0  0  0  0  0  0  0  0  0  0  0  0
  140.4670   72.0940  221.8480 C   0  0  0  0  0  0  0  0  0  0  0  0
  139.5440   72.1400  222.7900 C   0  0  0  0  0  0  0  0  0  0  0  0
  139.6070   71.1860  223.9210 C   0  0  0  0  0  0  0  0  0  0  0  0
  140.2920   71.5440  225.0330 N   0  0  0  0  0  0  0  0  0  0  0  0
  140.3790   70.7500  226.1170 C   0  0  0  0  0  0  0  0  0  0  0  0
  141.0970   71.1610  227.2440 C   0  0  0  0  0  0  0  0  0  0  0  0
  141.1430   70.2860  228.3310 C   0  0  0  0  0  0  0  0  0  0  0  0
  140.5100   69.0590  228.3140 C   0  0  0  0  0  0  0  0  0  0  0  0
  139.8250   68.7180  227.1810 C   0  0  0  0  0  0  0  0  0  0  0  0
  139.7380   69.5310  226.0730 C   0  0  0  0  0  0  0  0  0  0  0  0
  139.0570   69.2060  224.9290 C   0  0  0  0  0  0  0  0  0  0  0  0
  138.4740   68.0770  224.9130 O   0  0  0  0  0  0  0  0  0  0  0  0
  138.9740   70.0040  223.8470 N   0  0  0  0  0  0  0  0  0  0  0  0
  138.2140   69.5560  222.7330 C   0  0  0  0  0  0  0  0  0  0  0  0
  138.8480   68.3260  222.1250 C   0  0  0  0  0  0  0  0  0  0  0  0
  139.5050   68.5460  220.7960 C   0  0  0  0  0  0  0  0  0  0  0  0
  140.2780   67.3200  220.4130 C   0  0  0  0  0  0  0  0  0  0  0  0
  139.9210   66.1560  221.2640 C   0  0  0  0  0  0  0  0  0  0  0  0
  138.4310   65.9560  221.4600 C   0  0  0  0  0  0  0  0  0  0  0  0
  137.7850   67.2300  221.9670 C   0  0  0  0  0  0  0  0  0  0  0  0
  140.7880   74.5520  221.5260 C   0  0  0  0  0  0  0  0  0  0  0  0
  139.9240   77.3490  222.0700 C   0  0  0  0  0  0  0  0  0  0  0  0
  140.4680   78.3100  223.1040 C   0  0  0  0  0  0  0  0  0  0  0  0
  141.3383   80.0786  224.5047 H   0  0  0  0  0  0  0  0  0  0  0  0
  142.5182   80.7563  223.3320 H   0  0  0  0  0  0  0  0  0  0  0  0
  140.8180   81.3359  223.3320 H   0  0  0  0  0  0  0  0  0  0  0  0
  142.4714   80.0489  221.0905 H   0  0  0  0  0  0  0  0  0  0  0  0
  143.0034   78.6890  222.1752 H   0  0  0  0  0  0  0  0  0  0  0  0
  141.0272   78.5981  219.8861 H   0  0  0  0  0  0  0  0  0  0  0  0
  142.6181   77.7523  220.0521 H   0  0  0  0  0  0  0  0  0  0  0  0
  143.2454   76.1738  219.9182 H   0  0  0  0  0  0  0  0  0  0  0  0
  143.9815   73.8085  219.5834 H   0  0  0  0  0  0  0  0  0  0  0  0
  140.7086   71.1125  221.4141 H   0  0  0  0  0  0  0  0  0  0  0  0
  138.7335   72.8817  222.7355 H   0  0  0  0  0  0  0  0  0  0  0  0
  141.6059   72.1358  227.2732 H   0  0  0  0  0  0  0  0  0  0  0  0
  141.7019   70.5839  229.2304 H   0  0  0  0  0  0  0  0  0  0  0  0
  140.5551   68.3814  229.1794 H   0  0  0  0  0  0  0  0  0  0  0  0
  139.3166   67.7429  227.1530 H   0  0  0  0  0  0  0  0  0  0  0  0
  137.1938   69.3121  223.0644 H   0  0  0  0  0  0  0  0  0  0  0  0
  138.1842   70.3539  221.9764 H   0  0  0  0  0  0  0  0  0  0  0  0
  139.6472   68.0335  222.8219 H   0  0  0  0  0  0  0  0  0  0  0  0
  138.7362   68.7474  220.0355 H   0  0  0  0  0  0  0  0  0  0  0  0
  140.1886   69.4053  220.8621 H   0  0  0  0  0  0  0  0  0  0  0  0
  140.0592   67.0743  219.3633 H   0  0  0  0  0  0  0  0  0  0  0  0
  141.3481   67.5319  220.5540 H   0  0  0  0  0  0  0  0  0  0  0  0
  140.3310   65.2490  220.7957 H   0  0  0  0  0  0  0  0  0  0  0  0
  140.3445   66.3540  222.2597 H   0  0  0  0  0  0  0  0  0  0  0  0
  137.9741   65.6763  220.4993 H   0  0  0  0  0  0  0  0  0  0  0  0
  138.2742   65.1589  222.2016 H   0  0  0  0  0  0  0  0  0  0  0  0
  137.0214   67.5630  221.2486 H   0  0  0  0  0  0  0  0  0  0  0  0
  137.3165   67.0356  222.9431 H   0  0  0  0  0  0  0  0  0  0  0  0
  139.8621   74.7362  222.0906 H   0  0  0  0  0  0  0  0  0  0  0  0
  139.1404   77.8359  221.4709 H   0  0  0  0  0  0  0  0  0  0  0  0
  139.4722   76.4639  222.5417 H   0  0  0  0  0  0  0  0  0  0  0  0
  139.6302   78.6608  223.7245 H   0  0  0  0  0  0  0  0  0  0  0  0
  141.2234   77.7591  223.6836 H   0  0  0  0  0  0  0  0  0  0  0  0
  1  2  1  0
  2  3  1  0
  3  4  1  0
  4  5  1  0
  5  6  1  0
  6  7  2  0
  7  8  1  0
  8  9  2  0
  9 10  1  0
 10 11  1  0
 11 12  2  0
 12 13  1  0
 13 14  2  0
 14 15  1  0
 15 16  2  0
 16 17  1  0
 17 18  2  0
 18 19  1  0
 19 20  2  0
 20 21  1  0
 21 22  2  0
 21 23  1  0
 23 24  1  0
 24 25  1  0
 25 26  1  0
 26 27  1  0
 27 28  1  0
 28 29  1  0
 29 30  1  0
 10 31  2  0
  5 32  1  0
 32 33  1  0
 33  2  1  0
 31  6  1  0
 23 13  1  0
 30 25  1  0
 20 15  1  0
  1 34  1  0
  1 35  1  0
  1 36  1  0
  3 37  1  0
  3 38  1  0
  4 39  1  0
  4 40  1  0
  7 41  1  0
  8 42  1  0
 11 43  1  0
 12 44  1  0
 16 45  1  0
 17 46  1  0
 18 47  1  0
 19 48  1  0
 24 49  1  0
 24 50  1  0
 25 51  1  0
 26 52  1  0
 26 53  1  0
 27 54  1  0
 27 55  1  0
 28 56  1  0
 28 57  1  0
 29 58  1  0
 29 59  1  0
 30 60  1  0
 30 61  1  0
 31 62  1  0
 32 63  1  0
 32 64  1  0
 33 65  1  0
 33 66  1  0
M  END
>  <smiles>  (28) 
CN1CCN(c2ccnc(/C=C/c3nc4ccccc4c(=O)n3CC3CCCCC3)c2)CC1

>  <score_type>  (28) 
oracle

>  <origin>  (28) 
autodockgpu

>  <m_score__min__energy>  (28) 
-8.8100000000000005

>  <m_primary>  (28) 
energy

>  <rmsd>  (28) 
11.448425064559613

>  <m_score__min__rmsd>  (28) 
11.448425064559613

>  <meeko>  (28) 
{"free_energy": -8.49, "intermolecular_energy": -10.28, "internal_energy": -1.45, "cluster_size": 24, "cluster_id": 1, "rank_in_cluster": 15}

>  <energy>  (28) 
-8.58

>  <cluster_rmsd>  (28) 
0.67

>  <cluster>  (28) 
2

$$$$

     RDKit          3D

 66 70  0  0  0  0  0  0  0  0999 V2000
  142.6570   80.5940  223.8310 C   0  0  0  0  0  0  0  0  0  0  0  0
  141.6760   79.9370  223.0440 N   0  0  0  0  0  0  0  0  0  0  0  0
  142.2100   78.9850  222.1030 C   0  0  0  0  0  0  0  0  0  0  0  0
  141.1460   78.3810  221.2280 C   0  0  0  0  0  0  0  0  0  0  0  0
  140.0090   77.9220  222.0200 N   0  0  0  0  0  0  0  0  0  0  0  0
  139.5220   76.6000  221.9880 C   0  0  0  0  0  0  0  0  0  0  0  0
  138.1560   76.3490  221.9490 C   0  0  0  0  0  0  0  0  0  0  0  0
  137.6600   75.0420  221.9300 C   0  0  0  0  0  0  0  0  0  0  0  0
  138.5200   74.0370  221.9480 N   0  0  0  0  0  0  0  0  0  0  0  0
  139.8610   74.1950  221.9850 C   0  0  0  0  0  0  0  0  0  0  0  0
  140.7000   73.0080  222.0030 C   0  0  0  0  0  0  0  0  0  0  0  0
  140.2450   71.7730  222.0960 C   0  0  0  0  0  0  0  0  0  0  0  0
  140.1580   71.1250  223.4250 C   0  0  0  0  0  0  0  0  0  0  0  0
  140.7180   71.7500  224.4870 N   0  0  0  0  0  0  0  0  0  0  0  0
  140.6630   71.2470  225.7350 C   0  0  0  0  0  0  0  0  0  0  0  0
  141.2550   71.9270  226.8040 C   0  0  0  0  0  0  0  0  0  0  0  0
  141.1580   71.3450  228.0690 C   0  0  0  0  0  0  0  0  0  0  0  0
  140.5070   70.1460  228.2780 C   0  0  0  0  0  0  0  0  0  0  0  0
  139.9500   69.5330  227.1910 C   0  0  0  0  0  0  0  0  0  0  0  0
  140.0070   70.0480  225.9160 C   0  0  0  0  0  0  0  0  0  0  0  0
  139.4560   69.4480  224.8150 C   0  0  0  0  0  0  0  0  0  0  0  0
  138.8560   68.3440  225.0070 O   0  0  0  0  0  0  0  0  0  0  0  0
  139.5140   69.9560  223.5680 N   0  0  0  0  0  0  0  0  0  0  0  0
  138.8780   69.2420  222.5170 C   0  0  0  0  0  0  0  0  0  0  0  0
  137.4300   69.6580  222.4000 C   0  0  0  0  0  0  0  0  0  0  0  0
  137.0630   70.8930  223.1680 C   0  0  0  0  0  0  0  0  0  0  0  0
  135.6750   71.3190  222.7940 C   0  0  0  0  0  0  0  0  0  0  0  0
  134.9550   70.2560  222.0470 C   0  0  0  0  0  0  0  0  0  0  0  0
  135.0730   68.8720  222.6560 C   0  0  0  0  0  0  0  0  0  0  0  0
  136.5290   68.5080  222.8710 C   0  0  0  0  0  0  0  0  0  0  0  0
  140.3350   75.4800  222.0040 C   0  0  0  0  0  0  0  0  0  0  0  0
  139.4150   78.9660  222.8750 C   0  0  0  0  0  0  0  0  0  0  0  0
  140.5340   79.4680  223.7600 C   0  0  0  0  0  0  0  0  0  0  0  0
  142.4326   80.4437  224.8973 H   0  0  0  0  0  0  0  0  0  0  0  0
  143.6492   80.1776  223.6029 H   0  0  0  0  0  0  0  0  0  0  0  0
  142.6497   81.6701  223.6029 H   0  0  0  0  0  0  0  0  0  0  0  0
  142.9449   79.4956  221.4633 H   0  0  0  0  0  0  0  0  0  0  0  0
  142.6722   78.1694  222.6785 H   0  0  0  0  0  0  0  0  0  0  0  0
  140.8001   79.1383  220.5090 H   0  0  0  0  0  0  0  0  0  0  0  0
  141.5767   77.5157  220.7028 H   0  0  0  0  0  0  0  0  0  0  0  0
  137.4520   77.1940  221.9328 H   0  0  0  0  0  0  0  0  0  0  0  0
  136.5767   74.8532  221.9007 H   0  0  0  0  0  0  0  0  0  0  0  0
  141.7888   73.1491  221.9344 H   0  0  0  0  0  0  0  0  0  0  0  0
  139.9324   71.2284  221.1928 H   0  0  0  0  0  0  0  0  0  0  0  0
  141.7769   72.8836  226.6538 H   0  0  0  0  0  0  0  0  0  0  0  0
  141.6154   71.8587  228.9274 H   0  0  0  0  0  0  0  0  0  0  0  0
  140.4391   69.7007  229.2815 H   0  0  0  0  0  0  0  0  0  0  0  0
  139.4281   68.5767  227.3433 H   0  0  0  0  0  0  0  0  0  0  0  0
  139.3943   69.4553  221.5694 H   0  0  0  0  0  0  0  0  0  0  0  0
  138.9237   68.1653  222.7377 H   0  0  0  0  0  0  0  0  0  0  0  0
  137.2798   69.8966  221.3367 H   0  0  0  0  0  0  0  0  0  0  0  0
  137.1033   70.6799  224.2464 H   0  0  0  0  0  0  0  0  0  0  0  0
  137.7717   71.6991  222.9273 H   0  0  0  0  0  0  0  0  0  0  0  0
  135.1145   71.5517  223.7114 H   0  0  0  0  0  0  0  0  0  0  0  0
  135.7518   72.2025  222.1433 H   0  0  0  0  0  0  0  0  0  0  0  0
  133.8891   70.5248  222.0079 H   0  0  0  0  0  0  0  0  0  0  0  0
  135.4206   70.2016  221.0519 H   0  0  0  0  0  0  0  0  0  0  0  0
  134.5495   68.8565  223.6233 H   0  0  0  0  0  0  0  0  0  0  0  0
  134.6218   68.1415  221.9684 H   0  0  0  0  0  0  0  0  0  0  0  0
  136.7043   68.3220  223.9409 H   0  0  0  0  0  0  0  0  0  0  0  0
  136.7652   67.6026  222.2926 H   0  0  0  0  0  0  0  0  0  0  0  0
  141.4243   75.6304  222.0337 H   0  0  0  0  0  0  0  0  0  0  0  0
  139.0191   79.7859  222.2577 H   0  0  0  0  0  0  0  0  0  0  0  0
  138.5779   78.5713  223.4695 H   0  0  0  0  0  0  0  0  0  0  0  0
  140.1459   80.2955  224.3720 H   0  0  0  0  0  0  0  0  0  0  0  0
  140.8680   78.6127  224.3657 H   0  0  0  0  0  0  0  0  0  0  0  0
  1  2  1  0
  2  3  1  0
  3  4  1  0
  4  5  1  0
  5  6  1  0
  6  7  2  0
  7  8  1  0
  8  9  2  0
  9 10  1  0
 10 11  1  0
 11 12  2  0
 12 13  1  0
 13 14  2  0
 14 15  1  0
 15 16  2  0
 16 17  1  0
 17 18  2  0
 18 19  1  0
 19 20  2  0
 20 21  1  0
 21 22  2  0
 21 23  1  0
 23 24  1  0
 24 25  1  0
 25 26  1  0
 26 27  1  0
 27 28  1  0
 28 29  1  0
 29 30  1  0
 10 31  2  0
  5 32  1  0
 32 33  1  0
 33  2  1  0
 31  6  1  0
 23 13  1  0
 30 25  1  0
 20 15  1  0
  1 34  1  0
  1 35  1  0
  1 36  1  0
  3 37  1  0
  3 38  1  0
  4 39  1  0
  4 40  1  0
  7 41  1  0
  8 42  1  0
 11 43  1  0
 12 44  1  0
 16 45  1  0
 17 46  1  0
 18 47  1  0
 19 48  1  0
 24 49  1  0
 24 50  1  0
 25 51  1  0
 26 52  1  0
 26 53  1  0
 27 54  1  0
 27 55  1  0
 28 56  1  0
 28 57  1  0
 29 58  1  0
 29 59  1  0
 30 60  1  0
 30 61  1  0
 31 62  1  0
 32 63  1  0
 32 64  1  0
 33 65  1  0
 33 66  1  0
M  END
>  <smiles>  (29) 
CN1CCN(c2ccnc(/C=C/c3nc4ccccc4c(=O)n3CC3CCCCC3)c2)CC1

>  <score_type>  (29) 
oracle

>  <origin>  (29) 
autodockgpu

>  <m_score__min__energy>  (29) 
-8.8100000000000005

>  <m_primary>  (29) 
energy

>  <rmsd>  (29) 
10.72570151679118

>  <m_score__min__rmsd>  (29) 
10.72570151679118

>  <meeko>  (29) 
{"free_energy": -8.43, "intermolecular_energy": -10.22, "internal_energy": -1.82, "cluster_size": 24, "cluster_id": 1, "rank_in_cluster": 19}

>  <energy>  (29) 
-8.51

>  <cluster_rmsd>  (29) 
0.91

>  <cluster>  (29) 
2

$$$$

     RDKit          3D

 66 70  0  0  0  0  0  0  0  0999 V2000
  141.9480   80.8750  223.6370 C   0  0  0  0  0  0  0  0  0  0  0  0
  141.3360   79.9080  222.7990 N   0  0  0  0  0  0  0  0  0  0  0  0
  142.2090   79.3580  221.7930 C   0  0  0  0  0  0  0  0  0  0  0  0
  141.4960   78.4070  220.8700 C   0  0  0  0  0  0  0  0  0  0  0  0
  140.7020   77.4390  221.6200 N   0  0  0  0  0  0  0  0  0  0  0  0
  140.8480   76.0440  221.4870 C   0  0  0  0  0  0  0  0  0  0  0  0
  141.9490   75.5070  220.8300 C   0  0  0  0  0  0  0  0  0  0  0  0
  142.0990   74.1250  220.6800 C   0  0  0  0  0  0  0  0  0  0  0  0
  141.1690   73.3280  221.1800 N   0  0  0  0  0  0  0  0  0  0  0  0
  140.0710   73.7690  221.8310 C   0  0  0  0  0  0  0  0  0  0  0  0
  139.1200   72.7890  222.3330 C   0  0  0  0  0  0  0  0  0  0  0  0
  139.3300   71.4870  222.3500 C   0  0  0  0  0  0  0  0  0  0  0  0
  139.5820   70.8040  223.6400 C   0  0  0  0  0  0  0  0  0  0  0  0
  140.1330   71.5160  224.6510 N   0  0  0  0  0  0  0  0  0  0  0  0
  140.3720   70.9830  225.8640 C   0  0  0  0  0  0  0  0  0  0  0  0
  140.9420   71.7550  226.8810 C   0  0  0  0  0  0  0  0  0  0  0  0
  141.1610   71.1360  228.1130 C   0  0  0  0  0  0  0  0  0  0  0  0
  140.8330   69.8150  228.3390 C   0  0  0  0  0  0  0  0  0  0  0  0
  140.2790   69.1150  227.3040 C   0  0  0  0  0  0  0  0  0  0  0  0
  140.0350   69.6610  226.0640 C   0  0  0  0  0  0  0  0  0  0  0  0
  139.4820   68.9770  225.0140 C   0  0  0  0  0  0  0  0  0  0  0  0
  139.1800   67.7600  225.2220 O   0  0  0  0  0  0  0  0  0  0  0  0
  139.2450   69.5150  223.8010 N   0  0  0  0  0  0  0  0  0  0  0  0
  138.6420   68.6990  222.8060 C   0  0  0  0  0  0  0  0  0  0  0  0
  137.1540   68.9560  222.7460 C   0  0  0  0  0  0  0  0  0  0  0  0
  136.5180   69.2940  224.0610 C   0  0  0  0  0  0  0  0  0  0  0  0
  135.1050   69.7390  223.8320 C   0  0  0  0  0  0  0  0  0  0  0  0
  134.6430   69.4180  222.4570 C   0  0  0  0  0  0  0  0  0  0  0  0
  134.9680   68.0100  221.9990 C   0  0  0  0  0  0  0  0  0  0  0  0
  136.4470   67.7230  222.1660 C   0  0  0  0  0  0  0  0  0  0  0  0
  139.9340   75.1240  221.9710 C   0  0  0  0  0  0  0  0  0  0  0  0
  139.7320   78.0510  222.5470 C   0  0  0  0  0  0  0  0  0  0  0  0
  140.5400   78.9340  223.4730 C   0  0  0  0  0  0  0  0  0  0  0  0
  141.7785   80.6072  224.6904 H   0  0  0  0  0  0  0  0  0  0  0  0
  143.0290   80.9035  223.4353 H   0  0  0  0  0  0  0  0  0  0  0  0
  141.5111   81.8642  223.4353 H   0  0  0  0  0  0  0  0  0  0  0  0
  142.6246   80.1836  221.1967 H   0  0  0  0  0  0  0  0  0  0  0  0
  143.0002   78.7939  222.3086 H   0  0  0  0  0  0  0  0  0  0  0  0
  140.8307   78.9806  220.2079 H   0  0  0  0  0  0  0  0  0  0  0  0
  142.2492   77.8601  220.2838 H   0  0  0  0  0  0  0  0  0  0  0  0
  142.7158   76.1812  220.4209 H   0  0  0  0  0  0  0  0  0  0  0  0
  142.9726   73.7089  220.1568 H   0  0  0  0  0  0  0  0  0  0  0  0
  138.1610   73.1589  222.7248 H   0  0  0  0  0  0  0  0  0  0  0  0
  139.3181   70.9121  221.4123 H   0  0  0  0  0  0  0  0  0  0  0  0
  141.2077   72.8097  226.7166 H   0  0  0  0  0  0  0  0  0  0  0  0
  141.6095   71.7203  228.9300 H   0  0  0  0  0  0  0  0  0  0  0  0
  141.0108   69.3425  229.3163 H   0  0  0  0  0  0  0  0  0  0  0  0
  140.0143   68.0604  227.4705 H   0  0  0  0  0  0  0  0  0  0  0  0
  139.0895   68.9294  221.8279 H   0  0  0  0  0  0  0  0  0  0  0  0
  138.8121   67.6422  223.0594 H   0  0  0  0  0  0  0  0  0  0  0  0
  137.0355   69.8432  222.1066 H   0  0  0  0  0  0  0  0  0  0  0  0
  136.5222   68.4056  224.7096 H   0  0  0  0  0  0  0  0  0  0  0  0
  137.0839   70.1036  224.5451 H   0  0  0  0  0  0  0  0  0  0  0  0
  134.4499   69.2317  224.5555 H   0  0  0  0  0  0  0  0  0  0  0  0
  135.0645   70.8307  223.9609 H   0  0  0  0  0  0  0  0  0  0  0  0
  133.5512   69.5476  222.4220 H   0  0  0  0  0  0  0  0  0  0  0  0
  135.1781   70.0995  221.7793 H   0  0  0  0  0  0  0  0  0  0  0  0
  134.3903   67.2920  222.5996 H   0  0  0  0  0  0  0  0  0  0  0  0
  134.7059   67.9137  220.9350 H   0  0  0  0  0  0  0  0  0  0  0  0
  136.5788   66.8713  222.8496 H   0  0  0  0  0  0  0  0  0  0  0  0
  136.8831   67.4822  221.1853 H   0  0  0  0  0  0  0  0  0  0  0  0
  139.0464   75.5035  222.4985 H   0  0  0  0  0  0  0  0  0  0  0  0
  138.9978   78.6517  221.9902 H   0  0  0  0  0  0  0  0  0  0  0  0
  139.1716   77.2871  223.1059 H   0  0  0  0  0  0  0  0  0  0  0  0
  139.8444   79.4598  224.1436 H   0  0  0  0  0  0  0  0  0  0  0  0
  141.2346   78.2752  224.0148 H   0  0  0  0  0  0  0  0  0  0  0  0
  1  2  1  0
  2  3  1  0
  3  4  1  0
  4  5  1  0
  5  6  1  0
  6  7  2  0
  7  8  1  0
  8  9  2  0
  9 10  1  0
 10 11  1  0
 11 12  2  0
 12 13  1  0
 13 14  2  0
 14 15  1  0
 15 16  2  0
 16 17  1  0
 17 18  2  0
 18 19  1  0
 19 20  2  0
 20 21  1  0
 21 22  2  0
 21 23  1  0
 23 24  1  0
 24 25  1  0
 25 26  1  0
 26 27  1  0
 27 28  1  0
 28 29  1  0
 29 30  1  0
 10 31  2  0
  5 32  1  0
 32 33  1  0
 33  2  1  0
 31  6  1  0
 23 13  1  0
 30 25  1  0
 20 15  1  0
  1 34  1  0
  1 35  1  0
  1 36  1  0
  3 37  1  0
  3 38  1  0
  4 39  1  0
  4 40  1  0
  7 41  1  0
  8 42  1  0
 11 43  1  0
 12 44  1  0
 16 45  1  0
 17 46  1  0
 18 47  1  0
 19 48  1  0
 24 49  1  0
 24 50  1  0
 25 51  1  0
 26 52  1  0
 26 53  1  0
 27 54  1  0
 27 55  1  0
 28 56  1  0
 28 57  1  0
 29 58  1  0
 29 59  1  0
 30 60  1  0
 30 61  1  0
 31 62  1  0
 32 63  1  0
 32 64  1  0
 33 65  1  0
 33 66  1  0
M  END
>  <smiles>  (30) 
CN1CCN(c2ccnc(/C=C/c3nc4ccccc4c(=O)n3CC3CCCCC3)c2)CC1

>  <score_type>  (30) 
oracle

>  <origin>  (30) 
autodockgpu

>  <m_score__min__energy>  (30) 
-8.8100000000000005

>  <m_primary>  (30) 
energy

>  <rmsd>  (30) 
11.46075119676308

>  <m_score__min__rmsd>  (30) 
11.46075119676308

>  <meeko>  (30) 
{"free_energy": -8.79, "intermolecular_energy": -10.58, "internal_energy": -1.52, "cluster_size": 24, "cluster_id": 1, "rank_in_cluster": 2}

>  <energy>  (30) 
-8.44

>  <cluster_rmsd>  (30) 
1.66

>  <cluster>  (30) 
2

$$$$

     RDKit          3D

 66 70  0  0  0  0  0  0  0  0999 V2000
  141.4330   81.8790  222.1930 C   0  0  0  0  0  0  0  0  0  0  0  0
  140.9650   80.5920  222.5650 N   0  0  0  0  0  0  0  0  0  0  0  0
  139.9160   80.0770  221.7240 C   0  0  0  0  0  0  0  0  0  0  0  0
  139.3860   78.7540  222.2090 C   0  0  0  0  0  0  0  0  0  0  0  0
  140.4750   77.8280  222.5080 N   0  0  0  0  0  0  0  0  0  0  0  0
  140.5910   76.5510  221.9240 C   0  0  0  0  0  0  0  0  0  0  0  0
  141.4590   76.3340  220.8600 C   0  0  0  0  0  0  0  0  0  0  0  0
  141.5740   75.0740  220.2640 C   0  0  0  0  0  0  0  0  0  0  0  0
  140.8360   74.0820  220.7340 N   0  0  0  0  0  0  0  0  0  0  0  0
  139.9700   74.2080  221.7620 C   0  0  0  0  0  0  0  0  0  0  0  0
  139.2150   73.0390  222.1830 C   0  0  0  0  0  0  0  0  0  0  0  0
  139.7100   71.8170  222.2530 C   0  0  0  0  0  0  0  0  0  0  0  0
  139.7770   71.1300  223.5640 C   0  0  0  0  0  0  0  0  0  0  0  0
  140.3540   71.7760  224.6040 N   0  0  0  0  0  0  0  0  0  0  0  0
  140.4350   71.2390  225.8350 C   0  0  0  0  0  0  0  0  0  0  0  0
  141.0400   71.9420  226.8810 C   0  0  0  0  0  0  0  0  0  0  0  0
  141.0870   71.3210  228.1310 C   0  0  0  0  0  0  0  0  0  0  0  0
  140.5620   70.0640  228.3470 C   0  0  0  0  0  0  0  0  0  0  0  0
  139.9840   69.4300  227.2820 C   0  0  0  0  0  0  0  0  0  0  0  0
  139.9020   69.9810  226.0230 C   0  0  0  0  0  0  0  0  0  0  0  0
  139.3280   69.3620  224.9450 C   0  0  0  0  0  0  0  0  0  0  0  0
  138.8440   68.2040  225.1430 O   0  0  0  0  0  0  0  0  0  0  0  0
  139.2510   69.9040  223.7140 N   0  0  0  0  0  0  0  0  0  0  0  0
  138.6060   69.1630  222.6870 C   0  0  0  0  0  0  0  0  0  0  0  0
  137.1370   68.9970  223.0020 C   0  0  0  0  0  0  0  0  0  0  0  0
  136.3080   68.4520  221.8790 C   0  0  0  0  0  0  0  0  0  0  0  0
  134.9340   68.1290  222.3840 C   0  0  0  0  0  0  0  0  0  0  0  0
  134.6850   68.7250  223.7220 C   0  0  0  0  0  0  0  0  0  0  0  0
  135.1060   70.1760  223.8500 C   0  0  0  0  0  0  0  0  0  0  0  0
  136.5510   70.3510  223.4270 C   0  0  0  0  0  0  0  0  0  0  0  0
  139.8650   75.4470  222.3370 C   0  0  0  0  0  0  0  0  0  0  0  0
  141.4590   78.3530  223.4720 C   0  0  0  0  0  0  0  0  0  0  0  0
  141.9820   79.6410  222.8760 C   0  0  0  0  0  0  0  0  0  0  0  0
  141.6468   82.4670  223.0977 H   0  0  0  0  0  0  0  0  0  0  0  0
  142.3515   81.7768  221.5965 H   0  0  0  0  0  0  0  0  0  0  0  0
  140.6634   82.3907  221.5965 H   0  0  0  0  0  0  0  0  0  0  0  0
  139.0897   80.8029  221.7060 H   0  0  0  0  0  0  0  0  0  0  0  0
  140.3384   79.9205  220.7205 H   0  0  0  0  0  0  0  0  0  0  0  0
  138.7929   78.9173  223.1209 H   0  0  0  0  0  0  0  0  0  0  0  0
  138.7631   78.3155  221.4154 H   0  0  0  0  0  0  0  0  0  0  0  0
  142.0665   77.1686  220.4799 H   0  0  0  0  0  0  0  0  0  0  0  0
  142.2634   74.9114  219.4224 H   0  0  0  0  0  0  0  0  0  0  0  0
  138.1606   73.1823  222.4619 H   0  0  0  0  0  0  0  0  0  0  0  0
  140.0702   71.3125  221.3443 H   0  0  0  0  0  0  0  0  0  0  0  0
  141.4627   72.9456  226.7255 H   0  0  0  0  0  0  0  0  0  0  0  0
  141.5584   71.8520  228.9712 H   0  0  0  0  0  0  0  0  0  0  0  0
  140.6065   69.5894  229.3384 H   0  0  0  0  0  0  0  0  0  0  0  0
  139.5622   68.4264  227.4397 H   0  0  0  0  0  0  0  0  0  0  0  0
  138.7139   69.6975  221.7317 H   0  0  0  0  0  0  0  0  0  0  0  0
  139.0712   68.1686  222.6177 H   0  0  0  0  0  0  0  0  0  0  0  0
  137.0931   68.2519  223.8100 H   0  0  0  0  0  0  0  0  0  0  0  0
  136.2373   69.2023  221.0777 H   0  0  0  0  0  0  0  0  0  0  0  0
  136.7783   67.5388  221.4854 H   0  0  0  0  0  0  0  0  0  0  0  0
  134.1918   68.5235  221.6745 H   0  0  0  0  0  0  0  0  0  0  0  0
  134.8509   67.0359  222.4752 H   0  0  0  0  0  0  0  0  0  0  0  0
  133.6073   68.6597  223.9325 H   0  0  0  0  0  0  0  0  0  0  0  0
  135.2971   68.1564  224.4376 H   0  0  0  0  0  0  0  0  0  0  0  0
  134.4636   70.7969  223.2082 H   0  0  0  0  0  0  0  0  0  0  0  0
  135.0042   70.4836  224.9012 H   0  0  0  0  0  0  0  0  0  0  0  0
  136.6013   71.0522  222.5810 H   0  0  0  0  0  0  0  0  0  0  0  0
  137.1312   70.7480  224.2730 H   0  0  0  0  0  0  0  0  0  0  0  0
  139.1635   75.5718  223.1751 H   0  0  0  0  0  0  0  0  0  0  0  0
  140.9773   78.5486  224.4414 H   0  0  0  0  0  0  0  0  0  0  0  0
  142.2713   77.6331  223.6503 H   0  0  0  0  0  0  0  0  0  0  0  0
  142.6751   80.0992  223.5969 H   0  0  0  0  0  0  0  0  0  0  0  0
  142.4712   79.3766  221.9269 H   0  0  0  0  0  0  0  0  0  0  0  0
  1  2  1  0
  2  3  1  0
  3  4  1  0
  4  5  1  0
  5  6  1  0
  6  7  2  0
  7  8  1  0
  8  9  2  0
  9 10  1  0
 10 11  1  0
 11 12  2  0
 12 13  1  0
 13 14  2  0
 14 15  1  0
 15 16  2  0
 16 17  1  0
 17 18  2  0
 18 19  1  0
 19 20  2  0
 20 21  1  0
 21 22  2  0
 21 23  1  0
 23 24  1  0
 24 25  1  0
 25 26  1  0
 26 27  1  0
 27 28  1  0
 28 29  1  0
 29 30  1  0
 10 31  2  0
  5 32  1  0
 32 33  1  0
 33  2  1  0
 31  6  1  0
 23 13  1  0
 30 25  1  0
 20 15  1  0
  1 34  1  0
  1 35  1  0
  1 36  1  0
  3 37  1  0
  3 38  1  0
  4 39  1  0
  4 40  1  0
  7 41  1  0
  8 42  1  0
 11 43  1  0
 12 44  1  0
 16 45  1  0
 17 46  1  0
 18 47  1  0
 19 48  1  0
 24 49  1  0
 24 50  1  0
 25 51  1  0
 26 52  1  0
 26 53  1  0
 27 54  1  0
 27 55  1  0
 28 56  1  0
 28 57  1  0
 29 58  1  0
 29 59  1  0
 30 60  1  0
 30 61  1  0
 31 62  1  0
 32 63  1  0
 32 64  1  0
 33 65  1  0
 33 66  1  0
M  END
>  <smiles>  (31) 
CN1CCN(c2ccnc(/C=C/c3nc4ccccc4c(=O)n3CC3CCCCC3)c2)CC1

>  <score_type>  (31) 
oracle

>  <origin>  (31) 
autodockgpu

>  <m_score__min__energy>  (31) 
-8.8100000000000005

>  <m_primary>  (31) 
energy

>  <rmsd>  (31) 
11.462820808740194

>  <m_score__min__rmsd>  (31) 
11.462820808740194

>  <meeko>  (31) 
{"free_energy": -8.52, "intermolecular_energy": -10.31, "internal_energy": -1.51, "cluster_size": 24, "cluster_id": 1, "rank_in_cluster": 13}

>  <energy>  (31) 
-8.47

>  <cluster_rmsd>  (31) 
0.0

>  <cluster>  (31) 
3

$$$$

     RDKit          3D

 66 70  0  0  0  0  0  0  0  0999 V2000
  141.9570   80.7750  223.4610 C   0  0  0  0  0  0  0  0  0  0  0  0
  141.2900   79.7780  222.7030 N   0  0  0  0  0  0  0  0  0  0  0  0
  142.0760   79.2240  221.6310 C   0  0  0  0  0  0  0  0  0  0  0  0
  141.3000   78.2390  220.7970 C   0  0  0  0  0  0  0  0  0  0  0  0
  140.5990   77.2740  221.6380 N   0  0  0  0  0  0  0  0  0  0  0  0
  140.7620   75.8790  221.5190 C   0  0  0  0  0  0  0  0  0  0  0  0
  141.9090   75.3450  220.9450 C   0  0  0  0  0  0  0  0  0  0  0  0
  142.0770   73.9630  220.8110 C   0  0  0  0  0  0  0  0  0  0  0  0
  141.1160   73.1640  221.2430 N   0  0  0  0  0  0  0  0  0  0  0  0
  139.9720   73.6000  221.8120 C   0  0  0  0  0  0  0  0  0  0  0  0
  138.9920   72.6180  222.2450 C   0  0  0  0  0  0  0  0  0  0  0  0
  139.2210   71.3210  222.3290 C   0  0  0  0  0  0  0  0  0  0  0  0
  139.5180   70.7150  223.6470 C   0  0  0  0  0  0  0  0  0  0  0  0
  140.0960   71.4860  224.5980 N   0  0  0  0  0  0  0  0  0  0  0  0
  140.3760   71.0250  225.8310 C   0  0  0  0  0  0  0  0  0  0  0  0
  140.9740   71.8570  226.7830 C   0  0  0  0  0  0  0  0  0  0  0  0
  141.2340   71.3110  228.0410 C   0  0  0  0  0  0  0  0  0  0  0  0
  140.9210   70.0040  228.3540 C   0  0  0  0  0  0  0  0  0  0  0  0
  140.3380   69.2440  227.3790 C   0  0  0  0  0  0  0  0  0  0  0  0
  140.0530   69.7160  226.1170 C   0  0  0  0  0  0  0  0  0  0  0  0
  139.4700   68.9700  225.1270 C   0  0  0  0  0  0  0  0  0  0  0  0
  139.1810   67.7670  225.4140 O   0  0  0  0  0  0  0  0  0  0  0  0
  139.1920   69.4360  223.8940 N   0  0  0  0  0  0  0  0  0  0  0  0
  138.5630   68.5630  222.9670 C   0  0  0  0  0  0  0  0  0  0  0  0
  137.0650   68.5710  223.1700 C   0  0  0  0  0  0  0  0  0  0  0  0
  136.2580   68.7360  221.9180 C   0  0  0  0  0  0  0  0  0  0  0  0
  134.8080   68.5060  222.2250 C   0  0  0  0  0  0  0  0  0  0  0  0
  134.5480   68.5050  223.6870 C   0  0  0  0  0  0  0  0  0  0  0  0
  135.2040   69.6460  224.4410 C   0  0  0  0  0  0  0  0  0  0  0  0
  136.6890   69.6970  224.1440 C   0  0  0  0  0  0  0  0  0  0  0  0
  139.8190   74.9560  221.9380 C   0  0  0  0  0  0  0  0  0  0  0  0
  139.7080   77.8870  222.6390 C   0  0  0  0  0  0  0  0  0  0  0  0
  140.5800   78.8050  223.4680 C   0  0  0  0  0  0  0  0  0  0  0  0
  141.8213   80.5722  224.5336 H   0  0  0  0  0  0  0  0  0  0  0  0
  143.0299   80.7634  223.2185 H   0  0  0  0  0  0  0  0  0  0  0  0
  141.5369   81.7623  223.2185 H   0  0  0  0  0  0  0  0  0  0  0  0
  142.4162   80.0447  220.9823 H   0  0  0  0  0  0  0  0  0  0  0  0
  142.9237   78.6865  222.0810 H   0  0  0  0  0  0  0  0  0  0  0  0
  140.5648   78.7851  220.1878 H   0  0  0  0  0  0  0  0  0  0  0  0
  142.0065   77.6932  220.1543 H   0  0  0  0  0  0  0  0  0  0  0  0
  142.6998   76.0218  220.5893 H   0  0  0  0  0  0  0  0  0  0  0  0
  142.9891   73.5495  220.3559 H   0  0  0  0  0  0  0  0  0  0  0  0
  137.9910   72.9806  222.5216 H   0  0  0  0  0  0  0  0  0  0  0  0
  139.1914   70.6941  221.4256 H   0  0  0  0  0  0  0  0  0  0  0  0
  141.2295   72.9011  226.5494 H   0  0  0  0  0  0  0  0  0  0  0  0
  141.7040   71.9436  228.8084 H   0  0  0  0  0  0  0  0  0  0  0  0
  141.1327   69.5894  229.3506 H   0  0  0  0  0  0  0  0  0  0  0  0
  140.0830   68.2003  227.6147 H   0  0  0  0  0  0  0  0  0  0  0  0
  138.7920   68.8948  221.9435 H   0  0  0  0  0  0  0  0  0  0  0  0
  138.9396   67.5418  223.1259 H   0  0  0  0  0  0  0  0  0  0  0  0
  136.8185   67.5757  223.5683 H   0  0  0  0  0  0  0  0  0  0  0  0
  136.3929   69.7550  221.5262 H   0  0  0  0  0  0  0  0  0  0  0  0
  136.5941   68.0070  221.1659 H   0  0  0  0  0  0  0  0  0  0  0  0
  134.2139   69.3054  221.7581 H   0  0  0  0  0  0  0  0  0  0  0  0
  134.5260   67.5202  221.8266 H   0  0  0  0  0  0  0  0  0  0  0  0
  133.4611   68.5694  223.8431 H   0  0  0  0  0  0  0  0  0  0  0  0
  134.9838   67.5757  224.0827 H   0  0  0  0  0  0  0  0  0  0  0  0
  134.7411   70.5955  224.1342 H   0  0  0  0  0  0  0  0  0  0  0  0
  135.0633   69.4854  225.5201 H   0  0  0  0  0  0  0  0  0  0  0  0
  136.9376   70.6686  223.6921 H   0  0  0  0  0  0  0  0  0  0  0  0
  137.2508   69.5686  225.0810 H   0  0  0  0  0  0  0  0  0  0  0  0
  138.8938   75.3327  222.3985 H   0  0  0  0  0  0  0  0  0  0  0  0
  138.9127   78.4616  222.1417 H   0  0  0  0  0  0  0  0  0  0  0  0
  139.2185   77.1247  223.2629 H   0  0  0  0  0  0  0  0  0  0  0  0
  139.9389   79.3327  224.1895 H   0  0  0  0  0  0  0  0  0  0  0  0
  141.3349   78.1714  223.9566 H   0  0  0  0  0  0  0  0  0  0  0  0
  1  2  1  0
  2  3  1  0
  3  4  1  0
  4  5  1  0
  5  6  1  0
  6  7  2  0
  7  8  1  0
  8  9  2  0
  9 10  1  0
 10 11  1  0
 11 12  2  0
 12 13  1  0
 13 14  2  0
 14 15  1  0
 15 16  2  0
 16 17  1  0
 17 18  2  0
 18 19  1  0
 19 20  2  0
 20 21  1  0
 21 22  2  0
 21 23  1  0
 23 24  1  0
 24 25  1  0
 25 26  1  0
 26 27  1  0
 27 28  1  0
 28 29  1  0
 29 30  1  0
 10 31  2  0
  5 32  1  0
 32 33  1  0
 33  2  1  0
 31  6  1  0
 23 13  1  0
 30 25  1  0
 20 15  1  0
  1 34  1  0
  1 35  1  0
  1 36  1  0
  3 37  1  0
  3 38  1  0
  4 39  1  0
  4 40  1  0
  7 41  1  0
  8 42  1  0
 11 43  1  0
 12 44  1  0
 16 45  1  0
 17 46  1  0
 18 47  1  0
 19 48  1  0
 24 49  1  0
 24 50  1  0
 25 51  1  0
 26 52  1  0
 26 53  1  0
 27 54  1  0
 27 55  1  0
 28 56  1  0
 28 57  1  0
 29 58  1  0
 29 59  1  0
 30 60  1  0
 30 61  1  0
 31 62  1  0
 32 63  1  0
 32 64  1  0
 33 65  1  0
 33 66  1  0
M  END
>  <smiles>  (32) 
CN1CCN(c2ccnc(/C=C/c3nc4ccccc4c(=O)n3CC3CCCCC3)c2)CC1

>  <score_type>  (32) 
oracle

>  <origin>  (32) 
autodockgpu

>  <m_score__min__energy>  (32) 
-8.8100000000000005

>  <m_primary>  (32) 
energy

>  <rmsd>  (32) 
11.55447654695396

>  <m_score__min__rmsd>  (32) 
11.55447654695396

>  <meeko>  (32) 
{"free_energy": -8.81, "intermolecular_energy": -10.6, "internal_energy": -1.48, "cluster_size": 24, "cluster_id": 1, "rank_in_cluster": 1}

>  <energy>  (32) 
-8.22

>  <cluster_rmsd>  (32) 
0.8

>  <cluster>  (32) 
3

$$$$

     RDKit          3D

 66 70  0  0  0  0  0  0  0  0999 V2000
  142.2020   81.2370  223.9870 C   0  0  0  0  0  0  0  0  0  0  0  0
  141.5170   80.3590  223.1080 N   0  0  0  0  0  0  0  0  0  0  0  0
  142.2900   79.9420  221.9660 C   0  0  0  0  0  0  0  0  0  0  0  0
  141.4960   79.0880  221.0140 C   0  0  0  0  0  0  0  0  0  0  0  0
  140.7860   78.0290  221.7230 N   0  0  0  0  0  0  0  0  0  0  0  0
  140.9280   76.6600  221.4190 C   0  0  0  0  0  0  0  0  0  0  0  0
  141.8580   76.2360  220.4770 C   0  0  0  0  0  0  0  0  0  0  0  0
  141.9990   74.8820  220.1580 C   0  0  0  0  0  0  0  0  0  0  0  0
  141.2260   74.0020  220.7720 N   0  0  0  0  0  0  0  0  0  0  0  0
  140.2990   74.3300  221.6970 C   0  0  0  0  0  0  0  0  0  0  0  0
  139.5110   73.2670  222.2990 C   0  0  0  0  0  0  0  0  0  0  0  0
  139.8580   71.9940  222.3090 C   0  0  0  0  0  0  0  0  0  0  0  0
  139.7720   71.2230  223.5700 C   0  0  0  0  0  0  0  0  0  0  0  0
  140.4580   71.6670  224.6490 N   0  0  0  0  0  0  0  0  0  0  0  0
  140.4150   71.0440  225.8410 C   0  0  0  0  0  0  0  0  0  0  0  0
  141.1400   71.5390  226.9300 C   0  0  0  0  0  0  0  0  0  0  0  0
  141.0470   70.8400  228.1350 C   0  0  0  0  0  0  0  0  0  0  0  0
  140.2750   69.7040  228.2680 C   0  0  0  0  0  0  0  0  0  0  0  0
  139.5910   69.2730  227.1650 C   0  0  0  0  0  0  0  0  0  0  0  0
  139.6360   69.9110  225.9460 C   0  0  0  0  0  0  0  0  0  0  0  0
  138.9590   69.4950  224.8310 C   0  0  0  0  0  0  0  0  0  0  0  0
  138.2480   68.4490  224.9530 O   0  0  0  0  0  0  0  0  0  0  0  0
  139.0060   70.1220  223.6390 N   0  0  0  0  0  0  0  0  0  0  0  0
  138.2340   69.5970  222.5680 C   0  0  0  0  0  0  0  0  0  0  0  0
  138.8660   68.3310  222.0370 C   0  0  0  0  0  0  0  0  0  0  0  0
  139.5060   68.4610  220.6880 C   0  0  0  0  0  0  0  0  0  0  0  0
  140.2790   67.2140  220.3800 C   0  0  0  0  0  0  0  0  0  0  0  0
  139.9370   66.1100  221.3130 C   0  0  0  0  0  0  0  0  0  0  0  0
  138.4500   65.9190  221.5400 C   0  0  0  0  0  0  0  0  0  0  0  0
  137.8050   67.2230  221.9670 C   0  0  0  0  0  0  0  0  0  0  0  0
  140.1690   75.6590  222.0020 C   0  0  0  0  0  0  0  0  0  0  0  0
  139.9090   78.5150  222.8040 C   0  0  0  0  0  0  0  0  0  0  0  0
  140.7970   79.3030  223.7410 C   0  0  0  0  0  0  0  0  0  0  0  0
  141.9838   80.9573  225.0282 H   0  0  0  0  0  0  0  0  0  0  0  0
  143.2848   81.1648  223.8072 H   0  0  0  0  0  0  0  0  0  0  0  0
  141.8685   82.2697  223.8072 H   0  0  0  0  0  0  0  0  0  0  0  0
  142.6388   80.8371  221.4301 H   0  0  0  0  0  0  0  0  0  0  0  0
  143.1321   79.3378  222.3346 H   0  0  0  0  0  0  0  0  0  0  0  0
  140.7654   79.7204  220.4885 H   0  0  0  0  0  0  0  0  0  0  0  0
  142.1914   78.6236  220.2994 H   0  0  0  0  0  0  0  0  0  0  0  0
  142.4943   76.9788  219.9736 H   0  0  0  0  0  0  0  0  0  0  0  0
  142.7379   74.5554  219.4115 H   0  0  0  0  0  0  0  0  0  0  0  0
  138.5604   73.5428  222.7790 H   0  0  0  0  0  0  0  0  0  0  0  0
  140.2089   71.5087  221.3863 H   0  0  0  0  0  0  0  0  0  0  0  0
  141.7593   72.4437  226.8405 H   0  0  0  0  0  0  0  0  0  0  0  0
  141.6077   71.2070  229.0073 H   0  0  0  0  0  0  0  0  0  0  0  0
  140.2121   69.1655  229.2251 H   0  0  0  0  0  0  0  0  0  0  0  0
  138.9719   68.3684  227.2567 H   0  0  0  0  0  0  0  0  0  0  0  0
  137.2192   69.3725  222.9282 H   0  0  0  0  0  0  0  0  0  0  0  0
  138.1908   70.3416  221.7595 H   0  0  0  0  0  0  0  0  0  0  0  0
  139.6752   68.0903  222.7421 H   0  0  0  0  0  0  0  0  0  0  0  0
  138.7272   68.6076  219.9251 H   0  0  0  0  0  0  0  0  0  0  0  0
  140.1872   69.3247  220.6868 H   0  0  0  0  0  0  0  0  0  0  0  0
  140.0483   66.8964  219.3524 H   0  0  0  0  0  0  0  0  0  0  0  0
  141.3500   67.4383  220.4927 H   0  0  0  0  0  0  0  0  0  0  0  0
  140.3453   65.1744  220.9032 H   0  0  0  0  0  0  0  0  0  0  0  0
  140.3713   66.3771  222.2877 H   0  0  0  0  0  0  0  0  0  0  0  0
  137.9829   65.5732  220.6060 H   0  0  0  0  0  0  0  0  0  0  0  0
  138.3050   65.1736  222.3358 H   0  0  0  0  0  0  0  0  0  0  0  0
  137.0316   67.5039  221.2370 H   0  0  0  0  0  0  0  0  0  0  0  0
  137.3490   67.0941  222.9597 H   0  0  0  0  0  0  0  0  0  0  0  0
  139.4189   75.9477  222.7529 H   0  0  0  0  0  0  0  0  0  0  0  0
  139.1187   79.1607  222.3935 H   0  0  0  0  0  0  0  0  0  0  0  0
  139.4132   77.6825  223.3247 H   0  0  0  0  0  0  0  0  0  0  0  0
  140.1666   79.7388  224.5300 H   0  0  0  0  0  0  0  0  0  0  0  0
  141.5453   78.6002  224.1361 H   0  0  0  0  0  0  0  0  0  0  0  0
  1  2  1  0
  2  3  1  0
  3  4  1  0
  4  5  1  0
  5  6  1  0
  6  7  2  0
  7  8  1  0
  8  9  2  0
  9 10  1  0
 10 11  1  0
 11 12  2  0
 12 13  1  0
 13 14  2  0
 14 15  1  0
 15 16  2  0
 16 17  1  0
 17 18  2  0
 18 19  1  0
 19 20  2  0
 20 21  1  0
 21 22  2  0
 21 23  1  0
 23 24  1  0
 24 25  1  0
 25 26  1  0
 26 27  1  0
 27 28  1  0
 28 29  1  0
 29 30  1  0
 10 31  2  0
  5 32  1  0
 32 33  1  0
 33  2  1  0
 31  6  1  0
 23 13  1  0
 30 25  1  0
 20 15  1  0
  1 34  1  0
  1 35  1  0
  1 36  1  0
  3 37  1  0
  3 38  1  0
  4 39  1  0
  4 40  1  0
  7 41  1  0
  8 42  1  0
 11 43  1  0
 12 44  1  0
 16 45  1  0
 17 46  1  0
 18 47  1  0
 19 48  1  0
 24 49  1  0
 24 50  1  0
 25 51  1  0
 26 52  1  0
 26 53  1  0
 27 54  1  0
 27 55  1  0
 28 56  1  0
 28 57  1  0
 29 58  1  0
 29 59  1  0
 30 60  1  0
 30 61  1  0
 31 62  1  0
 32 63  1  0
 32 64  1  0
 33 65  1  0
 33 66  1  0
M  END
>  <smiles>  (33) 
CN1CCN(c2ccnc(/C=C/c3nc4ccccc4c(=O)n3CC3CCCCC3)c2)CC1

>  <score_type>  (33) 
oracle

>  <origin>  (33) 
autodockgpu

>  <m_score__min__energy>  (33) 
-8.8100000000000005

>  <m_primary>  (33) 
energy

>  <rmsd>  (33) 
11.206585292735914

>  <m_score__min__rmsd>  (33) 
11.206585292735914

>  <meeko>  (33) 
{"free_energy": -8.72, "intermolecular_energy": -10.51, "internal_energy": -1.38, "cluster_size": 24, "cluster_id": 1, "rank_in_cluster": 6}

>  <energy>  (33) 
-8.18

>  <cluster_rmsd>  (33) 
0.6

>  <cluster>  (33) 
3

$$$$

     RDKit          3D

 66 70  0  0  0  0  0  0  0  0999 V2000
  132.1410   67.9790  226.0880 C   0  0  0  0  0  0  0  0  0  0  0  0
  133.1480   68.9780  226.0800 N   0  0  0  0  0  0  0  0  0  0  0  0
  134.3640   68.5890  225.4120 C   0  0  0  0  0  0  0  0  0  0  0  0
  135.4350   69.6420  225.5070 C   0  0  0  0  0  0  0  0  0  0  0  0
  134.9120   70.9590  225.1580 N   0  0  0  0  0  0  0  0  0  0  0  0
  135.4600   71.7690  224.1450 C   0  0  0  0  0  0  0  0  0  0  0  0
  134.6720   72.6970  223.4740 C   0  0  0  0  0  0  0  0  0  0  0  0
  135.2010   73.4980  222.4580 C   0  0  0  0  0  0  0  0  0  0  0  0
  136.4780   73.3590  222.1420 N   0  0  0  0  0  0  0  0  0  0  0  0
  137.3120   72.4830  222.7420 C   0  0  0  0  0  0  0  0  0  0  0  0
  138.6960   72.4250  222.3010 C   0  0  0  0  0  0  0  0  0  0  0  0
  139.4440   71.3380  222.3310 C   0  0  0  0  0  0  0  0  0  0  0  0
  139.6010   70.5940  223.6010 C   0  0  0  0  0  0  0  0  0  0  0  0
  140.0200   71.2670  224.6980 N   0  0  0  0  0  0  0  0  0  0  0  0
  140.1650   70.6760  225.8990 C   0  0  0  0  0  0  0  0  0  0  0  0
  140.6010   71.4110  227.0060 C   0  0  0  0  0  0  0  0  0  0  0  0
  140.7270   70.7310  228.2190 C   0  0  0  0  0  0  0  0  0  0  0  0
  140.4380   69.3880  228.3420 C   0  0  0  0  0  0  0  0  0  0  0  0
  140.0170   68.7280  227.2210 C   0  0  0  0  0  0  0  0  0  0  0  0
  139.8690   69.3330  225.9940 C   0  0  0  0  0  0  0  0  0  0  0  0
  139.4500   68.6890  224.8600 C   0  0  0  0  0  0  0  0  0  0  0  0
  139.1830   67.4520  224.9730 O   0  0  0  0  0  0  0  0  0  0  0  0
  139.3070   69.2850  223.6600 N   0  0  0  0  0  0  0  0  0  0  0  0
  138.8390   68.5050  222.5690 C   0  0  0  0  0  0  0  0  0  0  0  0
  137.3570   68.7220  222.3650 C   0  0  0  0  0  0  0  0  0  0  0  0
  136.5390   67.4670  222.2980 C   0  0  0  0  0  0  0  0  0  0  0  0
  135.0820   67.8200  222.3190 C   0  0  0  0  0  0  0  0  0  0  0  0
  134.8630   69.2690  222.0760 C   0  0  0  0  0  0  0  0  0  0  0  0
  135.6570   69.8370  220.9160 C   0  0  0  0  0  0  0  0  0  0  0  0
  137.1310   69.5200  221.0730 C   0  0  0  0  0  0  0  0  0  0  0  0
  136.7810   71.7030  223.7360 C   0  0  0  0  0  0  0  0  0  0  0  0
  133.7410   71.3690  225.9560 C   0  0  0  0  0  0  0  0  0  0  0  0
  132.6980   70.2920  225.7510 C   0  0  0  0  0  0  0  0  0  0  0  0
  131.8849   67.7249  227.1271 H   0  0  0  0  0  0  0  0  0  0  0  0
  131.2461   68.3563  225.5715 H   0  0  0  0  0  0  0  0  0  0  0  0
  132.5112   67.0811  225.5715 H   0  0  0  0  0  0  0  0  0  0  0  0
  134.7383   67.6624  225.8717 H   0  0  0  0  0  0  0  0  0  0  0  0
  134.1295   68.4454  224.3469 H   0  0  0  0  0  0  0  0  0  0  0  0
  135.8202   69.6702  226.5370 H   0  0  0  0  0  0  0  0  0  0  0  0
  136.2380   69.3872  224.7997 H   0  0  0  0  0  0  0  0  0  0  0  0
  133.6119   72.8030  223.7478 H   0  0  0  0  0  0  0  0  0  0  0  0
  134.5687   74.2286  221.9322 H   0  0  0  0  0  0  0  0  0  0  0  0
  139.1507   73.3498  221.9162 H   0  0  0  0  0  0  0  0  0  0  0  0
  139.9475   70.9872  221.4181 H   0  0  0  0  0  0  0  0  0  0  0  0
  140.8354   72.4826  226.9243 H   0  0  0  0  0  0  0  0  0  0  0  0
  141.0681   71.2849  229.1061 H   0  0  0  0  0  0  0  0  0  0  0  0
  140.5423   68.8676  229.3055 H   0  0  0  0  0  0  0  0  0  0  0  0
  139.7842   67.6562  227.3045 H   0  0  0  0  0  0  0  0  0  0  0  0
  139.3776   68.7986  221.6559 H   0  0  0  0  0  0  0  0  0  0  0  0
  139.0177   67.4418  222.7873 H   0  0  0  0  0  0  0  0  0  0  0  0
  137.0156   69.2687  223.2564 H   0  0  0  0  0  0  0  0  0  0  0  0
  136.7722   66.9262  221.3689 H   0  0  0  0  0  0  0  0  0  0  0  0
  136.7747   66.8285  223.1621 H   0  0  0  0  0  0  0  0  0  0  0  0
  134.5649   67.2454  221.5364 H   0  0  0  0  0  0  0  0  0  0  0  0
  134.6849   67.5761  223.3154 H   0  0  0  0  0  0  0  0  0  0  0  0
  133.7938   69.4255  221.8703 H   0  0  0  0  0  0  0  0  0  0  0  0
  135.2076   69.7941  222.9790 H   0  0  0  0  0  0  0  0  0  0  0  0
  135.2905   69.3967  219.9769 H   0  0  0  0  0  0  0  0  0  0  0  0
  135.5288   70.9294  220.8994 H   0  0  0  0  0  0  0  0  0  0  0  0
  137.4702   68.9249  220.2123 H   0  0  0  0  0  0  0  0  0  0  0  0
  137.7011   70.4594  221.1221 H   0  0  0  0  0  0  0  0  0  0  0  0
  137.4432   70.9824  224.2382 H   0  0  0  0  0  0  0  0  0  0  0  0
  134.0104   71.4424  227.0200 H   0  0  0  0  0  0  0  0  0  0  0  0
  133.3674   72.3558  225.6450 H   0  0  0  0  0  0  0  0  0  0  0  0
  131.8285   70.5280  226.3821 H   0  0  0  0  0  0  0  0  0  0  0  0
  132.4537   70.2855  224.6785 H   0  0  0  0  0  0  0  0  0  0  0  0
  1  2  1  0
  2  3  1  0
  3  4  1  0
  4  5  1  0
  5  6  1  0
  6  7  2  0
  7  8  1  0
  8  9  2  0
  9 10  1  0
 10 11  1  0
 11 12  2  0
 12 13  1  0
 13 14  2  0
 14 15  1  0
 15 16  2  0
 16 17  1  0
 17 18  2  0
 18 19  1  0
 19 20  2  0
 20 21  1  0
 21 22  2  0
 21 23  1  0
 23 24  1  0
 24 25  1  0
 25 26  1  0
 26 27  1  0
 27 28  1  0
 28 29  1  0
 29 30  1  0
 10 31  2  0
  5 32  1  0
 32 33  1  0
 33  2  1  0
 31  6  1  0
 23 13  1  0
 30 25  1  0
 20 15  1  0
  1 34  1  0
  1 35  1  0
  1 36  1  0
  3 37  1  0
  3 38  1  0
  4 39  1  0
  4 40  1  0
  7 41  1  0
  8 42  1  0
 11 43  1  0
 12 44  1  0
 16 45  1  0
 17 46  1  0
 18 47  1  0
 19 48  1  0
 24 49  1  0
 24 50  1  0
 25 51  1  0
 26 52  1  0
 26 53  1  0
 27 54  1  0
 27 55  1  0
 28 56  1  0
 28 57  1  0
 29 58  1  0
 29 59  1  0
 30 60  1  0
 30 61  1  0
 31 62  1  0
 32 63  1  0
 32 64  1  0
 33 65  1  0
 33 66  1  0
M  END
>  <smiles>  (34) 
CN1CCN(c2ccnc(/C=C/c3nc4ccccc4c(=O)n3CC3CCCCC3)c2)CC1

>  <score_type>  (34) 
oracle

>  <origin>  (34) 
autodockgpu

>  <m_score__min__energy>  (34) 
-8.8100000000000005

>  <m_primary>  (34) 
energy

>  <rmsd>  (34) 
11.781287923282138

>  <m_score__min__rmsd>  (34) 
11.781287923282138

>  <meeko>  (34) 
{"free_energy": -6.96, "intermolecular_energy": -8.75, "internal_energy": -3.26, "cluster_size": 8, "cluster_id": 7, "rank_in_cluster": 5}

>  <energy>  (34) 
-8.4

>  <cluster_rmsd>  (34) 
0.0

>  <cluster>  (34) 
4

$$$$

     RDKit          3D

 66 70  0  0  0  0  0  0  0  0999 V2000
  133.8850   76.0160  227.1210 C   0  0  0  0  0  0  0  0  0  0  0  0
  133.5650   74.9460  226.2460 N   0  0  0  0  0  0  0  0  0  0  0  0
  134.6430   74.5490  225.3770 C   0  0  0  0  0  0  0  0  0  0  0  0
  134.2330   73.4760  224.4040 C   0  0  0  0  0  0  0  0  0  0  0  0
  133.5290   72.3920  225.0810 N   0  0  0  0  0  0  0  0  0  0  0  0
  133.9330   71.0430  225.0140 C   0  0  0  0  0  0  0  0  0  0  0  0
  133.3290   70.0830  225.8180 C   0  0  0  0  0  0  0  0  0  0  0  0
  133.7290   68.7430  225.7700 C   0  0  0  0  0  0  0  0  0  0  0  0
  134.7000   68.4010  224.9400 N   0  0  0  0  0  0  0  0  0  0  0  0
  135.3380   69.2710  224.1270 C   0  0  0  0  0  0  0  0  0  0  0  0
  136.3910   68.7680  223.2610 C   0  0  0  0  0  0  0  0  0  0  0  0
  137.5150   69.4100  223.0040 C   0  0  0  0  0  0  0  0  0  0  0  0
  138.4690   69.6820  224.1040 C   0  0  0  0  0  0  0  0  0  0  0  0
  138.6150   68.7550  225.0790 N   0  0  0  0  0  0  0  0  0  0  0  0
  139.4770   68.9080  226.1010 C   0  0  0  0  0  0  0  0  0  0  0  0
  139.5950   67.9230  227.0860 C   0  0  0  0  0  0  0  0  0  0  0  0
  140.5110   68.1500  228.1150 C   0  0  0  0  0  0  0  0  0  0  0  0
  141.2780   69.2950  228.1760 C   0  0  0  0  0  0  0  0  0  0  0  0
  141.1140   70.2180  227.1820 C   0  0  0  0  0  0  0  0  0  0  0  0
  140.2320   70.0610  226.1370 C   0  0  0  0  0  0  0  0  0  0  0  0
  140.0530   70.9740  225.1330 C   0  0  0  0  0  0  0  0  0  0  0  0
  140.7600   72.0290  225.1880 O   0  0  0  0  0  0  0  0  0  0  0  0
  139.1880   70.8160  224.1120 N   0  0  0  0  0  0  0  0  0  0  0  0
  139.1180   71.8320  223.1210 C   0  0  0  0  0  0  0  0  0  0  0  0
  140.3420   71.7880  222.2360 C   0  0  0  0  0  0  0  0  0  0  0  0
  140.7390   73.1050  221.6390 C   0  0  0  0  0  0  0  0  0  0  0  0
  142.0760   72.9690  220.9750 C   0  0  0  0  0  0  0  0  0  0  0  0
  142.4680   71.5450  220.8110 C   0  0  0  0  0  0  0  0  0  0  0  0
  141.3720   70.6520  220.2650 C   0  0  0  0  0  0  0  0  0  0  0  0
  140.1110   70.7870  221.0950 C   0  0  0  0  0  0  0  0  0  0  0  0
  134.9380   70.5800  224.1830 C   0  0  0  0  0  0  0  0  0  0  0  0
  132.3560   72.8320  225.8570 C   0  0  0  0  0  0  0  0  0  0  0  0
  132.8700   73.8550  226.8470 C   0  0  0  0  0  0  0  0  0  0  0  0
  133.7844   75.6797  228.1635 H   0  0  0  0  0  0  0  0  0  0  0  0
  134.9198   76.3416  226.9390 H   0  0  0  0  0  0  0  0  0  0  0  0
  133.1988   76.8563  226.9390 H   0  0  0  0  0  0  0  0  0  0  0  0
  134.9815   75.4288  224.8101 H   0  0  0  0  0  0  0  0  0  0  0  0
  135.4470   74.1401  226.0067 H   0  0  0  0  0  0  0  0  0  0  0  0
  133.5701   73.9150  223.6439 H   0  0  0  0  0  0  0  0  0  0  0  0
  135.1396   73.0645  223.9363 H   0  0  0  0  0  0  0  0  0  0  0  0
  132.5226   70.3821  226.5038 H   0  0  0  0  0  0  0  0  0  0  0  0
  133.2458   67.9896  226.4095 H   0  0  0  0  0  0  0  0  0  0  0  0
  136.2411   67.7863  222.7880 H   0  0  0  0  0  0  0  0  0  0  0  0
  137.7419   69.7409  221.9798 H   0  0  0  0  0  0  0  0  0  0  0  0
  138.9899   67.0050  227.0517 H   0  0  0  0  0  0  0  0  0  0  0  0
  140.6248   67.3909  228.9029 H   0  0  0  0  0  0  0  0  0  0  0  0
  141.9948   69.4588  228.9942 H   0  0  0  0  0  0  0  0  0  0  0  0
  141.7193   71.1358  227.2189 H   0  0  0  0  0  0  0  0  0  0  0  0
  138.2196   71.6770  222.5055 H   0  0  0  0  0  0  0  0  0  0  0  0
  139.0708   72.8126  223.6172 H   0  0  0  0  0  0  0  0  0  0  0  0
  141.1682   71.4847  222.8958 H   0  0  0  0  0  0  0  0  0  0  0  0
  139.9892   73.4112  220.8947 H   0  0  0  0  0  0  0  0  0  0  0  0
  140.7989   73.8645  222.4325 H   0  0  0  0  0  0  0  0  0  0  0  0
  142.0308   73.4424  219.9831 H   0  0  0  0  0  0  0  0  0  0  0  0
  142.8262   73.4590  221.6130 H   0  0  0  0  0  0  0  0  0  0  0  0
  143.3232   71.5011  220.1206 H   0  0  0  0  0  0  0  0  0  0  0  0
  142.7080   71.1681  221.8162 H   0  0  0  0  0  0  0  0  0  0  0  0
  141.1539   70.9412  219.2264 H   0  0  0  0  0  0  0  0  0  0  0  0
  141.7130   69.6070  220.3053 H   0  0  0  0  0  0  0  0  0  0  0  0
  139.2902   71.1450  220.4561 H   0  0  0  0  0  0  0  0  0  0  0  0
  139.8502   69.8066  221.5202 H   0  0  0  0  0  0  0  0  0  0  0  0
  135.4451   71.3051  223.5295 H   0  0  0  0  0  0  0  0  0  0  0  0
  131.6066   73.2865  225.1922 H   0  0  0  0  0  0  0  0  0  0  0  0
  131.8703   71.9869  226.3668 H   0  0  0  0  0  0  0  0  0  0  0  0
  132.0120   74.2572  227.4057 H   0  0  0  0  0  0  0  0  0  0  0  0
  133.5918   73.3361  227.4949 H   0  0  0  0  0  0  0  0  0  0  0  0
  1  2  1  0
  2  3  1  0
  3  4  1  0
  4  5  1  0
  5  6  1  0
  6  7  2  0
  7  8  1  0
  8  9  2  0
  9 10  1  0
 10 11  1  0
 11 12  2  0
 12 13  1  0
 13 14  2  0
 14 15  1  0
 15 16  2  0
 16 17  1  0
 17 18  2  0
 18 19  1  0
 19 20  2  0
 20 21  1  0
 21 22  2  0
 21 23  1  0
 23 24  1  0
 24 25  1  0
 25 26  1  0
 26 27  1  0
 27 28  1  0
 28 29  1  0
 29 30  1  0
 10 31  2  0
  5 32  1  0
 32 33  1  0
 33  2  1  0
 31  6  1  0
 23 13  1  0
 30 25  1  0
 20 15  1  0
  1 34  1  0
  1 35  1  0
  1 36  1  0
  3 37  1  0
  3 38  1  0
  4 39  1  0
  4 40  1  0
  7 41  1  0
  8 42  1  0
 11 43  1  0
 12 44  1  0
 16 45  1  0
 17 46  1  0
 18 47  1  0
 19 48  1  0
 24 49  1  0
 24 50  1  0
 25 51  1  0
 26 52  1  0
 26 53  1  0
 27 54  1  0
 27 55  1  0
 28 56  1  0
 28 57  1  0
 29 58  1  0
 29 59  1  0
 30 60  1  0
 30 61  1  0
 31 62  1  0
 32 63  1  0
 32 64  1  0
 33 65  1  0
 33 66  1  0
M  END
>  <smiles>  (35) 
CN1CCN(c2ccnc(/C=C/c3nc4ccccc4c(=O)n3CC3CCCCC3)c2)CC1

>  <score_type>  (35) 
oracle

>  <origin>  (35) 
autodockgpu

>  <m_score__min__energy>  (35) 
-8.8100000000000005

>  <m_primary>  (35) 
energy

>  <rmsd>  (35) 
10.390296754239833

>  <m_score__min__rmsd>  (35) 
10.390296754239833

>  <meeko>  (35) 
{"free_energy": -8.01, "intermolecular_energy": -9.8, "internal_energy": -1.76, "cluster_size": 5, "cluster_id": 5, "rank_in_cluster": 3}

>  <energy>  (35) 
-8.28

>  <cluster_rmsd>  (35) 
1.34

>  <cluster>  (35) 
4

$$$$

     RDKit          3D

 66 70  0  0  0  0  0  0  0  0999 V2000
  145.5680   71.4810  217.4690 C   0  0  0  0  0  0  0  0  0  0  0  0
  145.1170   72.5260  218.3160 N   0  0  0  0  0  0  0  0  0  0  0  0
  144.0830   73.3500  217.7430 C   0  0  0  0  0  0  0  0  0  0  0  0
  143.7010   74.4990  218.6370 C   0  0  0  0  0  0  0  0  0  0  0  0
  143.4680   74.0470  220.0050 N   0  0  0  0  0  0  0  0  0  0  0  0
  142.2650   74.2740  220.7030 C   0  0  0  0  0  0  0  0  0  0  0  0
  141.8110   75.5670  220.9310 C   0  0  0  0  0  0  0  0  0  0  0  0
  140.6260   75.8060  221.6340 C   0  0  0  0  0  0  0  0  0  0  0  0
  139.9360   74.7700  222.0830 N   0  0  0  0  0  0  0  0  0  0  0  0
  140.3080   73.4840  221.9060 C   0  0  0  0  0  0  0  0  0  0  0  0
  139.4620   72.4340  222.4510 C   0  0  0  0  0  0  0  0  0  0  0  0
  139.7750   71.1530  222.4590 C   0  0  0  0  0  0  0  0  0  0  0  0
  139.8680   70.4310  223.7490 C   0  0  0  0  0  0  0  0  0  0  0  0
  140.3710   71.0850  224.8220 N   0  0  0  0  0  0  0  0  0  0  0  0
  140.4670   70.5160  226.0380 C   0  0  0  0  0  0  0  0  0  0  0  0
  140.9940   71.2290  227.1190 C   0  0  0  0  0  0  0  0  0  0  0  0
  141.0610   70.5730  228.3500 C   0  0  0  0  0  0  0  0  0  0  0  0
  140.6300   69.2730  228.5140 C   0  0  0  0  0  0  0  0  0  0  0  0
  140.1260   68.6320  227.4180 C   0  0  0  0  0  0  0  0  0  0  0  0
  140.0290   69.2160  226.1750 C   0  0  0  0  0  0  0  0  0  0  0  0
  139.5270   68.5890  225.0640 C   0  0  0  0  0  0  0  0  0  0  0  0
  139.1300   67.3920  225.2150 O   0  0  0  0  0  0  0  0  0  0  0  0
  139.4340   69.1640  223.8490 N   0  0  0  0  0  0  0  0  0  0  0  0
  138.8710   68.4090  222.7850 C   0  0  0  0  0  0  0  0  0  0  0  0
  137.4150   68.7700  222.5990 C   0  0  0  0  0  0  0  0  0  0  0  0
  136.7130   69.2250  223.8430 C   0  0  0  0  0  0  0  0  0  0  0  0
  135.3580   69.7580  223.4850 C   0  0  0  0  0  0  0  0  0  0  0  0
  134.9730   69.3950  222.0970 C   0  0  0  0  0  0  0  0  0  0  0  0
  135.2220   67.9430  221.7360 C   0  0  0  0  0  0  0  0  0  0  0  0
  136.6590   67.5610  222.0290 C   0  0  0  0  0  0  0  0  0  0  0  0
  141.4710   73.2630  221.2160 C   0  0  0  0  0  0  0  0  0  0  0  0
  144.6040   73.3160  220.5950 C   0  0  0  0  0  0  0  0  0  0  0  0
  144.8760   72.1500  219.6720 C   0  0  0  0  0  0  0  0  0  0  0  0
  145.9299   70.6425  218.0821 H   0  0  0  0  0  0  0  0  0  0  0  0
  144.7373   71.1393  216.8341 H   0  0  0  0  0  0  0  0  0  0  0  0
  146.3865   71.8510  216.8341 H   0  0  0  0  0  0  0  0  0  0  0  0
  144.4432   73.7529  216.7849 H   0  0  0  0  0  0  0  0  0  0  0  0
  143.1909   72.7210  217.6070 H   0  0  0  0  0  0  0  0  0  0  0  0
  144.5144   75.2396  218.6372 H   0  0  0  0  0  0  0  0  0  0  0  0
  142.7713   74.9450  218.2539 H   0  0  0  0  0  0  0  0  0  0  0  0
  142.3946   76.4187  220.5515 H   0  0  0  0  0  0  0  0  0  0  0  0
  140.2749   76.8335  221.8100 H   0  0  0  0  0  0  0  0  0  0  0  0
  138.4955   72.7284  222.8860 H   0  0  0  0  0  0  0  0  0  0  0  0
  139.9658   70.6240  221.5136 H   0  0  0  0  0  0  0  0  0  0  0  0
  141.3422   72.2661  227.0044 H   0  0  0  0  0  0  0  0  0  0  0  0
  141.4711   71.1108  229.2176 H   0  0  0  0  0  0  0  0  0  0  0  0
  140.6899   68.7711  229.4910 H   0  0  0  0  0  0  0  0  0  0  0  0
  139.7794   67.5946  227.5347 H   0  0  0  0  0  0  0  0  0  0  0  0
  139.4199   68.6250  221.8566 H   0  0  0  0  0  0  0  0  0  0  0  0
  138.9463   67.3385  223.0268 H   0  0  0  0  0  0  0  0  0  0  0  0
  137.4118   69.6269  221.9092 H   0  0  0  0  0  0  0  0  0  0  0  0
  136.6024   68.3757  224.5332 H   0  0  0  0  0  0  0  0  0  0  0  0
  137.3024   70.0170  224.3281 H   0  0  0  0  0  0  0  0  0  0  0  0
  134.6156   69.3409  224.1813 H   0  0  0  0  0  0  0  0  0  0  0  0
  135.3920   70.8552  223.5552 H   0  0  0  0  0  0  0  0  0  0  0  0
  133.8996   69.6010  221.9729 H   0  0  0  0  0  0  0  0  0  0  0  0
  135.6059   69.9972  221.4285 H   0  0  0  0  0  0  0  0  0  0  0  0
  134.5499   67.3030  222.3265 H   0  0  0  0  0  0  0  0  0  0  0  0
  135.0300   67.8061  220.6616 H   0  0  0  0  0  0  0  0  0  0  0  0
  136.6763   66.7412  222.7622 H   0  0  0  0  0  0  0  0  0  0  0  0
  137.1448   67.2364  221.0970 H   0  0  0  0  0  0  0  0  0  0  0  0
  141.7920   72.2224  221.0609 H   0  0  0  0  0  0  0  0  0  0  0  0
  145.4874   73.9685  220.6566 H   0  0  0  0  0  0  0  0  0  0  0  0
  144.3768   72.9761  221.6162 H   0  0  0  0  0  0  0  0  0  0  0  0
  145.7610   71.6133  220.0445 H   0  0  0  0  0  0  0  0  0  0  0  0
  143.9702   71.5259  219.6727 H   0  0  0  0  0  0  0  0  0  0  0  0
  1  2  1  0
  2  3  1  0
  3  4  1  0
  4  5  1  0
  5  6  1  0
  6  7  2  0
  7  8  1  0
  8  9  2  0
  9 10  1  0
 10 11  1  0
 11 12  2  0
 12 13  1  0
 13 14  2  0
 14 15  1  0
 15 16  2  0
 16 17  1  0
 17 18  2  0
 18 19  1  0
 19 20  2  0
 20 21  1  0
 21 22  2  0
 21 23  1  0
 23 24  1  0
 24 25  1  0
 25 26  1  0
 26 27  1  0
 27 28  1  0
 28 29  1  0
 29 30  1  0
 10 31  2  0
  5 32  1  0
 32 33  1  0
 33  2  1  0
 31  6  1  0
 23 13  1  0
 30 25  1  0
 20 15  1  0
  1 34  1  0
  1 35  1  0
  1 36  1  0
  3 37  1  0
  3 38  1  0
  4 39  1  0
  4 40  1  0
  7 41  1  0
  8 42  1  0
 11 43  1  0
 12 44  1  0
 16 45  1  0
 17 46  1  0
 18 47  1  0
 19 48  1  0
 24 49  1  0
 24 50  1  0
 25 51  1  0
 26 52  1  0
 26 53  1  0
 27 54  1  0
 27 55  1  0
 28 56  1  0
 28 57  1  0
 29 58  1  0
 29 59  1  0
 30 60  1  0
 30 61  1  0
 31 62  1  0
 32 63  1  0
 32 64  1  0
 33 65  1  0
 33 66  1  0
M  END
>  <smiles>  (36) 
CN1CCN(c2ccnc(/C=C/c3nc4ccccc4c(=O)n3CC3CCCCC3)c2)CC1

>  <score_type>  (36) 
oracle

>  <origin>  (36) 
autodockgpu

>  <m_score__min__energy>  (36) 
-8.8100000000000005

>  <m_primary>  (36) 
energy

>  <rmsd>  (36) 
11.670316969888106

>  <m_score__min__rmsd>  (36) 
11.670316969888106

>  <meeko>  (36) 
{"free_energy": -8.58, "intermolecular_energy": -10.37, "internal_energy": -1.54, "cluster_size": 6, "cluster_id": 2, "rank_in_cluster": 4}

>  <energy>  (36) 
-8.18

>  <cluster_rmsd>  (36) 
0.0

>  <cluster>  (36) 
5

$$$$

     RDKit          3D

 66 70  0  0  0  0  0  0  0  0999 V2000
  134.0020   76.1330  226.8950 C   0  0  0  0  0  0  0  0  0  0  0  0
  133.8560   75.0690  225.9690 N   0  0  0  0  0  0  0  0  0  0  0  0
  135.0830   74.6620  225.3340 C   0  0  0  0  0  0  0  0  0  0  0  0
  134.8680   73.5960  224.2940 C   0  0  0  0  0  0  0  0  0  0  0  0
  134.0320   72.5170  224.8100 N   0  0  0  0  0  0  0  0  0  0  0  0
  134.4280   71.1650  224.8220 C   0  0  0  0  0  0  0  0  0  0  0  0
  134.1150   70.3440  225.8990 C   0  0  0  0  0  0  0  0  0  0  0  0
  134.5130   69.0030  225.9280 C   0  0  0  0  0  0  0  0  0  0  0  0
  135.1980   68.5240  224.9030 N   0  0  0  0  0  0  0  0  0  0  0  0
  135.5430   69.2530  223.8200 C   0  0  0  0  0  0  0  0  0  0  0  0
  136.2990   68.6080  222.7590 C   0  0  0  0  0  0  0  0  0  0  0  0
  137.6170   68.5690  222.6990 C   0  0  0  0  0  0  0  0  0  0  0  0
  138.4140   69.0470  223.8520 C   0  0  0  0  0  0  0  0  0  0  0  0
  138.7730   68.1560  224.8050 N   0  0  0  0  0  0  0  0  0  0  0  0
  139.5190   68.4970  225.8720 C   0  0  0  0  0  0  0  0  0  0  0  0
  139.8660   67.5420  226.8340 C   0  0  0  0  0  0  0  0  0  0  0  0
  140.6420   67.9700  227.9120 C   0  0  0  0  0  0  0  0  0  0  0  0
  141.0610   69.2780  228.0440 C   0  0  0  0  0  0  0  0  0  0  0  0
  140.6870   70.1610  227.0700 C   0  0  0  0  0  0  0  0  0  0  0  0
  139.9240   69.8110  225.9790 C   0  0  0  0  0  0  0  0  0  0  0  0
  139.5390   70.6810  224.9940 C   0  0  0  0  0  0  0  0  0  0  0  0
  139.9250   71.8850  225.1150 O   0  0  0  0  0  0  0  0  0  0  0  0
  138.7920   70.3340  223.9280 N   0  0  0  0  0  0  0  0  0  0  0  0
  138.4830   71.3320  222.9650 C   0  0  0  0  0  0  0  0  0  0  0  0
  139.7430   71.8110  222.2820 C   0  0  0  0  0  0  0  0  0  0  0  0
  139.7050   73.2340  221.8120 C   0  0  0  0  0  0  0  0  0  0  0  0
  141.0740   73.6470  221.3600 C   0  0  0  0  0  0  0  0  0  0  0  0
  141.9770   72.4780  221.2000 C   0  0  0  0  0  0  0  0  0  0  0  0
  141.3650   71.3110  220.4500 C   0  0  0  0  0  0  0  0  0  0  0  0
  140.0450   70.9080  221.0780 C   0  0  0  0  0  0  0  0  0  0  0  0
  135.1480   70.5640  223.8030 C   0  0  0  0  0  0  0  0  0  0  0  0
  132.7300   72.9670  225.3360 C   0  0  0  0  0  0  0  0  0  0  0  0
  133.0430   73.9830  226.4130 C   0  0  0  0  0  0  0  0  0  0  0  0
  133.9477   75.7372  227.9199 H   0  0  0  0  0  0  0  0  0  0  0  0
  134.9756   76.6215  226.7417 H   0  0  0  0  0  0  0  0  0  0  0  0
  133.1960   76.8657  226.7417 H   0  0  0  0  0  0  0  0  0  0  0  0
  135.5380   75.5393  224.8510 H   0  0  0  0  0  0  0  0  0  0  0  0
  135.7385   74.2428  226.1116 H   0  0  0  0  0  0  0  0  0  0  0  0
  134.3761   74.0435  223.4178 H   0  0  0  0  0  0  0  0  0  0  0  0
  135.8466   73.1768  224.0172 H   0  0  0  0  0  0  0  0  0  0  0  0
  133.5439   70.7561  226.7440 H   0  0  0  0  0  0  0  0  0  0  0  0
  134.2616   68.3608  226.7849 H   0  0  0  0  0  0  0  0  0  0  0  0
  135.7343   68.1193  221.9513 H   0  0  0  0  0  0  0  0  0  0  0  0
  138.1196   68.1843  221.7993 H   0  0  0  0  0  0  0  0  0  0  0  0
  139.5400   66.4953  226.7441 H   0  0  0  0  0  0  0  0  0  0  0  0
  140.9294   67.2397  228.6828 H   0  0  0  0  0  0  0  0  0  0  0  0
  141.6727   69.5979  228.9004 H   0  0  0  0  0  0  0  0  0  0  0  0
  141.0132   71.2074  227.1629 H   0  0  0  0  0  0  0  0  0  0  0  0
  137.8002   70.9108  222.2124 H   0  0  0  0  0  0  0  0  0  0  0  0
  138.0060   72.1832  223.4728 H   0  0  0  0  0  0  0  0  0  0  0  0
  140.5297   71.7588  223.0491 H   0  0  0  0  0  0  0  0  0  0  0  0
  138.9990   73.3246  220.9734 H   0  0  0  0  0  0  0  0  0  0  0  0
  139.3791   73.8845  222.6370 H   0  0  0  0  0  0  0  0  0  0  0  0
  140.9887   74.1662  220.3940 H   0  0  0  0  0  0  0  0  0  0  0  0
  141.5029   74.3085  222.1272 H   0  0  0  0  0  0  0  0  0  0  0  0
  142.8722   72.8074  220.6522 H   0  0  0  0  0  0  0  0  0  0  0  0
  142.2033   72.1154  222.2136 H   0  0  0  0  0  0  0  0  0  0  0  0
  141.1934   71.6035  219.4036 H   0  0  0  0  0  0  0  0  0  0  0  0
  142.0563   70.4567  220.4971 H   0  0  0  0  0  0  0  0  0  0  0  0
  139.2409   71.0102  220.3344 H   0  0  0  0  0  0  0  0  0  0  0  0
  140.1082   69.8629  221.4155 H   0  0  0  0  0  0  0  0  0  0  0  0
  135.4182   71.1752  222.9293 H   0  0  0  0  0  0  0  0  0  0  0  0
  132.1339   73.4299  224.5357 H   0  0  0  0  0  0  0  0  0  0  0  0
  132.1441   72.1255  225.7344 H   0  0  0  0  0  0  0  0  0  0  0  0
  132.0936   74.3927  226.7882 H   0  0  0  0  0  0  0  0  0  0  0  0
  133.6142   73.4556  227.1912 H   0  0  0  0  0  0  0  0  0  0  0  0
  1  2  1  0
  2  3  1  0
  3  4  1  0
  4  5  1  0
  5  6  1  0
  6  7  2  0
  7  8  1  0
  8  9  2  0
  9 10  1  0
 10 11  1  0
 11 12  2  0
 12 13  1  0
 13 14  2  0
 14 15  1  0
 15 16  2  0
 16 17  1  0
 17 18  2  0
 18 19  1  0
 19 20  2  0
 20 21  1  0
 21 22  2  0
 21 23  1  0
 23 24  1  0
 24 25  1  0
 25 26  1  0
 26 27  1  0
 27 28  1  0
 28 29  1  0
 29 30  1  0
 10 31  2  0
  5 32  1  0
 32 33  1  0
 33  2  1  0
 31  6  1  0
 23 13  1  0
 30 25  1  0
 20 15  1  0
  1 34  1  0
  1 35  1  0
  1 36  1  0
  3 37  1  0
  3 38  1  0
  4 39  1  0
  4 40  1  0
  7 41  1  0
  8 42  1  0
 11 43  1  0
 12 44  1  0
 16 45  1  0
 17 46  1  0
 18 47  1  0
 19 48  1  0
 24 49  1  0
 24 50  1  0
 25 51  1  0
 26 52  1  0
 26 53  1  0
 27 54  1  0
 27 55  1  0
 28 56  1  0
 28 57  1  0
 29 58  1  0
 29 59  1  0
 30 60  1  0
 30 61  1  0
 31 62  1  0
 32 63  1  0
 32 64  1  0
 33 65  1  0
 33 66  1  0
M  END
>  <smiles>  (37) 
CN1CCN(c2ccnc(/C=C/c3nc4ccccc4c(=O)n3CC3CCCCC3)c2)CC1

>  <score_type>  (37) 
oracle

>  <origin>  (37) 
autodockgpu

>  <m_score__min__energy>  (37) 
-8.8100000000000005

>  <m_primary>  (37) 
energy

>  <rmsd>  (37) 
10.463180938867632

>  <m_score__min__rmsd>  (37) 
10.463180938867632

>  <meeko>  (37) 
{"free_energy": -7.91, "intermolecular_energy": -9.7, "internal_energy": -2.12, "cluster_size": 5, "cluster_id": 5, "rank_in_cluster": 5}

>  <energy>  (37) 
-8.02

>  <cluster_rmsd>  (37) 
1.14

>  <cluster>  (37) 
5

$$$$

     RDKit          3D

 66 70  0  0  0  0  0  0  0  0999 V2000
  140.3940   68.6030  228.7170 C   0  0  0  0  0  0  0  0  0  0  0  0
  140.4830   68.8540  227.3230 N   0  0  0  0  0  0  0  0  0  0  0  0
  139.4230   68.2650  226.5460 C   0  0  0  0  0  0  0  0  0  0  0  0
  139.6070   68.4780  225.0670 C   0  0  0  0  0  0  0  0  0  0  0  0
  139.9130   69.8730  224.7690 N   0  0  0  0  0  0  0  0  0  0  0  0
  139.1580   70.6620  223.8790 C   0  0  0  0  0  0  0  0  0  0  0  0
  137.8500   70.3150  223.5600 C   0  0  0  0  0  0  0  0  0  0  0  0
  137.0940   71.0830  222.6690 C   0  0  0  0  0  0  0  0  0  0  0  0
  137.6480   72.1560  222.1280 N   0  0  0  0  0  0  0  0  0  0  0  0
  138.9100   72.5610  222.3840 C   0  0  0  0  0  0  0  0  0  0  0  0
  139.4040   73.7590  221.7240 C   0  0  0  0  0  0  0  0  0  0  0  0
  140.6800   74.0660  221.5910 C   0  0  0  0  0  0  0  0  0  0  0  0
  141.0740   75.4790  221.3870 C   0  0  0  0  0  0  0  0  0  0  0  0
  140.8570   76.3620  222.3890 N   0  0  0  0  0  0  0  0  0  0  0  0
  141.2080   77.6590  222.2990 C   0  0  0  0  0  0  0  0  0  0  0  0
  140.9640   78.5370  223.3600 C   0  0  0  0  0  0  0  0  0  0  0  0
  141.3560   79.8670  223.1960 C   0  0  0  0  0  0  0  0  0  0  0  0
  141.9620   80.3170  222.0410 C   0  0  0  0  0  0  0  0  0  0  0  0
  142.1710   79.4080  221.0420 C   0  0  0  0  0  0  0  0  0  0  0  0
  141.8110   78.0820  221.1340 C   0  0  0  0  0  0  0  0  0  0  0  0
  142.0120   77.1570  220.1450 C   0  0  0  0  0  0  0  0  0  0  0  0
  142.5690   77.5710  219.0810 O   0  0  0  0  0  0  0  0  0  0  0  0
  141.6580   75.8600  220.2390 N   0  0  0  0  0  0  0  0  0  0  0  0
  141.9460   74.9990  219.1460 C   0  0  0  0  0  0  0  0  0  0  0  0
  143.1700   74.1640  219.4430 C   0  0  0  0  0  0  0  0  0  0  0  0
  142.8840   72.7850  219.9590 C   0  0  0  0  0  0  0  0  0  0  0  0
  144.1580   71.9950  220.0000 C   0  0  0  0  0  0  0  0  0  0  0  0
  145.3510   72.8650  219.8410 C   0  0  0  0  0  0  0  0  0  0  0  0
  145.3310   74.1190  220.6930 C   0  0  0  0  0  0  0  0  0  0  0  0
  144.0480   74.8950  220.4690 C   0  0  0  0  0  0  0  0  0  0  0  0
  139.6420   71.8010  223.2580 C   0  0  0  0  0  0  0  0  0  0  0  0
  141.0850   70.3970  225.4950 C   0  0  0  0  0  0  0  0  0  0  0  0
  140.7870   70.2020  226.9660 C   0  0  0  0  0  0  0  0  0  0  0  0
  140.7115   69.4982  229.2718 H   0  0  0  0  0  0  0  0  0  0  0  0
  139.3543   68.3583  228.9798 H   0  0  0  0  0  0  0  0  0  0  0  0
  141.0473   67.7579  228.9798 H   0  0  0  0  0  0  0  0  0  0  0  0
  139.3973   67.1837  226.7464 H   0  0  0  0  0  0  0  0  0  0  0  0
  138.4818   68.7526  226.8399 H   0  0  0  0  0  0  0  0  0  0  0  0
  140.4348   67.8457  224.7137 H   0  0  0  0  0  0  0  0  0  0  0  0
  138.6697   68.2104  224.5573 H   0  0  0  0  0  0  0  0  0  0  0  0
  137.4018   69.4203  224.0167 H   0  0  0  0  0  0  0  0  0  0  0  0
  136.0597   70.8009  222.4228 H   0  0  0  0  0  0  0  0  0  0  0  0
  138.6629   74.4569  221.3072 H   0  0  0  0  0  0  0  0  0  0  0  0
  141.4462   73.2778  221.6314 H   0  0  0  0  0  0  0  0  0  0  0  0
  140.4822   78.1932  224.2872 H   0  0  0  0  0  0  0  0  0  0  0  0
  141.1758   80.5795  224.0145 H   0  0  0  0  0  0  0  0  0  0  0  0
  142.2656   81.3683  221.9284 H   0  0  0  0  0  0  0  0  0  0  0  0
  142.6523   79.7539  220.1154 H   0  0  0  0  0  0  0  0  0  0  0  0
  141.0870   74.3343  218.9718 H   0  0  0  0  0  0  0  0  0  0  0  0
  142.1383   75.6094  218.2513 H   0  0  0  0  0  0  0  0  0  0  0  0
  143.6784   74.0346  218.4761 H   0  0  0  0  0  0  0  0  0  0  0  0
  142.4612   72.8526  220.9722 H   0  0  0  0  0  0  0  0  0  0  0  0
  142.1632   72.2860  219.2946 H   0  0  0  0  0  0  0  0  0  0  0  0
  144.2232   71.4742  220.9667 H   0  0  0  0  0  0  0  0  0  0  0  0
  144.1433   71.2785  219.1655 H   0  0  0  0  0  0  0  0  0  0  0  0
  146.2420   72.2795  220.1117 H   0  0  0  0  0  0  0  0  0  0  0  0
  145.3584   73.1983  218.7927 H   0  0  0  0  0  0  0  0  0  0  0  0
  145.4024   73.8367  221.7538 H   0  0  0  0  0  0  0  0  0  0  0  0
  146.1837   74.7538  220.4103 H   0  0  0  0  0  0  0  0  0  0  0  0
  143.5028   74.9815  221.4204 H   0  0  0  0  0  0  0  0  0  0  0  0
  144.2920   75.8980  220.0889 H   0  0  0  0  0  0  0  0  0  0  0  0
  140.6732   72.1136  223.4790 H   0  0  0  0  0  0  0  0  0  0  0  0
  141.9903   69.8402  225.2115 H   0  0  0  0  0  0  0  0  0  0  0  0
  141.2652   71.4559  225.2577 H   0  0  0  0  0  0  0  0  0  0  0  0
  141.6672   70.5224  227.5427 H   0  0  0  0  0  0  0  0  0  0  0  0
  139.8920   70.8005  227.1915 H   0  0  0  0  0  0  0  0  0  0  0  0
  1  2  1  0
  2  3  1  0
  3  4  1  0
  4  5  1  0
  5  6  1  0
  6  7  2  0
  7  8  1  0
  8  9  2  0
  9 10  1  0
 10 11  1  0
 11 12  2  0
 12 13  1  0
 13 14  2  0
 14 15  1  0
 15 16  2  0
 16 17  1  0
 17 18  2  0
 18 19  1  0
 19 20  2  0
 20 21  1  0
 21 22  2  0
 21 23  1  0
 23 24  1  0
 24 25  1  0
 25 26  1  0
 26 27  1  0
 27 28  1  0
 28 29  1  0
 29 30  1  0
 10 31  2  0
  5 32  1  0
 32 33  1  0
 33  2  1  0
 31  6  1  0
 23 13  1  0
 30 25  1  0
 20 15  1  0
  1 34  1  0
  1 35  1  0
  1 36  1  0
  3 37  1  0
  3 38  1  0
  4 39  1  0
  4 40  1  0
  7 41  1  0
  8 42  1  0
 11 43  1  0
 12 44  1  0
 16 45  1  0
 17 46  1  0
 18 47  1  0
 19 48  1  0
 24 49  1  0
 24 50  1  0
 25 51  1  0
 26 52  1  0
 26 53  1  0
 27 54  1  0
 27 55  1  0
 28 56  1  0
 28 57  1  0
 29 58  1  0
 29 59  1  0
 30 60  1  0
 30 61  1  0
 31 62  1  0
 32 63  1  0
 32 64  1  0
 33 65  1  0
 33 66  1  0
M  END
>  <smiles>  (38) 
CN1CCN(c2ccnc(/C=C/c3nc4ccccc4c(=O)n3CC3CCCCC3)c2)CC1

>  <score_type>  (38) 
oracle

>  <origin>  (38) 
autodockgpu

>  <m_score__min__energy>  (38) 
-8.8100000000000005

>  <m_primary>  (38) 
energy

>  <rmsd>  (38) 
4.837349523276691

>  <m_score__min__rmsd>  (38) 
4.837349523276691

>  <meeko>  (38) 
{"free_energy": -8.28, "intermolecular_energy": -10.07, "internal_energy": -1.42, "cluster_size": 2, "cluster_id": 4, "rank_in_cluster": 2}

>  <energy>  (38) 
-8.01

>  <cluster_rmsd>  (38) 
0.88

>  <cluster>  (38) 
5

$$$$

     RDKit          3D

 66 70  0  0  0  0  0  0  0  0999 V2000
  142.7940   80.6860  223.8460 C   0  0  0  0  0  0  0  0  0  0  0  0
  141.7720   80.0460  223.0970 N   0  0  0  0  0  0  0  0  0  0  0  0
  142.2470   79.3160  221.9500 C   0  0  0  0  0  0  0  0  0  0  0  0
  141.1240   78.7320  221.1350 C   0  0  0  0  0  0  0  0  0  0  0  0
  140.1660   78.0300  221.9830 N   0  0  0  0  0  0  0  0  0  0  0  0
  139.8060   76.6810  221.7970 C   0  0  0  0  0  0  0  0  0  0  0  0
  138.5450   76.2270  222.1650 C   0  0  0  0  0  0  0  0  0  0  0  0
  138.1790   74.8880  221.9960 C   0  0  0  0  0  0  0  0  0  0  0  0
  139.0610   74.0510  221.4750 N   0  0  0  0  0  0  0  0  0  0  0  0
  140.3040   74.4100  221.0920 C   0  0  0  0  0  0  0  0  0  0  0  0
  141.1810   73.3930  220.5330 C   0  0  0  0  0  0  0  0  0  0  0  0
  141.9770   72.6200  221.2460 C   0  0  0  0  0  0  0  0  0  0  0  0
  143.1380   71.9700  220.5970 C   0  0  0  0  0  0  0  0  0  0  0  0
  143.0780   70.6420  220.3420 N   0  0  0  0  0  0  0  0  0  0  0  0
  144.0750   69.9760  219.7320 C   0  0  0  0  0  0  0  0  0  0  0  0
  143.9700   68.6030  219.4880 C   0  0  0  0  0  0  0  0  0  0  0  0
  145.0440   67.9790  218.8500 C   0  0  0  0  0  0  0  0  0  0  0  0
  146.1740   68.6720  218.4670 C   0  0  0  0  0  0  0  0  0  0  0  0
  146.2130   70.0120  218.7340 C   0  0  0  0  0  0  0  0  0  0  0  0
  145.1930   70.6920  219.3590 C   0  0  0  0  0  0  0  0  0  0  0  0
  145.2140   72.0330  219.6360 C   0  0  0  0  0  0  0  0  0  0  0  0
  146.2540   72.6720  219.2820 O   0  0  0  0  0  0  0  0  0  0  0  0
  144.2130   72.6960  220.2470 N   0  0  0  0  0  0  0  0  0  0  0  0
  144.3540   74.0950  220.4530 C   0  0  0  0  0  0  0  0  0  0  0  0
  143.5700   74.8600  219.4120 C   0  0  0  0  0  0  0  0  0  0  0  0
  143.9750   74.5920  217.9930 C   0  0  0  0  0  0  0  0  0  0  0  0
  142.9880   75.2310  217.0630 C   0  0  0  0  0  0  0  0  0  0  0  0
  142.1050   76.1930  217.7730 C   0  0  0  0  0  0  0  0  0  0  0  0
  142.8330   77.1390  218.7080 C   0  0  0  0  0  0  0  0  0  0  0  0
  143.7020   76.3660  219.6790 C   0  0  0  0  0  0  0  0  0  0  0  0
  140.6520   75.7240  221.2620 C   0  0  0  0  0  0  0  0  0  0  0  0
  139.6120   78.8570  223.0700 C   0  0  0  0  0  0  0  0  0  0  0  0
  140.7990   79.3460  223.8710 C   0  0  0  0  0  0  0  0  0  0  0  0
  142.5942   80.5609  224.9204 H   0  0  0  0  0  0  0  0  0  0  0  0
  143.7666   80.2353  223.5990 H   0  0  0  0  0  0  0  0  0  0  0  0
  142.8132   81.7577  223.5990 H   0  0  0  0  0  0  0  0  0  0  0  0
  142.8278   79.9989  221.3126 H   0  0  0  0  0  0  0  0  0  0  0  0
  142.8643   78.4822  222.3156 H   0  0  0  0  0  0  0  0  0  0  0  0
  140.6056   79.5443  220.6044 H   0  0  0  0  0  0  0  0  0  0  0  0
  141.5499   78.0120  220.4208 H   0  0  0  0  0  0  0  0  0  0  0  0
  137.8215   76.9340  222.5971 H   0  0  0  0  0  0  0  0  0  0  0  0
  137.1785   74.5380  222.2902 H   0  0  0  0  0  0  0  0  0  0  0  0
  141.1803   73.2595  219.4411 H   0  0  0  0  0  0  0  0  0  0  0  0
  141.7795   72.4593  222.3161 H   0  0  0  0  0  0  0  0  0  0  0  0
  143.0758   68.0364  219.7871 H   0  0  0  0  0  0  0  0  0  0  0  0
  144.9873   66.8996  218.6461 H   0  0  0  0  0  0  0  0  0  0  0  0
  147.0118   68.1653  217.9657 H   0  0  0  0  0  0  0  0  0  0  0  0
  147.1076   70.5770  218.4331 H   0  0  0  0  0  0  0  0  0  0  0  0
  143.9777   74.3542  221.4536 H   0  0  0  0  0  0  0  0  0  0  0  0
  145.4174   74.3637  220.3690 H   0  0  0  0  0  0  0  0  0  0  0  0
  142.5323   74.5088  219.5108 H   0  0  0  0  0  0  0  0  0  0  0  0
  144.9752   75.0123  217.8114 H   0  0  0  0  0  0  0  0  0  0  0  0
  143.9960   73.5065  217.8162 H   0  0  0  0  0  0  0  0  0  0  0  0
  143.5368   75.7664  216.2742 H   0  0  0  0  0  0  0  0  0  0  0  0
  142.3568   74.4378  216.6360 H   0  0  0  0  0  0  0  0  0  0  0  0
  141.5750   76.7942  217.0195 H   0  0  0  0  0  0  0  0  0  0  0  0
  141.4266   75.5939  218.3982 H   0  0  0  0  0  0  0  0  0  0  0  0
  143.4665   77.8159  218.1160 H   0  0  0  0  0  0  0  0  0  0  0  0
  142.0897   77.7150  219.2787 H   0  0  0  0  0  0  0  0  0  0  0  0
  144.7516   76.6688  219.5501 H   0  0  0  0  0  0  0  0  0  0  0  0
  143.3768   76.5817  220.7075 H   0  0  0  0  0  0  0  0  0  0  0  0
  141.6612   76.0369  220.9560 H   0  0  0  0  0  0  0  0  0  0  0  0
  139.0541   79.7094  222.6550 H   0  0  0  0  0  0  0  0  0  0  0  0
  138.9134   78.2827  223.6962 H   0  0  0  0  0  0  0  0  0  0  0  0
  140.4312   80.0215  224.6574 H   0  0  0  0  0  0  0  0  0  0  0  0
  141.2976   78.4541  224.2783 H   0  0  0  0  0  0  0  0  0  0  0  0
  1  2  1  0
  2  3  1  0
  3  4  1  0
  4  5  1  0
  5  6  1  0
  6  7  2  0
  7  8  1  0
  8  9  2  0
  9 10  1  0
 10 11  1  0
 11 12  2  0
 12 13  1  0
 13 14  2  0
 14 15  1  0
 15 16  2  0
 16 17  1  0
 17 18  2  0
 18 19  1  0
 19 20  2  0
 20 21  1  0
 21 22  2  0
 21 23  1  0
 23 24  1  0
 24 25  1  0
 25 26  1  0
 26 27  1  0
 27 28  1  0
 28 29  1  0
 29 30  1  0
 10 31  2  0
  5 32  1  0
 32 33  1  0
 33  2  1  0
 31  6  1  0
 23 13  1  0
 30 25  1  0
 20 15  1  0
  1 34  1  0
  1 35  1  0
  1 36  1  0
  3 37  1  0
  3 38  1  0
  4 39  1  0
  4 40  1  0
  7 41  1  0
  8 42  1  0
 11 43  1  0
 12 44  1  0
 16 45  1  0
 17 46  1  0
 18 47  1  0
 19 48  1  0
 24 49  1  0
 24 50  1  0
 25 51  1  0
 26 52  1  0
 26 53  1  0
 27 54  1  0
 27 55  1  0
 28 56  1  0
 28 57  1  0
 29 58  1  0
 29 59  1  0
 30 60  1  0
 30 61  1  0
 31 62  1  0
 32 63  1  0
 32 64  1  0
 33 65  1  0
 33 66  1  0
M  END
>  <smiles>  (39) 
CN1CCN(c2ccnc(/C=C/c3nc4ccccc4c(=O)n3CC3CCCCC3)c2)CC1

>  <score_type>  (39) 
oracle

>  <origin>  (39) 
autodockgpu

>  <m_score__min__energy>  (39) 
-8.8100000000000005

>  <m_primary>  (39) 
energy

>  <rmsd>  (39) 
9.711830608347613

>  <m_score__min__rmsd>  (39) 
9.711830608347613

>  <meeko>  (39) 
{"free_energy": -7.64, "intermolecular_energy": -9.43, "internal_energy": -2.18, "cluster_size": 2, "cluster_id": 6, "rank_in_cluster": 2}

>  <energy>  (39) 
-7.93

>  <cluster_rmsd>  (39) 
1.15

>  <cluster>  (39) 
5

$$$$

     RDKit          3D

 66 70  0  0  0  0  0  0  0  0999 V2000
  132.2050   67.9510  226.0560 C   0  0  0  0  0  0  0  0  0  0  0  0
  133.2600   68.9000  226.0680 N   0  0  0  0  0  0  0  0  0  0  0  0
  134.4190   68.5080  225.3070 C   0  0  0  0  0  0  0  0  0  0  0  0
  135.5460   69.4990  225.4220 C   0  0  0  0  0  0  0  0  0  0  0  0
  135.0730   70.8620  225.2040 N   0  0  0  0  0  0  0  0  0  0  0  0
  135.6100   71.7230  224.2260 C   0  0  0  0  0  0  0  0  0  0  0  0
  134.8660   72.7910  223.7380 C   0  0  0  0  0  0  0  0  0  0  0  0
  135.3830   73.6460  222.7590 C   0  0  0  0  0  0  0  0  0  0  0  0
  136.6030   73.4190  222.2990 N   0  0  0  0  0  0  0  0  0  0  0  0
  137.3890   72.4050  222.7190 C   0  0  0  0  0  0  0  0  0  0  0  0
  138.7120   72.2630  222.1330 C   0  0  0  0  0  0  0  0  0  0  0  0
  139.4520   71.1740  222.2180 C   0  0  0  0  0  0  0  0  0  0  0  0
  139.6180   70.5020  223.5270 C   0  0  0  0  0  0  0  0  0  0  0  0
  140.0520   71.2350  224.5800 N   0  0  0  0  0  0  0  0  0  0  0  0
  140.2050   70.7130  225.8110 C   0  0  0  0  0  0  0  0  0  0  0  0
  140.6560   71.5070  226.8700 C   0  0  0  0  0  0  0  0  0  0  0  0
  140.7900   70.8980  228.1190 C   0  0  0  0  0  0  0  0  0  0  0  0
  140.4940   69.5650  228.3210 C   0  0  0  0  0  0  0  0  0  0  0  0
  140.0580   68.8450  227.2450 C   0  0  0  0  0  0  0  0  0  0  0  0
  139.9020   69.3800  225.9860 C   0  0  0  0  0  0  0  0  0  0  0  0
  139.4680   68.6740  224.8950 C   0  0  0  0  0  0  0  0  0  0  0  0
  139.1950   67.4470  225.0810 O   0  0  0  0  0  0  0  0  0  0  0  0
  139.3160   69.2010  223.6640 N   0  0  0  0  0  0  0  0  0  0  0  0
  138.8330   68.3630  222.6240 C   0  0  0  0  0  0  0  0  0  0  0  0
  137.4400   68.7820  222.2150 C   0  0  0  0  0  0  0  0  0  0  0  0
  136.3960   67.7140  222.3410 C   0  0  0  0  0  0  0  0  0  0  0  0
  135.0390   68.3140  222.1220 C   0  0  0  0  0  0  0  0  0  0  0  0
  135.1280   69.6770  221.5370 C   0  0  0  0  0  0  0  0  0  0  0  0
  136.0940   69.7990  220.3740 C   0  0  0  0  0  0  0  0  0  0  0  0
  137.4620   69.2730  220.7610 C   0  0  0  0  0  0  0  0  0  0  0  0
  136.8720   71.5750  223.6780 C   0  0  0  0  0  0  0  0  0  0  0  0
  133.9680   71.2620  226.0930 C   0  0  0  0  0  0  0  0  0  0  0  0
  132.8620   70.2550  225.8650 C   0  0  0  0  0  0  0  0  0  0  0  0
  131.9259   67.6999  227.0900 H   0  0  0  0  0  0  0  0  0  0  0  0
  131.3350   68.3765  225.5344 H   0  0  0  0  0  0  0  0  0  0  0  0
  132.5363   67.0410  225.5344 H   0  0  0  0  0  0  0  0  0  0  0  0
  134.7687   67.5319  225.6744 H   0  0  0  0  0  0  0  0  0  0  0  0
  134.1233   68.4594  224.2486 H   0  0  0  0  0  0  0  0  0  0  0  0
  135.9853   69.4280  226.4280 H   0  0  0  0  0  0  0  0  0  0  0  0
  136.2973   69.2635  224.6538 H   0  0  0  0  0  0  0  0  0  0  0  0
  133.8528   72.9669  224.1286 H   0  0  0  0  0  0  0  0  0  0  0  0
  134.7878   74.4896  222.3793 H   0  0  0  0  0  0  0  0  0  0  0  0
  139.1237   73.1212  221.5817 H   0  0  0  0  0  0  0  0  0  0  0  0
  139.9429   70.7675  221.3215 H   0  0  0  0  0  0  0  0  0  0  0  0
  140.8960   72.5706  226.7245 H   0  0  0  0  0  0  0  0  0  0  0  0
  141.1428   71.4998  228.9695 H   0  0  0  0  0  0  0  0  0  0  0  0
  140.6051   69.0998  229.3116 H   0  0  0  0  0  0  0  0  0  0  0  0
  139.8189   67.7815  227.3923 H   0  0  0  0  0  0  0  0  0  0  0  0
  139.5041   68.4392  221.7558 H   0  0  0  0  0  0  0  0  0  0  0  0
  138.8016   67.3251  222.9871 H   0  0  0  0  0  0  0  0  0  0  0  0
  137.1553   69.5778  222.9190 H   0  0  0  0  0  0  0  0  0  0  0  0
  136.5776   66.9329  221.5880 H   0  0  0  0  0  0  0  0  0  0  0  0
  136.4435   67.2713  223.3469 H   0  0  0  0  0  0  0  0  0  0  0  0
  134.4703   67.6684  221.4365 H   0  0  0  0  0  0  0  0  0  0  0  0
  134.5373   68.3920  223.0978 H   0  0  0  0  0  0  0  0  0  0  0  0
  134.1269   69.9658  221.1842 H   0  0  0  0  0  0  0  0  0  0  0  0
  135.5096   70.3349  222.3317 H   0  0  0  0  0  0  0  0  0  0  0  0
  135.7104   69.2176  219.5226 H   0  0  0  0  0  0  0  0  0  0  0  0
  136.1862   70.8600  220.0987 H   0  0  0  0  0  0  0  0  0  0  0  0
  137.7328   68.4381  220.0980 H   0  0  0  0  0  0  0  0  0  0  0  0
  138.2021   70.0808  220.6624 H   0  0  0  0  0  0  0  0  0  0  0  0
  137.4964   70.7421  224.0333 H   0  0  0  0  0  0  0  0  0  0  0  0
  134.2951   71.2389  227.1430 H   0  0  0  0  0  0  0  0  0  0  0  0
  133.6298   72.2865  225.8785 H   0  0  0  0  0  0  0  0  0  0  0  0
  132.0394   70.4816  226.5592 H   0  0  0  0  0  0  0  0  0  0  0  0
  132.5628   70.3442  224.8102 H   0  0  0  0  0  0  0  0  0  0  0  0
  1  2  1  0
  2  3  1  0
  3  4  1  0
  4  5  1  0
  5  6  1  0
  6  7  2  0
  7  8  1  0
  8  9  2  0
  9 10  1  0
 10 11  1  0
 11 12  2  0
 12 13  1  0
 13 14  2  0
 14 15  1  0
 15 16  2  0
 16 17  1  0
 17 18  2  0
 18 19  1  0
 19 20  2  0
 20 21  1  0
 21 22  2  0
 21 23  1  0
 23 24  1  0
 24 25  1  0
 25 26  1  0
 26 27  1  0
 27 28  1  0
 28 29  1  0
 29 30  1  0
 10 31  2  0
  5 32  1  0
 32 33  1  0
 33  2  1  0
 31  6  1  0
 23 13  1  0
 30 25  1  0
 20 15  1  0
  1 34  1  0
  1 35  1  0
  1 36  1  0
  3 37  1  0
  3 38  1  0
  4 39  1  0
  4 40  1  0
  7 41  1  0
  8 42  1  0
 11 43  1  0
 12 44  1  0
 16 45  1  0
 17 46  1  0
 18 47  1  0
 19 48  1  0
 24 49  1  0
 24 50  1  0
 25 51  1  0
 26 52  1  0
 26 53  1  0
 27 54  1  0
 27 55  1  0
 28 56  1  0
 28 57  1  0
 29 58  1  0
 29 59  1  0
 30 60  1  0
 30 61  1  0
 31 62  1  0
 32 63  1  0
 32 64  1  0
 33 65  1  0
 33 66  1  0
M  END
>  <smiles>  (40) 
CN1CCN(c2ccnc(/C=C/c3nc4ccccc4c(=O)n3CC3CCCCC3)c2)CC1

>  <score_type>  (40) 
oracle

>  <origin>  (40) 
autodockgpu

>  <m_score__min__energy>  (40) 
-8.8100000000000005

>  <m_primary>  (40) 
energy

>  <rmsd>  (40) 
11.602954163907086

>  <m_score__min__rmsd>  (40) 
11.602954163907086

>  <meeko>  (40) 
{"free_energy": -7.11, "intermolecular_energy": -8.9, "internal_energy": -3.12, "cluster_size": 8, "cluster_id": 7, "rank_in_cluster": 1}

>  <energy>  (40) 
-7.91

>  <cluster_rmsd>  (40) 
0.81

>  <cluster>  (40) 
5

$$$$

     RDKit          3D

 66 70  0  0  0  0  0  0  0  0999 V2000
  145.9500   72.0220  216.8830 C   0  0  0  0  0  0  0  0  0  0  0  0
  145.4320   72.9140  217.8580 N   0  0  0  0  0  0  0  0  0  0  0  0
  144.3040   73.6900  217.4110 C   0  0  0  0  0  0  0  0  0  0  0  0
  143.8460   74.6860  218.4430 C   0  0  0  0  0  0  0  0  0  0  0  0
  143.7080   74.0610  219.7540 N   0  0  0  0  0  0  0  0  0  0  0  0
  142.5160   74.0850  220.5050 C   0  0  0  0  0  0  0  0  0  0  0  0
  141.9450   75.2930  220.8890 C   0  0  0  0  0  0  0  0  0  0  0  0
  140.7690   75.3300  221.6450 C   0  0  0  0  0  0  0  0  0  0  0  0
  140.2020   74.1860  221.9920 N   0  0  0  0  0  0  0  0  0  0  0  0
  140.6910   72.9720  221.6600 C   0  0  0  0  0  0  0  0  0  0  0  0
  139.9740   71.7880  222.1040 C   0  0  0  0  0  0  0  0  0  0  0  0
  139.2300   71.7310  223.1930 C   0  0  0  0  0  0  0  0  0  0  0  0
  139.5550   70.7440  224.2480 C   0  0  0  0  0  0  0  0  0  0  0  0
  140.1620   71.1790  225.3760 N   0  0  0  0  0  0  0  0  0  0  0  0
  140.4690   70.3570  226.3970 C   0  0  0  0  0  0  0  0  0  0  0  0
  141.0970   70.8500  227.5450 C   0  0  0  0  0  0  0  0  0  0  0  0
  141.3840   69.9380  228.5620 C   0  0  0  0  0  0  0  0  0  0  0  0
  141.0690   68.5990  228.4590 C   0  0  0  0  0  0  0  0  0  0  0  0
  140.4570   68.1810  227.3110 C   0  0  0  0  0  0  0  0  0  0  0  0
  140.1430   69.0230  226.2680 C   0  0  0  0  0  0  0  0  0  0  0  0
  139.5310   68.6240  225.1100 C   0  0  0  0  0  0  0  0  0  0  0  0
  139.2410   67.3900  225.0140 O   0  0  0  0  0  0  0  0  0  0  0  0
  139.2260   69.4510  224.0910 N   0  0  0  0  0  0  0  0  0  0  0  0
  138.5680   68.9100  222.9540 C   0  0  0  0  0  0  0  0  0  0  0  0
  137.0810   69.1710  223.0340 C   0  0  0  0  0  0  0  0  0  0  0  0
  136.5430   69.3350  224.4240 C   0  0  0  0  0  0  0  0  0  0  0  0
  135.1200   69.8040  224.3550 C   0  0  0  0  0  0  0  0  0  0  0  0
  134.5590   69.6640  222.9870 C   0  0  0  0  0  0  0  0  0  0  0  0
  134.8400   68.3270  222.3280 C   0  0  0  0  0  0  0  0  0  0  0  0
  136.3250   68.0230  222.3510 C   0  0  0  0  0  0  0  0  0  0  0  0
  141.8440   72.9480  220.9200 C   0  0  0  0  0  0  0  0  0  0  0  0
  144.9300   73.3840  220.2260 C   0  0  0  0  0  0  0  0  0  0  0  0
  145.2780   72.3630  219.1650 C   0  0  0  0  0  0  0  0  0  0  0  0
  146.4416   71.1755  217.3848 H   0  0  0  0  0  0  0  0  0  0  0  0
  145.1282   71.6486  216.2543 H   0  0  0  0  0  0  0  0  0  0  0  0
  146.6816   72.5506  216.2543 H   0  0  0  0  0  0  0  0  0  0  0  0
  144.5888   74.2333  216.4980 H   0  0  0  0  0  0  0  0  0  0  0  0
  143.4722   72.9949  217.2241 H   0  0  0  0  0  0  0  0  0  0  0  0
  144.5837   75.4993  218.5090 H   0  0  0  0  0  0  0  0  0  0  0  0
  142.8641   75.0771  218.1382 H   0  0  0  0  0  0  0  0  0  0  0  0
  142.4268   76.2365  220.5929 H   0  0  0  0  0  0  0  0  0  0  0  0
  140.3245   76.2905  221.9450 H   0  0  0  0  0  0  0  0  0  0  0  0
  140.0570   70.8782  221.4913 H   0  0  0  0  0  0  0  0  0  0  0  0
  138.3748   72.4118  223.3158 H   0  0  0  0  0  0  0  0  0  0  0  0
  141.3548   71.9149  227.6428 H   0  0  0  0  0  0  0  0  0  0  0  0
  141.8779   70.2992  229.4761 H   0  0  0  0  0  0  0  0  0  0  0  0
  141.3018   67.8940  229.2707 H   0  0  0  0  0  0  0  0  0  0  0  0
  140.2017   67.1153  227.2151 H   0  0  0  0  0  0  0  0  0  0  0  0
  138.9703   69.3798  222.0444 H   0  0  0  0  0  0  0  0  0  0  0  0
  138.7393   67.8238  222.9249 H   0  0  0  0  0  0  0  0  0  0  0  0
  136.9241   70.1334  222.5249 H   0  0  0  0  0  0  0  0  0  0  0  0
  136.5864   68.3702  224.9506 H   0  0  0  0  0  0  0  0  0  0  0  0
  137.1482   70.0756  224.9673 H   0  0  0  0  0  0  0  0  0  0  0  0
  134.5138   69.2060  225.0514 H   0  0  0  0  0  0  0  0  0  0  0  0
  135.0976   70.8698  224.6264 H   0  0  0  0  0  0  0  0  0  0  0  0
  133.4685   69.7953  223.0473 H   0  0  0  0  0  0  0  0  0  0  0  0
  135.0496   70.4287  222.3669 H   0  0  0  0  0  0  0  0  0  0  0  0
  134.3006   67.5363  222.8700 H   0  0  0  0  0  0  0  0  0  0  0  0
  134.5026   68.3691  221.2819 H   0  0  0  0  0  0  0  0  0  0  0  0
  136.4980   67.0900  222.9074 H   0  0  0  0  0  0  0  0  0  0  0  0
  136.6888   67.9124  221.3188 H   0  0  0  0  0  0  0  0  0  0  0  0
  142.2596   71.9689  220.6395 H   0  0  0  0  0  0  0  0  0  0  0  0
  145.7486   74.1097  220.3411 H   0  0  0  0  0  0  0  0  0  0  0  0
  144.7744   72.9093  221.2060 H   0  0  0  0  0  0  0  0  0  0  0  0
  146.2231   71.8772  219.4492 H   0  0  0  0  0  0  0  0  0  0  0  0
  144.4367   71.6561  219.1153 H   0  0  0  0  0  0  0  0  0  0  0  0
  1  2  1  0
  2  3  1  0
  3  4  1  0
  4  5  1  0
  5  6  1  0
  6  7  2  0
  7  8  1  0
  8  9  2  0
  9 10  1  0
 10 11  1  0
 11 12  2  0
 12 13  1  0
 13 14  2  0
 14 15  1  0
 15 16  2  0
 16 17  1  0
 17 18  2  0
 18 19  1  0
 19 20  2  0
 20 21  1  0
 21 22  2  0
 21 23  1  0
 23 24  1  0
 24 25  1  0
 25 26  1  0
 26 27  1  0
 27 28  1  0
 28 29  1  0
 29 30  1  0
 10 31  2  0
  5 32  1  0
 32 33  1  0
 33  2  1  0
 31  6  1  0
 23 13  1  0
 30 25  1  0
 20 15  1  0
  1 34  1  0
  1 35  1  0
  1 36  1  0
  3 37  1  0
  3 38  1  0
  4 39  1  0
  4 40  1  0
  7 41  1  0
  8 42  1  0
 11 43  1  0
 12 44  1  0
 16 45  1  0
 17 46  1  0
 18 47  1  0
 19 48  1  0
 24 49  1  0
 24 50  1  0
 25 51  1  0
 26 52  1  0
 26 53  1  0
 27 54  1  0
 27 55  1  0
 28 56  1  0
 28 57  1  0
 29 58  1  0
 29 59  1  0
 30 60  1  0
 30 61  1  0
 31 62  1  0
 32 63  1  0
 32 64  1  0
 33 65  1  0
 33 66  1  0
M  END
>  <smiles>  (41) 
CN1CCN(c2ccnc(/C=C/c3nc4ccccc4c(=O)n3CC3CCCCC3)c2)CC1

>  <score_type>  (41) 
oracle

>  <origin>  (41) 
autodockgpu

>  <m_score__min__energy>  (41) 
-8.8100000000000005

>  <m_primary>  (41) 
energy

>  <rmsd>  (41) 
12.016536450779137

>  <m_score__min__rmsd>  (41) 
12.016536450779137

>  <meeko>  (41) 
{"free_energy": -8.69, "intermolecular_energy": -10.48, "internal_energy": -1.45, "cluster_size": 6, "cluster_id": 2, "rank_in_cluster": 3}

>  <energy>  (41) 
-7.69

>  <cluster_rmsd>  (41) 
0.0

>  <cluster>  (41) 
6

$$$$

     RDKit          3D

 66 70  0  0  0  0  0  0  0  0999 V2000
  146.3260   73.3160  216.9960 C   0  0  0  0  0  0  0  0  0  0  0  0
  145.4420   72.8140  217.9860 N   0  0  0  0  0  0  0  0  0  0  0  0
  145.6410   73.3730  219.2980 C   0  0  0  0  0  0  0  0  0  0  0  0
  144.7460   72.7460  220.3330 C   0  0  0  0  0  0  0  0  0  0  0  0
  143.3630   72.6890  219.8700 N   0  0  0  0  0  0  0  0  0  0  0  0
  142.2830   73.2530  220.5760 C   0  0  0  0  0  0  0  0  0  0  0  0
  142.2450   74.6170  220.8430 C   0  0  0  0  0  0  0  0  0  0  0  0
  141.1840   75.1860  221.5540 C   0  0  0  0  0  0  0  0  0  0  0  0
  140.2070   74.3990  221.9730 N   0  0  0  0  0  0  0  0  0  0  0  0
  140.1680   73.0670  221.7570 C   0  0  0  0  0  0  0  0  0  0  0  0
  139.0370   72.3120  222.2720 C   0  0  0  0  0  0  0  0  0  0  0  0
  139.0120   70.9980  222.3970 C   0  0  0  0  0  0  0  0  0  0  0  0
  139.3570   70.3820  223.6980 C   0  0  0  0  0  0  0  0  0  0  0  0
  139.9090   71.1610  224.6580 N   0  0  0  0  0  0  0  0  0  0  0  0
  140.2290   70.6900  225.8770 C   0  0  0  0  0  0  0  0  0  0  0  0
  140.7980   71.5320  226.8390 C   0  0  0  0  0  0  0  0  0  0  0  0
  141.1030   70.9730  228.0810 C   0  0  0  0  0  0  0  0  0  0  0  0
  140.8620   69.6460  228.3700 C   0  0  0  0  0  0  0  0  0  0  0  0
  140.3050   68.8770  227.3860 C   0  0  0  0  0  0  0  0  0  0  0  0
  139.9780   69.3600  226.1390 C   0  0  0  0  0  0  0  0  0  0  0  0
  139.4200   68.6060  225.1410 C   0  0  0  0  0  0  0  0  0  0  0  0
  139.1970   67.3840  225.4060 O   0  0  0  0  0  0  0  0  0  0  0  0
  139.1010   69.0820  223.9220 N   0  0  0  0  0  0  0  0  0  0  0  0
  138.5040   68.1970  222.9840 C   0  0  0  0  0  0  0  0  0  0  0  0
  137.0760   68.6070  222.7100 C   0  0  0  0  0  0  0  0  0  0  0  0
  136.2860   68.9970  223.9230 C   0  0  0  0  0  0  0  0  0  0  0  0
  134.9760   69.5880  223.4970 C   0  0  0  0  0  0  0  0  0  0  0  0
  134.6960   69.3300  222.0610 C   0  0  0  0  0  0  0  0  0  0  0  0
  134.9430   67.9000  221.6220 C   0  0  0  0  0  0  0  0  0  0  0  0
  136.3430   67.4600  222.0000 C   0  0  0  0  0  0  0  0  0  0  0  0
  141.2120   72.5200  221.0600 C   0  0  0  0  0  0  0  0  0  0  0  0
  143.1930   71.9950  218.5800 C   0  0  0  0  0  0  0  0  0  0  0  0
  144.0730   72.7270  217.5920 C   0  0  0  0  0  0  0  0  0  0  0  0
  147.1836   73.8030  217.4832 H   0  0  0  0  0  0  0  0  0  0  0  0
  146.6834   72.4861  216.3687 H   0  0  0  0  0  0  0  0  0  0  0  0
  145.7963   74.0481  216.3687 H   0  0  0  0  0  0  0  0  0  0  0  0
  146.6884   73.2139  219.5942 H   0  0  0  0  0  0  0  0  0  0  0  0
  145.3937   74.4436  219.2464 H   0  0  0  0  0  0  0  0  0  0  0  0
  145.0975   71.7244  220.5399 H   0  0  0  0  0  0  0  0  0  0  0  0
  144.7832   73.3610  221.2443 H   0  0  0  0  0  0  0  0  0  0  0  0
  143.0642   75.2599  220.4886 H   0  0  0  0  0  0  0  0  0  0  0  0
  141.1623   76.2662  221.7607 H   0  0  0  0  0  0  0  0  0  0  0  0
  138.1420   72.8735  222.5780 H   0  0  0  0  0  0  0  0  0  0  0  0
  138.7367   70.3653  221.5403 H   0  0  0  0  0  0  0  0  0  0  0  0
  140.9970   72.5924  226.6249 H   0  0  0  0  0  0  0  0  0  0  0  0
  141.5509   71.6126  228.8558 H   0  0  0  0  0  0  0  0  0  0  0  0
  141.1085   69.2224  229.3548 H   0  0  0  0  0  0  0  0  0  0  0  0
  140.1078   67.8166  227.6022 H   0  0  0  0  0  0  0  0  0  0  0  0
  139.0758   68.2245  222.0447 H   0  0  0  0  0  0  0  0  0  0  0  0
  138.5099   67.1786  223.3997 H   0  0  0  0  0  0  0  0  0  0  0  0
  137.1463   69.5079  222.0828 H   0  0  0  0  0  0  0  0  0  0  0  0
  136.1025   68.1070  224.5429 H   0  0  0  0  0  0  0  0  0  0  0  0
  136.8511   69.7394  224.5057 H   0  0  0  0  0  0  0  0  0  0  0  0
  134.1716   69.1444  224.1020 H   0  0  0  0  0  0  0  0  0  0  0  0
  135.0274   70.6767  223.6454 H   0  0  0  0  0  0  0  0  0  0  0  0
  133.6405   69.5719  221.8674 H   0  0  0  0  0  0  0  0  0  0  0  0
  135.3923   69.9593  221.4873 H   0  0  0  0  0  0  0  0  0  0  0  0
  134.2120   67.2401  222.1120 H   0  0  0  0  0  0  0  0  0  0  0  0
  134.8360   67.8413  220.5288 H   0  0  0  0  0  0  0  0  0  0  0  0
  136.2835   66.5925  222.6737 H   0  0  0  0  0  0  0  0  0  0  0  0
  136.8952   67.1855  221.0891 H   0  0  0  0  0  0  0  0  0  0  0  0
  141.1994   71.4360  220.8737 H   0  0  0  0  0  0  0  0  0  0  0  0
  143.5080   70.9447  218.6669 H   0  0  0  0  0  0  0  0  0  0  0  0
  142.1410   71.9951  218.2587 H   0  0  0  0  0  0  0  0  0  0  0  0
  144.0235   72.1995  216.6280 H   0  0  0  0  0  0  0  0  0  0  0  0
  143.6936   73.7577  217.5313 H   0  0  0  0  0  0  0  0  0  0  0  0
  1  2  1  0
  2  3  1  0
  3  4  1  0
  4  5  1  0
  5  6  1  0
  6  7  2  0
  7  8  1  0
  8  9  2  0
  9 10  1  0
 10 11  1  0
 11 12  2  0
 12 13  1  0
 13 14  2  0
 14 15  1  0
 15 16  2  0
 16 17  1  0
 17 18  2  0
 18 19  1  0
 19 20  2  0
 20 21  1  0
 21 22  2  0
 21 23  1  0
 23 24  1  0
 24 25  1  0
 25 26  1  0
 26 27  1  0
 27 28  1  0
 28 29  1  0
 29 30  1  0
 10 31  2  0
  5 32  1  0
 32 33  1  0
 33  2  1  0
 31  6  1  0
 23 13  1  0
 30 25  1  0
 20 15  1  0
  1 34  1  0
  1 35  1  0
  1 36  1  0
  3 37  1  0
  3 38  1  0
  4 39  1  0
  4 40  1  0
  7 41  1  0
  8 42  1  0
 11 43  1  0
 12 44  1  0
 16 45  1  0
 17 46  1  0
 18 47  1  0
 19 48  1  0
 24 49  1  0
 24 50  1  0
 25 51  1  0
 26 52  1  0
 26 53  1  0
 27 54  1  0
 27 55  1  0
 28 56  1  0
 28 57  1  0
 29 58  1  0
 29 59  1  0
 30 60  1  0
 30 61  1  0
 31 62  1  0
 32 63  1  0
 32 64  1  0
 33 65  1  0
 33 66  1  0
M  END
>  <smiles>  (42) 
CN1CCN(c2ccnc(/C=C/c3nc4ccccc4c(=O)n3CC3CCCCC3)c2)CC1

>  <score_type>  (42) 
oracle

>  <origin>  (42) 
autodockgpu

>  <m_score__min__energy>  (42) 
-8.8100000000000005

>  <m_primary>  (42) 
energy

>  <rmsd>  (42) 
11.635841093303371

>  <m_score__min__rmsd>  (42) 
11.635841093303371

>  <meeko>  (42) 
{"free_energy": -8.51, "intermolecular_energy": -10.29, "internal_energy": -1.57, "cluster_size": 6, "cluster_id": 2, "rank_in_cluster": 5}

>  <energy>  (42) 
-7.64

>  <cluster_rmsd>  (42) 
0.87

>  <cluster>  (42) 
6

$$$$

     RDKit          3D

 66 70  0  0  0  0  0  0  0  0999 V2000
  142.0670   80.7220  222.9360 C   0  0  0  0  0  0  0  0  0  0  0  0
  141.4480   79.5700  222.3870 N   0  0  0  0  0  0  0  0  0  0  0  0
  141.8180   79.2910  221.0230 C   0  0  0  0  0  0  0  0  0  0  0  0
  141.0700   78.1170  220.4510 C   0  0  0  0  0  0  0  0  0  0  0  0
  141.1010   76.9780  221.3630 N   0  0  0  0  0  0  0  0  0  0  0  0
  141.5810   75.7040  221.0000 C   0  0  0  0  0  0  0  0  0  0  0  0
  142.6270   75.5730  220.0930 C   0  0  0  0  0  0  0  0  0  0  0  0
  143.1040   74.3140  219.7150 C   0  0  0  0  0  0  0  0  0  0  0  0
  142.5390   73.2390  220.2390 N   0  0  0  0  0  0  0  0  0  0  0  0
  141.5200   73.2790  221.1240 C   0  0  0  0  0  0  0  0  0  0  0  0
  140.9850   72.0230  221.6260 C   0  0  0  0  0  0  0  0  0  0  0  0
  139.8920   71.9180  222.3580 C   0  0  0  0  0  0  0  0  0  0  0  0
  139.9320   71.1500  223.6240 C   0  0  0  0  0  0  0  0  0  0  0  0
  140.4660   71.7370  224.7200 N   0  0  0  0  0  0  0  0  0  0  0  0
  140.5180   71.1240  225.9170 C   0  0  0  0  0  0  0  0  0  0  0  0
  141.0790   71.7690  227.0240 C   0  0  0  0  0  0  0  0  0  0  0  0
  141.0980   71.0700  228.2330 C   0  0  0  0  0  0  0  0  0  0  0  0
  140.5900   69.7930  228.3520 C   0  0  0  0  0  0  0  0  0  0  0  0
  140.0570   69.2190  227.2320 C   0  0  0  0  0  0  0  0  0  0  0  0
  140.0040   69.8480  226.0080 C   0  0  0  0  0  0  0  0  0  0  0  0
  139.4740   69.2890  224.8750 C   0  0  0  0  0  0  0  0  0  0  0  0
  139.0060   68.1130  224.9840 O   0  0  0  0  0  0  0  0  0  0  0  0
  139.4240   69.9080  223.6790 N   0  0  0  0  0  0  0  0  0  0  0  0
  138.8250   69.2230  222.5880 C   0  0  0  0  0  0  0  0  0  0  0  0
  137.3520   69.0080  222.8480 C   0  0  0  0  0  0  0  0  0  0  0  0
  136.5680   68.5130  221.6690 C   0  0  0  0  0  0  0  0  0  0  0  0
  135.1870   68.1330  222.1130 C   0  0  0  0  0  0  0  0  0  0  0  0
  134.8870   68.6420  223.4750 C   0  0  0  0  0  0  0  0  0  0  0  0
  135.2710   70.0910  223.7020 C   0  0  0  0  0  0  0  0  0  0  0  0
  136.7230   70.3210  223.3340 C   0  0  0  0  0  0  0  0  0  0  0  0
  141.0610   74.5170  221.4870 C   0  0  0  0  0  0  0  0  0  0  0  0
  140.5950   77.2790  222.7150 C   0  0  0  0  0  0  0  0  0  0  0  0
  141.4410   78.4210  223.2340 C   0  0  0  0  0  0  0  0  0  0  0  0
  142.0370   80.6662  224.0342 H   0  0  0  0  0  0  0  0  0  0  0  0
  143.1132   80.7715  222.5998 H   0  0  0  0  0  0  0  0  0  0  0  0
  141.5309   81.6217  222.5998 H   0  0  0  0  0  0  0  0  0  0  0  0
  141.6024   80.1789  220.4105 H   0  0  0  0  0  0  0  0  0  0  0  0
  142.8894   79.0420  221.0118 H   0  0  0  0  0  0  0  0  0  0  0  0
  140.0239   78.4085  220.2760 H   0  0  0  0  0  0  0  0  0  0  0  0
  141.5527   77.8218  219.5076 H   0  0  0  0  0  0  0  0  0  0  0  0
  143.0874   76.4758  219.6653 H   0  0  0  0  0  0  0  0  0  0  0  0
  143.9319   74.2197  218.9968 H   0  0  0  0  0  0  0  0  0  0  0  0
  141.5279   71.0987  221.3789 H   0  0  0  0  0  0  0  0  0  0  0  0
  138.9578   72.3974  222.0303 H   0  0  0  0  0  0  0  0  0  0  0  0
  141.4891   72.7867  226.9455 H   0  0  0  0  0  0  0  0  0  0  0  0
  141.5326   71.5540  229.1201 H   0  0  0  0  0  0  0  0  0  0  0  0
  140.6130   69.2568  229.3122 H   0  0  0  0  0  0  0  0  0  0  0  0
  139.6488   68.2007  227.3125 H   0  0  0  0  0  0  0  0  0  0  0  0
  138.9484   69.8205  221.6727 H   0  0  0  0  0  0  0  0  0  0  0  0
  139.3135   68.2447  222.4684 H   0  0  0  0  0  0  0  0  0  0  0  0
  137.3019   68.2156  223.6093 H   0  0  0  0  0  0  0  0  0  0  0  0
  136.5041   69.3076  220.9110 H   0  0  0  0  0  0  0  0  0  0  0  0
  137.0697   67.6346  221.2369 H   0  0  0  0  0  0  0  0  0  0  0  0
  134.4570   68.5546  221.4064 H   0  0  0  0  0  0  0  0  0  0  0  0
  135.1251   67.0350  222.1366 H   0  0  0  0  0  0  0  0  0  0  0  0
  133.8055   68.5416  223.6491 H   0  0  0  0  0  0  0  0  0  0  0  0
  135.4916   68.0445  224.1731 H   0  0  0  0  0  0  0  0  0  0  0  0
  134.6335   70.7359  223.0793 H   0  0  0  0  0  0  0  0  0  0  0  0
  135.1319   70.3326  224.7661 H   0  0  0  0  0  0  0  0  0  0  0  0
  136.7818   71.0723  222.5327 H   0  0  0  0  0  0  0  0  0  0  0  0
  137.2691   70.6788  224.2193 H   0  0  0  0  0  0  0  0  0  0  0  0
  140.2313   74.5715  222.2071 H   0  0  0  0  0  0  0  0  0  0  0  0
  139.5372   77.5774  222.6693 H   0  0  0  0  0  0  0  0  0  0  0  0
  140.6585   76.3999  223.3732 H   0  0  0  0  0  0  0  0  0  0  0  0
  141.0524   78.7196  224.2188 H   0  0  0  0  0  0  0  0  0  0  0  0
  142.4769   78.0539  223.2809 H   0  0  0  0  0  0  0  0  0  0  0  0
  1  2  1  0
  2  3  1  0
  3  4  1  0
  4  5  1  0
  5  6  1  0
  6  7  2  0
  7  8  1  0
  8  9  2  0
  9 10  1  0
 10 11  1  0
 11 12  2  0
 12 13  1  0
 13 14  2  0
 14 15  1  0
 15 16  2  0
 16 17  1  0
 17 18  2  0
 18 19  1  0
 19 20  2  0
 20 21  1  0
 21 22  2  0
 21 23  1  0
 23 24  1  0
 24 25  1  0
 25 26  1  0
 26 27  1  0
 27 28  1  0
 28 29  1  0
 29 30  1  0
 10 31  2  0
  5 32  1  0
 32 33  1  0
 33  2  1  0
 31  6  1  0
 23 13  1  0
 30 25  1  0
 20 15  1  0
  1 34  1  0
  1 35  1  0
  1 36  1  0
  3 37  1  0
  3 38  1  0
  4 39  1  0
  4 40  1  0
  7 41  1  0
  8 42  1  0
 11 43  1  0
 12 44  1  0
 16 45  1  0
 17 46  1  0
 18 47  1  0
 19 48  1  0
 24 49  1  0
 24 50  1  0
 25 51  1  0
 26 52  1  0
 26 53  1  0
 27 54  1  0
 27 55  1  0
 28 56  1  0
 28 57  1  0
 29 58  1  0
 29 59  1  0
 30 60  1  0
 30 61  1  0
 31 62  1  0
 32 63  1  0
 32 64  1  0
 33 65  1  0
 33 66  1  0
M  END
>  <smiles>  (43) 
CN1CCN(c2ccnc(/C=C/c3nc4ccccc4c(=O)n3CC3CCCCC3)c2)CC1

>  <score_type>  (43) 
oracle

>  <origin>  (43) 
autodockgpu

>  <m_score__min__energy>  (43) 
-8.8100000000000005

>  <m_primary>  (43) 
energy

>  <rmsd>  (43) 
11.466578663401265

>  <m_score__min__rmsd>  (43) 
11.466578663401265

>  <meeko>  (43) 
{"free_energy": -8.61, "intermolecular_energy": -10.4, "internal_energy": -1.46, "cluster_size": 24, "cluster_id": 1, "rank_in_cluster": 10}

>  <energy>  (43) 
-7.11

>  <cluster_rmsd>  (43) 
0.0

>  <cluster>  (43) 
7

$$$$

     RDKit          3D

 66 70  0  0  0  0  0  0  0  0999 V2000
  141.3590   82.0890  221.8890 C   0  0  0  0  0  0  0  0  0  0  0  0
  141.6660   80.7050  221.9240 N   0  0  0  0  0  0  0  0  0  0  0  0
  141.3380   80.0560  223.1680 C   0  0  0  0  0  0  0  0  0  0  0  0
  141.7650   78.6120  223.1940 C   0  0  0  0  0  0  0  0  0  0  0  0
  141.3430   77.9160  221.9830 N   0  0  0  0  0  0  0  0  0  0  0  0
  140.5520   76.7500  221.9920 C   0  0  0  0  0  0  0  0  0  0  0  0
  139.1670   76.8340  222.0710 C   0  0  0  0  0  0  0  0  0  0  0  0
  138.3720   75.6840  222.0940 C   0  0  0  0  0  0  0  0  0  0  0  0
  138.9640   74.5030  222.0380 N   0  0  0  0  0  0  0  0  0  0  0  0
  140.3010   74.3340  221.9600 C   0  0  0  0  0  0  0  0  0  0  0  0
  140.8290   72.9800  221.9060 C   0  0  0  0  0  0  0  0  0  0  0  0
  140.1000   71.8890  222.0400 C   0  0  0  0  0  0  0  0  0  0  0  0
  140.0440   71.2050  223.3520 C   0  0  0  0  0  0  0  0  0  0  0  0
  140.5920   71.8190  224.4270 N   0  0  0  0  0  0  0  0  0  0  0  0
  140.5630   71.2830  225.6610 C   0  0  0  0  0  0  0  0  0  0  0  0
  141.1420   71.9540  226.7430 C   0  0  0  0  0  0  0  0  0  0  0  0
  141.0720   71.3360  227.9930 C   0  0  0  0  0  0  0  0  0  0  0  0
  140.4610   70.1130  228.1760 C   0  0  0  0  0  0  0  0  0  0  0  0
  139.9150   69.5100  227.0770 C   0  0  0  0  0  0  0  0  0  0  0  0
  139.9450   70.0600  225.8150 C   0  0  0  0  0  0  0  0  0  0  0  0
  139.4050   69.4710  224.7030 C   0  0  0  0  0  0  0  0  0  0  0  0
  138.8410   68.3450  224.8700 O   0  0  0  0  0  0  0  0  0  0  0  0
  139.4370   70.0130  223.4690 N   0  0  0  0  0  0  0  0  0  0  0  0
  138.8160   69.3070  222.4040 C   0  0  0  0  0  0  0  0  0  0  0  0
  137.3530   69.6750  222.3130 C   0  0  0  0  0  0  0  0  0  0  0  0
  136.9550   70.8840  223.1050 C   0  0  0  0  0  0  0  0  0  0  0  0
  135.5480   71.2680  222.7560 C   0  0  0  0  0  0  0  0  0  0  0  0
  134.8540   70.1920  222.0030 C   0  0  0  0  0  0  0  0  0  0  0  0
  135.0280   68.8040  222.5890 C   0  0  0  0  0  0  0  0  0  0  0  0
  136.4980   68.4870  222.7780 C   0  0  0  0  0  0  0  0  0  0  0  0
  141.0700   75.4670  221.9390 C   0  0  0  0  0  0  0  0  0  0  0  0
  141.8100   78.5490  220.7350 C   0  0  0  0  0  0  0  0  0  0  0  0
  141.2840   79.9670  220.7640 C   0  0  0  0  0  0  0  0  0  0  0  0
  141.2741   82.4718  222.9167 H   0  0  0  0  0  0  0  0  0  0  0  0
  142.1592   82.6289  221.3616 H   0  0  0  0  0  0  0  0  0  0  0  0
  140.4056   82.2399  221.3616 H   0  0  0  0  0  0  0  0  0  0  0  0
  141.8429   80.5882  223.9876 H   0  0  0  0  0  0  0  0  0  0  0  0
  140.2442   80.0837  223.2818 H   0  0  0  0  0  0  0  0  0  0  0  0
  142.8611   78.5631  223.2726 H   0  0  0  0  0  0  0  0  0  0  0  0
  141.2924   78.1241  224.0592 H   0  0  0  0  0  0  0  0  0  0  0  0
  138.6876   77.8230  222.1162 H   0  0  0  0  0  0  0  0  0  0  0  0
  137.2765   75.7602  222.1574 H   0  0  0  0  0  0  0  0  0  0  0  0
  141.9098   72.8574  221.7423 H   0  0  0  0  0  0  0  0  0  0  0  0
  139.5375   71.4900  221.1830 H   0  0  0  0  0  0  0  0  0  0  0  0
  141.6330   72.9299  226.6142 H   0  0  0  0  0  0  0  0  0  0  0  0
  141.5194   71.8416  228.8614 H   0  0  0  0  0  0  0  0  0  0  0  0
  140.4147   69.6407  229.1684 H   0  0  0  0  0  0  0  0  0  0  0  0
  139.4257   68.5336  227.2080 H   0  0  0  0  0  0  0  0  0  0  0  0
  139.3146   69.5652  221.4581 H   0  0  0  0  0  0  0  0  0  0  0  0
  138.9020   68.2267  222.5929 H   0  0  0  0  0  0  0  0  0  0  0  0
  137.1800   69.9248  221.2558 H   0  0  0  0  0  0  0  0  0  0  0  0
  137.0172   70.6557  224.1792 H   0  0  0  0  0  0  0  0  0  0  0  0
  137.6326   71.7175  222.8680 H   0  0  0  0  0  0  0  0  0  0  0  0
  134.9928   71.4683  223.6842 H   0  0  0  0  0  0  0  0  0  0  0  0
  135.5858   72.1629  222.1175 H   0  0  0  0  0  0  0  0  0  0  0  0
  133.7791   70.4246  221.9829 H   0  0  0  0  0  0  0  0  0  0  0  0
  135.3067   70.1684  221.0008 H   0  0  0  0  0  0  0  0  0  0  0  0
  134.5194   68.7562  223.5632 H   0  0  0  0  0  0  0  0  0  0  0  0
  134.5921   68.0688  221.8966 H   0  0  0  0  0  0  0  0  0  0  0  0
  136.6948   68.2904  223.8422 H   0  0  0  0  0  0  0  0  0  0  0  0
  136.7566   67.5994  222.1819 H   0  0  0  0  0  0  0  0  0  0  0  0
  142.1621   75.3511  221.8764 H   0  0  0  0  0  0  0  0  0  0  0  0
  142.9093   78.5499  220.6951 H   0  0  0  0  0  0  0  0  0  0  0  0
  141.4518   78.0046  219.8488 H   0  0  0  0  0  0  0  0  0  0  0  0
  141.6646   80.4952  219.8774 H   0  0  0  0  0  0  0  0  0  0  0  0
  140.1862   79.8986  220.7781 H   0  0  0  0  0  0  0  0  0  0  0  0
  1  2  1  0
  2  3  1  0
  3  4  1  0
  4  5  1  0
  5  6  1  0
  6  7  2  0
  7  8  1  0
  8  9  2  0
  9 10  1  0
 10 11  1  0
 11 12  2  0
 12 13  1  0
 13 14  2  0
 14 15  1  0
 15 16  2  0
 16 17  1  0
 17 18  2  0
 18 19  1  0
 19 20  2  0
 20 21  1  0
 21 22  2  0
 21 23  1  0
 23 24  1  0
 24 25  1  0
 25 26  1  0
 26 27  1  0
 27 28  1  0
 28 29  1  0
 29 30  1  0
 10 31  2  0
  5 32  1  0
 32 33  1  0
 33  2  1  0
 31  6  1  0
 23 13  1  0
 30 25  1  0
 20 15  1  0
  1 34  1  0
  1 35  1  0
  1 36  1  0
  3 37  1  0
  3 38  1  0
  4 39  1  0
  4 40  1  0
  7 41  1  0
  8 42  1  0
 11 43  1  0
 12 44  1  0
 16 45  1  0
 17 46  1  0
 18 47  1  0
 19 48  1  0
 24 49  1  0
 24 50  1  0
 25 51  1  0
 26 52  1  0
 26 53  1  0
 27 54  1  0
 27 55  1  0
 28 56  1  0
 28 57  1  0
 29 58  1  0
 29 59  1  0
 30 60  1  0
 30 61  1  0
 31 62  1  0
 32 63  1  0
 32 64  1  0
 33 65  1  0
 33 66  1  0
M  END
>  <smiles>  (44) 
CN1CCN(c2ccnc(/C=C/c3nc4ccccc4c(=O)n3CC3CCCCC3)c2)CC1

>  <score_type>  (44) 
oracle

>  <origin>  (44) 
autodockgpu

>  <m_score__min__energy>  (44) 
-8.8100000000000005

>  <m_primary>  (44) 
energy

>  <rmsd>  (44) 
10.7106221430882

>  <m_score__min__rmsd>  (44) 
10.7106221430882

>  <meeko>  (44) 
{"free_energy": -8.5, "intermolecular_energy": -10.29, "internal_energy": -1.67, "cluster_size": 24, "cluster_id": 1, "rank_in_cluster": 14}

>  <energy>  (44) 
-7.09

>  <cluster_rmsd>  (44) 
0.24

>  <cluster>  (44) 
7

$$$$

     RDKit          3D

 66 70  0  0  0  0  0  0  0  0999 V2000
  142.2310   81.2210  223.8610 C   0  0  0  0  0  0  0  0  0  0  0  0
  141.5370   80.3030  223.0310 N   0  0  0  0  0  0  0  0  0  0  0  0
  142.2470   79.9320  221.8340 C   0  0  0  0  0  0  0  0  0  0  0  0
  141.4380   79.0320  220.9400 C   0  0  0  0  0  0  0  0  0  0  0  0
  140.8480   77.9310  221.6950 N   0  0  0  0  0  0  0  0  0  0  0  0
  141.0490   76.5740  221.3760 C   0  0  0  0  0  0  0  0  0  0  0  0
  141.9980   76.2010  220.4310 C   0  0  0  0  0  0  0  0  0  0  0  0
  142.1980   74.8580  220.0970 C   0  0  0  0  0  0  0  0  0  0  0  0
  141.4640   73.9380  220.7010 N   0  0  0  0  0  0  0  0  0  0  0  0
  140.5220   74.2150  221.6280 C   0  0  0  0  0  0  0  0  0  0  0  0
  139.7800   73.1130  222.2180 C   0  0  0  0  0  0  0  0  0  0  0  0
  140.2140   71.8680  222.2760 C   0  0  0  0  0  0  0  0  0  0  0  0
  140.1590   71.1350  223.5610 C   0  0  0  0  0  0  0  0  0  0  0  0
  140.6570   71.7330  224.6690 N   0  0  0  0  0  0  0  0  0  0  0  0
  140.6240   71.1510  225.8820 C   0  0  0  0  0  0  0  0  0  0  0  0
  141.1500   71.8060  227.0010 C   0  0  0  0  0  0  0  0  0  0  0  0
  141.0800   71.1410  228.2260 C   0  0  0  0  0  0  0  0  0  0  0  0
  140.5190   69.8870  228.3510 C   0  0  0  0  0  0  0  0  0  0  0  0
  140.0230   69.3010  227.2190 C   0  0  0  0  0  0  0  0  0  0  0  0
  140.0580   69.8980  225.9790 C   0  0  0  0  0  0  0  0  0  0  0  0
  139.5670   69.3270  224.8340 C   0  0  0  0  0  0  0  0  0  0  0  0
  139.0500   68.1730  224.9490 O   0  0  0  0  0  0  0  0  0  0  0  0
  139.6030   69.9140  223.6220 N   0  0  0  0  0  0  0  0  0  0  0  0
  139.0360   69.2220  222.5180 C   0  0  0  0  0  0  0  0  0  0  0  0
  137.5600   69.5270  222.4090 C   0  0  0  0  0  0  0  0  0  0  0  0
  137.0170   70.4150  223.4870 C   0  0  0  0  0  0  0  0  0  0  0  0
  135.6140   70.8170  223.1430 C   0  0  0  0  0  0  0  0  0  0  0  0
  135.0590   69.9890  222.0410 C   0  0  0  0  0  0  0  0  0  0  0  0
  135.2940   68.5000  222.1960 C   0  0  0  0  0  0  0  0  0  0  0  0
  136.7660   68.2130  222.4150 C   0  0  0  0  0  0  0  0  0  0  0  0
  140.3340   75.5340  221.9470 C   0  0  0  0  0  0  0  0  0  0  0  0
  140.0240   78.3640  222.8390 C   0  0  0  0  0  0  0  0  0  0  0  0
  140.9310   79.2050  223.7120 C   0  0  0  0  0  0  0  0  0  0  0  0
  142.0445   80.9743  224.9166 H   0  0  0  0  0  0  0  0  0  0  0  0
  143.3097   81.1586  223.6549 H   0  0  0  0  0  0  0  0  0  0  0  0
  141.8768   82.2418  223.6549 H   0  0  0  0  0  0  0  0  0  0  0  0
  142.5016   80.8459  221.2773 H   0  0  0  0  0  0  0  0  0  0  0  0
  143.1482   79.3792  222.1376 H   0  0  0  0  0  0  0  0  0  0  0  0
  140.6333   79.6190  220.4733 H   0  0  0  0  0  0  0  0  0  0  0  0
  142.1052   78.6109  220.1735 H   0  0  0  0  0  0  0  0  0  0  0  0
  142.6023   76.9762  219.9372 H   0  0  0  0  0  0  0  0  0  0  0  0
  142.9504   74.5723  219.3472 H   0  0  0  0  0  0  0  0  0  0  0  0
  138.7900   73.3315  222.6449 H   0  0  0  0  0  0  0  0  0  0  0  0
  140.6138   71.3784  221.3758 H   0  0  0  0  0  0  0  0  0  0  0  0
  141.6010   72.8059  226.9184 H   0  0  0  0  0  0  0  0  0  0  0  0
  141.4859   71.6334  229.1220 H   0  0  0  0  0  0  0  0  0  0  0  0
  140.4723   69.3773  229.3247 H   0  0  0  0  0  0  0  0  0  0  0  0
  139.5728   68.3009  227.3038 H   0  0  0  0  0  0  0  0  0  0  0  0
  139.5410   69.5384  221.5934 H   0  0  0  0  0  0  0  0  0  0  0  0
  139.1674   68.1403  222.6684 H   0  0  0  0  0  0  0  0  0  0  0  0
  137.4446   70.0792  221.4647 H   0  0  0  0  0  0  0  0  0  0  0  0
  137.0190   69.8731  224.4443 H   0  0  0  0  0  0  0  0  0  0  0  0
  137.6455   71.3136  223.5734 H   0  0  0  0  0  0  0  0  0  0  0  0
  134.9800   70.6960  224.0338 H   0  0  0  0  0  0  0  0  0  0  0  0
  135.6298   71.8651  222.8096 H   0  0  0  0  0  0  0  0  0  0  0  0
  133.9739   70.1627  221.9933 H   0  0  0  0  0  0  0  0  0  0  0  0
  135.5836   70.2954  221.1239 H   0  0  0  0  0  0  0  0  0  0  0  0
  134.7213   68.1315  223.0598 H   0  0  0  0  0  0  0  0  0  0  0  0
  134.9660   67.9914  221.2775 H   0  0  0  0  0  0  0  0  0  0  0  0
  136.8995   67.7104  223.3843 H   0  0  0  0  0  0  0  0  0  0  0  0
  137.1331   67.5638  221.6064 H   0  0  0  0  0  0  0  0  0  0  0  0
  139.5713   75.7815  222.7000 H   0  0  0  0  0  0  0  0  0  0  0  0
  139.1687   78.9610  222.4897 H   0  0  0  0  0  0  0  0  0  0  0  0
  139.6175   77.5038  223.3912 H   0  0  0  0  0  0  0  0  0  0  0  0
  140.3359   79.6021  224.5476 H   0  0  0  0  0  0  0  0  0  0  0  0
  141.7475   78.5489  224.0478 H   0  0  0  0  0  0  0  0  0  0  0  0
  1  2  1  0
  2  3  1  0
  3  4  1  0
  4  5  1  0
  5  6  1  0
  6  7  2  0
  7  8  1  0
  8  9  2  0
  9 10  1  0
 10 11  1  0
 11 12  2  0
 12 13  1  0
 13 14  2  0
 14 15  1  0
 15 16  2  0
 16 17  1  0
 17 18  2  0
 18 19  1  0
 19 20  2  0
 20 21  1  0
 21 22  2  0
 21 23  1  0
 23 24  1  0
 24 25  1  0
 25 26  1  0
 26 27  1  0
 27 28  1  0
 28 29  1  0
 29 30  1  0
 10 31  2  0
  5 32  1  0
 32 33  1  0
 33  2  1  0
 31  6  1  0
 23 13  1  0
 30 25  1  0
 20 15  1  0
  1 34  1  0
  1 35  1  0
  1 36  1  0
  3 37  1  0
  3 38  1  0
  4 39  1  0
  4 40  1  0
  7 41  1  0
  8 42  1  0
 11 43  1  0
 12 44  1  0
 16 45  1  0
 17 46  1  0
 18 47  1  0
 19 48  1  0
 24 49  1  0
 24 50  1  0
 25 51  1  0
 26 52  1  0
 26 53  1  0
 27 54  1  0
 27 55  1  0
 28 56  1  0
 28 57  1  0
 29 58  1  0
 29 59  1  0
 30 60  1  0
 30 61  1  0
 31 62  1  0
 32 63  1  0
 32 64  1  0
 33 65  1  0
 33 66  1  0
M  END
>  <smiles>  (45) 
CN1CCN(c2ccnc(/C=C/c3nc4ccccc4c(=O)n3CC3CCCCC3)c2)CC1

>  <score_type>  (45) 
oracle

>  <origin>  (45) 
autodockgpu

>  <m_score__min__energy>  (45) 
-8.8100000000000005

>  <m_primary>  (45) 
energy

>  <rmsd>  (45) 
10.957363032343725

>  <m_score__min__rmsd>  (45) 
10.957363032343725

>  <meeko>  (45) 
{"free_energy": -8.73, "intermolecular_energy": -10.52, "internal_energy": -1.48, "cluster_size": 24, "cluster_id": 1, "rank_in_cluster": 5}

>  <energy>  (45) 
-7.08

>  <cluster_rmsd>  (45) 
0.22

>  <cluster>  (45) 
7

$$$$

     RDKit          3D

 66 70  0  0  0  0  0  0  0  0999 V2000
  142.1930   80.5860  222.6050 C   0  0  0  0  0  0  0  0  0  0  0  0
  141.4900   79.4360  222.1650 N   0  0  0  0  0  0  0  0  0  0  0  0
  141.8210   79.0130  220.8280 C   0  0  0  0  0  0  0  0  0  0  0  0
  140.9870   77.8480  220.3690 C   0  0  0  0  0  0  0  0  0  0  0  0
  140.9520   76.7940  221.3780 N   0  0  0  0  0  0  0  0  0  0  0  0
  141.3380   75.4630  221.1260 C   0  0  0  0  0  0  0  0  0  0  0  0
  142.5390   75.1830  220.4830 C   0  0  0  0  0  0  0  0  0  0  0  0
  142.9280   73.8670  220.2160 C   0  0  0  0  0  0  0  0  0  0  0  0
  142.1270   72.8820  220.5880 N   0  0  0  0  0  0  0  0  0  0  0  0
  140.9460   73.0670  221.2160 C   0  0  0  0  0  0  0  0  0  0  0  0
  140.1570   71.8990  221.5720 C   0  0  0  0  0  0  0  0  0  0  0  0
  139.2410   71.8790  222.5220 C   0  0  0  0  0  0  0  0  0  0  0  0
  139.5080   71.1410  223.7780 C   0  0  0  0  0  0  0  0  0  0  0  0
  140.2100   71.7610  224.7550 N   0  0  0  0  0  0  0  0  0  0  0  0
  140.4750   71.1760  225.9380 C   0  0  0  0  0  0  0  0  0  0  0  0
  141.2050   71.8530  226.9210 C   0  0  0  0  0  0  0  0  0  0  0  0
  141.4410   71.1830  228.1220 C   0  0  0  0  0  0  0  0  0  0  0  0
  140.9810   69.9030  228.3530 C   0  0  0  0  0  0  0  0  0  0  0  0
  140.2750   69.2960  227.3520 C   0  0  0  0  0  0  0  0  0  0  0  0
  140.0040   69.8960  226.1420 C   0  0  0  0  0  0  0  0  0  0  0  0
  139.3000   69.3050  225.1270 C   0  0  0  0  0  0  0  0  0  0  0  0
  138.8760   68.1260  225.3390 O   0  0  0  0  0  0  0  0  0  0  0  0
  139.0370   69.8950  223.9450 N   0  0  0  0  0  0  0  0  0  0  0  0
  138.2730   69.1770  222.9860 C   0  0  0  0  0  0  0  0  0  0  0  0
  136.8450   69.0290  223.4570 C   0  0  0  0  0  0  0  0  0  0  0  0
  135.8750   68.5820  222.4040 C   0  0  0  0  0  0  0  0  0  0  0  0
  134.5570   68.2620  223.0430 C   0  0  0  0  0  0  0  0  0  0  0  0
  134.4830   68.7720  224.4370 C   0  0  0  0  0  0  0  0  0  0  0  0
  134.9640   70.1990  224.6080 C   0  0  0  0  0  0  0  0  0  0  0  0
  136.3560   70.3650  224.0330 C   0  0  0  0  0  0  0  0  0  0  0  0
  140.5760   74.3610  221.4720 C   0  0  0  0  0  0  0  0  0  0  0  0
  140.4850   77.2480  222.7010 C   0  0  0  0  0  0  0  0  0  0  0  0
  141.4150   78.3690  223.1100 C   0  0  0  0  0  0  0  0  0  0  0  0
  142.2069   80.6088  223.7047 H   0  0  0  0  0  0  0  0  0  0  0  0
  143.2250   80.5523  222.2258 H   0  0  0  0  0  0  0  0  0  0  0  0
  141.6924   81.4891  222.2258 H   0  0  0  0  0  0  0  0  0  0  0  0
  141.6577   79.8562  220.1407 H   0  0  0  0  0  0  0  0  0  0  0  0
  142.8727   78.6907  220.8302 H   0  0  0  0  0  0  0  0  0  0  0  0
  139.9610   78.1949  220.1767 H   0  0  0  0  0  0  0  0  0  0  0  0
  141.4359   77.4379  219.4523 H   0  0  0  0  0  0  0  0  0  0  0  0
  143.1948   76.0121  220.1790 H   0  0  0  0  0  0  0  0  0  0  0  0
  143.8800   73.6550  219.7073 H   0  0  0  0  0  0  0  0  0  0  0  0
  140.3355   70.9693  221.0119 H   0  0  0  0  0  0  0  0  0  0  0  0
  138.2861   72.4067  222.3819 H   0  0  0  0  0  0  0  0  0  0  0  0
  141.5785   72.8740  226.7535 H   0  0  0  0  0  0  0  0  0  0  0  0
  142.0131   71.6926  228.9113 H   0  0  0  0  0  0  0  0  0  0  0  0
  141.1750   69.3902  229.3066 H   0  0  0  0  0  0  0  0  0  0  0  0
  139.9037   68.2746  227.5218 H   0  0  0  0  0  0  0  0  0  0  0  0
  138.2853   69.7221  222.0306 H   0  0  0  0  0  0  0  0  0  0  0  0
  138.7119   68.1769  222.8551 H   0  0  0  0  0  0  0  0  0  0  0  0
  136.8690   68.2327  224.2155 H   0  0  0  0  0  0  0  0  0  0  0  0
  135.7390   69.3859  221.6656 H   0  0  0  0  0  0  0  0  0  0  0  0
  136.2665   67.6852  221.9014 H   0  0  0  0  0  0  0  0  0  0  0  0
  133.7527   68.7237  222.4514 H   0  0  0  0  0  0  0  0  0  0  0  0
  134.4470   67.1679  223.0722 H   0  0  0  0  0  0  0  0  0  0  0  0
  133.4350   68.7203  224.7670 H   0  0  0  0  0  0  0  0  0  0  0  0
  135.1536   68.1405  225.0383 H   0  0  0  0  0  0  0  0  0  0  0  0
  134.2739   70.8781  224.0860 H   0  0  0  0  0  0  0  0  0  0  0  0
  134.9930   70.4373  225.6815 H   0  0  0  0  0  0  0  0  0  0  0  0
  136.3330   71.1204  223.2337 H   0  0  0  0  0  0  0  0  0  0  0  0
  137.0413   70.6886  224.8302 H   0  0  0  0  0  0  0  0  0  0  0  0
  139.6171   74.5341  221.9824 H   0  0  0  0  0  0  0  0  0  0  0  0
  139.4500   77.6148  222.6357 H   0  0  0  0  0  0  0  0  0  0  0  0
  140.4952   76.4285  223.4347 H   0  0  0  0  0  0  0  0  0  0  0  0
  141.0617   78.7794  224.0675 H   0  0  0  0  0  0  0  0  0  0  0  0
  142.4235   77.9355  223.1808 H   0  0  0  0  0  0  0  0  0  0  0  0
  1  2  1  0
  2  3  1  0
  3  4  1  0
  4  5  1  0
  5  6  1  0
  6  7  2  0
  7  8  1  0
  8  9  2  0
  9 10  1  0
 10 11  1  0
 11 12  2  0
 12 13  1  0
 13 14  2  0
 14 15  1  0
 15 16  2  0
 16 17  1  0
 17 18  2  0
 18 19  1  0
 19 20  2  0
 20 21  1  0
 21 22  2  0
 21 23  1  0
 23 24  1  0
 24 25  1  0
 25 26  1  0
 26 27  1  0
 27 28  1  0
 28 29  1  0
 29 30  1  0
 10 31  2  0
  5 32  1  0
 32 33  1  0
 33  2  1  0
 31  6  1  0
 23 13  1  0
 30 25  1  0
 20 15  1  0
  1 34  1  0
  1 35  1  0
  1 36  1  0
  3 37  1  0
  3 38  1  0
  4 39  1  0
  4 40  1  0
  7 41  1  0
  8 42  1  0
 11 43  1  0
 12 44  1  0
 16 45  1  0
 17 46  1  0
 18 47  1  0
 19 48  1  0
 24 49  1  0
 24 50  1  0
 25 51  1  0
 26 52  1  0
 26 53  1  0
 27 54  1  0
 27 55  1  0
 28 56  1  0
 28 57  1  0
 29 58  1  0
 29 59  1  0
 30 60  1  0
 30 61  1  0
 31 62  1  0
 32 63  1  0
 32 64  1  0
 33 65  1  0
 33 66  1  0
M  END
>  <smiles>  (46) 
CN1CCN(c2ccnc(/C=C/c3nc4ccccc4c(=O)n3CC3CCCCC3)c2)CC1

>  <score_type>  (46) 
oracle

>  <origin>  (46) 
autodockgpu

>  <m_score__min__energy>  (46) 
-8.8100000000000005

>  <m_primary>  (46) 
energy

>  <rmsd>  (46) 
11.685399455111158

>  <m_score__min__rmsd>  (46) 
11.685399455111158

>  <meeko>  (46) 
{"free_energy": -8.6, "intermolecular_energy": -10.38, "internal_energy": -1.51, "cluster_size": 24, "cluster_id": 1, "rank_in_cluster": 12}

>  <energy>  (46) 
-6.99

>  <cluster_rmsd>  (46) 
0.41

>  <cluster>  (46) 
7

$$$$

     RDKit          3D

 66 70  0  0  0  0  0  0  0  0999 V2000
  142.6910   80.5770  223.7720 C   0  0  0  0  0  0  0  0  0  0  0  0
  141.6720   79.9380  223.0190 N   0  0  0  0  0  0  0  0  0  0  0  0
  142.1590   79.0180  222.0240 C   0  0  0  0  0  0  0  0  0  0  0  0
  141.0520   78.4340  221.1890 C   0  0  0  0  0  0  0  0  0  0  0  0
  139.9610   77.9450  222.0270 N   0  0  0  0  0  0  0  0  0  0  0  0
  139.4790   76.6220  221.9810 C   0  0  0  0  0  0  0  0  0  0  0  0
  138.1140   76.3670  221.9260 C   0  0  0  0  0  0  0  0  0  0  0  0
  137.6220   75.0590  221.8930 C   0  0  0  0  0  0  0  0  0  0  0  0
  138.4850   74.0570  221.9140 N   0  0  0  0  0  0  0  0  0  0  0  0
  139.8250   74.2180  221.9670 C   0  0  0  0  0  0  0  0  0  0  0  0
  140.6680   73.0330  221.9870 C   0  0  0  0  0  0  0  0  0  0  0  0
  140.2160   71.7980  222.0930 C   0  0  0  0  0  0  0  0  0  0  0  0
  140.1260   71.1650  223.4300 C   0  0  0  0  0  0  0  0  0  0  0  0
  140.6750   71.8070  224.4870 N   0  0  0  0  0  0  0  0  0  0  0  0
  140.6170   71.3180  225.7400 C   0  0  0  0  0  0  0  0  0  0  0  0
  141.1980   72.0150  226.8040 C   0  0  0  0  0  0  0  0  0  0  0  0
  141.0970   71.4480  228.0760 C   0  0  0  0  0  0  0  0  0  0  0  0
  140.4540   70.2470  228.2960 C   0  0  0  0  0  0  0  0  0  0  0  0
  139.9070   69.6160  227.2130 C   0  0  0  0  0  0  0  0  0  0  0  0
  139.9680   70.1170  225.9320 C   0  0  0  0  0  0  0  0  0  0  0  0
  139.4280   69.5000  224.8350 C   0  0  0  0  0  0  0  0  0  0  0  0
  138.8350   68.3950  225.0370 O   0  0  0  0  0  0  0  0  0  0  0  0
  139.4890   69.9930  223.5830 N   0  0  0  0  0  0  0  0  0  0  0  0
  138.8650   69.2630  222.5360 C   0  0  0  0  0  0  0  0  0  0  0  0
  137.5090   69.8510  222.2210 C   0  0  0  0  0  0  0  0  0  0  0  0
  137.4490   70.6620  220.9620 C   0  0  0  0  0  0  0  0  0  0  0  0
  136.0210   70.9970  220.6510 C   0  0  0  0  0  0  0  0  0  0  0  0
  135.1280   70.7270  221.8070 C   0  0  0  0  0  0  0  0  0  0  0  0
  135.6480   71.2440  223.1340 C   0  0  0  0  0  0  0  0  0  0  0  0
  137.0530   70.7360  223.3910 C   0  0  0  0  0  0  0  0  0  0  0  0
  140.2950   75.5040  222.0000 C   0  0  0  0  0  0  0  0  0  0  0  0
  139.4090   78.9600  222.9420 C   0  0  0  0  0  0  0  0  0  0  0  0
  140.5720   79.4430  223.7820 C   0  0  0  0  0  0  0  0  0  0  0  0
  142.4881   80.4497  224.8456 H   0  0  0  0  0  0  0  0  0  0  0  0
  143.6646   80.1274  223.5271 H   0  0  0  0  0  0  0  0  0  0  0  0
  142.7103   81.6492  223.5271 H   0  0  0  0  0  0  0  0  0  0  0  0
  142.8568   79.5514  221.3617 H   0  0  0  0  0  0  0  0  0  0  0  0
  142.6547   78.1885  222.5496 H   0  0  0  0  0  0  0  0  0  0  0  0
  140.6648   79.2103  220.5126 H   0  0  0  0  0  0  0  0  0  0  0  0
  141.4575   77.5874  220.6155 H   0  0  0  0  0  0  0  0  0  0  0  0
  137.4076   77.2100  221.9081 H   0  0  0  0  0  0  0  0  0  0  0  0
  136.5397   74.8671  221.8505 H   0  0  0  0  0  0  0  0  0  0  0  0
  141.7558   73.1761  221.9085 H   0  0  0  0  0  0  0  0  0  0  0  0
  139.9081   71.2420  221.1952 H   0  0  0  0  0  0  0  0  0  0  0  0
  141.7147   72.9730  226.6450 H   0  0  0  0  0  0  0  0  0  0  0  0
  141.5447   71.9760  228.9308 H   0  0  0  0  0  0  0  0  0  0  0  0
  140.3840   69.8135  229.3046 H   0  0  0  0  0  0  0  0  0  0  0  0
  139.3912   68.6578  227.3738 H   0  0  0  0  0  0  0  0  0  0  0  0
  139.4970   69.3067  221.6367 H   0  0  0  0  0  0  0  0  0  0  0  0
  138.7360   68.2186  222.8562 H   0  0  0  0  0  0  0  0  0  0  0  0
  136.8447   68.9879  222.0668 H   0  0  0  0  0  0  0  0  0  0  0  0
  138.0226   71.5909  221.0965 H   0  0  0  0  0  0  0  0  0  0  0  0
  137.8790   70.0826  220.1317 H   0  0  0  0  0  0  0  0  0  0  0  0
  135.9539   72.0636  220.3904 H   0  0  0  0  0  0  0  0  0  0  0  0
  135.6957   70.3644  219.8119 H   0  0  0  0  0  0  0  0  0  0  0  0
  134.1561   71.2027  221.6094 H   0  0  0  0  0  0  0  0  0  0  0  0
  135.0587   69.6333  221.9015 H   0  0  0  0  0  0  0  0  0  0  0  0
  135.6592   72.3438  223.1142 H   0  0  0  0  0  0  0  0  0  0  0  0
  134.9884   70.8846  223.9376 H   0  0  0  0  0  0  0  0  0  0  0  0
  137.7379   71.5910  223.4906 H   0  0  0  0  0  0  0  0  0  0  0  0
  137.0611   70.1444  224.3183 H   0  0  0  0  0  0  0  0  0  0  0  0
  141.3834   75.6572  222.0441 H   0  0  0  0  0  0  0  0  0  0  0  0
  138.9777   79.7952  222.3706 H   0  0  0  0  0  0  0  0  0  0  0  0
  138.6062   78.5433  223.5680 H   0  0  0  0  0  0  0  0  0  0  0  0
  140.2138   80.2508  224.4371 H   0  0  0  0  0  0  0  0  0  0  0  0
  140.9408   78.5734  224.3456 H   0  0  0  0  0  0  0  0  0  0  0  0
  1  2  1  0
  2  3  1  0
  3  4  1  0
  4  5  1  0
  5  6  1  0
  6  7  2  0
  7  8  1  0
  8  9  2  0
  9 10  1  0
 10 11  1  0
 11 12  2  0
 12 13  1  0
 13 14  2  0
 14 15  1  0
 15 16  2  0
 16 17  1  0
 17 18  2  0
 18 19  1  0
 19 20  2  0
 20 21  1  0
 21 22  2  0
 21 23  1  0
 23 24  1  0
 24 25  1  0
 25 26  1  0
 26 27  1  0
 27 28  1  0
 28 29  1  0
 29 30  1  0
 10 31  2  0
  5 32  1  0
 32 33  1  0
 33  2  1  0
 31  6  1  0
 23 13  1  0
 30 25  1  0
 20 15  1  0
  1 34  1  0
  1 35  1  0
  1 36  1  0
  3 37  1  0
  3 38  1  0
  4 39  1  0
  4 40  1  0
  7 41  1  0
  8 42  1  0
 11 43  1  0
 12 44  1  0
 16 45  1  0
 17 46  1  0
 18 47  1  0
 19 48  1  0
 24 49  1  0
 24 50  1  0
 25 51  1  0
 26 52  1  0
 26 53  1  0
 27 54  1  0
 27 55  1  0
 28 56  1  0
 28 57  1  0
 29 58  1  0
 29 59  1  0
 30 60  1  0
 30 61  1  0
 31 62  1  0
 32 63  1  0
 32 64  1  0
 33 65  1  0
 33 66  1  0
M  END
>  <smiles>  (47) 
CN1CCN(c2ccnc(/C=C/c3nc4ccccc4c(=O)n3CC3CCCCC3)c2)CC1

>  <score_type>  (47) 
oracle

>  <origin>  (47) 
autodockgpu

>  <m_score__min__energy>  (47) 
-8.8100000000000005

>  <m_primary>  (47) 
energy

>  <rmsd>  (47) 
10.443382218127928

>  <m_score__min__rmsd>  (47) 
10.443382218127928

>  <meeko>  (47) 
{"free_energy": -8.32, "intermolecular_energy": -10.11, "internal_energy": -1.89, "cluster_size": 24, "cluster_id": 1, "rank_in_cluster": 23}

>  <energy>  (47) 
-6.96

>  <cluster_rmsd>  (47) 
0.28

>  <cluster>  (47) 
7

$$$$

     RDKit          3D

 66 70  0  0  0  0  0  0  0  0999 V2000
  142.2540   79.7970  217.3720 C   0  0  0  0  0  0  0  0  0  0  0  0
  142.4090   78.9950  218.5310 N   0  0  0  0  0  0  0  0  0  0  0  0
  141.5100   79.3270  219.6070 C   0  0  0  0  0  0  0  0  0  0  0  0
  141.7710   78.5140  220.8470 C   0  0  0  0  0  0  0  0  0  0  0  0
  141.8880   77.0940  220.5320 N   0  0  0  0  0  0  0  0  0  0  0  0
  141.0920   76.0970  221.1300 C   0  0  0  0  0  0  0  0  0  0  0  0
  139.8930   76.4260  221.7510 C   0  0  0  0  0  0  0  0  0  0  0  0
  139.1000   75.4470  222.3600 C   0  0  0  0  0  0  0  0  0  0  0  0
  139.5140   74.1910  222.3350 N   0  0  0  0  0  0  0  0  0  0  0  0
  140.6650   73.7890  221.7550 C   0  0  0  0  0  0  0  0  0  0  0  0
  141.0090   72.3760  221.7970 C   0  0  0  0  0  0  0  0  0  0  0  0
  140.1520   71.4080  222.0600 C   0  0  0  0  0  0  0  0  0  0  0  0
  140.0690   70.8600  223.4340 C   0  0  0  0  0  0  0  0  0  0  0  0
  140.5910   71.5830  224.4520 N   0  0  0  0  0  0  0  0  0  0  0  0
  140.5350   71.1750  225.7330 C   0  0  0  0  0  0  0  0  0  0  0  0
  141.0880   71.9550  226.7540 C   0  0  0  0  0  0  0  0  0  0  0  0
  140.9920   71.4670  228.0580 C   0  0  0  0  0  0  0  0  0  0  0  0
  140.3800   70.2660  228.3510 C   0  0  0  0  0  0  0  0  0  0  0  0
  139.8610   69.5520  227.3070 C   0  0  0  0  0  0  0  0  0  0  0  0
  139.9180   69.9710  225.9970 C   0  0  0  0  0  0  0  0  0  0  0  0
  139.4040   69.2690  224.9390 C   0  0  0  0  0  0  0  0  0  0  0  0
  138.8410   68.1630  225.2070 O   0  0  0  0  0  0  0  0  0  0  0  0
  139.4630   69.6830  223.6580 N   0  0  0  0  0  0  0  0  0  0  0  0
  138.8680   68.8690  222.6560 C   0  0  0  0  0  0  0  0  0  0  0  0
  137.4470   69.3130  222.3950 C   0  0  0  0  0  0  0  0  0  0  0  0
  136.8910   70.2770  223.3990 C   0  0  0  0  0  0  0  0  0  0  0  0
  135.5750   70.8040  222.9100 C   0  0  0  0  0  0  0  0  0  0  0  0
  135.0520   70.0070  221.7710 C   0  0  0  0  0  0  0  0  0  0  0  0
  135.1220   68.5060  221.9720 C   0  0  0  0  0  0  0  0  0  0  0  0
  136.5300   68.0830  222.3420 C   0  0  0  0  0  0  0  0  0  0  0  0
  141.4330   74.7560  221.1620 C   0  0  0  0  0  0  0  0  0  0  0  0
  142.9100   76.7890  219.5140 C   0  0  0  0  0  0  0  0  0  0  0  0
  142.5350   77.5940  218.2900 C   0  0  0  0  0  0  0  0  0  0  0  0
  142.0531   80.8367  217.6697 H   0  0  0  0  0  0  0  0  0  0  0  0
  143.1762   79.7587  216.7736 H   0  0  0  0  0  0  0  0  0  0  0  0
  141.4125   79.4178  216.7736 H   0  0  0  0  0  0  0  0  0  0  0  0
  141.6308   80.3926  219.8517 H   0  0  0  0  0  0  0  0  0  0  0  0
  140.4872   79.1034  219.2695 H   0  0  0  0  0  0  0  0  0  0  0  0
  142.7078   78.8571  221.3104 H   0  0  0  0  0  0  0  0  0  0  0  0
  140.9248   78.6492  221.5367 H   0  0  0  0  0  0  0  0  0  0  0  0
  139.5614   77.4748  221.7640 H   0  0  0  0  0  0  0  0  0  0  0  0
  138.1523   75.7163  222.8492 H   0  0  0  0  0  0  0  0  0  0  0  0
  142.0536   72.0960  221.5960 H   0  0  0  0  0  0  0  0  0  0  0  0
  139.5038   71.0107  221.2650 H   0  0  0  0  0  0  0  0  0  0  0  0
  141.5792   72.9152  226.5376 H   0  0  0  0  0  0  0  0  0  0  0  0
  141.4189   72.0603  228.8801 H   0  0  0  0  0  0  0  0  0  0  0  0
  140.3122   69.8969  229.3850 H   0  0  0  0  0  0  0  0  0  0  0  0
  139.3717   68.5914  227.5255 H   0  0  0  0  0  0  0  0  0  0  0  0
  139.4509   68.9529  221.7269 H   0  0  0  0  0  0  0  0  0  0  0  0
  138.8588   67.8249  223.0020 H   0  0  0  0  0  0  0  0  0  0  0  0
  137.4804   69.8496  221.4354 H   0  0  0  0  0  0  0  0  0  0  0  0
  136.7456   69.7622  224.3602 H   0  0  0  0  0  0  0  0  0  0  0  0
  137.5937   71.1126  223.5334 H   0  0  0  0  0  0  0  0  0  0  0  0
  134.8478   70.7669  223.7345 H   0  0  0  0  0  0  0  0  0  0  0  0
  135.7270   71.8370  222.5640 H   0  0  0  0  0  0  0  0  0  0  0  0
  133.9994   70.2840  221.6119 H   0  0  0  0  0  0  0  0  0  0  0  0
  135.6918   70.2380  220.9065 H   0  0  0  0  0  0  0  0  0  0  0  0
  134.4335   68.2168  222.7797 H   0  0  0  0  0  0  0  0  0  0  0  0
  134.8371   68.0085  221.0332 H   0  0  0  0  0  0  0  0  0  0  0  0
  136.5172   67.5946  223.3275 H   0  0  0  0  0  0  0  0  0  0  0  0
  136.9085   67.3809  221.5845 H   0  0  0  0  0  0  0  0  0  0  0  0
  142.3749   74.4491  220.6838 H   0  0  0  0  0  0  0  0  0  0  0  0
  143.9070   77.0831  219.8738 H   0  0  0  0  0  0  0  0  0  0  0  0
  142.9472   75.7124  219.2914 H   0  0  0  0  0  0  0  0  0  0  0  0
  143.3118   77.4433  217.5259 H   0  0  0  0  0  0  0  0  0  0  0  0
  141.5461   77.2373  217.9661 H   0  0  0  0  0  0  0  0  0  0  0  0
  1  2  1  0
  2  3  1  0
  3  4  1  0
  4  5  1  0
  5  6  1  0
  6  7  2  0
  7  8  1  0
  8  9  2  0
  9 10  1  0
 10 11  1  0
 11 12  2  0
 12 13  1  0
 13 14  2  0
 14 15  1  0
 15 16  2  0
 16 17  1  0
 17 18  2  0
 18 19  1  0
 19 20  2  0
 20 21  1  0
 21 22  2  0
 21 23  1  0
 23 24  1  0
 24 25  1  0
 25 26  1  0
 26 27  1  0
 27 28  1  0
 28 29  1  0
 29 30  1  0
 10 31  2  0
  5 32  1  0
 32 33  1  0
 33  2  1  0
 31  6  1  0
 23 13  1  0
 30 25  1  0
 20 15  1  0
  1 34  1  0
  1 35  1  0
  1 36  1  0
  3 37  1  0
  3 38  1  0
  4 39  1  0
  4 40  1  0
  7 41  1  0
  8 42  1  0
 11 43  1  0
 12 44  1  0
 16 45  1  0
 17 46  1  0
 18 47  1  0
 19 48  1  0
 24 49  1  0
 24 50  1  0
 25 51  1  0
 26 52  1  0
 26 53  1  0
 27 54  1  0
 27 55  1  0
 28 56  1  0
 28 57  1  0
 29 58  1  0
 29 59  1  0
 30 60  1  0
 30 61  1  0
 31 62  1  0
 32 63  1  0
 32 64  1  0
 33 65  1  0
 33 66  1  0
M  END
>  <smiles>  (48) 
CN1CCN(c2ccnc(/C=C/c3nc4ccccc4c(=O)n3CC3CCCCC3)c2)CC1

>  <score_type>  (48) 
oracle

>  <origin>  (48) 
autodockgpu

>  <m_score__min__energy>  (48) 
-8.8100000000000005

>  <m_primary>  (48) 
energy

>  <rmsd>  (48) 
10.873860547778008

>  <m_score__min__rmsd>  (48) 
10.873860547778008

>  <meeko>  (48) 
{"free_energy": -8.46, "intermolecular_energy": -10.25, "internal_energy": -1.6, "cluster_size": 24, "cluster_id": 1, "rank_in_cluster": 16}

>  <energy>  (48) 
-6.88

>  <cluster_rmsd>  (48) 
0.37

>  <cluster>  (48) 
7

$$$$

     RDKit          3D

 66 70  0  0  0  0  0  0  0  0999 V2000
  142.0470   80.9360  223.1030 C   0  0  0  0  0  0  0  0  0  0  0  0
  141.3930   79.8340  222.4940 N   0  0  0  0  0  0  0  0  0  0  0  0
  141.8260   79.5580  221.1480 C   0  0  0  0  0  0  0  0  0  0  0  0
  141.0440   78.4420  220.5090 C   0  0  0  0  0  0  0  0  0  0  0  0
  140.9530   77.2870  221.3960 N   0  0  0  0  0  0  0  0  0  0  0  0
  141.3770   75.9930  221.0330 C   0  0  0  0  0  0  0  0  0  0  0  0
  142.2810   75.8090  219.9930 C   0  0  0  0  0  0  0  0  0  0  0  0
  142.7000   74.5290  219.6150 C   0  0  0  0  0  0  0  0  0  0  0  0
  142.2170   73.4860  220.2700 N   0  0  0  0  0  0  0  0  0  0  0  0
  141.3370   73.5770  221.2890 C   0  0  0  0  0  0  0  0  0  0  0  0
  140.8800   72.3530  221.9260 C   0  0  0  0  0  0  0  0  0  0  0  0
  139.8370   72.2740  222.7310 C   0  0  0  0  0  0  0  0  0  0  0  0
  139.8340   71.2790  223.8280 C   0  0  0  0  0  0  0  0  0  0  0  0
  140.4310   71.6050  224.9980 N   0  0  0  0  0  0  0  0  0  0  0  0
  140.4520   70.7730  226.0560 C   0  0  0  0  0  0  0  0  0  0  0  0
  141.0800   71.1500  227.2470 C   0  0  0  0  0  0  0  0  0  0  0  0
  141.0610   70.2360  228.3020 C   0  0  0  0  0  0  0  0  0  0  0  0
  140.4530   69.0020  228.1940 C   0  0  0  0  0  0  0  0  0  0  0  0
  139.8570   68.6940  227.0030 C   0  0  0  0  0  0  0  0  0  0  0  0
  139.8360   69.5460  225.9220 C   0  0  0  0  0  0  0  0  0  0  0  0
  139.2460   69.2560  224.7200 C   0  0  0  0  0  0  0  0  0  0  0  0
  138.6850   68.1200  224.6200 O   0  0  0  0  0  0  0  0  0  0  0  0
  139.2280   70.0920  223.6640 N   0  0  0  0  0  0  0  0  0  0  0  0
  138.5580   69.6760  222.4830 C   0  0  0  0  0  0  0  0  0  0  0  0
  139.5510   69.1360  221.4790 C   0  0  0  0  0  0  0  0  0  0  0  0
  139.5870   69.8660  220.1700 C   0  0  0  0  0  0  0  0  0  0  0  0
  140.7510   69.3800  219.3600 C   0  0  0  0  0  0  0  0  0  0  0  0
  141.3250   68.1280  219.9160 C   0  0  0  0  0  0  0  0  0  0  0  0
  140.2970   67.0750  220.2820 C   0  0  0  0  0  0  0  0  0  0  0  0
  139.2430   67.6570  221.2030 C   0  0  0  0  0  0  0  0  0  0  0  0
  140.9330   74.8360  221.6500 C   0  0  0  0  0  0  0  0  0  0  0  0
  140.3870   77.5940  222.7220 C   0  0  0  0  0  0  0  0  0  0  0  0
  141.2680   78.6720  223.3130 C   0  0  0  0  0  0  0  0  0  0  0  0
  141.9888   80.8380  224.1971 H   0  0  0  0  0  0  0  0  0  0  0  0
  143.1020   80.9538  222.7920 H   0  0  0  0  0  0  0  0  0  0  0  0
  141.5572   81.8706  222.7920 H   0  0  0  0  0  0  0  0  0  0  0  0
  141.7003   80.4682  220.5433 H   0  0  0  0  0  0  0  0  0  0  0  0
  142.8796   79.2450  221.1931 H   0  0  0  0  0  0  0  0  0  0  0  0
  140.0293   78.7999  220.2805 H   0  0  0  0  0  0  0  0  0  0  0  0
  141.5630   78.1350  219.5890 H   0  0  0  0  0  0  0  0  0  0  0  0
  142.6740   76.6859  219.4576 H   0  0  0  0  0  0  0  0  0  0  0  0
  143.4157   74.3926  218.7909 H   0  0  0  0  0  0  0  0  0  0  0  0
  141.4419   71.4293  221.7233 H   0  0  0  0  0  0  0  0  0  0  0  0
  138.9755   72.9429  222.5880 H   0  0  0  0  0  0  0  0  0  0  0  0
  141.5703   72.1294  227.3488 H   0  0  0  0  0  0  0  0  0  0  0  0
  141.5467   70.5085  229.2506 H   0  0  0  0  0  0  0  0  0  0  0  0
  140.4481   68.2927  229.0348 H   0  0  0  0  0  0  0  0  0  0  0  0
  139.3684   67.7136  226.9032 H   0  0  0  0  0  0  0  0  0  0  0  0
  137.8326   68.8886  222.7355 H   0  0  0  0  0  0  0  0  0  0  0  0
  138.0384   70.5400  222.0432 H   0  0  0  0  0  0  0  0  0  0  0  0
  140.5396   69.2771  221.9402 H   0  0  0  0  0  0  0  0  0  0  0  0
  138.6532   69.6786  219.6196 H   0  0  0  0  0  0  0  0  0  0  0  0
  139.6930   70.9453  220.3543 H   0  0  0  0  0  0  0  0  0  0  0  0
  140.4140   69.1906  218.3302 H   0  0  0  0  0  0  0  0  0  0  0  0
  141.5318   70.1545  219.3841 H   0  0  0  0  0  0  0  0  0  0  0  0
  142.0050   67.6985  219.1655 H   0  0  0  0  0  0  0  0  0  0  0  0
  141.8361   68.4051  220.8498 H   0  0  0  0  0  0  0  0  0  0  0  0
  139.8131   66.7078  219.3649 H   0  0  0  0  0  0  0  0  0  0  0  0
  140.8046   66.2485  220.8009 H   0  0  0  0  0  0  0  0  0  0  0  0
  138.2552   67.5727  220.7265 H   0  0  0  0  0  0  0  0  0  0  0  0
  139.2454   67.1026  222.1531 H   0  0  0  0  0  0  0  0  0  0  0  0
  140.2147   74.9326  222.4775 H   0  0  0  0  0  0  0  0  0  0  0  0
  139.3537   77.9576  222.6215 H   0  0  0  0  0  0  0  0  0  0  0  0
  140.3580   76.7011  223.3638 H   0  0  0  0  0  0  0  0  0  0  0  0
  140.8416   78.9752  224.2806 H   0  0  0  0  0  0  0  0  0  0  0  0
  142.2756   78.2415  223.4101 H   0  0  0  0  0  0  0  0  0  0  0  0
  1  2  1  0
  2  3  1  0
  3  4  1  0
  4  5  1  0
  5  6  1  0
  6  7  2  0
  7  8  1  0
  8  9  2  0
  9 10  1  0
 10 11  1  0
 11 12  2  0
 12 13  1  0
 13 14  2  0
 14 15  1  0
 15 16  2  0
 16 17  1  0
 17 18  2  0
 18 19  1  0
 19 20  2  0
 20 21  1  0
 21 22  2  0
 21 23  1  0
 23 24  1  0
 24 25  1  0
 25 26  1  0
 26 27  1  0
 27 28  1  0
 28 29  1  0
 29 30  1  0
 10 31  2  0
  5 32  1  0
 32 33  1  0
 33  2  1  0
 31  6  1  0
 23 13  1  0
 30 25  1  0
 20 15  1  0
  1 34  1  0
  1 35  1  0
  1 36  1  0
  3 37  1  0
  3 38  1  0
  4 39  1  0
  4 40  1  0
  7 41  1  0
  8 42  1  0
 11 43  1  0
 12 44  1  0
 16 45  1  0
 17 46  1  0
 18 47  1  0
 19 48  1  0
 24 49  1  0
 24 50  1  0
 25 51  1  0
 26 52  1  0
 26 53  1  0
 27 54  1  0
 27 55  1  0
 28 56  1  0
 28 57  1  0
 29 58  1  0
 29 59  1  0
 30 60  1  0
 30 61  1  0
 31 62  1  0
 32 63  1  0
 32 64  1  0
 33 65  1  0
 33 66  1  0
M  END
>  <smiles>  (49) 
CN1CCN(c2ccnc(/C=C/c3nc4ccccc4c(=O)n3CC3CCCCC3)c2)CC1

>  <score_type>  (49) 
oracle

>  <origin>  (49) 
autodockgpu

>  <m_score__min__energy>  (49) 
-8.8100000000000005

>  <m_primary>  (49) 
energy

>  <rmsd>  (49) 
10.83769880315486

>  <m_score__min__rmsd>  (49) 
10.83769880315486

>  <meeko>  (49) 
{"free_energy": -8.36, "intermolecular_energy": -10.15, "internal_energy": -1.62, "cluster_size": 24, "cluster_id": 1, "rank_in_cluster": 21}

>  <energy>  (49) 
-6.77

>  <cluster_rmsd>  (49) 
0.42

>  <cluster>  (49) 
7

$$$$

     RDKit          3D

 66 70  0  0  0  0  0  0  0  0999 V2000
  132.5090   67.9420  226.0750 C   0  0  0  0  0  0  0  0  0  0  0  0
  133.5020   68.9500  225.9770 N   0  0  0  0  0  0  0  0  0  0  0  0
  134.7090   68.5300  225.3110 C   0  0  0  0  0  0  0  0  0  0  0  0
  135.7680   69.6000  225.3100 C   0  0  0  0  0  0  0  0  0  0  0  0
  135.2200   70.8830  224.8830 N   0  0  0  0  0  0  0  0  0  0  0  0
  135.7370   71.6280  223.8050 C   0  0  0  0  0  0  0  0  0  0  0  0
  134.8840   72.2710  222.9150 C   0  0  0  0  0  0  0  0  0  0  0  0
  135.3840   73.0030  221.8330 C   0  0  0  0  0  0  0  0  0  0  0  0
  136.6950   73.0760  221.6690 N   0  0  0  0  0  0  0  0  0  0  0  0
  137.5900   72.4830  222.4870 C   0  0  0  0  0  0  0  0  0  0  0  0
  139.0070   72.6380  222.1970 C   0  0  0  0  0  0  0  0  0  0  0  0
  139.9120   71.6940  222.3710 C   0  0  0  0  0  0  0  0  0  0  0  0
  139.8810   70.8700  223.6020 C   0  0  0  0  0  0  0  0  0  0  0  0
  140.1750   71.4600  224.7840 N   0  0  0  0  0  0  0  0  0  0  0  0
  140.1450   70.7940  225.9530 C   0  0  0  0  0  0  0  0  0  0  0  0
  140.4570   71.4450  227.1510 C   0  0  0  0  0  0  0  0  0  0  0  0
  140.4040   70.6900  228.3240 C   0  0  0  0  0  0  0  0  0  0  0  0
  140.0600   69.3540  228.3240 C   0  0  0  0  0  0  0  0  0  0  0  0
  139.7670   68.7780  227.1190 C   0  0  0  0  0  0  0  0  0  0  0  0
  139.7980   69.4600  225.9240 C   0  0  0  0  0  0  0  0  0  0  0  0
  139.5090   68.9010  224.7070 C   0  0  0  0  0  0  0  0  0  0  0  0
  139.1920   67.6710  224.7060 O   0  0  0  0  0  0  0  0  0  0  0  0
  139.5410   69.5720  223.5400 N   0  0  0  0  0  0  0  0  0  0  0  0
  139.1940   68.8770  222.3500 C   0  0  0  0  0  0  0  0  0  0  0  0
  137.6920   68.8120  222.1980 C   0  0  0  0  0  0  0  0  0  0  0  0
  137.1210   67.4270  222.1460 C   0  0  0  0  0  0  0  0  0  0  0  0
  135.6260   67.5000  222.2190 C   0  0  0  0  0  0  0  0  0  0  0  0
  135.1310   68.8830  221.9970 C   0  0  0  0  0  0  0  0  0  0  0  0
  135.7640   69.5940  220.8170 C   0  0  0  0  0  0  0  0  0  0  0  0
  137.2760   69.5580  220.9230 C   0  0  0  0  0  0  0  0  0  0  0  0
  137.0890   71.7680  223.5420 C   0  0  0  0  0  0  0  0  0  0  0  0
  134.0610   71.3330  225.6760 C   0  0  0  0  0  0  0  0  0  0  0  0
  133.0290   70.2330  225.5680 C   0  0  0  0  0  0  0  0  0  0  0  0
  132.3026   67.7325  227.1349 H   0  0  0  0  0  0  0  0  0  0  0  0
  131.5873   68.2862  225.5830 H   0  0  0  0  0  0  0  0  0  0  0  0
  132.8670   67.0256  225.5830 H   0  0  0  0  0  0  0  0  0  0  0  0
  135.1051   67.6419  225.8252 H   0  0  0  0  0  0  0  0  0  0  0  0
  134.4542   68.3103  224.2637 H   0  0  0  0  0  0  0  0  0  0  0  0
  136.1744   69.7038  226.3269 H   0  0  0  0  0  0  0  0  0  0  0  0
  136.5594   69.3067  224.6046 H   0  0  0  0  0  0  0  0  0  0  0  0
  133.7963   72.2028  223.0645 H   0  0  0  0  0  0  0  0  0  0  0  0
  134.7016   73.5074  221.1330 H   0  0  0  0  0  0  0  0  0  0  0  0
  139.3471   73.6083  221.8060 H   0  0  0  0  0  0  0  0  0  0  0  0
  140.6844   71.5198  221.6074 H   0  0  0  0  0  0  0  0  0  0  0  0
  140.7332   72.5096  227.1682 H   0  0  0  0  0  0  0  0  0  0  0  0
  140.6447   71.1768  229.2806 H   0  0  0  0  0  0  0  0  0  0  0  0
  140.0228   68.7741  229.2580 H   0  0  0  0  0  0  0  0  0  0  0  0
  139.4919   67.7131  227.1039 H   0  0  0  0  0  0  0  0  0  0  0  0
  139.6236   69.4028  221.4846 H   0  0  0  0  0  0  0  0  0  0  0  0
  139.5921   67.8531  222.4054 H   0  0  0  0  0  0  0  0  0  0  0  0
  137.2858   69.2809  223.1064 H   0  0  0  0  0  0  0  0  0  0  0  0
  137.4189   66.9427  221.2044 H   0  0  0  0  0  0  0  0  0  0  0  0
  137.5015   66.8414  222.9959 H   0  0  0  0  0  0  0  0  0  0  0  0
  135.1991   66.8408  221.4488 H   0  0  0  0  0  0  0  0  0  0  0  0
  135.3164   67.1829  223.2258 H   0  0  0  0  0  0  0  0  0  0  0  0
  134.0450   68.8366  221.8282 H   0  0  0  0  0  0  0  0  0  0  0  0
  135.4019   69.4606  222.8931 H   0  0  0  0  0  0  0  0  0  0  0  0
  135.4546   69.0962  219.8862 H   0  0  0  0  0  0  0  0  0  0  0  0
  135.4328   70.6430  220.8148 H   0  0  0  0  0  0  0  0  0  0  0  0
  137.6910   69.0404  220.0456 H   0  0  0  0  0  0  0  0  0  0  0  0
  137.6611   70.5876  220.9636 H   0  0  0  0  0  0  0  0  0  0  0  0
  137.8022   71.2763  224.2199 H   0  0  0  0  0  0  0  0  0  0  0  0
  134.3516   71.4826  226.7263 H   0  0  0  0  0  0  0  0  0  0  0  0
  133.6680   72.2916  225.3064 H   0  0  0  0  0  0  0  0  0  0  0  0
  132.1695   70.5021  226.1995 H   0  0  0  0  0  0  0  0  0  0  0  0
  132.7636   70.1495  224.5038 H   0  0  0  0  0  0  0  0  0  0  0  0
  1  2  1  0
  2  3  1  0
  3  4  1  0
  4  5  1  0
  5  6  1  0
  6  7  2  0
  7  8  1  0
  8  9  2  0
  9 10  1  0
 10 11  1  0
 11 12  2  0
 12 13  1  0
 13 14  2  0
 14 15  1  0
 15 16  2  0
 16 17  1  0
 17 18  2  0
 18 19  1  0
 19 20  2  0
 20 21  1  0
 21 22  2  0
 21 23  1  0
 23 24  1  0
 24 25  1  0
 25 26  1  0
 26 27  1  0
 27 28  1  0
 28 29  1  0
 29 30  1  0
 10 31  2  0
  5 32  1  0
 32 33  1  0
 33  2  1  0
 31  6  1  0
 23 13  1  0
 30 25  1  0
 20 15  1  0
  1 34  1  0
  1 35  1  0
  1 36  1  0
  3 37  1  0
  3 38  1  0
  4 39  1  0
  4 40  1  0
  7 41  1  0
  8 42  1  0
 11 43  1  0
 12 44  1  0
 16 45  1  0
 17 46  1  0
 18 47  1  0
 19 48  1  0
 24 49  1  0
 24 50  1  0
 25 51  1  0
 26 52  1  0
 26 53  1  0
 27 54  1  0
 27 55  1  0
 28 56  1  0
 28 57  1  0
 29 58  1  0
 29 59  1  0
 30 60  1  0
 30 61  1  0
 31 62  1  0
 32 63  1  0
 32 64  1  0
 33 65  1  0
 33 66  1  0
M  END
>  <smiles>  (50) 
CN1CCN(c2ccnc(/C=C/c3nc4ccccc4c(=O)n3CC3CCCCC3)c2)CC1

>  <score_type>  (50) 
oracle

>  <origin>  (50) 
autodockgpu

>  <m_score__min__energy>  (50) 
-8.8100000000000005

>  <m_primary>  (50) 
energy

>  <rmsd>  (50) 
11.690308822937885

>  <m_score__min__rmsd>  (50) 
11.690308822937885

>  <meeko>  (50) 
{"free_energy": -6.67, "intermolecular_energy": -8.46, "internal_energy": -3.43, "cluster_size": 8, "cluster_id": 7, "rank_in_cluster": 8}

>  <energy>  (50) 
-6.67

>  <cluster_rmsd>  (50) 
0.52

>  <cluster>  (50) 
7

$$$$
