
     RDKit          3D

 45 47  0  0  0  0  0  0  0  0999 V2000
  140.6310   70.9430  221.6420 O   0  0  0  0  0  0  0  0  0  0  0  0
  140.1620   72.0540  222.0690 C   0  0  0  0  0  0  0  0  0  0  0  0
  139.1480   71.9610  223.0900 N   0  0  0  0  0  0  0  0  0  0  0  0
  138.6450   70.7680  223.6310 C   0  0  0  0  0  0  0  0  0  0  0  0
  139.3280   69.8440  224.4620 C   0  0  0  0  0  0  0  0  0  0  0  0
  138.9390   68.5640  224.1570 O   0  0  0  0  0  0  0  0  0  0  0  0
  140.2590   69.7810  225.4740 N   0  0  0  0  0  0  0  0  0  0  0  0
  141.0950   71.0630  225.5750 C   0  0  0  0  0  0  0  0  0  0  0  0
  140.8120   71.6960  226.8970 C   0  0  0  0  0  0  0  0  0  0  0  0
  140.6990   70.7620  228.0520 C   0  0  0  0  0  0  0  0  0  0  0  0
  139.9300   69.4950  227.7780 C   0  0  0  0  0  0  0  0  0  0  0  0
  140.6000   68.8810  226.5120 C   0  0  1  0  0  0  0  0  0  0  0  0
  140.2920   67.4520  226.4670 C   0  0  0  0  0  0  0  0  0  0  0  0
  138.8620   67.3610  226.3660 O   0  0  0  0  0  0  0  0  0  0  0  0
  140.6220   73.3370  221.5540 C   0  0  0  0  0  0  0  0  0  0  0  0
  141.4310   73.3190  220.4360 C   0  0  0  0  0  0  0  0  0  0  0  0
  141.8620   74.5570  219.9580 C   0  0  0  0  0  0  0  0  0  0  0  0
  141.4930   75.7410  220.5790 C   0  0  0  0  0  0  0  0  0  0  0  0
  141.9130   76.9770  220.1160 C   0  0  0  0  0  0  0  0  0  0  0  0
  142.9420   77.0370  218.7000 Cl  0  0  0  0  0  0  0  0  0  0  0  0
  141.5330   78.1550  220.7510 C   0  0  0  0  0  0  0  0  0  0  0  0
  140.7170   78.0630  221.8700 C   0  0  0  0  0  0  0  0  0  0  0  0
  140.2770   76.8390  222.3610 C   0  0  0  0  0  0  0  0  0  0  0  0
  140.6790   75.6970  221.6980 C   0  0  0  0  0  0  0  0  0  0  0  0
  140.2650   74.4880  222.1550 N   0  0  0  0  0  0  0  0  0  0  0  0
  138.8030   72.9220  223.4090 H   0  0  0  0  0  0  0  0  0  0  0  0
  137.7637   71.0731  224.2143 H   0  0  0  0  0  0  0  0  0  0  0  0
  138.5959   70.1683  222.7102 H   0  0  0  0  0  0  0  0  0  0  0  0
  142.1647   70.8179  225.5000 H   0  0  0  0  0  0  0  0  0  0  0  0
  140.8365   71.7528  224.7581 H   0  0  0  0  0  0  0  0  0  0  0  0
  141.6259   72.4036  227.1135 H   0  0  0  0  0  0  0  0  0  0  0  0
  139.8235   72.1681  226.7967 H   0  0  0  0  0  0  0  0  0  0  0  0
  141.7159   70.4824  228.3646 H   0  0  0  0  0  0  0  0  0  0  0  0
  140.1345   71.3009  228.8272 H   0  0  0  0  0  0  0  0  0  0  0  0
  140.0078   68.8038  228.6301 H   0  0  0  0  0  0  0  0  0  0  0  0
  138.8579   69.6878  227.6252 H   0  0  0  0  0  0  0  0  0  0  0  0
  141.6964   68.8154  226.4519 H   0  0  0  0  0  0  0  0  0  0  0  0
  140.7679   66.9853  225.5920 H   0  0  0  0  0  0  0  0  0  0  0  0
  140.6682   66.9293  227.3588 H   0  0  0  0  0  0  0  0  0  0  0  0
  138.5270   67.8300  225.5790 H   0  0  0  0  0  0  0  0  0  0  0  0
  141.7210   72.3773  219.9470 H   0  0  0  0  0  0  0  0  0  0  0  0
  142.5087   74.5948  219.0690 H   0  0  0  0  0  0  0  0  0  0  0  0
  141.8701   79.1328  220.3765 H   0  0  0  0  0  0  0  0  0  0  0  0
  140.4093   78.9858  222.3835 H   0  0  0  0  0  0  0  0  0  0  0  0
  139.6298   76.7825  223.2486 H   0  0  0  0  0  0  0  0  0  0  0  0
  1  2  2  0
  2  3  1  0
  3  4  1  0
  4  5  1  0
  5  6  2  0
  5  7  1  0
  7  8  1  0
  8  9  1  0
  9 10  1  0
 10 11  1  0
 11 12  1  0
 12 13  1  0
 13 14  1  0
  2 15  1  0
 15 16  2  0
 16 17  1  0
 17 18  2  0
 18 19  1  0
 19 20  1  0
 19 21  2  0
 21 22  1  0
 22 23  2  0
 23 24  1  0
 24 25  2  0
 12  7  1  0
 25 15  1  0
 24 18  1  0
  3 26  1  0
  4 27  1  0
  4 28  1  0
  8 29  1  0
  8 30  1  0
  9 31  1  0
  9 32  1  0
 10 33  1  0
 10 34  1  0
 11 35  1  0
 11 36  1  0
 12 37  1  1
 13 38  1  0
 13 39  1  0
 14 40  1  0
 16 41  1  0
 17 42  1  0
 21 43  1  0
 22 44  1  0
 23 45  1  0
M  END
>  <smiles>  (1) 
O=C(NCC(=O)N1CCCC[C@H]1CO)c1ccc2c(Cl)cccc2n1

>  <score_type>  (1) 
oracle

>  <origin>  (1) 
autodockgpu

>  <m_score__min__energy>  (1) 
-8.4499999999999993

>  <m_primary>  (1) 
energy

>  <rmsd>  (1) 
8.3063723107149

>  <m_score__min__rmsd>  (1) 
8.3063723107149

>  <meeko>  (1) 
{"free_energy": -7.91, "intermolecular_energy": -9.7, "internal_energy": -2.03, "cluster_size": 36, "cluster_id": 1, "rank_in_cluster": 20}

>  <energy>  (1) 
-8.45

>  <cluster_rmsd>  (1) 
0.0

>  <cluster>  (1) 
1

$$$$

     RDKit          3D

 45 47  0  0  0  0  0  0  0  0999 V2000
  139.8350   71.4980  221.7180 O   0  0  0  0  0  0  0  0  0  0  0  0
  139.0690   72.2250  222.4380 C   0  0  0  0  0  0  0  0  0  0  0  0
  138.3200   71.5360  223.4600 N   0  0  0  0  0  0  0  0  0  0  0  0
  138.3640   70.1560  223.7100 C   0  0  0  0  0  0  0  0  0  0  0  0
  139.1530   69.4800  224.6760 C   0  0  0  0  0  0  0  0  0  0  0  0
  138.7460   68.1740  224.7810 O   0  0  0  0  0  0  0  0  0  0  0  0
  140.2000   69.6770  225.5480 N   0  0  0  0  0  0  0  0  0  0  0  0
  141.0900   70.8550  225.1320 C   0  0  0  0  0  0  0  0  0  0  0  0
  140.9980   71.9010  226.1920 C   0  0  0  0  0  0  0  0  0  0  0  0
  140.9930   71.4020  227.5960 C   0  0  0  0  0  0  0  0  0  0  0  0
  140.1480   70.1780  227.8380 C   0  0  0  0  0  0  0  0  0  0  0  0
  140.6320   69.1380  226.7830 C   0  0  1  0  0  0  0  0  0  0  0  0
  140.2680   67.7990  227.2450 C   0  0  0  0  0  0  0  0  0  0  0  0
  140.5060   66.9210  226.1320 O   0  0  0  0  0  0  0  0  0  0  0  0
  138.9560   73.6640  222.2400 C   0  0  0  0  0  0  0  0  0  0  0  0
  137.7030   74.1690  221.9580 C   0  0  0  0  0  0  0  0  0  0  0  0
  137.6150   75.5500  221.7710 C   0  0  0  0  0  0  0  0  0  0  0  0
  138.7310   76.3660  221.8650 C   0  0  0  0  0  0  0  0  0  0  0  0
  138.6590   77.7360  221.6820 C   0  0  0  0  0  0  0  0  0  0  0  0
  137.1020   78.4540  221.3220 Cl  0  0  0  0  0  0  0  0  0  0  0  0
  139.7890   78.5410  221.7800 C   0  0  0  0  0  0  0  0  0  0  0  0
  141.0030   77.9320  222.0660 C   0  0  0  0  0  0  0  0  0  0  0  0
  141.1120   76.5600  222.2560 C   0  0  0  0  0  0  0  0  0  0  0  0
  139.9630   75.8020  222.1500 C   0  0  0  0  0  0  0  0  0  0  0  0
  140.0390   74.4590  222.3300 N   0  0  0  0  0  0  0  0  0  0  0  0
  137.7060   72.1990  224.0320 H   0  0  0  0  0  0  0  0  0  0  0  0
  137.3267   69.8805  223.9512 H   0  0  0  0  0  0  0  0  0  0  0  0
  138.8909   69.8327  222.8002 H   0  0  0  0  0  0  0  0  0  0  0  0
  142.1320   70.5176  225.0303 H   0  0  0  0  0  0  0  0  0  0  0  0
  140.7579   71.2613  224.1652 H   0  0  0  0  0  0  0  0  0  0  0  0
  141.8593   72.5754  226.0765 H   0  0  0  0  0  0  0  0  0  0  0  0
  140.0240   72.3906  226.0452 H   0  0  0  0  0  0  0  0  0  0  0  0
  142.0293   71.1610  227.8754 H   0  0  0  0  0  0  0  0  0  0  0  0
  140.5498   72.2044  228.2040 H   0  0  0  0  0  0  0  0  0  0  0  0
  140.3044   69.7958  228.8575 H   0  0  0  0  0  0  0  0  0  0  0  0
  139.0733   70.3928  227.7433 H   0  0  0  0  0  0  0  0  0  0  0  0
  141.7092   68.9728  226.6334 H   0  0  0  0  0  0  0  0  0  0  0  0
  140.8917   67.5073  228.1028 H   0  0  0  0  0  0  0  0  0  0  0  0
  139.2200   67.7567  227.5764 H   0  0  0  0  0  0  0  0  0  0  0  0
  140.3910   67.3820  225.2810 H   0  0  0  0  0  0  0  0  0  0  0  0
  136.8197   73.5176  221.8844 H   0  0  0  0  0  0  0  0  0  0  0  0
  136.6375   76.0004  221.5439 H   0  0  0  0  0  0  0  0  0  0  0  0
  139.7225   79.6294  221.6350 H   0  0  0  0  0  0  0  0  0  0  0  0
  141.9064   78.5546  222.1446 H   0  0  0  0  0  0  0  0  0  0  0  0
  142.0817   76.0931  222.4834 H   0  0  0  0  0  0  0  0  0  0  0  0
  1  2  2  0
  2  3  1  0
  3  4  1  0
  4  5  1  0
  5  6  2  0
  5  7  1  0
  7  8  1  0
  8  9  1  0
  9 10  1  0
 10 11  1  0
 11 12  1  0
 12 13  1  0
 13 14  1  0
  2 15  1  0
 15 16  2  0
 16 17  1  0
 17 18  2  0
 18 19  1  0
 19 20  1  0
 19 21  2  0
 21 22  1  0
 22 23  2  0
 23 24  1  0
 24 25  2  0
 12  7  1  0
 25 15  1  0
 24 18  1  0
  3 26  1  0
  4 27  1  0
  4 28  1  0
  8 29  1  0
  8 30  1  0
  9 31  1  0
  9 32  1  0
 10 33  1  0
 10 34  1  0
 11 35  1  0
 11 36  1  0
 12 37  1  6
 13 38  1  0
 13 39  1  0
 14 40  1  0
 16 41  1  0
 17 42  1  0
 21 43  1  0
 22 44  1  0
 23 45  1  0
M  END
>  <smiles>  (2) 
O=C(NCC(=O)N1CCCC[C@H]1CO)c1ccc2c(Cl)cccc2n1

>  <score_type>  (2) 
oracle

>  <origin>  (2) 
autodockgpu

>  <m_score__min__energy>  (2) 
-8.4499999999999993

>  <m_primary>  (2) 
energy

>  <rmsd>  (2) 
8.196573122269522

>  <m_score__min__rmsd>  (2) 
8.196573122269522

>  <meeko>  (2) 
{"free_energy": -6.93, "intermolecular_energy": -8.72, "internal_energy": -1.76, "cluster_size": 36, "cluster_id": 1, "rank_in_cluster": 35}

>  <energy>  (2) 
-8.13

>  <cluster_rmsd>  (2) 
0.77

>  <cluster>  (2) 
1

$$$$

     RDKit          3D

 45 47  0  0  0  0  0  0  0  0999 V2000
  140.6550   70.9110  221.7870 O   0  0  0  0  0  0  0  0  0  0  0  0
  140.1900   72.0510  222.1320 C   0  0  0  0  0  0  0  0  0  0  0  0
  139.1090   72.0320  223.0850 N   0  0  0  0  0  0  0  0  0  0  0  0
  138.5370   70.8790  223.6430 C   0  0  0  0  0  0  0  0  0  0  0  0
  138.9330   70.2070  224.8280 C   0  0  0  0  0  0  0  0  0  0  0  0
  137.8900   69.4610  225.3150 O   0  0  0  0  0  0  0  0  0  0  0  0
  140.0130   70.0350  225.6650 N   0  0  0  0  0  0  0  0  0  0  0  0
  141.0250   71.1820  225.5500 C   0  0  0  0  0  0  0  0  0  0  0  0
  141.0770   71.8850  226.8650 C   0  0  0  0  0  0  0  0  0  0  0  0
  141.0420   71.0100  228.0700 C   0  0  0  0  0  0  0  0  0  0  0  0
  140.0660   69.8640  228.0030 C   0  0  0  0  0  0  0  0  0  0  0  0
  140.4040   69.1230  226.6740 C   0  0  1  0  0  0  0  0  0  0  0  0
  139.8960   67.7550  226.7590 C   0  0  0  0  0  0  0  0  0  0  0  0
  139.5590   67.3760  225.4140 O   0  0  0  0  0  0  0  0  0  0  0  0
  140.7200   73.2970  221.5930 C   0  0  0  0  0  0  0  0  0  0  0  0
  141.5710   73.2100  220.5110 C   0  0  0  0  0  0  0  0  0  0  0  0
  142.0690   74.4130  220.0090 C   0  0  0  0  0  0  0  0  0  0  0  0
  141.7220   75.6310  220.5730 C   0  0  0  0  0  0  0  0  0  0  0  0
  142.2070   76.8330  220.0860 C   0  0  0  0  0  0  0  0  0  0  0  0
  143.2940   76.8040  218.7120 Cl  0  0  0  0  0  0  0  0  0  0  0  0
  141.8490   78.0460  220.6640 C   0  0  0  0  0  0  0  0  0  0  0  0
  140.9860   78.0240  221.7510 C   0  0  0  0  0  0  0  0  0  0  0  0
  140.4800   76.8370  222.2660 C   0  0  0  0  0  0  0  0  0  0  0  0
  140.8630   75.6570  221.6590 C   0  0  0  0  0  0  0  0  0  0  0  0
  140.3850   74.4810  222.1400 N   0  0  0  0  0  0  0  0  0  0  0  0
  138.7710   73.0150  223.3370 H   0  0  0  0  0  0  0  0  0  0  0  0
  137.4811   71.1401  223.8072 H   0  0  0  0  0  0  0  0  0  0  0  0
  138.8811   70.1410  222.9035 H   0  0  0  0  0  0  0  0  0  0  0  0
  142.0184   70.7798  225.3022 H   0  0  0  0  0  0  0  0  0  0  0  0
  140.7226   71.8800  224.7554 H   0  0  0  0  0  0  0  0  0  0  0  0
  142.0086   72.4689  226.8989 H   0  0  0  0  0  0  0  0  0  0  0  0
  140.1637   72.4962  226.9132 H   0  0  0  0  0  0  0  0  0  0  0  0
  142.0487   70.5914  228.2159 H   0  0  0  0  0  0  0  0  0  0  0  0
  140.7066   71.6482  228.9008 H   0  0  0  0  0  0  0  0  0  0  0  0
  140.1983   69.1927  228.8643 H   0  0  0  0  0  0  0  0  0  0  0  0
  139.0217   70.2087  228.0297 H   0  0  0  0  0  0  0  0  0  0  0  0
  141.4513   68.8938  226.4276 H   0  0  0  0  0  0  0  0  0  0  0  0
  140.6685   67.0844  227.1634 H   0  0  0  0  0  0  0  0  0  0  0  0
  139.0252   67.6882  227.4278 H   0  0  0  0  0  0  0  0  0  0  0  0
  138.8000   67.8860  225.0770 H   0  0  0  0  0  0  0  0  0  0  0  0
  141.8433   72.2414  220.0664 H   0  0  0  0  0  0  0  0  0  0  0  0
  142.7519   74.3945  219.1468 H   0  0  0  0  0  0  0  0  0  0  0  0
  142.2388   78.9965  220.2708 H   0  0  0  0  0  0  0  0  0  0  0  0
  140.6938   78.9756  222.2190 H   0  0  0  0  0  0  0  0  0  0  0  0
  139.7971   76.8370  223.1284 H   0  0  0  0  0  0  0  0  0  0  0  0
  1  2  2  0
  2  3  1  0
  3  4  1  0
  4  5  1  0
  5  6  2  0
  5  7  1  0
  7  8  1  0
  8  9  1  0
  9 10  1  0
 10 11  1  0
 11 12  1  0
 12 13  1  0
 13 14  1  0
  2 15  1  0
 15 16  2  0
 16 17  1  0
 17 18  2  0
 18 19  1  0
 19 20  1  0
 19 21  2  0
 21 22  1  0
 22 23  2  0
 23 24  1  0
 24 25  2  0
 12  7  1  0
 25 15  1  0
 24 18  1  0
  3 26  1  0
  4 27  1  0
  4 28  1  0
  8 29  1  0
  8 30  1  0
  9 31  1  0
  9 32  1  0
 10 33  1  0
 10 34  1  0
 11 35  1  0
 11 36  1  0
 12 37  1  1
 13 38  1  0
 13 39  1  0
 14 40  1  0
 16 41  1  0
 17 42  1  0
 21 43  1  0
 22 44  1  0
 23 45  1  0
M  END
>  <smiles>  (3) 
O=C(NCC(=O)N1CCCC[C@H]1CO)c1ccc2c(Cl)cccc2n1

>  <score_type>  (3) 
oracle

>  <origin>  (3) 
autodockgpu

>  <m_score__min__energy>  (3) 
-8.4499999999999993

>  <m_primary>  (3) 
energy

>  <rmsd>  (3) 
8.291425000370497

>  <m_score__min__rmsd>  (3) 
8.291425000370497

>  <meeko>  (3) 
{"free_energy": -8.04, "intermolecular_energy": -9.83, "internal_energy": -2.05, "cluster_size": 36, "cluster_id": 1, "rank_in_cluster": 11}

>  <energy>  (3) 
-8.13

>  <cluster_rmsd>  (3) 
0.79

>  <cluster>  (3) 
1

$$$$

     RDKit          3D

 45 47  0  0  0  0  0  0  0  0999 V2000
  140.6390   70.9010  221.7390 O   0  0  0  0  0  0  0  0  0  0  0  0
  140.1770   72.0390  222.0950 C   0  0  0  0  0  0  0  0  0  0  0  0
  139.1040   72.0130  223.0580 N   0  0  0  0  0  0  0  0  0  0  0  0
  138.5380   70.8560  223.6130 C   0  0  0  0  0  0  0  0  0  0  0  0
  138.9380   70.1830  224.7970 C   0  0  0  0  0  0  0  0  0  0  0  0
  137.8980   69.4310  225.2810 O   0  0  0  0  0  0  0  0  0  0  0  0
  140.0190   70.0150  225.6330 N   0  0  0  0  0  0  0  0  0  0  0  0
  141.0350   71.1570  225.5060 C   0  0  0  0  0  0  0  0  0  0  0  0
  141.0920   71.8730  226.8140 C   0  0  0  0  0  0  0  0  0  0  0  0
  141.0560   71.0090  228.0270 C   0  0  0  0  0  0  0  0  0  0  0  0
  140.0750   69.8670  227.9720 C   0  0  0  0  0  0  0  0  0  0  0  0
  140.4080   69.1110  226.6500 C   0  0  1  0  0  0  0  0  0  0  0  0
  139.8940   67.7460  226.7490 C   0  0  0  0  0  0  0  0  0  0  0  0
  139.5680   67.3510  225.4070 O   0  0  0  0  0  0  0  0  0  0  0  0
  140.7010   73.2890  221.5600 C   0  0  0  0  0  0  0  0  0  0  0  0
  141.5290   73.2100  220.4590 C   0  0  0  0  0  0  0  0  0  0  0  0
  142.0220   74.4170  219.9610 C   0  0  0  0  0  0  0  0  0  0  0  0
  141.6930   75.6300  220.5460 C   0  0  0  0  0  0  0  0  0  0  0  0
  142.1740   76.8350  220.0630 C   0  0  0  0  0  0  0  0  0  0  0  0
  143.2310   76.8180  218.6660 Cl  0  0  0  0  0  0  0  0  0  0  0  0
  141.8330   78.0430  220.6620 C   0  0  0  0  0  0  0  0  0  0  0  0
  140.9930   78.0130  221.7670 C   0  0  0  0  0  0  0  0  0  0  0  0
  140.4920   76.8210  222.2780 C   0  0  0  0  0  0  0  0  0  0  0  0
  140.8570   75.6480  221.6490 C   0  0  0  0  0  0  0  0  0  0  0  0
  140.3830   74.4680  222.1270 N   0  0  0  0  0  0  0  0  0  0  0  0
  138.7680   72.9940  223.3190 H   0  0  0  0  0  0  0  0  0  0  0  0
  137.4808   71.1113  223.7780 H   0  0  0  0  0  0  0  0  0  0  0  0
  138.8854   70.1215  222.8715 H   0  0  0  0  0  0  0  0  0  0  0  0
  142.0265   70.7486  225.2608 H   0  0  0  0  0  0  0  0  0  0  0  0
  140.7337   71.8485  224.7053 H   0  0  0  0  0  0  0  0  0  0  0  0
  142.0258   72.4538  226.8407 H   0  0  0  0  0  0  0  0  0  0  0  0
  140.1815   72.4886  226.8580 H   0  0  0  0  0  0  0  0  0  0  0  0
  142.0612   70.5874  228.1744 H   0  0  0  0  0  0  0  0  0  0  0  0
  140.7255   71.6559  228.8530 H   0  0  0  0  0  0  0  0  0  0  0  0
  140.2051   69.2037  228.8398 H   0  0  0  0  0  0  0  0  0  0  0  0
  139.0324   70.2169  227.9960 H   0  0  0  0  0  0  0  0  0  0  0  0
  141.4539   68.8744  226.4046 H   0  0  0  0  0  0  0  0  0  0  0  0
  140.6602   67.0779  227.1693 H   0  0  0  0  0  0  0  0  0  0  0  0
  139.0172   67.6911  227.4109 H   0  0  0  0  0  0  0  0  0  0  0  0
  139.5640   68.1130  224.7990 H   0  0  0  0  0  0  0  0  0  0  0  0
  141.7872   72.2454  219.9976 H   0  0  0  0  0  0  0  0  0  0  0  0
  142.6866   74.4056  219.0845 H   0  0  0  0  0  0  0  0  0  0  0  0
  142.2183   78.9962  220.2709 H   0  0  0  0  0  0  0  0  0  0  0  0
  140.7157   78.9603  222.2525 H   0  0  0  0  0  0  0  0  0  0  0  0
  139.8270   76.8131  223.1542 H   0  0  0  0  0  0  0  0  0  0  0  0
  1  2  2  0
  2  3  1  0
  3  4  1  0
  4  5  1  0
  5  6  2  0
  5  7  1  0
  7  8  1  0
  8  9  1  0
  9 10  1  0
 10 11  1  0
 11 12  1  0
 12 13  1  0
 13 14  1  0
  2 15  1  0
 15 16  2  0
 16 17  1  0
 17 18  2  0
 18 19  1  0
 19 20  1  0
 19 21  2  0
 21 22  1  0
 22 23  2  0
 23 24  1  0
 24 25  2  0
 12  7  1  0
 25 15  1  0
 24 18  1  0
  3 26  1  0
  4 27  1  0
  4 28  1  0
  8 29  1  0
  8 30  1  0
  9 31  1  0
  9 32  1  0
 10 33  1  0
 10 34  1  0
 11 35  1  0
 11 36  1  0
 12 37  1  1
 13 38  1  0
 13 39  1  0
 14 40  1  0
 16 41  1  0
 17 42  1  0
 21 43  1  0
 22 44  1  0
 23 45  1  0
M  END
>  <smiles>  (4) 
O=C(NCC(=O)N1CCCC[C@H]1CO)c1ccc2c(Cl)cccc2n1

>  <score_type>  (4) 
oracle

>  <origin>  (4) 
autodockgpu

>  <m_score__min__energy>  (4) 
-8.4499999999999993

>  <m_primary>  (4) 
energy

>  <rmsd>  (4) 
8.281333436269307

>  <m_score__min__rmsd>  (4) 
8.281333436269307

>  <meeko>  (4) 
{"free_energy": -8.13, "intermolecular_energy": -9.92, "internal_energy": -1.94, "cluster_size": 36, "cluster_id": 1, "rank_in_cluster": 3}

>  <energy>  (4) 
-8.08

>  <cluster_rmsd>  (4) 
0.72

>  <cluster>  (4) 
1

$$$$

     RDKit          3D

 45 47  0  0  0  0  0  0  0  0999 V2000
  141.4940   71.9050  221.5380 O   0  0  0  0  0  0  0  0  0  0  0  0
  140.6420   72.7420  221.9940 C   0  0  0  0  0  0  0  0  0  0  0  0
  139.6360   72.2050  222.8760 N   0  0  0  0  0  0  0  0  0  0  0  0
  139.5220   70.8580  223.2550 C   0  0  0  0  0  0  0  0  0  0  0  0
  139.4250   70.3390  224.5710 C   0  0  0  0  0  0  0  0  0  0  0  0
  138.1080   70.1420  224.9000 O   0  0  0  0  0  0  0  0  0  0  0  0
  140.1990   69.9530  225.6430 N   0  0  0  0  0  0  0  0  0  0  0  0
  141.3380   70.9430  225.9230 C   0  0  0  0  0  0  0  0  0  0  0  0
  141.1080   71.5420  227.2700 C   0  0  0  0  0  0  0  0  0  0  0  0
  140.6310   70.6040  228.3240 C   0  0  0  0  0  0  0  0  0  0  0  0
  139.5780   69.6220  227.8790 C   0  0  0  0  0  0  0  0  0  0  0  0
  140.1780   68.9290  226.6190 C   0  0  1  0  0  0  0  0  0  0  0  0
  139.4990   67.6480  226.4220 C   0  0  0  0  0  0  0  0  0  0  0  0
  139.3820   67.4810  224.9990 O   0  0  0  0  0  0  0  0  0  0  0  0
  140.6830   74.1560  221.6430 C   0  0  0  0  0  0  0  0  0  0  0  0
  141.5190   74.5300  220.6110 C   0  0  0  0  0  0  0  0  0  0  0  0
  141.5440   75.8880  220.2900 C   0  0  0  0  0  0  0  0  0  0  0  0
  140.7680   76.8090  220.9760 C   0  0  0  0  0  0  0  0  0  0  0  0
  140.7830   78.1590  220.6690 C   0  0  0  0  0  0  0  0  0  0  0  0
  141.8190   78.7120  219.3690 Cl  0  0  0  0  0  0  0  0  0  0  0  0
  139.9970   79.0700  221.3670 C   0  0  0  0  0  0  0  0  0  0  0  0
  139.1910   78.5900  222.3900 C   0  0  0  0  0  0  0  0  0  0  0  0
  139.1510   77.2420  222.7250 C   0  0  0  0  0  0  0  0  0  0  0  0
  139.9470   76.3750  222.0030 C   0  0  0  0  0  0  0  0  0  0  0  0
  139.9300   75.0520  222.3090 N   0  0  0  0  0  0  0  0  0  0  0  0
  138.9600   72.9550  223.2280 H   0  0  0  0  0  0  0  0  0  0  0  0
  138.6179   70.4971  222.7428 H   0  0  0  0  0  0  0  0  0  0  0  0
  140.5415   70.5237  223.0125 H   0  0  0  0  0  0  0  0  0  0  0  0
  142.3031   70.4153  225.9090 H   0  0  0  0  0  0  0  0  0  0  0  0
  141.3585   71.7291  225.1538 H   0  0  0  0  0  0  0  0  0  0  0  0
  142.0580   71.9787  227.6118 H   0  0  0  0  0  0  0  0  0  0  0  0
  140.3002   72.2765  227.1362 H   0  0  0  0  0  0  0  0  0  0  0  0
  141.4973   70.0324  228.6885 H   0  0  0  0  0  0  0  0  0  0  0  0
  140.1597   71.2278  229.0978 H   0  0  0  0  0  0  0  0  0  0  0  0
  139.3803   68.8828  228.6693 H   0  0  0  0  0  0  0  0  0  0  0  0
  138.6192   70.1153  227.6615 H   0  0  0  0  0  0  0  0  0  0  0  0
  141.2157   68.5645  226.6387 H   0  0  0  0  0  0  0  0  0  0  0  0
  140.0919   66.8295  226.8562 H   0  0  0  0  0  0  0  0  0  0  0  0
  138.5151   67.6317  226.9136 H   0  0  0  0  0  0  0  0  0  0  0  0
  138.7280   68.0950  224.6190 H   0  0  0  0  0  0  0  0  0  0  0  0
  142.1338   73.7960  220.0694 H   0  0  0  0  0  0  0  0  0  0  0  0
  142.1945   76.2354  219.4738 H   0  0  0  0  0  0  0  0  0  0  0  0
  140.0137   80.1407  221.1153 H   0  0  0  0  0  0  0  0  0  0  0  0
  138.5649   79.2982  222.9526 H   0  0  0  0  0  0  0  0  0  0  0  0
  138.5065   76.8776  223.5385 H   0  0  0  0  0  0  0  0  0  0  0  0
  1  2  2  0
  2  3  1  0
  3  4  1  0
  4  5  1  0
  5  6  2  0
  5  7  1  0
  7  8  1  0
  8  9  1  0
  9 10  1  0
 10 11  1  0
 11 12  1  0
 12 13  1  0
 13 14  1  0
  2 15  1  0
 15 16  2  0
 16 17  1  0
 17 18  2  0
 18 19  1  0
 19 20  1  0
 19 21  2  0
 21 22  1  0
 22 23  2  0
 23 24  1  0
 24 25  2  0
 12  7  1  0
 25 15  1  0
 24 18  1  0
  3 26  1  0
  4 27  1  0
  4 28  1  0
  8 29  1  0
  8 30  1  0
  9 31  1  0
  9 32  1  0
 10 33  1  0
 10 34  1  0
 11 35  1  0
 11 36  1  0
 12 37  1  1
 13 38  1  0
 13 39  1  0
 14 40  1  0
 16 41  1  0
 17 42  1  0
 21 43  1  0
 22 44  1  0
 23 45  1  0
M  END
>  <smiles>  (5) 
O=C(NCC(=O)N1CCCC[C@H]1CO)c1ccc2c(Cl)cccc2n1

>  <score_type>  (5) 
oracle

>  <origin>  (5) 
autodockgpu

>  <m_score__min__energy>  (5) 
-8.4499999999999993

>  <m_primary>  (5) 
energy

>  <rmsd>  (5) 
8.598750781249963

>  <m_score__min__rmsd>  (5) 
8.598750781249963

>  <meeko>  (5) 
{"free_energy": -7.46, "intermolecular_energy": -9.25, "internal_energy": -1.93, "cluster_size": 36, "cluster_id": 1, "rank_in_cluster": 31}

>  <energy>  (5) 
-8.07

>  <cluster_rmsd>  (5) 
0.71

>  <cluster>  (5) 
1

$$$$

     RDKit          3D

 45 47  0  0  0  0  0  0  0  0999 V2000
  138.2620   72.7120  222.4910 O   0  0  0  0  0  0  0  0  0  0  0  0
  139.5170   72.7440  222.2530 C   0  0  0  0  0  0  0  0  0  0  0  0
  140.2560   71.5520  222.5870 N   0  0  0  0  0  0  0  0  0  0  0  0
  139.7100   70.3880  223.1490 C   0  0  0  0  0  0  0  0  0  0  0  0
  139.5750   70.0790  224.5270 C   0  0  0  0  0  0  0  0  0  0  0  0
  138.2560   69.8490  224.8280 O   0  0  0  0  0  0  0  0  0  0  0  0
  140.3130   69.9210  225.6790 N   0  0  0  0  0  0  0  0  0  0  0  0
  141.3730   71.0170  225.8440 C   0  0  0  0  0  0  0  0  0  0  0  0
  141.0370   71.8050  227.0670 C   0  0  0  0  0  0  0  0  0  0  0  0
  140.5620   71.0140  228.2360 C   0  0  0  0  0  0  0  0  0  0  0  0
  139.5950   69.9050  227.9110 C   0  0  0  0  0  0  0  0  0  0  0  0
  140.3020   69.0640  226.8050 C   0  0  1  0  0  0  0  0  0  0  0  0
  139.7140   67.7250  226.7880 C   0  0  0  0  0  0  0  0  0  0  0  0
  139.5370   67.3920  225.4010 O   0  0  0  0  0  0  0  0  0  0  0  0
  140.1660   73.9160  221.6790 C   0  0  0  0  0  0  0  0  0  0  0  0
  140.9040   73.7330  220.5270 C   0  0  0  0  0  0  0  0  0  0  0  0
  141.5180   74.8660  219.9920 C   0  0  0  0  0  0  0  0  0  0  0  0
  141.3900   76.1090  220.5910 C   0  0  0  0  0  0  0  0  0  0  0  0
  141.9940   77.2420  220.0720 C   0  0  0  0  0  0  0  0  0  0  0  0
  142.9470   77.0910  218.6100 Cl  0  0  0  0  0  0  0  0  0  0  0  0
  141.8550   78.4830  220.6860 C   0  0  0  0  0  0  0  0  0  0  0  0
  141.0910   78.5590  221.8430 C   0  0  0  0  0  0  0  0  0  0  0  0
  140.4720   77.4430  222.3910 C   0  0  0  0  0  0  0  0  0  0  0  0
  140.6370   76.2330  221.7470 C   0  0  0  0  0  0  0  0  0  0  0  0
  140.0440   75.1250  222.2590 N   0  0  0  0  0  0  0  0  0  0  0  0
  141.2970   71.6400  222.3570 H   0  0  0  0  0  0  0  0  0  0  0  0
  138.6876   70.3339  222.7468 H   0  0  0  0  0  0  0  0  0  0  0  0
  140.5106   69.6793  222.8905 H   0  0  0  0  0  0  0  0  0  0  0  0
  142.3675   70.5604  225.9559 H   0  0  0  0  0  0  0  0  0  0  0  0
  141.3862   71.6714  224.9599 H   0  0  0  0  0  0  0  0  0  0  0  0
  141.9399   72.3529  227.3744 H   0  0  0  0  0  0  0  0  0  0  0  0
  140.1956   72.4541  226.7830 H   0  0  0  0  0  0  0  0  0  0  0  0
  141.4407   70.5670  228.7239 H   0  0  0  0  0  0  0  0  0  0  0  0
  140.0132   71.7186  228.8782 H   0  0  0  0  0  0  0  0  0  0  0  0
  139.4010   69.2882  228.8009 H   0  0  0  0  0  0  0  0  0  0  0  0
  138.6208   70.2912  227.5768 H   0  0  0  0  0  0  0  0  0  0  0  0
  141.3572   68.7783  226.9268 H   0  0  0  0  0  0  0  0  0  0  0  0
  140.3894   67.0040  227.2718 H   0  0  0  0  0  0  0  0  0  0  0  0
  138.7608   67.6947  227.3362 H   0  0  0  0  0  0  0  0  0  0  0  0
  138.8290   67.9220  224.9920 H   0  0  0  0  0  0  0  0  0  0  0  0
  141.0030   72.7444  220.0548 H   0  0  0  0  0  0  0  0  0  0  0  0
  142.1170   74.7704  219.0744 H   0  0  0  0  0  0  0  0  0  0  0  0
  142.3368   79.3786  220.2666 H   0  0  0  0  0  0  0  0  0  0  0  0
  140.9724   79.5328  222.3407 H   0  0  0  0  0  0  0  0  0  0  0  0
  139.8699   77.5207  223.3083 H   0  0  0  0  0  0  0  0  0  0  0  0
  1  2  2  0
  2  3  1  0
  3  4  1  0
  4  5  1  0
  5  6  2  0
  5  7  1  0
  7  8  1  0
  8  9  1  0
  9 10  1  0
 10 11  1  0
 11 12  1  0
 12 13  1  0
 13 14  1  0
  2 15  1  0
 15 16  2  0
 16 17  1  0
 17 18  2  0
 18 19  1  0
 19 20  1  0
 19 21  2  0
 21 22  1  0
 22 23  2  0
 23 24  1  0
 24 25  2  0
 12  7  1  0
 25 15  1  0
 24 18  1  0
  3 26  1  0
  4 27  1  0
  4 28  1  0
  8 29  1  0
  8 30  1  0
  9 31  1  0
  9 32  1  0
 10 33  1  0
 10 34  1  0
 11 35  1  0
 11 36  1  0
 12 37  1  1
 13 38  1  0
 13 39  1  0
 14 40  1  0
 16 41  1  0
 17 42  1  0
 21 43  1  0
 22 44  1  0
 23 45  1  0
M  END
>  <smiles>  (6) 
O=C(NCC(=O)N1CCCC[C@H]1CO)c1ccc2c(Cl)cccc2n1

>  <score_type>  (6) 
oracle

>  <origin>  (6) 
autodockgpu

>  <m_score__min__energy>  (6) 
-8.4499999999999993

>  <m_primary>  (6) 
energy

>  <rmsd>  (6) 
8.520109185064449

>  <m_score__min__rmsd>  (6) 
8.520109185064449

>  <meeko>  (6) 
{"free_energy": -7.21, "intermolecular_energy": -9.0, "internal_energy": -1.63, "cluster_size": 36, "cluster_id": 1, "rank_in_cluster": 34}

>  <energy>  (6) 
-8.07

>  <cluster_rmsd>  (6) 
0.78

>  <cluster>  (6) 
1

$$$$

     RDKit          3D

 45 47  0  0  0  0  0  0  0  0999 V2000
  141.0600   71.1100  221.2780 O   0  0  0  0  0  0  0  0  0  0  0  0
  140.5540   72.1760  221.7720 C   0  0  0  0  0  0  0  0  0  0  0  0
  139.5640   71.9870  222.8020 N   0  0  0  0  0  0  0  0  0  0  0  0
  139.1180   70.7460  223.2850 C   0  0  0  0  0  0  0  0  0  0  0  0
  139.1980   70.2600  224.6150 C   0  0  0  0  0  0  0  0  0  0  0  0
  137.9530   69.8840  225.0510 O   0  0  0  0  0  0  0  0  0  0  0  0
  140.0990   70.0260  225.6300 N   0  0  0  0  0  0  0  0  0  0  0  0
  141.1990   71.0930  225.6870 C   0  0  0  0  0  0  0  0  0  0  0  0
  141.0740   71.8170  226.9860 C   0  0  0  0  0  0  0  0  0  0  0  0
  140.7630   70.9710  228.1720 C   0  0  0  0  0  0  0  0  0  0  0  0
  139.7300   69.8990  227.9420 C   0  0  0  0  0  0  0  0  0  0  0  0
  140.2370   69.1090  226.6980 C   0  0  1  0  0  0  0  0  0  0  0  0
  139.6200   67.7830  226.7010 C   0  0  0  0  0  0  0  0  0  0  0  0
  139.5280   67.3890  225.3220 O   0  0  0  0  0  0  0  0  0  0  0  0
  140.9530   73.5030  221.3220 C   0  0  0  0  0  0  0  0  0  0  0  0
  141.6460   73.5870  220.1310 C   0  0  0  0  0  0  0  0  0  0  0  0
  142.0190   74.8660  219.7160 C   0  0  0  0  0  0  0  0  0  0  0  0
  141.7090   75.9900  220.4650 C   0  0  0  0  0  0  0  0  0  0  0  0
  142.0730   77.2650  220.0660 C   0  0  0  0  0  0  0  0  0  0  0  0
  142.9540   77.4550  218.5640 Cl  0  0  0  0  0  0  0  0  0  0  0  0
  141.7530   78.3820  220.8310 C   0  0  0  0  0  0  0  0  0  0  0  0
  141.0550   78.1880  222.0140 C   0  0  0  0  0  0  0  0  0  0  0  0
  140.6730   76.9230  222.4450 C   0  0  0  0  0  0  0  0  0  0  0  0
  141.0120   75.8440  221.6530 C   0  0  0  0  0  0  0  0  0  0  0  0
  140.6530   74.5960  222.0480 N   0  0  0  0  0  0  0  0  0  0  0  0
  139.1860   72.9140  223.1780 H   0  0  0  0  0  0  0  0  0  0  0  0
  138.0463   70.7169  223.0388 H   0  0  0  0  0  0  0  0  0  0  0  0
  139.8744   70.0976  222.8188 H   0  0  0  0  0  0  0  0  0  0  0  0
  142.1871   70.6142  225.6203 H   0  0  0  0  0  0  0  0  0  0  0  0
  141.0934   71.7953  224.8470 H   0  0  0  0  0  0  0  0  0  0  0  0
  142.0270   72.3314  227.1788 H   0  0  0  0  0  0  0  0  0  0  0  0
  140.2156   72.4949  226.8690 H   0  0  0  0  0  0  0  0  0  0  0  0
  141.6941   70.4826  228.4952 H   0  0  0  0  0  0  0  0  0  0  0  0
  140.3372   71.6483  228.9269 H   0  0  0  0  0  0  0  0  0  0  0  0
  139.6587   69.2369  228.8175 H   0  0  0  0  0  0  0  0  0  0  0  0
  138.7264   70.3203  227.7825 H   0  0  0  0  0  0  0  0  0  0  0  0
  141.2909   68.7989  226.6416 H   0  0  0  0  0  0  0  0  0  0  0  0
  140.2443   67.0716  227.2615 H   0  0  0  0  0  0  0  0  0  0  0  0
  138.6317   67.7982  227.1838 H   0  0  0  0  0  0  0  0  0  0  0  0
  138.9320   67.9730  224.8210 H   0  0  0  0  0  0  0  0  0  0  0  0
  141.8914   72.6923  219.5399 H   0  0  0  0  0  0  0  0  0  0  0  0
  142.5719   74.9848  218.7725 H   0  0  0  0  0  0  0  0  0  0  0  0
  142.0455   79.3916  220.5066 H   0  0  0  0  0  0  0  0  0  0  0  0
  140.7959   79.0619  222.6297 H   0  0  0  0  0  0  0  0  0  0  0  0
  140.1192   76.7861  223.3855 H   0  0  0  0  0  0  0  0  0  0  0  0
  1  2  2  0
  2  3  1  0
  3  4  1  0
  4  5  1  0
  5  6  2  0
  5  7  1  0
  7  8  1  0
  8  9  1  0
  9 10  1  0
 10 11  1  0
 11 12  1  0
 12 13  1  0
 13 14  1  0
  2 15  1  0
 15 16  2  0
 16 17  1  0
 17 18  2  0
 18 19  1  0
 19 20  1  0
 19 21  2  0
 21 22  1  0
 22 23  2  0
 23 24  1  0
 24 25  2  0
 12  7  1  0
 25 15  1  0
 24 18  1  0
  3 26  1  0
  4 27  1  0
  4 28  1  0
  8 29  1  0
  8 30  1  0
  9 31  1  0
  9 32  1  0
 10 33  1  0
 10 34  1  0
 11 35  1  0
 11 36  1  0
 12 37  1  1
 13 38  1  0
 13 39  1  0
 14 40  1  0
 16 41  1  0
 17 42  1  0
 21 43  1  0
 22 44  1  0
 23 45  1  0
M  END
>  <smiles>  (7) 
O=C(NCC(=O)N1CCCC[C@H]1CO)c1ccc2c(Cl)cccc2n1

>  <score_type>  (7) 
oracle

>  <origin>  (7) 
autodockgpu

>  <m_score__min__energy>  (7) 
-8.4499999999999993

>  <m_primary>  (7) 
energy

>  <rmsd>  (7) 
8.400866853594295

>  <m_score__min__rmsd>  (7) 
8.400866853594295

>  <meeko>  (7) 
{"free_energy": -7.94, "intermolecular_energy": -9.73, "internal_energy": -1.96, "cluster_size": 36, "cluster_id": 1, "rank_in_cluster": 16}

>  <energy>  (7) 
-8.06

>  <cluster_rmsd>  (7) 
0.7

>  <cluster>  (7) 
1

$$$$

     RDKit          3D

 45 47  0  0  0  0  0  0  0  0999 V2000
  140.4550   70.7990  221.7960 O   0  0  0  0  0  0  0  0  0  0  0  0
  140.0330   71.9440  222.1770 C   0  0  0  0  0  0  0  0  0  0  0  0
  138.9660   71.9350  223.1470 N   0  0  0  0  0  0  0  0  0  0  0  0
  138.3640   70.7870  223.6830 C   0  0  0  0  0  0  0  0  0  0  0  0
  138.8600   69.9600  224.7240 C   0  0  0  0  0  0  0  0  0  0  0  0
  138.0120   68.9010  224.9240 O   0  0  0  0  0  0  0  0  0  0  0  0
  139.9100   69.8450  225.6070 N   0  0  0  0  0  0  0  0  0  0  0  0
  140.9970   70.8980  225.3580 C   0  0  0  0  0  0  0  0  0  0  0  0
  141.0690   71.7820  226.5580 C   0  0  0  0  0  0  0  0  0  0  0  0
  140.9540   71.0960  227.8750 C   0  0  0  0  0  0  0  0  0  0  0  0
  139.9060   70.0160  227.9460 C   0  0  0  0  0  0  0  0  0  0  0  0
  140.2200   69.0690  226.7490 C   0  0  1  0  0  0  0  0  0  0  0  0
  139.6210   67.7620  227.0160 C   0  0  0  0  0  0  0  0  0  0  0  0
  139.5690   67.0870  225.7480 O   0  0  0  0  0  0  0  0  0  0  0  0
  140.5960   73.1870  221.6630 C   0  0  0  0  0  0  0  0  0  0  0  0
  141.4810   73.0930  220.6090 C   0  0  0  0  0  0  0  0  0  0  0  0
  142.0100   74.2930  220.1300 C   0  0  0  0  0  0  0  0  0  0  0  0
  141.6610   75.5120  220.6900 C   0  0  0  0  0  0  0  0  0  0  0  0
  142.1770   76.7100  220.2260 C   0  0  0  0  0  0  0  0  0  0  0  0
  143.3070   76.6750  218.8880 Cl  0  0  0  0  0  0  0  0  0  0  0  0
  141.8160   77.9250  220.7990 C   0  0  0  0  0  0  0  0  0  0  0  0
  140.9180   77.9090  221.8580 C   0  0  0  0  0  0  0  0  0  0  0  0
  140.3800   76.7250  222.3480 C   0  0  0  0  0  0  0  0  0  0  0  0
  140.7680   75.5440  221.7470 C   0  0  0  0  0  0  0  0  0  0  0  0
  140.2590   74.3720  222.2060 N   0  0  0  0  0  0  0  0  0  0  0  0
  138.6650   72.9220  223.4290 H   0  0  0  0  0  0  0  0  0  0  0  0
  137.3790   71.1251  224.0373 H   0  0  0  0  0  0  0  0  0  0  0  0
  138.5111   70.1029  222.8343 H   0  0  0  0  0  0  0  0  0  0  0  0
  141.9667   70.4030  225.2007 H   0  0  0  0  0  0  0  0  0  0  0  0
  140.7566   71.4897  224.4624 H   0  0  0  0  0  0  0  0  0  0  0  0
  142.0357   72.3064  226.5336 H   0  0  0  0  0  0  0  0  0  0  0  0
  140.1970   72.4491  226.4910 H   0  0  0  0  0  0  0  0  0  0  0  0
  141.9280   70.6410  228.1080 H   0  0  0  0  0  0  0  0  0  0  0  0
  140.6463   71.8680  228.5956 H   0  0  0  0  0  0  0  0  0  0  0  0
  139.9766   69.4710  228.8989 H   0  0  0  0  0  0  0  0  0  0  0  0
  138.8866   70.4257  227.8920 H   0  0  0  0  0  0  0  0  0  0  0  0
  141.2549   68.7420  226.5698 H   0  0  0  0  0  0  0  0  0  0  0  0
  140.2405   67.1949  227.7264 H   0  0  0  0  0  0  0  0  0  0  0  0
  138.6208   67.8595  227.4634 H   0  0  0  0  0  0  0  0  0  0  0  0
  139.7710   67.6910  225.0120 H   0  0  0  0  0  0  0  0  0  0  0  0
  141.7556   72.1230  220.1688 H   0  0  0  0  0  0  0  0  0  0  0  0
  142.7194   74.2706  219.2896 H   0  0  0  0  0  0  0  0  0  0  0  0
  142.2304   78.8723  220.4236 H   0  0  0  0  0  0  0  0  0  0  0  0
  140.6238   78.8616  222.3228 H   0  0  0  0  0  0  0  0  0  0  0  0
  139.6686   76.7286  223.1870 H   0  0  0  0  0  0  0  0  0  0  0  0
  1  2  2  0
  2  3  1  0
  3  4  1  0
  4  5  1  0
  5  6  2  0
  5  7  1  0
  7  8  1  0
  8  9  1  0
  9 10  1  0
 10 11  1  0
 11 12  1  0
 12 13  1  0
 13 14  1  0
  2 15  1  0
 15 16  2  0
 16 17  1  0
 17 18  2  0
 18 19  1  0
 19 20  1  0
 19 21  2  0
 21 22  1  0
 22 23  2  0
 23 24  1  0
 24 25  2  0
 12  7  1  0
 25 15  1  0
 24 18  1  0
  3 26  1  0
  4 27  1  0
  4 28  1  0
  8 29  1  0
  8 30  1  0
  9 31  1  0
  9 32  1  0
 10 33  1  0
 10 34  1  0
 11 35  1  0
 11 36  1  0
 12 37  1  6
 13 38  1  0
 13 39  1  0
 14 40  1  0
 16 41  1  0
 17 42  1  0
 21 43  1  0
 22 44  1  0
 23 45  1  0
M  END
>  <smiles>  (8) 
O=C(NCC(=O)N1CCCC[C@H]1CO)c1ccc2c(Cl)cccc2n1

>  <score_type>  (8) 
oracle

>  <origin>  (8) 
autodockgpu

>  <m_score__min__energy>  (8) 
-8.4499999999999993

>  <m_primary>  (8) 
energy

>  <rmsd>  (8) 
8.245656553287533

>  <m_score__min__rmsd>  (8) 
8.245656553287533

>  <meeko>  (8) 
{"free_energy": -8.07, "intermolecular_energy": -9.86, "internal_energy": -2.0, "cluster_size": 36, "cluster_id": 1, "rank_in_cluster": 5}

>  <energy>  (8) 
-8.05

>  <cluster_rmsd>  (8) 
0.71

>  <cluster>  (8) 
1

$$$$

     RDKit          3D

 45 47  0  0  0  0  0  0  0  0999 V2000
  140.6280   70.9030  221.9250 O   0  0  0  0  0  0  0  0  0  0  0  0
  140.1260   72.0430  222.2090 C   0  0  0  0  0  0  0  0  0  0  0  0
  138.9980   72.0320  223.1070 N   0  0  0  0  0  0  0  0  0  0  0  0
  138.4190   70.8840  223.6710 C   0  0  0  0  0  0  0  0  0  0  0  0
  138.8610   70.1680  224.8130 C   0  0  0  0  0  0  0  0  0  0  0  0
  137.8660   69.3360  225.2580 O   0  0  0  0  0  0  0  0  0  0  0  0
  139.9550   70.0100  225.6350 N   0  0  0  0  0  0  0  0  0  0  0  0
  140.9730   71.1460  225.4710 C   0  0  0  0  0  0  0  0  0  0  0  0
  141.0540   71.8840  226.7650 C   0  0  0  0  0  0  0  0  0  0  0  0
  141.0340   71.0430  227.9940 C   0  0  0  0  0  0  0  0  0  0  0  0
  140.0480   69.9040  227.9750 C   0  0  0  0  0  0  0  0  0  0  0  0
  140.3570   69.1240  226.6620 C   0  0  1  0  0  0  0  0  0  0  0  0
  139.8390   67.7620  226.7930 C   0  0  0  0  0  0  0  0  0  0  0  0
  139.5630   67.3160  225.4550 O   0  0  0  0  0  0  0  0  0  0  0  0
  140.6600   73.2830  221.6600 C   0  0  0  0  0  0  0  0  0  0  0  0
  141.5070   73.1830  220.5760 C   0  0  0  0  0  0  0  0  0  0  0  0
  142.0090   74.3800  220.0630 C   0  0  0  0  0  0  0  0  0  0  0  0
  141.6700   75.6040  220.6200 C   0  0  0  0  0  0  0  0  0  0  0  0
  142.1600   76.8000  220.1230 C   0  0  0  0  0  0  0  0  0  0  0  0
  143.2410   76.7560  218.7450 Cl  0  0  0  0  0  0  0  0  0  0  0  0
  141.8090   78.0190  220.6930 C   0  0  0  0  0  0  0  0  0  0  0  0
  140.9500   78.0100  221.7830 C   0  0  0  0  0  0  0  0  0  0  0  0
  140.4390   76.8280  222.3070 C   0  0  0  0  0  0  0  0  0  0  0  0
  140.8150   75.6430  221.7080 C   0  0  0  0  0  0  0  0  0  0  0  0
  140.3320   74.4730  222.1990 N   0  0  0  0  0  0  0  0  0  0  0  0
  138.6300   73.0150  223.3110 H   0  0  0  0  0  0  0  0  0  0  0  0
  137.3849   71.1767  223.9053 H   0  0  0  0  0  0  0  0  0  0  0  0
  138.6914   70.1544  222.8942 H   0  0  0  0  0  0  0  0  0  0  0  0
  141.9589   70.7297  225.2165 H   0  0  0  0  0  0  0  0  0  0  0  0
  140.6610   71.8246  224.6634 H   0  0  0  0  0  0  0  0  0  0  0  0
  141.9905   72.4610  226.7663 H   0  0  0  0  0  0  0  0  0  0  0  0
  140.1463   72.5035  226.8125 H   0  0  0  0  0  0  0  0  0  0  0  0
  142.0399   70.6202  228.1336 H   0  0  0  0  0  0  0  0  0  0  0  0
  140.7190   71.7063  228.8131 H   0  0  0  0  0  0  0  0  0  0  0  0
  140.1896   69.2556  228.8522 H   0  0  0  0  0  0  0  0  0  0  0  0
  139.0072   70.2583  228.0096 H   0  0  0  0  0  0  0  0  0  0  0  0
  141.3984   68.8801  226.4052 H   0  0  0  0  0  0  0  0  0  0  0  0
  140.5889   67.1112  227.2664 H   0  0  0  0  0  0  0  0  0  0  0  0
  138.9380   67.7311  227.4233 H   0  0  0  0  0  0  0  0  0  0  0  0
  139.5620   68.0580  224.8230 H   0  0  0  0  0  0  0  0  0  0  0  0
  141.7732   72.2096  220.1382 H   0  0  0  0  0  0  0  0  0  0  0  0
  142.6882   74.3520  219.1982 H   0  0  0  0  0  0  0  0  0  0  0  0
  142.2016   78.9646  220.2908 H   0  0  0  0  0  0  0  0  0  0  0  0
  140.6651   78.9663  222.2460 H   0  0  0  0  0  0  0  0  0  0  0  0
  139.7576   76.8370  223.1705 H   0  0  0  0  0  0  0  0  0  0  0  0
  1  2  2  0
  2  3  1  0
  3  4  1  0
  4  5  1  0
  5  6  2  0
  5  7  1  0
  7  8  1  0
  8  9  1  0
  9 10  1  0
 10 11  1  0
 11 12  1  0
 12 13  1  0
 13 14  1  0
  2 15  1  0
 15 16  2  0
 16 17  1  0
 17 18  2  0
 18 19  1  0
 19 20  1  0
 19 21  2  0
 21 22  1  0
 22 23  2  0
 23 24  1  0
 24 25  2  0
 12  7  1  0
 25 15  1  0
 24 18  1  0
  3 26  1  0
  4 27  1  0
  4 28  1  0
  8 29  1  0
  8 30  1  0
  9 31  1  0
  9 32  1  0
 10 33  1  0
 10 34  1  0
 11 35  1  0
 11 36  1  0
 12 37  1  6
 13 38  1  0
 13 39  1  0
 14 40  1  0
 16 41  1  0
 17 42  1  0
 21 43  1  0
 22 44  1  0
 23 45  1  0
M  END
>  <smiles>  (9) 
O=C(NCC(=O)N1CCCC[C@H]1CO)c1ccc2c(Cl)cccc2n1

>  <score_type>  (9) 
oracle

>  <origin>  (9) 
autodockgpu

>  <m_score__min__energy>  (9) 
-8.4499999999999993

>  <m_primary>  (9) 
energy

>  <rmsd>  (9) 
8.259384409662776

>  <m_score__min__rmsd>  (9) 
8.259384409662776

>  <meeko>  (9) 
{"free_energy": -8.13, "intermolecular_energy": -9.92, "internal_energy": -1.98, "cluster_size": 36, "cluster_id": 1, "rank_in_cluster": 2}

>  <energy>  (9) 
-8.05

>  <cluster_rmsd>  (9) 
0.71

>  <cluster>  (9) 
1

$$$$

     RDKit          3D

 45 47  0  0  0  0  0  0  0  0999 V2000
  140.6460   73.5670  222.3500 O   0  0  0  0  0  0  0  0  0  0  0  0
  140.4700   72.3050  222.2480 C   0  0  0  0  0  0  0  0  0  0  0  0
  140.4220   71.7790  220.9060 N   0  0  0  0  0  0  0  0  0  0  0  0
  140.5420   72.5360  219.7310 C   0  0  0  0  0  0  0  0  0  0  0  0
  140.5110   73.9490  219.6100 C   0  0  0  0  0  0  0  0  0  0  0  0
  139.7620   74.3090  218.5180 O   0  0  0  0  0  0  0  0  0  0  0  0
  140.9690   75.0980  220.2160 N   0  0  0  0  0  0  0  0  0  0  0  0
  142.4890   75.2560  220.0880 C   0  0  0  0  0  0  0  0  0  0  0  0
  142.7610   76.4770  219.2750 C   0  0  0  0  0  0  0  0  0  0  0  0
  141.8890   77.6510  219.5590 C   0  0  0  0  0  0  0  0  0  0  0  0
  140.4300   77.3330  219.7560 C   0  0  0  0  0  0  0  0  0  0  0  0
  140.4020   76.2270  220.8540 C   0  0  1  0  0  0  0  0  0  0  0  0
  139.0780   76.2160  221.4740 C   0  0  0  0  0  0  0  0  0  0  0  0
  139.2590   75.6370  222.7770 O   0  0  0  0  0  0  0  0  0  0  0  0
  140.3250   71.4460  223.4170 C   0  0  0  0  0  0  0  0  0  0  0  0
  139.7820   70.1930  223.2200 C   0  0  0  0  0  0  0  0  0  0  0  0
  139.6510   69.3860  224.3510 C   0  0  0  0  0  0  0  0  0  0  0  0
  140.0490   69.8250  225.6040 C   0  0  0  0  0  0  0  0  0  0  0  0
  139.9250   69.0360  226.7350 C   0  0  0  0  0  0  0  0  0  0  0  0
  139.2440   67.4300  226.5670 Cl  0  0  0  0  0  0  0  0  0  0  0  0
  140.3290   69.4920  227.9850 C   0  0  0  0  0  0  0  0  0  0  0  0
  140.8620   70.7700  228.0740 C   0  0  0  0  0  0  0  0  0  0  0  0
  141.0010   71.5900  226.9610 C   0  0  0  0  0  0  0  0  0  0  0  0
  140.5880   71.0930  225.7410 C   0  0  0  0  0  0  0  0  0  0  0  0
  140.7100   71.8710  224.6350 N   0  0  0  0  0  0  0  0  0  0  0  0
  140.2800   70.7190  220.8890 H   0  0  0  0  0  0  0  0  0  0  0  0
  141.5099   72.2379  219.3017 H   0  0  0  0  0  0  0  0  0  0  0  0
  139.5687   72.3023  219.2749 H   0  0  0  0  0  0  0  0  0  0  0  0
  142.9379   75.3651  221.0863 H   0  0  0  0  0  0  0  0  0  0  0  0
  142.9248   74.3701  219.6029 H   0  0  0  0  0  0  0  0  0  0  0  0
  143.8031   76.7785  219.4567 H   0  0  0  0  0  0  0  0  0  0  0  0
  142.5529   76.1949  218.2324 H   0  0  0  0  0  0  0  0  0  0  0  0
  142.2584   78.1357  220.4748 H   0  0  0  0  0  0  0  0  0  0  0  0
  141.9438   78.2946  218.6686 H   0  0  0  0  0  0  0  0  0  0  0  0
  139.8819   78.2255  220.0923 H   0  0  0  0  0  0  0  0  0  0  0  0
  139.9502   77.0012  218.8234 H   0  0  0  0  0  0  0  0  0  0  0  0
  141.0082   76.3461  221.7641 H   0  0  0  0  0  0  0  0  0  0  0  0
  138.6877   77.2407  221.5613 H   0  0  0  0  0  0  0  0  0  0  0  0
  138.3554   75.6434  220.8740 H   0  0  0  0  0  0  0  0  0  0  0  0
  138.8940   74.7340  222.8220 H   0  0  0  0  0  0  0  0  0  0  0  0
  139.4687   69.8482  222.2235 H   0  0  0  0  0  0  0  0  0  0  0  0
  139.2221   68.3785  224.2457 H   0  0  0  0  0  0  0  0  0  0  0  0
  140.2289   68.8575  228.8780 H   0  0  0  0  0  0  0  0  0  0  0  0
  141.1845   71.1456  229.0563 H   0  0  0  0  0  0  0  0  0  0  0  0
  141.4257   72.6009  227.0489 H   0  0  0  0  0  0  0  0  0  0  0  0
  1  2  2  0
  2  3  1  0
  3  4  1  0
  4  5  1  0
  5  6  2  0
  5  7  1  0
  7  8  1  0
  8  9  1  0
  9 10  1  0
 10 11  1  0
 11 12  1  0
 12 13  1  0
 13 14  1  0
  2 15  1  0
 15 16  2  0
 16 17  1  0
 17 18  2  0
 18 19  1  0
 19 20  1  0
 19 21  2  0
 21 22  1  0
 22 23  2  0
 23 24  1  0
 24 25  2  0
 12  7  1  0
 25 15  1  0
 24 18  1  0
  3 26  1  0
  4 27  1  0
  4 28  1  0
  8 29  1  0
  8 30  1  0
  9 31  1  0
  9 32  1  0
 10 33  1  0
 10 34  1  0
 11 35  1  0
 11 36  1  0
 12 37  1  1
 13 38  1  0
 13 39  1  0
 14 40  1  0
 16 41  1  0
 17 42  1  0
 21 43  1  0
 22 44  1  0
 23 45  1  0
M  END
>  <smiles>  (10) 
O=C(NCC(=O)N1CCCC[C@H]1CO)c1ccc2c(Cl)cccc2n1

>  <score_type>  (10) 
oracle

>  <origin>  (10) 
autodockgpu

>  <m_score__min__energy>  (10) 
-8.4499999999999993

>  <m_primary>  (10) 
energy

>  <rmsd>  (10) 
2.639033447289886

>  <m_score__min__rmsd>  (10) 
2.639033447289886

>  <meeko>  (10) 
{"free_energy": -6.88, "intermolecular_energy": -8.67, "internal_energy": -1.6, "cluster_size": 5, "cluster_id": 2, "rank_in_cluster": 2}

>  <energy>  (10) 
-8.05

>  <cluster_rmsd>  (10) 
0.61

>  <cluster>  (10) 
1

$$$$

     RDKit          3D

 45 47  0  0  0  0  0  0  0  0999 V2000
  141.2860   71.5520  221.1120 O   0  0  0  0  0  0  0  0  0  0  0  0
  140.7390   72.5600  221.6780 C   0  0  0  0  0  0  0  0  0  0  0  0
  139.8220   72.2630  222.7510 N   0  0  0  0  0  0  0  0  0  0  0  0
  139.4880   70.9760  223.2020 C   0  0  0  0  0  0  0  0  0  0  0  0
  139.4950   70.5040  224.5390 C   0  0  0  0  0  0  0  0  0  0  0  0
  138.2200   70.1830  224.9290 O   0  0  0  0  0  0  0  0  0  0  0  0
  140.3450   70.2450  225.5910 N   0  0  0  0  0  0  0  0  0  0  0  0
  141.1470   71.4840  226.0080 C   0  0  0  0  0  0  0  0  0  0  0  0
  140.7510   71.8440  227.4010 C   0  0  0  0  0  0  0  0  0  0  0  0
  140.5640   70.7010  228.3370 C   0  0  0  0  0  0  0  0  0  0  0  0
  139.8410   69.5110  227.7600 C   0  0  0  0  0  0  0  0  0  0  0  0
  140.6190   69.1590  226.4560 C   0  0  1  0  0  0  0  0  0  0  0  0
  140.3420   67.7660  226.1070 C   0  0  0  0  0  0  0  0  0  0  0  0
  138.9550   67.7240  225.7310 O   0  0  0  0  0  0  0  0  0  0  0  0
  141.0240   73.9280  221.2650 C   0  0  0  0  0  0  0  0  0  0  0  0
  141.6200   74.1080  220.0340 C   0  0  0  0  0  0  0  0  0  0  0  0
  141.8850   75.4250  219.6560 C   0  0  0  0  0  0  0  0  0  0  0  0
  141.5630   76.4930  220.4790 C   0  0  0  0  0  0  0  0  0  0  0  0
  141.8200   77.8050  220.1170 C   0  0  0  0  0  0  0  0  0  0  0  0
  142.5750   78.1160  218.5670 Cl  0  0  0  0  0  0  0  0  0  0  0  0
  141.4900   78.8650  220.9550 C   0  0  0  0  0  0  0  0  0  0  0  0
  140.8930   78.5750  222.1740 C   0  0  0  0  0  0  0  0  0  0  0  0
  140.6210   77.2710  222.5690 C   0  0  0  0  0  0  0  0  0  0  0  0
  140.9650   76.2510  221.7040 C   0  0  0  0  0  0  0  0  0  0  0  0
  140.7120   74.9670  222.0630 N   0  0  0  0  0  0  0  0  0  0  0  0
  139.4060   73.1460  223.1860 H   0  0  0  0  0  0  0  0  0  0  0  0
  138.4582   70.8132  222.8513 H   0  0  0  0  0  0  0  0  0  0  0  0
  140.3615   70.4271  222.8204 H   0  0  0  0  0  0  0  0  0  0  0  0
  142.2236   71.2610  225.9720 H   0  0  0  0  0  0  0  0  0  0  0  0
  140.9400   72.3204  225.3242 H   0  0  0  0  0  0  0  0  0  0  0  0
  141.5334   72.4961  227.8165 H   0  0  0  0  0  0  0  0  0  0  0  0
  139.7657   72.3257  227.3167 H   0  0  0  0  0  0  0  0  0  0  0  0
  141.5580   70.3670  228.6693 H   0  0  0  0  0  0  0  0  0  0  0  0
  139.9307   71.0762  229.1544 H   0  0  0  0  0  0  0  0  0  0  0  0
  139.8641   68.6660  228.4639 H   0  0  0  0  0  0  0  0  0  0  0  0
  138.7808   69.7278  227.5626 H   0  0  0  0  0  0  0  0  0  0  0  0
  141.7177   69.1082  226.4725 H   0  0  0  0  0  0  0  0  0  0  0  0
  140.9764   67.4484  225.2663 H   0  0  0  0  0  0  0  0  0  0  0  0
  140.5540   67.0886  226.9473 H   0  0  0  0  0  0  0  0  0  0  0  0
  138.5900   68.6190  225.6080 H   0  0  0  0  0  0  0  0  0  0  0  0
  141.8732   73.2575  219.3840 H   0  0  0  0  0  0  0  0  0  0  0  0
  142.3600   75.6200  218.6832 H   0  0  0  0  0  0  0  0  0  0  0  0
  141.6965   79.9043  220.6598 H   0  0  0  0  0  0  0  0  0  0  0  0
  140.6271   79.4028  222.8479 H   0  0  0  0  0  0  0  0  0  0  0  0
  140.1473   77.0582  223.5387 H   0  0  0  0  0  0  0  0  0  0  0  0
  1  2  2  0
  2  3  1  0
  3  4  1  0
  4  5  1  0
  5  6  2  0
  5  7  1  0
  7  8  1  0
  8  9  1  0
  9 10  1  0
 10 11  1  0
 11 12  1  0
 12 13  1  0
 13 14  1  0
  2 15  1  0
 15 16  2  0
 16 17  1  0
 17 18  2  0
 18 19  1  0
 19 20  1  0
 19 21  2  0
 21 22  1  0
 22 23  2  0
 23 24  1  0
 24 25  2  0
 12  7  1  0
 25 15  1  0
 24 18  1  0
  3 26  1  0
  4 27  1  0
  4 28  1  0
  8 29  1  0
  8 30  1  0
  9 31  1  0
  9 32  1  0
 10 33  1  0
 10 34  1  0
 11 35  1  0
 11 36  1  0
 12 37  1  1
 13 38  1  0
 13 39  1  0
 14 40  1  0
 16 41  1  0
 17 42  1  0
 21 43  1  0
 22 44  1  0
 23 45  1  0
M  END
>  <smiles>  (11) 
O=C(NCC(=O)N1CCCC[C@H]1CO)c1ccc2c(Cl)cccc2n1

>  <score_type>  (11) 
oracle

>  <origin>  (11) 
autodockgpu

>  <m_score__min__energy>  (11) 
-8.4499999999999993

>  <m_primary>  (11) 
energy

>  <rmsd>  (11) 
8.459026093732193

>  <m_score__min__rmsd>  (11) 
8.459026093732193

>  <meeko>  (11) 
{"free_energy": -7.82, "intermolecular_energy": -9.61, "internal_energy": -1.95, "cluster_size": 36, "cluster_id": 1, "rank_in_cluster": 25}

>  <energy>  (11) 
-8.04

>  <cluster_rmsd>  (11) 
0.74

>  <cluster>  (11) 
1

$$$$

     RDKit          3D

 45 47  0  0  0  0  0  0  0  0999 V2000
  140.6740   71.0150  221.5260 O   0  0  0  0  0  0  0  0  0  0  0  0
  140.2070   72.1200  221.9680 C   0  0  0  0  0  0  0  0  0  0  0  0
  139.1860   72.0150  222.9800 N   0  0  0  0  0  0  0  0  0  0  0  0
  138.6720   70.8150  223.4960 C   0  0  0  0  0  0  0  0  0  0  0  0
  138.9810   70.2110  224.7430 C   0  0  0  0  0  0  0  0  0  0  0  0
  137.8670   69.5940  225.2520 O   0  0  0  0  0  0  0  0  0  0  0  0
  140.0210   70.0210  225.6250 N   0  0  0  0  0  0  0  0  0  0  0  0
  141.0600   71.1470  225.5500 C   0  0  0  0  0  0  0  0  0  0  0  0
  141.0710   71.8540  226.8630 C   0  0  0  0  0  0  0  0  0  0  0  0
  140.9680   70.9850  228.0690 C   0  0  0  0  0  0  0  0  0  0  0  0
  139.9720   69.8590  227.9630 C   0  0  0  0  0  0  0  0  0  0  0  0
  140.3510   69.1060  226.6520 C   0  0  1  0  0  0  0  0  0  0  0  0
  139.8120   67.7480  226.7200 C   0  0  0  0  0  0  0  0  0  0  0  0
  139.5350   67.3670  225.3620 O   0  0  0  0  0  0  0  0  0  0  0  0
  140.6770   73.4100  221.4800 C   0  0  0  0  0  0  0  0  0  0  0  0
  141.4510   73.4120  220.3370 C   0  0  0  0  0  0  0  0  0  0  0  0
  141.8920   74.6570  219.8840 C   0  0  0  0  0  0  0  0  0  0  0  0
  141.5660   75.8270  220.5530 C   0  0  0  0  0  0  0  0  0  0  0  0
  141.9960   77.0680  220.1160 C   0  0  0  0  0  0  0  0  0  0  0  0
  142.9830   77.1540  218.6700 Cl  0  0  0  0  0  0  0  0  0  0  0  0
  141.6600   78.2330  220.7980 C   0  0  0  0  0  0  0  0  0  0  0  0
  140.8780   78.1210  221.9390 C   0  0  0  0  0  0  0  0  0  0  0  0
  140.4280   76.8910  222.4060 C   0  0  0  0  0  0  0  0  0  0  0  0
  140.7860   75.7630  221.6950 C   0  0  0  0  0  0  0  0  0  0  0  0
  140.3620   74.5480  222.1270 N   0  0  0  0  0  0  0  0  0  0  0  0
  138.8430   72.9710  223.3130 H   0  0  0  0  0  0  0  0  0  0  0  0
  137.5820   70.9614  223.5165 H   0  0  0  0  0  0  0  0  0  0  0  0
  139.1849   70.1064  222.8290 H   0  0  0  0  0  0  0  0  0  0  0  0
  142.0546   70.7238  225.3458 H   0  0  0  0  0  0  0  0  0  0  0  0
  140.8053   71.8479  224.7414 H   0  0  0  0  0  0  0  0  0  0  0  0
  142.0119   72.4193  226.9339 H   0  0  0  0  0  0  0  0  0  0  0  0
  140.1688   72.4833  226.8707 H   0  0  0  0  0  0  0  0  0  0  0  0
  141.9589   70.5466  228.2586 H   0  0  0  0  0  0  0  0  0  0  0  0
  140.6121   71.6328  228.8836 H   0  0  0  0  0  0  0  0  0  0  0  0
  140.0531   69.1883  228.8311 H   0  0  0  0  0  0  0  0  0  0  0  0
  138.9351   70.2256  227.9435 H   0  0  0  0  0  0  0  0  0  0  0  0
  141.4029   68.8551  226.4508 H   0  0  0  0  0  0  0  0  0  0  0  0
  140.5499   67.0651  227.1663 H   0  0  0  0  0  0  0  0  0  0  0  0
  138.9081   67.7025  227.3452 H   0  0  0  0  0  0  0  0  0  0  0  0
  138.7850   67.8700  224.9950 H   0  0  0  0  0  0  0  0  0  0  0  0
  141.7071   72.4809  219.8103 H   0  0  0  0  0  0  0  0  0  0  0  0
  142.5115   74.7108  218.9767 H   0  0  0  0  0  0  0  0  0  0  0  0
  142.0045   79.2154  220.4428 H   0  0  0  0  0  0  0  0  0  0  0  0
  140.6059   79.0329  222.4907 H   0  0  0  0  0  0  0  0  0  0  0  0
  139.8076   76.8191  223.3115 H   0  0  0  0  0  0  0  0  0  0  0  0
  1  2  2  0
  2  3  1  0
  3  4  1  0
  4  5  1  0
  5  6  2  0
  5  7  1  0
  7  8  1  0
  8  9  1  0
  9 10  1  0
 10 11  1  0
 11 12  1  0
 12 13  1  0
 13 14  1  0
  2 15  1  0
 15 16  2  0
 16 17  1  0
 17 18  2  0
 18 19  1  0
 19 20  1  0
 19 21  2  0
 21 22  1  0
 22 23  2  0
 23 24  1  0
 24 25  2  0
 12  7  1  0
 25 15  1  0
 24 18  1  0
  3 26  1  0
  4 27  1  0
  4 28  1  0
  8 29  1  0
  8 30  1  0
  9 31  1  0
  9 32  1  0
 10 33  1  0
 10 34  1  0
 11 35  1  0
 11 36  1  0
 12 37  1  1
 13 38  1  0
 13 39  1  0
 14 40  1  0
 16 41  1  0
 17 42  1  0
 21 43  1  0
 22 44  1  0
 23 45  1  0
M  END
>  <smiles>  (12) 
O=C(NCC(=O)N1CCCC[C@H]1CO)c1ccc2c(Cl)cccc2n1

>  <score_type>  (12) 
oracle

>  <origin>  (12) 
autodockgpu

>  <m_score__min__energy>  (12) 
-8.4499999999999993

>  <m_primary>  (12) 
energy

>  <rmsd>  (12) 
8.313727539889321

>  <m_score__min__rmsd>  (12) 
8.313727539889321

>  <meeko>  (12) 
{"free_energy": -8.03, "intermolecular_energy": -9.82, "internal_energy": -2.02, "cluster_size": 36, "cluster_id": 1, "rank_in_cluster": 14}

>  <energy>  (12) 
-8.04

>  <cluster_rmsd>  (12) 
0.73

>  <cluster>  (12) 
1

$$$$

     RDKit          3D

 45 47  0  0  0  0  0  0  0  0999 V2000
  141.3100   71.5380  221.4960 O   0  0  0  0  0  0  0  0  0  0  0  0
  140.8030   72.6150  221.9620 C   0  0  0  0  0  0  0  0  0  0  0  0
  139.9430   72.4640  223.1100 N   0  0  0  0  0  0  0  0  0  0  0  0
  139.6230   71.2470  223.7320 C   0  0  0  0  0  0  0  0  0  0  0  0
  140.1430   70.7390  224.9500 C   0  0  0  0  0  0  0  0  0  0  0  0
  141.5130   70.8030  224.9360 O   0  0  0  0  0  0  0  0  0  0  0  0
  139.7490   70.2050  226.1560 N   0  0  0  0  0  0  0  0  0  0  0  0
  138.9380   68.9150  225.9830 C   0  0  0  0  0  0  0  0  0  0  0  0
  139.7110   67.7970  226.5990 C   0  0  0  0  0  0  0  0  0  0  0  0
  140.3880   68.1100  227.8890 C   0  0  0  0  0  0  0  0  0  0  0  0
  141.0630   69.4560  227.9480 C   0  0  0  0  0  0  0  0  0  0  0  0
  139.9640   70.4790  227.5280 C   0  0  1  0  0  0  0  0  0  0  0  0
  140.3370   71.7990  228.0330 C   0  0  0  0  0  0  0  0  0  0  0  0
  141.1150   72.4130  226.9920 O   0  0  0  0  0  0  0  0  0  0  0  0
  141.0760   73.9190  221.3710 C   0  0  0  0  0  0  0  0  0  0  0  0
  141.7050   73.9390  220.1430 C   0  0  0  0  0  0  0  0  0  0  0  0
  141.9580   75.1960  219.5920 C   0  0  0  0  0  0  0  0  0  0  0  0
  141.5940   76.3610  220.2500 C   0  0  0  0  0  0  0  0  0  0  0  0
  141.8390   77.6140  219.7160 C   0  0  0  0  0  0  0  0  0  0  0  0
  142.6330   77.7240  218.1580 Cl  0  0  0  0  0  0  0  0  0  0  0  0
  141.4670   78.7740  220.3900 C   0  0  0  0  0  0  0  0  0  0  0  0
  140.8410   78.6430  221.6210 C   0  0  0  0  0  0  0  0  0  0  0  0
  140.5800   77.4010  222.1860 C   0  0  0  0  0  0  0  0  0  0  0  0
  140.9660   76.2790  221.4810 C   0  0  0  0  0  0  0  0  0  0  0  0
  140.7240   75.0510  222.0080 N   0  0  0  0  0  0  0  0  0  0  0  0
  139.5580   73.4000  223.4560 H   0  0  0  0  0  0  0  0  0  0  0  0
  138.5346   71.2873  223.8858 H   0  0  0  0  0  0  0  0  0  0  0  0
  140.1207   70.5596  223.0321 H   0  0  0  0  0  0  0  0  0  0  0  0
  137.9644   69.0163  226.4847 H   0  0  0  0  0  0  0  0  0  0  0  0
  138.7622   68.7149  224.9157 H   0  0  0  0  0  0  0  0  0  0  0  0
  139.0155   66.9635  226.7765 H   0  0  0  0  0  0  0  0  0  0  0  0
  140.5169   67.5637  225.8877 H   0  0  0  0  0  0  0  0  0  0  0  0
  139.6327   68.0725  228.6878 H   0  0  0  0  0  0  0  0  0  0  0  0
  141.1864   67.3622  228.0046 H   0  0  0  0  0  0  0  0  0  0  0  0
  141.4171   69.6663  228.9680 H   0  0  0  0  0  0  0  0  0  0  0  0
  141.9444   69.5047  227.2917 H   0  0  0  0  0  0  0  0  0  0  0  0
  138.9584   70.4126  227.9689 H   0  0  0  0  0  0  0  0  0  0  0  0
  139.4377   72.3970  228.2420 H   0  0  0  0  0  0  0  0  0  0  0  0
  140.9046   71.7267  228.9725 H   0  0  0  0  0  0  0  0  0  0  0  0
  141.8920   71.8730  226.7590 H   0  0  0  0  0  0  0  0  0  0  0  0
  141.9922   73.0120  219.6251 H   0  0  0  0  0  0  0  0  0  0  0  0
  142.4572   75.2641  218.6141 H   0  0  0  0  0  0  0  0  0  0  0  0
  141.6639   79.7665  219.9585 H   0  0  0  0  0  0  0  0  0  0  0  0
  140.5421   79.5503  222.1664 H   0  0  0  0  0  0  0  0  0  0  0  0
  140.0821   77.3146  223.1631 H   0  0  0  0  0  0  0  0  0  0  0  0
  1  2  2  0
  2  3  1  0
  3  4  1  0
  4  5  1  0
  5  6  2  0
  5  7  1  0
  7  8  1  0
  8  9  1  0
  9 10  1  0
 10 11  1  0
 11 12  1  0
 12 13  1  0
 13 14  1  0
  2 15  1  0
 15 16  2  0
 16 17  1  0
 17 18  2  0
 18 19  1  0
 19 20  1  0
 19 21  2  0
 21 22  1  0
 22 23  2  0
 23 24  1  0
 24 25  2  0
 12  7  1  0
 25 15  1  0
 24 18  1  0
  3 26  1  0
  4 27  1  0
  4 28  1  0
  8 29  1  0
  8 30  1  0
  9 31  1  0
  9 32  1  0
 10 33  1  0
 10 34  1  0
 11 35  1  0
 11 36  1  0
 12 37  1  1
 13 38  1  0
 13 39  1  0
 14 40  1  0
 16 41  1  0
 17 42  1  0
 21 43  1  0
 22 44  1  0
 23 45  1  0
M  END
>  <smiles>  (13) 
O=C(NCC(=O)N1CCCC[C@H]1CO)c1ccc2c(Cl)cccc2n1

>  <score_type>  (13) 
oracle

>  <origin>  (13) 
autodockgpu

>  <m_score__min__energy>  (13) 
-8.4499999999999993

>  <m_primary>  (13) 
energy

>  <rmsd>  (13) 
8.663889336161661

>  <m_score__min__rmsd>  (13) 
8.663889336161661

>  <meeko>  (13) 
{"free_energy": -7.3, "intermolecular_energy": -9.09, "internal_energy": -1.84, "cluster_size": 36, "cluster_id": 1, "rank_in_cluster": 32}

>  <energy>  (13) 
-8.03

>  <cluster_rmsd>  (13) 
0.7

>  <cluster>  (13) 
1

$$$$

     RDKit          3D

 45 47  0  0  0  0  0  0  0  0999 V2000
  140.7530   71.0030  221.9330 O   0  0  0  0  0  0  0  0  0  0  0  0
  140.1820   72.1110  222.2170 C   0  0  0  0  0  0  0  0  0  0  0  0
  139.0630   72.0320  223.1230 N   0  0  0  0  0  0  0  0  0  0  0  0
  138.5620   70.8530  223.6960 C   0  0  0  0  0  0  0  0  0  0  0  0
  139.2830   69.8800  224.4360 C   0  0  0  0  0  0  0  0  0  0  0  0
  139.1170   68.6430  223.8690 O   0  0  0  0  0  0  0  0  0  0  0  0
  140.1050   69.7460  225.5320 N   0  0  0  0  0  0  0  0  0  0  0  0
  141.2770   70.7360  225.5060 C   0  0  0  0  0  0  0  0  0  0  0  0
  141.1310   71.6550  226.6720 C   0  0  0  0  0  0  0  0  0  0  0  0
  140.6920   71.0210  227.9460 C   0  0  0  0  0  0  0  0  0  0  0  0
  139.5970   69.9960  227.8080 C   0  0  0  0  0  0  0  0  0  0  0  0
  140.1140   68.9940  226.7310 C   0  0  1  0  0  0  0  0  0  0  0  0
  139.4010   67.7270  226.8890 C   0  0  0  0  0  0  0  0  0  0  0  0
  139.5780   67.0200  225.6510 O   0  0  0  0  0  0  0  0  0  0  0  0
  140.6320   73.3800  221.6580 C   0  0  0  0  0  0  0  0  0  0  0  0
  141.4280   73.3300  220.5320 C   0  0  0  0  0  0  0  0  0  0  0  0
  141.8500   74.5540  220.0120 C   0  0  0  0  0  0  0  0  0  0  0  0
  141.4840   75.7550  220.6000 C   0  0  0  0  0  0  0  0  0  0  0  0
  141.8950   76.9770  220.0960 C   0  0  0  0  0  0  0  0  0  0  0  0
  142.9080   76.9980  218.6660 Cl  0  0  0  0  0  0  0  0  0  0  0  0
  141.5190   78.1730  220.6980 C   0  0  0  0  0  0  0  0  0  0  0  0
  140.7160   78.1130  221.8290 C   0  0  0  0  0  0  0  0  0  0  0  0
  140.2850   76.9040  222.3620 C   0  0  0  0  0  0  0  0  0  0  0  0
  140.6830   75.7430  221.7300 C   0  0  0  0  0  0  0  0  0  0  0  0
  140.2790   74.5470  222.2280 N   0  0  0  0  0  0  0  0  0  0  0  0
  138.6350   72.9900  223.3250 H   0  0  0  0  0  0  0  0  0  0  0  0
  137.7631   71.1872  224.3743 H   0  0  0  0  0  0  0  0  0  0  0  0
  138.3871   70.2753  222.7764 H   0  0  0  0  0  0  0  0  0  0  0  0
  142.2288   70.1894  225.5785 H   0  0  0  0  0  0  0  0  0  0  0  0
  141.2730   71.3078  224.5663 H   0  0  0  0  0  0  0  0  0  0  0  0
  142.1064   72.1312  226.8506 H   0  0  0  0  0  0  0  0  0  0  0  0
  140.3322   72.3601  226.3984 H   0  0  0  0  0  0  0  0  0  0  0  0
  141.5646   70.5279  228.3991 H   0  0  0  0  0  0  0  0  0  0  0  0
  140.2759   71.8312  228.5627 H   0  0  0  0  0  0  0  0  0  0  0  0
  139.4270   69.4810  228.7650 H   0  0  0  0  0  0  0  0  0  0  0  0
  138.6383   70.4524  227.5207 H   0  0  0  0  0  0  0  0  0  0  0  0
  141.1432   68.6105  226.7913 H   0  0  0  0  0  0  0  0  0  0  0  0
  139.8260   67.1500  227.7235 H   0  0  0  0  0  0  0  0  0  0  0  0
  138.3364   67.8875  227.1144 H   0  0  0  0  0  0  0  0  0  0  0  0
  139.8500   67.6190  224.9310 H   0  0  0  0  0  0  0  0  0  0  0  0
  141.7150   72.3747  220.0684 H   0  0  0  0  0  0  0  0  0  0  0  0
  142.4873   74.5664  219.1155 H   0  0  0  0  0  0  0  0  0  0  0  0
  141.8487   79.1396  220.2894 H   0  0  0  0  0  0  0  0  0  0  0  0
  140.4119   79.0503  222.3178 H   0  0  0  0  0  0  0  0  0  0  0  0
  139.6477   76.8732  223.2580 H   0  0  0  0  0  0  0  0  0  0  0  0
  1  2  2  0
  2  3  1  0
  3  4  1  0
  4  5  1  0
  5  6  2  0
  5  7  1  0
  7  8  1  0
  8  9  1  0
  9 10  1  0
 10 11  1  0
 11 12  1  0
 12 13  1  0
 13 14  1  0
  2 15  1  0
 15 16  2  0
 16 17  1  0
 17 18  2  0
 18 19  1  0
 19 20  1  0
 19 21  2  0
 21 22  1  0
 22 23  2  0
 23 24  1  0
 24 25  2  0
 12  7  1  0
 25 15  1  0
 24 18  1  0
  3 26  1  0
  4 27  1  0
  4 28  1  0
  8 29  1  0
  8 30  1  0
  9 31  1  0
  9 32  1  0
 10 33  1  0
 10 34  1  0
 11 35  1  0
 11 36  1  0
 12 37  1  1
 13 38  1  0
 13 39  1  0
 14 40  1  0
 16 41  1  0
 17 42  1  0
 21 43  1  0
 22 44  1  0
 23 45  1  0
M  END
>  <smiles>  (14) 
O=C(NCC(=O)N1CCCC[C@H]1CO)c1ccc2c(Cl)cccc2n1

>  <score_type>  (14) 
oracle

>  <origin>  (14) 
autodockgpu

>  <m_score__min__energy>  (14) 
-8.4499999999999993

>  <m_primary>  (14) 
energy

>  <rmsd>  (14) 
8.353665339198542

>  <m_score__min__rmsd>  (14) 
8.353665339198542

>  <meeko>  (14) 
{"free_energy": -7.8, "intermolecular_energy": -9.59, "internal_energy": -2.02, "cluster_size": 36, "cluster_id": 1, "rank_in_cluster": 27}

>  <energy>  (14) 
-8.03

>  <cluster_rmsd>  (14) 
0.76

>  <cluster>  (14) 
1

$$$$

     RDKit          3D

 45 47  0  0  0  0  0  0  0  0999 V2000
  140.8550   71.1400  222.1960 O   0  0  0  0  0  0  0  0  0  0  0  0
  140.2020   72.2300  222.3360 C   0  0  0  0  0  0  0  0  0  0  0  0
  138.9850   72.1440  223.1040 N   0  0  0  0  0  0  0  0  0  0  0  0
  138.4720   70.9750  223.6870 C   0  0  0  0  0  0  0  0  0  0  0  0
  139.1910   69.9790  224.3970 C   0  0  0  0  0  0  0  0  0  0  0  0
  138.9840   68.7520  223.8200 O   0  0  0  0  0  0  0  0  0  0  0  0
  140.0400   69.8140  225.4690 N   0  0  0  0  0  0  0  0  0  0  0  0
  141.2100   70.8050  225.4420 C   0  0  0  0  0  0  0  0  0  0  0  0
  141.0920   71.6920  226.6370 C   0  0  0  0  0  0  0  0  0  0  0  0
  140.6830   71.0210  227.9030 C   0  0  0  0  0  0  0  0  0  0  0  0
  139.5850   69.9990  227.7620 C   0  0  0  0  0  0  0  0  0  0  0  0
  140.0770   69.0290  226.6460 C   0  0  1  0  0  0  0  0  0  0  0  0
  139.3680   67.7580  226.7840 C   0  0  0  0  0  0  0  0  0  0  0  0
  139.5840   67.0510  225.5520 O   0  0  0  0  0  0  0  0  0  0  0  0
  140.6590   73.4860  221.7540 C   0  0  0  0  0  0  0  0  0  0  0  0
  141.4750   73.4110  220.6440 C   0  0  0  0  0  0  0  0  0  0  0  0
  141.9020   74.6240  220.1010 C   0  0  0  0  0  0  0  0  0  0  0  0
  141.5240   75.8370  220.6540 C   0  0  0  0  0  0  0  0  0  0  0  0
  141.9400   77.0480  220.1260 C   0  0  0  0  0  0  0  0  0  0  0  0
  142.9770   77.0370  218.7150 Cl  0  0  0  0  0  0  0  0  0  0  0  0
  141.5500   78.2570  220.6930 C   0  0  0  0  0  0  0  0  0  0  0  0
  140.7280   78.2220  221.8110 C   0  0  0  0  0  0  0  0  0  0  0  0
  140.2910   77.0250  222.3660 C   0  0  0  0  0  0  0  0  0  0  0  0
  140.7030   75.8500  221.7690 C   0  0  0  0  0  0  0  0  0  0  0  0
  140.2930   74.6660  222.2900 N   0  0  0  0  0  0  0  0  0  0  0  0
  138.4910   73.0880  223.1900 H   0  0  0  0  0  0  0  0  0  0  0  0
  137.7053   71.3259  224.3934 H   0  0  0  0  0  0  0  0  0  0  0  0
  138.2511   70.4079  222.7707 H   0  0  0  0  0  0  0  0  0  0  0  0
  142.1635   70.2576  225.4763 H   0  0  0  0  0  0  0  0  0  0  0  0
  141.1830   71.4025  224.5188 H   0  0  0  0  0  0  0  0  0  0  0  0
  142.0714   72.1635  226.8057 H   0  0  0  0  0  0  0  0  0  0  0  0
  140.2877   72.4048  226.4025 H   0  0  0  0  0  0  0  0  0  0  0  0
  141.5662   70.5160  228.3211 H   0  0  0  0  0  0  0  0  0  0  0  0
  140.2811   71.8130  228.5520 H   0  0  0  0  0  0  0  0  0  0  0  0
  139.4376   69.4570  228.7078 H   0  0  0  0  0  0  0  0  0  0  0  0
  138.6195   70.4622  227.5104 H   0  0  0  0  0  0  0  0  0  0  0  0
  141.1076   68.6454  226.6723 H   0  0  0  0  0  0  0  0  0  0  0  0
  139.7727   67.1840  227.6306 H   0  0  0  0  0  0  0  0  0  0  0  0
  138.2964   67.9123  226.9786 H   0  0  0  0  0  0  0  0  0  0  0  0
  139.7180   67.6630  224.8060 H   0  0  0  0  0  0  0  0  0  0  0  0
  141.7736   72.4456  220.2095 H   0  0  0  0  0  0  0  0  0  0  0  0
  142.5530   74.6168  219.2144 H   0  0  0  0  0  0  0  0  0  0  0  0
  141.8839   79.2146  220.2670 H   0  0  0  0  0  0  0  0  0  0  0  0
  140.4130   79.1700  222.2715 H   0  0  0  0  0  0  0  0  0  0  0  0
  139.6385   77.0140  223.2515 H   0  0  0  0  0  0  0  0  0  0  0  0
  1  2  2  0
  2  3  1  0
  3  4  1  0
  4  5  1  0
  5  6  2  0
  5  7  1  0
  7  8  1  0
  8  9  1  0
  9 10  1  0
 10 11  1  0
 11 12  1  0
 12 13  1  0
 13 14  1  0
  2 15  1  0
 15 16  2  0
 16 17  1  0
 17 18  2  0
 18 19  1  0
 19 20  1  0
 19 21  2  0
 21 22  1  0
 22 23  2  0
 23 24  1  0
 24 25  2  0
 12  7  1  0
 25 15  1  0
 24 18  1  0
  3 26  1  0
  4 27  1  0
  4 28  1  0
  8 29  1  0
  8 30  1  0
  9 31  1  0
  9 32  1  0
 10 33  1  0
 10 34  1  0
 11 35  1  0
 11 36  1  0
 12 37  1  1
 13 38  1  0
 13 39  1  0
 14 40  1  0
 16 41  1  0
 17 42  1  0
 21 43  1  0
 22 44  1  0
 23 45  1  0
M  END
>  <smiles>  (15) 
O=C(NCC(=O)N1CCCC[C@H]1CO)c1ccc2c(Cl)cccc2n1

>  <score_type>  (15) 
oracle

>  <origin>  (15) 
autodockgpu

>  <m_score__min__energy>  (15) 
-8.4499999999999993

>  <m_primary>  (15) 
energy

>  <rmsd>  (15) 
8.333007610660928

>  <m_score__min__rmsd>  (15) 
8.333007610660928

>  <meeko>  (15) 
{"free_energy": -7.74, "intermolecular_energy": -9.53, "internal_energy": -2.04, "cluster_size": 36, "cluster_id": 1, "rank_in_cluster": 29}

>  <energy>  (15) 
-8.02

>  <cluster_rmsd>  (15) 
0.75

>  <cluster>  (15) 
1

$$$$

     RDKit          3D

 45 47  0  0  0  0  0  0  0  0999 V2000
  140.2920   71.5840  221.0750 O   0  0  0  0  0  0  0  0  0  0  0  0
  139.9870   72.1450  222.1820 C   0  0  0  0  0  0  0  0  0  0  0  0
  139.5860   73.5280  222.1010 N   0  0  0  0  0  0  0  0  0  0  0  0
  139.5170   74.2870  220.9230 C   0  0  0  0  0  0  0  0  0  0  0  0
  140.2790   74.1110  219.7390 C   0  0  0  0  0  0  0  0  0  0  0  0
  139.6670   73.1970  218.9200 O   0  0  0  0  0  0  0  0  0  0  0  0
  141.4270   74.5480  219.1160 N   0  0  0  0  0  0  0  0  0  0  0  0
  141.1860   75.8040  218.2690 C   0  0  0  0  0  0  0  0  0  0  0  0
  141.9830   76.9190  218.8580 C   0  0  0  0  0  0  0  0  0  0  0  0
  143.3510   76.5600  219.3260 C   0  0  0  0  0  0  0  0  0  0  0  0
  143.4540   75.2500  220.0630 C   0  0  0  0  0  0  0  0  0  0  0  0
  142.7980   74.2010  219.1140 C   0  0  1  0  0  0  0  0  0  0  0  0
  143.2890   72.8720  219.4760 C   0  0  0  0  0  0  0  0  0  0  0  0
  142.3330   71.9410  218.9410 O   0  0  0  0  0  0  0  0  0  0  0  0
  140.0410   71.4320  223.4520 C   0  0  0  0  0  0  0  0  0  0  0  0
  139.6040   70.1240  223.4640 C   0  0  0  0  0  0  0  0  0  0  0  0
  139.6640   69.4570  224.6890 C   0  0  0  0  0  0  0  0  0  0  0  0
  140.1370   70.0830  225.8310 C   0  0  0  0  0  0  0  0  0  0  0  0
  140.2020   69.4350  227.0530 C   0  0  0  0  0  0  0  0  0  0  0  0
  139.6660   67.7700  227.1490 Cl  0  0  0  0  0  0  0  0  0  0  0  0
  140.6800   70.0790  228.1900 C   0  0  0  0  0  0  0  0  0  0  0  0
  141.0940   71.3980  228.0700 C   0  0  0  0  0  0  0  0  0  0  0  0
  141.0440   72.0790  226.8600 C   0  0  0  0  0  0  0  0  0  0  0  0
  140.5620   71.3990  225.7590 C   0  0  0  0  0  0  0  0  0  0  0  0
  140.5010   72.0390  224.5630 N   0  0  0  0  0  0  0  0  0  0  0  0
  139.3380   73.9360  223.0570 H   0  0  0  0  0  0  0  0  0  0  0  0
  138.4692   74.2074  220.5978 H   0  0  0  0  0  0  0  0  0  0  0  0
  139.9786   75.2160  221.2889 H   0  0  0  0  0  0  0  0  0  0  0  0
  141.5075   75.6225  217.2328 H   0  0  0  0  0  0  0  0  0  0  0  0
  140.1165   76.0610  218.2635 H   0  0  0  0  0  0  0  0  0  0  0  0
  142.0827   77.7035  218.0934 H   0  0  0  0  0  0  0  0  0  0  0  0
  141.4335   77.2377  219.7561 H   0  0  0  0  0  0  0  0  0  0  0  0
  144.0089   76.5079  218.4460 H   0  0  0  0  0  0  0  0  0  0  0  0
  143.6412   77.3390  220.0464 H   0  0  0  0  0  0  0  0  0  0  0  0
  144.5070   74.9947  220.2526 H   0  0  0  0  0  0  0  0  0  0  0  0
  142.9577   75.2874  221.0439 H   0  0  0  0  0  0  0  0  0  0  0  0
  143.0631   74.1894  218.0465 H   0  0  0  0  0  0  0  0  0  0  0  0
  144.2816   72.6974  219.0352 H   0  0  0  0  0  0  0  0  0  0  0  0
  143.3941   72.7626  220.5655 H   0  0  0  0  0  0  0  0  0  0  0  0
  141.4510   72.0670  219.3360 H   0  0  0  0  0  0  0  0  0  0  0  0
  139.2276   69.6316  222.5552 H   0  0  0  0  0  0  0  0  0  0  0  0
  139.3283   68.4112  224.7489 H   0  0  0  0  0  0  0  0  0  0  0  0
  140.7284   69.5571  229.1571 H   0  0  0  0  0  0  0  0  0  0  0  0
  141.4735   71.9206  228.9604 H   0  0  0  0  0  0  0  0  0  0  0  0
  141.3771   73.1244  226.7817 H   0  0  0  0  0  0  0  0  0  0  0  0
  1  2  2  0
  2  3  1  0
  3  4  1  0
  4  5  1  0
  5  6  2  0
  5  7  1  0
  7  8  1  0
  8  9  1  0
  9 10  1  0
 10 11  1  0
 11 12  1  0
 12 13  1  0
 13 14  1  0
  2 15  1  0
 15 16  2  0
 16 17  1  0
 17 18  2  0
 18 19  1  0
 19 20  1  0
 19 21  2  0
 21 22  1  0
 22 23  2  0
 23 24  1  0
 24 25  2  0
 12  7  1  0
 25 15  1  0
 24 18  1  0
  3 26  1  0
  4 27  1  0
  4 28  1  0
  8 29  1  0
  8 30  1  0
  9 31  1  0
  9 32  1  0
 10 33  1  0
 10 34  1  0
 11 35  1  0
 11 36  1  0
 12 37  1  6
 13 38  1  0
 13 39  1  0
 14 40  1  0
 16 41  1  0
 17 42  1  0
 21 43  1  0
 22 44  1  0
 23 45  1  0
M  END
>  <smiles>  (16) 
O=C(NCC(=O)N1CCCC[C@H]1CO)c1ccc2c(Cl)cccc2n1

>  <score_type>  (16) 
oracle

>  <origin>  (16) 
autodockgpu

>  <m_score__min__energy>  (16) 
-8.4499999999999993

>  <m_primary>  (16) 
energy

>  <rmsd>  (16) 
2.5260847519804424

>  <m_score__min__rmsd>  (16) 
2.5260847519804424

>  <meeko>  (16) 
{"free_energy": -6.07, "intermolecular_energy": -7.86, "internal_energy": -2.55, "cluster_size": 3, "cluster_id": 5, "rank_in_cluster": 3}

>  <energy>  (16) 
-7.94

>  <cluster_rmsd>  (16) 
0.91

>  <cluster>  (16) 
1

$$$$

     RDKit          3D

 45 47  0  0  0  0  0  0  0  0999 V2000
  140.4970   70.8160  221.8490 O   0  0  0  0  0  0  0  0  0  0  0  0
  140.0500   71.9620  222.1950 C   0  0  0  0  0  0  0  0  0  0  0  0
  138.9590   71.9570  223.1370 N   0  0  0  0  0  0  0  0  0  0  0  0
  138.3610   70.8110  223.6830 C   0  0  0  0  0  0  0  0  0  0  0  0
  138.9230   69.9100  224.6230 C   0  0  0  0  0  0  0  0  0  0  0  0
  138.2360   68.7230  224.6020 O   0  0  0  0  0  0  0  0  0  0  0  0
  139.9310   69.8080  225.5550 N   0  0  0  0  0  0  0  0  0  0  0  0
  141.0370   70.8480  225.3310 C   0  0  0  0  0  0  0  0  0  0  0  0
  141.0620   71.7580  226.5130 C   0  0  0  0  0  0  0  0  0  0  0  0
  140.8830   71.1030  227.8390 C   0  0  0  0  0  0  0  0  0  0  0  0
  139.8250   70.0310  227.8870 C   0  0  0  0  0  0  0  0  0  0  0  0
  140.1850   69.0550  226.7260 C   0  0  1  0  0  0  0  0  0  0  0  0
  139.5640   67.7590  226.9960 C   0  0  0  0  0  0  0  0  0  0  0  0
  139.6070   67.0370  225.7540 O   0  0  0  0  0  0  0  0  0  0  0  0
  140.6080   73.2020  221.6690 C   0  0  0  0  0  0  0  0  0  0  0  0
  141.4880   73.1030  220.6110 C   0  0  0  0  0  0  0  0  0  0  0  0
  142.0120   74.3000  220.1210 C   0  0  0  0  0  0  0  0  0  0  0  0
  141.6620   75.5220  220.6730 C   0  0  0  0  0  0  0  0  0  0  0  0
  142.1740   76.7180  220.1980 C   0  0  0  0  0  0  0  0  0  0  0  0
  143.2980   76.6760  218.8550 Cl  0  0  0  0  0  0  0  0  0  0  0  0
  141.8130   77.9360  220.7640 C   0  0  0  0  0  0  0  0  0  0  0  0
  140.9200   77.9260  221.8270 C   0  0  0  0  0  0  0  0  0  0  0  0
  140.3870   76.7450  222.3290 C   0  0  0  0  0  0  0  0  0  0  0  0
  140.7740   75.5600  221.7350 C   0  0  0  0  0  0  0  0  0  0  0  0
  140.2700   74.3900  222.2040 N   0  0  0  0  0  0  0  0  0  0  0  0
  138.6370   72.9440  223.3920 H   0  0  0  0  0  0  0  0  0  0  0  0
  137.4385   71.1748  224.1590 H   0  0  0  0  0  0  0  0  0  0  0  0
  138.3814   70.1655  222.7926 H   0  0  0  0  0  0  0  0  0  0  0  0
  142.0088   70.3429  225.2284 H   0  0  0  0  0  0  0  0  0  0  0  0
  140.8419   71.4208  224.4124 H   0  0  0  0  0  0  0  0  0  0  0  0
  142.0328   72.2753  226.5203 H   0  0  0  0  0  0  0  0  0  0  0  0
  140.1987   72.4289  226.3920 H   0  0  0  0  0  0  0  0  0  0  0  0
  141.8423   70.6476  228.1260 H   0  0  0  0  0  0  0  0  0  0  0  0
  140.5487   71.8932  228.5274 H   0  0  0  0  0  0  0  0  0  0  0  0
  139.8493   69.5070  228.8539 H   0  0  0  0  0  0  0  0  0  0  0  0
  138.8120   70.4457  227.7784 H   0  0  0  0  0  0  0  0  0  0  0  0
  141.2240   68.7168  226.5991 H   0  0  0  0  0  0  0  0  0  0  0  0
  140.1262   67.2193  227.7723 H   0  0  0  0  0  0  0  0  0  0  0  0
  138.5330   67.8729  227.3623 H   0  0  0  0  0  0  0  0  0  0  0  0
  139.6090   67.6400  224.9880 H   0  0  0  0  0  0  0  0  0  0  0  0
  141.7624   72.1306  220.1761 H   0  0  0  0  0  0  0  0  0  0  0  0
  142.7183   74.2730  219.2782 H   0  0  0  0  0  0  0  0  0  0  0  0
  142.2238   78.8814  220.3800 H   0  0  0  0  0  0  0  0  0  0  0  0
  140.6256   78.8816  222.2855 H   0  0  0  0  0  0  0  0  0  0  0  0
  139.6801   76.7538  223.1717 H   0  0  0  0  0  0  0  0  0  0  0  0
  1  2  2  0
  2  3  1  0
  3  4  1  0
  4  5  1  0
  5  6  2  0
  5  7  1  0
  7  8  1  0
  8  9  1  0
  9 10  1  0
 10 11  1  0
 11 12  1  0
 12 13  1  0
 13 14  1  0
  2 15  1  0
 15 16  2  0
 16 17  1  0
 17 18  2  0
 18 19  1  0
 19 20  1  0
 19 21  2  0
 21 22  1  0
 22 23  2  0
 23 24  1  0
 24 25  2  0
 12  7  1  0
 25 15  1  0
 24 18  1  0
  3 26  1  0
  4 27  1  0
  4 28  1  0
  8 29  1  0
  8 30  1  0
  9 31  1  0
  9 32  1  0
 10 33  1  0
 10 34  1  0
 11 35  1  0
 11 36  1  0
 12 37  1  1
 13 38  1  0
 13 39  1  0
 14 40  1  0
 16 41  1  0
 17 42  1  0
 21 43  1  0
 22 44  1  0
 23 45  1  0
M  END
>  <smiles>  (17) 
O=C(NCC(=O)N1CCCC[C@H]1CO)c1ccc2c(Cl)cccc2n1

>  <score_type>  (17) 
oracle

>  <origin>  (17) 
autodockgpu

>  <m_score__min__energy>  (17) 
-8.4499999999999993

>  <m_primary>  (17) 
energy

>  <rmsd>  (17) 
8.248542246143138

>  <m_score__min__rmsd>  (17) 
8.248542246143138

>  <meeko>  (17) 
{"free_energy": -8.03, "intermolecular_energy": -9.82, "internal_energy": -2.02, "cluster_size": 36, "cluster_id": 1, "rank_in_cluster": 13}

>  <energy>  (17) 
-7.93

>  <cluster_rmsd>  (17) 
0.48

>  <cluster>  (17) 
1

$$$$

     RDKit          3D

 45 47  0  0  0  0  0  0  0  0999 V2000
  139.9860   71.6250  220.9290 O   0  0  0  0  0  0  0  0  0  0  0  0
  139.9030   72.1780  222.0790 C   0  0  0  0  0  0  0  0  0  0  0  0
  139.7550   73.6120  222.0820 N   0  0  0  0  0  0  0  0  0  0  0  0
  139.7060   74.4270  220.9410 C   0  0  0  0  0  0  0  0  0  0  0  0
  140.4930   74.3130  219.7660 C   0  0  0  0  0  0  0  0  0  0  0  0
  139.7220   74.5640  218.6600 O   0  0  0  0  0  0  0  0  0  0  0  0
  141.7760   74.0430  219.3450 N   0  0  0  0  0  0  0  0  0  0  0  0
  142.5910   75.3200  219.1050 C   0  0  0  0  0  0  0  0  0  0  0  0
  143.7210   75.3370  220.0800 C   0  0  0  0  0  0  0  0  0  0  0  0
  144.3960   74.0300  220.3120 C   0  0  0  0  0  0  0  0  0  0  0  0
  143.4730   72.8450  220.4330 C   0  0  0  0  0  0  0  0  0  0  0  0
  142.5810   72.8950  219.1560 C   0  0  1  0  0  0  0  0  0  0  0  0
  142.0320   71.5610  218.9160 C   0  0  0  0  0  0  0  0  0  0  0  0
  140.7270   71.7690  218.3520 O   0  0  0  0  0  0  0  0  0  0  0  0
  139.9550   71.4060  223.3140 C   0  0  0  0  0  0  0  0  0  0  0  0
  139.5280   70.0950  223.2610 C   0  0  0  0  0  0  0  0  0  0  0  0
  139.5850   69.3710  224.4530 C   0  0  0  0  0  0  0  0  0  0  0  0
  140.0470   69.9460  225.6270 C   0  0  0  0  0  0  0  0  0  0  0  0
  140.1090   69.2410  226.8170 C   0  0  0  0  0  0  0  0  0  0  0  0
  139.5850   67.5690  226.8310 Cl  0  0  0  0  0  0  0  0  0  0  0  0
  140.5760   69.8330  227.9860 C   0  0  0  0  0  0  0  0  0  0  0  0
  140.9800   71.1600  227.9320 C   0  0  0  0  0  0  0  0  0  0  0  0
  140.9320   71.8970  226.7550 C   0  0  0  0  0  0  0  0  0  0  0  0
  140.4620   71.2670  225.6200 C   0  0  0  0  0  0  0  0  0  0  0  0
  140.4030   71.9620  224.4550 N   0  0  0  0  0  0  0  0  0  0  0  0
  139.6840   74.0110  223.0720 H   0  0  0  0  0  0  0  0  0  0  0  0
  138.6656   74.3582  220.5906 H   0  0  0  0  0  0  0  0  0  0  0  0
  140.1549   75.3391  221.3613 H   0  0  0  0  0  0  0  0  0  0  0  0
  142.9844   75.3241  218.0778 H   0  0  0  0  0  0  0  0  0  0  0  0
  141.9569   76.2086  219.2399 H   0  0  0  0  0  0  0  0  0  0  0  0
  144.4761   76.0458  219.7093 H   0  0  0  0  0  0  0  0  0  0  0  0
  143.2779   75.6203  221.0462 H   0  0  0  0  0  0  0  0  0  0  0  0
  145.0788   73.8451  219.4696 H   0  0  0  0  0  0  0  0  0  0  0  0
  144.9087   74.1184  221.2812 H   0  0  0  0  0  0  0  0  0  0  0  0
  144.0489   71.9084  220.4657 H   0  0  0  0  0  0  0  0  0  0  0  0
  142.8752   72.8800  221.3557 H   0  0  0  0  0  0  0  0  0  0  0  0
  143.0449   73.0607  218.1725 H   0  0  0  0  0  0  0  0  0  0  0  0
  142.6692   71.0058  218.2120 H   0  0  0  0  0  0  0  0  0  0  0  0
  141.9824   70.9714  219.8433 H   0  0  0  0  0  0  0  0  0  0  0  0
  140.2000   72.3910  218.8870 H   0  0  0  0  0  0  0  0  0  0  0  0
  139.1615   69.6436  222.3273 H   0  0  0  0  0  0  0  0  0  0  0  0
  139.2562   68.3213  224.4611 H   0  0  0  0  0  0  0  0  0  0  0  0
  140.6238   69.2654  228.9270 H   0  0  0  0  0  0  0  0  0  0  0  0
  141.3493   71.6427  228.8488 H   0  0  0  0  0  0  0  0  0  0  0  0
  141.2576   72.9474  226.7285 H   0  0  0  0  0  0  0  0  0  0  0  0
  1  2  2  0
  2  3  1  0
  3  4  1  0
  4  5  1  0
  5  6  2  0
  5  7  1  0
  7  8  1  0
  8  9  1  0
  9 10  1  0
 10 11  1  0
 11 12  1  0
 12 13  1  0
 13 14  1  0
  2 15  1  0
 15 16  2  0
 16 17  1  0
 17 18  2  0
 18 19  1  0
 19 20  1  0
 19 21  2  0
 21 22  1  0
 22 23  2  0
 23 24  1  0
 24 25  2  0
 12  7  1  0
 25 15  1  0
 24 18  1  0
  3 26  1  0
  4 27  1  0
  4 28  1  0
  8 29  1  0
  8 30  1  0
  9 31  1  0
  9 32  1  0
 10 33  1  0
 10 34  1  0
 11 35  1  0
 11 36  1  0
 12 37  1  6
 13 38  1  0
 13 39  1  0
 14 40  1  0
 16 41  1  0
 17 42  1  0
 21 43  1  0
 22 44  1  0
 23 45  1  0
M  END
>  <smiles>  (18) 
O=C(NCC(=O)N1CCCC[C@H]1CO)c1ccc2c(Cl)cccc2n1

>  <score_type>  (18) 
oracle

>  <origin>  (18) 
autodockgpu

>  <m_score__min__energy>  (18) 
-8.4499999999999993

>  <m_primary>  (18) 
energy

>  <rmsd>  (18) 
3.1325277079875926

>  <m_score__min__rmsd>  (18) 
3.1325277079875926

>  <meeko>  (18) 
{"free_energy": -6.11, "intermolecular_energy": -7.9, "internal_energy": -2.63, "cluster_size": 3, "cluster_id": 5, "rank_in_cluster": 2}

>  <energy>  (18) 
-7.92

>  <cluster_rmsd>  (18) 
0.46

>  <cluster>  (18) 
1

$$$$

     RDKit          3D

 45 47  0  0  0  0  0  0  0  0999 V2000
  140.6790   70.8020  221.8850 O   0  0  0  0  0  0  0  0  0  0  0  0
  140.1850   71.9340  222.2130 C   0  0  0  0  0  0  0  0  0  0  0  0
  139.0810   71.8980  223.1410 N   0  0  0  0  0  0  0  0  0  0  0  0
  138.5180   70.7360  223.6900 C   0  0  0  0  0  0  0  0  0  0  0  0
  139.0570   69.9200  224.7180 C   0  0  0  0  0  0  0  0  0  0  0  0
  138.2280   68.8530  224.9520 O   0  0  0  0  0  0  0  0  0  0  0  0
  140.1370   69.8210  225.5670 N   0  0  0  0  0  0  0  0  0  0  0  0
  140.8460   71.1670  225.7650 C   0  0  0  0  0  0  0  0  0  0  0  0
  140.7110   71.5520  227.2010 C   0  0  0  0  0  0  0  0  0  0  0  0
  140.8740   70.4470  228.1860 C   0  0  0  0  0  0  0  0  0  0  0  0
  140.2020   69.1510  227.8130 C   0  0  0  0  0  0  0  0  0  0  0  0
  140.7240   68.8230  226.3810 C   0  0  1  0  0  0  0  0  0  0  0  0
  140.5580   67.3910  226.1390 C   0  0  0  0  0  0  0  0  0  0  0  0
  139.1930   67.0910  226.4750 O   0  0  0  0  0  0  0  0  0  0  0  0
  140.7030   73.1890  221.6820 C   0  0  0  0  0  0  0  0  0  0  0  0
  141.5900   73.1130  220.6280 C   0  0  0  0  0  0  0  0  0  0  0  0
  142.0760   74.3240  220.1330 C   0  0  0  0  0  0  0  0  0  0  0  0
  141.6840   75.5370  220.6760 C   0  0  0  0  0  0  0  0  0  0  0  0
  142.1570   76.7460  220.1960 C   0  0  0  0  0  0  0  0  0  0  0  0
  143.2870   76.7330  218.8570 Cl  0  0  0  0  0  0  0  0  0  0  0  0
  141.7530   77.9550  220.7530 C   0  0  0  0  0  0  0  0  0  0  0  0
  140.8570   77.9210  221.8120 C   0  0  0  0  0  0  0  0  0  0  0  0
  140.3620   76.7260  222.3190 C   0  0  0  0  0  0  0  0  0  0  0  0
  140.7900   75.5520  221.7340 C   0  0  0  0  0  0  0  0  0  0  0  0
  140.3240   74.3690  222.2090 N   0  0  0  0  0  0  0  0  0  0  0  0
  138.7190   72.8750  223.3810 H   0  0  0  0  0  0  0  0  0  0  0  0
  137.5342   71.0514  224.0678 H   0  0  0  0  0  0  0  0  0  0  0  0
  138.6607   70.0558  222.8373 H   0  0  0  0  0  0  0  0  0  0  0  0
  141.9099   71.0708  225.5026 H   0  0  0  0  0  0  0  0  0  0  0  0
  140.3955   71.9351  225.1192 H   0  0  0  0  0  0  0  0  0  0  0  0
  141.4737   72.3140  227.4193 H   0  0  0  0  0  0  0  0  0  0  0  0
  139.6768   71.9076  227.3192 H   0  0  0  0  0  0  0  0  0  0  0  0
  141.9501   70.2511  228.3027 H   0  0  0  0  0  0  0  0  0  0  0  0
  140.3867   70.7884  229.1112 H   0  0  0  0  0  0  0  0  0  0  0  0
  140.4809   68.3541  228.5181 H   0  0  0  0  0  0  0  0  0  0  0  0
  139.1053   69.2303  227.8448 H   0  0  0  0  0  0  0  0  0  0  0  0
  141.7985   68.9028  226.1596 H   0  0  0  0  0  0  0  0  0  0  0  0
  140.7524   67.1564  225.0821 H   0  0  0  0  0  0  0  0  0  0  0  0
  141.2621   66.7955  226.7387 H   0  0  0  0  0  0  0  0  0  0  0  0
  138.5850   67.7800  226.1520 H   0  0  0  0  0  0  0  0  0  0  0  0
  141.8982   72.1477  220.1999 H   0  0  0  0  0  0  0  0  0  0  0  0
  142.7861   74.3153  219.2930 H   0  0  0  0  0  0  0  0  0  0  0  0
  142.1333   78.9114  220.3648 H   0  0  0  0  0  0  0  0  0  0  0  0
  140.5287   78.8688  222.2637 H   0  0  0  0  0  0  0  0  0  0  0  0
  139.6522   76.7161  223.1593 H   0  0  0  0  0  0  0  0  0  0  0  0
  1  2  2  0
  2  3  1  0
  3  4  1  0
  4  5  1  0
  5  6  2  0
  5  7  1  0
  7  8  1  0
  8  9  1  0
  9 10  1  0
 10 11  1  0
 11 12  1  0
 12 13  1  0
 13 14  1  0
  2 15  1  0
 15 16  2  0
 16 17  1  0
 17 18  2  0
 18 19  1  0
 19 20  1  0
 19 21  2  0
 21 22  1  0
 22 23  2  0
 23 24  1  0
 24 25  2  0
 12  7  1  0
 25 15  1  0
 24 18  1  0
  3 26  1  0
  4 27  1  0
  4 28  1  0
  8 29  1  0
  8 30  1  0
  9 31  1  0
  9 32  1  0
 10 33  1  0
 10 34  1  0
 11 35  1  0
 11 36  1  0
 12 37  1  1
 13 38  1  0
 13 39  1  0
 14 40  1  0
 16 41  1  0
 17 42  1  0
 21 43  1  0
 22 44  1  0
 23 45  1  0
M  END
>  <smiles>  (19) 
O=C(NCC(=O)N1CCCC[C@H]1CO)c1ccc2c(Cl)cccc2n1

>  <score_type>  (19) 
oracle

>  <origin>  (19) 
autodockgpu

>  <m_score__min__energy>  (19) 
-8.4499999999999993

>  <m_primary>  (19) 
energy

>  <rmsd>  (19) 
8.262792378733272

>  <m_score__min__rmsd>  (19) 
8.262792378733272

>  <meeko>  (19) 
{"free_energy": -7.85, "intermolecular_energy": -9.64, "internal_energy": -2.05, "cluster_size": 36, "cluster_id": 1, "rank_in_cluster": 24}

>  <energy>  (19) 
-7.91

>  <cluster_rmsd>  (19) 
0.72

>  <cluster>  (19) 
1

$$$$

     RDKit          3D

 45 47  0  0  0  0  0  0  0  0999 V2000
  140.4620   70.8070  221.8400 O   0  0  0  0  0  0  0  0  0  0  0  0
  140.0260   71.9530  222.1980 C   0  0  0  0  0  0  0  0  0  0  0  0
  138.9430   71.9480  223.1500 N   0  0  0  0  0  0  0  0  0  0  0  0
  138.3410   70.8020  223.6920 C   0  0  0  0  0  0  0  0  0  0  0  0
  138.8970   69.9020  224.6370 C   0  0  0  0  0  0  0  0  0  0  0  0
  138.1820   68.7320  224.6460 O   0  0  0  0  0  0  0  0  0  0  0  0
  139.9190   69.7890  225.5530 N   0  0  0  0  0  0  0  0  0  0  0  0
  141.0190   70.8340  225.3280 C   0  0  0  0  0  0  0  0  0  0  0  0
  141.0590   71.7280  226.5220 C   0  0  0  0  0  0  0  0  0  0  0  0
  140.9000   71.0530  227.8410 C   0  0  0  0  0  0  0  0  0  0  0  0
  139.8450   69.9790  227.8890 C   0  0  0  0  0  0  0  0  0  0  0  0
  140.1910   69.0200  226.7100 C   0  0  1  0  0  0  0  0  0  0  0  0
  139.5770   67.7190  226.9690 C   0  0  0  0  0  0  0  0  0  0  0  0
  139.5990   67.0170  225.7150 O   0  0  0  0  0  0  0  0  0  0  0  0
  140.5880   73.1930  221.6780 C   0  0  0  0  0  0  0  0  0  0  0  0
  141.4650   73.0960  220.6170 C   0  0  0  0  0  0  0  0  0  0  0  0
  141.9920   74.2930  220.1320 C   0  0  0  0  0  0  0  0  0  0  0  0
  141.6490   75.5140  220.6910 C   0  0  0  0  0  0  0  0  0  0  0  0
  142.1640   76.7100  220.2200 C   0  0  0  0  0  0  0  0  0  0  0  0
  143.2850   76.6700  218.8740 Cl  0  0  0  0  0  0  0  0  0  0  0  0
  141.8090   77.9270  220.7930 C   0  0  0  0  0  0  0  0  0  0  0  0
  140.9190   77.9150  221.8570 C   0  0  0  0  0  0  0  0  0  0  0  0
  140.3820   76.7340  222.3550 C   0  0  0  0  0  0  0  0  0  0  0  0
  140.7630   75.5500  221.7540 C   0  0  0  0  0  0  0  0  0  0  0  0
  140.2560   74.3800  222.2190 N   0  0  0  0  0  0  0  0  0  0  0  0
  138.6290   72.9360  223.4150 H   0  0  0  0  0  0  0  0  0  0  0  0
  137.4148   71.1657  224.1609 H   0  0  0  0  0  0  0  0  0  0  0  0
  138.3676   70.1559  222.8021 H   0  0  0  0  0  0  0  0  0  0  0  0
  141.9903   70.3326  225.2047 H   0  0  0  0  0  0  0  0  0  0  0  0
  140.8095   71.4190  224.4203 H   0  0  0  0  0  0  0  0  0  0  0  0
  142.0287   72.2472  226.5229 H   0  0  0  0  0  0  0  0  0  0  0  0
  140.1933   72.3993  226.4227 H   0  0  0  0  0  0  0  0  0  0  0  0
  141.8641   70.5951  228.1073 H   0  0  0  0  0  0  0  0  0  0  0  0
  140.5741   71.8325  228.5454 H   0  0  0  0  0  0  0  0  0  0  0  0
  139.8835   69.4419  228.8482 H   0  0  0  0  0  0  0  0  0  0  0  0
  138.8298   70.3931  227.8003 H   0  0  0  0  0  0  0  0  0  0  0  0
  141.2290   68.6859  226.5653 H   0  0  0  0  0  0  0  0  0  0  0  0
  140.1535   67.1677  227.7264 H   0  0  0  0  0  0  0  0  0  0  0  0
  138.5523   67.8253  227.3546 H   0  0  0  0  0  0  0  0  0  0  0  0
  139.8110   67.6140  224.9740 H   0  0  0  0  0  0  0  0  0  0  0  0
  141.7346   72.1248  220.1764 H   0  0  0  0  0  0  0  0  0  0  0  0
  142.6956   74.2673  219.2869 H   0  0  0  0  0  0  0  0  0  0  0  0
  142.2227   78.8727  220.4128 H   0  0  0  0  0  0  0  0  0  0  0  0
  140.6295   78.8695  222.3207 H   0  0  0  0  0  0  0  0  0  0  0  0
  139.6772   76.7417  223.1995 H   0  0  0  0  0  0  0  0  0  0  0  0
  1  2  2  0
  2  3  1  0
  3  4  1  0
  4  5  1  0
  5  6  2  0
  5  7  1  0
  7  8  1  0
  8  9  1  0
  9 10  1  0
 10 11  1  0
 11 12  1  0
 12 13  1  0
 13 14  1  0
  2 15  1  0
 15 16  2  0
 16 17  1  0
 17 18  2  0
 18 19  1  0
 19 20  1  0
 19 21  2  0
 21 22  1  0
 22 23  2  0
 23 24  1  0
 24 25  2  0
 12  7  1  0
 25 15  1  0
 24 18  1  0
  3 26  1  0
  4 27  1  0
  4 28  1  0
  8 29  1  0
  8 30  1  0
  9 31  1  0
  9 32  1  0
 10 33  1  0
 10 34  1  0
 11 35  1  0
 11 36  1  0
 12 37  1  1
 13 38  1  0
 13 39  1  0
 14 40  1  0
 16 41  1  0
 17 42  1  0
 21 43  1  0
 22 44  1  0
 23 45  1  0
M  END
>  <smiles>  (20) 
O=C(NCC(=O)N1CCCC[C@H]1CO)c1ccc2c(Cl)cccc2n1

>  <score_type>  (20) 
oracle

>  <origin>  (20) 
autodockgpu

>  <m_score__min__energy>  (20) 
-8.4499999999999993

>  <m_primary>  (20) 
energy

>  <rmsd>  (20) 
8.247057779598054

>  <m_score__min__rmsd>  (20) 
8.247057779598054

>  <meeko>  (20) 
{"free_energy": -8.06, "intermolecular_energy": -9.85, "internal_energy": -2.0, "cluster_size": 36, "cluster_id": 1, "rank_in_cluster": 7}

>  <energy>  (20) 
-7.91

>  <cluster_rmsd>  (20) 
0.52

>  <cluster>  (20) 
1

$$$$

     RDKit          3D

 45 47  0  0  0  0  0  0  0  0999 V2000
  140.7680   71.0310  221.7490 O   0  0  0  0  0  0  0  0  0  0  0  0
  140.2500   72.1390  222.1190 C   0  0  0  0  0  0  0  0  0  0  0  0
  139.1970   72.0490  223.0990 N   0  0  0  0  0  0  0  0  0  0  0  0
  138.7040   70.8590  223.6570 C   0  0  0  0  0  0  0  0  0  0  0  0
  139.4180   69.9120  224.4350 C   0  0  0  0  0  0  0  0  0  0  0  0
  139.1340   68.6420  224.0030 O   0  0  0  0  0  0  0  0  0  0  0  0
  140.3110   69.8230  225.4800 N   0  0  0  0  0  0  0  0  0  0  0  0
  141.1570   71.0930  225.6310 C   0  0  0  0  0  0  0  0  0  0  0  0
  140.8330   71.7090  226.9520 C   0  0  0  0  0  0  0  0  0  0  0  0
  140.6660   70.7580  228.0870 C   0  0  0  0  0  0  0  0  0  0  0  0
  139.8940   69.5050  227.7650 C   0  0  0  0  0  0  0  0  0  0  0  0
  140.6030   68.9030  226.5150 C   0  0  1  0  0  0  0  0  0  0  0  0
  140.2810   67.4780  226.4360 C   0  0  0  0  0  0  0  0  0  0  0  0
  138.8670   67.4080  226.1860 O   0  0  0  0  0  0  0  0  0  0  0  0
  140.6960   73.4190  221.5830 C   0  0  0  0  0  0  0  0  0  0  0  0
  141.4920   73.3920  220.4570 C   0  0  0  0  0  0  0  0  0  0  0  0
  141.9090   74.6270  219.9580 C   0  0  0  0  0  0  0  0  0  0  0  0
  141.5400   75.8160  220.5680 C   0  0  0  0  0  0  0  0  0  0  0  0
  141.9460   77.0490  220.0850 C   0  0  0  0  0  0  0  0  0  0  0  0
  142.9580   77.0980  218.6560 Cl  0  0  0  0  0  0  0  0  0  0  0  0
  141.5660   78.2320  220.7090 C   0  0  0  0  0  0  0  0  0  0  0  0
  140.7630   78.1490  221.8380 C   0  0  0  0  0  0  0  0  0  0  0  0
  140.3370   76.9290  222.3500 C   0  0  0  0  0  0  0  0  0  0  0  0
  140.7390   75.7810  221.6970 C   0  0  0  0  0  0  0  0  0  0  0  0
  140.3390   74.5750  222.1740 N   0  0  0  0  0  0  0  0  0  0  0  0
  138.8120   73.0080  223.3720 H   0  0  0  0  0  0  0  0  0  0  0  0
  137.8660   71.1739  224.2962 H   0  0  0  0  0  0  0  0  0  0  0  0
  138.5871   70.2714  222.7345 H   0  0  0  0  0  0  0  0  0  0  0  0
  142.2259   70.8364  225.5909 H   0  0  0  0  0  0  0  0  0  0  0  0
  140.9363   71.7982  224.8161 H   0  0  0  0  0  0  0  0  0  0  0  0
  141.6469   72.4027  227.2097 H   0  0  0  0  0  0  0  0  0  0  0  0
  139.8548   72.1954  226.8232 H   0  0  0  0  0  0  0  0  0  0  0  0
  141.6673   70.4615  228.4328 H   0  0  0  0  0  0  0  0  0  0  0  0
  140.0785   71.2915  228.8487 H   0  0  0  0  0  0  0  0  0  0  0  0
  139.9328   68.7998  228.6083 H   0  0  0  0  0  0  0  0  0  0  0  0
  138.8304   69.7127  227.5761 H   0  0  0  0  0  0  0  0  0  0  0  0
  141.7000   68.8253  226.4939 H   0  0  0  0  0  0  0  0  0  0  0  0
  140.8389   67.0044  225.6147 H   0  0  0  0  0  0  0  0  0  0  0  0
  140.5547   66.9497  227.3612 H   0  0  0  0  0  0  0  0  0  0  0  0
  138.6320   67.8220  225.3360 H   0  0  0  0  0  0  0  0  0  0  0  0
  141.7832   72.4460  219.9770 H   0  0  0  0  0  0  0  0  0  0  0  0
  142.5446   74.6576  219.0607 H   0  0  0  0  0  0  0  0  0  0  0  0
  141.8928   79.2070  220.3185 H   0  0  0  0  0  0  0  0  0  0  0  0
  140.4545   79.0764  222.3427 H   0  0  0  0  0  0  0  0  0  0  0  0
  139.7006   76.8798  223.2459 H   0  0  0  0  0  0  0  0  0  0  0  0
  1  2  2  0
  2  3  1  0
  3  4  1  0
  4  5  1  0
  5  6  2  0
  5  7  1  0
  7  8  1  0
  8  9  1  0
  9 10  1  0
 10 11  1  0
 11 12  1  0
 12 13  1  0
 13 14  1  0
  2 15  1  0
 15 16  2  0
 16 17  1  0
 17 18  2  0
 18 19  1  0
 19 20  1  0
 19 21  2  0
 21 22  1  0
 22 23  2  0
 23 24  1  0
 24 25  2  0
 12  7  1  0
 25 15  1  0
 24 18  1  0
  3 26  1  0
  4 27  1  0
  4 28  1  0
  8 29  1  0
  8 30  1  0
  9 31  1  0
  9 32  1  0
 10 33  1  0
 10 34  1  0
 11 35  1  0
 11 36  1  0
 12 37  1  1
 13 38  1  0
 13 39  1  0
 14 40  1  0
 16 41  1  0
 17 42  1  0
 21 43  1  0
 22 44  1  0
 23 45  1  0
M  END
>  <smiles>  (21) 
O=C(NCC(=O)N1CCCC[C@H]1CO)c1ccc2c(Cl)cccc2n1

>  <score_type>  (21) 
oracle

>  <origin>  (21) 
autodockgpu

>  <m_score__min__energy>  (21) 
-8.4499999999999993

>  <m_primary>  (21) 
energy

>  <rmsd>  (21) 
8.337907472345352

>  <m_score__min__rmsd>  (21) 
8.337907472345352

>  <meeko>  (21) 
{"free_energy": -7.9, "intermolecular_energy": -9.69, "internal_energy": -2.03, "cluster_size": 36, "cluster_id": 1, "rank_in_cluster": 21}

>  <energy>  (21) 
-7.9

>  <cluster_rmsd>  (21) 
0.58

>  <cluster>  (21) 
1

$$$$

     RDKit          3D

 45 47  0  0  0  0  0  0  0  0999 V2000
  140.1550   71.7920  221.1490 O   0  0  0  0  0  0  0  0  0  0  0  0
  139.9410   72.2620  222.3190 C   0  0  0  0  0  0  0  0  0  0  0  0
  139.6510   73.6720  222.3900 N   0  0  0  0  0  0  0  0  0  0  0  0
  139.5970   74.5480  221.2950 C   0  0  0  0  0  0  0  0  0  0  0  0
  140.4570   75.6440  221.0250 C   0  0  0  0  0  0  0  0  0  0  0  0
  141.7660   75.2540  221.1530 O   0  0  0  0  0  0  0  0  0  0  0  0
  140.4360   76.9740  220.6690 N   0  0  0  0  0  0  0  0  0  0  0  0
  139.1250   77.6620  221.0700 C   0  0  0  0  0  0  0  0  0  0  0  0
  139.4460   78.7150  222.0780 C   0  0  0  0  0  0  0  0  0  0  0  0
  140.6800   79.5080  221.8170 C   0  0  0  0  0  0  0  0  0  0  0  0
  141.8640   78.7110  221.3350 C   0  0  0  0  0  0  0  0  0  0  0  0
  141.3380   77.9080  220.1070 C   0  0  1  0  0  0  0  0  0  0  0  0
  142.4790   77.5220  219.2770 C   0  0  0  0  0  0  0  0  0  0  0  0
  142.0550   76.3600  218.5440 O   0  0  0  0  0  0  0  0  0  0  0  0
  139.9870   71.4240  223.5100 C   0  0  0  0  0  0  0  0  0  0  0  0
  139.5320   70.1270  223.3920 C   0  0  0  0  0  0  0  0  0  0  0  0
  139.5840   69.3400  224.5430 C   0  0  0  0  0  0  0  0  0  0  0  0
  140.0680   69.8410  225.7410 C   0  0  0  0  0  0  0  0  0  0  0  0
  140.1250   69.0720  226.8910 C   0  0  0  0  0  0  0  0  0  0  0  0
  139.5670   67.4130  226.8210 Cl  0  0  0  0  0  0  0  0  0  0  0  0
  140.6150   69.5910  228.0860 C   0  0  0  0  0  0  0  0  0  0  0  0
  141.0470   70.9100  228.0980 C   0  0  0  0  0  0  0  0  0  0  0  0
  141.0040   71.7100  226.9630 C   0  0  0  0  0  0  0  0  0  0  0  0
  140.5120   71.1510  225.8000 C   0  0  0  0  0  0  0  0  0  0  0  0
  140.4570   71.9090  224.6750 N   0  0  0  0  0  0  0  0  0  0  0  0
  139.4750   74.0010  223.3920 H   0  0  0  0  0  0  0  0  0  0  0  0
  139.6822   73.8990  220.4109 H   0  0  0  0  0  0  0  0  0  0  0  0
  138.6873   75.1048  221.5642 H   0  0  0  0  0  0  0  0  0  0  0  0
  138.6589   78.1214  220.1858 H   0  0  0  0  0  0  0  0  0  0  0  0
  138.4229   76.9289  221.4937 H   0  0  0  0  0  0  0  0  0  0  0  0
  138.5977   79.4141  222.1175 H   0  0  0  0  0  0  0  0  0  0  0  0
  139.6290   78.1796  223.0213 H   0  0  0  0  0  0  0  0  0  0  0  0
  140.4441   80.2631  221.0527 H   0  0  0  0  0  0  0  0  0  0  0  0
  140.9759   79.9399  222.7844 H   0  0  0  0  0  0  0  0  0  0  0  0
  142.6846   79.3800  221.0366 H   0  0  0  0  0  0  0  0  0  0  0  0
  142.2643   78.0513  222.1189 H   0  0  0  0  0  0  0  0  0  0  0  0
  140.7398   78.4175  219.3372 H   0  0  0  0  0  0  0  0  0  0  0  0
  142.7425   78.3360  218.5856 H   0  0  0  0  0  0  0  0  0  0  0  0
  143.3707   77.3132  219.8864 H   0  0  0  0  0  0  0  0  0  0  0  0
  142.0020   75.5740  219.1170 H   0  0  0  0  0  0  0  0  0  0  0  0
  139.1479   69.7334  222.4393 H   0  0  0  0  0  0  0  0  0  0  0  0
  139.2329   68.2985  224.4985 H   0  0  0  0  0  0  0  0  0  0  0  0
  140.6586   68.9733  228.9951 H   0  0  0  0  0  0  0  0  0  0  0  0
  141.4354   71.3351  229.0352 H   0  0  0  0  0  0  0  0  0  0  0  0
  141.3503   72.7537  226.9898 H   0  0  0  0  0  0  0  0  0  0  0  0
  1  2  2  0
  2  3  1  0
  3  4  1  0
  4  5  1  0
  5  6  2  0
  5  7  1  0
  7  8  1  0
  8  9  1  0
  9 10  1  0
 10 11  1  0
 11 12  1  0
 12 13  1  0
 13 14  1  0
  2 15  1  0
 15 16  2  0
 16 17  1  0
 17 18  2  0
 18 19  1  0
 19 20  1  0
 19 21  2  0
 21 22  1  0
 22 23  2  0
 23 24  1  0
 24 25  2  0
 12  7  1  0
 25 15  1  0
 24 18  1  0
  3 26  1  0
  4 27  1  0
  4 28  1  0
  8 29  1  0
  8 30  1  0
  9 31  1  0
  9 32  1  0
 10 33  1  0
 10 34  1  0
 11 35  1  0
 11 36  1  0
 12 37  1  6
 13 38  1  0
 13 39  1  0
 14 40  1  0
 16 41  1  0
 17 42  1  0
 21 43  1  0
 22 44  1  0
 23 45  1  0
M  END
>  <smiles>  (22) 
O=C(NCC(=O)N1CCCC[C@H]1CO)c1ccc2c(Cl)cccc2n1

>  <score_type>  (22) 
oracle

>  <origin>  (22) 
autodockgpu

>  <m_score__min__energy>  (22) 
-8.4499999999999993

>  <m_primary>  (22) 
energy

>  <rmsd>  (22) 
2.4998657630185233

>  <m_score__min__rmsd>  (22) 
2.4998657630185233

>  <meeko>  (22) 
{"free_energy": -6.6, "intermolecular_energy": -8.39, "internal_energy": -1.77, "cluster_size": 5, "cluster_id": 2, "rank_in_cluster": 4}

>  <energy>  (22) 
-7.9

>  <cluster_rmsd>  (22) 
0.71

>  <cluster>  (22) 
1

$$$$

     RDKit          3D

 45 47  0  0  0  0  0  0  0  0999 V2000
  136.3900   77.5460  222.8900 O   0  0  0  0  0  0  0  0  0  0  0  0
  136.6860   76.3520  223.2400 C   0  0  0  0  0  0  0  0  0  0  0  0
  137.9520   75.8500  222.7650 N   0  0  0  0  0  0  0  0  0  0  0  0
  138.8560   76.5560  221.9570 C   0  0  0  0  0  0  0  0  0  0  0  0
  139.3290   77.8800  222.1490 C   0  0  0  0  0  0  0  0  0  0  0  0
  139.0200   78.6500  221.0570 O   0  0  0  0  0  0  0  0  0  0  0  0
  139.9910   78.6720  223.0610 N   0  0  0  0  0  0  0  0  0  0  0  0
  141.4580   78.2570  223.2330 C   0  0  0  0  0  0  0  0  0  0  0  0
  142.3150   79.3860  222.7660 C   0  0  0  0  0  0  0  0  0  0  0  0
  141.8540   80.7500  223.1470 C   0  0  0  0  0  0  0  0  0  0  0  0
  140.3710   80.9850  223.0170 C   0  0  0  0  0  0  0  0  0  0  0  0
  139.7070   79.8290  223.8240 C   0  0  1  0  0  0  0  0  0  0  0  0
  138.3500   80.2340  224.1910 C   0  0  0  0  0  0  0  0  0  0  0  0
  137.5840   80.1870  222.9760 O   0  0  0  0  0  0  0  0  0  0  0  0
  135.8000   75.5460  224.0680 C   0  0  0  0  0  0  0  0  0  0  0  0
  135.8270   74.1790  223.8820 C   0  0  0  0  0  0  0  0  0  0  0  0
  134.9710   73.4220  224.6840 C   0  0  0  0  0  0  0  0  0  0  0  0
  134.1390   74.0200  225.6180 C   0  0  0  0  0  0  0  0  0  0  0  0
  133.2840   73.2830  226.4210 C   0  0  0  0  0  0  0  0  0  0  0  0
  133.2620   71.5400  226.2440 Cl  0  0  0  0  0  0  0  0  0  0  0  0
  132.4560   73.8980  227.3530 C   0  0  0  0  0  0  0  0  0  0  0  0
  132.5040   75.2810  227.4610 C   0  0  0  0  0  0  0  0  0  0  0  0
  133.3500   76.0510  226.6720 C   0  0  0  0  0  0  0  0  0  0  0  0
  134.1540   75.3970  225.7610 C   0  0  0  0  0  0  0  0  0  0  0  0
  134.9900   76.1230  224.9760 N   0  0  0  0  0  0  0  0  0  0  0  0
  138.1430   74.8510  223.0970 H   0  0  0  0  0  0  0  0  0  0  0  0
  139.7624   75.9330  221.9375 H   0  0  0  0  0  0  0  0  0  0  0  0
  138.2099   76.7279  221.0835 H   0  0  0  0  0  0  0  0  0  0  0  0
  141.6642   78.0454  224.2926 H   0  0  0  0  0  0  0  0  0  0  0  0
  141.6693   77.3498  222.6480 H   0  0  0  0  0  0  0  0  0  0  0  0
  143.3219   79.2409  223.1844 H   0  0  0  0  0  0  0  0  0  0  0  0
  142.2784   79.3543  221.6671 H   0  0  0  0  0  0  0  0  0  0  0  0
  142.1356   80.9239  224.1960 H   0  0  0  0  0  0  0  0  0  0  0  0
  142.3362   81.4435  222.4423 H   0  0  0  0  0  0  0  0  0  0  0  0
  140.0955   81.9613  223.4424 H   0  0  0  0  0  0  0  0  0  0  0  0
  140.0450   80.9958  221.9665 H   0  0  0  0  0  0  0  0  0  0  0  0
  140.0814   79.5790  224.8277 H   0  0  0  0  0  0  0  0  0  0  0  0
  137.9313   79.5400  224.9346 H   0  0  0  0  0  0  0  0  0  0  0  0
  138.3352   81.2382  224.6398 H   0  0  0  0  0  0  0  0  0  0  0  0
  137.6090   79.3010  222.5710 H   0  0  0  0  0  0  0  0  0  0  0  0
  136.4892   73.7096  223.1396 H   0  0  0  0  0  0  0  0  0  0  0  0
  134.9563   72.3278  224.5725 H   0  0  0  0  0  0  0  0  0  0  0  0
  131.7811   73.3048  227.9876 H   0  0  0  0  0  0  0  0  0  0  0  0
  131.8532   75.7822  228.1926 H   0  0  0  0  0  0  0  0  0  0  0  0
  133.3778   77.1462  226.7705 H   0  0  0  0  0  0  0  0  0  0  0  0
  1  2  2  0
  2  3  1  0
  3  4  1  0
  4  5  1  0
  5  6  2  0
  5  7  1  0
  7  8  1  0
  8  9  1  0
  9 10  1  0
 10 11  1  0
 11 12  1  0
 12 13  1  0
 13 14  1  0
  2 15  1  0
 15 16  2  0
 16 17  1  0
 17 18  2  0
 18 19  1  0
 19 20  1  0
 19 21  2  0
 21 22  1  0
 22 23  2  0
 23 24  1  0
 24 25  2  0
 12  7  1  0
 25 15  1  0
 24 18  1  0
  3 26  1  0
  4 27  1  0
  4 28  1  0
  8 29  1  0
  8 30  1  0
  9 31  1  0
  9 32  1  0
 10 33  1  0
 10 34  1  0
 11 35  1  0
 11 36  1  0
 12 37  1  1
 13 38  1  0
 13 39  1  0
 14 40  1  0
 16 41  1  0
 17 42  1  0
 21 43  1  0
 22 44  1  0
 23 45  1  0
M  END
>  <smiles>  (23) 
O=C(NCC(=O)N1CCCC[C@H]1CO)c1ccc2c(Cl)cccc2n1

>  <score_type>  (23) 
oracle

>  <origin>  (23) 
autodockgpu

>  <m_score__min__energy>  (23) 
-8.4499999999999993

>  <m_primary>  (23) 
energy

>  <rmsd>  (23) 
6.65004713216155

>  <m_score__min__rmsd>  (23) 
6.65004713216155

>  <meeko>  (23) 
{"free_energy": -5.91, "intermolecular_energy": -7.7, "internal_energy": -2.37, "cluster_size": 2, "cluster_id": 4, "rank_in_cluster": 2}

>  <energy>  (23) 
-7.88

>  <cluster_rmsd>  (23) 
0.97

>  <cluster>  (23) 
1

$$$$

     RDKit          3D

 45 47  0  0  0  0  0  0  0  0999 V2000
  135.2480   68.5180  224.8980 O   0  0  0  0  0  0  0  0  0  0  0  0
  135.6250   69.7320  225.0350 C   0  0  0  0  0  0  0  0  0  0  0  0
  137.0300   69.9850  224.8330 N   0  0  0  0  0  0  0  0  0  0  0  0
  137.9930   69.0160  224.5130 C   0  0  0  0  0  0  0  0  0  0  0  0
  139.2040   68.7440  225.2000 C   0  0  0  0  0  0  0  0  0  0  0  0
  139.3340   67.3940  225.4030 O   0  0  0  0  0  0  0  0  0  0  0  0
  140.3090   69.3690  225.7340 N   0  0  0  0  0  0  0  0  0  0  0  0
  140.8470   70.4790  224.8220 C   0  0  0  0  0  0  0  0  0  0  0  0
  140.7010   71.7780  225.5400 C   0  0  0  0  0  0  0  0  0  0  0  0
  141.0260   71.7550  226.9940 C   0  0  0  0  0  0  0  0  0  0  0  0
  140.5140   70.5550  227.7470 C   0  0  0  0  0  0  0  0  0  0  0  0
  141.0370   69.3230  226.9470 C   0  0  1  0  0  0  0  0  0  0  0  0
  141.0470   68.1600  227.8330 C   0  0  0  0  0  0  0  0  0  0  0  0
  139.6700   67.7830  228.0020 O   0  0  0  0  0  0  0  0  0  0  0  0
  134.6920   70.7980  225.3770 C   0  0  0  0  0  0  0  0  0  0  0  0
  133.4230   70.4280  225.7730 C   0  0  0  0  0  0  0  0  0  0  0  0
  132.5440   71.4620  226.0960 C   0  0  0  0  0  0  0  0  0  0  0  0
  132.9310   72.7910  226.0210 C   0  0  0  0  0  0  0  0  0  0  0  0
  132.0690   73.8270  226.3370 C   0  0  0  0  0  0  0  0  0  0  0  0
  130.4400   73.4380  226.8500 Cl  0  0  0  0  0  0  0  0  0  0  0  0
  132.4740   75.1560  226.2570 C   0  0  0  0  0  0  0  0  0  0  0  0
  133.7730   75.4210  225.8460 C   0  0  0  0  0  0  0  0  0  0  0  0
  134.6640   74.4050  225.5200 C   0  0  0  0  0  0  0  0  0  0  0  0
  134.2180   73.1030  225.6160 C   0  0  0  0  0  0  0  0  0  0  0  0
  135.0660   72.0890  225.3040 N   0  0  0  0  0  0  0  0  0  0  0  0
  137.2790   71.0170  224.9550 H   0  0  0  0  0  0  0  0  0  0  0  0
  137.4453   68.0621  224.5202 H   0  0  0  0  0  0  0  0  0  0  0  0
  138.4097   69.4802  223.6070 H   0  0  0  0  0  0  0  0  0  0  0  0
  141.9076   70.2948  224.5959 H   0  0  0  0  0  0  0  0  0  0  0  0
  140.2865   70.5008  223.8758 H   0  0  0  0  0  0  0  0  0  0  0  0
  141.3674   72.5076  225.0567 H   0  0  0  0  0  0  0  0  0  0  0  0
  139.6337   72.0364  225.4763 H   0  0  0  0  0  0  0  0  0  0  0  0
  142.1207   71.7805  227.0984 H   0  0  0  0  0  0  0  0  0  0  0  0
  140.5221   72.6286  227.4332 H   0  0  0  0  0  0  0  0  0  0  0  0
  140.9090   70.5454  228.7736 H   0  0  0  0  0  0  0  0  0  0  0  0
  139.4173   70.5574  227.8315 H   0  0  0  0  0  0  0  0  0  0  0  0
  142.0869   69.2892  226.6206 H   0  0  0  0  0  0  0  0  0  0  0  0
  141.6162   67.3364  227.3772 H   0  0  0  0  0  0  0  0  0  0  0  0
  141.5245   68.3901  228.7969 H   0  0  0  0  0  0  0  0  0  0  0  0
  139.4600   66.9660  227.5150 H   0  0  0  0  0  0  0  0  0  0  0  0
  133.1201   69.3721  225.8310 H   0  0  0  0  0  0  0  0  0  0  0  0
  131.5209   71.2172  226.4174 H   0  0  0  0  0  0  0  0  0  0  0  0
  131.7839   75.9737  226.5124 H   0  0  0  0  0  0  0  0  0  0  0  0
  134.1075   76.4666  225.7761 H   0  0  0  0  0  0  0  0  0  0  0  0
  135.6906   74.6316  225.1963 H   0  0  0  0  0  0  0  0  0  0  0  0
  1  2  2  0
  2  3  1  0
  3  4  1  0
  4  5  1  0
  5  6  2  0
  5  7  1  0
  7  8  1  0
  8  9  1  0
  9 10  1  0
 10 11  1  0
 11 12  1  0
 12 13  1  0
 13 14  1  0
  2 15  1  0
 15 16  2  0
 16 17  1  0
 17 18  2  0
 18 19  1  0
 19 20  1  0
 19 21  2  0
 21 22  1  0
 22 23  2  0
 23 24  1  0
 24 25  2  0
 12  7  1  0
 25 15  1  0
 24 18  1  0
  3 26  1  0
  4 27  1  0
  4 28  1  0
  8 29  1  0
  8 30  1  0
  9 31  1  0
  9 32  1  0
 10 33  1  0
 10 34  1  0
 11 35  1  0
 11 36  1  0
 12 37  1  6
 13 38  1  0
 13 39  1  0
 14 40  1  0
 16 41  1  0
 17 42  1  0
 21 43  1  0
 22 44  1  0
 23 45  1  0
M  END
>  <smiles>  (24) 
O=C(NCC(=O)N1CCCC[C@H]1CO)c1ccc2c(Cl)cccc2n1

>  <score_type>  (24) 
oracle

>  <origin>  (24) 
autodockgpu

>  <m_score__min__energy>  (24) 
-8.4499999999999993

>  <m_primary>  (24) 
energy

>  <rmsd>  (24) 
8.297735795001651

>  <m_score__min__rmsd>  (24) 
8.297735795001651

>  <meeko>  (24) 
{"free_energy": -6.99, "intermolecular_energy": -8.78, "internal_energy": -1.93, "cluster_size": 4, "cluster_id": 3, "rank_in_cluster": 1}

>  <energy>  (24) 
-7.85

>  <cluster_rmsd>  (24) 
0.42

>  <cluster>  (24) 
1

$$$$

     RDKit          3D

 45 47  0  0  0  0  0  0  0  0999 V2000
  140.3020   71.4310  220.9070 O   0  0  0  0  0  0  0  0  0  0  0  0
  140.2590   72.4260  221.7080 C   0  0  0  0  0  0  0  0  0  0  0  0
  139.7790   72.1480  223.0390 N   0  0  0  0  0  0  0  0  0  0  0  0
  139.3580   70.8930  223.5060 C   0  0  0  0  0  0  0  0  0  0  0  0
  139.4090   70.4080  224.8380 C   0  0  0  0  0  0  0  0  0  0  0  0
  138.1960   69.8730  225.1880 O   0  0  0  0  0  0  0  0  0  0  0  0
  140.2630   70.2800  225.9110 N   0  0  0  0  0  0  0  0  0  0  0  0
  141.3900   71.3200  225.8840 C   0  0  0  0  0  0  0  0  0  0  0  0
  141.2350   72.2010  227.0780 C   0  0  0  0  0  0  0  0  0  0  0  0
  140.8530   71.5160  228.3440 C   0  0  0  0  0  0  0  0  0  0  0  0
  139.7990   70.4480  228.2030 C   0  0  0  0  0  0  0  0  0  0  0  0
  140.3330   69.4990  227.0890 C   0  0  1  0  0  0  0  0  0  0  0  0
  139.6770   68.1990  227.2280 C   0  0  0  0  0  0  0  0  0  0  0  0
  140.5880   67.2380  226.6680 O   0  0  0  0  0  0  0  0  0  0  0  0
  140.6680   73.7650  221.3010 C   0  0  0  0  0  0  0  0  0  0  0  0
  141.2260   73.9040  220.0470 C   0  0  0  0  0  0  0  0  0  0  0  0
  141.6110   75.1920  219.6750 C   0  0  0  0  0  0  0  0  0  0  0  0
  141.4410   76.2730  220.5260 C   0  0  0  0  0  0  0  0  0  0  0  0
  141.8200   77.5570  220.1710 C   0  0  0  0  0  0  0  0  0  0  0  0
  142.5340   77.8150  218.5930 Cl  0  0  0  0  0  0  0  0  0  0  0  0
  141.6420   78.6300  221.0380 C   0  0  0  0  0  0  0  0  0  0  0  0
  141.0720   78.3820  222.2790 C   0  0  0  0  0  0  0  0  0  0  0  0
  140.6810   77.1070  222.6680 C   0  0  0  0  0  0  0  0  0  0  0  0
  140.8760   76.0730  221.7740 C   0  0  0  0  0  0  0  0  0  0  0  0
  140.5050   74.8160  222.1270 N   0  0  0  0  0  0  0  0  0  0  0  0
  139.7740   73.0180  223.6600 H   0  0  0  0  0  0  0  0  0  0  0  0
  138.2967   70.8292  223.2237 H   0  0  0  0  0  0  0  0  0  0  0  0
  140.1505   70.2703  223.0653 H   0  0  0  0  0  0  0  0  0  0  0  0
  142.3659   70.8135  225.9183 H   0  0  0  0  0  0  0  0  0  0  0  0
  141.3373   71.9158  224.9608 H   0  0  0  0  0  0  0  0  0  0  0  0
  142.1943   72.7121  227.2470 H   0  0  0  0  0  0  0  0  0  0  0  0
  140.4018   72.8794  226.8424 H   0  0  0  0  0  0  0  0  0  0  0  0
  141.7561   71.0494  228.7644 H   0  0  0  0  0  0  0  0  0  0  0  0
  140.4172   72.2914  228.9911 H   0  0  0  0  0  0  0  0  0  0  0  0
  139.6736   69.9013  229.1492 H   0  0  0  0  0  0  0  0  0  0  0  0
  138.8150   70.8695  227.9500 H   0  0  0  0  0  0  0  0  0  0  0  0
  141.3791   69.1601  227.1168 H   0  0  0  0  0  0  0  0  0  0  0  0
  139.4896   67.9761  228.2887 H   0  0  0  0  0  0  0  0  0  0  0  0
  138.7037   68.1801  226.7158 H   0  0  0  0  0  0  0  0  0  0  0  0
  140.6420   66.4340  227.2160 H   0  0  0  0  0  0  0  0  0  0  0  0
  141.3604   73.0435  219.3751 H   0  0  0  0  0  0  0  0  0  0  0  0
  142.0597   75.3536  218.6838 H   0  0  0  0  0  0  0  0  0  0  0  0
  141.9446   79.6471  220.7481 H   0  0  0  0  0  0  0  0  0  0  0  0
  140.9254   79.2205  222.9757 H   0  0  0  0  0  0  0  0  0  0  0  0
  140.2310   76.9272  223.6555 H   0  0  0  0  0  0  0  0  0  0  0  0
  1  2  2  0
  2  3  1  0
  3  4  1  0
  4  5  1  0
  5  6  2  0
  5  7  1  0
  7  8  1  0
  8  9  1  0
  9 10  1  0
 10 11  1  0
 11 12  1  0
 12 13  1  0
 13 14  1  0
  2 15  1  0
 15 16  2  0
 16 17  1  0
 17 18  2  0
 18 19  1  0
 19 20  1  0
 19 21  2  0
 21 22  1  0
 22 23  2  0
 23 24  1  0
 24 25  2  0
 12  7  1  0
 25 15  1  0
 24 18  1  0
  3 26  1  0
  4 27  1  0
  4 28  1  0
  8 29  1  0
  8 30  1  0
  9 31  1  0
  9 32  1  0
 10 33  1  0
 10 34  1  0
 11 35  1  0
 11 36  1  0
 12 37  1  1
 13 38  1  0
 13 39  1  0
 14 40  1  0
 16 41  1  0
 17 42  1  0
 21 43  1  0
 22 44  1  0
 23 45  1  0
M  END
>  <smiles>  (25) 
O=C(NCC(=O)N1CCCC[C@H]1CO)c1ccc2c(Cl)cccc2n1

>  <score_type>  (25) 
oracle

>  <origin>  (25) 
autodockgpu

>  <m_score__min__energy>  (25) 
-8.4499999999999993

>  <m_primary>  (25) 
energy

>  <rmsd>  (25) 
8.412099325350447

>  <m_score__min__rmsd>  (25) 
8.412099325350447

>  <meeko>  (25) 
{"free_energy": -7.88, "intermolecular_energy": -9.67, "internal_energy": -1.27, "cluster_size": 36, "cluster_id": 1, "rank_in_cluster": 23}

>  <energy>  (25) 
-7.82

>  <cluster_rmsd>  (25) 
1.03

>  <cluster>  (25) 
1

$$$$

     RDKit          3D

 45 47  0  0  0  0  0  0  0  0999 V2000
  140.6690   70.9340  221.9690 O   0  0  0  0  0  0  0  0  0  0  0  0
  140.1410   72.0650  222.2420 C   0  0  0  0  0  0  0  0  0  0  0  0
  139.0110   72.0360  223.1370 N   0  0  0  0  0  0  0  0  0  0  0  0
  138.4560   70.8810  223.7100 C   0  0  0  0  0  0  0  0  0  0  0  0
  139.1220   69.9040  224.4930 C   0  0  0  0  0  0  0  0  0  0  0  0
  138.7790   68.6470  224.0640 O   0  0  0  0  0  0  0  0  0  0  0  0
  140.0070   69.7750  225.5410 N   0  0  0  0  0  0  0  0  0  0  0  0
  141.1550   70.7880  225.4600 C   0  0  0  0  0  0  0  0  0  0  0  0
  141.0570   71.6930  226.6420 C   0  0  0  0  0  0  0  0  0  0  0  0
  140.7010   71.0380  227.9320 C   0  0  0  0  0  0  0  0  0  0  0  0
  139.6210   69.9920  227.8440 C   0  0  0  0  0  0  0  0  0  0  0  0
  140.0970   69.0120  226.7290 C   0  0  1  0  0  0  0  0  0  0  0  0
  139.4190   67.7290  226.9130 C   0  0  0  0  0  0  0  0  0  0  0  0
  139.5890   67.0150  225.6770 O   0  0  0  0  0  0  0  0  0  0  0  0
  140.6480   73.3120  221.6820 C   0  0  0  0  0  0  0  0  0  0  0  0
  141.4690   73.2230  220.5770 C   0  0  0  0  0  0  0  0  0  0  0  0
  141.9450   74.4260  220.0550 C   0  0  0  0  0  0  0  0  0  0  0  0
  141.6070   75.6450  220.6220 C   0  0  0  0  0  0  0  0  0  0  0  0
  142.0720   76.8470  220.1160 C   0  0  0  0  0  0  0  0  0  0  0  0
  143.1190   76.8170  218.7120 Cl  0  0  0  0  0  0  0  0  0  0  0  0
  141.7230   78.0620  220.6970 C   0  0  0  0  0  0  0  0  0  0  0  0
  140.8920   78.0410  221.8080 C   0  0  0  0  0  0  0  0  0  0  0  0
  140.4070   76.8530  222.3430 C   0  0  0  0  0  0  0  0  0  0  0  0
  140.7790   75.6730  221.7320 C   0  0  0  0  0  0  0  0  0  0  0  0
  140.3220   74.4970  222.2320 N   0  0  0  0  0  0  0  0  0  0  0  0
  138.6200   73.0130  223.3310 H   0  0  0  0  0  0  0  0  0  0  0  0
  137.6412   71.2483  224.3512 H   0  0  0  0  0  0  0  0  0  0  0  0
  138.2995   70.2917  222.7945 H   0  0  0  0  0  0  0  0  0  0  0  0
  142.1200   70.2602  225.4732 H   0  0  0  0  0  0  0  0  0  0  0  0
  141.0867   71.3685  224.5282 H   0  0  0  0  0  0  0  0  0  0  0  0
  142.0318   72.1860  226.7714 H   0  0  0  0  0  0  0  0  0  0  0  0
  140.2315   72.3855  226.4206 H   0  0  0  0  0  0  0  0  0  0  0  0
  141.6069   70.5589  228.3317 H   0  0  0  0  0  0  0  0  0  0  0  0
  140.3029   71.8339  228.5786 H   0  0  0  0  0  0  0  0  0  0  0  0
  139.5153   69.4640  228.8032 H   0  0  0  0  0  0  0  0  0  0  0  0
  138.6386   70.4311  227.6158 H   0  0  0  0  0  0  0  0  0  0  0  0
  141.1354   68.6492  226.7274 H   0  0  0  0  0  0  0  0  0  0  0  0
  139.8750   67.1705  227.7437 H   0  0  0  0  0  0  0  0  0  0  0  0
  138.3555   67.8649  227.1589 H   0  0  0  0  0  0  0  0  0  0  0  0
  139.7370   67.6220  224.9290 H   0  0  0  0  0  0  0  0  0  0  0  0
  141.7346   72.2534  220.1305 H   0  0  0  0  0  0  0  0  0  0  0  0
  142.6032   74.4068  219.1739 H   0  0  0  0  0  0  0  0  0  0  0  0
  142.0954   79.0125  220.2872 H   0  0  0  0  0  0  0  0  0  0  0  0
  140.6083   78.9933  222.2798 H   0  0  0  0  0  0  0  0  0  0  0  0
  139.7485   76.8536  223.2242 H   0  0  0  0  0  0  0  0  0  0  0  0
  1  2  2  0
  2  3  1  0
  3  4  1  0
  4  5  1  0
  5  6  2  0
  5  7  1  0
  7  8  1  0
  8  9  1  0
  9 10  1  0
 10 11  1  0
 11 12  1  0
 12 13  1  0
 13 14  1  0
  2 15  1  0
 15 16  2  0
 16 17  1  0
 17 18  2  0
 18 19  1  0
 19 20  1  0
 19 21  2  0
 21 22  1  0
 22 23  2  0
 23 24  1  0
 24 25  2  0
 12  7  1  0
 25 15  1  0
 24 18  1  0
  3 26  1  0
  4 27  1  0
  4 28  1  0
  8 29  1  0
  8 30  1  0
  9 31  1  0
  9 32  1  0
 10 33  1  0
 10 34  1  0
 11 35  1  0
 11 36  1  0
 12 37  1  1
 13 38  1  0
 13 39  1  0
 14 40  1  0
 16 41  1  0
 17 42  1  0
 21 43  1  0
 22 44  1  0
 23 45  1  0
M  END
>  <smiles>  (26) 
O=C(NCC(=O)N1CCCC[C@H]1CO)c1ccc2c(Cl)cccc2n1

>  <score_type>  (26) 
oracle

>  <origin>  (26) 
autodockgpu

>  <m_score__min__energy>  (26) 
-8.4499999999999993

>  <m_primary>  (26) 
energy

>  <rmsd>  (26) 
8.316248284733044

>  <m_score__min__rmsd>  (26) 
8.316248284733044

>  <meeko>  (26) 
{"free_energy": -7.9, "intermolecular_energy": -9.69, "internal_energy": -2.02, "cluster_size": 36, "cluster_id": 1, "rank_in_cluster": 22}

>  <energy>  (26) 
-7.82

>  <cluster_rmsd>  (26) 
0.75

>  <cluster>  (26) 
1

$$$$

     RDKit          3D

 45 47  0  0  0  0  0  0  0  0999 V2000
  140.6570   70.9670  221.8860 O   0  0  0  0  0  0  0  0  0  0  0  0
  140.1700   72.1100  222.1880 C   0  0  0  0  0  0  0  0  0  0  0  0
  139.0710   72.1030  223.1210 N   0  0  0  0  0  0  0  0  0  0  0  0
  138.5040   70.9580  223.7010 C   0  0  0  0  0  0  0  0  0  0  0  0
  139.1590   69.9770  224.4880 C   0  0  0  0  0  0  0  0  0  0  0  0
  138.8120   68.7220  224.0570 O   0  0  0  0  0  0  0  0  0  0  0  0
  140.0370   69.8430  225.5410 N   0  0  0  0  0  0  0  0  0  0  0  0
  141.1570   70.8900  225.5000 C   0  0  0  0  0  0  0  0  0  0  0  0
  141.0220   71.7580  226.7060 C   0  0  0  0  0  0  0  0  0  0  0  0
  140.6740   71.0570  227.9740 C   0  0  0  0  0  0  0  0  0  0  0  0
  139.6240   69.9830  227.8440 C   0  0  0  0  0  0  0  0  0  0  0  0
  140.1390   69.0490  226.7080 C   0  0  1  0  0  0  0  0  0  0  0  0
  139.4950   67.7430  226.8480 C   0  0  0  0  0  0  0  0  0  0  0  0
  139.8180   67.0160  225.6510 O   0  0  0  0  0  0  0  0  0  0  0  0
  140.6930   73.3480  221.6230 C   0  0  0  0  0  0  0  0  0  0  0  0
  141.5470   73.2420  220.5450 C   0  0  0  0  0  0  0  0  0  0  0  0
  142.0380   74.4370  220.0170 C   0  0  0  0  0  0  0  0  0  0  0  0
  141.6810   75.6650  220.5540 C   0  0  0  0  0  0  0  0  0  0  0  0
  142.1600   76.8590  220.0420 C   0  0  0  0  0  0  0  0  0  0  0  0
  143.2500   76.8070  218.6710 Cl  0  0  0  0  0  0  0  0  0  0  0  0
  141.7920   78.0820  220.5920 C   0  0  0  0  0  0  0  0  0  0  0  0
  140.9270   78.0790  221.6770 C   0  0  0  0  0  0  0  0  0  0  0  0
  140.4270   76.8990  222.2170 C   0  0  0  0  0  0  0  0  0  0  0  0
  140.8190   75.7090  221.6370 C   0  0  0  0  0  0  0  0  0  0  0  0
  140.3480   74.5410  222.1430 N   0  0  0  0  0  0  0  0  0  0  0  0
  138.7140   73.0880  223.3370 H   0  0  0  0  0  0  0  0  0  0  0  0
  137.6947   71.3384  224.3416 H   0  0  0  0  0  0  0  0  0  0  0  0
  138.3398   70.3658  222.7887 H   0  0  0  0  0  0  0  0  0  0  0  0
  142.1364   70.3893  225.5083 H   0  0  0  0  0  0  0  0  0  0  0  0
  141.0813   71.4944  224.5841 H   0  0  0  0  0  0  0  0  0  0  0  0
  141.9807   72.2753  226.8585 H   0  0  0  0  0  0  0  0  0  0  0  0
  140.1784   72.4319  226.4960 H   0  0  0  0  0  0  0  0  0  0  0  0
  141.5896   70.5924  228.3688 H   0  0  0  0  0  0  0  0  0  0  0  0
  140.2486   71.8221  228.6400 H   0  0  0  0  0  0  0  0  0  0  0  0
  139.5229   69.4253  228.7867 H   0  0  0  0  0  0  0  0  0  0  0  0
  138.6322   70.4009  227.6168 H   0  0  0  0  0  0  0  0  0  0  0  0
  141.1874   68.7160  226.7079 H   0  0  0  0  0  0  0  0  0  0  0  0
  139.8841   67.2170  227.7322 H   0  0  0  0  0  0  0  0  0  0  0  0
  138.4074   67.8404  226.9811 H   0  0  0  0  0  0  0  0  0  0  0  0
  139.5230   67.4900  224.8530 H   0  0  0  0  0  0  0  0  0  0  0  0
  141.8268   72.2655  220.1230 H   0  0  0  0  0  0  0  0  0  0  0  0
  142.7227   74.4043  219.1567 H   0  0  0  0  0  0  0  0  0  0  0  0
  142.1761   79.0261  220.1782 H   0  0  0  0  0  0  0  0  0  0  0  0
  140.6278   79.0388  222.1234 H   0  0  0  0  0  0  0  0  0  0  0  0
  139.7420   76.9133  223.0776 H   0  0  0  0  0  0  0  0  0  0  0  0
  1  2  2  0
  2  3  1  0
  3  4  1  0
  4  5  1  0
  5  6  2  0
  5  7  1  0
  7  8  1  0
  8  9  1  0
  9 10  1  0
 10 11  1  0
 11 12  1  0
 12 13  1  0
 13 14  1  0
  2 15  1  0
 15 16  2  0
 16 17  1  0
 17 18  2  0
 18 19  1  0
 19 20  1  0
 19 21  2  0
 21 22  1  0
 22 23  2  0
 23 24  1  0
 24 25  2  0
 12  7  1  0
 25 15  1  0
 24 18  1  0
  3 26  1  0
  4 27  1  0
  4 28  1  0
  8 29  1  0
  8 30  1  0
  9 31  1  0
  9 32  1  0
 10 33  1  0
 10 34  1  0
 11 35  1  0
 11 36  1  0
 12 37  1  1
 13 38  1  0
 13 39  1  0
 14 40  1  0
 16 41  1  0
 17 42  1  0
 21 43  1  0
 22 44  1  0
 23 45  1  0
M  END
>  <smiles>  (27) 
O=C(NCC(=O)N1CCCC[C@H]1CO)c1ccc2c(Cl)cccc2n1

>  <score_type>  (27) 
oracle

>  <origin>  (27) 
autodockgpu

>  <m_score__min__energy>  (27) 
-8.4499999999999993

>  <m_primary>  (27) 
energy

>  <rmsd>  (27) 
8.329111442498824

>  <m_score__min__rmsd>  (27) 
8.329111442498824

>  <meeko>  (27) 
{"free_energy": -7.69, "intermolecular_energy": -9.48, "internal_energy": -2.1, "cluster_size": 36, "cluster_id": 1, "rank_in_cluster": 30}

>  <energy>  (27) 
-7.8

>  <cluster_rmsd>  (27) 
0.73

>  <cluster>  (27) 
1

$$$$

     RDKit          3D

 45 47  0  0  0  0  0  0  0  0999 V2000
  140.8860   72.6300  221.4850 O   0  0  0  0  0  0  0  0  0  0  0  0
  139.9950   72.6130  222.4020 C   0  0  0  0  0  0  0  0  0  0  0  0
  138.9290   73.5750  222.2660 N   0  0  0  0  0  0  0  0  0  0  0  0
  138.8070   74.5130  221.2300 C   0  0  0  0  0  0  0  0  0  0  0  0
  138.6190   75.9140  221.3530 C   0  0  0  0  0  0  0  0  0  0  0  0
  137.2880   76.1920  221.5360 O   0  0  0  0  0  0  0  0  0  0  0  0
  139.3130   77.1030  221.3600 N   0  0  0  0  0  0  0  0  0  0  0  0
  138.4200   78.2950  221.7230 C   0  0  0  0  0  0  0  0  0  0  0  0
  138.9140   78.8690  223.0090 C   0  0  0  0  0  0  0  0  0  0  0  0
  140.3940   78.9470  223.1570 C   0  0  0  0  0  0  0  0  0  0  0  0
  141.1520   77.7390  222.6690 C   0  0  0  0  0  0  0  0  0  0  0  0
  140.6580   77.5150  221.2080 C   0  0  1  0  0  0  0  0  0  0  0  0
  141.6610   76.7300  220.4900 C   0  0  0  0  0  0  0  0  0  0  0  0
  141.7690   75.4850  221.2020 O   0  0  0  0  0  0  0  0  0  0  0  0
  140.0510   71.6780  223.5190 C   0  0  0  0  0  0  0  0  0  0  0  0
  139.6310   70.3850  223.2850 C   0  0  0  0  0  0  0  0  0  0  0  0
  139.6920   69.5040  224.3650 C   0  0  0  0  0  0  0  0  0  0  0  0
  140.1510   69.9130  225.6080 C   0  0  0  0  0  0  0  0  0  0  0  0
  140.2160   69.0510  226.6890 C   0  0  0  0  0  0  0  0  0  0  0  0
  139.7010   67.3910  226.4710 Cl  0  0  0  0  0  0  0  0  0  0  0  0
  140.6800   69.4790  227.9290 C   0  0  0  0  0  0  0  0  0  0  0  0
  141.0770   70.8020  228.0590 C   0  0  0  0  0  0  0  0  0  0  0  0
  141.0250   71.6940  226.9950 C   0  0  0  0  0  0  0  0  0  0  0  0
  140.5590   71.2250  225.7840 C   0  0  0  0  0  0  0  0  0  0  0  0
  140.4960   72.0740  224.7260 N   0  0  0  0  0  0  0  0  0  0  0  0
  138.2140   73.5040  223.0580 H   0  0  0  0  0  0  0  0  0  0  0  0
  139.7299   74.4036  220.6414 H   0  0  0  0  0  0  0  0  0  0  0  0
  137.8071   74.2366  220.8643 H   0  0  0  0  0  0  0  0  0  0  0  0
  138.4730   79.0558  220.9303 H   0  0  0  0  0  0  0  0  0  0  0  0
  137.3742   77.9702  221.8272 H   0  0  0  0  0  0  0  0  0  0  0  0
  138.5113   79.8886  223.1005 H   0  0  0  0  0  0  0  0  0  0  0  0
  138.5706   78.1806  223.7953 H   0  0  0  0  0  0  0  0  0  0  0  0
  140.7470   79.8218  222.5912 H   0  0  0  0  0  0  0  0  0  0  0  0
  140.5898   79.0145  224.2373 H   0  0  0  0  0  0  0  0  0  0  0  0
  142.2352   77.9297  222.6858 H   0  0  0  0  0  0  0  0  0  0  0  0
  140.9771   76.8577  223.3037 H   0  0  0  0  0  0  0  0  0  0  0  0
  140.5927   78.3686  220.5172 H   0  0  0  0  0  0  0  0  0  0  0  0
  141.3378   76.5517  219.4538 H   0  0  0  0  0  0  0  0  0  0  0  0
  142.6270   77.2541  220.4429 H   0  0  0  0  0  0  0  0  0  0  0  0
  142.2660   75.5900  222.0330 H   0  0  0  0  0  0  0  0  0  0  0  0
  139.2667   70.0651  222.2976 H   0  0  0  0  0  0  0  0  0  0  0  0
  139.3688   68.4616  224.2275 H   0  0  0  0  0  0  0  0  0  0  0  0
  140.7306   68.7873  228.7828 H   0  0  0  0  0  0  0  0  0  0  0  0
  141.4440   71.1554  229.0339 H   0  0  0  0  0  0  0  0  0  0  0  0
  141.3448   72.7397  227.1142 H   0  0  0  0  0  0  0  0  0  0  0  0
  1  2  2  0
  2  3  1  0
  3  4  1  0
  4  5  1  0
  5  6  2  0
  5  7  1  0
  7  8  1  0
  8  9  1  0
  9 10  1  0
 10 11  1  0
 11 12  1  0
 12 13  1  0
 13 14  1  0
  2 15  1  0
 15 16  2  0
 16 17  1  0
 17 18  2  0
 18 19  1  0
 19 20  1  0
 19 21  2  0
 21 22  1  0
 22 23  2  0
 23 24  1  0
 24 25  2  0
 12  7  1  0
 25 15  1  0
 24 18  1  0
  3 26  1  0
  4 27  1  0
  4 28  1  0
  8 29  1  0
  8 30  1  0
  9 31  1  0
  9 32  1  0
 10 33  1  0
 10 34  1  0
 11 35  1  0
 11 36  1  0
 12 37  1  6
 13 38  1  0
 13 39  1  0
 14 40  1  0
 16 41  1  0
 17 42  1  0
 21 43  1  0
 22 44  1  0
 23 45  1  0
M  END
>  <smiles>  (28) 
O=C(NCC(=O)N1CCCC[C@H]1CO)c1ccc2c(Cl)cccc2n1

>  <score_type>  (28) 
oracle

>  <origin>  (28) 
autodockgpu

>  <m_score__min__energy>  (28) 
-8.4499999999999993

>  <m_primary>  (28) 
energy

>  <rmsd>  (28) 
2.9057339056756155

>  <m_score__min__rmsd>  (28) 
2.9057339056756155

>  <meeko>  (28) 
{"free_energy": -7.46, "intermolecular_energy": -9.25, "internal_energy": -1.1, "cluster_size": 5, "cluster_id": 2, "rank_in_cluster": 1}

>  <energy>  (28) 
-7.74

>  <cluster_rmsd>  (28) 
0.96

>  <cluster>  (28) 
1

$$$$

     RDKit          3D

 45 47  0  0  0  0  0  0  0  0999 V2000
  138.0580   72.7580  222.5150 O   0  0  0  0  0  0  0  0  0  0  0  0
  139.3150   72.6960  222.2920 C   0  0  0  0  0  0  0  0  0  0  0  0
  139.9680   71.4740  222.6910 N   0  0  0  0  0  0  0  0  0  0  0  0
  139.3400   70.3770  223.3000 C   0  0  0  0  0  0  0  0  0  0  0  0
  139.4400   69.9710  224.6560 C   0  0  0  0  0  0  0  0  0  0  0  0
  138.2040   69.6150  225.1300 O   0  0  0  0  0  0  0  0  0  0  0  0
  140.3560   69.8020  225.6710 N   0  0  0  0  0  0  0  0  0  0  0  0
  141.1930   71.0650  225.9140 C   0  0  0  0  0  0  0  0  0  0  0  0
  140.8910   71.5610  227.2890 C   0  0  0  0  0  0  0  0  0  0  0  0
  140.7580   70.5140  228.3410 C   0  0  0  0  0  0  0  0  0  0  0  0
  139.9910   69.2840  227.9280 C   0  0  0  0  0  0  0  0  0  0  0  0
  140.6780   68.8000  226.6160 C   0  0  1  0  0  0  0  0  0  0  0  0
  140.3690   67.3840  226.4200 C   0  0  0  0  0  0  0  0  0  0  0  0
  138.9920   67.3360  226.0110 O   0  0  0  0  0  0  0  0  0  0  0  0
  140.0460   73.7930  221.6720 C   0  0  0  0  0  0  0  0  0  0  0  0
  139.3770   74.9890  221.5070 C   0  0  0  0  0  0  0  0  0  0  0  0
  140.0930   76.0280  220.9120 C   0  0  0  0  0  0  0  0  0  0  0  0
  141.4090   75.8620  220.5080 C   0  0  0  0  0  0  0  0  0  0  0  0
  142.1320   76.8830  219.9160 C   0  0  0  0  0  0  0  0  0  0  0  0
  141.3520   78.4330  219.6740 Cl  0  0  0  0  0  0  0  0  0  0  0  0
  143.4530   76.7000  219.5180 C   0  0  0  0  0  0  0  0  0  0  0  0
  144.0330   75.4570  219.7280 C   0  0  0  0  0  0  0  0  0  0  0  0
  143.3370   74.4090  220.3190 C   0  0  0  0  0  0  0  0  0  0  0  0
  142.0300   74.6390  220.6990 C   0  0  0  0  0  0  0  0  0  0  0  0
  141.3240   73.6340  221.2790 N   0  0  0  0  0  0  0  0  0  0  0  0
  141.0150   71.4820  222.4710 H   0  0  0  0  0  0  0  0  0  0  0  0
  138.2649   70.5398  223.1334 H   0  0  0  0  0  0  0  0  0  0  0  0
  139.9186   69.5659  222.8337 H   0  0  0  0  0  0  0  0  0  0  0  0
  142.2633   70.8254  225.8303 H   0  0  0  0  0  0  0  0  0  0  0  0
  140.9482   71.8351  225.1676 H   0  0  0  0  0  0  0  0  0  0  0  0
  141.7030   72.2397  227.5890 H   0  0  0  0  0  0  0  0  0  0  0  0
  139.9054   72.0449  227.2225 H   0  0  0  0  0  0  0  0  0  0  0  0
  141.7694   70.2004  228.6390 H   0  0  0  0  0  0  0  0  0  0  0  0
  140.1821   70.9732  229.1580 H   0  0  0  0  0  0  0  0  0  0  0  0
  140.0552   68.5092  228.7062 H   0  0  0  0  0  0  0  0  0  0  0  0
  138.9216   69.4950  227.7801 H   0  0  0  0  0  0  0  0  0  0  0  0
  141.7750   68.7366  226.5662 H   0  0  0  0  0  0  0  0  0  0  0  0
  141.0153   66.9554  225.6399 H   0  0  0  0  0  0  0  0  0  0  0  0
  140.5390   66.8020  227.3378 H   0  0  0  0  0  0  0  0  0  0  0  0
  138.5940   68.2250  225.9870 H   0  0  0  0  0  0  0  0  0  0  0  0
  138.3327   75.1164  221.8282 H   0  0  0  0  0  0  0  0  0  0  0  0
  139.6025   77.0008  220.7599 H   0  0  0  0  0  0  0  0  0  0  0  0
  144.0212   77.5175  219.0502 H   0  0  0  0  0  0  0  0  0  0  0  0
  145.0758   75.2961  219.4171 H   0  0  0  0  0  0  0  0  0  0  0  0
  143.8116   73.4296  220.4785 H   0  0  0  0  0  0  0  0  0  0  0  0
  1  2  2  0
  2  3  1  0
  3  4  1  0
  4  5  1  0
  5  6  2  0
  5  7  1  0
  7  8  1  0
  8  9  1  0
  9 10  1  0
 10 11  1  0
 11 12  1  0
 12 13  1  0
 13 14  1  0
  2 15  1  0
 15 16  2  0
 16 17  1  0
 17 18  2  0
 18 19  1  0
 19 20  1  0
 19 21  2  0
 21 22  1  0
 22 23  2  0
 23 24  1  0
 24 25  2  0
 12  7  1  0
 25 15  1  0
 24 18  1  0
  3 26  1  0
  4 27  1  0
  4 28  1  0
  8 29  1  0
  8 30  1  0
  9 31  1  0
  9 32  1  0
 10 33  1  0
 10 34  1  0
 11 35  1  0
 11 36  1  0
 12 37  1  1
 13 38  1  0
 13 39  1  0
 14 40  1  0
 16 41  1  0
 17 42  1  0
 21 43  1  0
 22 44  1  0
 23 45  1  0
M  END
>  <smiles>  (29) 
O=C(NCC(=O)N1CCCC[C@H]1CO)c1ccc2c(Cl)cccc2n1

>  <score_type>  (29) 
oracle

>  <origin>  (29) 
autodockgpu

>  <m_score__min__energy>  (29) 
-8.4499999999999993

>  <m_primary>  (29) 
energy

>  <rmsd>  (29) 
8.57750818255717

>  <m_score__min__rmsd>  (29) 
8.57750818255717

>  <meeko>  (29) 
{"free_energy": -6.67, "intermolecular_energy": -8.46, "internal_energy": -1.97, "cluster_size": 36, "cluster_id": 1, "rank_in_cluster": 36}

>  <energy>  (29) 
-7.74

>  <cluster_rmsd>  (29) 
0.75

>  <cluster>  (29) 
1

$$$$

     RDKit          3D

 45 47  0  0  0  0  0  0  0  0999 V2000
  140.4970   70.8550  221.6590 O   0  0  0  0  0  0  0  0  0  0  0  0
  140.1030   71.9960  222.0800 C   0  0  0  0  0  0  0  0  0  0  0  0
  139.0810   71.9770  223.0970 N   0  0  0  0  0  0  0  0  0  0  0  0
  138.4930   70.8240  223.6380 C   0  0  0  0  0  0  0  0  0  0  0  0
  138.9060   70.1050  224.7890 C   0  0  0  0  0  0  0  0  0  0  0  0
  137.9080   69.2560  225.1940 O   0  0  0  0  0  0  0  0  0  0  0  0
  139.9730   69.9570  225.6470 N   0  0  0  0  0  0  0  0  0  0  0  0
  141.0170   71.0660  225.4730 C   0  0  0  0  0  0  0  0  0  0  0  0
  141.0760   71.8490  226.7420 C   0  0  0  0  0  0  0  0  0  0  0  0
  141.0050   71.0520  227.9990 C   0  0  0  0  0  0  0  0  0  0  0  0
  139.9980   69.9320  227.9920 C   0  0  0  0  0  0  0  0  0  0  0  0
  140.3280   69.1000  226.7160 C   0  0  1  0  0  0  0  0  0  0  0  0
  139.7810   67.7540  226.8800 C   0  0  0  0  0  0  0  0  0  0  0  0
  139.5760   67.2480  225.5500 O   0  0  0  0  0  0  0  0  0  0  0  0
  140.6540   73.2440  221.5650 C   0  0  0  0  0  0  0  0  0  0  0  0
  141.5160   73.1610  220.4910 C   0  0  0  0  0  0  0  0  0  0  0  0
  142.0330   74.3650  220.0120 C   0  0  0  0  0  0  0  0  0  0  0  0
  141.6950   75.5790  220.5900 C   0  0  0  0  0  0  0  0  0  0  0  0
  142.2000   76.7810  220.1250 C   0  0  0  0  0  0  0  0  0  0  0  0
  143.3010   76.7590  218.7620 Cl  0  0  0  0  0  0  0  0  0  0  0  0
  141.8500   77.9910  220.7170 C   0  0  0  0  0  0  0  0  0  0  0  0
  140.9760   77.9640  221.7940 C   0  0  0  0  0  0  0  0  0  0  0  0
  140.4500   76.7760  222.2860 C   0  0  0  0  0  0  0  0  0  0  0  0
  140.8250   75.6000  221.6660 C   0  0  0  0  0  0  0  0  0  0  0  0
  140.3270   74.4240  222.1250 N   0  0  0  0  0  0  0  0  0  0  0  0
  138.8010   72.9600  223.4110 H   0  0  0  0  0  0  0  0  0  0  0  0
  137.4508   71.1097  223.8436 H   0  0  0  0  0  0  0  0  0  0  0  0
  138.7918   70.0997  222.8659 H   0  0  0  0  0  0  0  0  0  0  0  0
  142.0012   70.6221  225.2625 H   0  0  0  0  0  0  0  0  0  0  0  0
  140.7416   71.7208  224.6331 H   0  0  0  0  0  0  0  0  0  0  0  0
  142.0232   72.4083  226.7499 H   0  0  0  0  0  0  0  0  0  0  0  0
  140.1800   72.4871  226.7416 H   0  0  0  0  0  0  0  0  0  0  0  0
  141.9981   70.6157  228.1818 H   0  0  0  0  0  0  0  0  0  0  0  0
  140.6802   71.7497  228.7849 H   0  0  0  0  0  0  0  0  0  0  0  0
  140.1025   69.3126  228.8950 H   0  0  0  0  0  0  0  0  0  0  0  0
  138.9638   70.3066  227.9847 H   0  0  0  0  0  0  0  0  0  0  0  0
  141.3710   68.8273  226.4972 H   0  0  0  0  0  0  0  0  0  0  0  0
  140.4911   67.1163  227.4269 H   0  0  0  0  0  0  0  0  0  0  0  0
  138.8444   67.7659  227.4567 H   0  0  0  0  0  0  0  0  0  0  0  0
  138.9950   67.8330  225.0300 H   0  0  0  0  0  0  0  0  0  0  0  0
  141.7819   72.1955  220.0359 H   0  0  0  0  0  0  0  0  0  0  0  0
  142.7243   74.3508  219.1565 H   0  0  0  0  0  0  0  0  0  0  0  0
  142.2551   78.9422  220.3414 H   0  0  0  0  0  0  0  0  0  0  0  0
  140.6907   78.9122  222.2731 H   0  0  0  0  0  0  0  0  0  0  0  0
  139.7578   76.7720  223.1409 H   0  0  0  0  0  0  0  0  0  0  0  0
  1  2  2  0
  2  3  1  0
  3  4  1  0
  4  5  1  0
  5  6  2  0
  5  7  1  0
  7  8  1  0
  8  9  1  0
  9 10  1  0
 10 11  1  0
 11 12  1  0
 12 13  1  0
 13 14  1  0
  2 15  1  0
 15 16  2  0
 16 17  1  0
 17 18  2  0
 18 19  1  0
 19 20  1  0
 19 21  2  0
 21 22  1  0
 22 23  2  0
 23 24  1  0
 24 25  2  0
 12  7  1  0
 25 15  1  0
 24 18  1  0
  3 26  1  0
  4 27  1  0
  4 28  1  0
  8 29  1  0
  8 30  1  0
  9 31  1  0
  9 32  1  0
 10 33  1  0
 10 34  1  0
 11 35  1  0
 11 36  1  0
 12 37  1  6
 13 38  1  0
 13 39  1  0
 14 40  1  0
 16 41  1  0
 17 42  1  0
 21 43  1  0
 22 44  1  0
 23 45  1  0
M  END
>  <smiles>  (30) 
O=C(NCC(=O)N1CCCC[C@H]1CO)c1ccc2c(Cl)cccc2n1

>  <score_type>  (30) 
oracle

>  <origin>  (30) 
autodockgpu

>  <m_score__min__energy>  (30) 
-8.4499999999999993

>  <m_primary>  (30) 
energy

>  <rmsd>  (30) 
8.276470267592297

>  <m_score__min__rmsd>  (30) 
8.276470267592297

>  <meeko>  (30) 
{"free_energy": -8.04, "intermolecular_energy": -9.83, "internal_energy": -2.04, "cluster_size": 36, "cluster_id": 1, "rank_in_cluster": 12}

>  <energy>  (30) 
-7.69

>  <cluster_rmsd>  (30) 
0.72

>  <cluster>  (30) 
1

$$$$

     RDKit          3D

 45 47  0  0  0  0  0  0  0  0999 V2000
  140.6570   71.0030  221.7410 O   0  0  0  0  0  0  0  0  0  0  0  0
  140.1630   72.1210  222.1160 C   0  0  0  0  0  0  0  0  0  0  0  0
  139.1220   72.0500  223.1110 N   0  0  0  0  0  0  0  0  0  0  0  0
  138.6170   70.8700  223.6770 C   0  0  0  0  0  0  0  0  0  0  0  0
  139.3320   69.8960  224.4200 C   0  0  0  0  0  0  0  0  0  0  0  0
  139.1850   68.6620  223.8380 O   0  0  0  0  0  0  0  0  0  0  0  0
  140.1370   69.7560  225.5280 N   0  0  0  0  0  0  0  0  0  0  0  0
  141.3130   70.7400  225.5200 C   0  0  0  0  0  0  0  0  0  0  0  0
  141.1550   71.6590  226.6850 C   0  0  0  0  0  0  0  0  0  0  0  0
  140.6930   71.0260  227.9520 C   0  0  0  0  0  0  0  0  0  0  0  0
  139.5950   70.0060  227.7960 C   0  0  0  0  0  0  0  0  0  0  0  0
  140.1240   69.0030  226.7260 C   0  0  1  0  0  0  0  0  0  0  0  0
  139.4030   67.7400  226.8720 C   0  0  0  0  0  0  0  0  0  0  0  0
  139.5670   67.0470  225.6230 O   0  0  0  0  0  0  0  0  0  0  0  0
  140.6240   73.3920  221.5720 C   0  0  0  0  0  0  0  0  0  0  0  0
  141.4040   73.3500  220.4350 C   0  0  0  0  0  0  0  0  0  0  0  0
  141.8360   74.5760  219.9280 C   0  0  0  0  0  0  0  0  0  0  0  0
  141.4940   75.7730  220.5400 C   0  0  0  0  0  0  0  0  0  0  0  0
  141.9150   76.9970  220.0490 C   0  0  0  0  0  0  0  0  0  0  0  0
  142.9100   77.0270  218.6070 Cl  0  0  0  0  0  0  0  0  0  0  0  0
  141.5630   78.1880  220.6760 C   0  0  0  0  0  0  0  0  0  0  0  0
  140.7740   78.1200  221.8160 C   0  0  0  0  0  0  0  0  0  0  0  0
  140.3340   76.9090  222.3350 C   0  0  0  0  0  0  0  0  0  0  0  0
  140.7080   75.7530  221.6790 C   0  0  0  0  0  0  0  0  0  0  0  0
  140.2940   74.5550  222.1650 N   0  0  0  0  0  0  0  0  0  0  0  0
  138.7570   73.0170  223.3870 H   0  0  0  0  0  0  0  0  0  0  0  0
  137.8127   71.2024  224.3497 H   0  0  0  0  0  0  0  0  0  0  0  0
  138.4496   70.2944  222.7547 H   0  0  0  0  0  0  0  0  0  0  0  0
  142.2611   70.1889  225.6055 H   0  0  0  0  0  0  0  0  0  0  0  0
  141.3248   71.3128  224.5810 H   0  0  0  0  0  0  0  0  0  0  0  0
  142.1304   72.1292  226.8787 H   0  0  0  0  0  0  0  0  0  0  0  0
  140.3647   72.3692  226.4003 H   0  0  0  0  0  0  0  0  0  0  0  0
  141.5561   70.5284  228.4183 H   0  0  0  0  0  0  0  0  0  0  0  0
  140.2712   71.8378  228.5628 H   0  0  0  0  0  0  0  0  0  0  0  0
  139.4078   69.4907  228.7497 H   0  0  0  0  0  0  0  0  0  0  0  0
  138.6429   70.4671  227.4947 H   0  0  0  0  0  0  0  0  0  0  0  0
  141.1505   68.6149  226.8013 H   0  0  0  0  0  0  0  0  0  0  0  0
  139.8289   67.1492  227.6964 H   0  0  0  0  0  0  0  0  0  0  0  0
  138.3410   67.9055  227.1060 H   0  0  0  0  0  0  0  0  0  0  0  0
  139.8930   67.6420  224.9240 H   0  0  0  0  0  0  0  0  0  0  0  0
  141.6718   72.3984  219.9526 H   0  0  0  0  0  0  0  0  0  0  0  0
  142.4614   74.5938  219.0233 H   0  0  0  0  0  0  0  0  0  0  0  0
  141.9006   79.1568  220.2793 H   0  0  0  0  0  0  0  0  0  0  0  0
  140.4886   79.0532  222.3237 H   0  0  0  0  0  0  0  0  0  0  0  0
  139.7082   76.8721  223.2389 H   0  0  0  0  0  0  0  0  0  0  0  0
  1  2  2  0
  2  3  1  0
  3  4  1  0
  4  5  1  0
  5  6  2  0
  5  7  1  0
  7  8  1  0
  8  9  1  0
  9 10  1  0
 10 11  1  0
 11 12  1  0
 12 13  1  0
 13 14  1  0
  2 15  1  0
 15 16  2  0
 16 17  1  0
 17 18  2  0
 18 19  1  0
 19 20  1  0
 19 21  2  0
 21 22  1  0
 22 23  2  0
 23 24  1  0
 24 25  2  0
 12  7  1  0
 25 15  1  0
 24 18  1  0
  3 26  1  0
  4 27  1  0
  4 28  1  0
  8 29  1  0
  8 30  1  0
  9 31  1  0
  9 32  1  0
 10 33  1  0
 10 34  1  0
 11 35  1  0
 11 36  1  0
 12 37  1  1
 13 38  1  0
 13 39  1  0
 14 40  1  0
 16 41  1  0
 17 42  1  0
 21 43  1  0
 22 44  1  0
 23 45  1  0
M  END
>  <smiles>  (31) 
O=C(NCC(=O)N1CCCC[C@H]1CO)c1ccc2c(Cl)cccc2n1

>  <score_type>  (31) 
oracle

>  <origin>  (31) 
autodockgpu

>  <m_score__min__energy>  (31) 
-8.4499999999999993

>  <m_primary>  (31) 
energy

>  <rmsd>  (31) 
8.362442312225536

>  <m_score__min__rmsd>  (31) 
8.362442312225536

>  <meeko>  (31) 
{"free_energy": -7.82, "intermolecular_energy": -9.6, "internal_energy": -2.02, "cluster_size": 36, "cluster_id": 1, "rank_in_cluster": 26}

>  <energy>  (31) 
-7.46

>  <cluster_rmsd>  (31) 
1.19

>  <cluster>  (31) 
1

$$$$

     RDKit          3D

 45 47  0  0  0  0  0  0  0  0999 V2000
  140.4510   70.8260  221.8650 O   0  0  0  0  0  0  0  0  0  0  0  0
  140.0090   71.9730  222.2120 C   0  0  0  0  0  0  0  0  0  0  0  0
  138.9190   71.9720  223.1560 N   0  0  0  0  0  0  0  0  0  0  0  0
  138.3160   70.8280  223.7010 C   0  0  0  0  0  0  0  0  0  0  0  0
  138.8220   69.9960  224.7330 C   0  0  0  0  0  0  0  0  0  0  0  0
  137.9740   68.9380  224.9390 O   0  0  0  0  0  0  0  0  0  0  0  0
  139.8810   69.8760  225.6040 N   0  0  0  0  0  0  0  0  0  0  0  0
  140.9600   70.9370  225.3570 C   0  0  0  0  0  0  0  0  0  0  0  0
  141.0400   71.8050  226.5680 C   0  0  0  0  0  0  0  0  0  0  0  0
  140.9420   71.1020  227.8770 C   0  0  0  0  0  0  0  0  0  0  0  0
  139.9000   70.0150  227.9450 C   0  0  0  0  0  0  0  0  0  0  0  0
  140.2070   69.0850  226.7320 C   0  0  1  0  0  0  0  0  0  0  0  0
  139.6180   67.7720  226.9880 C   0  0  0  0  0  0  0  0  0  0  0  0
  139.5800   67.1040  225.7160 O   0  0  0  0  0  0  0  0  0  0  0  0
  140.5710   73.2110  221.6870 C   0  0  0  0  0  0  0  0  0  0  0  0
  141.4590   73.1090  220.6360 C   0  0  0  0  0  0  0  0  0  0  0  0
  141.9870   74.3040  220.1460 C   0  0  0  0  0  0  0  0  0  0  0  0
  141.6340   75.5290  220.6920 C   0  0  0  0  0  0  0  0  0  0  0  0
  142.1500   76.7220  220.2180 C   0  0  0  0  0  0  0  0  0  0  0  0
  143.2840   76.6750  218.8830 Cl  0  0  0  0  0  0  0  0  0  0  0  0
  141.7850   77.9430  220.7770 C   0  0  0  0  0  0  0  0  0  0  0  0
  140.8850   77.9360  221.8330 C   0  0  0  0  0  0  0  0  0  0  0  0
  140.3480   76.7560  222.3350 C   0  0  0  0  0  0  0  0  0  0  0  0
  140.7380   75.5700  221.7470 C   0  0  0  0  0  0  0  0  0  0  0  0
  140.2300   74.4020  222.2160 N   0  0  0  0  0  0  0  0  0  0  0  0
  138.6000   72.9610  223.4120 H   0  0  0  0  0  0  0  0  0  0  0  0
  137.3397   71.1739  224.0716 H   0  0  0  0  0  0  0  0  0  0  0  0
  138.4435   70.1435  222.8494 H   0  0  0  0  0  0  0  0  0  0  0  0
  141.9303   70.4490  225.1829 H   0  0  0  0  0  0  0  0  0  0  0  0
  140.7078   71.5391  224.4716 H   0  0  0  0  0  0  0  0  0  0  0  0
  142.0038   72.3345  226.5406 H   0  0  0  0  0  0  0  0  0  0  0  0
  140.1636   72.4680  226.5187 H   0  0  0  0  0  0  0  0  0  0  0  0
  141.9207   70.6493  228.0943 H   0  0  0  0  0  0  0  0  0  0  0  0
  140.6375   71.8632  228.6104 H   0  0  0  0  0  0  0  0  0  0  0  0
  139.9834   69.4581  228.8899 H   0  0  0  0  0  0  0  0  0  0  0  0
  138.8778   70.4197  227.9070 H   0  0  0  0  0  0  0  0  0  0  0  0
  141.2412   68.7649  226.5371 H   0  0  0  0  0  0  0  0  0  0  0  0
  140.2379   67.2064  227.6991 H   0  0  0  0  0  0  0  0  0  0  0  0
  138.6143   67.8582  227.4297 H   0  0  0  0  0  0  0  0  0  0  0  0
  139.6930   67.7300  224.9780 H   0  0  0  0  0  0  0  0  0  0  0  0
  141.7366   72.1352  220.2063 H   0  0  0  0  0  0  0  0  0  0  0  0
  142.6990   74.2738  219.3081 H   0  0  0  0  0  0  0  0  0  0  0  0
  142.1984   78.8871  220.3925 H   0  0  0  0  0  0  0  0  0  0  0  0
  140.5874   78.8929  222.2866 H   0  0  0  0  0  0  0  0  0  0  0  0
  139.6358   76.7673  223.1732 H   0  0  0  0  0  0  0  0  0  0  0  0
  1  2  2  0
  2  3  1  0
  3  4  1  0
  4  5  1  0
  5  6  2  0
  5  7  1  0
  7  8  1  0
  8  9  1  0
  9 10  1  0
 10 11  1  0
 11 12  1  0
 12 13  1  0
 13 14  1  0
  2 15  1  0
 15 16  2  0
 16 17  1  0
 17 18  2  0
 18 19  1  0
 19 20  1  0
 19 21  2  0
 21 22  1  0
 22 23  2  0
 23 24  1  0
 24 25  2  0
 12  7  1  0
 25 15  1  0
 24 18  1  0
  3 26  1  0
  4 27  1  0
  4 28  1  0
  8 29  1  0
  8 30  1  0
  9 31  1  0
  9 32  1  0
 10 33  1  0
 10 34  1  0
 11 35  1  0
 11 36  1  0
 12 37  1  6
 13 38  1  0
 13 39  1  0
 14 40  1  0
 16 41  1  0
 17 42  1  0
 21 43  1  0
 22 44  1  0
 23 45  1  0
M  END
>  <smiles>  (32) 
O=C(NCC(=O)N1CCCC[C@H]1CO)c1ccc2c(Cl)cccc2n1

>  <score_type>  (32) 
oracle

>  <origin>  (32) 
autodockgpu

>  <m_score__min__energy>  (32) 
-8.4499999999999993

>  <m_primary>  (32) 
energy

>  <rmsd>  (32) 
8.240241751444794

>  <m_score__min__rmsd>  (32) 
8.240241751444794

>  <meeko>  (32) 
{"free_energy": -8.05, "intermolecular_energy": -9.84, "internal_energy": -2.02, "cluster_size": 36, "cluster_id": 1, "rank_in_cluster": 9}

>  <energy>  (32) 
-7.3

>  <cluster_rmsd>  (32) 
1.77

>  <cluster>  (32) 
1

$$$$

     RDKit          3D

 45 47  0  0  0  0  0  0  0  0999 V2000
  140.6870   70.9070  221.7810 O   0  0  0  0  0  0  0  0  0  0  0  0
  140.2040   72.0450  222.1080 C   0  0  0  0  0  0  0  0  0  0  0  0
  139.1090   72.0210  223.0460 N   0  0  0  0  0  0  0  0  0  0  0  0
  138.5420   70.8660  223.6050 C   0  0  0  0  0  0  0  0  0  0  0  0
  138.9140   70.2220  224.8140 C   0  0  0  0  0  0  0  0  0  0  0  0
  137.8390   69.5490  225.3350 O   0  0  0  0  0  0  0  0  0  0  0  0
  139.9900   70.0310  225.6520 N   0  0  0  0  0  0  0  0  0  0  0  0
  141.0090   71.1730  225.5590 C   0  0  0  0  0  0  0  0  0  0  0  0
  141.0600   71.8560  226.8840 C   0  0  0  0  0  0  0  0  0  0  0  0
  141.0160   70.9620  228.0760 C   0  0  0  0  0  0  0  0  0  0  0  0
  140.0330   69.8240  227.9870 C   0  0  0  0  0  0  0  0  0  0  0  0
  140.3720   69.1010  226.6480 C   0  0  1  0  0  0  0  0  0  0  0  0
  139.8550   67.7350  226.7100 C   0  0  0  0  0  0  0  0  0  0  0  0
  139.4910   67.3910  225.3630 O   0  0  0  0  0  0  0  0  0  0  0  0
  140.7270   73.2920  221.5670 C   0  0  0  0  0  0  0  0  0  0  0  0
  141.5790   73.2060  220.4850 C   0  0  0  0  0  0  0  0  0  0  0  0
  142.0700   74.4110  219.9800 C   0  0  0  0  0  0  0  0  0  0  0  0
  141.7160   75.6290  220.5400 C   0  0  0  0  0  0  0  0  0  0  0  0
  142.1950   76.8320  220.0500 C   0  0  0  0  0  0  0  0  0  0  0  0
  143.2820   76.8060  218.6770 Cl  0  0  0  0  0  0  0  0  0  0  0  0
  141.8290   78.0450  220.6250 C   0  0  0  0  0  0  0  0  0  0  0  0
  140.9660   78.0210  221.7110 C   0  0  0  0  0  0  0  0  0  0  0  0
  140.4670   76.8320  222.2290 C   0  0  0  0  0  0  0  0  0  0  0  0
  140.8560   75.6530  221.6260 C   0  0  0  0  0  0  0  0  0  0  0  0
  140.3850   74.4760  222.1100 N   0  0  0  0  0  0  0  0  0  0  0  0
  138.7560   73.0020  223.2840 H   0  0  0  0  0  0  0  0  0  0  0  0
  137.4765   71.1083  223.7314 H   0  0  0  0  0  0  0  0  0  0  0  0
  138.9230   70.1228  222.8891 H   0  0  0  0  0  0  0  0  0  0  0  0
  142.0010   70.7684  225.3094 H   0  0  0  0  0  0  0  0  0  0  0  0
  140.7139   71.8847  224.7739 H   0  0  0  0  0  0  0  0  0  0  0  0
  141.9946   72.4343  226.9300 H   0  0  0  0  0  0  0  0  0  0  0  0
  140.1501   72.4718  226.9383 H   0  0  0  0  0  0  0  0  0  0  0  0
  142.0196   70.5347  228.2184 H   0  0  0  0  0  0  0  0  0  0  0  0
  140.6827   71.5889  228.9162 H   0  0  0  0  0  0  0  0  0  0  0  0
  140.1570   69.1387  228.8385 H   0  0  0  0  0  0  0  0  0  0  0  0
  138.9910   70.1753  228.0143 H   0  0  0  0  0  0  0  0  0  0  0  0
  141.4187   68.8689  226.4022 H   0  0  0  0  0  0  0  0  0  0  0  0
  140.6294   67.0493  227.0842 H   0  0  0  0  0  0  0  0  0  0  0  0
  138.9960   67.6585  227.3929 H   0  0  0  0  0  0  0  0  0  0  0  0
  138.7050   67.8850  225.0670 H   0  0  0  0  0  0  0  0  0  0  0  0
  141.8569   72.2377  220.0432 H   0  0  0  0  0  0  0  0  0  0  0  0
  142.7533   74.3940  219.1182 H   0  0  0  0  0  0  0  0  0  0  0  0
  142.2133   78.9968  220.2294 H   0  0  0  0  0  0  0  0  0  0  0  0
  140.6677   78.9721  222.1762 H   0  0  0  0  0  0  0  0  0  0  0  0
  139.7842   76.8305  223.0915 H   0  0  0  0  0  0  0  0  0  0  0  0
  1  2  2  0
  2  3  1  0
  3  4  1  0
  4  5  1  0
  5  6  2  0
  5  7  1  0
  7  8  1  0
  8  9  1  0
  9 10  1  0
 10 11  1  0
 11 12  1  0
 12 13  1  0
 13 14  1  0
  2 15  1  0
 15 16  2  0
 16 17  1  0
 17 18  2  0
 18 19  1  0
 19 20  1  0
 19 21  2  0
 21 22  1  0
 22 23  2  0
 23 24  1  0
 24 25  2  0
 12  7  1  0
 25 15  1  0
 24 18  1  0
  3 26  1  0
  4 27  1  0
  4 28  1  0
  8 29  1  0
  8 30  1  0
  9 31  1  0
  9 32  1  0
 10 33  1  0
 10 34  1  0
 11 35  1  0
 11 36  1  0
 12 37  1  1
 13 38  1  0
 13 39  1  0
 14 40  1  0
 16 41  1  0
 17 42  1  0
 21 43  1  0
 22 44  1  0
 23 45  1  0
M  END
>  <smiles>  (33) 
O=C(NCC(=O)N1CCCC[C@H]1CO)c1ccc2c(Cl)cccc2n1

>  <score_type>  (33) 
oracle

>  <origin>  (33) 
autodockgpu

>  <m_score__min__energy>  (33) 
-8.4499999999999993

>  <m_primary>  (33) 
energy

>  <rmsd>  (33) 
8.298877226875012

>  <m_score__min__rmsd>  (33) 
8.298877226875012

>  <meeko>  (33) 
{"free_energy": -8.02, "intermolecular_energy": -9.81, "internal_energy": -2.05, "cluster_size": 36, "cluster_id": 1, "rank_in_cluster": 15}

>  <energy>  (33) 
-7.3

>  <cluster_rmsd>  (33) 
1.76

>  <cluster>  (33) 
1

$$$$

     RDKit          3D

 45 47  0  0  0  0  0  0  0  0999 V2000
  140.6690   70.8280  221.8340 O   0  0  0  0  0  0  0  0  0  0  0  0
  140.2000   71.9680  222.1760 C   0  0  0  0  0  0  0  0  0  0  0  0
  139.1230   71.9470  223.1340 N   0  0  0  0  0  0  0  0  0  0  0  0
  138.5580   70.7930  223.6980 C   0  0  0  0  0  0  0  0  0  0  0  0
  139.1880   69.8600  224.5620 C   0  0  0  0  0  0  0  0  0  0  0  0
  138.6450   68.6140  224.3800 O   0  0  0  0  0  0  0  0  0  0  0  0
  140.1680   69.7670  225.5250 N   0  0  0  0  0  0  0  0  0  0  0  0
  140.9740   71.0650  225.6620 C   0  0  0  0  0  0  0  0  0  0  0  0
  140.7380   71.6130  227.0290 C   0  0  0  0  0  0  0  0  0  0  0  0
  140.7050   70.6120  228.1320 C   0  0  0  0  0  0  0  0  0  0  0  0
  139.9570   69.3410  227.8210 C   0  0  0  0  0  0  0  0  0  0  0  0
  140.5820   68.8200  226.4910 C   0  0  1  0  0  0  0  0  0  0  0  0
  140.3100   67.3870  226.3770 C   0  0  0  0  0  0  0  0  0  0  0  0
  138.8820   67.2500  226.4640 O   0  0  0  0  0  0  0  0  0  0  0  0
  140.7220   73.2140  221.6310 C   0  0  0  0  0  0  0  0  0  0  0  0
  141.5990   73.1250  220.5690 C   0  0  0  0  0  0  0  0  0  0  0  0
  142.0880   74.3290  220.0610 C   0  0  0  0  0  0  0  0  0  0  0  0
  141.7090   75.5490  220.5980 C   0  0  0  0  0  0  0  0  0  0  0  0
  142.1860   76.7510  220.1040 C   0  0  0  0  0  0  0  0  0  0  0  0
  143.3040   76.7200  218.7560 Cl  0  0  0  0  0  0  0  0  0  0  0  0
  141.7950   77.9670  220.6550 C   0  0  0  0  0  0  0  0  0  0  0  0
  140.9080   77.9470  221.7220 C   0  0  0  0  0  0  0  0  0  0  0  0
  140.4090   76.7590  222.2430 C   0  0  0  0  0  0  0  0  0  0  0  0
  140.8250   75.5770  221.6630 C   0  0  0  0  0  0  0  0  0  0  0  0
  140.3550   74.4010  222.1510 N   0  0  0  0  0  0  0  0  0  0  0  0
  138.7810   72.9290  223.3830 H   0  0  0  0  0  0  0  0  0  0  0  0
  137.6847   71.1534  224.2614 H   0  0  0  0  0  0  0  0  0  0  0  0
  138.4916   70.1725  222.7922 H   0  0  0  0  0  0  0  0  0  0  0  0
  142.0450   70.8556  225.5237 H   0  0  0  0  0  0  0  0  0  0  0  0
  140.6588   71.7924  224.8994 H   0  0  0  0  0  0  0  0  0  0  0  0
  141.5423   72.3306  227.2484 H   0  0  0  0  0  0  0  0  0  0  0  0
  139.7337   72.0610  227.0020 H   0  0  0  0  0  0  0  0  0  0  0  0
  141.7427   70.3444  228.3803 H   0  0  0  0  0  0  0  0  0  0  0  0
  140.1645   71.0896  228.9625 H   0  0  0  0  0  0  0  0  0  0  0  0
  140.0938   68.6049  228.6269 H   0  0  0  0  0  0  0  0  0  0  0  0
  138.8740   69.5107  227.7299 H   0  0  0  0  0  0  0  0  0  0  0  0
  141.6756   68.7900  226.3763 H   0  0  0  0  0  0  0  0  0  0  0  0
  140.6732   67.0040  225.4119 H   0  0  0  0  0  0  0  0  0  0  0  0
  140.8199   66.8147  227.1660 H   0  0  0  0  0  0  0  0  0  0  0  0
  138.4270   67.8190  225.8160 H   0  0  0  0  0  0  0  0  0  0  0  0
  141.8971   72.1548  220.1449 H   0  0  0  0  0  0  0  0  0  0  0  0
  142.7905   74.3094  219.2148 H   0  0  0  0  0  0  0  0  0  0  0  0
  142.1782   78.9178  220.2561 H   0  0  0  0  0  0  0  0  0  0  0  0
  140.5901   78.9004  222.1691 H   0  0  0  0  0  0  0  0  0  0  0  0
  139.7061   76.7604  223.0891 H   0  0  0  0  0  0  0  0  0  0  0  0
  1  2  2  0
  2  3  1  0
  3  4  1  0
  4  5  1  0
  5  6  2  0
  5  7  1  0
  7  8  1  0
  8  9  1  0
  9 10  1  0
 10 11  1  0
 11 12  1  0
 12 13  1  0
 13 14  1  0
  2 15  1  0
 15 16  2  0
 16 17  1  0
 17 18  2  0
 18 19  1  0
 19 20  1  0
 19 21  2  0
 21 22  1  0
 22 23  2  0
 23 24  1  0
 24 25  2  0
 12  7  1  0
 25 15  1  0
 24 18  1  0
  3 26  1  0
  4 27  1  0
  4 28  1  0
  8 29  1  0
  8 30  1  0
  9 31  1  0
  9 32  1  0
 10 33  1  0
 10 34  1  0
 11 35  1  0
 11 36  1  0
 12 37  1  1
 13 38  1  0
 13 39  1  0
 14 40  1  0
 16 41  1  0
 17 42  1  0
 21 43  1  0
 22 44  1  0
 23 45  1  0
M  END
>  <smiles>  (34) 
O=C(NCC(=O)N1CCCC[C@H]1CO)c1ccc2c(Cl)cccc2n1

>  <score_type>  (34) 
oracle

>  <origin>  (34) 
autodockgpu

>  <m_score__min__energy>  (34) 
-8.4499999999999993

>  <m_primary>  (34) 
energy

>  <rmsd>  (34) 
8.302634718482375

>  <m_score__min__rmsd>  (34) 
8.302634718482375

>  <meeko>  (34) 
{"free_energy": -7.93, "intermolecular_energy": -9.72, "internal_energy": -2.01, "cluster_size": 36, "cluster_id": 1, "rank_in_cluster": 17}

>  <energy>  (34) 
-7.21

>  <cluster_rmsd>  (34) 
1.28

>  <cluster>  (34) 
1

$$$$

     RDKit          3D

 45 47  0  0  0  0  0  0  0  0999 V2000
  139.8040   71.6700  221.0270 O   0  0  0  0  0  0  0  0  0  0  0  0
  139.7360   72.1980  222.1890 C   0  0  0  0  0  0  0  0  0  0  0  0
  139.5160   73.6220  222.2240 N   0  0  0  0  0  0  0  0  0  0  0  0
  139.3830   74.4530  221.1010 C   0  0  0  0  0  0  0  0  0  0  0  0
  140.3650   75.3130  220.5450 C   0  0  0  0  0  0  0  0  0  0  0  0
  140.3460   76.5240  221.1890 O   0  0  0  0  0  0  0  0  0  0  0  0
  141.3460   75.3540  219.5780 N   0  0  0  0  0  0  0  0  0  0  0  0
  140.9240   76.1820  218.3580 C   0  0  0  0  0  0  0  0  0  0  0  0
  141.8360   77.3590  218.2620 C   0  0  0  0  0  0  0  0  0  0  0  0
  143.2730   77.0910  218.5480 C   0  0  0  0  0  0  0  0  0  0  0  0
  143.5350   76.1820  219.7200 C   0  0  0  0  0  0  0  0  0  0  0  0
  142.6810   74.9070  219.4420 C   0  0  1  0  0  0  0  0  0  0  0  0
  143.2380   73.7940  220.2100 C   0  0  0  0  0  0  0  0  0  0  0  0
  142.2990   72.7140  220.0730 O   0  0  0  0  0  0  0  0  0  0  0  0
  139.8720   71.4090  223.4070 C   0  0  0  0  0  0  0  0  0  0  0  0
  139.5300   70.0740  223.3400 C   0  0  0  0  0  0  0  0  0  0  0  0
  139.6670   69.3350  224.5150 C   0  0  0  0  0  0  0  0  0  0  0  0
  140.1250   69.9180  225.6870 C   0  0  0  0  0  0  0  0  0  0  0  0
  140.2660   69.1970  226.8610 C   0  0  0  0  0  0  0  0  0  0  0  0
  139.8520   67.4950  226.8560 Cl  0  0  0  0  0  0  0  0  0  0  0  0
  140.7270   69.7970  228.0280 C   0  0  0  0  0  0  0  0  0  0  0  0
  141.0440   71.1480  227.9890 C   0  0  0  0  0  0  0  0  0  0  0  0
  140.9140   71.9010  226.8280 C   0  0  0  0  0  0  0  0  0  0  0  0
  140.4540   71.2630  225.6940 C   0  0  0  0  0  0  0  0  0  0  0  0
  140.3160   71.9730  224.5460 N   0  0  0  0  0  0  0  0  0  0  0  0
  139.4610   74.0010  223.2230 H   0  0  0  0  0  0  0  0  0  0  0  0
  139.1053   73.7751  220.2804 H   0  0  0  0  0  0  0  0  0  0  0  0
  138.7097   75.2118  221.5263 H   0  0  0  0  0  0  0  0  0  0  0  0
  141.0049   75.5716  217.4465 H   0  0  0  0  0  0  0  0  0  0  0  0
  139.8808   76.5144  218.4640 H   0  0  0  0  0  0  0  0  0  0  0  0
  141.7643   77.7590  217.2398 H   0  0  0  0  0  0  0  0  0  0  0  0
  141.5021   78.0598  219.0413 H   0  0  0  0  0  0  0  0  0  0  0  0
  143.7177   76.6300  217.6537 H   0  0  0  0  0  0  0  0  0  0  0  0
  143.7184   78.0622  218.8095 H   0  0  0  0  0  0  0  0  0  0  0  0
  144.6032   75.9262  219.7795 H   0  0  0  0  0  0  0  0  0  0  0  0
  143.2704   76.6555  220.6769 H   0  0  0  0  0  0  0  0  0  0  0  0
  142.7002   74.4425  218.4451 H   0  0  0  0  0  0  0  0  0  0  0  0
  144.2186   73.5025  219.8056 H   0  0  0  0  0  0  0  0  0  0  0  0
  143.3902   74.0664  221.2648 H   0  0  0  0  0  0  0  0  0  0  0  0
  141.4150   72.9650  220.3960 H   0  0  0  0  0  0  0  0  0  0  0  0
  139.1679   69.6160  222.4078 H   0  0  0  0  0  0  0  0  0  0  0  0
  139.4061   68.2664  224.5120 H   0  0  0  0  0  0  0  0  0  0  0  0
  140.8374   69.2171  228.9562 H   0  0  0  0  0  0  0  0  0  0  0  0
  141.4089   71.6371  228.9042 H   0  0  0  0  0  0  0  0  0  0  0  0
  141.1695   72.9708  226.8135 H   0  0  0  0  0  0  0  0  0  0  0  0
  1  2  2  0
  2  3  1  0
  3  4  1  0
  4  5  1  0
  5  6  2  0
  5  7  1  0
  7  8  1  0
  8  9  1  0
  9 10  1  0
 10 11  1  0
 11 12  1  0
 12 13  1  0
 13 14  1  0
  2 15  1  0
 15 16  2  0
 16 17  1  0
 17 18  2  0
 18 19  1  0
 19 20  1  0
 19 21  2  0
 21 22  1  0
 22 23  2  0
 23 24  1  0
 24 25  2  0
 12  7  1  0
 25 15  1  0
 24 18  1  0
  3 26  1  0
  4 27  1  0
  4 28  1  0
  8 29  1  0
  8 30  1  0
  9 31  1  0
  9 32  1  0
 10 33  1  0
 10 34  1  0
 11 35  1  0
 11 36  1  0
 12 37  1  6
 13 38  1  0
 13 39  1  0
 14 40  1  0
 16 41  1  0
 17 42  1  0
 21 43  1  0
 22 44  1  0
 23 45  1  0
M  END
>  <smiles>  (35) 
O=C(NCC(=O)N1CCCC[C@H]1CO)c1ccc2c(Cl)cccc2n1

>  <score_type>  (35) 
oracle

>  <origin>  (35) 
autodockgpu

>  <m_score__min__energy>  (35) 
-8.4499999999999993

>  <m_primary>  (35) 
energy

>  <rmsd>  (35) 
2.190004774835605

>  <m_score__min__rmsd>  (35) 
2.190004774835605

>  <meeko>  (35) 
{"free_energy": -6.28, "intermolecular_energy": -8.07, "internal_energy": -2.01, "cluster_size": 5, "cluster_id": 2, "rank_in_cluster": 5}

>  <energy>  (35) 
-6.93

>  <cluster_rmsd>  (35) 
1.82

>  <cluster>  (35) 
1

$$$$

     RDKit          3D

 45 47  0  0  0  0  0  0  0  0999 V2000
  140.6670   70.8270  221.8440 O   0  0  0  0  0  0  0  0  0  0  0  0
  140.1970   71.9590  222.2060 C   0  0  0  0  0  0  0  0  0  0  0  0
  139.1430   71.9220  223.1890 N   0  0  0  0  0  0  0  0  0  0  0  0
  138.6010   70.7580  223.7560 C   0  0  0  0  0  0  0  0  0  0  0  0
  139.1450   69.9810  224.8110 C   0  0  0  0  0  0  0  0  0  0  0  0
  138.4710   68.7900  224.9100 O   0  0  0  0  0  0  0  0  0  0  0  0
  140.1280   70.0010  225.7750 N   0  0  0  0  0  0  0  0  0  0  0  0
  141.1990   71.0620  225.4900 C   0  0  0  0  0  0  0  0  0  0  0  0
  141.1530   72.0710  226.5880 C   0  0  0  0  0  0  0  0  0  0  0  0
  140.9590   71.5270  227.9610 C   0  0  0  0  0  0  0  0  0  0  0  0
  139.9410   70.4210  228.0750 C   0  0  0  0  0  0  0  0  0  0  0  0
  140.3740   69.3640  227.0140 C   0  0  1  0  0  0  0  0  0  0  0  0
  139.7960   68.0710  227.3790 C   0  0  0  0  0  0  0  0  0  0  0  0
  140.7110   67.0780  226.8860 O   0  0  0  0  0  0  0  0  0  0  0  0
  140.6960   73.2150  221.6590 C   0  0  0  0  0  0  0  0  0  0  0  0
  141.5630   73.1410  220.5890 C   0  0  0  0  0  0  0  0  0  0  0  0
  142.0300   74.3530  220.0790 C   0  0  0  0  0  0  0  0  0  0  0  0
  141.6390   75.5660  220.6240 C   0  0  0  0  0  0  0  0  0  0  0  0
  142.0940   76.7760  220.1280 C   0  0  0  0  0  0  0  0  0  0  0  0
  143.1980   76.7650  218.7690 Cl  0  0  0  0  0  0  0  0  0  0  0  0
  141.6910   77.9850  220.6870 C   0  0  0  0  0  0  0  0  0  0  0  0
  140.8150   77.9490  221.7630 C   0  0  0  0  0  0  0  0  0  0  0  0
  140.3390   76.7530  222.2850 C   0  0  0  0  0  0  0  0  0  0  0  0
  140.7660   75.5790  221.6980 C   0  0  0  0  0  0  0  0  0  0  0  0
  140.3170   74.3950  222.1870 N   0  0  0  0  0  0  0  0  0  0  0  0
  138.7990   72.8990  223.4540 H   0  0  0  0  0  0  0  0  0  0  0  0
  137.6033   71.0558  224.1109 H   0  0  0  0  0  0  0  0  0  0  0  0
  138.7740   70.0623  222.9217 H   0  0  0  0  0  0  0  0  0  0  0  0
  142.1923   70.5904  225.4579 H   0  0  0  0  0  0  0  0  0  0  0  0
  141.0098   71.5446  224.5198 H   0  0  0  0  0  0  0  0  0  0  0  0
  142.1025   72.6262  226.5761 H   0  0  0  0  0  0  0  0  0  0  0  0
  140.2684   72.6927  226.3854 H   0  0  0  0  0  0  0  0  0  0  0  0
  141.9258   71.1373  228.3124 H   0  0  0  0  0  0  0  0  0  0  0  0
  140.5743   72.3599  228.5679 H   0  0  0  0  0  0  0  0  0  0  0  0
  139.9559   69.9842  229.0845 H   0  0  0  0  0  0  0  0  0  0  0  0
  138.9164   70.7829  227.9038 H   0  0  0  0  0  0  0  0  0  0  0  0
  141.4289   69.0598  226.9463 H   0  0  0  0  0  0  0  0  0  0  0  0
  139.6965   67.9909  228.4716 H   0  0  0  0  0  0  0  0  0  0  0  0
  138.7909   67.9423  226.9511 H   0  0  0  0  0  0  0  0  0  0  0  0
  140.2960   66.1970  226.8460 H   0  0  0  0  0  0  0  0  0  0  0  0
  141.8706   72.1761  220.1597 H   0  0  0  0  0  0  0  0  0  0  0  0
  142.7239   74.3456  219.2255 H   0  0  0  0  0  0  0  0  0  0  0  0
  142.0565   78.9424  220.2873 H   0  0  0  0  0  0  0  0  0  0  0  0
  140.4877   78.8964  222.2162 H   0  0  0  0  0  0  0  0  0  0  0  0
  139.6446   76.7419  223.1381 H   0  0  0  0  0  0  0  0  0  0  0  0
  1  2  2  0
  2  3  1  0
  3  4  1  0
  4  5  1  0
  5  6  2  0
  5  7  1  0
  7  8  1  0
  8  9  1  0
  9 10  1  0
 10 11  1  0
 11 12  1  0
 12 13  1  0
 13 14  1  0
  2 15  1  0
 15 16  2  0
 16 17  1  0
 17 18  2  0
 18 19  1  0
 19 20  1  0
 19 21  2  0
 21 22  1  0
 22 23  2  0
 23 24  1  0
 24 25  2  0
 12  7  1  0
 25 15  1  0
 24 18  1  0
  3 26  1  0
  4 27  1  0
  4 28  1  0
  8 29  1  0
  8 30  1  0
  9 31  1  0
  9 32  1  0
 10 33  1  0
 10 34  1  0
 11 35  1  0
 11 36  1  0
 12 37  1  1
 13 38  1  0
 13 39  1  0
 14 40  1  0
 16 41  1  0
 17 42  1  0
 21 43  1  0
 22 44  1  0
 23 45  1  0
M  END
>  <smiles>  (36) 
O=C(NCC(=O)N1CCCC[C@H]1CO)c1ccc2c(Cl)cccc2n1

>  <score_type>  (36) 
oracle

>  <origin>  (36) 
autodockgpu

>  <m_score__min__energy>  (36) 
-8.4499999999999993

>  <m_primary>  (36) 
energy

>  <rmsd>  (36) 
8.25379749477612

>  <m_score__min__rmsd>  (36) 
8.25379749477612

>  <meeko>  (36) 
{"free_energy": -8.05, "intermolecular_energy": -9.84, "internal_energy": -1.4, "cluster_size": 36, "cluster_id": 1, "rank_in_cluster": 10}

>  <energy>  (36) 
-6.67

>  <cluster_rmsd>  (36) 
1.43

>  <cluster>  (36) 
1

$$$$

     RDKit          3D

 45 47  0  0  0  0  0  0  0  0999 V2000
  140.4250   70.8150  221.7440 O   0  0  0  0  0  0  0  0  0  0  0  0
  140.0200   71.9600  222.1440 C   0  0  0  0  0  0  0  0  0  0  0  0
  138.9650   71.9490  223.1270 N   0  0  0  0  0  0  0  0  0  0  0  0
  138.3590   70.8000  223.6570 C   0  0  0  0  0  0  0  0  0  0  0  0
  138.8850   69.9260  224.6430 C   0  0  0  0  0  0  0  0  0  0  0  0
  138.1170   68.7920  224.7200 O   0  0  0  0  0  0  0  0  0  0  0  0
  139.9110   69.8150  225.5550 N   0  0  0  0  0  0  0  0  0  0  0  0
  141.0090   70.8610  225.3240 C   0  0  0  0  0  0  0  0  0  0  0  0
  141.0530   71.7550  226.5190 C   0  0  0  0  0  0  0  0  0  0  0  0
  140.9010   71.0800  227.8380 C   0  0  0  0  0  0  0  0  0  0  0  0
  139.8480   70.0040  227.8910 C   0  0  0  0  0  0  0  0  0  0  0  0
  140.1890   69.0460  226.7100 C   0  0  1  0  0  0  0  0  0  0  0  0
  139.5790   67.7440  226.9720 C   0  0  0  0  0  0  0  0  0  0  0  0
  139.5860   67.0460  225.7160 O   0  0  0  0  0  0  0  0  0  0  0  0
  140.5880   73.2020  221.6370 C   0  0  0  0  0  0  0  0  0  0  0  0
  141.4770   73.1110  220.5860 C   0  0  0  0  0  0  0  0  0  0  0  0
  142.0110   74.3110  220.1140 C   0  0  0  0  0  0  0  0  0  0  0  0
  141.6620   75.5290  220.6770 C   0  0  0  0  0  0  0  0  0  0  0  0
  142.1830   76.7270  220.2200 C   0  0  0  0  0  0  0  0  0  0  0  0
  143.3190   76.6950  218.8860 Cl  0  0  0  0  0  0  0  0  0  0  0  0
  141.8220   77.9410  220.7960 C   0  0  0  0  0  0  0  0  0  0  0  0
  140.9190   77.9230  221.8500 C   0  0  0  0  0  0  0  0  0  0  0  0
  140.3760   76.7390  222.3340 C   0  0  0  0  0  0  0  0  0  0  0  0
  140.7640   75.5590  221.7300 C   0  0  0  0  0  0  0  0  0  0  0  0
  140.2500   74.3860  222.1820 N   0  0  0  0  0  0  0  0  0  0  0  0
  138.6760   72.9350  223.4240 H   0  0  0  0  0  0  0  0  0  0  0  0
  137.4038   71.1522  224.0736 H   0  0  0  0  0  0  0  0  0  0  0  0
  138.4417   70.1410  222.7802 H   0  0  0  0  0  0  0  0  0  0  0  0
  141.9803   70.3607  225.1961 H   0  0  0  0  0  0  0  0  0  0  0  0
  140.7953   71.4455  224.4170 H   0  0  0  0  0  0  0  0  0  0  0  0
  142.0219   72.2757  226.5157 H   0  0  0  0  0  0  0  0  0  0  0  0
  140.1856   72.4247  226.4238 H   0  0  0  0  0  0  0  0  0  0  0  0
  141.8670   70.6238  228.1000 H   0  0  0  0  0  0  0  0  0  0  0  0
  140.5768   71.8590  228.5437 H   0  0  0  0  0  0  0  0  0  0  0  0
  139.8926   69.4666  228.8498 H   0  0  0  0  0  0  0  0  0  0  0  0
  138.8317   70.4165  227.8076 H   0  0  0  0  0  0  0  0  0  0  0  0
  141.2265   68.7130  226.5594 H   0  0  0  0  0  0  0  0  0  0  0  0
  140.1650   67.1906  227.7206 H   0  0  0  0  0  0  0  0  0  0  0  0
  138.5590   67.8487  227.3702 H   0  0  0  0  0  0  0  0  0  0  0  0
  139.6100   67.6640  224.9630 H   0  0  0  0  0  0  0  0  0  0  0  0
  141.7510   72.1423  220.1427 H   0  0  0  0  0  0  0  0  0  0  0  0
  142.7244   74.2900  219.2770 H   0  0  0  0  0  0  0  0  0  0  0  0
  142.2406   78.8887  220.4264 H   0  0  0  0  0  0  0  0  0  0  0  0
  140.6243   78.8747  222.3162 H   0  0  0  0  0  0  0  0  0  0  0  0
  139.6612   76.7414  223.1701 H   0  0  0  0  0  0  0  0  0  0  0  0
  1  2  2  0
  2  3  1  0
  3  4  1  0
  4  5  1  0
  5  6  2  0
  5  7  1  0
  7  8  1  0
  8  9  1  0
  9 10  1  0
 10 11  1  0
 11 12  1  0
 12 13  1  0
 13 14  1  0
  2 15  1  0
 15 16  2  0
 16 17  1  0
 17 18  2  0
 18 19  1  0
 19 20  1  0
 19 21  2  0
 21 22  1  0
 22 23  2  0
 23 24  1  0
 24 25  2  0
 12  7  1  0
 25 15  1  0
 24 18  1  0
  3 26  1  0
  4 27  1  0
  4 28  1  0
  8 29  1  0
  8 30  1  0
  9 31  1  0
  9 32  1  0
 10 33  1  0
 10 34  1  0
 11 35  1  0
 11 36  1  0
 12 37  1  6
 13 38  1  0
 13 39  1  0
 14 40  1  0
 16 41  1  0
 17 42  1  0
 21 43  1  0
 22 44  1  0
 23 45  1  0
M  END
>  <smiles>  (37) 
O=C(NCC(=O)N1CCCC[C@H]1CO)c1ccc2c(Cl)cccc2n1

>  <score_type>  (37) 
oracle

>  <origin>  (37) 
autodockgpu

>  <m_score__min__energy>  (37) 
-8.4499999999999993

>  <m_primary>  (37) 
energy

>  <rmsd>  (37) 
8.244336114895557

>  <m_score__min__rmsd>  (37) 
8.244336114895557

>  <meeko>  (37) 
{"free_energy": -8.05, "intermolecular_energy": -9.84, "internal_energy": -2.01, "cluster_size": 36, "cluster_id": 1, "rank_in_cluster": 8}

>  <energy>  (37) 
-7.46

>  <cluster_rmsd>  (37) 
0.0

>  <cluster>  (37) 
2

$$$$

     RDKit          3D

 45 47  0  0  0  0  0  0  0  0999 V2000
  140.6730   70.8590  221.8770 O   0  0  0  0  0  0  0  0  0  0  0  0
  140.1820   71.9960  222.1940 C   0  0  0  0  0  0  0  0  0  0  0  0
  139.0740   71.9720  223.1170 N   0  0  0  0  0  0  0  0  0  0  0  0
  138.5040   70.8160  223.6730 C   0  0  0  0  0  0  0  0  0  0  0  0
  139.1180   69.8910  224.5560 C   0  0  0  0  0  0  0  0  0  0  0  0
  138.5100   68.6670  224.4470 O   0  0  0  0  0  0  0  0  0  0  0  0
  140.1260   69.7920  225.4890 N   0  0  0  0  0  0  0  0  0  0  0  0
  140.9220   71.0950  225.6260 C   0  0  0  0  0  0  0  0  0  0  0  0
  140.7190   71.6170  227.0100 C   0  0  0  0  0  0  0  0  0  0  0  0
  140.7270   70.5960  228.0950 C   0  0  0  0  0  0  0  0  0  0  0  0
  139.9830   69.3230  227.7820 C   0  0  0  0  0  0  0  0  0  0  0  0
  140.5750   68.8320  226.4260 C   0  0  1  0  0  0  0  0  0  0  0  0
  140.3150   67.3990  226.2940 C   0  0  0  0  0  0  0  0  0  0  0  0
  138.8960   67.2400  226.4620 O   0  0  0  0  0  0  0  0  0  0  0  0
  140.7080   73.2440  221.6560 C   0  0  0  0  0  0  0  0  0  0  0  0
  141.5820   73.1570  220.5920 C   0  0  0  0  0  0  0  0  0  0  0  0
  142.0760   74.3620  220.0890 C   0  0  0  0  0  0  0  0  0  0  0  0
  141.7040   75.5800  220.6360 C   0  0  0  0  0  0  0  0  0  0  0  0
  142.1850   76.7830  220.1480 C   0  0  0  0  0  0  0  0  0  0  0  0
  143.3000   76.7560  218.7970 Cl  0  0  0  0  0  0  0  0  0  0  0  0
  141.8010   77.9970  220.7080 C   0  0  0  0  0  0  0  0  0  0  0  0
  140.9170   77.9750  221.7780 C   0  0  0  0  0  0  0  0  0  0  0  0
  140.4140   76.7860  222.2920 C   0  0  0  0  0  0  0  0  0  0  0  0
  140.8230   75.6060  221.7040 C   0  0  0  0  0  0  0  0  0  0  0  0
  140.3480   74.4280  222.1850 N   0  0  0  0  0  0  0  0  0  0  0  0
  138.7150   72.9520  223.3470 H   0  0  0  0  0  0  0  0  0  0  0  0
  137.6148   71.1728  224.2133 H   0  0  0  0  0  0  0  0  0  0  0  0
  138.4655   70.1910  222.7686 H   0  0  0  0  0  0  0  0  0  0  0  0
  141.9907   70.8993  225.4540 H   0  0  0  0  0  0  0  0  0  0  0  0
  140.5781   71.8322  224.8856 H   0  0  0  0  0  0  0  0  0  0  0  0
  141.5220   72.3389  227.2197 H   0  0  0  0  0  0  0  0  0  0  0  0
  139.7102   72.0554  227.0193 H   0  0  0  0  0  0  0  0  0  0  0  0
  141.7739   70.3348  228.3091 H   0  0  0  0  0  0  0  0  0  0  0  0
  140.2055   71.0530  228.9489 H   0  0  0  0  0  0  0  0  0  0  0  0
  140.1496   68.5741  228.5703 H   0  0  0  0  0  0  0  0  0  0  0  0
  138.8963   69.4834  227.7243 H   0  0  0  0  0  0  0  0  0  0  0  0
  141.6651   68.8150  226.2800 H   0  0  0  0  0  0  0  0  0  0  0  0
  140.6250   67.0436  225.3002 H   0  0  0  0  0  0  0  0  0  0  0  0
  140.8781   66.8157  227.0375 H   0  0  0  0  0  0  0  0  0  0  0  0
  138.3970   67.8380  225.8760 H   0  0  0  0  0  0  0  0  0  0  0  0
  141.8746   72.1877  220.1620 H   0  0  0  0  0  0  0  0  0  0  0  0
  142.7756   74.3444  219.2403 H   0  0  0  0  0  0  0  0  0  0  0  0
  142.1873   78.9485  220.3137 H   0  0  0  0  0  0  0  0  0  0  0  0
  140.6054   78.9270  222.2325 H   0  0  0  0  0  0  0  0  0  0  0  0
  139.7129   76.7851  223.1396 H   0  0  0  0  0  0  0  0  0  0  0  0
  1  2  2  0
  2  3  1  0
  3  4  1  0
  4  5  1  0
  5  6  2  0
  5  7  1  0
  7  8  1  0
  8  9  1  0
  9 10  1  0
 10 11  1  0
 11 12  1  0
 12 13  1  0
 13 14  1  0
  2 15  1  0
 15 16  2  0
 16 17  1  0
 17 18  2  0
 18 19  1  0
 19 20  1  0
 19 21  2  0
 21 22  1  0
 22 23  2  0
 23 24  1  0
 24 25  2  0
 12  7  1  0
 25 15  1  0
 24 18  1  0
  3 26  1  0
  4 27  1  0
  4 28  1  0
  8 29  1  0
  8 30  1  0
  9 31  1  0
  9 32  1  0
 10 33  1  0
 10 34  1  0
 11 35  1  0
 11 36  1  0
 12 37  1  1
 13 38  1  0
 13 39  1  0
 14 40  1  0
 16 41  1  0
 17 42  1  0
 21 43  1  0
 22 44  1  0
 23 45  1  0
M  END
>  <smiles>  (38) 
O=C(NCC(=O)N1CCCC[C@H]1CO)c1ccc2c(Cl)cccc2n1

>  <score_type>  (38) 
oracle

>  <origin>  (38) 
autodockgpu

>  <m_score__min__energy>  (38) 
-8.4499999999999993

>  <m_primary>  (38) 
energy

>  <rmsd>  (38) 
8.273757449278083

>  <m_score__min__rmsd>  (38) 
8.273757449278083

>  <meeko>  (38) 
{"free_energy": -7.92, "intermolecular_energy": -9.71, "internal_energy": -2.02, "cluster_size": 36, "cluster_id": 1, "rank_in_cluster": 18}

>  <energy>  (38) 
-6.88

>  <cluster_rmsd>  (38) 
1.73

>  <cluster>  (38) 
2

$$$$

     RDKit          3D

 45 47  0  0  0  0  0  0  0  0999 V2000
  140.7240   70.8390  221.5580 O   0  0  0  0  0  0  0  0  0  0  0  0
  140.3340   71.9250  222.1080 C   0  0  0  0  0  0  0  0  0  0  0  0
  139.4840   71.7800  223.2630 N   0  0  0  0  0  0  0  0  0  0  0  0
  139.0550   70.5600  223.8090 C   0  0  0  0  0  0  0  0  0  0  0  0
  139.4560   69.9790  225.0400 C   0  0  0  0  0  0  0  0  0  0  0  0
  138.6310   68.9290  225.3520 O   0  0  0  0  0  0  0  0  0  0  0  0
  140.3980   70.0990  226.0370 N   0  0  0  0  0  0  0  0  0  0  0  0
  141.3850   71.2420  225.7700 C   0  0  0  0  0  0  0  0  0  0  0  0
  141.2140   72.2610  226.8470 C   0  0  0  0  0  0  0  0  0  0  0  0
  141.0170   71.7240  228.2220 C   0  0  0  0  0  0  0  0  0  0  0  0
  140.0930   70.5370  228.3210 C   0  0  0  0  0  0  0  0  0  0  0  0
  140.6520   69.5040  227.2960 C   0  0  1  0  0  0  0  0  0  0  0  0
  140.1730   68.1730  227.6650 C   0  0  0  0  0  0  0  0  0  0  0  0
  140.9630   67.7700  228.7960 O   0  0  0  0  0  0  0  0  0  0  0  0
  140.7250   73.2340  221.5990 C   0  0  0  0  0  0  0  0  0  0  0  0
  141.5530   73.2640  220.4950 C   0  0  0  0  0  0  0  0  0  0  0  0
  141.9160   74.5250  220.0220 C   0  0  0  0  0  0  0  0  0  0  0  0
  141.4650   75.6850  220.6340 C   0  0  0  0  0  0  0  0  0  0  0  0
  141.8170   76.9430  220.1760 C   0  0  0  0  0  0  0  0  0  0  0  0
  142.8660   77.0650  218.7780 Cl  0  0  0  0  0  0  0  0  0  0  0  0
  141.3560   78.0970  220.8020 C   0  0  0  0  0  0  0  0  0  0  0  0
  140.5280   77.9560  221.9060 C   0  0  0  0  0  0  0  0  0  0  0  0
  140.1540   76.7090  222.3930 C   0  0  0  0  0  0  0  0  0  0  0  0
  140.6360   75.5930  221.7390 C   0  0  0  0  0  0  0  0  0  0  0  0
  140.2890   74.3610  222.1910 N   0  0  0  0  0  0  0  0  0  0  0  0
  139.1990   72.7220  223.6800 H   0  0  0  0  0  0  0  0  0  0  0  0
  137.9617   70.6546  223.8852 H   0  0  0  0  0  0  0  0  0  0  0  0
  139.5661   69.8726  223.1189 H   0  0  0  0  0  0  0  0  0  0  0  0
  142.4150   70.8560  225.7816 H   0  0  0  0  0  0  0  0  0  0  0  0
  141.1913   71.6914  224.7849 H   0  0  0  0  0  0  0  0  0  0  0  0
  142.1130   72.8948  226.8578 H   0  0  0  0  0  0  0  0  0  0  0  0
  140.2881   72.8020  226.6021 H   0  0  0  0  0  0  0  0  0  0  0  0
  141.9999   71.4238  228.6142 H   0  0  0  0  0  0  0  0  0  0  0  0
  140.5412   72.5303  228.7994 H   0  0  0  0  0  0  0  0  0  0  0  0
  140.1081   70.1191  229.3384 H   0  0  0  0  0  0  0  0  0  0  0  0
  139.0485   70.8075  228.1071 H   0  0  0  0  0  0  0  0  0  0  0  0
  141.7305   69.2890  227.2705 H   0  0  0  0  0  0  0  0  0  0  0  0
  139.1077   68.2113  227.9364 H   0  0  0  0  0  0  0  0  0  0  0  0
  140.2704   67.4629  226.8306 H   0  0  0  0  0  0  0  0  0  0  0  0
  141.2590   66.8450  228.7150 H   0  0  0  0  0  0  0  0  0  0  0  0
  141.9082   72.3412  220.0131 H   0  0  0  0  0  0  0  0  0  0  0  0
  142.5745   74.6011  219.1442 H   0  0  0  0  0  0  0  0  0  0  0  0
  141.6402   79.0931  220.4318 H   0  0  0  0  0  0  0  0  0  0  0  0
  140.1558   78.8591  222.4118 H   0  0  0  0  0  0  0  0  0  0  0  0
  139.4964   76.6147  223.2697 H   0  0  0  0  0  0  0  0  0  0  0  0
  1  2  2  0
  2  3  1  0
  3  4  1  0
  4  5  1  0
  5  6  2  0
  5  7  1  0
  7  8  1  0
  8  9  1  0
  9 10  1  0
 10 11  1  0
 11 12  1  0
 12 13  1  0
 13 14  1  0
  2 15  1  0
 15 16  2  0
 16 17  1  0
 17 18  2  0
 18 19  1  0
 19 20  1  0
 19 21  2  0
 21 22  1  0
 22 23  2  0
 23 24  1  0
 24 25  2  0
 12  7  1  0
 25 15  1  0
 24 18  1  0
  3 26  1  0
  4 27  1  0
  4 28  1  0
  8 29  1  0
  8 30  1  0
  9 31  1  0
  9 32  1  0
 10 33  1  0
 10 34  1  0
 11 35  1  0
 11 36  1  0
 12 37  1  1
 13 38  1  0
 13 39  1  0
 14 40  1  0
 16 41  1  0
 17 42  1  0
 21 43  1  0
 22 44  1  0
 23 45  1  0
M  END
>  <smiles>  (39) 
O=C(NCC(=O)N1CCCC[C@H]1CO)c1ccc2c(Cl)cccc2n1

>  <score_type>  (39) 
oracle

>  <origin>  (39) 
autodockgpu

>  <m_score__min__energy>  (39) 
-8.4499999999999993

>  <m_primary>  (39) 
energy

>  <rmsd>  (39) 
8.307993440554073

>  <m_score__min__rmsd>  (39) 
8.307993440554073

>  <meeko>  (39) 
{"free_energy": -7.74, "intermolecular_energy": -9.53, "internal_energy": -1.3, "cluster_size": 36, "cluster_id": 1, "rank_in_cluster": 28}

>  <energy>  (39) 
-6.81

>  <cluster_rmsd>  (39) 
1.31

>  <cluster>  (39) 
2

$$$$

     RDKit          3D

 45 47  0  0  0  0  0  0  0  0999 V2000
  141.4250   71.6480  221.6050 O   0  0  0  0  0  0  0  0  0  0  0  0
  140.8500   72.7030  222.0420 C   0  0  0  0  0  0  0  0  0  0  0  0
  139.9300   72.5140  223.1360 N   0  0  0  0  0  0  0  0  0  0  0  0
  139.6200   71.2840  223.7350 C   0  0  0  0  0  0  0  0  0  0  0  0
  140.1480   70.7560  224.9420 C   0  0  0  0  0  0  0  0  0  0  0  0
  141.5160   70.7050  224.8720 O   0  0  0  0  0  0  0  0  0  0  0  0
  139.7610   70.2800  226.1750 N   0  0  0  0  0  0  0  0  0  0  0  0
  138.8830   69.0270  226.0640 C   0  0  0  0  0  0  0  0  0  0  0  0
  139.6160   67.8910  226.6940 C   0  0  0  0  0  0  0  0  0  0  0  0
  140.3440   68.2090  227.9550 C   0  0  0  0  0  0  0  0  0  0  0  0
  141.0870   69.5200  227.9540 C   0  0  0  0  0  0  0  0  0  0  0  0
  140.0280   70.5830  227.5310 C   0  0  1  0  0  0  0  0  0  0  0  0
  140.4800   71.8980  227.9840 C   0  0  0  0  0  0  0  0  0  0  0  0
  141.4660   72.3250  227.0300 O   0  0  0  0  0  0  0  0  0  0  0  0
  141.1070   74.0180  221.4700 C   0  0  0  0  0  0  0  0  0  0  0  0
  141.7390   74.0650  220.2450 C   0  0  0  0  0  0  0  0  0  0  0  0
  141.9770   75.3330  219.7130 C   0  0  0  0  0  0  0  0  0  0  0  0
  141.5960   76.4830  220.3860 C   0  0  0  0  0  0  0  0  0  0  0  0
  141.8250   77.7480  219.8710 C   0  0  0  0  0  0  0  0  0  0  0  0
  142.6230   77.8900  218.3180 Cl  0  0  0  0  0  0  0  0  0  0  0  0
  141.4360   78.8920  220.5600 C   0  0  0  0  0  0  0  0  0  0  0  0
  140.8070   78.7350  221.7870 C   0  0  0  0  0  0  0  0  0  0  0  0
  140.5610   77.4810  222.3340 C   0  0  0  0  0  0  0  0  0  0  0  0
  140.9650   76.3750  221.6140 C   0  0  0  0  0  0  0  0  0  0  0  0
  140.7380   75.1370  222.1230 N   0  0  0  0  0  0  0  0  0  0  0  0
  139.4890   73.4330  223.4600 H   0  0  0  0  0  0  0  0  0  0  0  0
  138.5319   71.3143  223.8933 H   0  0  0  0  0  0  0  0  0  0  0  0
  140.1192   70.6132  223.0202 H   0  0  0  0  0  0  0  0  0  0  0  0
  137.9298   69.1920  226.5876 H   0  0  0  0  0  0  0  0  0  0  0  0
  138.6685   68.8039  225.0084 H   0  0  0  0  0  0  0  0  0  0  0  0
  138.8851   67.0996  226.9165 H   0  0  0  0  0  0  0  0  0  0  0  0
  140.3887   67.5951  225.9692 H   0  0  0  0  0  0  0  0  0  0  0  0
  139.6104   68.2343  228.7743 H   0  0  0  0  0  0  0  0  0  0  0  0
  141.1073   67.4257  228.0725 H   0  0  0  0  0  0  0  0  0  0  0  0
  141.4793   69.7429  228.9572 H   0  0  0  0  0  0  0  0  0  0  0  0
  141.9517   69.5046  227.2742 H   0  0  0  0  0  0  0  0  0  0  0  0
  139.0332   70.5791  228.0004 H   0  0  0  0  0  0  0  0  0  0  0  0
  139.6379   72.6053  228.0066 H   0  0  0  0  0  0  0  0  0  0  0  0
  140.8948   71.8542  229.0018 H   0  0  0  0  0  0  0  0  0  0  0  0
  141.8050   71.5770  226.5050 H   0  0  0  0  0  0  0  0  0  0  0  0
  142.0401   73.1497  219.7144 H   0  0  0  0  0  0  0  0  0  0  0  0
  142.4782   75.4217  218.7378 H   0  0  0  0  0  0  0  0  0  0  0  0
  141.6218   79.8932  220.1439 H   0  0  0  0  0  0  0  0  0  0  0  0
  140.4935   79.6304  222.3438 H   0  0  0  0  0  0  0  0  0  0  0  0
  140.0611   77.3738  223.3080 H   0  0  0  0  0  0  0  0  0  0  0  0
  1  2  2  0
  2  3  1  0
  3  4  1  0
  4  5  1  0
  5  6  2  0
  5  7  1  0
  7  8  1  0
  8  9  1  0
  9 10  1  0
 10 11  1  0
 11 12  1  0
 12 13  1  0
 13 14  1  0
  2 15  1  0
 15 16  2  0
 16 17  1  0
 17 18  2  0
 18 19  1  0
 19 20  1  0
 19 21  2  0
 21 22  1  0
 22 23  2  0
 23 24  1  0
 24 25  2  0
 12  7  1  0
 25 15  1  0
 24 18  1  0
  3 26  1  0
  4 27  1  0
  4 28  1  0
  8 29  1  0
  8 30  1  0
  9 31  1  0
  9 32  1  0
 10 33  1  0
 10 34  1  0
 11 35  1  0
 11 36  1  0
 12 37  1  1
 13 38  1  0
 13 39  1  0
 14 40  1  0
 16 41  1  0
 17 42  1  0
 21 43  1  0
 22 44  1  0
 23 45  1  0
M  END
>  <smiles>  (40) 
O=C(NCC(=O)N1CCCC[C@H]1CO)c1ccc2c(Cl)cccc2n1

>  <score_type>  (40) 
oracle

>  <origin>  (40) 
autodockgpu

>  <m_score__min__energy>  (40) 
-8.4499999999999993

>  <m_primary>  (40) 
energy

>  <rmsd>  (40) 
8.64849527248768

>  <m_score__min__rmsd>  (40) 
8.64849527248768

>  <meeko>  (40) 
{"free_energy": -7.3, "intermolecular_energy": -9.09, "internal_energy": -1.91, "cluster_size": 36, "cluster_id": 1, "rank_in_cluster": 33}

>  <energy>  (40) 
-6.6

>  <cluster_rmsd>  (40) 
1.19

>  <cluster>  (40) 
2

$$$$

     RDKit          3D

 45 47  0  0  0  0  0  0  0  0999 V2000
  136.3100   77.1880  222.7950 O   0  0  0  0  0  0  0  0  0  0  0  0
  136.4730   75.9690  223.1450 C   0  0  0  0  0  0  0  0  0  0  0  0
  137.6010   75.2880  222.5590 N   0  0  0  0  0  0  0  0  0  0  0  0
  138.5070   75.8510  221.6470 C   0  0  0  0  0  0  0  0  0  0  0  0
  139.5970   76.7120  221.9360 C   0  0  0  0  0  0  0  0  0  0  0  0
  140.6550   75.9840  222.4160 O   0  0  0  0  0  0  0  0  0  0  0  0
  139.9690   78.0380  221.8950 N   0  0  0  0  0  0  0  0  0  0  0  0
  139.0570   78.9240  222.7530 C   0  0  0  0  0  0  0  0  0  0  0  0
  139.8810   79.5070  223.8520 C   0  0  0  0  0  0  0  0  0  0  0  0
  141.2480   79.9580  223.4680 C   0  0  0  0  0  0  0  0  0  0  0  0
  141.9920   79.0300  222.5430 C   0  0  0  0  0  0  0  0  0  0  0  0
  141.0270   78.7980  221.3420 C   0  0  1  0  0  0  0  0  0  0  0  0
  141.8110   78.3590  220.1880 C   0  0  0  0  0  0  0  0  0  0  0  0
  141.9690   76.9380  220.3380 O   0  0  0  0  0  0  0  0  0  0  0  0
  135.5730   75.3050  224.0790 C   0  0  0  0  0  0  0  0  0  0  0  0
  135.5320   73.9260  224.0490 C   0  0  0  0  0  0  0  0  0  0  0  0
  134.6650   73.3070  224.9510 C   0  0  0  0  0  0  0  0  0  0  0  0
  133.8870   74.0460  225.8290 C   0  0  0  0  0  0  0  0  0  0  0  0
  133.0220   73.4460  226.7280 C   0  0  0  0  0  0  0  0  0  0  0  0
  132.9140   71.6980  226.7520 Cl  0  0  0  0  0  0  0  0  0  0  0  0
  132.2480   74.2020  227.6030 C   0  0  0  0  0  0  0  0  0  0  0  0
  132.3630   75.5840  227.5520 C   0  0  0  0  0  0  0  0  0  0  0  0
  133.2210   76.2190  226.6620 C   0  0  0  0  0  0  0  0  0  0  0  0
  133.9700   75.4280  225.8140 C   0  0  0  0  0  0  0  0  0  0  0  0
  134.8160   76.0200  224.9330 N   0  0  0  0  0  0  0  0  0  0  0  0
  137.6860   74.2770  222.8970 H   0  0  0  0  0  0  0  0  0  0  0  0
  138.9572   74.9907  221.1300 H   0  0  0  0  0  0  0  0  0  0  0  0
  137.8368   76.5772  221.1638 H   0  0  0  0  0  0  0  0  0  0  0  0
  138.6327   79.7303  222.1367 H   0  0  0  0  0  0  0  0  0  0  0  0
  138.2298   78.3305  223.1695 H   0  0  0  0  0  0  0  0  0  0  0  0
  139.3398   80.3757  224.2552 H   0  0  0  0  0  0  0  0  0  0  0  0
  140.0276   78.6945  224.5788 H   0  0  0  0  0  0  0  0  0  0  0  0
  141.1571   80.9345  222.9699 H   0  0  0  0  0  0  0  0  0  0  0  0
  141.8314   79.9935  224.3999 H   0  0  0  0  0  0  0  0  0  0  0  0
  142.9292   79.4939  222.2018 H   0  0  0  0  0  0  0  0  0  0  0  0
  142.2689   78.0877  223.0383 H   0  0  0  0  0  0  0  0  0  0  0  0
  140.5187   79.6559  220.8776 H   0  0  0  0  0  0  0  0  0  0  0  0
  141.2781   78.5884  219.2535 H   0  0  0  0  0  0  0  0  0  0  0  0
  142.7833   78.8712  220.1413 H   0  0  0  0  0  0  0  0  0  0  0  0
  142.2510   76.7020  221.2400 H   0  0  0  0  0  0  0  0  0  0  0  0
  136.1509   73.3443  223.3500 H   0  0  0  0  0  0  0  0  0  0  0  0
  134.5976   72.2092  224.9655 H   0  0  0  0  0  0  0  0  0  0  0  0
  131.5640   73.7176  228.3154 H   0  0  0  0  0  0  0  0  0  0  0  0
  131.7568   76.1953  228.2367 H   0  0  0  0  0  0  0  0  0  0  0  0
  133.3006   77.3158  226.6342 H   0  0  0  0  0  0  0  0  0  0  0  0
  1  2  2  0
  2  3  1  0
  3  4  1  0
  4  5  1  0
  5  6  2  0
  5  7  1  0
  7  8  1  0
  8  9  1  0
  9 10  1  0
 10 11  1  0
 11 12  1  0
 12 13  1  0
 13 14  1  0
  2 15  1  0
 15 16  2  0
 16 17  1  0
 17 18  2  0
 18 19  1  0
 19 20  1  0
 19 21  2  0
 21 22  1  0
 22 23  2  0
 23 24  1  0
 24 25  2  0
 12  7  1  0
 25 15  1  0
 24 18  1  0
  3 26  1  0
  4 27  1  0
  4 28  1  0
  8 29  1  0
  8 30  1  0
  9 31  1  0
  9 32  1  0
 10 33  1  0
 10 34  1  0
 11 35  1  0
 11 36  1  0
 12 37  1  6
 13 38  1  0
 13 39  1  0
 14 40  1  0
 16 41  1  0
 17 42  1  0
 21 43  1  0
 22 44  1  0
 23 45  1  0
M  END
>  <smiles>  (41) 
O=C(NCC(=O)N1CCCC[C@H]1CO)c1ccc2c(Cl)cccc2n1

>  <score_type>  (41) 
oracle

>  <origin>  (41) 
autodockgpu

>  <m_score__min__energy>  (41) 
-8.4499999999999993

>  <m_primary>  (41) 
energy

>  <rmsd>  (41) 
6.1686321015708785

>  <m_score__min__rmsd>  (41) 
6.1686321015708785

>  <meeko>  (41) 
{"free_energy": -6.54, "intermolecular_energy": -8.33, "internal_energy": -1.68, "cluster_size": 2, "cluster_id": 4, "rank_in_cluster": 1}

>  <energy>  (41) 
-6.28

>  <cluster_rmsd>  (41) 
1.67

>  <cluster>  (41) 
2

$$$$

     RDKit          3D

 45 47  0  0  0  0  0  0  0  0999 V2000
  140.2930   71.6280  221.1060 O   0  0  0  0  0  0  0  0  0  0  0  0
  139.9690   72.1780  222.2140 C   0  0  0  0  0  0  0  0  0  0  0  0
  139.5330   73.5500  222.1340 N   0  0  0  0  0  0  0  0  0  0  0  0
  139.4490   74.3100  220.9580 C   0  0  0  0  0  0  0  0  0  0  0  0
  140.2090   74.1480  219.7710 C   0  0  0  0  0  0  0  0  0  0  0  0
  139.4540   73.5200  218.8130 O   0  0  0  0  0  0  0  0  0  0  0  0
  141.4510   74.4100  219.2380 N   0  0  0  0  0  0  0  0  0  0  0  0
  141.4950   75.7540  218.4990 C   0  0  0  0  0  0  0  0  0  0  0  0
  142.4500   76.6460  219.2200 C   0  0  0  0  0  0  0  0  0  0  0  0
  143.6990   75.9980  219.7090 C   0  0  0  0  0  0  0  0  0  0  0  0
  143.5160   74.6350  220.3260 C   0  0  0  0  0  0  0  0  0  0  0  0
  142.7330   73.8110  219.2600 C   0  0  1  0  0  0  0  0  0  0  0  0
  142.9490   72.3880  219.5190 C   0  0  0  0  0  0  0  0  0  0  0  0
  141.8780   71.7000  218.8500 O   0  0  0  0  0  0  0  0  0  0  0  0
  140.0370   71.4640  223.4820 C   0  0  0  0  0  0  0  0  0  0  0  0
  139.5900   70.1580  223.4990 C   0  0  0  0  0  0  0  0  0  0  0  0
  139.6620   69.4900  224.7230 C   0  0  0  0  0  0  0  0  0  0  0  0
  140.1580   70.1120  225.8580 C   0  0  0  0  0  0  0  0  0  0  0  0
  140.2360   69.4620  227.0780 C   0  0  0  0  0  0  0  0  0  0  0  0
  139.6880   67.8010  227.1810 Cl  0  0  0  0  0  0  0  0  0  0  0  0
  140.7360   70.1000  228.2090 C   0  0  0  0  0  0  0  0  0  0  0  0
  141.1590   71.4160  228.0840 C   0  0  0  0  0  0  0  0  0  0  0  0
  141.0960   72.0990  226.8750 C   0  0  0  0  0  0  0  0  0  0  0  0
  140.5920   71.4240  225.7810 C   0  0  0  0  0  0  0  0  0  0  0  0
  140.5180   72.0650  224.5870 N   0  0  0  0  0  0  0  0  0  0  0  0
  139.2700   73.9490  223.0910 H   0  0  0  0  0  0  0  0  0  0  0  0
  138.4013   74.2157  220.6363 H   0  0  0  0  0  0  0  0  0  0  0  0
  139.8987   75.2446  221.3243 H   0  0  0  0  0  0  0  0  0  0  0  0
  141.8362   75.6002  217.4646 H   0  0  0  0  0  0  0  0  0  0  0  0
  140.4936   76.2084  218.4725 H   0  0  0  0  0  0  0  0  0  0  0  0
  142.7367   77.4575  218.5350 H   0  0  0  0  0  0  0  0  0  0  0  0
  141.9183   76.9875  220.1204 H   0  0  0  0  0  0  0  0  0  0  0  0
  144.3858   75.8959  218.8559 H   0  0  0  0  0  0  0  0  0  0  0  0
  144.0857   76.6459  220.5095 H   0  0  0  0  0  0  0  0  0  0  0  0
  144.4913   74.1706  220.5337 H   0  0  0  0  0  0  0  0  0  0  0  0
  142.9799   74.6845  221.2852 H   0  0  0  0  0  0  0  0  0  0  0  0
  143.0513   73.8372  218.2074 H   0  0  0  0  0  0  0  0  0  0  0  0
  143.9209   72.0685  219.1147 H   0  0  0  0  0  0  0  0  0  0  0  0
  142.9586   72.1701  220.5971 H   0  0  0  0  0  0  0  0  0  0  0  0
  141.0070   72.0510  219.1140 H   0  0  0  0  0  0  0  0  0  0  0  0
  139.1975   69.6690  222.5952 H   0  0  0  0  0  0  0  0  0  0  0  0
  139.3176   68.4473  224.7879 H   0  0  0  0  0  0  0  0  0  0  0  0
  140.7943   69.5763  229.1746 H   0  0  0  0  0  0  0  0  0  0  0  0
  141.5564   71.9345  228.9690 H   0  0  0  0  0  0  0  0  0  0  0  0
  141.4361   73.1418  226.7926 H   0  0  0  0  0  0  0  0  0  0  0  0
  1  2  2  0
  2  3  1  0
  3  4  1  0
  4  5  1  0
  5  6  2  0
  5  7  1  0
  7  8  1  0
  8  9  1  0
  9 10  1  0
 10 11  1  0
 11 12  1  0
 12 13  1  0
 13 14  1  0
  2 15  1  0
 15 16  2  0
 16 17  1  0
 17 18  2  0
 18 19  1  0
 19 20  1  0
 19 21  2  0
 21 22  1  0
 22 23  2  0
 23 24  1  0
 24 25  2  0
 12  7  1  0
 25 15  1  0
 24 18  1  0
  3 26  1  0
  4 27  1  0
  4 28  1  0
  8 29  1  0
  8 30  1  0
  9 31  1  0
  9 32  1  0
 10 33  1  0
 10 34  1  0
 11 35  1  0
 11 36  1  0
 12 37  1  6
 13 38  1  0
 13 39  1  0
 14 40  1  0
 16 41  1  0
 17 42  1  0
 21 43  1  0
 22 44  1  0
 23 45  1  0
M  END
>  <smiles>  (42) 
O=C(NCC(=O)N1CCCC[C@H]1CO)c1ccc2c(Cl)cccc2n1

>  <score_type>  (42) 
oracle

>  <origin>  (42) 
autodockgpu

>  <m_score__min__energy>  (42) 
-8.4499999999999993

>  <m_primary>  (42) 
energy

>  <rmsd>  (42) 
2.6851398761443304

>  <m_score__min__rmsd>  (42) 
2.6851398761443304

>  <meeko>  (42) 
{"free_energy": -6.16, "intermolecular_energy": -7.95, "internal_energy": -2.61, "cluster_size": 3, "cluster_id": 5, "rank_in_cluster": 1}

>  <energy>  (42) 
-6.99

>  <cluster_rmsd>  (42) 
0.0

>  <cluster>  (42) 
3

$$$$

     RDKit          3D

 45 47  0  0  0  0  0  0  0  0999 V2000
  140.9640   73.3660  222.3670 O   0  0  0  0  0  0  0  0  0  0  0  0
  140.0170   72.5380  222.5930 C   0  0  0  0  0  0  0  0  0  0  0  0
  138.9130   72.5710  221.6650 N   0  0  0  0  0  0  0  0  0  0  0  0
  138.8030   73.4330  220.5630 C   0  0  0  0  0  0  0  0  0  0  0  0
  139.7460   74.3980  220.1260 C   0  0  0  0  0  0  0  0  0  0  0  0
  139.8360   74.3790  218.7580 O   0  0  0  0  0  0  0  0  0  0  0  0
  140.6070   75.3630  220.6020 N   0  0  0  0  0  0  0  0  0  0  0  0
  142.0320   75.1860  220.0630 C   0  0  0  0  0  0  0  0  0  0  0  0
  142.3610   76.3770  219.2270 C   0  0  0  0  0  0  0  0  0  0  0  0
  141.9000   77.6900  219.7600 C   0  0  0  0  0  0  0  0  0  0  0  0
  140.5120   77.6920  220.3460 C   0  0  0  0  0  0  0  0  0  0  0  0
  140.5130   76.5340  221.3900 C   0  0  1  0  0  0  0  0  0  0  0  0
  139.4360   76.7690  222.3510 C   0  0  0  0  0  0  0  0  0  0  0  0
  138.9140   75.4720  222.6820 O   0  0  0  0  0  0  0  0  0  0  0  0
  140.0470   71.6150  223.7200 C   0  0  0  0  0  0  0  0  0  0  0  0
  139.5710   70.3380  223.5070 C   0  0  0  0  0  0  0  0  0  0  0  0
  139.6080   69.4680  224.5980 C   0  0  0  0  0  0  0  0  0  0  0  0
  140.0990   69.8730  225.8300 C   0  0  0  0  0  0  0  0  0  0  0  0
  140.1410   69.0220  226.9210 C   0  0  0  0  0  0  0  0  0  0  0  0
  139.5560   67.3820  226.7300 Cl  0  0  0  0  0  0  0  0  0  0  0  0
  140.6370   69.4440  228.1500 C   0  0  0  0  0  0  0  0  0  0  0  0
  141.0910   70.7510  228.2590 C   0  0  0  0  0  0  0  0  0  0  0  0
  141.0630   71.6320  227.1850 C   0  0  0  0  0  0  0  0  0  0  0  0
  140.5630   71.1680  225.9850 C   0  0  0  0  0  0  0  0  0  0  0  0
  140.5230   72.0060  224.9180 N   0  0  0  0  0  0  0  0  0  0  0  0
  138.1590   71.8520  221.9040 H   0  0  0  0  0  0  0  0  0  0  0  0
  138.6603   72.7677  219.6987 H   0  0  0  0  0  0  0  0  0  0  0  0
  138.0298   74.1118  220.9520 H   0  0  0  0  0  0  0  0  0  0  0  0
  142.7411   75.1107  220.9006 H   0  0  0  0  0  0  0  0  0  0  0  0
  142.1015   74.2671  219.4624 H   0  0  0  0  0  0  0  0  0  0  0  0
  143.4547   76.4218  219.1187 H   0  0  0  0  0  0  0  0  0  0  0  0
  141.8233   76.2340  218.2781 H   0  0  0  0  0  0  0  0  0  0  0  0
  142.6021   78.0036  220.5466 H   0  0  0  0  0  0  0  0  0  0  0  0
  141.8696   78.3752  218.9000 H   0  0  0  0  0  0  0  0  0  0  0  0
  140.3005   78.6540  220.8358 H   0  0  0  0  0  0  0  0  0  0  0  0
  139.7384   77.5537  219.5763 H   0  0  0  0  0  0  0  0  0  0  0  0
  141.3484   76.4398  222.0994 H   0  0  0  0  0  0  0  0  0  0  0  0
  139.8279   77.2649  223.2513 H   0  0  0  0  0  0  0  0  0  0  0  0
  138.6570   77.4233  221.9327 H   0  0  0  0  0  0  0  0  0  0  0  0
  139.5930   74.9060  223.0920 H   0  0  0  0  0  0  0  0  0  0  0  0
  139.1823   70.0215  222.5279 H   0  0  0  0  0  0  0  0  0  0  0  0
  139.2396   68.4385  224.4778 H   0  0  0  0  0  0  0  0  0  0  0  0
  140.6685   68.7609  229.0116 H   0  0  0  0  0  0  0  0  0  0  0  0
  141.4849   71.1000  229.2249 H   0  0  0  0  0  0  0  0  0  0  0  0
  141.4272   72.6649  227.2876 H   0  0  0  0  0  0  0  0  0  0  0  0
  1  2  2  0
  2  3  1  0
  3  4  1  0
  4  5  1  0
  5  6  2  0
  5  7  1  0
  7  8  1  0
  8  9  1  0
  9 10  1  0
 10 11  1  0
 11 12  1  0
 12 13  1  0
 13 14  1  0
  2 15  1  0
 15 16  2  0
 16 17  1  0
 17 18  2  0
 18 19  1  0
 19 20  1  0
 19 21  2  0
 21 22  1  0
 22 23  2  0
 23 24  1  0
 24 25  2  0
 12  7  1  0
 25 15  1  0
 24 18  1  0
  3 26  1  0
  4 27  1  0
  4 28  1  0
  8 29  1  0
  8 30  1  0
  9 31  1  0
  9 32  1  0
 10 33  1  0
 10 34  1  0
 11 35  1  0
 11 36  1  0
 12 37  1  1
 13 38  1  0
 13 39  1  0
 14 40  1  0
 16 41  1  0
 17 42  1  0
 21 43  1  0
 22 44  1  0
 23 45  1  0
M  END
>  <smiles>  (43) 
O=C(NCC(=O)N1CCCC[C@H]1CO)c1ccc2c(Cl)cccc2n1

>  <score_type>  (43) 
oracle

>  <origin>  (43) 
autodockgpu

>  <m_score__min__energy>  (43) 
-8.4499999999999993

>  <m_primary>  (43) 
energy

>  <rmsd>  (43) 
2.3845665617446987

>  <m_score__min__rmsd>  (43) 
2.3845665617446987

>  <meeko>  (43) 
{"free_energy": -6.81, "intermolecular_energy": -8.6, "internal_energy": -1.72, "cluster_size": 5, "cluster_id": 2, "rank_in_cluster": 3}

>  <energy>  (43) 
-6.87

>  <cluster_rmsd>  (43) 
1.51

>  <cluster>  (43) 
3

$$$$

     RDKit          3D

 45 47  0  0  0  0  0  0  0  0999 V2000
  135.3800   69.6360  224.4020 O   0  0  0  0  0  0  0  0  0  0  0  0
  135.8950   70.7990  224.5240 C   0  0  0  0  0  0  0  0  0  0  0  0
  137.2840   70.9180  224.1560 N   0  0  0  0  0  0  0  0  0  0  0  0
  138.0950   69.8700  223.6930 C   0  0  0  0  0  0  0  0  0  0  0  0
  139.1370   69.2120  224.3960 C   0  0  0  0  0  0  0  0  0  0  0  0
  139.1440   67.8780  224.0800 O   0  0  0  0  0  0  0  0  0  0  0  0
  140.1590   69.4500  225.2880 N   0  0  0  0  0  0  0  0  0  0  0  0
  140.8410   70.8020  225.0440 C   0  0  0  0  0  0  0  0  0  0  0  0
  140.6080   71.6600  226.2430 C   0  0  0  0  0  0  0  0  0  0  0  0
  140.7140   70.9730  227.5610 C   0  0  0  0  0  0  0  0  0  0  0  0
  140.0800   69.6080  227.6260 C   0  0  0  0  0  0  0  0  0  0  0  0
  140.6990   68.8180  226.4330 C   0  0  1  0  0  0  0  0  0  0  0  0
  140.5620   67.3870  226.6990 C   0  0  0  0  0  0  0  0  0  0  0  0
  139.1760   67.0770  226.4800 O   0  0  0  0  0  0  0  0  0  0  0  0
  135.1270   71.9400  225.0070 C   0  0  0  0  0  0  0  0  0  0  0  0
  134.1060   71.6840  225.8990 C   0  0  0  0  0  0  0  0  0  0  0  0
  133.3810   72.7880  226.3510 C   0  0  0  0  0  0  0  0  0  0  0  0
  133.6760   74.0730  225.9210 C   0  0  0  0  0  0  0  0  0  0  0  0
  132.9660   75.1770  226.3600 C   0  0  0  0  0  0  0  0  0  0  0  0
  131.6540   74.9340  227.4960 Cl  0  0  0  0  0  0  0  0  0  0  0  0
  133.2750   76.4590  225.9190 C   0  0  0  0  0  0  0  0  0  0  0  0
  134.3210   76.6080  225.0190 C   0  0  0  0  0  0  0  0  0  0  0  0
  135.0550   75.5210  224.5580 C   0  0  0  0  0  0  0  0  0  0  0  0
  134.7120   74.2680  225.0240 C   0  0  0  0  0  0  0  0  0  0  0  0
  135.4110   73.1880  224.5910 N   0  0  0  0  0  0  0  0  0  0  0  0
  137.6530   71.9150  224.2740 H   0  0  0  0  0  0  0  0  0  0  0  0
  137.3917   69.0700  223.4186 H   0  0  0  0  0  0  0  0  0  0  0  0
  138.7032   70.4301  222.9674 H   0  0  0  0  0  0  0  0  0  0  0  0
  141.9208   70.6538  224.8953 H   0  0  0  0  0  0  0  0  0  0  0  0
  140.4270   71.2818  224.1449 H   0  0  0  0  0  0  0  0  0  0  0  0
  141.3486   72.4732  226.2255 H   0  0  0  0  0  0  0  0  0  0  0  0
  139.5657   72.0033  226.1674 H   0  0  0  0  0  0  0  0  0  0  0  0
  141.7815   70.8642  227.8031 H   0  0  0  0  0  0  0  0  0  0  0  0
  140.1625   71.6000  228.2771 H   0  0  0  0  0  0  0  0  0  0  0  0
  140.3184   69.1161  228.5806 H   0  0  0  0  0  0  0  0  0  0  0  0
  138.9830   69.6587  227.5630 H   0  0  0  0  0  0  0  0  0  0  0  0
  141.7851   68.8497  226.2613 H   0  0  0  0  0  0  0  0  0  0  0  0
  141.1968   66.8076  226.0125 H   0  0  0  0  0  0  0  0  0  0  0  0
  140.8756   67.1345  227.7227 H   0  0  0  0  0  0  0  0  0  0  0  0
  138.6780   67.8580  226.1750 H   0  0  0  0  0  0  0  0  0  0  0  0
  133.8752   70.6628  226.2365 H   0  0  0  0  0  0  0  0  0  0  0  0
  132.5574   72.6353  227.0640 H   0  0  0  0  0  0  0  0  0  0  0  0
  132.7061   77.3311  226.2737 H   0  0  0  0  0  0  0  0  0  0  0  0
  134.5768   77.6158  224.6599 H   0  0  0  0  0  0  0  0  0  0  0  0
  135.8820   75.6552  223.8452 H   0  0  0  0  0  0  0  0  0  0  0  0
  1  2  2  0
  2  3  1  0
  3  4  1  0
  4  5  1  0
  5  6  2  0
  5  7  1  0
  7  8  1  0
  8  9  1  0
  9 10  1  0
 10 11  1  0
 11 12  1  0
 12 13  1  0
 13 14  1  0
  2 15  1  0
 15 16  2  0
 16 17  1  0
 17 18  2  0
 18 19  1  0
 19 20  1  0
 19 21  2  0
 21 22  1  0
 22 23  2  0
 23 24  1  0
 24 25  2  0
 12  7  1  0
 25 15  1  0
 24 18  1  0
  3 26  1  0
  4 27  1  0
  4 28  1  0
  8 29  1  0
  8 30  1  0
  9 31  1  0
  9 32  1  0
 10 33  1  0
 10 34  1  0
 11 35  1  0
 11 36  1  0
 12 37  1  6
 13 38  1  0
 13 39  1  0
 14 40  1  0
 16 41  1  0
 17 42  1  0
 21 43  1  0
 22 44  1  0
 23 45  1  0
M  END
>  <smiles>  (44) 
O=C(NCC(=O)N1CCCC[C@H]1CO)c1ccc2c(Cl)cccc2n1

>  <score_type>  (44) 
oracle

>  <origin>  (44) 
autodockgpu

>  <m_score__min__energy>  (44) 
-8.4499999999999993

>  <m_primary>  (44) 
energy

>  <rmsd>  (44) 
8.287995293299213

>  <m_score__min__rmsd>  (44) 
8.287995293299213

>  <meeko>  (44) 
{"free_energy": -6.83, "intermolecular_energy": -8.62, "internal_energy": -1.8, "cluster_size": 4, "cluster_id": 3, "rank_in_cluster": 3}

>  <energy>  (44) 
-6.83

>  <cluster_rmsd>  (44) 
1.17

>  <cluster>  (44) 
3

$$$$

     RDKit          3D

 45 47  0  0  0  0  0  0  0  0999 V2000
  136.4610   69.1390  224.3950 O   0  0  0  0  0  0  0  0  0  0  0  0
  136.2970   70.3900  224.5980 C   0  0  0  0  0  0  0  0  0  0  0  0
  137.4000   71.2410  224.2270 N   0  0  0  0  0  0  0  0  0  0  0  0
  138.6160   70.8040  223.6800 C   0  0  0  0  0  0  0  0  0  0  0  0
  139.8840   70.7680  224.3160 C   0  0  0  0  0  0  0  0  0  0  0  0
  140.8310   71.3380  223.5050 O   0  0  0  0  0  0  0  0  0  0  0  0
  140.5000   70.3630  225.4790 N   0  0  0  0  0  0  0  0  0  0  0  0
  141.3190   71.4870  226.1250 C   0  0  0  0  0  0  0  0  0  0  0  0
  140.7070   71.8020  227.4490 C   0  0  0  0  0  0  0  0  0  0  0  0
  140.2490   70.6310  228.2470 C   0  0  0  0  0  0  0  0  0  0  0  0
  139.5420   69.5570  227.4620 C   0  0  0  0  0  0  0  0  0  0  0  0
  140.5110   69.2050  226.2930 C   0  0  1  0  0  0  0  0  0  0  0  0
  140.1800   67.8710  225.7950 C   0  0  0  0  0  0  0  0  0  0  0  0
  138.7440   67.8010  225.7860 O   0  0  0  0  0  0  0  0  0  0  0  0
  135.0690   70.9270  225.1710 C   0  0  0  0  0  0  0  0  0  0  0  0
  134.0770   70.0270  225.5010 C   0  0  0  0  0  0  0  0  0  0  0  0
  132.9080   70.5590  226.0480 C   0  0  0  0  0  0  0  0  0  0  0  0
  132.7590   71.9230  226.2470 C   0  0  0  0  0  0  0  0  0  0  0  0
  131.6060   72.4650  226.7890 C   0  0  0  0  0  0  0  0  0  0  0  0
  130.2990   71.3870  227.2350 Cl  0  0  0  0  0  0  0  0  0  0  0  0
  131.4720   73.8370  226.9820 C   0  0  0  0  0  0  0  0  0  0  0  0
  132.5300   74.6560  226.6150 C   0  0  0  0  0  0  0  0  0  0  0  0
  133.7010   74.1450  226.0690 C   0  0  0  0  0  0  0  0  0  0  0  0
  133.7890   72.7790  225.8970 C   0  0  0  0  0  0  0  0  0  0  0  0
  134.9210   72.2510  225.3650 N   0  0  0  0  0  0  0  0  0  0  0  0
  137.1980   72.2740  224.4140 H   0  0  0  0  0  0  0  0  0  0  0  0
  138.4276   69.7658  223.3691 H   0  0  0  0  0  0  0  0  0  0  0  0
  138.7978   71.6329  222.9801 H   0  0  0  0  0  0  0  0  0  0  0  0
  142.3595   71.1583  226.2636 H   0  0  0  0  0  0  0  0  0  0  0  0
  141.3171   72.3791  225.4815 H   0  0  0  0  0  0  0  0  0  0  0  0
  141.4547   72.3452  228.0456 H   0  0  0  0  0  0  0  0  0  0  0  0
  139.8010   72.3853  227.2279 H   0  0  0  0  0  0  0  0  0  0  0  0
  141.1307   70.1788  228.7247 H   0  0  0  0  0  0  0  0  0  0  0  0
  139.5117   71.0201  228.9646 H   0  0  0  0  0  0  0  0  0  0  0  0
  139.3603   68.6740  228.0923 H   0  0  0  0  0  0  0  0  0  0  0  0
  138.5599   69.8918  227.0970 H   0  0  0  0  0  0  0  0  0  0  0  0
  141.5789   69.0411  226.4997 H   0  0  0  0  0  0  0  0  0  0  0  0
  140.5766   67.7324  224.7784 H   0  0  0  0  0  0  0  0  0  0  0  0
  140.6196   67.0834  226.4246 H   0  0  0  0  0  0  0  0  0  0  0  0
  138.3610   68.3870  225.1070 H   0  0  0  0  0  0  0  0  0  0  0  0
  134.2007   68.9457  225.3413 H   0  0  0  0  0  0  0  0  0  0  0  0
  132.0875   69.8815  226.3271 H   0  0  0  0  0  0  0  0  0  0  0  0
  130.5528   74.2601  227.4135 H   0  0  0  0  0  0  0  0  0  0  0  0
  132.4390   75.7425  226.7607 H   0  0  0  0  0  0  0  0  0  0  0  0
  134.5309   74.8080  225.7832 H   0  0  0  0  0  0  0  0  0  0  0  0
  1  2  2  0
  2  3  1  0
  3  4  1  0
  4  5  1  0
  5  6  2  0
  5  7  1  0
  7  8  1  0
  8  9  1  0
  9 10  1  0
 10 11  1  0
 11 12  1  0
 12 13  1  0
 13 14  1  0
  2 15  1  0
 15 16  2  0
 16 17  1  0
 17 18  2  0
 18 19  1  0
 19 20  1  0
 19 21  2  0
 21 22  1  0
 22 23  2  0
 23 24  1  0
 24 25  2  0
 12  7  1  0
 25 15  1  0
 24 18  1  0
  3 26  1  0
  4 27  1  0
  4 28  1  0
  8 29  1  0
  8 30  1  0
  9 31  1  0
  9 32  1  0
 10 33  1  0
 10 34  1  0
 11 35  1  0
 11 36  1  0
 12 37  1  1
 13 38  1  0
 13 39  1  0
 14 40  1  0
 16 41  1  0
 17 42  1  0
 21 43  1  0
 22 44  1  0
 23 45  1  0
M  END
>  <smiles>  (45) 
O=C(NCC(=O)N1CCCC[C@H]1CO)c1ccc2c(Cl)cccc2n1

>  <score_type>  (45) 
oracle

>  <origin>  (45) 
autodockgpu

>  <m_score__min__energy>  (45) 
-8.4499999999999993

>  <m_primary>  (45) 
energy

>  <rmsd>  (45) 
8.103860169954507

>  <m_score__min__rmsd>  (45) 
8.103860169954507

>  <meeko>  (45) 
{"free_energy": -6.87, "intermolecular_energy": -8.66, "internal_energy": -2.17, "cluster_size": 4, "cluster_id": 3, "rank_in_cluster": 2}

>  <energy>  (45) 
-6.55

>  <cluster_rmsd>  (45) 
1.41

>  <cluster>  (45) 
3

$$$$

     RDKit          3D

 45 47  0  0  0  0  0  0  0  0999 V2000
  140.6720   70.8790  222.0480 O   0  0  0  0  0  0  0  0  0  0  0  0
  140.0940   71.9880  222.3090 C   0  0  0  0  0  0  0  0  0  0  0  0
  138.9490   71.9140  223.1820 N   0  0  0  0  0  0  0  0  0  0  0  0
  138.4300   70.7380  223.7450 C   0  0  0  0  0  0  0  0  0  0  0  0
  139.0990   69.8230  224.5990 C   0  0  0  0  0  0  0  0  0  0  0  0
  138.5150   68.5860  224.5090 O   0  0  0  0  0  0  0  0  0  0  0  0
  140.1460   69.7420  225.4900 N   0  0  0  0  0  0  0  0  0  0  0  0
  140.8500   71.0910  225.6840 C   0  0  0  0  0  0  0  0  0  0  0  0
  140.6630   71.5100  227.1030 C   0  0  0  0  0  0  0  0  0  0  0  0
  140.7840   70.4290  228.1200 C   0  0  0  0  0  0  0  0  0  0  0  0
  140.1230   69.1250  227.7520 C   0  0  0  0  0  0  0  0  0  0  0  0
  140.6980   68.7630  226.3490 C   0  0  1  0  0  0  0  0  0  0  0  0
  140.5370   67.3250  226.1350 C   0  0  0  0  0  0  0  0  0  0  0  0
  139.1700   67.0290  226.4680 O   0  0  0  0  0  0  0  0  0  0  0  0
  140.5620   73.2540  221.7590 C   0  0  0  0  0  0  0  0  0  0  0  0
  141.4470   73.1970  220.7010 C   0  0  0  0  0  0  0  0  0  0  0  0
  141.8830   74.4190  220.1870 C   0  0  0  0  0  0  0  0  0  0  0  0
  141.4480   75.6240  220.7160 C   0  0  0  0  0  0  0  0  0  0  0  0
  141.8720   76.8430  220.2170 C   0  0  0  0  0  0  0  0  0  0  0  0
  142.9960   76.8550  218.8730 Cl  0  0  0  0  0  0  0  0  0  0  0  0
  141.4250   78.0440  220.7590 C   0  0  0  0  0  0  0  0  0  0  0  0
  140.5350   77.9900  221.8230 C   0  0  0  0  0  0  0  0  0  0  0  0
  140.0880   76.7840  222.3490 C   0  0  0  0  0  0  0  0  0  0  0  0
  140.5590   75.6190  221.7780 C   0  0  0  0  0  0  0  0  0  0  0  0
  140.1400   74.4260  222.2710 N   0  0  0  0  0  0  0  0  0  0  0  0
  138.5160   72.8740  223.3680 H   0  0  0  0  0  0  0  0  0  0  0  0
  137.5494   71.0649  224.3174 H   0  0  0  0  0  0  0  0  0  0  0  0
  138.3787   70.1200  222.8365 H   0  0  0  0  0  0  0  0  0  0  0  0
  141.9228   70.9870  225.4640 H   0  0  0  0  0  0  0  0  0  0  0  0
  140.4250   71.8444  225.0045 H   0  0  0  0  0  0  0  0  0  0  0  0
  141.4201   72.2745  227.3316 H   0  0  0  0  0  0  0  0  0  0  0  0
  139.6264   71.8712  227.1733 H   0  0  0  0  0  0  0  0  0  0  0  0
  141.8541   70.2339  228.2836 H   0  0  0  0  0  0  0  0  0  0  0  0
  140.2618   70.7936  229.0169 H   0  0  0  0  0  0  0  0  0  0  0  0
  140.3730   68.3443  228.4855 H   0  0  0  0  0  0  0  0  0  0  0  0
  139.0261   69.2066  227.7405 H   0  0  0  0  0  0  0  0  0  0  0  0
  141.7803   68.8362  226.1666 H   0  0  0  0  0  0  0  0  0  0  0  0
  140.7391   67.0693  225.0844 H   0  0  0  0  0  0  0  0  0  0  0  0
  141.2384   66.7434  226.7512 H   0  0  0  0  0  0  0  0  0  0  0  0
  139.1100   66.3910  227.2020 H   0  0  0  0  0  0  0  0  0  0  0  0
  141.7906   72.2385  220.2849 H   0  0  0  0  0  0  0  0  0  0  0  0
  142.5880   74.4260  219.3427 H   0  0  0  0  0  0  0  0  0  0  0  0
  141.7671   79.0086  220.3559 H   0  0  0  0  0  0  0  0  0  0  0  0
  140.1725   78.9307  222.2632 H   0  0  0  0  0  0  0  0  0  0  0  0
  139.3823   76.7586  223.1924 H   0  0  0  0  0  0  0  0  0  0  0  0
  1  2  2  0
  2  3  1  0
  3  4  1  0
  4  5  1  0
  5  6  2  0
  5  7  1  0
  7  8  1  0
  8  9  1  0
  9 10  1  0
 10 11  1  0
 11 12  1  0
 12 13  1  0
 13 14  1  0
  2 15  1  0
 15 16  2  0
 16 17  1  0
 17 18  2  0
 18 19  1  0
 19 20  1  0
 19 21  2  0
 21 22  1  0
 22 23  2  0
 23 24  1  0
 24 25  2  0
 12  7  1  0
 25 15  1  0
 24 18  1  0
  3 26  1  0
  4 27  1  0
  4 28  1  0
  8 29  1  0
  8 30  1  0
  9 31  1  0
  9 32  1  0
 10 33  1  0
 10 34  1  0
 11 35  1  0
 11 36  1  0
 12 37  1  1
 13 38  1  0
 13 39  1  0
 14 40  1  0
 16 41  1  0
 17 42  1  0
 21 43  1  0
 22 44  1  0
 23 45  1  0
M  END
>  <smiles>  (46) 
O=C(NCC(=O)N1CCCC[C@H]1CO)c1ccc2c(Cl)cccc2n1

>  <score_type>  (46) 
oracle

>  <origin>  (46) 
autodockgpu

>  <m_score__min__energy>  (46) 
-8.4499999999999993

>  <m_primary>  (46) 
energy

>  <rmsd>  (46) 
8.269395671635353

>  <m_score__min__rmsd>  (46) 
8.269395671635353

>  <meeko>  (46) 
{"free_energy": -8.45, "intermolecular_energy": -10.24, "internal_energy": -1.3, "cluster_size": 36, "cluster_id": 1, "rank_in_cluster": 1}

>  <energy>  (46) 
-6.54

>  <cluster_rmsd>  (46) 
0.0

>  <cluster>  (46) 
4

$$$$

     RDKit          3D

 45 47  0  0  0  0  0  0  0  0999 V2000
  140.4880   70.7620  221.9710 O   0  0  0  0  0  0  0  0  0  0  0  0
  140.0180   71.9140  222.2620 C   0  0  0  0  0  0  0  0  0  0  0  0
  138.8890   71.9290  223.1590 N   0  0  0  0  0  0  0  0  0  0  0  0
  138.2780   70.7950  223.7160 C   0  0  0  0  0  0  0  0  0  0  0  0
  138.7740   69.9760  224.7630 C   0  0  0  0  0  0  0  0  0  0  0  0
  137.8780   68.9740  225.0370 O   0  0  0  0  0  0  0  0  0  0  0  0
  139.8540   69.8310  225.6040 N   0  0  0  0  0  0  0  0  0  0  0  0
  140.8800   70.9580  225.4320 C   0  0  0  0  0  0  0  0  0  0  0  0
  140.9450   71.7240  226.7110 C   0  0  0  0  0  0  0  0  0  0  0  0
  140.9030   70.9090  227.9570 C   0  0  0  0  0  0  0  0  0  0  0  0
  139.9120   69.7740  227.9480 C   0  0  0  0  0  0  0  0  0  0  0  0
  140.2370   68.9640  226.6560 C   0  0  1  0  0  0  0  0  0  0  0  0
  139.7110   67.6090  226.8090 C   0  0  0  0  0  0  0  0  0  0  0  0
  139.5630   67.0920  225.4760 O   0  0  0  0  0  0  0  0  0  0  0  0
  140.5860   73.1420  221.7190 C   0  0  0  0  0  0  0  0  0  0  0  0
  141.4840   73.0190  220.6790 C   0  0  0  0  0  0  0  0  0  0  0  0
  142.0180   74.2050  220.1730 C   0  0  0  0  0  0  0  0  0  0  0  0
  141.6600   75.4400  220.6930 C   0  0  0  0  0  0  0  0  0  0  0  0
  142.1810   76.6250  220.2010 C   0  0  0  0  0  0  0  0  0  0  0  0
  143.3290   76.5520  218.8790 Cl  0  0  0  0  0  0  0  0  0  0  0  0
  141.8110   77.8550  220.7340 C   0  0  0  0  0  0  0  0  0  0  0  0
  140.9000   77.8680  221.7810 C   0  0  0  0  0  0  0  0  0  0  0  0
  140.3570   76.6980  222.2990 C   0  0  0  0  0  0  0  0  0  0  0  0
  140.7530   75.5010  221.7370 C   0  0  0  0  0  0  0  0  0  0  0  0
  140.2400   74.3420  222.2230 N   0  0  0  0  0  0  0  0  0  0  0  0
  138.5480   72.9200  223.3680 H   0  0  0  0  0  0  0  0  0  0  0  0
  137.3006   71.1496  224.0750 H   0  0  0  0  0  0  0  0  0  0  0  0
  138.4085   70.0980  222.8751 H   0  0  0  0  0  0  0  0  0  0  0  0
  141.8675   70.5315  225.2021 H   0  0  0  0  0  0  0  0  0  0  0  0
  140.5838   71.6205  224.6053 H   0  0  0  0  0  0  0  0  0  0  0  0
  141.8839   72.2971  226.7139 H   0  0  0  0  0  0  0  0  0  0  0  0
  140.0398   72.3487  226.7317 H   0  0  0  0  0  0  0  0  0  0  0  0
  141.9047   70.4848  228.1201 H   0  0  0  0  0  0  0  0  0  0  0  0
  140.5790   71.5909  228.7570 H   0  0  0  0  0  0  0  0  0  0  0  0
  140.0377   69.1441  228.8410 H   0  0  0  0  0  0  0  0  0  0  0  0
  138.8724   70.1334  227.9595 H   0  0  0  0  0  0  0  0  0  0  0  0
  141.2806   68.7093  226.4191 H   0  0  0  0  0  0  0  0  0  0  0  0
  140.4136   66.9884  227.3845 H   0  0  0  0  0  0  0  0  0  0  0  0
  138.7546   67.6056  227.3524 H   0  0  0  0  0  0  0  0  0  0  0  0
  139.6490   67.7960  224.8070 H   0  0  0  0  0  0  0  0  0  0  0  0
  141.7645   72.0372  220.2698 H   0  0  0  0  0  0  0  0  0  0  0  0
  142.7388   74.1593  219.3434 H   0  0  0  0  0  0  0  0  0  0  0  0
  142.2288   78.7918  220.3367 H   0  0  0  0  0  0  0  0  0  0  0  0
  140.5986   78.8333  222.2139 H   0  0  0  0  0  0  0  0  0  0  0  0
  139.6357   76.7250  223.1291 H   0  0  0  0  0  0  0  0  0  0  0  0
  1  2  2  0
  2  3  1  0
  3  4  1  0
  4  5  1  0
  5  6  2  0
  5  7  1  0
  7  8  1  0
  8  9  1  0
  9 10  1  0
 10 11  1  0
 11 12  1  0
 12 13  1  0
 13 14  1  0
  2 15  1  0
 15 16  2  0
 16 17  1  0
 17 18  2  0
 18 19  1  0
 19 20  1  0
 19 21  2  0
 21 22  1  0
 22 23  2  0
 23 24  1  0
 24 25  2  0
 12  7  1  0
 25 15  1  0
 24 18  1  0
  3 26  1  0
  4 27  1  0
  4 28  1  0
  8 29  1  0
  8 30  1  0
  9 31  1  0
  9 32  1  0
 10 33  1  0
 10 34  1  0
 11 35  1  0
 11 36  1  0
 12 37  1  6
 13 38  1  0
 13 39  1  0
 14 40  1  0
 16 41  1  0
 17 42  1  0
 21 43  1  0
 22 44  1  0
 23 45  1  0
M  END
>  <smiles>  (47) 
O=C(NCC(=O)N1CCCC[C@H]1CO)c1ccc2c(Cl)cccc2n1

>  <score_type>  (47) 
oracle

>  <origin>  (47) 
autodockgpu

>  <m_score__min__energy>  (47) 
-8.4499999999999993

>  <m_primary>  (47) 
energy

>  <rmsd>  (47) 
8.254293422873602

>  <m_score__min__rmsd>  (47) 
8.254293422873602

>  <meeko>  (47) 
{"free_energy": -8.08, "intermolecular_energy": -9.87, "internal_energy": -2.0, "cluster_size": 36, "cluster_id": 1, "rank_in_cluster": 4}

>  <energy>  (47) 
-5.91

>  <cluster_rmsd>  (47) 
1.52

>  <cluster>  (47) 
4

$$$$

     RDKit          3D

 45 47  0  0  0  0  0  0  0  0999 V2000
  140.6000   70.9120  221.8250 O   0  0  0  0  0  0  0  0  0  0  0  0
  140.1330   72.0510  222.1700 C   0  0  0  0  0  0  0  0  0  0  0  0
  139.0650   72.0290  223.1390 N   0  0  0  0  0  0  0  0  0  0  0  0
  138.5070   70.8740  223.7080 C   0  0  0  0  0  0  0  0  0  0  0  0
  139.1670   69.9000  224.5010 C   0  0  0  0  0  0  0  0  0  0  0  0
  138.8430   68.6410  224.0620 O   0  0  0  0  0  0  0  0  0  0  0  0
  140.0340   69.7760  225.5640 N   0  0  0  0  0  0  0  0  0  0  0  0
  141.1890   70.7820  225.4930 C   0  0  0  0  0  0  0  0  0  0  0  0
  141.0760   71.6990  226.6660 C   0  0  0  0  0  0  0  0  0  0  0  0
  140.6960   71.0570  227.9550 C   0  0  0  0  0  0  0  0  0  0  0  0
  139.6110   70.0160  227.8580 C   0  0  0  0  0  0  0  0  0  0  0  0
  140.1010   69.0230  226.7610 C   0  0  1  0  0  0  0  0  0  0  0  0
  139.4130   67.7460  226.9450 C   0  0  0  0  0  0  0  0  0  0  0  0
  139.5770   67.0300  225.7090 O   0  0  0  0  0  0  0  0  0  0  0  0
  140.6470   73.2980  221.6200 C   0  0  0  0  0  0  0  0  0  0  0  0
  141.4450   73.2150  220.4970 C   0  0  0  0  0  0  0  0  0  0  0  0
  141.9290   74.4200  219.9850 C   0  0  0  0  0  0  0  0  0  0  0  0
  141.6200   75.6340  220.5770 C   0  0  0  0  0  0  0  0  0  0  0  0
  142.0930   76.8370  220.0800 C   0  0  0  0  0  0  0  0  0  0  0  0
  143.1120   76.8140  218.6560 Cl  0  0  0  0  0  0  0  0  0  0  0  0
  141.7730   78.0470  220.6870 C   0  0  0  0  0  0  0  0  0  0  0  0
  140.9630   78.0210  221.8140 C   0  0  0  0  0  0  0  0  0  0  0  0
  140.4720   76.8320  222.3400 C   0  0  0  0  0  0  0  0  0  0  0  0
  140.8140   75.6560  221.7030 C   0  0  0  0  0  0  0  0  0  0  0  0
  140.3490   74.4790  222.1940 N   0  0  0  0  0  0  0  0  0  0  0  0
  138.7240   73.0100  223.3910 H   0  0  0  0  0  0  0  0  0  0  0  0
  137.6839   71.2404  224.3391 H   0  0  0  0  0  0  0  0  0  0  0  0
  138.3627   70.2823  222.7920 H   0  0  0  0  0  0  0  0  0  0  0  0
  142.1507   70.2491  225.5272 H   0  0  0  0  0  0  0  0  0  0  0  0
  141.1397   71.3543  224.5549 H   0  0  0  0  0  0  0  0  0  0  0  0
  142.0509   72.1886  226.8071 H   0  0  0  0  0  0  0  0  0  0  0  0
  140.2579   72.3937  226.4250 H   0  0  0  0  0  0  0  0  0  0  0  0
  141.5927   70.5760  228.3730 H   0  0  0  0  0  0  0  0  0  0  0  0
  140.2924   71.8604  228.5888 H   0  0  0  0  0  0  0  0  0  0  0  0
  139.4853   69.4978  228.8201 H   0  0  0  0  0  0  0  0  0  0  0  0
  138.6353   70.4584  227.6085 H   0  0  0  0  0  0  0  0  0  0  0  0
  141.1374   68.6549  226.7808 H   0  0  0  0  0  0  0  0  0  0  0  0
  139.8645   67.1840  227.7759 H   0  0  0  0  0  0  0  0  0  0  0  0
  138.3506   67.8907  227.1908 H   0  0  0  0  0  0  0  0  0  0  0  0
  139.7870   67.6320  224.9720 H   0  0  0  0  0  0  0  0  0  0  0  0
  141.6871   72.2491  220.0296 H   0  0  0  0  0  0  0  0  0  0  0  0
  142.5702   74.4055  219.0913 H   0  0  0  0  0  0  0  0  0  0  0  0
  142.1514   78.9984  220.2849 H   0  0  0  0  0  0  0  0  0  0  0  0
  140.7019   78.9699  222.3054 H   0  0  0  0  0  0  0  0  0  0  0  0
  139.8319   76.8281  223.2345 H   0  0  0  0  0  0  0  0  0  0  0  0
  1  2  2  0
  2  3  1  0
  3  4  1  0
  4  5  1  0
  5  6  2  0
  5  7  1  0
  7  8  1  0
  8  9  1  0
  9 10  1  0
 10 11  1  0
 11 12  1  0
 12 13  1  0
 13 14  1  0
  2 15  1  0
 15 16  2  0
 16 17  1  0
 17 18  2  0
 18 19  1  0
 19 20  1  0
 19 21  2  0
 21 22  1  0
 22 23  2  0
 23 24  1  0
 24 25  2  0
 12  7  1  0
 25 15  1  0
 24 18  1  0
  3 26  1  0
  4 27  1  0
  4 28  1  0
  8 29  1  0
  8 30  1  0
  9 31  1  0
  9 32  1  0
 10 33  1  0
 10 34  1  0
 11 35  1  0
 11 36  1  0
 12 37  1  1
 13 38  1  0
 13 39  1  0
 14 40  1  0
 16 41  1  0
 17 42  1  0
 21 43  1  0
 22 44  1  0
 23 45  1  0
M  END
>  <smiles>  (48) 
O=C(NCC(=O)N1CCCC[C@H]1CO)c1ccc2c(Cl)cccc2n1

>  <score_type>  (48) 
oracle

>  <origin>  (48) 
autodockgpu

>  <m_score__min__energy>  (48) 
-8.4499999999999993

>  <m_primary>  (48) 
energy

>  <rmsd>  (48) 
8.325757686221783

>  <m_score__min__rmsd>  (48) 
8.325757686221783

>  <meeko>  (48) 
{"free_energy": -7.91, "intermolecular_energy": -9.7, "internal_energy": -2.01, "cluster_size": 36, "cluster_id": 1, "rank_in_cluster": 19}

>  <energy>  (48) 
-6.16

>  <cluster_rmsd>  (48) 
0.0

>  <cluster>  (48) 
5

$$$$

     RDKit          3D

 45 47  0  0  0  0  0  0  0  0999 V2000
  137.1620   71.5010  223.1520 O   0  0  0  0  0  0  0  0  0  0  0  0
  136.4960   71.2260  224.2080 C   0  0  0  0  0  0  0  0  0  0  0  0
  136.8690   70.0130  224.8920 N   0  0  0  0  0  0  0  0  0  0  0  0
  137.8800   69.1280  224.4870 C   0  0  0  0  0  0  0  0  0  0  0  0
  139.0740   68.8070  225.1820 C   0  0  0  0  0  0  0  0  0  0  0  0
  139.1890   67.4470  225.3130 O   0  0  0  0  0  0  0  0  0  0  0  0
  140.1730   69.3910  225.7710 N   0  0  0  0  0  0  0  0  0  0  0  0
  140.8170   70.4560  224.8740 C   0  0  0  0  0  0  0  0  0  0  0  0
  140.6900   71.7760  225.5590 C   0  0  0  0  0  0  0  0  0  0  0  0
  140.9260   71.7680  227.0300 C   0  0  0  0  0  0  0  0  0  0  0  0
  140.3130   70.6080  227.7710 C   0  0  0  0  0  0  0  0  0  0  0  0
  140.8240   69.3370  227.0270 C   0  0  1  0  0  0  0  0  0  0  0  0
  140.7250   68.1930  227.9320 C   0  0  0  0  0  0  0  0  0  0  0  0
  141.0510   67.0380  227.1420 O   0  0  0  0  0  0  0  0  0  0  0  0
  135.4240   72.0850  224.6930 C   0  0  0  0  0  0  0  0  0  0  0  0
  135.3320   73.3510  224.1520 C   0  0  0  0  0  0  0  0  0  0  0  0
  134.2990   74.1600  224.6290 C   0  0  0  0  0  0  0  0  0  0  0  0
  133.4150   73.7090  225.5970 C   0  0  0  0  0  0  0  0  0  0  0  0
  132.3860   74.5000  226.0800 C   0  0  0  0  0  0  0  0  0  0  0  0
  132.2030   76.1210  225.4410 Cl  0  0  0  0  0  0  0  0  0  0  0  0
  131.5070   74.0320  227.0510 C   0  0  0  0  0  0  0  0  0  0  0  0
  131.6880   72.7420  227.5300 C   0  0  0  0  0  0  0  0  0  0  0  0
  132.7090   71.9210  227.0680 C   0  0  0  0  0  0  0  0  0  0  0  0
  133.5560   72.4280  226.1030 C   0  0  0  0  0  0  0  0  0  0  0  0
  134.5640   71.6500  225.6330 N   0  0  0  0  0  0  0  0  0  0  0  0
  136.2810   69.8430  225.7700 H   0  0  0  0  0  0  0  0  0  0  0  0
  137.3696   68.1640  224.3447 H   0  0  0  0  0  0  0  0  0  0  0  0
  138.3118   69.7229  223.6687 H   0  0  0  0  0  0  0  0  0  0  0  0
  141.8794   70.2182  224.7163 H   0  0  0  0  0  0  0  0  0  0  0  0
  140.3159   70.4843  223.8952 H   0  0  0  0  0  0  0  0  0  0  0  0
  141.4179   72.4638  225.1041 H   0  0  0  0  0  0  0  0  0  0  0  0
  139.6419   72.0822  225.4261 H   0  0  0  0  0  0  0  0  0  0  0  0
  142.0125   71.7449  227.2004 H   0  0  0  0  0  0  0  0  0  0  0  0
  140.4392   72.6730  227.4225 H   0  0  0  0  0  0  0  0  0  0  0  0
  140.6442   70.6011  228.8199 H   0  0  0  0  0  0  0  0  0  0  0  0
  139.2145   70.6629  227.7874 H   0  0  0  0  0  0  0  0  0  0  0  0
  141.8891   69.2486  226.7666 H   0  0  0  0  0  0  0  0  0  0  0  0
  141.4361   68.3006  228.7643 H   0  0  0  0  0  0  0  0  0  0  0  0
  139.7202   68.1114  228.3721 H   0  0  0  0  0  0  0  0  0  0  0  0
  140.2580   66.5130  226.9310 H   0  0  0  0  0  0  0  0  0  0  0  0
  136.0362   73.7046  223.3845 H   0  0  0  0  0  0  0  0  0  0  0  0
  134.1840   75.1778  224.2279 H   0  0  0  0  0  0  0  0  0  0  0  0
  130.6915   74.6663  227.4286 H   0  0  0  0  0  0  0  0  0  0  0  0
  131.0019   72.3578  228.2992 H   0  0  0  0  0  0  0  0  0  0  0  0
  132.8382   70.9007  227.4582 H   0  0  0  0  0  0  0  0  0  0  0  0
  1  2  2  0
  2  3  1  0
  3  4  1  0
  4  5  1  0
  5  6  2  0
  5  7  1  0
  7  8  1  0
  8  9  1  0
  9 10  1  0
 10 11  1  0
 11 12  1  0
 12 13  1  0
 13 14  1  0
  2 15  1  0
 15 16  2  0
 16 17  1  0
 17 18  2  0
 18 19  1  0
 19 20  1  0
 19 21  2  0
 21 22  1  0
 22 23  2  0
 23 24  1  0
 24 25  2  0
 12  7  1  0
 25 15  1  0
 24 18  1  0
  3 26  1  0
  4 27  1  0
  4 28  1  0
  8 29  1  0
  8 30  1  0
  9 31  1  0
  9 32  1  0
 10 33  1  0
 10 34  1  0
 11 35  1  0
 11 36  1  0
 12 37  1  6
 13 38  1  0
 13 39  1  0
 14 40  1  0
 16 41  1  0
 17 42  1  0
 21 43  1  0
 22 44  1  0
 23 45  1  0
M  END
>  <smiles>  (49) 
O=C(NCC(=O)N1CCCC[C@H]1CO)c1ccc2c(Cl)cccc2n1

>  <score_type>  (49) 
oracle

>  <origin>  (49) 
autodockgpu

>  <m_score__min__energy>  (49) 
-8.4499999999999993

>  <m_primary>  (49) 
energy

>  <rmsd>  (49) 
8.409820470460744

>  <m_score__min__rmsd>  (49) 
8.409820470460744

>  <meeko>  (49) 
{"free_energy": -6.55, "intermolecular_energy": -8.34, "internal_energy": -2.01, "cluster_size": 4, "cluster_id": 3, "rank_in_cluster": 4}

>  <energy>  (49) 
-6.11

>  <cluster_rmsd>  (49) 
0.69

>  <cluster>  (49) 
5

$$$$

     RDKit          3D

 45 47  0  0  0  0  0  0  0  0999 V2000
  140.5910   70.9160  221.6640 O   0  0  0  0  0  0  0  0  0  0  0  0
  140.1470   72.0500  222.0550 C   0  0  0  0  0  0  0  0  0  0  0  0
  139.0940   72.0110  223.0390 N   0  0  0  0  0  0  0  0  0  0  0  0
  138.5280   70.8460  223.5790 C   0  0  0  0  0  0  0  0  0  0  0  0
  138.8910   70.1910  224.7840 C   0  0  0  0  0  0  0  0  0  0  0  0
  137.8200   69.4870  225.2750 O   0  0  0  0  0  0  0  0  0  0  0  0
  139.9560   70.0060  225.6370 N   0  0  0  0  0  0  0  0  0  0  0  0
  141.0080   71.1140  225.5000 C   0  0  0  0  0  0  0  0  0  0  0  0
  141.0710   71.8540  226.7940 C   0  0  0  0  0  0  0  0  0  0  0  0
  140.9940   71.0170  228.0240 C   0  0  0  0  0  0  0  0  0  0  0  0
  139.9790   69.9040  227.9800 C   0  0  0  0  0  0  0  0  0  0  0  0
  140.3040   69.1120  226.6770 C   0  0  1  0  0  0  0  0  0  0  0  0
  139.7480   67.7650  226.7970 C   0  0  0  0  0  0  0  0  0  0  0  0
  139.5530   67.3000  225.4510 O   0  0  0  0  0  0  0  0  0  0  0  0
  140.6720   73.3070  221.5380 C   0  0  0  0  0  0  0  0  0  0  0  0
  141.4860   73.2450  220.4250 C   0  0  0  0  0  0  0  0  0  0  0  0
  141.9790   74.4580  219.9440 C   0  0  0  0  0  0  0  0  0  0  0  0
  141.6650   75.6610  220.5580 C   0  0  0  0  0  0  0  0  0  0  0  0
  142.1470   76.8730  220.0930 C   0  0  0  0  0  0  0  0  0  0  0  0
  143.1860   76.8770  218.6820 Cl  0  0  0  0  0  0  0  0  0  0  0  0
  141.8220   78.0710  220.7200 C   0  0  0  0  0  0  0  0  0  0  0  0
  140.9970   78.0230  221.8350 C   0  0  0  0  0  0  0  0  0  0  0  0
  140.4950   76.8250  222.3290 C   0  0  0  0  0  0  0  0  0  0  0  0
  140.8440   75.6620  221.6730 C   0  0  0  0  0  0  0  0  0  0  0  0
  140.3690   74.4760  222.1320 N   0  0  0  0  0  0  0  0  0  0  0  0
  138.7720   72.9890  223.3290 H   0  0  0  0  0  0  0  0  0  0  0  0
  137.4597   71.0804  223.6967 H   0  0  0  0  0  0  0  0  0  0  0  0
  138.9210   70.1132  222.8589 H   0  0  0  0  0  0  0  0  0  0  0  0
  141.9894   70.6709  225.2754 H   0  0  0  0  0  0  0  0  0  0  0  0
  140.7377   71.7979  224.6820 H   0  0  0  0  0  0  0  0  0  0  0  0
  142.0217   72.4066  226.8208 H   0  0  0  0  0  0  0  0  0  0  0  0
  140.1789   72.4972  226.8140 H   0  0  0  0  0  0  0  0  0  0  0  0
  141.9840   70.5683  228.1928 H   0  0  0  0  0  0  0  0  0  0  0  0
  140.6734   71.6908  228.8322 H   0  0  0  0  0  0  0  0  0  0  0  0
  140.0790   69.2546  228.8622 H   0  0  0  0  0  0  0  0  0  0  0  0
  138.9473   70.2855  227.9848 H   0  0  0  0  0  0  0  0  0  0  0  0
  141.3450   68.8394  226.4490 H   0  0  0  0  0  0  0  0  0  0  0  0
  140.4493   67.1074  227.3315 H   0  0  0  0  0  0  0  0  0  0  0  0
  138.8063   67.7651  227.3655 H   0  0  0  0  0  0  0  0  0  0  0  0
  139.3620   68.0360  224.8410 H   0  0  0  0  0  0  0  0  0  0  0  0
  141.7332   72.2881  219.9421 H   0  0  0  0  0  0  0  0  0  0  0  0
  142.6312   74.4603  219.0582 H   0  0  0  0  0  0  0  0  0  0  0  0
  142.2079   79.0296  220.3429 H   0  0  0  0  0  0  0  0  0  0  0  0
  140.7324   78.9620  222.3433 H   0  0  0  0  0  0  0  0  0  0  0  0
  139.8412   76.8044  223.2134 H   0  0  0  0  0  0  0  0  0  0  0  0
  1  2  2  0
  2  3  1  0
  3  4  1  0
  4  5  1  0
  5  6  2  0
  5  7  1  0
  7  8  1  0
  8  9  1  0
  9 10  1  0
 10 11  1  0
 11 12  1  0
 12 13  1  0
 13 14  1  0
  2 15  1  0
 15 16  2  0
 16 17  1  0
 17 18  2  0
 18 19  1  0
 19 20  1  0
 19 21  2  0
 21 22  1  0
 22 23  2  0
 23 24  1  0
 24 25  2  0
 12  7  1  0
 25 15  1  0
 24 18  1  0
  3 26  1  0
  4 27  1  0
  4 28  1  0
  8 29  1  0
  8 30  1  0
  9 31  1  0
  9 32  1  0
 10 33  1  0
 10 34  1  0
 11 35  1  0
 11 36  1  0
 12 37  1  1
 13 38  1  0
 13 39  1  0
 14 40  1  0
 16 41  1  0
 17 42  1  0
 21 43  1  0
 22 44  1  0
 23 45  1  0
M  END
>  <smiles>  (50) 
O=C(NCC(=O)N1CCCC[C@H]1CO)c1ccc2c(Cl)cccc2n1

>  <score_type>  (50) 
oracle

>  <origin>  (50) 
autodockgpu

>  <m_score__min__energy>  (50) 
-8.4499999999999993

>  <m_primary>  (50) 
energy

>  <rmsd>  (50) 
8.283046560642893

>  <m_score__min__rmsd>  (50) 
8.283046560642893

>  <meeko>  (50) 
{"free_energy": -8.07, "intermolecular_energy": -9.86, "internal_energy": -2.0, "cluster_size": 36, "cluster_id": 1, "rank_in_cluster": 6}

>  <energy>  (50) 
-6.07

>  <cluster_rmsd>  (50) 
0.33

>  <cluster>  (50) 
5

$$$$
