
     RDKit          3D

 55 59  0  0  0  0  0  0  0  0999 V2000
  140.7470   68.1510  229.0030 C   0  0  0  0  0  0  0  0  0  0  0  0
  140.6960   69.1610  227.9070 C   0  0  0  0  0  0  0  0  0  0  0  0
  141.0750   70.4550  228.2620 C   0  0  0  0  0  0  0  0  0  0  0  0
  141.0360   71.4070  227.2660 C   0  0  0  0  0  0  0  0  0  0  0  0
  140.6380   71.0790  225.9820 C   0  0  0  0  0  0  0  0  0  0  0  0
  140.2610   69.7970  225.6280 C   0  0  0  0  0  0  0  0  0  0  0  0
  140.3000   68.8440  226.6270 C   0  0  0  0  0  0  0  0  0  0  0  0
  139.9060   69.8390  224.1930 C   0  0  0  0  0  0  0  0  0  0  0  0
  140.1290   71.2600  223.8140 C   0  0  0  0  0  0  0  0  0  0  0  0
  139.9230   71.8380  222.4910 C   0  0  0  0  0  0  0  0  0  0  0  0
  140.3080   71.1840  221.3270 C   0  0  0  0  0  0  0  0  0  0  0  0
  140.0920   71.7740  220.0870 C   0  0  0  0  0  0  0  0  0  0  0  0
  139.4950   73.0120  219.9520 C   0  0  0  0  0  0  0  0  0  0  0  0
  139.1140   73.6590  221.1060 C   0  0  0  0  0  0  0  0  0  0  0  0
  138.4710   74.9680  221.1220 C   0  0  0  0  0  0  0  0  0  0  0  0
  137.2740   75.0580  221.4890 O   0  0  0  0  0  0  0  0  0  0  0  0
  139.2330   76.0990  220.7150 N   0  0  0  0  0  0  0  0  0  0  0  0
  140.6350   75.9650  220.2870 C   0  0  0  0  0  0  0  0  0  0  0  0
  141.4310   76.9490  221.1010 C   0  0  0  0  0  0  0  0  0  0  0  0
  140.7750   78.2630  221.1530 N   0  0  0  0  0  0  0  0  0  0  0  0
  141.2630   79.2520  222.0450 C   0  0  0  0  0  0  0  0  0  0  0  0
  141.2950   80.6000  221.7490 C   0  0  0  0  0  0  0  0  0  0  0  0
  141.7790   81.5290  222.6510 C   0  0  0  0  0  0  0  0  0  0  0  0
  142.2430   81.1040  223.8800 C   0  0  0  0  0  0  0  0  0  0  0  0
  142.2280   79.7470  224.2200 C   0  0  0  0  0  0  0  0  0  0  0  0
  141.7350   78.8660  223.2820 C   0  0  0  0  0  0  0  0  0  0  0  0
  139.6530   78.4480  220.2640 C   0  0  0  0  0  0  0  0  0  0  0  0
  138.6190   77.4090  220.7160 C   0  0  0  0  0  0  0  0  0  0  0  0
  139.3290   73.0730  222.3510 C   0  0  0  0  0  0  0  0  0  0  0  0
  140.5320   71.8990  224.8440 N   0  0  0  0  0  0  0  0  0  0  0  0
  140.7211   68.6639  229.9758 H   0  0  0  0  0  0  0  0  0  0  0  0
  139.8817   67.4768  228.9208 H   0  0  0  0  0  0  0  0  0  0  0  0
  141.6758   67.5673  228.9208 H   0  0  0  0  0  0  0  0  0  0  0  0
  141.3896   70.7038  229.2863 H   0  0  0  0  0  0  0  0  0  0  0  0
  141.3256   72.4431  227.4953 H   0  0  0  0  0  0  0  0  0  0  0  0
  140.0083   67.8091  226.3949 H   0  0  0  0  0  0  0  0  0  0  0  0
  140.5559   69.1709  223.6088 H   0  0  0  0  0  0  0  0  0  0  0  0
  138.8765   69.5035  223.9994 H   0  0  0  0  0  0  0  0  0  0  0  0
  140.7858   70.1950  221.3870 H   0  0  0  0  0  0  0  0  0  0  0  0
  140.4078   71.2357  219.1812 H   0  0  0  0  0  0  0  0  0  0  0  0
  139.3305   73.4630  218.9623 H   0  0  0  0  0  0  0  0  0  0  0  0
  140.9923   74.9416  220.4738 H   0  0  0  0  0  0  0  0  0  0  0  0
  140.7410   76.1644  219.2104 H   0  0  0  0  0  0  0  0  0  0  0  0
  141.5371   76.5620  222.1252 H   0  0  0  0  0  0  0  0  0  0  0  0
  142.4147   77.0738  220.6247 H   0  0  0  0  0  0  0  0  0  0  0  0
  140.9262   80.9434  220.7712 H   0  0  0  0  0  0  0  0  0  0  0  0
  141.7944   82.5979  222.3918 H   0  0  0  0  0  0  0  0  0  0  0  0
  142.6288   81.8407  224.6000 H   0  0  0  0  0  0  0  0  0  0  0  0
  142.5948   79.3975  225.1964 H   0  0  0  0  0  0  0  0  0  0  0  0
  141.7170   77.7954  223.5339 H   0  0  0  0  0  0  0  0  0  0  0  0
  139.2468   79.4658  220.3594 H   0  0  0  0  0  0  0  0  0  0  0  0
  139.9346   78.3212  219.2083 H   0  0  0  0  0  0  0  0  0  0  0  0
  138.2717   77.6523  221.7310 H   0  0  0  0  0  0  0  0  0  0  0  0
  137.7607   77.4166  220.0281 H   0  0  0  0  0  0  0  0  0  0  0  0
  139.0134   73.6154  223.2544 H   0  0  0  0  0  0  0  0  0  0  0  0
  1  2  1  0
  2  3  2  0
  3  4  1  0
  4  5  2  0
  5  6  1  0
  6  7  2  0
  6  8  1  0
  8  9  1  0
  9 10  1  0
 10 11  2  0
 11 12  1  0
 12 13  2  0
 13 14  1  0
 14 15  1  0
 15 16  2  0
 15 17  1  0
 17 18  1  0
 18 19  1  0
 19 20  1  0
 20 21  1  0
 21 22  2  0
 22 23  1  0
 23 24  2  0
 24 25  1  0
 25 26  2  0
 20 27  1  0
 27 28  1  0
 14 29  2  0
  9 30  2  0
  7  2  1  0
 29 10  1  0
 30  5  1  0
 28 17  1  0
 26 21  1  0
  1 31  1  0
  1 32  1  0
  1 33  1  0
  3 34  1  0
  4 35  1  0
  7 36  1  0
  8 37  1  0
  8 38  1  0
 11 39  1  0
 12 40  1  0
 13 41  1  0
 18 42  1  0
 18 43  1  0
 19 44  1  0
 19 45  1  0
 22 46  1  0
 23 47  1  0
 24 48  1  0
 25 49  1  0
 26 50  1  0
 27 51  1  0
 27 52  1  0
 28 53  1  0
 28 54  1  0
 29 55  1  0
M  END
>  <smiles>  (1) 
Cc1ccc2c(c1)CC(c1cccc(C(=O)N3CCN(c4ccccc4)CC3)c1)=N2

>  <score_type>  (1) 
oracle

>  <origin>  (1) 
autodockgpu

>  <m_score__min__energy>  (1) 
-8.7599999999999998

>  <m_primary>  (1) 
energy

>  <rmsd>  (1) 
4.506115999390693

>  <m_score__min__rmsd>  (1) 
4.506115999390693

>  <meeko>  (1) 
{"free_energy": -8.7, "intermolecular_energy": -9.6, "internal_energy": -0.94, "cluster_size": 49, "cluster_id": 1, "rank_in_cluster": 24}

>  <energy>  (1) 
-8.76

>  <cluster_rmsd>  (1) 
0.0

>  <cluster>  (1) 
1

$$$$

     RDKit          3D

 55 59  0  0  0  0  0  0  0  0999 V2000
  140.6950   68.1730  228.9620 C   0  0  0  0  0  0  0  0  0  0  0  0
  140.6600   69.1850  227.8680 C   0  0  0  0  0  0  0  0  0  0  0  0
  141.0930   70.4640  228.2150 C   0  0  0  0  0  0  0  0  0  0  0  0
  141.0690   71.4180  227.2200 C   0  0  0  0  0  0  0  0  0  0  0  0
  140.6350   71.1070  225.9450 C   0  0  0  0  0  0  0  0  0  0  0  0
  140.2030   69.8390  225.5980 C   0  0  0  0  0  0  0  0  0  0  0  0
  140.2280   68.8840  226.5950 C   0  0  0  0  0  0  0  0  0  0  0  0
  139.8230   69.8960  224.1700 C   0  0  0  0  0  0  0  0  0  0  0  0
  140.0900   71.3070  223.7870 C   0  0  0  0  0  0  0  0  0  0  0  0
  139.8800   71.8940  222.4680 C   0  0  0  0  0  0  0  0  0  0  0  0
  140.2500   71.2420  221.2980 C   0  0  0  0  0  0  0  0  0  0  0  0
  140.0290   71.8400  220.0630 C   0  0  0  0  0  0  0  0  0  0  0  0
  139.4440   73.0850  219.9380 C   0  0  0  0  0  0  0  0  0  0  0  0
  139.0780   73.7300  221.0980 C   0  0  0  0  0  0  0  0  0  0  0  0
  138.4480   75.0450  221.1260 C   0  0  0  0  0  0  0  0  0  0  0  0
  137.2470   75.1420  221.4780 O   0  0  0  0  0  0  0  0  0  0  0  0
  139.2270   76.1740  220.7460 N   0  0  0  0  0  0  0  0  0  0  0  0
  140.6330   76.0320  220.3350 C   0  0  0  0  0  0  0  0  0  0  0  0
  141.4280   76.9960  221.1740 C   0  0  0  0  0  0  0  0  0  0  0  0
  140.7850   78.3150  221.2380 N   0  0  0  0  0  0  0  0  0  0  0  0
  141.2700   79.2850  222.1520 C   0  0  0  0  0  0  0  0  0  0  0  0
  142.5990   79.3980  222.5120 C   0  0  0  0  0  0  0  0  0  0  0  0
  143.0270   80.3600  223.4070 C   0  0  0  0  0  0  0  0  0  0  0  0
  142.1090   81.2330  223.9570 C   0  0  0  0  0  0  0  0  0  0  0  0
  140.7540   81.1530  223.6190 C   0  0  0  0  0  0  0  0  0  0  0  0
  140.3840   80.1740  222.7220 C   0  0  0  0  0  0  0  0  0  0  0  0
  139.6770   78.5250  220.3370 C   0  0  0  0  0  0  0  0  0  0  0  0
  138.6260   77.4900  220.7590 C   0  0  0  0  0  0  0  0  0  0  0  0
  139.2970   73.1360  222.3390 C   0  0  0  0  0  0  0  0  0  0  0  0
  140.5370   71.9300  224.8090 N   0  0  0  0  0  0  0  0  0  0  0  0
  140.6773   68.6847  229.9356 H   0  0  0  0  0  0  0  0  0  0  0  0
  139.8192   67.5127  228.8789 H   0  0  0  0  0  0  0  0  0  0  0  0
  141.6144   67.5748  228.8789 H   0  0  0  0  0  0  0  0  0  0  0  0
  141.4369   70.7004  229.2328 H   0  0  0  0  0  0  0  0  0  0  0  0
  141.4004   72.4426  227.4442 H   0  0  0  0  0  0  0  0  0  0  0  0
  139.8956   67.8603  226.3678 H   0  0  0  0  0  0  0  0  0  0  0  0
  140.4370   69.2053  223.5734 H   0  0  0  0  0  0  0  0  0  0  0  0
  138.7783   69.5989  223.9961 H   0  0  0  0  0  0  0  0  0  0  0  0
  140.7197   70.2486  221.3495 H   0  0  0  0  0  0  0  0  0  0  0  0
  140.3309   71.3023  219.1521 H   0  0  0  0  0  0  0  0  0  0  0  0
  139.2773   73.5426  218.9517 H   0  0  0  0  0  0  0  0  0  0  0  0
  140.9775   75.0023  220.5115 H   0  0  0  0  0  0  0  0  0  0  0  0
  140.7555   76.2460  219.2630 H   0  0  0  0  0  0  0  0  0  0  0  0
  141.5171   76.5925  222.1934 H   0  0  0  0  0  0  0  0  0  0  0  0
  142.4186   77.1183  220.7118 H   0  0  0  0  0  0  0  0  0  0  0  0
  143.3341   78.7056  222.0758 H   0  0  0  0  0  0  0  0  0  0  0  0
  144.0905   80.4299  223.6792 H   0  0  0  0  0  0  0  0  0  0  0  0
  142.4473   82.0001  224.6691 H   0  0  0  0  0  0  0  0  0  0  0  0
  140.0142   81.8429  224.0512 H   0  0  0  0  0  0  0  0  0  0  0  0
  139.3221   80.0979  222.4455 H   0  0  0  0  0  0  0  0  0  0  0  0
  139.2800   79.5454  220.4425 H   0  0  0  0  0  0  0  0  0  0  0  0
  139.9717   78.4111  219.2834 H   0  0  0  0  0  0  0  0  0  0  0  0
  138.2673   77.7213  221.7728 H   0  0  0  0  0  0  0  0  0  0  0  0
  137.7771   77.5171  220.0600 H   0  0  0  0  0  0  0  0  0  0  0  0
  138.9940   73.6772  223.2475 H   0  0  0  0  0  0  0  0  0  0  0  0
  1  2  1  0
  2  3  2  0
  3  4  1  0
  4  5  2  0
  5  6  1  0
  6  7  2  0
  6  8  1  0
  8  9  1  0
  9 10  1  0
 10 11  2  0
 11 12  1  0
 12 13  2  0
 13 14  1  0
 14 15  1  0
 15 16  2  0
 15 17  1  0
 17 18  1  0
 18 19  1  0
 19 20  1  0
 20 21  1  0
 21 22  2  0
 22 23  1  0
 23 24  2  0
 24 25  1  0
 25 26  2  0
 20 27  1  0
 27 28  1  0
 14 29  2  0
  9 30  2  0
  7  2  1  0
 29 10  1  0
 30  5  1  0
 28 17  1  0
 26 21  1  0
  1 31  1  0
  1 32  1  0
  1 33  1  0
  3 34  1  0
  4 35  1  0
  7 36  1  0
  8 37  1  0
  8 38  1  0
 11 39  1  0
 12 40  1  0
 13 41  1  0
 18 42  1  0
 18 43  1  0
 19 44  1  0
 19 45  1  0
 22 46  1  0
 23 47  1  0
 24 48  1  0
 25 49  1  0
 26 50  1  0
 27 51  1  0
 27 52  1  0
 28 53  1  0
 28 54  1  0
 29 55  1  0
M  END
>  <smiles>  (2) 
Cc1ccc2c(c1)CC(c1cccc(C(=O)N3CCN(c4ccccc4)CC3)c1)=N2

>  <score_type>  (2) 
oracle

>  <origin>  (2) 
autodockgpu

>  <m_score__min__energy>  (2) 
-8.7599999999999998

>  <m_primary>  (2) 
energy

>  <rmsd>  (2) 
4.511465488869837

>  <m_score__min__rmsd>  (2) 
4.511465488869837

>  <meeko>  (2) 
{"free_energy": -8.69, "intermolecular_energy": -9.58, "internal_energy": -0.93, "cluster_size": 49, "cluster_id": 1, "rank_in_cluster": 36}

>  <energy>  (2) 
-8.76

>  <cluster_rmsd>  (2) 
0.02

>  <cluster>  (2) 
1

$$$$

     RDKit          3D

 55 59  0  0  0  0  0  0  0  0999 V2000
  140.6440   68.1370  228.9790 C   0  0  0  0  0  0  0  0  0  0  0  0
  140.6370   69.1500  227.8850 C   0  0  0  0  0  0  0  0  0  0  0  0
  141.0640   70.4270  228.2440 C   0  0  0  0  0  0  0  0  0  0  0  0
  141.0660   71.3820  227.2500 C   0  0  0  0  0  0  0  0  0  0  0  0
  140.6620   71.0730  225.9640 C   0  0  0  0  0  0  0  0  0  0  0  0
  140.2360   69.8060  225.6060 C   0  0  0  0  0  0  0  0  0  0  0  0
  140.2340   68.8510  226.6020 C   0  0  0  0  0  0  0  0  0  0  0  0
  139.8900   69.8660  224.1690 C   0  0  0  0  0  0  0  0  0  0  0  0
  140.1690   71.2770  223.7940 C   0  0  0  0  0  0  0  0  0  0  0  0
  139.9920   71.8650  222.4710 C   0  0  0  0  0  0  0  0  0  0  0  0
  140.4200   71.2290  221.3120 C   0  0  0  0  0  0  0  0  0  0  0  0
  140.2290   71.8280  220.0730 C   0  0  0  0  0  0  0  0  0  0  0  0
  139.6170   73.0590  219.9330 C   0  0  0  0  0  0  0  0  0  0  0  0
  139.1940   73.6880  221.0820 C   0  0  0  0  0  0  0  0  0  0  0  0
  138.5300   74.9860  221.0920 C   0  0  0  0  0  0  0  0  0  0  0  0
  137.3350   75.0610  221.4700 O   0  0  0  0  0  0  0  0  0  0  0  0
  139.2700   76.1250  220.6670 N   0  0  0  0  0  0  0  0  0  0  0  0
  140.6690   76.0090  220.2260 C   0  0  0  0  0  0  0  0  0  0  0  0
  141.4580   77.0140  221.0220 C   0  0  0  0  0  0  0  0  0  0  0  0
  140.7810   78.3180  221.0690 N   0  0  0  0  0  0  0  0  0  0  0  0
  141.2620   79.3230  221.9470 C   0  0  0  0  0  0  0  0  0  0  0  0
  142.0460   79.0590  223.0530 C   0  0  0  0  0  0  0  0  0  0  0  0
  142.4930   80.0710  223.8820 C   0  0  0  0  0  0  0  0  0  0  0  0
  142.1520   81.3800  223.6020 C   0  0  0  0  0  0  0  0  0  0  0  0
  141.3600   81.6890  222.4900 C   0  0  0  0  0  0  0  0  0  0  0  0
  140.9420   80.6400  221.7000 C   0  0  0  0  0  0  0  0  0  0  0  0
  139.6470   78.4770  220.1900 C   0  0  0  0  0  0  0  0  0  0  0  0
  138.6350   77.4250  220.6620 C   0  0  0  0  0  0  0  0  0  0  0  0
  139.3820   73.0930  222.3270 C   0  0  0  0  0  0  0  0  0  0  0  0
  140.5930   71.8980  224.8270 N   0  0  0  0  0  0  0  0  0  0  0  0
  140.6405   68.6488  229.9527 H   0  0  0  0  0  0  0  0  0  0  0  0
  139.7502   67.5012  228.8957 H   0  0  0  0  0  0  0  0  0  0  0  0
  141.5465   67.5136  228.8957 H   0  0  0  0  0  0  0  0  0  0  0  0
  141.3837   70.6614  229.2701 H   0  0  0  0  0  0  0  0  0  0  0  0
  141.3940   72.4057  227.4833 H   0  0  0  0  0  0  0  0  0  0  0  0
  139.9034   67.8286  226.3664 H   0  0  0  0  0  0  0  0  0  0  0  0
  140.5165   69.1747  223.5862 H   0  0  0  0  0  0  0  0  0  0  0  0
  138.8489   69.5716  223.9702 H   0  0  0  0  0  0  0  0  0  0  0  0
  140.9120   70.2472  221.3757 H   0  0  0  0  0  0  0  0  0  0  0  0
  140.5775   71.3035  219.1711 H   0  0  0  0  0  0  0  0  0  0  0  0
  139.4737   73.5177  218.9435 H   0  0  0  0  0  0  0  0  0  0  0  0
  141.0445   74.9933  220.4192 H   0  0  0  0  0  0  0  0  0  0  0  0
  140.7607   76.1992  219.1465 H   0  0  0  0  0  0  0  0  0  0  0  0
  141.5817   76.6387  222.0486 H   0  0  0  0  0  0  0  0  0  0  0  0
  142.4341   77.1503  220.5336 H   0  0  0  0  0  0  0  0  0  0  0  0
  142.3214   78.0184  223.2797 H   0  0  0  0  0  0  0  0  0  0  0  0
  143.1154   79.8357  224.7579 H   0  0  0  0  0  0  0  0  0  0  0  0
  142.5064   82.1876  224.2595 H   0  0  0  0  0  0  0  0  0  0  0  0
  141.0824   82.7274  222.2561 H   0  0  0  0  0  0  0  0  0  0  0  0
  140.3179   80.8670  220.8231 H   0  0  0  0  0  0  0  0  0  0  0  0
  139.2251   79.4888  220.2809 H   0  0  0  0  0  0  0  0  0  0  0  0
  139.9197   78.3458  219.1324 H   0  0  0  0  0  0  0  0  0  0  0  0
  138.2939   77.6721  221.6782 H   0  0  0  0  0  0  0  0  0  0  0  0
  137.7702   77.4120  219.9824 H   0  0  0  0  0  0  0  0  0  0  0  0
  139.0318   73.6209  223.2263 H   0  0  0  0  0  0  0  0  0  0  0  0
  1  2  1  0
  2  3  2  0
  3  4  1  0
  4  5  2  0
  5  6  1  0
  6  7  2  0
  6  8  1  0
  8  9  1  0
  9 10  1  0
 10 11  2  0
 11 12  1  0
 12 13  2  0
 13 14  1  0
 14 15  1  0
 15 16  2  0
 15 17  1  0
 17 18  1  0
 18 19  1  0
 19 20  1  0
 20 21  1  0
 21 22  2  0
 22 23  1  0
 23 24  2  0
 24 25  1  0
 25 26  2  0
 20 27  1  0
 27 28  1  0
 14 29  2  0
  9 30  2  0
  7  2  1  0
 29 10  1  0
 30  5  1  0
 28 17  1  0
 26 21  1  0
  1 31  1  0
  1 32  1  0
  1 33  1  0
  3 34  1  0
  4 35  1  0
  7 36  1  0
  8 37  1  0
  8 38  1  0
 11 39  1  0
 12 40  1  0
 13 41  1  0
 18 42  1  0
 18 43  1  0
 19 44  1  0
 19 45  1  0
 22 46  1  0
 23 47  1  0
 24 48  1  0
 25 49  1  0
 26 50  1  0
 27 51  1  0
 27 52  1  0
 28 53  1  0
 28 54  1  0
 29 55  1  0
M  END
>  <smiles>  (3) 
Cc1ccc2c(c1)CC(c1cccc(C(=O)N3CCN(c4ccccc4)CC3)c1)=N2

>  <score_type>  (3) 
oracle

>  <origin>  (3) 
autodockgpu

>  <m_score__min__energy>  (3) 
-8.7599999999999998

>  <m_primary>  (3) 
energy

>  <rmsd>  (3) 
4.373694440138021

>  <m_score__min__rmsd>  (3) 
4.373694440138021

>  <meeko>  (3) 
{"free_energy": -8.69, "intermolecular_energy": -9.58, "internal_energy": -0.91, "cluster_size": 49, "cluster_id": 1, "rank_in_cluster": 37}

>  <energy>  (3) 
-8.76

>  <cluster_rmsd>  (3) 
0.03

>  <cluster>  (3) 
1

$$$$

     RDKit          3D

 55 59  0  0  0  0  0  0  0  0999 V2000
  140.7440   68.1440  228.9600 C   0  0  0  0  0  0  0  0  0  0  0  0
  140.7040   69.1590  227.8690 C   0  0  0  0  0  0  0  0  0  0  0  0
  141.1130   70.4440  228.2260 C   0  0  0  0  0  0  0  0  0  0  0  0
  141.0840   71.4000  227.2340 C   0  0  0  0  0  0  0  0  0  0  0  0
  140.6680   71.0870  225.9520 C   0  0  0  0  0  0  0  0  0  0  0  0
  140.2620   69.8130  225.5960 C   0  0  0  0  0  0  0  0  0  0  0  0
  140.2910   68.8560  226.5900 C   0  0  0  0  0  0  0  0  0  0  0  0
  139.8960   69.8690  224.1640 C   0  0  0  0  0  0  0  0  0  0  0  0
  140.1440   71.2870  223.7900 C   0  0  0  0  0  0  0  0  0  0  0  0
  139.9390   71.8750  222.4710 C   0  0  0  0  0  0  0  0  0  0  0  0
  140.3220   71.2280  221.3020 C   0  0  0  0  0  0  0  0  0  0  0  0
  140.1060   71.8270  220.0660 C   0  0  0  0  0  0  0  0  0  0  0  0
  139.5120   73.0680  219.9400 C   0  0  0  0  0  0  0  0  0  0  0  0
  139.1330   73.7070  221.0990 C   0  0  0  0  0  0  0  0  0  0  0  0
  138.4920   75.0170  221.1250 C   0  0  0  0  0  0  0  0  0  0  0  0
  137.3000   75.1090  221.5060 O   0  0  0  0  0  0  0  0  0  0  0  0
  139.2510   76.1470  220.7090 N   0  0  0  0  0  0  0  0  0  0  0  0
  140.6470   76.0110  220.2640 C   0  0  0  0  0  0  0  0  0  0  0  0
  141.4550   76.9930  221.0690 C   0  0  0  0  0  0  0  0  0  0  0  0
  140.8020   78.3080  221.1310 N   0  0  0  0  0  0  0  0  0  0  0  0
  141.3030   79.2950  222.0180 C   0  0  0  0  0  0  0  0  0  0  0  0
  142.0950   79.0070  223.1130 C   0  0  0  0  0  0  0  0  0  0  0  0
  142.5610   80.0020  223.9510 C   0  0  0  0  0  0  0  0  0  0  0  0
  142.2310   81.3180  223.6930 C   0  0  0  0  0  0  0  0  0  0  0  0
  141.4320   81.6520  222.5940 C   0  0  0  0  0  0  0  0  0  0  0  0
  140.9950   80.6190  221.7930 C   0  0  0  0  0  0  0  0  0  0  0  0
  139.6700   78.4960  220.2560 C   0  0  0  0  0  0  0  0  0  0  0  0
  138.6400   77.4580  220.7200 C   0  0  0  0  0  0  0  0  0  0  0  0
  139.3470   73.1120  222.3400 C   0  0  0  0  0  0  0  0  0  0  0  0
  140.5690   71.9130  224.8180 N   0  0  0  0  0  0  0  0  0  0  0  0
  140.7239   68.6528  229.9351 H   0  0  0  0  0  0  0  0  0  0  0  0
  139.8713   67.4797  228.8750 H   0  0  0  0  0  0  0  0  0  0  0  0
  141.6662   67.5505  228.8750 H   0  0  0  0  0  0  0  0  0  0  0  0
  141.4422   70.6822  229.2482 H   0  0  0  0  0  0  0  0  0  0  0  0
  141.3967   72.4290  227.4651 H   0  0  0  0  0  0  0  0  0  0  0  0
  139.9773   67.8280  226.3558 H   0  0  0  0  0  0  0  0  0  0  0  0
  140.5277   69.1911  223.5712 H   0  0  0  0  0  0  0  0  0  0  0  0
  138.8584   69.5549  223.9774 H   0  0  0  0  0  0  0  0  0  0  0  0
  140.7981   70.2378  221.3549 H   0  0  0  0  0  0  0  0  0  0  0  0
  140.4192   71.2939  219.1562 H   0  0  0  0  0  0  0  0  0  0  0  0
  139.3485   73.5268  218.9537 H   0  0  0  0  0  0  0  0  0  0  0  0
  141.0047   74.9868  220.4456 H   0  0  0  0  0  0  0  0  0  0  0  0
  140.7401   76.2112  219.1864 H   0  0  0  0  0  0  0  0  0  0  0  0
  141.5735   76.6047  222.0913 H   0  0  0  0  0  0  0  0  0  0  0  0
  142.4326   77.1168  220.5802 H   0  0  0  0  0  0  0  0  0  0  0  0
  142.3610   77.9604  223.3227 H   0  0  0  0  0  0  0  0  0  0  0  0
  143.1900   79.7478  224.8169 H   0  0  0  0  0  0  0  0  0  0  0  0
  142.6003   82.1121  224.3586 H   0  0  0  0  0  0  0  0  0  0  0  0
  141.1635   82.6966  222.3780 H   0  0  0  0  0  0  0  0  0  0  0  0
  140.3651   80.8654  220.9255 H   0  0  0  0  0  0  0  0  0  0  0  0
  139.2667   79.5144  220.3574 H   0  0  0  0  0  0  0  0  0  0  0  0
  139.9384   78.3702  219.1967 H   0  0  0  0  0  0  0  0  0  0  0  0
  138.3065   77.7004  221.7398 H   0  0  0  0  0  0  0  0  0  0  0  0
  137.7729   77.4683  220.0433 H   0  0  0  0  0  0  0  0  0  0  0  0
  139.0323   73.6486  223.2472 H   0  0  0  0  0  0  0  0  0  0  0  0
  1  2  1  0
  2  3  2  0
  3  4  1  0
  4  5  2  0
  5  6  1  0
  6  7  2  0
  6  8  1  0
  8  9  1  0
  9 10  1  0
 10 11  2  0
 11 12  1  0
 12 13  2  0
 13 14  1  0
 14 15  1  0
 15 16  2  0
 15 17  1  0
 17 18  1  0
 18 19  1  0
 19 20  1  0
 20 21  1  0
 21 22  2  0
 22 23  1  0
 23 24  2  0
 24 25  1  0
 25 26  2  0
 20 27  1  0
 27 28  1  0
 14 29  2  0
  9 30  2  0
  7  2  1  0
 29 10  1  0
 30  5  1  0
 28 17  1  0
 26 21  1  0
  1 31  1  0
  1 32  1  0
  1 33  1  0
  3 34  1  0
  4 35  1  0
  7 36  1  0
  8 37  1  0
  8 38  1  0
 11 39  1  0
 12 40  1  0
 13 41  1  0
 18 42  1  0
 18 43  1  0
 19 44  1  0
 19 45  1  0
 22 46  1  0
 23 47  1  0
 24 48  1  0
 25 49  1  0
 26 50  1  0
 27 51  1  0
 27 52  1  0
 28 53  1  0
 28 54  1  0
 29 55  1  0
M  END
>  <smiles>  (4) 
Cc1ccc2c(c1)CC(c1cccc(C(=O)N3CCN(c4ccccc4)CC3)c1)=N2

>  <score_type>  (4) 
oracle

>  <origin>  (4) 
autodockgpu

>  <m_score__min__energy>  (4) 
-8.7599999999999998

>  <m_primary>  (4) 
energy

>  <rmsd>  (4) 
4.395438008238637

>  <m_score__min__rmsd>  (4) 
4.395438008238637

>  <meeko>  (4) 
{"free_energy": -8.71, "intermolecular_energy": -9.61, "internal_energy": -0.92, "cluster_size": 49, "cluster_id": 1, "rank_in_cluster": 18}

>  <energy>  (4) 
-8.76

>  <cluster_rmsd>  (4) 
0.01

>  <cluster>  (4) 
1

$$$$

     RDKit          3D

 55 59  0  0  0  0  0  0  0  0999 V2000
  140.7100   68.1450  229.0110 C   0  0  0  0  0  0  0  0  0  0  0  0
  140.6820   69.1530  227.9130 C   0  0  0  0  0  0  0  0  0  0  0  0
  141.0910   70.4380  228.2650 C   0  0  0  0  0  0  0  0  0  0  0  0
  141.0730   71.3880  227.2660 C   0  0  0  0  0  0  0  0  0  0  0  0
  140.6680   71.0670  225.9830 C   0  0  0  0  0  0  0  0  0  0  0  0
  140.2600   69.7920  225.6330 C   0  0  0  0  0  0  0  0  0  0  0  0
  140.2780   68.8420  226.6340 C   0  0  0  0  0  0  0  0  0  0  0  0
  139.9060   69.8390  224.1970 C   0  0  0  0  0  0  0  0  0  0  0  0
  140.1620   71.2530  223.8150 C   0  0  0  0  0  0  0  0  0  0  0  0
  139.9690   71.8330  222.4900 C   0  0  0  0  0  0  0  0  0  0  0  0
  140.3790   71.1860  221.3300 C   0  0  0  0  0  0  0  0  0  0  0  0
  140.1740   71.7770  220.0890 C   0  0  0  0  0  0  0  0  0  0  0  0
  139.5650   73.0090  219.9480 C   0  0  0  0  0  0  0  0  0  0  0  0
  139.1600   73.6480  221.0980 C   0  0  0  0  0  0  0  0  0  0  0  0
  138.5010   74.9500  221.1080 C   0  0  0  0  0  0  0  0  0  0  0  0
  137.2920   75.0220  221.4360 O   0  0  0  0  0  0  0  0  0  0  0  0
  139.2630   76.0930  220.7380 N   0  0  0  0  0  0  0  0  0  0  0  0
  140.6790   75.9800  220.3550 C   0  0  0  0  0  0  0  0  0  0  0  0
  141.4370   76.9640  221.2050 C   0  0  0  0  0  0  0  0  0  0  0  0
  140.7650   78.2700  221.2510 N   0  0  0  0  0  0  0  0  0  0  0  0
  141.2120   79.2530  222.1700 C   0  0  0  0  0  0  0  0  0  0  0  0
  140.3740   80.1650  222.7810 C   0  0  0  0  0  0  0  0  0  0  0  0
  140.8540   81.1070  223.6720 C   0  0  0  0  0  0  0  0  0  0  0  0
  142.2040   81.1410  223.9620 C   0  0  0  0  0  0  0  0  0  0  0  0
  143.0870   80.2340  223.3660 C   0  0  0  0  0  0  0  0  0  0  0  0
  142.5520   79.3180  222.4850 C   0  0  0  0  0  0  0  0  0  0  0  0
  139.6700   78.4520  220.3280 C   0  0  0  0  0  0  0  0  0  0  0  0
  138.6340   77.3960  220.7350 C   0  0  0  0  0  0  0  0  0  0  0  0
  139.3630   73.0610  222.3450 C   0  0  0  0  0  0  0  0  0  0  0  0
  140.5800   71.8860  224.8430 N   0  0  0  0  0  0  0  0  0  0  0  0
  140.6957   68.6606  229.9826 H   0  0  0  0  0  0  0  0  0  0  0  0
  139.8297   67.4904  228.9303 H   0  0  0  0  0  0  0  0  0  0  0  0
  141.6253   67.5402  228.9303 H   0  0  0  0  0  0  0  0  0  0  0  0
  141.4120   70.6820  229.2884 H   0  0  0  0  0  0  0  0  0  0  0  0
  141.3858   72.4179  227.4930 H   0  0  0  0  0  0  0  0  0  0  0  0
  139.9625   67.8134  226.4049 H   0  0  0  0  0  0  0  0  0  0  0  0
  140.5402   69.1547  223.6144 H   0  0  0  0  0  0  0  0  0  0  0  0
  138.8689   69.5272  224.0040 H   0  0  0  0  0  0  0  0  0  0  0  0
  140.8675   70.2025  221.3946 H   0  0  0  0  0  0  0  0  0  0  0  0
  140.5087   71.2446  219.1865 H   0  0  0  0  0  0  0  0  0  0  0  0
  139.4101   73.4609  218.9572 H   0  0  0  0  0  0  0  0  0  0  0  0
  141.0420   74.9587  220.5424 H   0  0  0  0  0  0  0  0  0  0  0  0
  140.8175   76.1928  219.2847 H   0  0  0  0  0  0  0  0  0  0  0  0
  141.5149   76.5665  222.2277 H   0  0  0  0  0  0  0  0  0  0  0  0
  142.4336   77.1055  220.7613 H   0  0  0  0  0  0  0  0  0  0  0  0
  139.2981   80.1414  222.5532 H   0  0  0  0  0  0  0  0  0  0  0  0
  140.1666   81.8232  224.1458 H   0  0  0  0  0  0  0  0  0  0  0  0
  142.5893   81.8898  224.6697 H   0  0  0  0  0  0  0  0  0  0  0  0
  144.1636   80.2509  223.5909 H   0  0  0  0  0  0  0  0  0  0  0  0
  143.2331   78.5987  222.0068 H   0  0  0  0  0  0  0  0  0  0  0  0
  139.2489   79.4639  220.4212 H   0  0  0  0  0  0  0  0  0  0  0  0
  139.9871   78.3402  219.2807 H   0  0  0  0  0  0  0  0  0  0  0  0
  138.2521   77.6231  221.7413 H   0  0  0  0  0  0  0  0  0  0  0  0
  137.7976   77.4024  220.0205 H   0  0  0  0  0  0  0  0  0  0  0  0
  139.0276   73.5971  223.2451 H   0  0  0  0  0  0  0  0  0  0  0  0
  1  2  1  0
  2  3  2  0
  3  4  1  0
  4  5  2  0
  5  6  1  0
  6  7  2  0
  6  8  1  0
  8  9  1  0
  9 10  1  0
 10 11  2  0
 11 12  1  0
 12 13  2  0
 13 14  1  0
 14 15  1  0
 15 16  2  0
 15 17  1  0
 17 18  1  0
 18 19  1  0
 19 20  1  0
 20 21  1  0
 21 22  2  0
 22 23  1  0
 23 24  2  0
 24 25  1  0
 25 26  2  0
 20 27  1  0
 27 28  1  0
 14 29  2  0
  9 30  2  0
  7  2  1  0
 29 10  1  0
 30  5  1  0
 28 17  1  0
 26 21  1  0
  1 31  1  0
  1 32  1  0
  1 33  1  0
  3 34  1  0
  4 35  1  0
  7 36  1  0
  8 37  1  0
  8 38  1  0
 11 39  1  0
 12 40  1  0
 13 41  1  0
 18 42  1  0
 18 43  1  0
 19 44  1  0
 19 45  1  0
 22 46  1  0
 23 47  1  0
 24 48  1  0
 25 49  1  0
 26 50  1  0
 27 51  1  0
 27 52  1  0
 28 53  1  0
 28 54  1  0
 29 55  1  0
M  END
>  <smiles>  (5) 
Cc1ccc2c(c1)CC(c1cccc(C(=O)N3CCN(c4ccccc4)CC3)c1)=N2

>  <score_type>  (5) 
oracle

>  <origin>  (5) 
autodockgpu

>  <m_score__min__energy>  (5) 
-8.7599999999999998

>  <m_primary>  (5) 
energy

>  <rmsd>  (5) 
4.452192020623704

>  <m_score__min__rmsd>  (5) 
4.452192020623704

>  <meeko>  (5) 
{"free_energy": -8.73, "intermolecular_energy": -9.63, "internal_energy": -0.93, "cluster_size": 49, "cluster_id": 1, "rank_in_cluster": 13}

>  <energy>  (5) 
-8.75

>  <cluster_rmsd>  (5) 
0.04

>  <cluster>  (5) 
1

$$$$

     RDKit          3D

 55 59  0  0  0  0  0  0  0  0999 V2000
  140.6510   68.1360  228.9860 C   0  0  0  0  0  0  0  0  0  0  0  0
  140.6470   69.1500  227.8940 C   0  0  0  0  0  0  0  0  0  0  0  0
  141.0840   70.4240  228.2530 C   0  0  0  0  0  0  0  0  0  0  0  0
  141.0890   71.3800  227.2590 C   0  0  0  0  0  0  0  0  0  0  0  0
  140.6800   71.0750  225.9740 C   0  0  0  0  0  0  0  0  0  0  0  0
  140.2450   69.8110  225.6160 C   0  0  0  0  0  0  0  0  0  0  0  0
  140.2400   68.8550  226.6110 C   0  0  0  0  0  0  0  0  0  0  0  0
  139.8960   69.8740  224.1800 C   0  0  0  0  0  0  0  0  0  0  0  0
  140.1830   71.2840  223.8060 C   0  0  0  0  0  0  0  0  0  0  0  0
  140.0060   71.8740  222.4840 C   0  0  0  0  0  0  0  0  0  0  0  0
  140.4460   71.2460  221.3250 C   0  0  0  0  0  0  0  0  0  0  0  0
  140.2550   71.8470  220.0860 C   0  0  0  0  0  0  0  0  0  0  0  0
  139.6320   73.0720  219.9470 C   0  0  0  0  0  0  0  0  0  0  0  0
  139.1970   73.6930  221.0960 C   0  0  0  0  0  0  0  0  0  0  0  0
  138.5200   74.9850  221.1070 C   0  0  0  0  0  0  0  0  0  0  0  0
  137.3260   75.0480  221.4870 O   0  0  0  0  0  0  0  0  0  0  0  0
  139.2480   76.1310  220.6800 N   0  0  0  0  0  0  0  0  0  0  0  0
  140.6470   76.0290  220.2370 C   0  0  0  0  0  0  0  0  0  0  0  0
  141.4280   77.0420  221.0320 C   0  0  0  0  0  0  0  0  0  0  0  0
  140.7380   78.3390  221.0800 N   0  0  0  0  0  0  0  0  0  0  0  0
  141.2110   79.3480  221.9570 C   0  0  0  0  0  0  0  0  0  0  0  0
  140.9270   80.6910  221.8000 C   0  0  0  0  0  0  0  0  0  0  0  0
  141.4080   81.6410  222.6810 C   0  0  0  0  0  0  0  0  0  0  0  0
  142.1930   81.2440  223.7460 C   0  0  0  0  0  0  0  0  0  0  0  0
  142.5030   79.8930  223.9410 C   0  0  0  0  0  0  0  0  0  0  0  0
  141.9960   78.9910  223.0310 C   0  0  0  0  0  0  0  0  0  0  0  0
  139.6020   78.4860  220.2020 C   0  0  0  0  0  0  0  0  0  0  0  0
  138.6000   77.4250  220.6760 C   0  0  0  0  0  0  0  0  0  0  0  0
  139.3860   73.0960  222.3400 C   0  0  0  0  0  0  0  0  0  0  0  0
  140.6130   71.9010  224.8380 N   0  0  0  0  0  0  0  0  0  0  0  0
  140.6490   68.6465  229.9604 H   0  0  0  0  0  0  0  0  0  0  0  0
  139.7553   67.5030  228.9018 H   0  0  0  0  0  0  0  0  0  0  0  0
  141.5516   67.5101  228.9018 H   0  0  0  0  0  0  0  0  0  0  0  0
  141.4087   70.6554  229.2782 H   0  0  0  0  0  0  0  0  0  0  0  0
  141.4238   72.4015  227.4923 H   0  0  0  0  0  0  0  0  0  0  0  0
  139.9036   67.8347  226.3747 H   0  0  0  0  0  0  0  0  0  0  0  0
  140.5169   69.1794  223.5951 H   0  0  0  0  0  0  0  0  0  0  0  0
  138.8528   69.5859  223.9830 H   0  0  0  0  0  0  0  0  0  0  0  0
  140.9476   70.2691  221.3882 H   0  0  0  0  0  0  0  0  0  0  0  0
  140.6128   71.3285  219.1842 H   0  0  0  0  0  0  0  0  0  0  0  0
  139.4893   73.5326  218.9583 H   0  0  0  0  0  0  0  0  0  0  0  0
  141.0327   75.0170  220.4295 H   0  0  0  0  0  0  0  0  0  0  0  0
  140.7350   76.2204  219.1574 H   0  0  0  0  0  0  0  0  0  0  0  0
  141.5572   76.6679  222.0583 H   0  0  0  0  0  0  0  0  0  0  0  0
  142.4020   77.1878  220.5421 H   0  0  0  0  0  0  0  0  0  0  0  0
  140.3028   81.0120  220.9531 H   0  0  0  0  0  0  0  0  0  0  0  0
  141.1677   82.7045  222.5353 H   0  0  0  0  0  0  0  0  0  0  0  0
  142.5786   81.9976  224.4484 H   0  0  0  0  0  0  0  0  0  0  0  0
  143.1259   79.5648  224.7861 H   0  0  0  0  0  0  0  0  0  0  0  0
  142.2315   77.9256  223.1702 H   0  0  0  0  0  0  0  0  0  0  0  0
  139.1706   79.4939  220.2920 H   0  0  0  0  0  0  0  0  0  0  0  0
  139.8752   78.3559  219.1444 H   0  0  0  0  0  0  0  0  0  0  0  0
  138.2582   77.6691  221.6927 H   0  0  0  0  0  0  0  0  0  0  0  0
  137.7338   77.4039  219.9983 H   0  0  0  0  0  0  0  0  0  0  0  0
  139.0277   73.6185  223.2392 H   0  0  0  0  0  0  0  0  0  0  0  0
  1  2  1  0
  2  3  2  0
  3  4  1  0
  4  5  2  0
  5  6  1  0
  6  7  2  0
  6  8  1  0
  8  9  1  0
  9 10  1  0
 10 11  2  0
 11 12  1  0
 12 13  2  0
 13 14  1  0
 14 15  1  0
 15 16  2  0
 15 17  1  0
 17 18  1  0
 18 19  1  0
 19 20  1  0
 20 21  1  0
 21 22  2  0
 22 23  1  0
 23 24  2  0
 24 25  1  0
 25 26  2  0
 20 27  1  0
 27 28  1  0
 14 29  2  0
  9 30  2  0
  7  2  1  0
 29 10  1  0
 30  5  1  0
 28 17  1  0
 26 21  1  0
  1 31  1  0
  1 32  1  0
  1 33  1  0
  3 34  1  0
  4 35  1  0
  7 36  1  0
  8 37  1  0
  8 38  1  0
 11 39  1  0
 12 40  1  0
 13 41  1  0
 18 42  1  0
 18 43  1  0
 19 44  1  0
 19 45  1  0
 22 46  1  0
 23 47  1  0
 24 48  1  0
 25 49  1  0
 26 50  1  0
 27 51  1  0
 27 52  1  0
 28 53  1  0
 28 54  1  0
 29 55  1  0
M  END
>  <smiles>  (6) 
Cc1ccc2c(c1)CC(c1cccc(C(=O)N3CCN(c4ccccc4)CC3)c1)=N2

>  <score_type>  (6) 
oracle

>  <origin>  (6) 
autodockgpu

>  <m_score__min__energy>  (6) 
-8.7599999999999998

>  <m_primary>  (6) 
energy

>  <rmsd>  (6) 
4.493452123174115

>  <m_score__min__rmsd>  (6) 
4.493452123174115

>  <meeko>  (6) 
{"free_energy": -8.69, "intermolecular_energy": -9.59, "internal_energy": -0.91, "cluster_size": 49, "cluster_id": 1, "rank_in_cluster": 34}

>  <energy>  (6) 
-8.75

>  <cluster_rmsd>  (6) 
0.03

>  <cluster>  (6) 
1

$$$$

     RDKit          3D

 55 59  0  0  0  0  0  0  0  0999 V2000
  140.8270   68.1510  229.0200 C   0  0  0  0  0  0  0  0  0  0  0  0
  140.7570   69.1580  227.9240 C   0  0  0  0  0  0  0  0  0  0  0  0
  141.1200   70.4580  228.2750 C   0  0  0  0  0  0  0  0  0  0  0  0
  141.0630   71.4070  227.2780 C   0  0  0  0  0  0  0  0  0  0  0  0
  140.6640   71.0730  225.9970 C   0  0  0  0  0  0  0  0  0  0  0  0
  140.3030   69.7850  225.6460 C   0  0  0  0  0  0  0  0  0  0  0  0
  140.3600   68.8340  226.6450 C   0  0  0  0  0  0  0  0  0  0  0  0
  139.9410   69.8200  224.2120 C   0  0  0  0  0  0  0  0  0  0  0  0
  140.1430   71.2430  223.8300 C   0  0  0  0  0  0  0  0  0  0  0  0
  139.9230   71.8170  222.5070 C   0  0  0  0  0  0  0  0  0  0  0  0
  140.2860   71.1530  221.3410 C   0  0  0  0  0  0  0  0  0  0  0  0
  140.0570   71.7390  220.1020 C   0  0  0  0  0  0  0  0  0  0  0  0
  139.4700   72.9830  219.9690 C   0  0  0  0  0  0  0  0  0  0  0  0
  139.1120   73.6390  221.1250 C   0  0  0  0  0  0  0  0  0  0  0  0
  138.4820   74.9540  221.1440 C   0  0  0  0  0  0  0  0  0  0  0  0
  137.2770   75.0510  221.4820 O   0  0  0  0  0  0  0  0  0  0  0  0
  139.2650   76.0820  220.7700 N   0  0  0  0  0  0  0  0  0  0  0  0
  140.6750   75.9390  220.3750 C   0  0  0  0  0  0  0  0  0  0  0  0
  141.4610   76.9050  221.2210 C   0  0  0  0  0  0  0  0  0  0  0  0
  140.8170   78.2240  221.2760 N   0  0  0  0  0  0  0  0  0  0  0  0
  141.2930   79.1960  222.1930 C   0  0  0  0  0  0  0  0  0  0  0  0
  142.6320   79.4020  222.4610 C   0  0  0  0  0  0  0  0  0  0  0  0
  143.0500   80.3620  223.3640 C   0  0  0  0  0  0  0  0  0  0  0  0
  142.1110   81.1360  224.0160 C   0  0  0  0  0  0  0  0  0  0  0  0
  140.7440   80.9590  223.7730 C   0  0  0  0  0  0  0  0  0  0  0  0
  140.3850   79.9870  222.8640 C   0  0  0  0  0  0  0  0  0  0  0  0
  139.7190   78.4330  220.3630 C   0  0  0  0  0  0  0  0  0  0  0  0
  138.6640   77.3980  220.7750 C   0  0  0  0  0  0  0  0  0  0  0  0
  139.3390   73.0570  222.3700 C   0  0  0  0  0  0  0  0  0  0  0  0
  140.5420   71.8890  224.8580 N   0  0  0  0  0  0  0  0  0  0  0  0
  140.7913   68.6642  229.9923 H   0  0  0  0  0  0  0  0  0  0  0  0
  139.9747   67.4604  228.9384 H   0  0  0  0  0  0  0  0  0  0  0  0
  141.7667   67.5850  228.9384 H   0  0  0  0  0  0  0  0  0  0  0  0
  141.4361   70.7130  229.2973 H   0  0  0  0  0  0  0  0  0  0  0  0
  141.3394   72.4473  227.5047 H   0  0  0  0  0  0  0  0  0  0  0  0
  140.0824   67.7948  226.4149 H   0  0  0  0  0  0  0  0  0  0  0  0
  140.5973   69.1599  223.6259 H   0  0  0  0  0  0  0  0  0  0  0  0
  138.9152   69.4703  224.0235 H   0  0  0  0  0  0  0  0  0  0  0  0
  140.7561   70.1602  221.3993 H   0  0  0  0  0  0  0  0  0  0  0  0
  140.3537   71.1930  219.1943 H   0  0  0  0  0  0  0  0  0  0  0  0
  139.2959   73.4308  218.9795 H   0  0  0  0  0  0  0  0  0  0  0  0
  141.0174   74.9097  220.5575 H   0  0  0  0  0  0  0  0  0  0  0  0
  140.8094   76.1507  219.3040 H   0  0  0  0  0  0  0  0  0  0  0  0
  141.5395   76.5033  222.2420 H   0  0  0  0  0  0  0  0  0  0  0  0
  142.4564   77.0269  220.7690 H   0  0  0  0  0  0  0  0  0  0  0  0
  143.3838   78.7878  221.9438 H   0  0  0  0  0  0  0  0  0  0  0  0
  144.1223   80.5079  223.5613 H   0  0  0  0  0  0  0  0  0  0  0  0
  142.4409   81.9006  224.7347 H   0  0  0  0  0  0  0  0  0  0  0  0
  139.9873   81.5704  224.2863 H   0  0  0  0  0  0  0  0  0  0  0  0
  139.3144   79.8340  222.6628 H   0  0  0  0  0  0  0  0  0  0  0  0
  139.3206   79.4534  220.4633 H   0  0  0  0  0  0  0  0  0  0  0  0
  140.0249   78.3184  219.3126 H   0  0  0  0  0  0  0  0  0  0  0  0
  138.2945   77.6304  221.7847 H   0  0  0  0  0  0  0  0  0  0  0  0
  137.8228   77.4240  220.0667 H   0  0  0  0  0  0  0  0  0  0  0  0
  139.0416   73.6067  223.2752 H   0  0  0  0  0  0  0  0  0  0  0  0
  1  2  1  0
  2  3  2  0
  3  4  1  0
  4  5  2  0
  5  6  1  0
  6  7  2  0
  6  8  1  0
  8  9  1  0
  9 10  1  0
 10 11  2  0
 11 12  1  0
 12 13  2  0
 13 14  1  0
 14 15  1  0
 15 16  2  0
 15 17  1  0
 17 18  1  0
 18 19  1  0
 19 20  1  0
 20 21  1  0
 21 22  2  0
 22 23  1  0
 23 24  2  0
 24 25  1  0
 25 26  2  0
 20 27  1  0
 27 28  1  0
 14 29  2  0
  9 30  2  0
  7  2  1  0
 29 10  1  0
 30  5  1  0
 28 17  1  0
 26 21  1  0
  1 31  1  0
  1 32  1  0
  1 33  1  0
  3 34  1  0
  4 35  1  0
  7 36  1  0
  8 37  1  0
  8 38  1  0
 11 39  1  0
 12 40  1  0
 13 41  1  0
 18 42  1  0
 18 43  1  0
 19 44  1  0
 19 45  1  0
 22 46  1  0
 23 47  1  0
 24 48  1  0
 25 49  1  0
 26 50  1  0
 27 51  1  0
 27 52  1  0
 28 53  1  0
 28 54  1  0
 29 55  1  0
M  END
>  <smiles>  (7) 
Cc1ccc2c(c1)CC(c1cccc(C(=O)N3CCN(c4ccccc4)CC3)c1)=N2

>  <score_type>  (7) 
oracle

>  <origin>  (7) 
autodockgpu

>  <m_score__min__energy>  (7) 
-8.7599999999999998

>  <m_primary>  (7) 
energy

>  <rmsd>  (7) 
4.485173658848913

>  <m_score__min__rmsd>  (7) 
4.485173658848913

>  <meeko>  (7) 
{"free_energy": -8.7, "intermolecular_energy": -9.59, "internal_energy": -0.94, "cluster_size": 49, "cluster_id": 1, "rank_in_cluster": 29}

>  <energy>  (7) 
-8.75

>  <cluster_rmsd>  (7) 
0.04

>  <cluster>  (7) 
1

$$$$

     RDKit          3D

 55 59  0  0  0  0  0  0  0  0999 V2000
  140.8050   68.2790  228.8480 C   0  0  0  0  0  0  0  0  0  0  0  0
  140.6840   69.2490  227.7230 C   0  0  0  0  0  0  0  0  0  0  0  0
  141.0870   70.5530  228.0050 C   0  0  0  0  0  0  0  0  0  0  0  0
  140.9840   71.4690  226.9800 C   0  0  0  0  0  0  0  0  0  0  0  0
  140.5020   71.0980  225.7380 C   0  0  0  0  0  0  0  0  0  0  0  0
  140.1000   69.8050  225.4560 C   0  0  0  0  0  0  0  0  0  0  0  0
  140.2040   68.8880  226.4830 C   0  0  0  0  0  0  0  0  0  0  0  0
  139.6520   69.7980  224.0460 C   0  0  0  0  0  0  0  0  0  0  0  0
  139.8520   71.2030  223.6030 C   0  0  0  0  0  0  0  0  0  0  0  0
  139.5610   71.7340  222.2760 C   0  0  0  0  0  0  0  0  0  0  0  0
  139.7580   70.9900  221.1190 C   0  0  0  0  0  0  0  0  0  0  0  0
  139.4660   71.5380  219.8750 C   0  0  0  0  0  0  0  0  0  0  0  0
  138.9750   72.8220  219.7300 C   0  0  0  0  0  0  0  0  0  0  0  0
  138.7800   73.5570  220.8770 C   0  0  0  0  0  0  0  0  0  0  0  0
  138.2660   74.9220  220.8830 C   0  0  0  0  0  0  0  0  0  0  0  0
  137.0670   75.1230  221.1950 O   0  0  0  0  0  0  0  0  0  0  0  0
  139.1520   75.9780  220.5270 N   0  0  0  0  0  0  0  0  0  0  0  0
  140.5520   75.7130  220.1630 C   0  0  0  0  0  0  0  0  0  0  0  0
  141.4000   76.6080  221.0260 C   0  0  0  0  0  0  0  0  0  0  0  0
  140.8720   77.9780  221.0670 N   0  0  0  0  0  0  0  0  0  0  0  0
  141.4100   78.9060  221.9950 C   0  0  0  0  0  0  0  0  0  0  0  0
  141.6640   78.6030  223.3180 C   0  0  0  0  0  0  0  0  0  0  0  0
  142.1910   79.5400  224.1880 C   0  0  0  0  0  0  0  0  0  0  0  0
  142.4710   80.8120  223.7280 C   0  0  0  0  0  0  0  0  0  0  0  0
  142.2280   81.1590  222.3950 C   0  0  0  0  0  0  0  0  0  0  0  0
  141.7020   80.1850  221.5730 C   0  0  0  0  0  0  0  0  0  0  0  0
  139.8160   78.2800  220.1300 C   0  0  0  0  0  0  0  0  0  0  0  0
  138.6670   77.3410  220.5190 C   0  0  0  0  0  0  0  0  0  0  0  0
  139.0710   73.0130  222.1260 C   0  0  0  0  0  0  0  0  0  0  0  0
  140.3230   71.8770  224.5800 N   0  0  0  0  0  0  0  0  0  0  0  0
  140.7379   68.8172  229.8050 H   0  0  0  0  0  0  0  0  0  0  0  0
  139.9920   67.5408  228.7847 H   0  0  0  0  0  0  0  0  0  0  0  0
  141.7744   67.7631  228.7847 H   0  0  0  0  0  0  0  0  0  0  0  0
  141.4685   70.8373  228.9968 H   0  0  0  0  0  0  0  0  0  0  0  0
  141.2900   72.5114  227.1527 H   0  0  0  0  0  0  0  0  0  0  0  0
  139.8969   67.8464  226.3074 H   0  0  0  0  0  0  0  0  0  0  0  0
  140.2612   69.1071  223.4447 H   0  0  0  0  0  0  0  0  0  0  0  0
  138.6113   69.4603  223.9321 H   0  0  0  0  0  0  0  0  0  0  0  0
  140.1466   69.9632  221.1876 H   0  0  0  0  0  0  0  0  0  0  0  0
  139.6315   70.9283  218.9745 H   0  0  0  0  0  0  0  0  0  0  0  0
  138.7492   73.2395  218.7377 H   0  0  0  0  0  0  0  0  0  0  0  0
  140.7998   74.6581  220.3524 H   0  0  0  0  0  0  0  0  0  0  0  0
  140.7275   75.9109  219.0953 H   0  0  0  0  0  0  0  0  0  0  0  0
  141.4208   76.2027  222.0484 H   0  0  0  0  0  0  0  0  0  0  0  0
  142.4120   76.6421  220.5962 H   0  0  0  0  0  0  0  0  0  0  0  0
  141.4417   77.5916  223.6890 H   0  0  0  0  0  0  0  0  0  0  0  0
  142.3856   79.2745  225.2376 H   0  0  0  0  0  0  0  0  0  0  0  0
  142.8895   81.5600  224.4174 H   0  0  0  0  0  0  0  0  0  0  0  0
  142.4477   82.1686  222.0176 H   0  0  0  0  0  0  0  0  0  0  0  0
  141.5045   80.4431  220.5221 H   0  0  0  0  0  0  0  0  0  0  0  0
  139.5054   79.3312  220.2218 H   0  0  0  0  0  0  0  0  0  0  0  0
  140.1334   78.1378  219.0865 H   0  0  0  0  0  0  0  0  0  0  0  0
  138.2973   77.6064  221.5205 H   0  0  0  0  0  0  0  0  0  0  0  0
  137.8466   77.4383  219.7927 H   0  0  0  0  0  0  0  0  0  0  0  0
  138.9037   73.6260  223.0239 H   0  0  0  0  0  0  0  0  0  0  0  0
  1  2  1  0
  2  3  2  0
  3  4  1  0
  4  5  2  0
  5  6  1  0
  6  7  2  0
  6  8  1  0
  8  9  1  0
  9 10  1  0
 10 11  2  0
 11 12  1  0
 12 13  2  0
 13 14  1  0
 14 15  1  0
 15 16  2  0
 15 17  1  0
 17 18  1  0
 18 19  1  0
 19 20  1  0
 20 21  1  0
 21 22  2  0
 22 23  1  0
 23 24  2  0
 24 25  1  0
 25 26  2  0
 20 27  1  0
 27 28  1  0
 14 29  2  0
  9 30  2  0
  7  2  1  0
 29 10  1  0
 30  5  1  0
 28 17  1  0
 26 21  1  0
  1 31  1  0
  1 32  1  0
  1 33  1  0
  3 34  1  0
  4 35  1  0
  7 36  1  0
  8 37  1  0
  8 38  1  0
 11 39  1  0
 12 40  1  0
 13 41  1  0
 18 42  1  0
 18 43  1  0
 19 44  1  0
 19 45  1  0
 22 46  1  0
 23 47  1  0
 24 48  1  0
 25 49  1  0
 26 50  1  0
 27 51  1  0
 27 52  1  0
 28 53  1  0
 28 54  1  0
 29 55  1  0
M  END
>  <smiles>  (8) 
Cc1ccc2c(c1)CC(c1cccc(C(=O)N3CCN(c4ccccc4)CC3)c1)=N2

>  <score_type>  (8) 
oracle

>  <origin>  (8) 
autodockgpu

>  <m_score__min__energy>  (8) 
-8.7599999999999998

>  <m_primary>  (8) 
energy

>  <rmsd>  (8) 
4.246982167645228

>  <m_score__min__rmsd>  (8) 
4.246982167645228

>  <meeko>  (8) 
{"free_energy": -8.55, "intermolecular_energy": -9.44, "internal_energy": -0.98, "cluster_size": 49, "cluster_id": 1, "rank_in_cluster": 49}

>  <energy>  (8) 
-8.75

>  <cluster_rmsd>  (8) 
0.03

>  <cluster>  (8) 
1

$$$$

     RDKit          3D

 55 59  0  0  0  0  0  0  0  0999 V2000
  140.6670   68.1720  228.9980 C   0  0  0  0  0  0  0  0  0  0  0  0
  140.6430   69.1790  227.9000 C   0  0  0  0  0  0  0  0  0  0  0  0
  141.0630   70.4620  228.2500 C   0  0  0  0  0  0  0  0  0  0  0  0
  141.0490   71.4120  227.2510 C   0  0  0  0  0  0  0  0  0  0  0  0
  140.6360   71.0940  225.9700 C   0  0  0  0  0  0  0  0  0  0  0  0
  140.2190   69.8220  225.6210 C   0  0  0  0  0  0  0  0  0  0  0  0
  140.2330   68.8710  226.6220 C   0  0  0  0  0  0  0  0  0  0  0  0
  139.8600   69.8720  224.1870 C   0  0  0  0  0  0  0  0  0  0  0  0
  140.1250   71.2840  223.8030 C   0  0  0  0  0  0  0  0  0  0  0  0
  139.9320   71.8650  222.4790 C   0  0  0  0  0  0  0  0  0  0  0  0
  140.3350   71.2160  221.3180 C   0  0  0  0  0  0  0  0  0  0  0  0
  140.1310   71.8080  220.0770 C   0  0  0  0  0  0  0  0  0  0  0  0
  139.5280   73.0440  219.9390 C   0  0  0  0  0  0  0  0  0  0  0  0
  139.1300   73.6850  221.0890 C   0  0  0  0  0  0  0  0  0  0  0  0
  138.4790   74.9900  221.1010 C   0  0  0  0  0  0  0  0  0  0  0  0
  137.2820   75.0750  221.4700 O   0  0  0  0  0  0  0  0  0  0  0  0
  139.2330   76.1240  220.6870 N   0  0  0  0  0  0  0  0  0  0  0  0
  140.6340   75.9960  220.2570 C   0  0  0  0  0  0  0  0  0  0  0  0
  141.4270   76.9890  221.0650 C   0  0  0  0  0  0  0  0  0  0  0  0
  140.7630   78.2990  221.1130 N   0  0  0  0  0  0  0  0  0  0  0  0
  141.2470   79.2950  222.0000 C   0  0  0  0  0  0  0  0  0  0  0  0
  141.2460   80.6440  221.7070 C   0  0  0  0  0  0  0  0  0  0  0  0
  141.7270   81.5800  222.6040 C   0  0  0  0  0  0  0  0  0  0  0  0
  142.2220   81.1610  223.8230 C   0  0  0  0  0  0  0  0  0  0  0  0
  142.2410   79.8030  224.1580 C   0  0  0  0  0  0  0  0  0  0  0  0
  141.7490   78.9150  223.2260 C   0  0  0  0  0  0  0  0  0  0  0  0
  139.6380   78.4730  220.2260 C   0  0  0  0  0  0  0  0  0  0  0  0
  138.6110   77.4300  220.6850 C   0  0  0  0  0  0  0  0  0  0  0  0
  139.3320   73.0970  222.3360 C   0  0  0  0  0  0  0  0  0  0  0  0
  140.5510   71.9130  224.8300 N   0  0  0  0  0  0  0  0  0  0  0  0
  140.6547   68.6882  229.9693 H   0  0  0  0  0  0  0  0  0  0  0  0
  139.7841   67.5208  228.9177 H   0  0  0  0  0  0  0  0  0  0  0  0
  141.5799   67.5636  228.9177 H   0  0  0  0  0  0  0  0  0  0  0  0
  141.3892   70.7039  229.2723 H   0  0  0  0  0  0  0  0  0  0  0  0
  141.3714   72.4392  227.4764 H   0  0  0  0  0  0  0  0  0  0  0  0
  139.9095   67.8448  226.3935 H   0  0  0  0  0  0  0  0  0  0  0  0
  140.4867   69.1828  223.6020 H   0  0  0  0  0  0  0  0  0  0  0  0
  138.8197   69.5684  223.9985 H   0  0  0  0  0  0  0  0  0  0  0  0
  140.8175   70.2295  221.3814 H   0  0  0  0  0  0  0  0  0  0  0  0
  140.4609   71.2743  219.1735 H   0  0  0  0  0  0  0  0  0  0  0  0
  139.3726   73.4971  218.9488 H   0  0  0  0  0  0  0  0  0  0  0  0
  140.9974   74.9755  220.4479 H   0  0  0  0  0  0  0  0  0  0  0  0
  140.7365   76.1910  219.1793 H   0  0  0  0  0  0  0  0  0  0  0  0
  141.5384   76.6072  222.0906 H   0  0  0  0  0  0  0  0  0  0  0  0
  142.4086   77.1177  220.5855 H   0  0  0  0  0  0  0  0  0  0  0  0
  140.8532   80.9824  220.7368 H   0  0  0  0  0  0  0  0  0  0  0  0
  141.7154   82.6499  222.3485 H   0  0  0  0  0  0  0  0  0  0  0  0
  142.6056   81.9032  224.5385 H   0  0  0  0  0  0  0  0  0  0  0  0
  142.6328   79.4579  225.1262 H   0  0  0  0  0  0  0  0  0  0  0  0
  141.7574   77.8434  223.4744 H   0  0  0  0  0  0  0  0  0  0  0  0
  139.2259   79.4888  220.3177 H   0  0  0  0  0  0  0  0  0  0  0  0
  139.9181   78.3428  219.1702 H   0  0  0  0  0  0  0  0  0  0  0  0
  138.2652   77.6751  221.7001 H   0  0  0  0  0  0  0  0  0  0  0  0
  137.7504   77.4301  219.9999 H   0  0  0  0  0  0  0  0  0  0  0  0
  139.0012   73.6347  223.2368 H   0  0  0  0  0  0  0  0  0  0  0  0
  1  2  1  0
  2  3  2  0
  3  4  1  0
  4  5  2  0
  5  6  1  0
  6  7  2  0
  6  8  1  0
  8  9  1  0
  9 10  1  0
 10 11  2  0
 11 12  1  0
 12 13  2  0
 13 14  1  0
 14 15  1  0
 15 16  2  0
 15 17  1  0
 17 18  1  0
 18 19  1  0
 19 20  1  0
 20 21  1  0
 21 22  2  0
 22 23  1  0
 23 24  2  0
 24 25  1  0
 25 26  2  0
 20 27  1  0
 27 28  1  0
 14 29  2  0
  9 30  2  0
  7  2  1  0
 29 10  1  0
 30  5  1  0
 28 17  1  0
 26 21  1  0
  1 31  1  0
  1 32  1  0
  1 33  1  0
  3 34  1  0
  4 35  1  0
  7 36  1  0
  8 37  1  0
  8 38  1  0
 11 39  1  0
 12 40  1  0
 13 41  1  0
 18 42  1  0
 18 43  1  0
 19 44  1  0
 19 45  1  0
 22 46  1  0
 23 47  1  0
 24 48  1  0
 25 49  1  0
 26 50  1  0
 27 51  1  0
 27 52  1  0
 28 53  1  0
 28 54  1  0
 29 55  1  0
M  END
>  <smiles>  (9) 
Cc1ccc2c(c1)CC(c1cccc(C(=O)N3CCN(c4ccccc4)CC3)c1)=N2

>  <score_type>  (9) 
oracle

>  <origin>  (9) 
autodockgpu

>  <m_score__min__energy>  (9) 
-8.7599999999999998

>  <m_primary>  (9) 
energy

>  <rmsd>  (9) 
4.507989250062322

>  <m_score__min__rmsd>  (9) 
4.507989250062322

>  <meeko>  (9) 
{"free_energy": -8.68, "intermolecular_energy": -9.57, "internal_energy": -0.93, "cluster_size": 49, "cluster_id": 1, "rank_in_cluster": 41}

>  <energy>  (9) 
-8.74

>  <cluster_rmsd>  (9) 
0.06

>  <cluster>  (9) 
1

$$$$

     RDKit          3D

 55 59  0  0  0  0  0  0  0  0999 V2000
  140.8010   68.1740  229.0380 C   0  0  0  0  0  0  0  0  0  0  0  0
  140.7310   69.1770  227.9370 C   0  0  0  0  0  0  0  0  0  0  0  0
  141.0950   70.4780  228.2830 C   0  0  0  0  0  0  0  0  0  0  0  0
  141.0370   71.4240  227.2820 C   0  0  0  0  0  0  0  0  0  0  0  0
  140.6350   71.0850  226.0030 C   0  0  0  0  0  0  0  0  0  0  0  0
  140.2730   69.7950  225.6580 C   0  0  0  0  0  0  0  0  0  0  0  0
  140.3310   68.8480  226.6610 C   0  0  0  0  0  0  0  0  0  0  0  0
  139.9090   69.8250  224.2240 C   0  0  0  0  0  0  0  0  0  0  0  0
  140.1100   71.2460  223.8370 C   0  0  0  0  0  0  0  0  0  0  0  0
  139.8890   71.8150  222.5120 C   0  0  0  0  0  0  0  0  0  0  0  0
  140.2520   71.1480  221.3480 C   0  0  0  0  0  0  0  0  0  0  0  0
  140.0210   71.7290  220.1060 C   0  0  0  0  0  0  0  0  0  0  0  0
  139.4310   72.9710  219.9690 C   0  0  0  0  0  0  0  0  0  0  0  0
  139.0730   73.6300  221.1230 C   0  0  0  0  0  0  0  0  0  0  0  0
  138.4390   74.9440  221.1380 C   0  0  0  0  0  0  0  0  0  0  0  0
  137.2310   75.0370  221.4650 O   0  0  0  0  0  0  0  0  0  0  0  0
  139.2230   76.0740  220.7740 N   0  0  0  0  0  0  0  0  0  0  0  0
  140.6370   75.9350  220.3930 C   0  0  0  0  0  0  0  0  0  0  0  0
  141.4130   76.9010  221.2480 C   0  0  0  0  0  0  0  0  0  0  0  0
  140.7650   78.2190  221.2980 N   0  0  0  0  0  0  0  0  0  0  0  0
  141.2290   79.1900  222.2220 C   0  0  0  0  0  0  0  0  0  0  0  0
  140.3940   80.0280  222.9350 C   0  0  0  0  0  0  0  0  0  0  0  0
  140.8910   80.9600  223.8260 C   0  0  0  0  0  0  0  0  0  0  0  0
  142.2560   81.0610  224.0130 C   0  0  0  0  0  0  0  0  0  0  0  0
  143.1370   80.2310  223.3110 C   0  0  0  0  0  0  0  0  0  0  0  0
  142.5850   79.3200  222.4350 C   0  0  0  0  0  0  0  0  0  0  0  0
  139.6750   78.4270  220.3750 C   0  0  0  0  0  0  0  0  0  0  0  0
  138.6190   77.3890  220.7750 C   0  0  0  0  0  0  0  0  0  0  0  0
  139.3020   73.0530  222.3700 C   0  0  0  0  0  0  0  0  0  0  0  0
  140.5120   71.8960  224.8610 N   0  0  0  0  0  0  0  0  0  0  0  0
  140.7649   68.6913  230.0081 H   0  0  0  0  0  0  0  0  0  0  0  0
  139.9489   67.4828  228.9591 H   0  0  0  0  0  0  0  0  0  0  0  0
  141.7408   67.6079  228.9591 H   0  0  0  0  0  0  0  0  0  0  0  0
  141.4126   70.7365  229.3039 H   0  0  0  0  0  0  0  0  0  0  0  0
  141.3149   72.4649  227.5041 H   0  0  0  0  0  0  0  0  0  0  0  0
  140.0516   67.8081  226.4360 H   0  0  0  0  0  0  0  0  0  0  0  0
  140.5647   69.1631  223.6393 H   0  0  0  0  0  0  0  0  0  0  0  0
  138.8831   69.4744  224.0380 H   0  0  0  0  0  0  0  0  0  0  0  0
  140.7240   70.1563  221.4095 H   0  0  0  0  0  0  0  0  0  0  0  0
  140.3185   71.1803  219.2002 H   0  0  0  0  0  0  0  0  0  0  0  0
  139.2547   73.4149  218.9781 H   0  0  0  0  0  0  0  0  0  0  0  0
  140.9797   74.9061  220.5771 H   0  0  0  0  0  0  0  0  0  0  0  0
  140.7813   76.1492  219.3238 H   0  0  0  0  0  0  0  0  0  0  0  0
  141.4822   76.4981  222.2692 H   0  0  0  0  0  0  0  0  0  0  0  0
  142.4128   77.0253  220.8066 H   0  0  0  0  0  0  0  0  0  0  0  0
  139.3063   79.9516  222.7899 H   0  0  0  0  0  0  0  0  0  0  0  0
  140.2052   81.6162  224.3819 H   0  0  0  0  0  0  0  0  0  0  0  0
  142.6547   81.8020  224.7215 H   0  0  0  0  0  0  0  0  0  0  0  0
  144.2256   80.3022  223.4521 H   0  0  0  0  0  0  0  0  0  0  0  0
  143.2643   78.6604  221.8751 H   0  0  0  0  0  0  0  0  0  0  0  0
  139.2732   79.4462  220.4734 H   0  0  0  0  0  0  0  0  0  0  0  0
  139.9911   78.3151  219.3274 H   0  0  0  0  0  0  0  0  0  0  0  0
  138.2391   77.6190  221.7814 H   0  0  0  0  0  0  0  0  0  0  0  0
  137.7849   77.4141  220.0584 H   0  0  0  0  0  0  0  0  0  0  0  0
  139.0036   73.6055  223.2732 H   0  0  0  0  0  0  0  0  0  0  0  0
  1  2  1  0
  2  3  2  0
  3  4  1  0
  4  5  2  0
  5  6  1  0
  6  7  2  0
  6  8  1  0
  8  9  1  0
  9 10  1  0
 10 11  2  0
 11 12  1  0
 12 13  2  0
 13 14  1  0
 14 15  1  0
 15 16  2  0
 15 17  1  0
 17 18  1  0
 18 19  1  0
 19 20  1  0
 20 21  1  0
 21 22  2  0
 22 23  1  0
 23 24  2  0
 24 25  1  0
 25 26  2  0
 20 27  1  0
 27 28  1  0
 14 29  2  0
  9 30  2  0
  7  2  1  0
 29 10  1  0
 30  5  1  0
 28 17  1  0
 26 21  1  0
  1 31  1  0
  1 32  1  0
  1 33  1  0
  3 34  1  0
  4 35  1  0
  7 36  1  0
  8 37  1  0
  8 38  1  0
 11 39  1  0
 12 40  1  0
 13 41  1  0
 18 42  1  0
 18 43  1  0
 19 44  1  0
 19 45  1  0
 22 46  1  0
 23 47  1  0
 24 48  1  0
 25 49  1  0
 26 50  1  0
 27 51  1  0
 27 52  1  0
 28 53  1  0
 28 54  1  0
 29 55  1  0
M  END
>  <smiles>  (10) 
Cc1ccc2c(c1)CC(c1cccc(C(=O)N3CCN(c4ccccc4)CC3)c1)=N2

>  <score_type>  (10) 
oracle

>  <origin>  (10) 
autodockgpu

>  <m_score__min__energy>  (10) 
-8.7599999999999998

>  <m_primary>  (10) 
energy

>  <rmsd>  (10) 
4.432769316517385

>  <m_score__min__rmsd>  (10) 
4.432769316517385

>  <meeko>  (10) 
{"free_energy": -8.69, "intermolecular_energy": -9.59, "internal_energy": -0.94, "cluster_size": 49, "cluster_id": 1, "rank_in_cluster": 32}

>  <energy>  (10) 
-8.74

>  <cluster_rmsd>  (10) 
0.06

>  <cluster>  (10) 
1

$$$$

     RDKit          3D

 55 59  0  0  0  0  0  0  0  0999 V2000
  140.7550   68.1500  228.9790 C   0  0  0  0  0  0  0  0  0  0  0  0
  140.7170   69.1590  227.8830 C   0  0  0  0  0  0  0  0  0  0  0  0
  141.1250   70.4460  228.2330 C   0  0  0  0  0  0  0  0  0  0  0  0
  141.0980   71.3970  227.2360 C   0  0  0  0  0  0  0  0  0  0  0  0
  140.6850   71.0770  225.9560 C   0  0  0  0  0  0  0  0  0  0  0  0
  140.2790   69.8020  225.6060 C   0  0  0  0  0  0  0  0  0  0  0  0
  140.3060   68.8490  226.6050 C   0  0  0  0  0  0  0  0  0  0  0  0
  139.9160   69.8500  224.1730 C   0  0  0  0  0  0  0  0  0  0  0  0
  140.1650   71.2650  223.7910 C   0  0  0  0  0  0  0  0  0  0  0  0
  139.9620   71.8460  222.4680 C   0  0  0  0  0  0  0  0  0  0  0  0
  140.3550   71.1970  221.3040 C   0  0  0  0  0  0  0  0  0  0  0  0
  140.1410   71.7890  220.0650 C   0  0  0  0  0  0  0  0  0  0  0  0
  139.5390   73.0260  219.9310 C   0  0  0  0  0  0  0  0  0  0  0  0
  139.1510   73.6680  221.0850 C   0  0  0  0  0  0  0  0  0  0  0  0
  138.5020   74.9740  221.1020 C   0  0  0  0  0  0  0  0  0  0  0  0
  137.3060   75.0590  221.4730 O   0  0  0  0  0  0  0  0  0  0  0  0
  139.2580   76.1070  220.6900 N   0  0  0  0  0  0  0  0  0  0  0  0
  140.6580   75.9790  220.2580 C   0  0  0  0  0  0  0  0  0  0  0  0
  141.4540   76.9680  221.0670 C   0  0  0  0  0  0  0  0  0  0  0  0
  140.7920   78.2790  221.1200 N   0  0  0  0  0  0  0  0  0  0  0  0
  141.2790   79.2710  222.0100 C   0  0  0  0  0  0  0  0  0  0  0  0
  141.3050   80.6190  221.7110 C   0  0  0  0  0  0  0  0  0  0  0  0
  141.7880   81.5510  222.6100 C   0  0  0  0  0  0  0  0  0  0  0  0
  142.2580   81.1300  223.8390 C   0  0  0  0  0  0  0  0  0  0  0  0
  142.2480   79.7730  224.1810 C   0  0  0  0  0  0  0  0  0  0  0  0
  141.7560   78.8890  223.2450 C   0  0  0  0  0  0  0  0  0  0  0  0
  139.6660   78.4580  220.2350 C   0  0  0  0  0  0  0  0  0  0  0  0
  138.6380   77.4140  220.6930 C   0  0  0  0  0  0  0  0  0  0  0  0
  139.3630   73.0790  222.3300 C   0  0  0  0  0  0  0  0  0  0  0  0
  140.5880   71.8970  224.8170 N   0  0  0  0  0  0  0  0  0  0  0  0
  140.7356   68.6639  229.9514 H   0  0  0  0  0  0  0  0  0  0  0  0
  139.8812   67.4868  228.8973 H   0  0  0  0  0  0  0  0  0  0  0  0
  141.6762   67.5544  228.8973 H   0  0  0  0  0  0  0  0  0  0  0  0
  141.4522   70.6899  229.2545 H   0  0  0  0  0  0  0  0  0  0  0  0
  141.4101   72.4273  227.4622 H   0  0  0  0  0  0  0  0  0  0  0  0
  139.9925   67.8199  226.3754 H   0  0  0  0  0  0  0  0  0  0  0  0
  140.5487   69.1684  223.5855 H   0  0  0  0  0  0  0  0  0  0  0  0
  138.8786   69.5353  223.9863 H   0  0  0  0  0  0  0  0  0  0  0  0
  140.8376   70.2103  221.3634 H   0  0  0  0  0  0  0  0  0  0  0  0
  140.4621   71.2543  219.1589 H   0  0  0  0  0  0  0  0  0  0  0  0
  139.3765   73.4791  218.9419 H   0  0  0  0  0  0  0  0  0  0  0  0
  141.0204   74.9574  220.4453 H   0  0  0  0  0  0  0  0  0  0  0  0
  140.7588   76.1777  219.1808 H   0  0  0  0  0  0  0  0  0  0  0  0
  141.5668   76.5831  222.0913 H   0  0  0  0  0  0  0  0  0  0  0  0
  142.4349   77.0965  220.5861 H   0  0  0  0  0  0  0  0  0  0  0  0
  140.9322   80.9592  220.7336 H   0  0  0  0  0  0  0  0  0  0  0  0
  141.7981   82.6195  222.3490 H   0  0  0  0  0  0  0  0  0  0  0  0
  142.6441   81.8692  224.5563 H   0  0  0  0  0  0  0  0  0  0  0  0
  142.6178   79.4260  225.1571 H   0  0  0  0  0  0  0  0  0  0  0  0
  141.7434   77.8186  223.4980 H   0  0  0  0  0  0  0  0  0  0  0  0
  139.2555   79.4740  220.3307 H   0  0  0  0  0  0  0  0  0  0  0  0
  139.9440   78.3315  219.1783 H   0  0  0  0  0  0  0  0  0  0  0  0
  138.2944   77.6565  221.7094 H   0  0  0  0  0  0  0  0  0  0  0  0
  137.7763   77.4173  220.0092 H   0  0  0  0  0  0  0  0  0  0  0  0
  139.0410   73.6171  223.2338 H   0  0  0  0  0  0  0  0  0  0  0  0
  1  2  1  0
  2  3  2  0
  3  4  1  0
  4  5  2  0
  5  6  1  0
  6  7  2  0
  6  8  1  0
  8  9  1  0
  9 10  1  0
 10 11  2  0
 11 12  1  0
 12 13  2  0
 13 14  1  0
 14 15  1  0
 15 16  2  0
 15 17  1  0
 17 18  1  0
 18 19  1  0
 19 20  1  0
 20 21  1  0
 21 22  2  0
 22 23  1  0
 23 24  2  0
 24 25  1  0
 25 26  2  0
 20 27  1  0
 27 28  1  0
 14 29  2  0
  9 30  2  0
  7  2  1  0
 29 10  1  0
 30  5  1  0
 28 17  1  0
 26 21  1  0
  1 31  1  0
  1 32  1  0
  1 33  1  0
  3 34  1  0
  4 35  1  0
  7 36  1  0
  8 37  1  0
  8 38  1  0
 11 39  1  0
 12 40  1  0
 13 41  1  0
 18 42  1  0
 18 43  1  0
 19 44  1  0
 19 45  1  0
 22 46  1  0
 23 47  1  0
 24 48  1  0
 25 49  1  0
 26 50  1  0
 27 51  1  0
 27 52  1  0
 28 53  1  0
 28 54  1  0
 29 55  1  0
M  END
>  <smiles>  (11) 
Cc1ccc2c(c1)CC(c1cccc(C(=O)N3CCN(c4ccccc4)CC3)c1)=N2

>  <score_type>  (11) 
oracle

>  <origin>  (11) 
autodockgpu

>  <m_score__min__energy>  (11) 
-8.7599999999999998

>  <m_primary>  (11) 
energy

>  <rmsd>  (11) 
4.506792307981244

>  <m_score__min__rmsd>  (11) 
4.506792307981244

>  <meeko>  (11) 
{"free_energy": -8.69, "intermolecular_energy": -9.59, "internal_energy": -0.93, "cluster_size": 49, "cluster_id": 1, "rank_in_cluster": 30}

>  <energy>  (11) 
-8.74

>  <cluster_rmsd>  (11) 
0.04

>  <cluster>  (11) 
1

$$$$

     RDKit          3D

 55 59  0  0  0  0  0  0  0  0999 V2000
  140.7780   68.1570  228.9680 C   0  0  0  0  0  0  0  0  0  0  0  0
  140.7270   69.1690  227.8760 C   0  0  0  0  0  0  0  0  0  0  0  0
  141.1150   70.4600  228.2320 C   0  0  0  0  0  0  0  0  0  0  0  0
  141.0750   71.4150  227.2380 C   0  0  0  0  0  0  0  0  0  0  0  0
  140.6700   71.0930  225.9560 C   0  0  0  0  0  0  0  0  0  0  0  0
  140.2830   69.8130  225.6010 C   0  0  0  0  0  0  0  0  0  0  0  0
  140.3230   68.8580  226.5960 C   0  0  0  0  0  0  0  0  0  0  0  0
  139.9220   69.8610  224.1670 C   0  0  0  0  0  0  0  0  0  0  0  0
  140.1500   71.2810  223.7910 C   0  0  0  0  0  0  0  0  0  0  0  0
  139.9410   71.8640  222.4700 C   0  0  0  0  0  0  0  0  0  0  0  0
  140.3290   71.2160  221.3030 C   0  0  0  0  0  0  0  0  0  0  0  0
  140.1090   71.8100  220.0650 C   0  0  0  0  0  0  0  0  0  0  0  0
  139.5060   73.0470  219.9360 C   0  0  0  0  0  0  0  0  0  0  0  0
  139.1230   73.6870  221.0920 C   0  0  0  0  0  0  0  0  0  0  0  0
  138.4740   74.9920  221.1140 C   0  0  0  0  0  0  0  0  0  0  0  0
  137.2660   75.0710  221.4480 O   0  0  0  0  0  0  0  0  0  0  0  0
  139.2420   76.1340  220.7500 N   0  0  0  0  0  0  0  0  0  0  0  0
  140.6550   76.0130  220.3600 C   0  0  0  0  0  0  0  0  0  0  0  0
  141.4240   76.9860  221.2140 C   0  0  0  0  0  0  0  0  0  0  0  0
  140.7610   78.2960  221.2720 N   0  0  0  0  0  0  0  0  0  0  0  0
  141.2180   79.2700  222.1960 C   0  0  0  0  0  0  0  0  0  0  0  0
  140.3780   80.1190  222.8890 C   0  0  0  0  0  0  0  0  0  0  0  0
  140.8690   81.0530  223.7820 C   0  0  0  0  0  0  0  0  0  0  0  0
  142.2310   81.1450  223.9900 C   0  0  0  0  0  0  0  0  0  0  0  0
  143.1160   80.3030  223.3080 C   0  0  0  0  0  0  0  0  0  0  0  0
  142.5710   79.3910  222.4300 C   0  0  0  0  0  0  0  0  0  0  0  0
  139.6630   78.4930  220.3550 C   0  0  0  0  0  0  0  0  0  0  0  0
  138.6220   77.4410  220.7580 C   0  0  0  0  0  0  0  0  0  0  0  0
  139.3410   73.0970  222.3360 C   0  0  0  0  0  0  0  0  0  0  0  0
  140.5620   71.9160  224.8200 N   0  0  0  0  0  0  0  0  0  0  0  0
  140.7523   68.6672  229.9422 H   0  0  0  0  0  0  0  0  0  0  0  0
  139.9127   67.4831  228.8841 H   0  0  0  0  0  0  0  0  0  0  0  0
  141.7067   67.5735  228.8841 H   0  0  0  0  0  0  0  0  0  0  0  0
  141.4370   70.7046  229.2550 H   0  0  0  0  0  0  0  0  0  0  0  0
  141.3700   72.4493  227.4688 H   0  0  0  0  0  0  0  0  0  0  0  0
  140.0257   67.8251  226.3621 H   0  0  0  0  0  0  0  0  0  0  0  0
  140.5662   69.1915  223.5782 H   0  0  0  0  0  0  0  0  0  0  0  0
  138.8899   69.5312  223.9770 H   0  0  0  0  0  0  0  0  0  0  0  0
  140.8120   70.2293  221.3590 H   0  0  0  0  0  0  0  0  0  0  0  0
  140.4260   71.2767  219.1566 H   0  0  0  0  0  0  0  0  0  0  0  0
  139.3390   73.5016  218.9484 H   0  0  0  0  0  0  0  0  0  0  0  0
  141.0112   74.9877  220.5388 H   0  0  0  0  0  0  0  0  0  0  0  0
  140.7906   76.2319  219.2906 H   0  0  0  0  0  0  0  0  0  0  0  0
  141.5036   76.5807  222.2335 H   0  0  0  0  0  0  0  0  0  0  0  0
  142.4197   77.1237  220.7672 H   0  0  0  0  0  0  0  0  0  0  0  0
  139.2922   80.0505  222.7266 H   0  0  0  0  0  0  0  0  0  0  0  0
  140.1798   81.7181  224.3229 H   0  0  0  0  0  0  0  0  0  0  0  0
  142.6243   81.8881  224.6994 H   0  0  0  0  0  0  0  0  0  0  0  0
  144.2027   80.3663  223.4661 H   0  0  0  0  0  0  0  0  0  0  0  0
  143.2540   78.7223  221.8855 H   0  0  0  0  0  0  0  0  0  0  0  0
  139.2492   79.5069  220.4582 H   0  0  0  0  0  0  0  0  0  0  0  0
  139.9748   78.3877  219.3054 H   0  0  0  0  0  0  0  0  0  0  0  0
  138.2450   77.6636  221.7671 H   0  0  0  0  0  0  0  0  0  0  0  0
  137.7836   77.4577  220.0461 H   0  0  0  0  0  0  0  0  0  0  0  0
  139.0231   73.6343  223.2417 H   0  0  0  0  0  0  0  0  0  0  0  0
  1  2  1  0
  2  3  2  0
  3  4  1  0
  4  5  2  0
  5  6  1  0
  6  7  2  0
  6  8  1  0
  8  9  1  0
  9 10  1  0
 10 11  2  0
 11 12  1  0
 12 13  2  0
 13 14  1  0
 14 15  1  0
 15 16  2  0
 15 17  1  0
 17 18  1  0
 18 19  1  0
 19 20  1  0
 20 21  1  0
 21 22  2  0
 22 23  1  0
 23 24  2  0
 24 25  1  0
 25 26  2  0
 20 27  1  0
 27 28  1  0
 14 29  2  0
  9 30  2  0
  7  2  1  0
 29 10  1  0
 30  5  1  0
 28 17  1  0
 26 21  1  0
  1 31  1  0
  1 32  1  0
  1 33  1  0
  3 34  1  0
  4 35  1  0
  7 36  1  0
  8 37  1  0
  8 38  1  0
 11 39  1  0
 12 40  1  0
 13 41  1  0
 18 42  1  0
 18 43  1  0
 19 44  1  0
 19 45  1  0
 22 46  1  0
 23 47  1  0
 24 48  1  0
 25 49  1  0
 26 50  1  0
 27 51  1  0
 27 52  1  0
 28 53  1  0
 28 54  1  0
 29 55  1  0
M  END
>  <smiles>  (12) 
Cc1ccc2c(c1)CC(c1cccc(C(=O)N3CCN(c4ccccc4)CC3)c1)=N2

>  <score_type>  (12) 
oracle

>  <origin>  (12) 
autodockgpu

>  <m_score__min__energy>  (12) 
-8.7599999999999998

>  <m_primary>  (12) 
energy

>  <rmsd>  (12) 
4.46577996536432

>  <m_score__min__rmsd>  (12) 
4.46577996536432

>  <meeko>  (12) 
{"free_energy": -8.73, "intermolecular_energy": -9.62, "internal_energy": -0.93, "cluster_size": 49, "cluster_id": 1, "rank_in_cluster": 14}

>  <energy>  (12) 
-8.74

>  <cluster_rmsd>  (12) 
0.08

>  <cluster>  (12) 
1

$$$$

     RDKit          3D

 55 59  0  0  0  0  0  0  0  0999 V2000
  140.7490   68.1410  228.9700 C   0  0  0  0  0  0  0  0  0  0  0  0
  140.6910   69.1510  227.8760 C   0  0  0  0  0  0  0  0  0  0  0  0
  141.0820   70.4430  228.2260 C   0  0  0  0  0  0  0  0  0  0  0  0
  141.0360   71.3940  227.2300 C   0  0  0  0  0  0  0  0  0  0  0  0
  140.6220   71.0690  225.9510 C   0  0  0  0  0  0  0  0  0  0  0  0
  140.2330   69.7890  225.6010 C   0  0  0  0  0  0  0  0  0  0  0  0
  140.2790   68.8360  226.6000 C   0  0  0  0  0  0  0  0  0  0  0  0
  139.8630   69.8330  224.1700 C   0  0  0  0  0  0  0  0  0  0  0  0
  140.0890   71.2520  223.7890 C   0  0  0  0  0  0  0  0  0  0  0  0
  139.8710   71.8310  222.4680 C   0  0  0  0  0  0  0  0  0  0  0  0
  140.2310   71.1700  221.2990 C   0  0  0  0  0  0  0  0  0  0  0  0
  140.0040   71.7610  220.0620 C   0  0  0  0  0  0  0  0  0  0  0  0
  139.4210   73.0080  219.9340 C   0  0  0  0  0  0  0  0  0  0  0  0
  139.0660   73.6610  221.0920 C   0  0  0  0  0  0  0  0  0  0  0  0
  138.4410   74.9780  221.1160 C   0  0  0  0  0  0  0  0  0  0  0  0
  137.2360   75.0780  221.4540 O   0  0  0  0  0  0  0  0  0  0  0  0
  139.2280   76.1050  220.7480 N   0  0  0  0  0  0  0  0  0  0  0  0
  140.6380   75.9590  220.3530 C   0  0  0  0  0  0  0  0  0  0  0  0
  141.4270   76.9180  221.2030 C   0  0  0  0  0  0  0  0  0  0  0  0
  140.7880   78.2400  221.2630 N   0  0  0  0  0  0  0  0  0  0  0  0
  141.2660   79.2050  222.1850 C   0  0  0  0  0  0  0  0  0  0  0  0
  142.6060   79.4110  222.4500 C   0  0  0  0  0  0  0  0  0  0  0  0
  143.0270   80.3650  223.3570 C   0  0  0  0  0  0  0  0  0  0  0  0
  142.0900   81.1350  224.0170 C   0  0  0  0  0  0  0  0  0  0  0  0
  140.7230   80.9590  223.7770 C   0  0  0  0  0  0  0  0  0  0  0  0
  140.3610   79.9930  222.8630 C   0  0  0  0  0  0  0  0  0  0  0  0
  139.6910   78.4560  220.3500 C   0  0  0  0  0  0  0  0  0  0  0  0
  138.6320   77.4230  220.7570 C   0  0  0  0  0  0  0  0  0  0  0  0
  139.2920   73.0740  222.3350 C   0  0  0  0  0  0  0  0  0  0  0  0
  140.5070   71.8890  224.8140 N   0  0  0  0  0  0  0  0  0  0  0  0
  140.7196   68.6526  229.9433 H   0  0  0  0  0  0  0  0  0  0  0  0
  139.8884   67.4609  228.8871 H   0  0  0  0  0  0  0  0  0  0  0  0
  141.6818   67.5639  228.8871 H   0  0  0  0  0  0  0  0  0  0  0  0
  141.4107   70.6905  229.2461 H   0  0  0  0  0  0  0  0  0  0  0  0
  141.3334   72.4287  227.4558 H   0  0  0  0  0  0  0  0  0  0  0  0
  139.9799   67.8024  226.3713 H   0  0  0  0  0  0  0  0  0  0  0  0
  140.5033   69.1617  223.5788 H   0  0  0  0  0  0  0  0  0  0  0  0
  138.8298   69.5028  223.9873 H   0  0  0  0  0  0  0  0  0  0  0  0
  140.6974   70.1752  221.3535 H   0  0  0  0  0  0  0  0  0  0  0  0
  140.2986   71.2173  219.1523 H   0  0  0  0  0  0  0  0  0  0  0  0
  139.2479   73.4600  218.9462 H   0  0  0  0  0  0  0  0  0  0  0  0
  140.9767   74.9277  220.5311 H   0  0  0  0  0  0  0  0  0  0  0  0
  140.7735   76.1752  219.2830 H   0  0  0  0  0  0  0  0  0  0  0  0
  141.5032   76.5118  222.2224 H   0  0  0  0  0  0  0  0  0  0  0  0
  142.4232   77.0377  220.7521 H   0  0  0  0  0  0  0  0  0  0  0  0
  143.3564   78.8007  221.9262 H   0  0  0  0  0  0  0  0  0  0  0  0
  144.0999   80.5097  223.5515 H   0  0  0  0  0  0  0  0  0  0  0  0
  142.4220   81.8952  224.7394 H   0  0  0  0  0  0  0  0  0  0  0  0
  139.9678   81.5669  224.2967 H   0  0  0  0  0  0  0  0  0  0  0  0
  139.2898   79.8425  222.6635 H   0  0  0  0  0  0  0  0  0  0  0  0
  139.2959   79.4773  220.4539 H   0  0  0  0  0  0  0  0  0  0  0  0
  139.9974   78.3442  219.2995 H   0  0  0  0  0  0  0  0  0  0  0  0
  138.2622   77.6531  221.7671 H   0  0  0  0  0  0  0  0  0  0  0  0
  137.7919   77.4545  220.0476 H   0  0  0  0  0  0  0  0  0  0  0  0
  138.9978   73.6222  223.2422 H   0  0  0  0  0  0  0  0  0  0  0  0
  1  2  1  0
  2  3  2  0
  3  4  1  0
  4  5  2  0
  5  6  1  0
  6  7  2  0
  6  8  1  0
  8  9  1  0
  9 10  1  0
 10 11  2  0
 11 12  1  0
 12 13  2  0
 13 14  1  0
 14 15  1  0
 15 16  2  0
 15 17  1  0
 17 18  1  0
 18 19  1  0
 19 20  1  0
 20 21  1  0
 21 22  2  0
 22 23  1  0
 23 24  2  0
 24 25  1  0
 25 26  2  0
 20 27  1  0
 27 28  1  0
 14 29  2  0
  9 30  2  0
  7  2  1  0
 29 10  1  0
 30  5  1  0
 28 17  1  0
 26 21  1  0
  1 31  1  0
  1 32  1  0
  1 33  1  0
  3 34  1  0
  4 35  1  0
  7 36  1  0
  8 37  1  0
  8 38  1  0
 11 39  1  0
 12 40  1  0
 13 41  1  0
 18 42  1  0
 18 43  1  0
 19 44  1  0
 19 45  1  0
 22 46  1  0
 23 47  1  0
 24 48  1  0
 25 49  1  0
 26 50  1  0
 27 51  1  0
 27 52  1  0
 28 53  1  0
 28 54  1  0
 29 55  1  0
M  END
>  <smiles>  (13) 
Cc1ccc2c(c1)CC(c1cccc(C(=O)N3CCN(c4ccccc4)CC3)c1)=N2

>  <score_type>  (13) 
oracle

>  <origin>  (13) 
autodockgpu

>  <m_score__min__energy>  (13) 
-8.7599999999999998

>  <m_primary>  (13) 
energy

>  <rmsd>  (13) 
4.491230702194281

>  <m_score__min__rmsd>  (13) 
4.491230702194281

>  <meeko>  (13) 
{"free_energy": -8.71, "intermolecular_energy": -9.6, "internal_energy": -0.94, "cluster_size": 49, "cluster_id": 1, "rank_in_cluster": 22}

>  <energy>  (13) 
-8.73

>  <cluster_rmsd>  (13) 
0.06

>  <cluster>  (13) 
1

$$$$

     RDKit          3D

 55 59  0  0  0  0  0  0  0  0999 V2000
  141.0430   68.2300  228.8880 C   0  0  0  0  0  0  0  0  0  0  0  0
  140.6330   68.6300  227.5130 C   0  0  0  0  0  0  0  0  0  0  0  0
  139.8980   67.6820  226.8030 C   0  0  0  0  0  0  0  0  0  0  0  0
  139.5090   68.0290  225.5270 C   0  0  0  0  0  0  0  0  0  0  0  0
  139.8370   69.2610  224.9910 C   0  0  0  0  0  0  0  0  0  0  0  0
  140.5670   70.2030  225.6930 C   0  0  0  0  0  0  0  0  0  0  0  0
  140.9570   69.8550  226.9700 C   0  0  0  0  0  0  0  0  0  0  0  0
  140.7160   71.3740  224.8020 C   0  0  0  0  0  0  0  0  0  0  0  0
  140.0010   70.9710  223.5620 C   0  0  0  0  0  0  0  0  0  0  0  0
  139.8490   71.7790  222.3570 C   0  0  0  0  0  0  0  0  0  0  0  0
  140.2760   71.3380  221.1100 C   0  0  0  0  0  0  0  0  0  0  0  0
  140.1110   72.1420  219.9880 C   0  0  0  0  0  0  0  0  0  0  0  0
  139.5260   73.3920  220.0550 C   0  0  0  0  0  0  0  0  0  0  0  0
  139.1040   73.8270  221.2910 C   0  0  0  0  0  0  0  0  0  0  0  0
  138.4680   75.1200  221.5170 C   0  0  0  0  0  0  0  0  0  0  0  0
  137.3460   75.1600  222.0770 O   0  0  0  0  0  0  0  0  0  0  0  0
  139.1500   76.2920  221.0850 N   0  0  0  0  0  0  0  0  0  0  0  0
  140.4640   76.2150  220.4280 C   0  0  0  0  0  0  0  0  0  0  0  0
  141.3790   77.1450  221.1800 C   0  0  0  0  0  0  0  0  0  0  0  0
  140.7350   78.4400  221.4440 N   0  0  0  0  0  0  0  0  0  0  0  0
  141.3580   79.3620  222.3240 C   0  0  0  0  0  0  0  0  0  0  0  0
  142.7170   79.3900  222.5640 C   0  0  0  0  0  0  0  0  0  0  0  0
  143.2810   80.3080  223.4300 C   0  0  0  0  0  0  0  0  0  0  0  0
  142.4700   81.2230  224.0730 C   0  0  0  0  0  0  0  0  0  0  0  0
  141.0870   81.2280  223.8570 C   0  0  0  0  0  0  0  0  0  0  0  0
  140.5810   80.2900  222.9830 C   0  0  0  0  0  0  0  0  0  0  0  0
  139.4840   78.6760  220.7650 C   0  0  0  0  0  0  0  0  0  0  0  0
  138.5400   77.5870  221.2920 C   0  0  0  0  0  0  0  0  0  0  0  0
  139.2680   73.0260  222.4190 C   0  0  0  0  0  0  0  0  0  0  0  0
  139.5350   69.7920  223.7240 N   0  0  0  0  0  0  0  0  0  0  0  0
  140.4587   68.8001  229.6253 H   0  0  0  0  0  0  0  0  0  0  0  0
  140.8594   67.1544  229.0271 H   0  0  0  0  0  0  0  0  0  0  0  0
  142.1137   68.4402  229.0271 H   0  0  0  0  0  0  0  0  0  0  0  0
  139.6412   66.7055  227.2393 H   0  0  0  0  0  0  0  0  0  0  0  0
  138.9283   67.3144  224.9252 H   0  0  0  0  0  0  0  0  0  0  0  0
  141.5395   70.5711  227.5682 H   0  0  0  0  0  0  0  0  0  0  0  0
  140.2537   72.2669  225.2481 H   0  0  0  0  0  0  0  0  0  0  0  0
  141.7682   71.6377  224.6192 H   0  0  0  0  0  0  0  0  0  0  0  0
  140.7465   70.3487  221.0105 H   0  0  0  0  0  0  0  0  0  0  0  0
  140.4583   71.7701  219.0128 H   0  0  0  0  0  0  0  0  0  0  0  0
  139.4024   74.0146  219.1566 H   0  0  0  0  0  0  0  0  0  0  0  0
  140.8500   75.1859  220.4718 H   0  0  0  0  0  0  0  0  0  0  0  0
  140.3937   76.5006  219.3680 H   0  0  0  0  0  0  0  0  0  0  0  0
  141.6517   76.6797  222.1387 H   0  0  0  0  0  0  0  0  0  0  0  0
  142.2717   77.3237  220.5626 H   0  0  0  0  0  0  0  0  0  0  0  0
  143.3671   78.6641  222.0537 H   0  0  0  0  0  0  0  0  0  0  0  0
  144.3669   80.3099  223.6057 H   0  0  0  0  0  0  0  0  0  0  0  0
  142.9158   81.9554  224.7621 H   0  0  0  0  0  0  0  0  0  0  0  0
  140.4309   81.9509  224.3640 H   0  0  0  0  0  0  0  0  0  0  0  0
  139.4961   80.2817  222.8013 H   0  0  0  0  0  0  0  0  0  0  0  0
  139.0948   79.6761  221.0064 H   0  0  0  0  0  0  0  0  0  0  0  0
  139.5919   78.6379  219.6710 H   0  0  0  0  0  0  0  0  0  0  0  0
  138.3612   77.7426  222.3662 H   0  0  0  0  0  0  0  0  0  0  0  0
  137.5813   77.6355  220.7548 H   0  0  0  0  0  0  0  0  0  0  0  0
  138.9215   73.4026  223.3927 H   0  0  0  0  0  0  0  0  0  0  0  0
  1  2  1  0
  2  3  2  0
  3  4  1  0
  4  5  2  0
  5  6  1  0
  6  7  2  0
  6  8  1  0
  8  9  1  0
  9 10  1  0
 10 11  2  0
 11 12  1  0
 12 13  2  0
 13 14  1  0
 14 15  1  0
 15 16  2  0
 15 17  1  0
 17 18  1  0
 18 19  1  0
 19 20  1  0
 20 21  1  0
 21 22  2  0
 22 23  1  0
 23 24  2  0
 24 25  1  0
 25 26  2  0
 20 27  1  0
 27 28  1  0
 14 29  2  0
  9 30  2  0
  7  2  1  0
 29 10  1  0
 30  5  1  0
 28 17  1  0
 26 21  1  0
  1 31  1  0
  1 32  1  0
  1 33  1  0
  3 34  1  0
  4 35  1  0
  7 36  1  0
  8 37  1  0
  8 38  1  0
 11 39  1  0
 12 40  1  0
 13 41  1  0
 18 42  1  0
 18 43  1  0
 19 44  1  0
 19 45  1  0
 22 46  1  0
 23 47  1  0
 24 48  1  0
 25 49  1  0
 26 50  1  0
 27 51  1  0
 27 52  1  0
 28 53  1  0
 28 54  1  0
 29 55  1  0
M  END
>  <smiles>  (14) 
Cc1ccc2c(c1)CC(c1cccc(C(=O)N3CCN(c4ccccc4)CC3)c1)=N2

>  <score_type>  (14) 
oracle

>  <origin>  (14) 
autodockgpu

>  <m_score__min__energy>  (14) 
-8.7599999999999998

>  <m_primary>  (14) 
energy

>  <rmsd>  (14) 
4.528507051798061

>  <m_score__min__rmsd>  (14) 
4.528507051798061

>  <meeko>  (14) 
{"free_energy": -8.64, "intermolecular_energy": -9.54, "internal_energy": -0.82, "cluster_size": 49, "cluster_id": 1, "rank_in_cluster": 46}

>  <energy>  (14) 
-8.73

>  <cluster_rmsd>  (14) 
0.05

>  <cluster>  (14) 
1

$$$$

     RDKit          3D

 55 59  0  0  0  0  0  0  0  0999 V2000
  140.6720   68.1370  228.9880 C   0  0  0  0  0  0  0  0  0  0  0  0
  140.6640   69.1520  227.8970 C   0  0  0  0  0  0  0  0  0  0  0  0
  141.0850   70.4300  228.2600 C   0  0  0  0  0  0  0  0  0  0  0  0
  141.0850   71.3870  227.2680 C   0  0  0  0  0  0  0  0  0  0  0  0
  140.6840   71.0790  225.9800 C   0  0  0  0  0  0  0  0  0  0  0  0
  140.2650   69.8120  225.6180 C   0  0  0  0  0  0  0  0  0  0  0  0
  140.2650   68.8540  226.6130 C   0  0  0  0  0  0  0  0  0  0  0  0
  139.9220   69.8720  224.1810 C   0  0  0  0  0  0  0  0  0  0  0  0
  140.1960   71.2860  223.8100 C   0  0  0  0  0  0  0  0  0  0  0  0
  140.0190   71.8760  222.4880 C   0  0  0  0  0  0  0  0  0  0  0  0
  140.4540   71.2450  221.3280 C   0  0  0  0  0  0  0  0  0  0  0  0
  140.2630   71.8450  220.0890 C   0  0  0  0  0  0  0  0  0  0  0  0
  139.6450   73.0730  219.9510 C   0  0  0  0  0  0  0  0  0  0  0  0
  139.2150   73.6980  221.1000 C   0  0  0  0  0  0  0  0  0  0  0  0
  138.5450   74.9930  221.1120 C   0  0  0  0  0  0  0  0  0  0  0  0
  137.3490   75.0600  221.4870 O   0  0  0  0  0  0  0  0  0  0  0  0
  139.2800   76.1360  220.6900 N   0  0  0  0  0  0  0  0  0  0  0  0
  140.6810   76.0290  220.2530 C   0  0  0  0  0  0  0  0  0  0  0  0
  141.4620   77.0360  221.0540 C   0  0  0  0  0  0  0  0  0  0  0  0
  140.7790   78.3360  221.1010 N   0  0  0  0  0  0  0  0  0  0  0  0
  141.2530   79.3410  221.9830 C   0  0  0  0  0  0  0  0  0  0  0  0
  141.0090   80.6890  221.8070 C   0  0  0  0  0  0  0  0  0  0  0  0
  141.4900   81.6340  222.6930 C   0  0  0  0  0  0  0  0  0  0  0  0
  142.2330   81.2270  223.7840 C   0  0  0  0  0  0  0  0  0  0  0  0
  142.5020   79.8710  223.9990 C   0  0  0  0  0  0  0  0  0  0  0  0
  141.9980   78.9730  223.0830 C   0  0  0  0  0  0  0  0  0  0  0  0
  139.6470   78.4910  220.2200 C   0  0  0  0  0  0  0  0  0  0  0  0
  138.6390   77.4330  220.6870 C   0  0  0  0  0  0  0  0  0  0  0  0
  139.4040   73.1010  222.3440 C   0  0  0  0  0  0  0  0  0  0  0  0
  140.6140   71.9060  224.8450 N   0  0  0  0  0  0  0  0  0  0  0  0
  140.6680   68.6465  229.9629 H   0  0  0  0  0  0  0  0  0  0  0  0
  139.7788   67.5005  228.9032 H   0  0  0  0  0  0  0  0  0  0  0  0
  141.5751   67.5147  228.9032 H   0  0  0  0  0  0  0  0  0  0  0  0
  141.4016   70.6634  229.2873 H   0  0  0  0  0  0  0  0  0  0  0  0
  141.4088   72.4114  227.5039 H   0  0  0  0  0  0  0  0  0  0  0  0
  139.9392   67.8307  226.3747 H   0  0  0  0  0  0  0  0  0  0  0  0
  140.5529   69.1846  223.5984 H   0  0  0  0  0  0  0  0  0  0  0  0
  138.8831   69.5726  223.9786 H   0  0  0  0  0  0  0  0  0  0  0  0
  140.9518   70.2661  221.3912 H   0  0  0  0  0  0  0  0  0  0  0  0
  140.6161   71.3241  219.1868 H   0  0  0  0  0  0  0  0  0  0  0  0
  139.5022   73.5332  218.9622 H   0  0  0  0  0  0  0  0  0  0  0  0
  141.0615   75.0148  220.4446 H   0  0  0  0  0  0  0  0  0  0  0  0
  140.7749   76.2228  219.1743 H   0  0  0  0  0  0  0  0  0  0  0  0
  141.5835   76.6592  222.0803 H   0  0  0  0  0  0  0  0  0  0  0  0
  142.4394   77.1779  220.5696 H   0  0  0  0  0  0  0  0  0  0  0  0
  140.4172   81.0184  220.9402 H   0  0  0  0  0  0  0  0  0  0  0  0
  141.2828   82.7021  222.5307 H   0  0  0  0  0  0  0  0  0  0  0  0
  142.6172   81.9769  224.4912 H   0  0  0  0  0  0  0  0  0  0  0  0
  143.0921   79.5350  224.8644 H   0  0  0  0  0  0  0  0  0  0  0  0
  142.2015   77.9032  223.2382 H   0  0  0  0  0  0  0  0  0  0  0  0
  139.2198   79.5005  220.3120 H   0  0  0  0  0  0  0  0  0  0  0  0
  139.9231   78.3633  219.1629 H   0  0  0  0  0  0  0  0  0  0  0  0
  138.2945   77.6758  221.7031 H   0  0  0  0  0  0  0  0  0  0  0  0
  137.7758   77.4178  220.0054 H   0  0  0  0  0  0  0  0  0  0  0  0
  139.0499   73.6258  223.2435 H   0  0  0  0  0  0  0  0  0  0  0  0
  1  2  1  0
  2  3  2  0
  3  4  1  0
  4  5  2  0
  5  6  1  0
  6  7  2  0
  6  8  1  0
  8  9  1  0
  9 10  1  0
 10 11  2  0
 11 12  1  0
 12 13  2  0
 13 14  1  0
 14 15  1  0
 15 16  2  0
 15 17  1  0
 17 18  1  0
 18 19  1  0
 19 20  1  0
 20 21  1  0
 21 22  2  0
 22 23  1  0
 23 24  2  0
 24 25  1  0
 25 26  2  0
 20 27  1  0
 27 28  1  0
 14 29  2  0
  9 30  2  0
  7  2  1  0
 29 10  1  0
 30  5  1  0
 28 17  1  0
 26 21  1  0
  1 31  1  0
  1 32  1  0
  1 33  1  0
  3 34  1  0
  4 35  1  0
  7 36  1  0
  8 37  1  0
  8 38  1  0
 11 39  1  0
 12 40  1  0
 13 41  1  0
 18 42  1  0
 18 43  1  0
 19 44  1  0
 19 45  1  0
 22 46  1  0
 23 47  1  0
 24 48  1  0
 25 49  1  0
 26 50  1  0
 27 51  1  0
 27 52  1  0
 28 53  1  0
 28 54  1  0
 29 55  1  0
M  END
>  <smiles>  (15) 
Cc1ccc2c(c1)CC(c1cccc(C(=O)N3CCN(c4ccccc4)CC3)c1)=N2

>  <score_type>  (15) 
oracle

>  <origin>  (15) 
autodockgpu

>  <m_score__min__energy>  (15) 
-8.7599999999999998

>  <m_primary>  (15) 
energy

>  <rmsd>  (15) 
4.509166470061537

>  <m_score__min__rmsd>  (15) 
4.509166470061537

>  <meeko>  (15) 
{"free_energy": -8.69, "intermolecular_energy": -9.59, "internal_energy": -0.92, "cluster_size": 49, "cluster_id": 1, "rank_in_cluster": 31}

>  <energy>  (15) 
-8.72

>  <cluster_rmsd>  (15) 
0.11

>  <cluster>  (15) 
1

$$$$

     RDKit          3D

 55 59  0  0  0  0  0  0  0  0999 V2000
  140.7180   68.1400  228.9810 C   0  0  0  0  0  0  0  0  0  0  0  0
  140.6890   69.1520  227.8860 C   0  0  0  0  0  0  0  0  0  0  0  0
  141.0970   70.4370  228.2420 C   0  0  0  0  0  0  0  0  0  0  0  0
  141.0780   71.3900  227.2470 C   0  0  0  0  0  0  0  0  0  0  0  0
  140.6730   71.0730  225.9630 C   0  0  0  0  0  0  0  0  0  0  0  0
  140.2680   69.7990  225.6080 C   0  0  0  0  0  0  0  0  0  0  0  0
  140.2870   68.8450  226.6050 C   0  0  0  0  0  0  0  0  0  0  0  0
  139.9150   69.8510  224.1720 C   0  0  0  0  0  0  0  0  0  0  0  0
  140.1680   71.2660  223.7950 C   0  0  0  0  0  0  0  0  0  0  0  0
  139.9750   71.8500  222.4720 C   0  0  0  0  0  0  0  0  0  0  0  0
  140.3860   71.2080  221.3100 C   0  0  0  0  0  0  0  0  0  0  0  0
  140.1810   71.8030  220.0710 C   0  0  0  0  0  0  0  0  0  0  0  0
  139.5710   73.0350  219.9340 C   0  0  0  0  0  0  0  0  0  0  0  0
  139.1650   73.6700  221.0860 C   0  0  0  0  0  0  0  0  0  0  0  0
  138.5060   74.9710  221.1010 C   0  0  0  0  0  0  0  0  0  0  0  0
  137.2990   75.0420  221.4360 O   0  0  0  0  0  0  0  0  0  0  0  0
  139.2650   76.1150  220.7260 N   0  0  0  0  0  0  0  0  0  0  0  0
  140.6780   76.0030  220.3350 C   0  0  0  0  0  0  0  0  0  0  0  0
  141.4410   76.9870  221.1800 C   0  0  0  0  0  0  0  0  0  0  0  0
  140.7680   78.2920  221.2300 N   0  0  0  0  0  0  0  0  0  0  0  0
  141.2210   79.2760  222.1470 C   0  0  0  0  0  0  0  0  0  0  0  0
  140.3830   80.1730  222.7800 C   0  0  0  0  0  0  0  0  0  0  0  0
  140.8680   81.1150  223.6680 C   0  0  0  0  0  0  0  0  0  0  0  0
  142.2230   81.1660  223.9310 C   0  0  0  0  0  0  0  0  0  0  0  0
  143.1060   80.2750  223.3110 C   0  0  0  0  0  0  0  0  0  0  0  0
  142.5660   79.3580  222.4350 C   0  0  0  0  0  0  0  0  0  0  0  0
  139.6680   78.4750  220.3140 C   0  0  0  0  0  0  0  0  0  0  0  0
  138.6350   77.4180  220.7270 C   0  0  0  0  0  0  0  0  0  0  0  0
  139.3680   73.0790  222.3310 C   0  0  0  0  0  0  0  0  0  0  0  0
  140.5850   71.8960  224.8250 N   0  0  0  0  0  0  0  0  0  0  0  0
  140.7033   68.6524  229.9543 H   0  0  0  0  0  0  0  0  0  0  0  0
  139.8383   67.4849  228.8982 H   0  0  0  0  0  0  0  0  0  0  0  0
  141.6338   67.5363  228.8982 H   0  0  0  0  0  0  0  0  0  0  0  0
  141.4180   70.6779  229.2662 H   0  0  0  0  0  0  0  0  0  0  0  0
  141.3899   72.4194  227.4775 H   0  0  0  0  0  0  0  0  0  0  0  0
  139.9742   67.8166  226.3714 H   0  0  0  0  0  0  0  0  0  0  0  0
  140.5510   69.1701  223.5873 H   0  0  0  0  0  0  0  0  0  0  0  0
  138.8786   69.5380  223.9774 H   0  0  0  0  0  0  0  0  0  0  0  0
  140.8756   70.2249  221.3712 H   0  0  0  0  0  0  0  0  0  0  0  0
  140.5165   71.2740  219.1668 H   0  0  0  0  0  0  0  0  0  0  0  0
  139.4160   73.4901  218.9446 H   0  0  0  0  0  0  0  0  0  0  0  0
  141.0426   74.9818  220.5202 H   0  0  0  0  0  0  0  0  0  0  0  0
  140.8098   76.2162  219.2639 H   0  0  0  0  0  0  0  0  0  0  0  0
  141.5258   76.5896  222.2022 H   0  0  0  0  0  0  0  0  0  0  0  0
  142.4348   77.1291  220.7304 H   0  0  0  0  0  0  0  0  0  0  0  0
  139.3033   80.1370  222.5725 H   0  0  0  0  0  0  0  0  0  0  0  0
  140.1805   81.8181  224.1610 H   0  0  0  0  0  0  0  0  0  0  0  0
  142.6124   81.9155  224.6358 H   0  0  0  0  0  0  0  0  0  0  0  0
  144.1866   80.3051  223.5143 H   0  0  0  0  0  0  0  0  0  0  0  0
  143.2472   78.6518  221.9377 H   0  0  0  0  0  0  0  0  0  0  0  0
  139.2473   79.4867  220.4107 H   0  0  0  0  0  0  0  0  0  0  0  0
  139.9785   78.3648  219.2645 H   0  0  0  0  0  0  0  0  0  0  0  0
  138.2590   77.6447  221.7356 H   0  0  0  0  0  0  0  0  0  0  0  0
  137.7944   77.4240  220.0175 H   0  0  0  0  0  0  0  0  0  0  0  0
  139.0321   73.6119  223.2328 H   0  0  0  0  0  0  0  0  0  0  0  0
  1  2  1  0
  2  3  2  0
  3  4  1  0
  4  5  2  0
  5  6  1  0
  6  7  2  0
  6  8  1  0
  8  9  1  0
  9 10  1  0
 10 11  2  0
 11 12  1  0
 12 13  2  0
 13 14  1  0
 14 15  1  0
 15 16  2  0
 15 17  1  0
 17 18  1  0
 18 19  1  0
 19 20  1  0
 20 21  1  0
 21 22  2  0
 22 23  1  0
 23 24  2  0
 24 25  1  0
 25 26  2  0
 20 27  1  0
 27 28  1  0
 14 29  2  0
  9 30  2  0
  7  2  1  0
 29 10  1  0
 30  5  1  0
 28 17  1  0
 26 21  1  0
  1 31  1  0
  1 32  1  0
  1 33  1  0
  3 34  1  0
  4 35  1  0
  7 36  1  0
  8 37  1  0
  8 38  1  0
 11 39  1  0
 12 40  1  0
 13 41  1  0
 18 42  1  0
 18 43  1  0
 19 44  1  0
 19 45  1  0
 22 46  1  0
 23 47  1  0
 24 48  1  0
 25 49  1  0
 26 50  1  0
 27 51  1  0
 27 52  1  0
 28 53  1  0
 28 54  1  0
 29 55  1  0
M  END
>  <smiles>  (16) 
Cc1ccc2c(c1)CC(c1cccc(C(=O)N3CCN(c4ccccc4)CC3)c1)=N2

>  <score_type>  (16) 
oracle

>  <origin>  (16) 
autodockgpu

>  <m_score__min__energy>  (16) 
-8.7599999999999998

>  <m_primary>  (16) 
energy

>  <rmsd>  (16) 
4.456004898843337

>  <m_score__min__rmsd>  (16) 
4.456004898843337

>  <meeko>  (16) 
{"free_energy": -8.74, "intermolecular_energy": -9.63, "internal_energy": -0.92, "cluster_size": 49, "cluster_id": 1, "rank_in_cluster": 10}

>  <energy>  (16) 
-8.72

>  <cluster_rmsd>  (16) 
0.1

>  <cluster>  (16) 
1

$$$$

     RDKit          3D

 55 59  0  0  0  0  0  0  0  0999 V2000
  140.6970   68.1520  229.0080 C   0  0  0  0  0  0  0  0  0  0  0  0
  140.6680   69.1600  227.9110 C   0  0  0  0  0  0  0  0  0  0  0  0
  141.0800   70.4450  228.2620 C   0  0  0  0  0  0  0  0  0  0  0  0
  141.0610   71.3960  227.2640 C   0  0  0  0  0  0  0  0  0  0  0  0
  140.6510   71.0760  225.9820 C   0  0  0  0  0  0  0  0  0  0  0  0
  140.2410   69.8030  225.6320 C   0  0  0  0  0  0  0  0  0  0  0  0
  140.2600   68.8510  226.6320 C   0  0  0  0  0  0  0  0  0  0  0  0
  139.8830   69.8510  224.1980 C   0  0  0  0  0  0  0  0  0  0  0  0
  140.1390   71.2650  223.8150 C   0  0  0  0  0  0  0  0  0  0  0  0
  139.9440   71.8460  222.4920 C   0  0  0  0  0  0  0  0  0  0  0  0
  140.3450   71.1970  221.3300 C   0  0  0  0  0  0  0  0  0  0  0  0
  140.1370   71.7890  220.0890 C   0  0  0  0  0  0  0  0  0  0  0  0
  139.5350   73.0250  219.9520 C   0  0  0  0  0  0  0  0  0  0  0  0
  139.1390   73.6670  221.1030 C   0  0  0  0  0  0  0  0  0  0  0  0
  138.4890   74.9720  221.1170 C   0  0  0  0  0  0  0  0  0  0  0  0
  137.2830   75.0520  221.4570 O   0  0  0  0  0  0  0  0  0  0  0  0
  139.2540   76.1100  220.7360 N   0  0  0  0  0  0  0  0  0  0  0  0
  140.6650   75.9870  220.3390 C   0  0  0  0  0  0  0  0  0  0  0  0
  141.4380   76.9690  221.1790 C   0  0  0  0  0  0  0  0  0  0  0  0
  140.7740   78.2790  221.2280 N   0  0  0  0  0  0  0  0  0  0  0  0
  141.2360   79.2620  222.1400 C   0  0  0  0  0  0  0  0  0  0  0  0
  142.5540   79.3770  222.5350 C   0  0  0  0  0  0  0  0  0  0  0  0
  142.9600   80.3530  223.4260 C   0  0  0  0  0  0  0  0  0  0  0  0
  142.0300   81.2360  223.9370 C   0  0  0  0  0  0  0  0  0  0  0  0
  140.6840   81.1540  223.5620 C   0  0  0  0  0  0  0  0  0  0  0  0
  140.3370   80.1610  222.6700 C   0  0  0  0  0  0  0  0  0  0  0  0
  139.6710   78.4660  220.3160 C   0  0  0  0  0  0  0  0  0  0  0  0
  138.6330   77.4170  220.7360 C   0  0  0  0  0  0  0  0  0  0  0  0
  139.3450   73.0780  222.3500 C   0  0  0  0  0  0  0  0  0  0  0  0
  140.5620   71.8960  224.8420 N   0  0  0  0  0  0  0  0  0  0  0  0
  140.6822   68.6672  229.9798 H   0  0  0  0  0  0  0  0  0  0  0  0
  139.8174   67.4965  228.9270 H   0  0  0  0  0  0  0  0  0  0  0  0
  141.6129   67.5482  228.9270 H   0  0  0  0  0  0  0  0  0  0  0  0
  141.4042   70.6880  229.2847 H   0  0  0  0  0  0  0  0  0  0  0  0
  141.3767   72.4251  227.4906 H   0  0  0  0  0  0  0  0  0  0  0  0
  139.9423   67.8232  226.4023 H   0  0  0  0  0  0  0  0  0  0  0  0
  140.5148   69.1662  223.6133 H   0  0  0  0  0  0  0  0  0  0  0  0
  138.8449   69.5404  224.0083 H   0  0  0  0  0  0  0  0  0  0  0  0
  140.8288   70.2111  221.3924 H   0  0  0  0  0  0  0  0  0  0  0  0
  140.4632   71.2544  219.1847 H   0  0  0  0  0  0  0  0  0  0  0  0
  139.3784   73.4780  218.9619 H   0  0  0  0  0  0  0  0  0  0  0  0
  141.0235   74.9639  220.5255 H   0  0  0  0  0  0  0  0  0  0  0  0
  140.7940   76.1959  219.2668 H   0  0  0  0  0  0  0  0  0  0  0  0
  141.5239   76.5738  222.2020 H   0  0  0  0  0  0  0  0  0  0  0  0
  142.4310   77.1033  220.7252 H   0  0  0  0  0  0  0  0  0  0  0  0
  143.2987   78.6754  222.1312 H   0  0  0  0  0  0  0  0  0  0  0  0
  144.0160   80.4254  223.7254 H   0  0  0  0  0  0  0  0  0  0  0  0
  142.3504   82.0128  224.6469 H   0  0  0  0  0  0  0  0  0  0  0  0
  139.9342   81.8524  223.9620 H   0  0  0  0  0  0  0  0  0  0  0  0
  139.2831   80.0825  222.3647 H   0  0  0  0  0  0  0  0  0  0  0  0
  139.2570   79.4807  220.4115 H   0  0  0  0  0  0  0  0  0  0  0  0
  139.9766   78.3504  219.2656 H   0  0  0  0  0  0  0  0  0  0  0  0
  138.2627   77.6489  221.7455 H   0  0  0  0  0  0  0  0  0  0  0  0
  137.7897   77.4266  220.0298 H   0  0  0  0  0  0  0  0  0  0  0  0
  139.0177   73.6162  223.2518 H   0  0  0  0  0  0  0  0  0  0  0  0
  1  2  1  0
  2  3  2  0
  3  4  1  0
  4  5  2  0
  5  6  1  0
  6  7  2  0
  6  8  1  0
  8  9  1  0
  9 10  1  0
 10 11  2  0
 11 12  1  0
 12 13  2  0
 13 14  1  0
 14 15  1  0
 15 16  2  0
 15 17  1  0
 17 18  1  0
 18 19  1  0
 19 20  1  0
 20 21  1  0
 21 22  2  0
 22 23  1  0
 23 24  2  0
 24 25  1  0
 25 26  2  0
 20 27  1  0
 27 28  1  0
 14 29  2  0
  9 30  2  0
  7  2  1  0
 29 10  1  0
 30  5  1  0
 28 17  1  0
 26 21  1  0
  1 31  1  0
  1 32  1  0
  1 33  1  0
  3 34  1  0
  4 35  1  0
  7 36  1  0
  8 37  1  0
  8 38  1  0
 11 39  1  0
 12 40  1  0
 13 41  1  0
 18 42  1  0
 18 43  1  0
 19 44  1  0
 19 45  1  0
 22 46  1  0
 23 47  1  0
 24 48  1  0
 25 49  1  0
 26 50  1  0
 27 51  1  0
 27 52  1  0
 28 53  1  0
 28 54  1  0
 29 55  1  0
M  END
>  <smiles>  (17) 
Cc1ccc2c(c1)CC(c1cccc(C(=O)N3CCN(c4ccccc4)CC3)c1)=N2

>  <score_type>  (17) 
oracle

>  <origin>  (17) 
autodockgpu

>  <m_score__min__energy>  (17) 
-8.7599999999999998

>  <m_primary>  (17) 
energy

>  <rmsd>  (17) 
4.477112451965679

>  <m_score__min__rmsd>  (17) 
4.477112451965679

>  <meeko>  (17) 
{"free_energy": -8.72, "intermolecular_energy": -9.62, "internal_energy": -0.92, "cluster_size": 49, "cluster_id": 1, "rank_in_cluster": 15}

>  <energy>  (17) 
-8.72

>  <cluster_rmsd>  (17) 
0.06

>  <cluster>  (17) 
1

$$$$

     RDKit          3D

 55 59  0  0  0  0  0  0  0  0999 V2000
  140.9480   68.1420  229.0880 C   0  0  0  0  0  0  0  0  0  0  0  0
  140.8080   69.1240  227.9750 C   0  0  0  0  0  0  0  0  0  0  0  0
  141.1100   70.4470  228.2970 C   0  0  0  0  0  0  0  0  0  0  0  0
  140.9870   71.3740  227.2850 C   0  0  0  0  0  0  0  0  0  0  0  0
  140.5830   70.9970  226.0170 C   0  0  0  0  0  0  0  0  0  0  0  0
  140.2820   69.6860  225.6960 C   0  0  0  0  0  0  0  0  0  0  0  0
  140.4050   68.7570  226.7100 C   0  0  0  0  0  0  0  0  0  0  0  0
  139.8940   69.6770  224.2690 C   0  0  0  0  0  0  0  0  0  0  0  0
  140.0160   71.1010  223.8590 C   0  0  0  0  0  0  0  0  0  0  0  0
  139.7440   71.6380  222.5300 C   0  0  0  0  0  0  0  0  0  0  0  0
  140.0060   70.9180  221.3700 C   0  0  0  0  0  0  0  0  0  0  0  0
  139.7300   71.4710  220.1250 C   0  0  0  0  0  0  0  0  0  0  0  0
  139.1930   72.7360  219.9810 C   0  0  0  0  0  0  0  0  0  0  0  0
  138.9350   73.4480  221.1300 C   0  0  0  0  0  0  0  0  0  0  0  0
  138.3680   74.7910  221.1370 C   0  0  0  0  0  0  0  0  0  0  0  0
  137.1750   74.9510  221.4950 O   0  0  0  0  0  0  0  0  0  0  0  0
  139.1960   75.8750  220.7300 N   0  0  0  0  0  0  0  0  0  0  0  0
  140.5900   75.6600  220.3120 C   0  0  0  0  0  0  0  0  0  0  0  0
  141.4360   76.6010  221.1270 C   0  0  0  0  0  0  0  0  0  0  0  0
  140.8550   77.9500  221.1690 N   0  0  0  0  0  0  0  0  0  0  0  0
  141.3930   78.9140  222.0610 C   0  0  0  0  0  0  0  0  0  0  0  0
  141.6760   78.6530  223.3870 C   0  0  0  0  0  0  0  0  0  0  0  0
  142.2010   79.6230  224.2200 C   0  0  0  0  0  0  0  0  0  0  0  0
  142.4500   80.8860  223.7200 C   0  0  0  0  0  0  0  0  0  0  0  0
  142.1770   81.1910  222.3820 C   0  0  0  0  0  0  0  0  0  0  0  0
  141.6540   80.1850  221.5980 C   0  0  0  0  0  0  0  0  0  0  0  0
  139.7510   78.1950  220.2720 C   0  0  0  0  0  0  0  0  0  0  0  0
  138.6570   77.2180  220.7220 C   0  0  0  0  0  0  0  0  0  0  0  0
  139.2100   72.8990  222.3810 C   0  0  0  0  0  0  0  0  0  0  0  0
  140.4000   71.7850  224.8670 N   0  0  0  0  0  0  0  0  0  0  0  0
  140.8732   68.6670  230.0517 H   0  0  0  0  0  0  0  0  0  0  0  0
  140.1479   67.3905  229.0167 H   0  0  0  0  0  0  0  0  0  0  0  0
  141.9262   67.6440  229.0167 H   0  0  0  0  0  0  0  0  0  0  0  0
  141.4305   70.7361  229.3088 H   0  0  0  0  0  0  0  0  0  0  0  0
  141.2138   72.4309  227.4888 H   0  0  0  0  0  0  0  0  0  0  0  0
  140.1762   67.7011  226.5032 H   0  0  0  0  0  0  0  0  0  0  0  0
  140.5730   69.0408  223.6823 H   0  0  0  0  0  0  0  0  0  0  0  0
  138.8843   69.2723  224.1054 H   0  0  0  0  0  0  0  0  0  0  0  0
  140.4334   69.9067  221.4377 H   0  0  0  0  0  0  0  0  0  0  0  0
  139.9467   70.8807  219.2224 H   0  0  0  0  0  0  0  0  0  0  0  0
  138.9802   73.1572  218.9874 H   0  0  0  0  0  0  0  0  0  0  0  0
  140.8874   74.6188  220.5053 H   0  0  0  0  0  0  0  0  0  0  0  0
  140.7137   75.8484  219.2353 H   0  0  0  0  0  0  0  0  0  0  0  0
  141.5138   76.2134  222.1535 H   0  0  0  0  0  0  0  0  0  0  0  0
  142.4282   76.6675  220.6567 H   0  0  0  0  0  0  0  0  0  0  0  0
  141.4788   77.6487  223.7902 H   0  0  0  0  0  0  0  0  0  0  0  0
  142.4188   79.3908  225.2729 H   0  0  0  0  0  0  0  0  0  0  0  0
  142.8673   81.6603  224.3805 H   0  0  0  0  0  0  0  0  0  0  0  0
  142.3719   82.1931  221.9723 H   0  0  0  0  0  0  0  0  0  0  0  0
  141.4328   80.4095  220.5441 H   0  0  0  0  0  0  0  0  0  0  0  0
  139.4027   79.2346  220.3609 H   0  0  0  0  0  0  0  0  0  0  0  0
  140.0313   78.0484  219.2185 H   0  0  0  0  0  0  0  0  0  0  0  0
  138.3181   77.4850  221.7339 H   0  0  0  0  0  0  0  0  0  0  0  0
  137.8045   77.2712  220.0289 H   0  0  0  0  0  0  0  0  0  0  0  0
  138.9931   73.4933  223.2808 H   0  0  0  0  0  0  0  0  0  0  0  0
  1  2  1  0
  2  3  2  0
  3  4  1  0
  4  5  2  0
  5  6  1  0
  6  7  2  0
  6  8  1  0
  8  9  1  0
  9 10  1  0
 10 11  2  0
 11 12  1  0
 12 13  2  0
 13 14  1  0
 14 15  1  0
 15 16  2  0
 15 17  1  0
 17 18  1  0
 18 19  1  0
 19 20  1  0
 20 21  1  0
 21 22  2  0
 22 23  1  0
 23 24  2  0
 24 25  1  0
 25 26  2  0
 20 27  1  0
 27 28  1  0
 14 29  2  0
  9 30  2  0
  7  2  1  0
 29 10  1  0
 30  5  1  0
 28 17  1  0
 26 21  1  0
  1 31  1  0
  1 32  1  0
  1 33  1  0
  3 34  1  0
  4 35  1  0
  7 36  1  0
  8 37  1  0
  8 38  1  0
 11 39  1  0
 12 40  1  0
 13 41  1  0
 18 42  1  0
 18 43  1  0
 19 44  1  0
 19 45  1  0
 22 46  1  0
 23 47  1  0
 24 48  1  0
 25 49  1  0
 26 50  1  0
 27 51  1  0
 27 52  1  0
 28 53  1  0
 28 54  1  0
 29 55  1  0
M  END
>  <smiles>  (18) 
Cc1ccc2c(c1)CC(c1cccc(C(=O)N3CCN(c4ccccc4)CC3)c1)=N2

>  <score_type>  (18) 
oracle

>  <origin>  (18) 
autodockgpu

>  <m_score__min__energy>  (18) 
-8.7599999999999998

>  <m_primary>  (18) 
energy

>  <rmsd>  (18) 
4.204581949704404

>  <m_score__min__rmsd>  (18) 
4.204581949704404

>  <meeko>  (18) 
{"free_energy": -8.67, "intermolecular_energy": -9.57, "internal_energy": -0.96, "cluster_size": 49, "cluster_id": 1, "rank_in_cluster": 43}

>  <energy>  (18) 
-8.71

>  <cluster_rmsd>  (18) 
0.46

>  <cluster>  (18) 
1

$$$$

     RDKit          3D

 55 59  0  0  0  0  0  0  0  0999 V2000
  140.7710   68.1580  229.0210 C   0  0  0  0  0  0  0  0  0  0  0  0
  140.7190   69.1630  227.9220 C   0  0  0  0  0  0  0  0  0  0  0  0
  141.0930   70.4600  228.2720 C   0  0  0  0  0  0  0  0  0  0  0  0
  141.0530   71.4080  227.2720 C   0  0  0  0  0  0  0  0  0  0  0  0
  140.6580   71.0740  225.9890 C   0  0  0  0  0  0  0  0  0  0  0  0
  140.2850   69.7890  225.6390 C   0  0  0  0  0  0  0  0  0  0  0  0
  140.3260   68.8400  226.6410 C   0  0  0  0  0  0  0  0  0  0  0  0
  139.9330   69.8250  224.2030 C   0  0  0  0  0  0  0  0  0  0  0  0
  140.1520   71.2440  223.8190 C   0  0  0  0  0  0  0  0  0  0  0  0
  139.9470   71.8170  222.4930 C   0  0  0  0  0  0  0  0  0  0  0  0
  140.3420   71.1620  221.3330 C   0  0  0  0  0  0  0  0  0  0  0  0
  140.1260   71.7460  220.0900 C   0  0  0  0  0  0  0  0  0  0  0  0
  139.5200   72.9800  219.9490 C   0  0  0  0  0  0  0  0  0  0  0  0
  139.1310   73.6280  221.0990 C   0  0  0  0  0  0  0  0  0  0  0  0
  138.4780   74.9320  221.1090 C   0  0  0  0  0  0  0  0  0  0  0  0
  137.2670   75.0090  221.4320 O   0  0  0  0  0  0  0  0  0  0  0  0
  139.2460   76.0730  220.7450 N   0  0  0  0  0  0  0  0  0  0  0  0
  140.6630   75.9540  220.3690 C   0  0  0  0  0  0  0  0  0  0  0  0
  141.4220   76.9330  221.2240 C   0  0  0  0  0  0  0  0  0  0  0  0
  140.7550   78.2420  221.2690 N   0  0  0  0  0  0  0  0  0  0  0  0
  141.2020   79.2220  222.1930 C   0  0  0  0  0  0  0  0  0  0  0  0
  140.3510   80.0260  222.9250 C   0  0  0  0  0  0  0  0  0  0  0  0
  140.8320   80.9680  223.8150 C   0  0  0  0  0  0  0  0  0  0  0  0
  142.1960   81.1130  223.9800 C   0  0  0  0  0  0  0  0  0  0  0  0
  143.0920   80.3170  223.2580 C   0  0  0  0  0  0  0  0  0  0  0  0
  142.5560   79.3950  222.3840 C   0  0  0  0  0  0  0  0  0  0  0  0
  139.6650   78.4310  220.3420 C   0  0  0  0  0  0  0  0  0  0  0  0
  138.6230   77.3790  220.7410 C   0  0  0  0  0  0  0  0  0  0  0  0
  139.3450   73.0470  222.3480 C   0  0  0  0  0  0  0  0  0  0  0  0
  140.5520   71.8890  224.8470 N   0  0  0  0  0  0  0  0  0  0  0  0
  140.7443   68.6746  229.9918 H   0  0  0  0  0  0  0  0  0  0  0  0
  139.9066   67.4824  228.9412 H   0  0  0  0  0  0  0  0  0  0  0  0
  141.7005   67.5752  228.9412 H   0  0  0  0  0  0  0  0  0  0  0  0
  141.4047   70.7142  229.2958 H   0  0  0  0  0  0  0  0  0  0  0  0
  141.3395   72.4458  227.4977 H   0  0  0  0  0  0  0  0  0  0  0  0
  140.0387   67.8032  226.4119 H   0  0  0  0  0  0  0  0  0  0  0  0
  140.5863   69.1568  223.6227 H   0  0  0  0  0  0  0  0  0  0  0  0
  138.9048   69.4859  224.0087 H   0  0  0  0  0  0  0  0  0  0  0  0
  140.8277   70.1772  221.3984 H   0  0  0  0  0  0  0  0  0  0  0  0
  140.4488   71.2070  219.1871 H   0  0  0  0  0  0  0  0  0  0  0  0
  139.3552   73.4264  218.9572 H   0  0  0  0  0  0  0  0  0  0  0  0
  141.0202   74.9307  220.5566 H   0  0  0  0  0  0  0  0  0  0  0  0
  140.8076   76.1680  219.2998 H   0  0  0  0  0  0  0  0  0  0  0  0
  141.4937   76.5335  222.2464 H   0  0  0  0  0  0  0  0  0  0  0  0
  142.4213   77.0707  220.7853 H   0  0  0  0  0  0  0  0  0  0  0  0
  139.2642   79.9142  222.7969 H   0  0  0  0  0  0  0  0  0  0  0  0
  140.1343   81.5971  224.3873 H   0  0  0  0  0  0  0  0  0  0  0  0
  142.5818   81.8624  224.6867 H   0  0  0  0  0  0  0  0  0  0  0  0
  144.1798   80.4225  223.3826 H   0  0  0  0  0  0  0  0  0  0  0  0
  143.2471   78.7626  221.8074 H   0  0  0  0  0  0  0  0  0  0  0  0
  139.2478   79.4445  220.4361 H   0  0  0  0  0  0  0  0  0  0  0  0
  139.9864   78.3205  219.2958 H   0  0  0  0  0  0  0  0  0  0  0  0
  138.2366   77.6058  221.7456 H   0  0  0  0  0  0  0  0  0  0  0  0
  137.7908   77.3903  220.0217 H   0  0  0  0  0  0  0  0  0  0  0  0
  139.0219   73.5897  223.2486 H   0  0  0  0  0  0  0  0  0  0  0  0
  1  2  1  0
  2  3  2  0
  3  4  1  0
  4  5  2  0
  5  6  1  0
  6  7  2  0
  6  8  1  0
  8  9  1  0
  9 10  1  0
 10 11  2  0
 11 12  1  0
 12 13  2  0
 13 14  1  0
 14 15  1  0
 15 16  2  0
 15 17  1  0
 17 18  1  0
 18 19  1  0
 19 20  1  0
 20 21  1  0
 21 22  2  0
 22 23  1  0
 23 24  2  0
 24 25  1  0
 25 26  2  0
 20 27  1  0
 27 28  1  0
 14 29  2  0
  9 30  2  0
  7  2  1  0
 29 10  1  0
 30  5  1  0
 28 17  1  0
 26 21  1  0
  1 31  1  0
  1 32  1  0
  1 33  1  0
  3 34  1  0
  4 35  1  0
  7 36  1  0
  8 37  1  0
  8 38  1  0
 11 39  1  0
 12 40  1  0
 13 41  1  0
 18 42  1  0
 18 43  1  0
 19 44  1  0
 19 45  1  0
 22 46  1  0
 23 47  1  0
 24 48  1  0
 25 49  1  0
 26 50  1  0
 27 51  1  0
 27 52  1  0
 28 53  1  0
 28 54  1  0
 29 55  1  0
M  END
>  <smiles>  (19) 
Cc1ccc2c(c1)CC(c1cccc(C(=O)N3CCN(c4ccccc4)CC3)c1)=N2

>  <score_type>  (19) 
oracle

>  <origin>  (19) 
autodockgpu

>  <m_score__min__energy>  (19) 
-8.7599999999999998

>  <m_primary>  (19) 
energy

>  <rmsd>  (19) 
4.431445007864798

>  <m_score__min__rmsd>  (19) 
4.431445007864798

>  <meeko>  (19) 
{"free_energy": -8.75, "intermolecular_energy": -9.64, "internal_energy": -0.93, "cluster_size": 49, "cluster_id": 1, "rank_in_cluster": 7}

>  <energy>  (19) 
-8.71

>  <cluster_rmsd>  (19) 
0.06

>  <cluster>  (19) 
1

$$$$

     RDKit          3D

 55 59  0  0  0  0  0  0  0  0999 V2000
  140.7900   68.1490  229.0170 C   0  0  0  0  0  0  0  0  0  0  0  0
  140.7290   69.1560  227.9200 C   0  0  0  0  0  0  0  0  0  0  0  0
  141.1040   70.4530  228.2710 C   0  0  0  0  0  0  0  0  0  0  0  0
  141.0550   71.4030  227.2730 C   0  0  0  0  0  0  0  0  0  0  0  0
  140.6520   71.0720  225.9920 C   0  0  0  0  0  0  0  0  0  0  0  0
  140.2790   69.7860  225.6420 C   0  0  0  0  0  0  0  0  0  0  0  0
  140.3280   68.8360  226.6420 C   0  0  0  0  0  0  0  0  0  0  0  0
  139.9170   69.8250  224.2080 C   0  0  0  0  0  0  0  0  0  0  0  0
  140.1310   71.2460  223.8260 C   0  0  0  0  0  0  0  0  0  0  0  0
  139.9170   71.8210  222.5030 C   0  0  0  0  0  0  0  0  0  0  0  0
  140.2830   71.1590  221.3370 C   0  0  0  0  0  0  0  0  0  0  0  0
  140.0590   71.7460  220.0980 C   0  0  0  0  0  0  0  0  0  0  0  0
  139.4720   72.9890  219.9640 C   0  0  0  0  0  0  0  0  0  0  0  0
  139.1090   73.6440  221.1200 C   0  0  0  0  0  0  0  0  0  0  0  0
  138.4780   74.9590  221.1380 C   0  0  0  0  0  0  0  0  0  0  0  0
  137.2730   75.0550  221.4750 O   0  0  0  0  0  0  0  0  0  0  0  0
  139.2610   76.0870  220.7650 N   0  0  0  0  0  0  0  0  0  0  0  0
  140.6720   75.9450  220.3720 C   0  0  0  0  0  0  0  0  0  0  0  0
  141.4560   76.9110  221.2190 C   0  0  0  0  0  0  0  0  0  0  0  0
  140.8120   78.2300  221.2720 N   0  0  0  0  0  0  0  0  0  0  0  0
  141.2860   79.2020  222.1910 C   0  0  0  0  0  0  0  0  0  0  0  0
  142.6250   79.4160  222.4530 C   0  0  0  0  0  0  0  0  0  0  0  0
  143.0420   80.3760  223.3560 C   0  0  0  0  0  0  0  0  0  0  0  0
  142.1010   81.1430  224.0150 C   0  0  0  0  0  0  0  0  0  0  0  0
  140.7340   80.9580  223.7780 C   0  0  0  0  0  0  0  0  0  0  0  0
  140.3770   79.9860  222.8680 C   0  0  0  0  0  0  0  0  0  0  0  0
  139.7140   78.4380  220.3580 C   0  0  0  0  0  0  0  0  0  0  0  0
  138.6600   77.4030  220.7700 C   0  0  0  0  0  0  0  0  0  0  0  0
  139.3320   73.0610  222.3650 C   0  0  0  0  0  0  0  0  0  0  0  0
  140.5370   71.8890  224.8530 N   0  0  0  0  0  0  0  0  0  0  0  0
  140.7588   68.6632  229.9889 H   0  0  0  0  0  0  0  0  0  0  0  0
  139.9316   67.4660  228.9359 H   0  0  0  0  0  0  0  0  0  0  0  0
  141.7246   67.5746  228.9359 H   0  0  0  0  0  0  0  0  0  0  0  0
  141.4229   70.7052  229.2931 H   0  0  0  0  0  0  0  0  0  0  0  0
  141.3410   72.4408  227.4992 H   0  0  0  0  0  0  0  0  0  0  0  0
  140.0401   67.7994  226.4129 H   0  0  0  0  0  0  0  0  0  0  0  0
  140.5675   69.1595  223.6215 H   0  0  0  0  0  0  0  0  0  0  0  0
  138.8881   69.4845  224.0199 H   0  0  0  0  0  0  0  0  0  0  0  0
  140.7522   70.1658  221.3955 H   0  0  0  0  0  0  0  0  0  0  0  0
  140.3600   71.2012  219.1910 H   0  0  0  0  0  0  0  0  0  0  0  0
  139.3013   73.4376  218.9743 H   0  0  0  0  0  0  0  0  0  0  0  0
  141.0147   74.9159  220.5548 H   0  0  0  0  0  0  0  0  0  0  0  0
  140.8078   76.1571  219.3012 H   0  0  0  0  0  0  0  0  0  0  0  0
  141.5322   76.5097  222.2403 H   0  0  0  0  0  0  0  0  0  0  0  0
  142.4524   77.0326  220.7692 H   0  0  0  0  0  0  0  0  0  0  0  0
  143.3780   78.8077  221.9304 H   0  0  0  0  0  0  0  0  0  0  0  0
  144.1144   80.5279  223.5482 H   0  0  0  0  0  0  0  0  0  0  0  0
  142.4297   81.9078  224.7341 H   0  0  0  0  0  0  0  0  0  0  0  0
  139.9758   81.5633  224.2965 H   0  0  0  0  0  0  0  0  0  0  0  0
  139.3065   79.8272  222.6712 H   0  0  0  0  0  0  0  0  0  0  0  0
  139.3149   79.4582  220.4575 H   0  0  0  0  0  0  0  0  0  0  0  0
  140.0205   78.3232  219.3078 H   0  0  0  0  0  0  0  0  0  0  0  0
  138.2907   77.6354  221.7798 H   0  0  0  0  0  0  0  0  0  0  0  0
  137.8188   77.4288  220.0616 H   0  0  0  0  0  0  0  0  0  0  0  0
  139.0307   73.6095  223.2697 H   0  0  0  0  0  0  0  0  0  0  0  0
  1  2  1  0
  2  3  2  0
  3  4  1  0
  4  5  2  0
  5  6  1  0
  6  7  2  0
  6  8  1  0
  8  9  1  0
  9 10  1  0
 10 11  2  0
 11 12  1  0
 12 13  2  0
 13 14  1  0
 14 15  1  0
 15 16  2  0
 15 17  1  0
 17 18  1  0
 18 19  1  0
 19 20  1  0
 20 21  1  0
 21 22  2  0
 22 23  1  0
 23 24  2  0
 24 25  1  0
 25 26  2  0
 20 27  1  0
 27 28  1  0
 14 29  2  0
  9 30  2  0
  7  2  1  0
 29 10  1  0
 30  5  1  0
 28 17  1  0
 26 21  1  0
  1 31  1  0
  1 32  1  0
  1 33  1  0
  3 34  1  0
  4 35  1  0
  7 36  1  0
  8 37  1  0
  8 38  1  0
 11 39  1  0
 12 40  1  0
 13 41  1  0
 18 42  1  0
 18 43  1  0
 19 44  1  0
 19 45  1  0
 22 46  1  0
 23 47  1  0
 24 48  1  0
 25 49  1  0
 26 50  1  0
 27 51  1  0
 27 52  1  0
 28 53  1  0
 28 54  1  0
 29 55  1  0
M  END
>  <smiles>  (20) 
Cc1ccc2c(c1)CC(c1cccc(C(=O)N3CCN(c4ccccc4)CC3)c1)=N2

>  <score_type>  (20) 
oracle

>  <origin>  (20) 
autodockgpu

>  <m_score__min__energy>  (20) 
-8.7599999999999998

>  <m_primary>  (20) 
energy

>  <rmsd>  (20) 
4.487536983484043

>  <m_score__min__rmsd>  (20) 
4.487536983484043

>  <meeko>  (20) 
{"free_energy": -8.7, "intermolecular_energy": -9.6, "internal_energy": -0.94, "cluster_size": 49, "cluster_id": 1, "rank_in_cluster": 23}

>  <energy>  (20) 
-8.71

>  <cluster_rmsd>  (20) 
0.07

>  <cluster>  (20) 
1

$$$$

     RDKit          3D

 55 59  0  0  0  0  0  0  0  0999 V2000
  140.8300   68.1650  229.0090 C   0  0  0  0  0  0  0  0  0  0  0  0
  140.7460   69.1670  227.9090 C   0  0  0  0  0  0  0  0  0  0  0  0
  141.1050   70.4700  228.2510 C   0  0  0  0  0  0  0  0  0  0  0  0
  141.0340   71.4150  227.2500 C   0  0  0  0  0  0  0  0  0  0  0  0
  140.6270   71.0730  225.9730 C   0  0  0  0  0  0  0  0  0  0  0  0
  140.2690   69.7810  225.6320 C   0  0  0  0  0  0  0  0  0  0  0  0
  140.3400   68.8350  226.6350 C   0  0  0  0  0  0  0  0  0  0  0  0
  139.8960   69.8080  224.2010 C   0  0  0  0  0  0  0  0  0  0  0  0
  140.0870   71.2300  223.8110 C   0  0  0  0  0  0  0  0  0  0  0  0
  139.8530   71.7970  222.4870 C   0  0  0  0  0  0  0  0  0  0  0  0
  140.1850   71.1180  221.3200 C   0  0  0  0  0  0  0  0  0  0  0  0
  139.9440   71.6970  220.0800 C   0  0  0  0  0  0  0  0  0  0  0  0
  139.3740   72.9490  219.9470 C   0  0  0  0  0  0  0  0  0  0  0  0
  139.0460   73.6200  221.1030 C   0  0  0  0  0  0  0  0  0  0  0  0
  138.4360   74.9440  221.1220 C   0  0  0  0  0  0  0  0  0  0  0  0
  137.2380   75.0620  221.4760 O   0  0  0  0  0  0  0  0  0  0  0  0
  139.2320   76.0580  220.7320 N   0  0  0  0  0  0  0  0  0  0  0  0
  140.6340   75.8910  220.3200 C   0  0  0  0  0  0  0  0  0  0  0  0
  141.4460   76.8490  221.1500 C   0  0  0  0  0  0  0  0  0  0  0  0
  140.8230   78.1790  221.2040 N   0  0  0  0  0  0  0  0  0  0  0  0
  141.3250   79.1490  222.1100 C   0  0  0  0  0  0  0  0  0  0  0  0
  141.7960   78.8440  223.3720 C   0  0  0  0  0  0  0  0  0  0  0  0
  142.2780   79.8220  224.2210 C   0  0  0  0  0  0  0  0  0  0  0  0
  142.2920   81.1380  223.8030 C   0  0  0  0  0  0  0  0  0  0  0  0
  141.8240   81.4890  222.5320 C   0  0  0  0  0  0  0  0  0  0  0  0
  141.3550   80.4720  221.7280 C   0  0  0  0  0  0  0  0  0  0  0  0
  139.7160   78.3990  220.3040 C   0  0  0  0  0  0  0  0  0  0  0  0
  138.6510   77.3830  220.7370 C   0  0  0  0  0  0  0  0  0  0  0  0
  139.2860   73.0440  222.3500 C   0  0  0  0  0  0  0  0  0  0  0  0
  140.4910   71.8830  224.8320 N   0  0  0  0  0  0  0  0  0  0  0  0
  140.7867   68.6813  229.9794 H   0  0  0  0  0  0  0  0  0  0  0  0
  139.9876   67.4620  228.9298 H   0  0  0  0  0  0  0  0  0  0  0  0
  141.7776   67.6121  228.9298 H   0  0  0  0  0  0  0  0  0  0  0  0
  141.4289   70.7311  229.2693 H   0  0  0  0  0  0  0  0  0  0  0  0
  141.3054   72.4580  227.4703 H   0  0  0  0  0  0  0  0  0  0  0  0
  140.0664   67.7932  226.4121 H   0  0  0  0  0  0  0  0  0  0  0  0
  140.5515   69.1490  223.6128 H   0  0  0  0  0  0  0  0  0  0  0  0
  138.8707   69.4520  224.0221 H   0  0  0  0  0  0  0  0  0  0  0  0
  140.6403   70.1184  221.3786 H   0  0  0  0  0  0  0  0  0  0  0  0
  140.2166   71.1391  219.1720 H   0  0  0  0  0  0  0  0  0  0  0  0
  139.1898   73.3914  218.9569 H   0  0  0  0  0  0  0  0  0  0  0  0
  140.9626   74.8575  220.5040 H   0  0  0  0  0  0  0  0  0  0  0  0
  140.7577   76.0949  219.2462 H   0  0  0  0  0  0  0  0  0  0  0  0
  141.5307   76.4525  222.1725 H   0  0  0  0  0  0  0  0  0  0  0  0
  142.4379   76.9518  220.6856 H   0  0  0  0  0  0  0  0  0  0  0  0
  141.7873   77.7971  223.7095 H   0  0  0  0  0  0  0  0  0  0  0  0
  142.6476   79.5543  225.2219 H   0  0  0  0  0  0  0  0  0  0  0  0
  142.6752   81.9188  224.4765 H   0  0  0  0  0  0  0  0  0  0  0  0
  141.8300   82.5339  222.1882 H   0  0  0  0  0  0  0  0  0  0  0  0
  140.9840   80.7316  220.7255 H   0  0  0  0  0  0  0  0  0  0  0  0
  139.3346   79.4260  220.4027 H   0  0  0  0  0  0  0  0  0  0  0  0
  140.0061   78.2730  219.2504 H   0  0  0  0  0  0  0  0  0  0  0  0
  138.2991   77.6272  221.7502 H   0  0  0  0  0  0  0  0  0  0  0  0
  137.8004   77.4176  220.0404 H   0  0  0  0  0  0  0  0  0  0  0  0
  139.0128   73.6054  223.2556 H   0  0  0  0  0  0  0  0  0  0  0  0
  1  2  1  0
  2  3  2  0
  3  4  1  0
  4  5  2  0
  5  6  1  0
  6  7  2  0
  6  8  1  0
  8  9  1  0
  9 10  1  0
 10 11  2  0
 11 12  1  0
 12 13  2  0
 13 14  1  0
 14 15  1  0
 15 16  2  0
 15 17  1  0
 17 18  1  0
 18 19  1  0
 19 20  1  0
 20 21  1  0
 21 22  2  0
 22 23  1  0
 23 24  2  0
 24 25  1  0
 25 26  2  0
 20 27  1  0
 27 28  1  0
 14 29  2  0
  9 30  2  0
  7  2  1  0
 29 10  1  0
 30  5  1  0
 28 17  1  0
 26 21  1  0
  1 31  1  0
  1 32  1  0
  1 33  1  0
  3 34  1  0
  4 35  1  0
  7 36  1  0
  8 37  1  0
  8 38  1  0
 11 39  1  0
 12 40  1  0
 13 41  1  0
 18 42  1  0
 18 43  1  0
 19 44  1  0
 19 45  1  0
 22 46  1  0
 23 47  1  0
 24 48  1  0
 25 49  1  0
 26 50  1  0
 27 51  1  0
 27 52  1  0
 28 53  1  0
 28 54  1  0
 29 55  1  0
M  END
>  <smiles>  (21) 
Cc1ccc2c(c1)CC(c1cccc(C(=O)N3CCN(c4ccccc4)CC3)c1)=N2

>  <score_type>  (21) 
oracle

>  <origin>  (21) 
autodockgpu

>  <m_score__min__energy>  (21) 
-8.7599999999999998

>  <m_primary>  (21) 
energy

>  <rmsd>  (21) 
4.33958053662338

>  <m_score__min__rmsd>  (21) 
4.33958053662338

>  <meeko>  (21) 
{"free_energy": -8.69, "intermolecular_energy": -9.59, "internal_energy": -0.95, "cluster_size": 49, "cluster_id": 1, "rank_in_cluster": 33}

>  <energy>  (21) 
-8.71

>  <cluster_rmsd>  (21) 
0.07

>  <cluster>  (21) 
1

$$$$

     RDKit          3D

 55 59  0  0  0  0  0  0  0  0999 V2000
  140.7880   68.1490  229.0000 C   0  0  0  0  0  0  0  0  0  0  0  0
  140.7290   69.1550  227.9020 C   0  0  0  0  0  0  0  0  0  0  0  0
  141.1000   70.4530  228.2530 C   0  0  0  0  0  0  0  0  0  0  0  0
  141.0530   71.4020  227.2540 C   0  0  0  0  0  0  0  0  0  0  0  0
  140.6560   71.0680  225.9720 C   0  0  0  0  0  0  0  0  0  0  0  0
  140.2870   69.7820  225.6220 C   0  0  0  0  0  0  0  0  0  0  0  0
  140.3340   68.8320  226.6230 C   0  0  0  0  0  0  0  0  0  0  0  0
  139.9300   69.8180  224.1870 C   0  0  0  0  0  0  0  0  0  0  0  0
  140.1430   71.2390  223.8040 C   0  0  0  0  0  0  0  0  0  0  0  0
  139.9320   71.8130  222.4800 C   0  0  0  0  0  0  0  0  0  0  0  0
  140.3080   71.1520  221.3160 C   0  0  0  0  0  0  0  0  0  0  0  0
  140.0860   71.7370  220.0750 C   0  0  0  0  0  0  0  0  0  0  0  0
  139.4930   72.9780  219.9380 C   0  0  0  0  0  0  0  0  0  0  0  0
  139.1220   73.6310  221.0910 C   0  0  0  0  0  0  0  0  0  0  0  0
  138.4840   74.9420  221.1060 C   0  0  0  0  0  0  0  0  0  0  0  0
  137.2860   75.0370  221.4700 O   0  0  0  0  0  0  0  0  0  0  0  0
  139.2510   76.0700  220.6990 N   0  0  0  0  0  0  0  0  0  0  0  0
  140.6530   75.9300  220.2750 C   0  0  0  0  0  0  0  0  0  0  0  0
  141.4510   76.9120  221.0900 C   0  0  0  0  0  0  0  0  0  0  0  0
  140.8010   78.2280  221.1400 N   0  0  0  0  0  0  0  0  0  0  0  0
  141.2900   79.2150  222.0340 C   0  0  0  0  0  0  0  0  0  0  0  0
  141.8510   78.9240  223.2610 C   0  0  0  0  0  0  0  0  0  0  0  0
  142.3160   79.9190  224.1000 C   0  0  0  0  0  0  0  0  0  0  0  0
  142.2210   81.2400  223.7060 C   0  0  0  0  0  0  0  0  0  0  0  0
  141.6600   81.5770  222.4690 C   0  0  0  0  0  0  0  0  0  0  0  0
  141.2120   80.5440  221.6750 C   0  0  0  0  0  0  0  0  0  0  0  0
  139.6810   78.4170  220.2490 C   0  0  0  0  0  0  0  0  0  0  0  0
  138.6420   77.3820  220.6990 C   0  0  0  0  0  0  0  0  0  0  0  0
  139.3410   73.0490  222.3380 C   0  0  0  0  0  0  0  0  0  0  0  0
  140.5430   71.8840  224.8320 N   0  0  0  0  0  0  0  0  0  0  0  0
  140.7578   68.6643  229.9714 H   0  0  0  0  0  0  0  0  0  0  0  0
  139.9283   67.4675  228.9195 H   0  0  0  0  0  0  0  0  0  0  0  0
  141.7215   67.5727  228.9195 H   0  0  0  0  0  0  0  0  0  0  0  0
  141.4145   70.7068  229.2761 H   0  0  0  0  0  0  0  0  0  0  0  0
  141.3356   72.4408  227.4801 H   0  0  0  0  0  0  0  0  0  0  0  0
  140.0497   67.7944  226.3937 H   0  0  0  0  0  0  0  0  0  0  0  0
  140.5836   69.1527  223.6038 H   0  0  0  0  0  0  0  0  0  0  0  0
  138.9024   69.4753  223.9956 H   0  0  0  0  0  0  0  0  0  0  0  0
  140.7832   70.1618  221.3776 H   0  0  0  0  0  0  0  0  0  0  0  0
  140.3931   71.1930  219.1696 H   0  0  0  0  0  0  0  0  0  0  0  0
  139.3245   73.4255  218.9474 H   0  0  0  0  0  0  0  0  0  0  0  0
  141.0058   74.9054  220.4639 H   0  0  0  0  0  0  0  0  0  0  0  0
  140.7626   76.1277  219.1985 H   0  0  0  0  0  0  0  0  0  0  0  0
  141.5534   76.5254  222.1147 H   0  0  0  0  0  0  0  0  0  0  0  0
  142.4359   77.0328  220.6152 H   0  0  0  0  0  0  0  0  0  0  0  0
  141.9300   77.8740  223.5791 H   0  0  0  0  0  0  0  0  0  0  0  0
  142.7582   79.6613  225.0737 H   0  0  0  0  0  0  0  0  0  0  0  0
  142.5900   82.0346  224.3712 H   0  0  0  0  0  0  0  0  0  0  0  0
  141.5799   82.6247  222.1436 H   0  0  0  0  0  0  0  0  0  0  0  0
  140.7673   80.7934  220.7003 H   0  0  0  0  0  0  0  0  0  0  0  0
  139.2785   79.4363  220.3436 H   0  0  0  0  0  0  0  0  0  0  0  0
  139.9641   78.2888  219.1938 H   0  0  0  0  0  0  0  0  0  0  0  0
  138.2937   77.6266  221.7133 H   0  0  0  0  0  0  0  0  0  0  0  0
  137.7849   77.3930  220.0096 H   0  0  0  0  0  0  0  0  0  0  0  0
  139.0310   73.5959  223.2407 H   0  0  0  0  0  0  0  0  0  0  0  0
  1  2  1  0
  2  3  2  0
  3  4  1  0
  4  5  2  0
  5  6  1  0
  6  7  2  0
  6  8  1  0
  8  9  1  0
  9 10  1  0
 10 11  2  0
 11 12  1  0
 12 13  2  0
 13 14  1  0
 14 15  1  0
 15 16  2  0
 15 17  1  0
 17 18  1  0
 18 19  1  0
 19 20  1  0
 20 21  1  0
 21 22  2  0
 22 23  1  0
 23 24  2  0
 24 25  1  0
 25 26  2  0
 20 27  1  0
 27 28  1  0
 14 29  2  0
  9 30  2  0
  7  2  1  0
 29 10  1  0
 30  5  1  0
 28 17  1  0
 26 21  1  0
  1 31  1  0
  1 32  1  0
  1 33  1  0
  3 34  1  0
  4 35  1  0
  7 36  1  0
  8 37  1  0
  8 38  1  0
 11 39  1  0
 12 40  1  0
 13 41  1  0
 18 42  1  0
 18 43  1  0
 19 44  1  0
 19 45  1  0
 22 46  1  0
 23 47  1  0
 24 48  1  0
 25 49  1  0
 26 50  1  0
 27 51  1  0
 27 52  1  0
 28 53  1  0
 28 54  1  0
 29 55  1  0
M  END
>  <smiles>  (22) 
Cc1ccc2c(c1)CC(c1cccc(C(=O)N3CCN(c4ccccc4)CC3)c1)=N2

>  <score_type>  (22) 
oracle

>  <origin>  (22) 
autodockgpu

>  <m_score__min__energy>  (22) 
-8.7599999999999998

>  <m_primary>  (22) 
energy

>  <rmsd>  (22) 
4.340827671334832

>  <m_score__min__rmsd>  (22) 
4.340827671334832

>  <meeko>  (22) 
{"free_energy": -8.7, "intermolecular_energy": -9.6, "internal_energy": -0.94, "cluster_size": 49, "cluster_id": 1, "rank_in_cluster": 26}

>  <energy>  (22) 
-8.71

>  <cluster_rmsd>  (22) 
0.09

>  <cluster>  (22) 
1

$$$$

     RDKit          3D

 55 59  0  0  0  0  0  0  0  0999 V2000
  140.7050   68.1390  229.0220 C   0  0  0  0  0  0  0  0  0  0  0  0
  140.6780   69.1480  227.9260 C   0  0  0  0  0  0  0  0  0  0  0  0
  141.0850   70.4340  228.2790 C   0  0  0  0  0  0  0  0  0  0  0  0
  141.0680   71.3850  227.2820 C   0  0  0  0  0  0  0  0  0  0  0  0
  140.6660   71.0650  225.9980 C   0  0  0  0  0  0  0  0  0  0  0  0
  140.2610   69.7900  225.6450 C   0  0  0  0  0  0  0  0  0  0  0  0
  140.2780   68.8380  226.6440 C   0  0  0  0  0  0  0  0  0  0  0  0
  139.9100   69.8380  224.2090 C   0  0  0  0  0  0  0  0  0  0  0  0
  140.1650   71.2530  223.8280 C   0  0  0  0  0  0  0  0  0  0  0  0
  139.9740   71.8340  222.5040 C   0  0  0  0  0  0  0  0  0  0  0  0
  140.3860   71.1880  221.3440 C   0  0  0  0  0  0  0  0  0  0  0  0
  140.1830   71.7810  220.1030 C   0  0  0  0  0  0  0  0  0  0  0  0
  139.5740   73.0130  219.9630 C   0  0  0  0  0  0  0  0  0  0  0  0
  139.1680   73.6510  221.1120 C   0  0  0  0  0  0  0  0  0  0  0  0
  138.5100   74.9530  221.1230 C   0  0  0  0  0  0  0  0  0  0  0  0
  137.3010   75.0260  221.4520 O   0  0  0  0  0  0  0  0  0  0  0  0
  139.2720   76.0960  220.7520 N   0  0  0  0  0  0  0  0  0  0  0  0
  140.6870   75.9820  220.3680 C   0  0  0  0  0  0  0  0  0  0  0  0
  141.4470   76.9660  221.2170 C   0  0  0  0  0  0  0  0  0  0  0  0
  140.7750   78.2720  221.2630 N   0  0  0  0  0  0  0  0  0  0  0  0
  141.2230   79.2560  222.1820 C   0  0  0  0  0  0  0  0  0  0  0  0
  140.3740   80.0870  222.8860 C   0  0  0  0  0  0  0  0  0  0  0  0
  140.8560   81.0320  223.7730 C   0  0  0  0  0  0  0  0  0  0  0  0
  142.2180   81.1520  223.9630 C   0  0  0  0  0  0  0  0  0  0  0  0
  143.1130   80.3290  223.2700 C   0  0  0  0  0  0  0  0  0  0  0  0
  142.5760   79.4050  222.3980 C   0  0  0  0  0  0  0  0  0  0  0  0
  139.6790   78.4550  220.3410 C   0  0  0  0  0  0  0  0  0  0  0  0
  138.6430   77.3990  220.7490 C   0  0  0  0  0  0  0  0  0  0  0  0
  139.3690   73.0630  222.3590 C   0  0  0  0  0  0  0  0  0  0  0  0
  140.5800   71.8850  224.8580 N   0  0  0  0  0  0  0  0  0  0  0  0
  140.6912   68.6533  229.9943 H   0  0  0  0  0  0  0  0  0  0  0  0
  139.8240   67.4854  228.9404 H   0  0  0  0  0  0  0  0  0  0  0  0
  141.6197   67.5334  228.9404 H   0  0  0  0  0  0  0  0  0  0  0  0
  141.4040   70.6774  229.3032 H   0  0  0  0  0  0  0  0  0  0  0  0
  141.3791   72.4150  227.5110 H   0  0  0  0  0  0  0  0  0  0  0  0
  139.9654   67.8092  226.4120 H   0  0  0  0  0  0  0  0  0  0  0  0
  140.5462   69.1548  223.6271 H   0  0  0  0  0  0  0  0  0  0  0  0
  138.8736   69.5253  224.0139 H   0  0  0  0  0  0  0  0  0  0  0  0
  140.8742   70.2044  221.4082 H   0  0  0  0  0  0  0  0  0  0  0  0
  140.5194   71.2501  219.2002 H   0  0  0  0  0  0  0  0  0  0  0  0
  139.4199   73.4657  218.9724 H   0  0  0  0  0  0  0  0  0  0  0  0
  141.0494   74.9605  220.5554 H   0  0  0  0  0  0  0  0  0  0  0  0
  140.8245   76.1944  219.2975 H   0  0  0  0  0  0  0  0  0  0  0  0
  141.5261   76.5689  222.2398 H   0  0  0  0  0  0  0  0  0  0  0  0
  142.4433   77.1069  220.7725 H   0  0  0  0  0  0  0  0  0  0  0  0
  139.2879   79.9950  222.7376 H   0  0  0  0  0  0  0  0  0  0  0  0
  140.1599   81.6827  224.3226 H   0  0  0  0  0  0  0  0  0  0  0  0
  142.6044   81.9033  224.6674 H   0  0  0  0  0  0  0  0  0  0  0  0
  144.2000   80.4155  223.4148 H   0  0  0  0  0  0  0  0  0  0  0  0
  143.2657   78.7509  221.8444 H   0  0  0  0  0  0  0  0  0  0  0  0
  139.2584   79.4671  220.4350 H   0  0  0  0  0  0  0  0  0  0  0  0
  139.9949   78.3437  219.2932 H   0  0  0  0  0  0  0  0  0  0  0  0
  138.2617   77.6264  221.7554 H   0  0  0  0  0  0  0  0  0  0  0  0
  137.8062   77.4052  220.0351 H   0  0  0  0  0  0  0  0  0  0  0  0
  139.0329   73.5988  223.2590 H   0  0  0  0  0  0  0  0  0  0  0  0
  1  2  1  0
  2  3  2  0
  3  4  1  0
  4  5  2  0
  5  6  1  0
  6  7  2  0
  6  8  1  0
  8  9  1  0
  9 10  1  0
 10 11  2  0
 11 12  1  0
 12 13  2  0
 13 14  1  0
 14 15  1  0
 15 16  2  0
 15 17  1  0
 17 18  1  0
 18 19  1  0
 19 20  1  0
 20 21  1  0
 21 22  2  0
 22 23  1  0
 23 24  2  0
 24 25  1  0
 25 26  2  0
 20 27  1  0
 27 28  1  0
 14 29  2  0
  9 30  2  0
  7  2  1  0
 29 10  1  0
 30  5  1  0
 28 17  1  0
 26 21  1  0
  1 31  1  0
  1 32  1  0
  1 33  1  0
  3 34  1  0
  4 35  1  0
  7 36  1  0
  8 37  1  0
  8 38  1  0
 11 39  1  0
 12 40  1  0
 13 41  1  0
 18 42  1  0
 18 43  1  0
 19 44  1  0
 19 45  1  0
 22 46  1  0
 23 47  1  0
 24 48  1  0
 25 49  1  0
 26 50  1  0
 27 51  1  0
 27 52  1  0
 28 53  1  0
 28 54  1  0
 29 55  1  0
M  END
>  <smiles>  (23) 
Cc1ccc2c(c1)CC(c1cccc(C(=O)N3CCN(c4ccccc4)CC3)c1)=N2

>  <score_type>  (23) 
oracle

>  <origin>  (23) 
autodockgpu

>  <m_score__min__energy>  (23) 
-8.7599999999999998

>  <m_primary>  (23) 
energy

>  <rmsd>  (23) 
4.448340317429835

>  <m_score__min__rmsd>  (23) 
4.448340317429835

>  <meeko>  (23) 
{"free_energy": -8.76, "intermolecular_energy": -9.66, "internal_energy": -0.93, "cluster_size": 49, "cluster_id": 1, "rank_in_cluster": 2}

>  <energy>  (23) 
-8.7

>  <cluster_rmsd>  (23) 
0.07

>  <cluster>  (23) 
1

$$$$

     RDKit          3D

 55 59  0  0  0  0  0  0  0  0999 V2000
  140.7980   68.1370  228.9400 C   0  0  0  0  0  0  0  0  0  0  0  0
  140.7310   69.1490  227.8480 C   0  0  0  0  0  0  0  0  0  0  0  0
  141.1140   70.4420  228.2000 C   0  0  0  0  0  0  0  0  0  0  0  0
  141.0590   71.3960  227.2070 C   0  0  0  0  0  0  0  0  0  0  0  0
  140.6450   71.0720  225.9280 C   0  0  0  0  0  0  0  0  0  0  0  0
  140.2640   69.7890  225.5760 C   0  0  0  0  0  0  0  0  0  0  0  0
  140.3180   68.8340  226.5720 C   0  0  0  0  0  0  0  0  0  0  0  0
  139.8900   69.8340  224.1460 C   0  0  0  0  0  0  0  0  0  0  0  0
  140.1060   71.2560  223.7670 C   0  0  0  0  0  0  0  0  0  0  0  0
  139.8810   71.8370  222.4480 C   0  0  0  0  0  0  0  0  0  0  0  0
  140.2340   71.1770  221.2770 C   0  0  0  0  0  0  0  0  0  0  0  0
  140.0000   71.7700  220.0420 C   0  0  0  0  0  0  0  0  0  0  0  0
  139.4190   73.0170  219.9180 C   0  0  0  0  0  0  0  0  0  0  0  0
  139.0710   73.6690  221.0790 C   0  0  0  0  0  0  0  0  0  0  0  0
  138.4460   74.9870  221.1080 C   0  0  0  0  0  0  0  0  0  0  0  0
  137.2470   75.0890  221.4650 O   0  0  0  0  0  0  0  0  0  0  0  0
  139.2290   76.1120  220.7240 N   0  0  0  0  0  0  0  0  0  0  0  0
  140.6320   75.9630  220.3070 C   0  0  0  0  0  0  0  0  0  0  0  0
  141.4350   76.9250  221.1420 C   0  0  0  0  0  0  0  0  0  0  0  0
  140.7980   78.2470  221.2060 N   0  0  0  0  0  0  0  0  0  0  0  0
  141.2910   79.2160  222.1170 C   0  0  0  0  0  0  0  0  0  0  0  0
  142.6290   79.3600  222.4280 C   0  0  0  0  0  0  0  0  0  0  0  0
  143.0660   80.3200  223.3220 C   0  0  0  0  0  0  0  0  0  0  0  0
  142.1460   81.1580  223.9220 C   0  0  0  0  0  0  0  0  0  0  0  0
  140.7810   81.0450  223.6330 C   0  0  0  0  0  0  0  0  0  0  0  0
  140.4040   80.0700  222.7350 C   0  0  0  0  0  0  0  0  0  0  0  0
  139.6870   78.4610  220.3100 C   0  0  0  0  0  0  0  0  0  0  0  0
  138.6340   77.4310  220.7380 C   0  0  0  0  0  0  0  0  0  0  0  0
  139.3020   73.0800  222.3210 C   0  0  0  0  0  0  0  0  0  0  0  0
  140.5220   71.8940  224.7930 N   0  0  0  0  0  0  0  0  0  0  0  0
  140.7643   68.6463  229.9144 H   0  0  0  0  0  0  0  0  0  0  0  0
  139.9434   67.4496  228.8558 H   0  0  0  0  0  0  0  0  0  0  0  0
  141.7358   67.5682  228.8558 H   0  0  0  0  0  0  0  0  0  0  0  0
  141.4439   70.6888  229.2199 H   0  0  0  0  0  0  0  0  0  0  0  0
  141.3492   72.4321  227.4355 H   0  0  0  0  0  0  0  0  0  0  0  0
  140.0248   67.7991  226.3415 H   0  0  0  0  0  0  0  0  0  0  0  0
  140.5330   69.1681  223.5517 H   0  0  0  0  0  0  0  0  0  0  0  0
  138.8583   69.4978  223.9655 H   0  0  0  0  0  0  0  0  0  0  0  0
  140.7001   70.1820  221.3278 H   0  0  0  0  0  0  0  0  0  0  0  0
  140.2880   71.2265  219.1301 H   0  0  0  0  0  0  0  0  0  0  0  0
  139.2417   73.4704  218.9316 H   0  0  0  0  0  0  0  0  0  0  0  0
  140.9726   74.9320  220.4833 H   0  0  0  0  0  0  0  0  0  0  0  0
  140.7510   76.1749  219.2342 H   0  0  0  0  0  0  0  0  0  0  0  0
  141.5260   76.5228  222.1618 H   0  0  0  0  0  0  0  0  0  0  0  0
  142.4246   77.0420  220.6763 H   0  0  0  0  0  0  0  0  0  0  0  0
  143.3649   78.6947  221.9528 H   0  0  0  0  0  0  0  0  0  0  0  0
  144.1371   80.4157  223.5536 H   0  0  0  0  0  0  0  0  0  0  0  0
  142.4898   81.9223  224.6345 H   0  0  0  0  0  0  0  0  0  0  0  0
  140.0395   81.7074  224.1035 H   0  0  0  0  0  0  0  0  0  0  0  0
  139.3346   79.9679  222.4983 H   0  0  0  0  0  0  0  0  0  0  0  0
  139.2948   79.4832  220.4164 H   0  0  0  0  0  0  0  0  0  0  0  0
  139.9762   78.3451  219.2551 H   0  0  0  0  0  0  0  0  0  0  0  0
  138.2810   77.6651  221.7532 H   0  0  0  0  0  0  0  0  0  0  0  0
  137.7822   77.4608  220.0426 H   0  0  0  0  0  0  0  0  0  0  0  0
  139.0120   73.6266  223.2305 H   0  0  0  0  0  0  0  0  0  0  0  0
  1  2  1  0
  2  3  2  0
  3  4  1  0
  4  5  2  0
  5  6  1  0
  6  7  2  0
  6  8  1  0
  8  9  1  0
  9 10  1  0
 10 11  2  0
 11 12  1  0
 12 13  2  0
 13 14  1  0
 14 15  1  0
 15 16  2  0
 15 17  1  0
 17 18  1  0
 18 19  1  0
 19 20  1  0
 20 21  1  0
 21 22  2  0
 22 23  1  0
 23 24  2  0
 24 25  1  0
 25 26  2  0
 20 27  1  0
 27 28  1  0
 14 29  2  0
  9 30  2  0
  7  2  1  0
 29 10  1  0
 30  5  1  0
 28 17  1  0
 26 21  1  0
  1 31  1  0
  1 32  1  0
  1 33  1  0
  3 34  1  0
  4 35  1  0
  7 36  1  0
  8 37  1  0
  8 38  1  0
 11 39  1  0
 12 40  1  0
 13 41  1  0
 18 42  1  0
 18 43  1  0
 19 44  1  0
 19 45  1  0
 22 46  1  0
 23 47  1  0
 24 48  1  0
 25 49  1  0
 26 50  1  0
 27 51  1  0
 27 52  1  0
 28 53  1  0
 28 54  1  0
 29 55  1  0
M  END
>  <smiles>  (24) 
Cc1ccc2c(c1)CC(c1cccc(C(=O)N3CCN(c4ccccc4)CC3)c1)=N2

>  <score_type>  (24) 
oracle

>  <origin>  (24) 
autodockgpu

>  <m_score__min__energy>  (24) 
-8.7599999999999998

>  <m_primary>  (24) 
energy

>  <rmsd>  (24) 
4.473654871168103

>  <m_score__min__rmsd>  (24) 
4.473654871168103

>  <meeko>  (24) 
{"free_energy": -8.68, "intermolecular_energy": -9.57, "internal_energy": -0.93, "cluster_size": 49, "cluster_id": 1, "rank_in_cluster": 42}

>  <energy>  (24) 
-8.7

>  <cluster_rmsd>  (24) 
0.51

>  <cluster>  (24) 
1

$$$$

     RDKit          3D

 55 59  0  0  0  0  0  0  0  0999 V2000
  140.7290   68.1430  229.0490 C   0  0  0  0  0  0  0  0  0  0  0  0
  140.6960   69.1460  227.9480 C   0  0  0  0  0  0  0  0  0  0  0  0
  141.0890   70.4380  228.2960 C   0  0  0  0  0  0  0  0  0  0  0  0
  141.0660   71.3840  227.2940 C   0  0  0  0  0  0  0  0  0  0  0  0
  140.6710   71.0540  226.0110 C   0  0  0  0  0  0  0  0  0  0  0  0
  140.2790   69.7740  225.6620 C   0  0  0  0  0  0  0  0  0  0  0  0
  140.3020   68.8260  226.6670 C   0  0  0  0  0  0  0  0  0  0  0  0
  139.9320   69.8120  224.2250 C   0  0  0  0  0  0  0  0  0  0  0  0
  140.1740   71.2270  223.8390 C   0  0  0  0  0  0  0  0  0  0  0  0
  139.9830   71.8000  222.5110 C   0  0  0  0  0  0  0  0  0  0  0  0
  140.3920   71.1470  221.3550 C   0  0  0  0  0  0  0  0  0  0  0  0
  140.1880   71.7310  220.1100 C   0  0  0  0  0  0  0  0  0  0  0  0
  139.5800   72.9630  219.9630 C   0  0  0  0  0  0  0  0  0  0  0  0
  139.1760   73.6090  221.1090 C   0  0  0  0  0  0  0  0  0  0  0  0
  138.5180   74.9110  221.1120 C   0  0  0  0  0  0  0  0  0  0  0  0
  137.3080   74.9850  221.4350 O   0  0  0  0  0  0  0  0  0  0  0  0
  139.2830   76.0530  220.7420 N   0  0  0  0  0  0  0  0  0  0  0  0
  140.7000   75.9360  220.3650 C   0  0  0  0  0  0  0  0  0  0  0  0
  141.4560   76.9220  221.2150 C   0  0  0  0  0  0  0  0  0  0  0  0
  140.7850   78.2290  221.2540 N   0  0  0  0  0  0  0  0  0  0  0  0
  141.2290   79.2150  222.1720 C   0  0  0  0  0  0  0  0  0  0  0  0
  140.3760   80.0140  222.9070 C   0  0  0  0  0  0  0  0  0  0  0  0
  140.8540   80.9620  223.7920 C   0  0  0  0  0  0  0  0  0  0  0  0
  142.2170   81.1200  223.9480 C   0  0  0  0  0  0  0  0  0  0  0  0
  143.1160   80.3300  223.2220 C   0  0  0  0  0  0  0  0  0  0  0  0
  142.5830   79.4010  222.3540 C   0  0  0  0  0  0  0  0  0  0  0  0
  139.6940   78.4100  220.3260 C   0  0  0  0  0  0  0  0  0  0  0  0
  138.6550   77.3560  220.7320 C   0  0  0  0  0  0  0  0  0  0  0  0
  139.3780   73.0280  222.3590 C   0  0  0  0  0  0  0  0  0  0  0  0
  140.5800   71.8680  224.8670 N   0  0  0  0  0  0  0  0  0  0  0  0
  140.7119   68.6622  230.0186 H   0  0  0  0  0  0  0  0  0  0  0  0
  139.8521   67.4836  228.9707 H   0  0  0  0  0  0  0  0  0  0  0  0
  141.6474   67.5426  228.9707 H   0  0  0  0  0  0  0  0  0  0  0  0
  141.4020   70.6897  229.3200 H   0  0  0  0  0  0  0  0  0  0  0  0
  141.3667   72.4180  227.5187 H   0  0  0  0  0  0  0  0  0  0  0  0
  139.9992   67.7933  226.4395 H   0  0  0  0  0  0  0  0  0  0  0  0
  140.5768   69.1327  223.6481 H   0  0  0  0  0  0  0  0  0  0  0  0
  138.8994   69.4880  224.0280 H   0  0  0  0  0  0  0  0  0  0  0  0
  140.8795   70.1634  221.4251 H   0  0  0  0  0  0  0  0  0  0  0  0
  140.5223   71.1934  219.2104 H   0  0  0  0  0  0  0  0  0  0  0  0
  139.4251   73.4096  218.9697 H   0  0  0  0  0  0  0  0  0  0  0  0
  141.0605   74.9147  220.5574 H   0  0  0  0  0  0  0  0  0  0  0  0
  140.8434   76.1444  219.2945 H   0  0  0  0  0  0  0  0  0  0  0  0
  141.5294   76.5277  222.2393 H   0  0  0  0  0  0  0  0  0  0  0  0
  142.4545   77.0609  220.7750 H   0  0  0  0  0  0  0  0  0  0  0  0
  139.2895   79.8932  222.7853 H   0  0  0  0  0  0  0  0  0  0  0  0
  140.1542   81.5857  224.3676 H   0  0  0  0  0  0  0  0  0  0  0  0
  142.6003   81.8748  224.6503 H   0  0  0  0  0  0  0  0  0  0  0  0
  144.2036   80.4457  223.3393 H   0  0  0  0  0  0  0  0  0  0  0  0
  143.2762   78.7735  221.7746 H   0  0  0  0  0  0  0  0  0  0  0  0
  139.2737   79.4227  220.4148 H   0  0  0  0  0  0  0  0  0  0  0  0
  140.0151   78.2952  219.2802 H   0  0  0  0  0  0  0  0  0  0  0  0
  138.2689   77.5867  221.7358 H   0  0  0  0  0  0  0  0  0  0  0  0
  137.8217   77.3607  220.0140 H   0  0  0  0  0  0  0  0  0  0  0  0
  139.0425   73.5690  223.2561 H   0  0  0  0  0  0  0  0  0  0  0  0
  1  2  1  0
  2  3  2  0
  3  4  1  0
  4  5  2  0
  5  6  1  0
  6  7  2  0
  6  8  1  0
  8  9  1  0
  9 10  1  0
 10 11  2  0
 11 12  1  0
 12 13  2  0
 13 14  1  0
 14 15  1  0
 15 16  2  0
 15 17  1  0
 17 18  1  0
 18 19  1  0
 19 20  1  0
 20 21  1  0
 21 22  2  0
 22 23  1  0
 23 24  2  0
 24 25  1  0
 25 26  2  0
 20 27  1  0
 27 28  1  0
 14 29  2  0
  9 30  2  0
  7  2  1  0
 29 10  1  0
 30  5  1  0
 28 17  1  0
 26 21  1  0
  1 31  1  0
  1 32  1  0
  1 33  1  0
  3 34  1  0
  4 35  1  0
  7 36  1  0
  8 37  1  0
  8 38  1  0
 11 39  1  0
 12 40  1  0
 13 41  1  0
 18 42  1  0
 18 43  1  0
 19 44  1  0
 19 45  1  0
 22 46  1  0
 23 47  1  0
 24 48  1  0
 25 49  1  0
 26 50  1  0
 27 51  1  0
 27 52  1  0
 28 53  1  0
 28 54  1  0
 29 55  1  0
M  END
>  <smiles>  (25) 
Cc1ccc2c(c1)CC(c1cccc(C(=O)N3CCN(c4ccccc4)CC3)c1)=N2

>  <score_type>  (25) 
oracle

>  <origin>  (25) 
autodockgpu

>  <m_score__min__energy>  (25) 
-8.7599999999999998

>  <m_primary>  (25) 
energy

>  <rmsd>  (25) 
4.422684802500769

>  <m_score__min__rmsd>  (25) 
4.422684802500769

>  <meeko>  (25) 
{"free_energy": -8.75, "intermolecular_energy": -9.65, "internal_energy": -0.93, "cluster_size": 49, "cluster_id": 1, "rank_in_cluster": 5}

>  <energy>  (25) 
-8.7

>  <cluster_rmsd>  (25) 
0.52

>  <cluster>  (25) 
1

$$$$

     RDKit          3D

 55 59  0  0  0  0  0  0  0  0999 V2000
  140.7360   68.1440  229.0210 C   0  0  0  0  0  0  0  0  0  0  0  0
  140.7010   69.1530  227.9250 C   0  0  0  0  0  0  0  0  0  0  0  0
  141.1000   70.4410  228.2780 C   0  0  0  0  0  0  0  0  0  0  0  0
  141.0750   71.3920  227.2810 C   0  0  0  0  0  0  0  0  0  0  0  0
  140.6730   71.0700  225.9980 C   0  0  0  0  0  0  0  0  0  0  0  0
  140.2760   69.7930  225.6450 C   0  0  0  0  0  0  0  0  0  0  0  0
  140.3010   68.8400  226.6440 C   0  0  0  0  0  0  0  0  0  0  0  0
  139.9230   69.8390  224.2090 C   0  0  0  0  0  0  0  0  0  0  0  0
  140.1670   71.2560  223.8290 C   0  0  0  0  0  0  0  0  0  0  0  0
  139.9710   71.8360  222.5050 C   0  0  0  0  0  0  0  0  0  0  0  0
  140.3750   71.1880  221.3440 C   0  0  0  0  0  0  0  0  0  0  0  0
  140.1670   71.7790  220.1030 C   0  0  0  0  0  0  0  0  0  0  0  0
  139.5600   73.0130  219.9650 C   0  0  0  0  0  0  0  0  0  0  0  0
  139.1600   73.6530  221.1160 C   0  0  0  0  0  0  0  0  0  0  0  0
  138.5040   74.9550  221.1290 C   0  0  0  0  0  0  0  0  0  0  0  0
  137.2950   75.0290  221.4580 O   0  0  0  0  0  0  0  0  0  0  0  0
  139.2680   76.0980  220.7600 N   0  0  0  0  0  0  0  0  0  0  0  0
  140.6830   75.9830  220.3760 C   0  0  0  0  0  0  0  0  0  0  0  0
  141.4440   76.9640  221.2270 C   0  0  0  0  0  0  0  0  0  0  0  0
  140.7740   78.2710  221.2750 N   0  0  0  0  0  0  0  0  0  0  0  0
  141.2240   79.2520  222.1950 C   0  0  0  0  0  0  0  0  0  0  0  0
  140.3750   80.0630  222.9230 C   0  0  0  0  0  0  0  0  0  0  0  0
  140.8590   81.0060  223.8100 C   0  0  0  0  0  0  0  0  0  0  0  0
  142.2230   81.1460  223.9770 C   0  0  0  0  0  0  0  0  0  0  0  0
  143.1160   80.3440  223.2600 C   0  0  0  0  0  0  0  0  0  0  0  0
  142.5780   79.4200  222.3890 C   0  0  0  0  0  0  0  0  0  0  0  0
  139.6790   78.4570  220.3530 C   0  0  0  0  0  0  0  0  0  0  0  0
  138.6420   77.4020  220.7590 C   0  0  0  0  0  0  0  0  0  0  0  0
  139.3660   73.0650  222.3620 C   0  0  0  0  0  0  0  0  0  0  0  0
  140.5790   71.8900  224.8580 N   0  0  0  0  0  0  0  0  0  0  0  0
  140.7182   68.6580  229.9933 H   0  0  0  0  0  0  0  0  0  0  0  0
  139.8602   67.4834  228.9394 H   0  0  0  0  0  0  0  0  0  0  0  0
  141.6554   67.5457  228.9394 H   0  0  0  0  0  0  0  0  0  0  0  0
  141.4191   70.6862  229.3017 H   0  0  0  0  0  0  0  0  0  0  0  0
  141.3798   72.4239  227.5097 H   0  0  0  0  0  0  0  0  0  0  0  0
  139.9951   67.8091  226.4123 H   0  0  0  0  0  0  0  0  0  0  0  0
  140.5637   69.1610  223.6260 H   0  0  0  0  0  0  0  0  0  0  0  0
  138.8889   69.5184  224.0146 H   0  0  0  0  0  0  0  0  0  0  0  0
  140.8614   70.2034  221.4072 H   0  0  0  0  0  0  0  0  0  0  0  0
  140.4971   71.2459  219.1992 H   0  0  0  0  0  0  0  0  0  0  0  0
  139.4028   73.4656  218.9748 H   0  0  0  0  0  0  0  0  0  0  0  0
  141.0441   74.9606  220.5614 H   0  0  0  0  0  0  0  0  0  0  0  0
  140.8210   76.1976  219.3060 H   0  0  0  0  0  0  0  0  0  0  0  0
  141.5219   76.5649  222.2491 H   0  0  0  0  0  0  0  0  0  0  0  0
  142.4408   77.1040  220.7833 H   0  0  0  0  0  0  0  0  0  0  0  0
  139.2879   79.9557  222.7936 H   0  0  0  0  0  0  0  0  0  0  0  0
  140.1631   81.6403  224.3787 H   0  0  0  0  0  0  0  0  0  0  0  0
  142.6108   81.8965  224.6816 H   0  0  0  0  0  0  0  0  0  0  0  0
  144.2040   80.4459  223.3856 H   0  0  0  0  0  0  0  0  0  0  0  0
  143.2679   78.7817  221.8175 H   0  0  0  0  0  0  0  0  0  0  0  0
  139.2597   79.4695  220.4484 H   0  0  0  0  0  0  0  0  0  0  0  0
  139.9950   78.3471  219.3051 H   0  0  0  0  0  0  0  0  0  0  0  0
  138.2611   77.6284  221.7658 H   0  0  0  0  0  0  0  0  0  0  0  0
  137.8056   77.4107  220.0446 H   0  0  0  0  0  0  0  0  0  0  0  0
  139.0338   73.6011  223.2633 H   0  0  0  0  0  0  0  0  0  0  0  0
  1  2  1  0
  2  3  2  0
  3  4  1  0
  4  5  2  0
  5  6  1  0
  6  7  2  0
  6  8  1  0
  8  9  1  0
  9 10  1  0
 10 11  2  0
 11 12  1  0
 12 13  2  0
 13 14  1  0
 14 15  1  0
 15 16  2  0
 15 17  1  0
 17 18  1  0
 18 19  1  0
 19 20  1  0
 20 21  1  0
 21 22  2  0
 22 23  1  0
 23 24  2  0
 24 25  1  0
 25 26  2  0
 20 27  1  0
 27 28  1  0
 14 29  2  0
  9 30  2  0
  7  2  1  0
 29 10  1  0
 30  5  1  0
 28 17  1  0
 26 21  1  0
  1 31  1  0
  1 32  1  0
  1 33  1  0
  3 34  1  0
  4 35  1  0
  7 36  1  0
  8 37  1  0
  8 38  1  0
 11 39  1  0
 12 40  1  0
 13 41  1  0
 18 42  1  0
 18 43  1  0
 19 44  1  0
 19 45  1  0
 22 46  1  0
 23 47  1  0
 24 48  1  0
 25 49  1  0
 26 50  1  0
 27 51  1  0
 27 52  1  0
 28 53  1  0
 28 54  1  0
 29 55  1  0
M  END
>  <smiles>  (26) 
Cc1ccc2c(c1)CC(c1cccc(C(=O)N3CCN(c4ccccc4)CC3)c1)=N2

>  <score_type>  (26) 
oracle

>  <origin>  (26) 
autodockgpu

>  <m_score__min__energy>  (26) 
-8.7599999999999998

>  <m_primary>  (26) 
energy

>  <rmsd>  (26) 
4.449086605874372

>  <m_score__min__rmsd>  (26) 
4.449086605874372

>  <meeko>  (26) 
{"free_energy": -8.76, "intermolecular_energy": -9.66, "internal_energy": -0.93, "cluster_size": 49, "cluster_id": 1, "rank_in_cluster": 1}

>  <energy>  (26) 
-8.7

>  <cluster_rmsd>  (26) 
0.52

>  <cluster>  (26) 
1

$$$$

     RDKit          3D

 55 59  0  0  0  0  0  0  0  0999 V2000
  140.7450   68.1390  228.9600 C   0  0  0  0  0  0  0  0  0  0  0  0
  140.7050   69.1580  227.8730 C   0  0  0  0  0  0  0  0  0  0  0  0
  141.1030   70.4440  228.2380 C   0  0  0  0  0  0  0  0  0  0  0  0
  141.0740   71.4050  227.2500 C   0  0  0  0  0  0  0  0  0  0  0  0
  140.6690   71.0940  225.9640 C   0  0  0  0  0  0  0  0  0  0  0  0
  140.2730   69.8190  225.6000 C   0  0  0  0  0  0  0  0  0  0  0  0
  140.3020   68.8580  226.5910 C   0  0  0  0  0  0  0  0  0  0  0  0
  139.9160   69.8790  224.1660 C   0  0  0  0  0  0  0  0  0  0  0  0
  140.1570   71.2990  223.7990 C   0  0  0  0  0  0  0  0  0  0  0  0
  139.9560   71.8920  222.4810 C   0  0  0  0  0  0  0  0  0  0  0  0
  140.3510   71.2520  221.3120 C   0  0  0  0  0  0  0  0  0  0  0  0
  140.1390   71.8550  220.0780 C   0  0  0  0  0  0  0  0  0  0  0  0
  139.5370   73.0930  219.9530 C   0  0  0  0  0  0  0  0  0  0  0  0
  139.1470   73.7240  221.1120 C   0  0  0  0  0  0  0  0  0  0  0  0
  138.4980   75.0300  221.1390 C   0  0  0  0  0  0  0  0  0  0  0  0
  137.2910   75.1070  221.4760 O   0  0  0  0  0  0  0  0  0  0  0  0
  139.2660   76.1720  220.7770 N   0  0  0  0  0  0  0  0  0  0  0  0
  140.6780   76.0530  220.3840 C   0  0  0  0  0  0  0  0  0  0  0  0
  141.4490   77.0230  221.2390 C   0  0  0  0  0  0  0  0  0  0  0  0
  140.7860   78.3330  221.3020 N   0  0  0  0  0  0  0  0  0  0  0  0
  141.2450   79.3040  222.2280 C   0  0  0  0  0  0  0  0  0  0  0  0
  140.4120   80.1890  222.8840 C   0  0  0  0  0  0  0  0  0  0  0  0
  140.9040   81.1190  223.7800 C   0  0  0  0  0  0  0  0  0  0  0  0
  142.2620   81.1690  224.0300 C   0  0  0  0  0  0  0  0  0  0  0  0
  143.1400   80.2900  223.3870 C   0  0  0  0  0  0  0  0  0  0  0  0
  142.5930   79.3840  222.5030 C   0  0  0  0  0  0  0  0  0  0  0  0
  139.6860   78.5330  220.3880 C   0  0  0  0  0  0  0  0  0  0  0  0
  138.6460   77.4800  220.7900 C   0  0  0  0  0  0  0  0  0  0  0  0
  139.3570   73.1260  222.3520 C   0  0  0  0  0  0  0  0  0  0  0  0
  140.5720   71.9240  224.8330 N   0  0  0  0  0  0  0  0  0  0  0  0
  140.7252   68.6441  229.9370 H   0  0  0  0  0  0  0  0  0  0  0  0
  139.8722   67.4752  228.8726 H   0  0  0  0  0  0  0  0  0  0  0  0
  141.6671   67.5457  228.8726 H   0  0  0  0  0  0  0  0  0  0  0  0
  141.4241   70.6797  229.2634 H   0  0  0  0  0  0  0  0  0  0  0  0
  141.3776   72.4352  227.4877 H   0  0  0  0  0  0  0  0  0  0  0  0
  139.9961   67.8290  226.3508 H   0  0  0  0  0  0  0  0  0  0  0  0
  140.5558   69.2075  223.5746 H   0  0  0  0  0  0  0  0  0  0  0  0
  138.8815   69.5594  223.9717 H   0  0  0  0  0  0  0  0  0  0  0  0
  140.8331   70.2647  221.3638 H   0  0  0  0  0  0  0  0  0  0  0  0
  140.4619   71.3281  219.1680 H   0  0  0  0  0  0  0  0  0  0  0  0
  139.3763   73.5548  218.9676 H   0  0  0  0  0  0  0  0  0  0  0  0
  141.0348   75.0273  220.5587 H   0  0  0  0  0  0  0  0  0  0  0  0
  140.8110   76.2759  219.3151 H   0  0  0  0  0  0  0  0  0  0  0  0
  141.5307   76.6148  222.2572 H   0  0  0  0  0  0  0  0  0  0  0  0
  142.4439   77.1618  220.7907 H   0  0  0  0  0  0  0  0  0  0  0  0
  139.3301   80.1527  222.6885 H   0  0  0  0  0  0  0  0  0  0  0  0
  140.2203   81.8136  224.2899 H   0  0  0  0  0  0  0  0  0  0  0  0
  142.6571   81.9081  224.7425 H   0  0  0  0  0  0  0  0  0  0  0  0
  144.2227   80.3203  223.5788 H   0  0  0  0  0  0  0  0  0  0  0  0
  143.2703   78.6863  221.9887 H   0  0  0  0  0  0  0  0  0  0  0  0
  139.2725   79.5467  220.4953 H   0  0  0  0  0  0  0  0  0  0  0  0
  139.9954   78.4309  219.3374 H   0  0  0  0  0  0  0  0  0  0  0  0
  138.2711   77.6998  221.8005 H   0  0  0  0  0  0  0  0  0  0  0  0
  137.8062   77.4989  220.0797 H   0  0  0  0  0  0  0  0  0  0  0  0
  139.0336   73.6570  223.2594 H   0  0  0  0  0  0  0  0  0  0  0  0
  1  2  1  0
  2  3  2  0
  3  4  1  0
  4  5  2  0
  5  6  1  0
  6  7  2  0
  6  8  1  0
  8  9  1  0
  9 10  1  0
 10 11  2  0
 11 12  1  0
 12 13  2  0
 13 14  1  0
 14 15  1  0
 15 16  2  0
 15 17  1  0
 17 18  1  0
 18 19  1  0
 19 20  1  0
 20 21  1  0
 21 22  2  0
 22 23  1  0
 23 24  2  0
 24 25  1  0
 25 26  2  0
 20 27  1  0
 27 28  1  0
 14 29  2  0
  9 30  2  0
  7  2  1  0
 29 10  1  0
 30  5  1  0
 28 17  1  0
 26 21  1  0
  1 31  1  0
  1 32  1  0
  1 33  1  0
  3 34  1  0
  4 35  1  0
  7 36  1  0
  8 37  1  0
  8 38  1  0
 11 39  1  0
 12 40  1  0
 13 41  1  0
 18 42  1  0
 18 43  1  0
 19 44  1  0
 19 45  1  0
 22 46  1  0
 23 47  1  0
 24 48  1  0
 25 49  1  0
 26 50  1  0
 27 51  1  0
 27 52  1  0
 28 53  1  0
 28 54  1  0
 29 55  1  0
M  END
>  <smiles>  (27) 
Cc1ccc2c(c1)CC(c1cccc(C(=O)N3CCN(c4ccccc4)CC3)c1)=N2

>  <score_type>  (27) 
oracle

>  <origin>  (27) 
autodockgpu

>  <m_score__min__energy>  (27) 
-8.7599999999999998

>  <m_primary>  (27) 
energy

>  <rmsd>  (27) 
4.500897705636879

>  <m_score__min__rmsd>  (27) 
4.500897705636879

>  <meeko>  (27) 
{"free_energy": -8.74, "intermolecular_energy": -9.63, "internal_energy": -0.93, "cluster_size": 49, "cluster_id": 1, "rank_in_cluster": 12}

>  <energy>  (27) 
-8.7

>  <cluster_rmsd>  (27) 
0.52

>  <cluster>  (27) 
1

$$$$

     RDKit          3D

 55 59  0  0  0  0  0  0  0  0999 V2000
  140.8900   68.1300  229.0580 C   0  0  0  0  0  0  0  0  0  0  0  0
  140.7700   69.1190  227.9500 C   0  0  0  0  0  0  0  0  0  0  0  0
  141.0820   70.4360  228.2810 C   0  0  0  0  0  0  0  0  0  0  0  0
  140.9770   71.3700  227.2730 C   0  0  0  0  0  0  0  0  0  0  0  0
  140.5810   71.0030  225.9990 C   0  0  0  0  0  0  0  0  0  0  0  0
  140.2690   69.6970  225.6680 C   0  0  0  0  0  0  0  0  0  0  0  0
  140.3740   68.7620  226.6790 C   0  0  0  0  0  0  0  0  0  0  0  0
  139.8940   69.6990  224.2380 C   0  0  0  0  0  0  0  0  0  0  0  0
  140.0330   71.1240  223.8370 C   0  0  0  0  0  0  0  0  0  0  0  0
  139.7780   71.6710  222.5080 C   0  0  0  0  0  0  0  0  0  0  0  0
  140.0690   70.9660  221.3470 C   0  0  0  0  0  0  0  0  0  0  0  0
  139.8090   71.5280  220.1020 C   0  0  0  0  0  0  0  0  0  0  0  0
  139.2590   72.7870  219.9600 C   0  0  0  0  0  0  0  0  0  0  0  0
  138.9720   73.4840  221.1120 C   0  0  0  0  0  0  0  0  0  0  0  0
  138.3880   74.8210  221.1210 C   0  0  0  0  0  0  0  0  0  0  0  0
  137.1990   74.9670  221.4980 O   0  0  0  0  0  0  0  0  0  0  0  0
  139.1950   75.9120  220.6940 N   0  0  0  0  0  0  0  0  0  0  0  0
  140.5840   75.7120  220.2540 C   0  0  0  0  0  0  0  0  0  0  0  0
  141.4320   76.6680  221.0500 C   0  0  0  0  0  0  0  0  0  0  0  0
  140.8350   78.0110  221.0950 N   0  0  0  0  0  0  0  0  0  0  0  0
  141.3750   78.9850  221.9730 C   0  0  0  0  0  0  0  0  0  0  0  0
  141.6460   80.2860  221.5960 C   0  0  0  0  0  0  0  0  0  0  0  0
  142.1720   81.2040  222.4860 C   0  0  0  0  0  0  0  0  0  0  0  0
  142.4360   80.8160  223.7850 C   0  0  0  0  0  0  0  0  0  0  0  0
  142.1760   79.5070  224.2070 C   0  0  0  0  0  0  0  0  0  0  0  0
  141.6520   78.6350  223.2770 C   0  0  0  0  0  0  0  0  0  0  0  0
  139.7130   78.2360  220.2160 C   0  0  0  0  0  0  0  0  0  0  0  0
  138.6390   77.2480  220.6890 C   0  0  0  0  0  0  0  0  0  0  0  0
  139.2310   72.9270  222.3620 C   0  0  0  0  0  0  0  0  0  0  0  0
  140.4150   71.7990  224.8520 N   0  0  0  0  0  0  0  0  0  0  0  0
  140.8266   68.6522  230.0241 H   0  0  0  0  0  0  0  0  0  0  0  0
  140.0744   67.3957  228.9839 H   0  0  0  0  0  0  0  0  0  0  0  0
  141.8576   67.6120  228.9839 H   0  0  0  0  0  0  0  0  0  0  0  0
  141.3967   70.7165  229.2970 H   0  0  0  0  0  0  0  0  0  0  0  0
  141.2117   72.4236  227.4846 H   0  0  0  0  0  0  0  0  0  0  0  0
  140.1364   67.7095  226.4652 H   0  0  0  0  0  0  0  0  0  0  0  0
  140.5724   69.0596  223.6541 H   0  0  0  0  0  0  0  0  0  0  0  0
  138.8822   69.3045  224.0630 H   0  0  0  0  0  0  0  0  0  0  0  0
  140.5069   69.9591  221.4128 H   0  0  0  0  0  0  0  0  0  0  0  0
  140.0499   70.9493  219.1981 H   0  0  0  0  0  0  0  0  0  0  0  0
  139.0585   73.2153  218.9669 H   0  0  0  0  0  0  0  0  0  0  0  0
  140.8975   74.6756  220.4478 H   0  0  0  0  0  0  0  0  0  0  0  0
  140.6874   75.8961  219.1745 H   0  0  0  0  0  0  0  0  0  0  0  0
  141.5317   76.2869  222.0770 H   0  0  0  0  0  0  0  0  0  0  0  0
  142.4152   76.7442  220.5626 H   0  0  0  0  0  0  0  0  0  0  0  0
  141.4382   80.5993  220.5622 H   0  0  0  0  0  0  0  0  0  0  0  0
  142.3785   82.2348  222.1622 H   0  0  0  0  0  0  0  0  0  0  0  0
  142.8551   81.5436  224.4956 H   0  0  0  0  0  0  0  0  0  0  0  0
  142.3815   79.1871  225.2392 H   0  0  0  0  0  0  0  0  0  0  0  0
  141.4433   77.6023  223.5931 H   0  0  0  0  0  0  0  0  0  0  0  0
  139.3528   79.2715  220.3050 H   0  0  0  0  0  0  0  0  0  0  0  0
  139.9777   78.0863  219.1589 H   0  0  0  0  0  0  0  0  0  0  0  0
  138.3140   77.5157  221.7052 H   0  0  0  0  0  0  0  0  0  0  0  0
  137.7742   77.2873  220.0104 H   0  0  0  0  0  0  0  0  0  0  0  0
  138.9906   73.5098  223.2634 H   0  0  0  0  0  0  0  0  0  0  0  0
  1  2  1  0
  2  3  2  0
  3  4  1  0
  4  5  2  0
  5  6  1  0
  6  7  2  0
  6  8  1  0
  8  9  1  0
  9 10  1  0
 10 11  2  0
 11 12  1  0
 12 13  2  0
 13 14  1  0
 14 15  1  0
 15 16  2  0
 15 17  1  0
 17 18  1  0
 18 19  1  0
 19 20  1  0
 20 21  1  0
 21 22  2  0
 22 23  1  0
 23 24  2  0
 24 25  1  0
 25 26  2  0
 20 27  1  0
 27 28  1  0
 14 29  2  0
  9 30  2  0
  7  2  1  0
 29 10  1  0
 30  5  1  0
 28 17  1  0
 26 21  1  0
  1 31  1  0
  1 32  1  0
  1 33  1  0
  3 34  1  0
  4 35  1  0
  7 36  1  0
  8 37  1  0
  8 38  1  0
 11 39  1  0
 12 40  1  0
 13 41  1  0
 18 42  1  0
 18 43  1  0
 19 44  1  0
 19 45  1  0
 22 46  1  0
 23 47  1  0
 24 48  1  0
 25 49  1  0
 26 50  1  0
 27 51  1  0
 27 52  1  0
 28 53  1  0
 28 54  1  0
 29 55  1  0
M  END
>  <smiles>  (28) 
Cc1ccc2c(c1)CC(c1cccc(C(=O)N3CCN(c4ccccc4)CC3)c1)=N2

>  <score_type>  (28) 
oracle

>  <origin>  (28) 
autodockgpu

>  <m_score__min__energy>  (28) 
-8.7599999999999998

>  <m_primary>  (28) 
energy

>  <rmsd>  (28) 
4.391550251374341

>  <m_score__min__rmsd>  (28) 
4.391550251374341

>  <meeko>  (28) 
{"free_energy": -8.66, "intermolecular_energy": -9.56, "internal_energy": -0.95, "cluster_size": 49, "cluster_id": 1, "rank_in_cluster": 44}

>  <energy>  (28) 
-8.7

>  <cluster_rmsd>  (28) 
0.44

>  <cluster>  (28) 
1

$$$$

     RDKit          3D

 55 59  0  0  0  0  0  0  0  0999 V2000
  140.7470   68.1560  229.0230 C   0  0  0  0  0  0  0  0  0  0  0  0
  140.7060   69.1620  227.9240 C   0  0  0  0  0  0  0  0  0  0  0  0
  141.1010   70.4520  228.2720 C   0  0  0  0  0  0  0  0  0  0  0  0
  141.0700   71.4010  227.2720 C   0  0  0  0  0  0  0  0  0  0  0  0
  140.6650   71.0730  225.9910 C   0  0  0  0  0  0  0  0  0  0  0  0
  140.2720   69.7940  225.6430 C   0  0  0  0  0  0  0  0  0  0  0  0
  140.3030   68.8440  226.6450 C   0  0  0  0  0  0  0  0  0  0  0  0
  139.9140   69.8350  224.2090 C   0  0  0  0  0  0  0  0  0  0  0  0
  140.1530   71.2510  223.8240 C   0  0  0  0  0  0  0  0  0  0  0  0
  139.9500   71.8260  222.4990 C   0  0  0  0  0  0  0  0  0  0  0  0
  140.3490   71.1740  221.3370 C   0  0  0  0  0  0  0  0  0  0  0  0
  140.1350   71.7610  220.0960 C   0  0  0  0  0  0  0  0  0  0  0  0
  139.5290   72.9950  219.9560 C   0  0  0  0  0  0  0  0  0  0  0  0
  139.1350   73.6400  221.1070 C   0  0  0  0  0  0  0  0  0  0  0  0
  138.4810   74.9430  221.1180 C   0  0  0  0  0  0  0  0  0  0  0  0
  137.2730   75.0200  221.4520 O   0  0  0  0  0  0  0  0  0  0  0  0
  139.2450   76.0840  220.7430 N   0  0  0  0  0  0  0  0  0  0  0  0
  140.6590   75.9650  220.3540 C   0  0  0  0  0  0  0  0  0  0  0  0
  141.4240   76.9480  221.2000 C   0  0  0  0  0  0  0  0  0  0  0  0
  140.7560   78.2560  221.2470 N   0  0  0  0  0  0  0  0  0  0  0  0
  141.2110   79.2390  222.1620 C   0  0  0  0  0  0  0  0  0  0  0  0
  140.3660   80.0560  222.8870 C   0  0  0  0  0  0  0  0  0  0  0  0
  140.8540   81.0020  223.7700 C   0  0  0  0  0  0  0  0  0  0  0  0
  142.2180   81.1370  223.9360 C   0  0  0  0  0  0  0  0  0  0  0  0
  143.1080   80.3280  223.2210 C   0  0  0  0  0  0  0  0  0  0  0  0
  142.5660   79.4030  222.3540 C   0  0  0  0  0  0  0  0  0  0  0  0
  139.6580   78.4410  220.3280 C   0  0  0  0  0  0  0  0  0  0  0  0
  138.6210   77.3890  220.7410 C   0  0  0  0  0  0  0  0  0  0  0  0
  139.3470   73.0560  222.3540 C   0  0  0  0  0  0  0  0  0  0  0  0
  140.5660   71.8890  224.8500 N   0  0  0  0  0  0  0  0  0  0  0  0
  140.7259   68.6726  229.9939 H   0  0  0  0  0  0  0  0  0  0  0  0
  139.8753   67.4899  228.9431 H   0  0  0  0  0  0  0  0  0  0  0  0
  141.6701   67.5631  228.9431 H   0  0  0  0  0  0  0  0  0  0  0  0
  141.4218   70.7012  229.2942 H   0  0  0  0  0  0  0  0  0  0  0  0
  141.3720   72.4346  227.4966 H   0  0  0  0  0  0  0  0  0  0  0  0
  139.9995   67.8115  226.4174 H   0  0  0  0  0  0  0  0  0  0  0  0
  140.5543   69.1569  223.6257 H   0  0  0  0  0  0  0  0  0  0  0  0
  138.8799   69.5114  224.0193 H   0  0  0  0  0  0  0  0  0  0  0  0
  140.8359   70.1897  221.4008 H   0  0  0  0  0  0  0  0  0  0  0  0
  140.4596   71.2241  219.1924 H   0  0  0  0  0  0  0  0  0  0  0  0
  139.3679   73.4440  218.9648 H   0  0  0  0  0  0  0  0  0  0  0  0
  141.0191   74.9426  220.5414 H   0  0  0  0  0  0  0  0  0  0  0  0
  140.7940   76.1754  219.2828 H   0  0  0  0  0  0  0  0  0  0  0  0
  141.5049   76.5515  222.2229 H   0  0  0  0  0  0  0  0  0  0  0  0
  142.4192   77.0858  220.7522 H   0  0  0  0  0  0  0  0  0  0  0  0
  139.2784   79.9518  222.7591 H   0  0  0  0  0  0  0  0  0  0  0  0
  140.1608   81.6419  224.3357 H   0  0  0  0  0  0  0  0  0  0  0  0
  142.6091   81.8884  224.6377 H   0  0  0  0  0  0  0  0  0  0  0  0
  144.1965   80.4260  223.3456 H   0  0  0  0  0  0  0  0  0  0  0  0
  143.2530   78.7603  221.7840 H   0  0  0  0  0  0  0  0  0  0  0  0
  139.2406   79.4544  220.4217 H   0  0  0  0  0  0  0  0  0  0  0  0
  139.9702   78.3275  219.2794 H   0  0  0  0  0  0  0  0  0  0  0  0
  138.2446   77.6187  221.7487 H   0  0  0  0  0  0  0  0  0  0  0  0
  137.7817   77.3972  220.0300 H   0  0  0  0  0  0  0  0  0  0  0  0
  139.0212   73.5964  223.2550 H   0  0  0  0  0  0  0  0  0  0  0  0
  1  2  1  0
  2  3  2  0
  3  4  1  0
  4  5  2  0
  5  6  1  0
  6  7  2  0
  6  8  1  0
  8  9  1  0
  9 10  1  0
 10 11  2  0
 11 12  1  0
 12 13  2  0
 13 14  1  0
 14 15  1  0
 15 16  2  0
 15 17  1  0
 17 18  1  0
 18 19  1  0
 19 20  1  0
 20 21  1  0
 21 22  2  0
 22 23  1  0
 23 24  2  0
 24 25  1  0
 25 26  2  0
 20 27  1  0
 27 28  1  0
 14 29  2  0
  9 30  2  0
  7  2  1  0
 29 10  1  0
 30  5  1  0
 28 17  1  0
 26 21  1  0
  1 31  1  0
  1 32  1  0
  1 33  1  0
  3 34  1  0
  4 35  1  0
  7 36  1  0
  8 37  1  0
  8 38  1  0
 11 39  1  0
 12 40  1  0
 13 41  1  0
 18 42  1  0
 18 43  1  0
 19 44  1  0
 19 45  1  0
 22 46  1  0
 23 47  1  0
 24 48  1  0
 25 49  1  0
 26 50  1  0
 27 51  1  0
 27 52  1  0
 28 53  1  0
 28 54  1  0
 29 55  1  0
M  END
>  <smiles>  (29) 
Cc1ccc2c(c1)CC(c1cccc(C(=O)N3CCN(c4ccccc4)CC3)c1)=N2

>  <score_type>  (29) 
oracle

>  <origin>  (29) 
autodockgpu

>  <m_score__min__energy>  (29) 
-8.7599999999999998

>  <m_primary>  (29) 
energy

>  <rmsd>  (29) 
4.429304552456202

>  <m_score__min__rmsd>  (29) 
4.429304552456202

>  <meeko>  (29) 
{"free_energy": -8.75, "intermolecular_energy": -9.65, "internal_energy": -0.93, "cluster_size": 49, "cluster_id": 1, "rank_in_cluster": 6}

>  <energy>  (29) 
-8.7

>  <cluster_rmsd>  (29) 
0.07

>  <cluster>  (29) 
1

$$$$

     RDKit          3D

 55 59  0  0  0  0  0  0  0  0999 V2000
  140.7050   68.1490  229.0360 C   0  0  0  0  0  0  0  0  0  0  0  0
  140.6770   69.1560  227.9370 C   0  0  0  0  0  0  0  0  0  0  0  0
  141.0880   70.4410  228.2870 C   0  0  0  0  0  0  0  0  0  0  0  0
  141.0700   71.3900  227.2870 C   0  0  0  0  0  0  0  0  0  0  0  0
  140.6630   71.0680  226.0050 C   0  0  0  0  0  0  0  0  0  0  0  0
  140.2540   69.7930  225.6560 C   0  0  0  0  0  0  0  0  0  0  0  0
  140.2720   68.8430  226.6580 C   0  0  0  0  0  0  0  0  0  0  0  0
  139.8980   69.8390  224.2210 C   0  0  0  0  0  0  0  0  0  0  0  0
  140.1550   71.2520  223.8370 C   0  0  0  0  0  0  0  0  0  0  0  0
  139.9610   71.8300  222.5120 C   0  0  0  0  0  0  0  0  0  0  0  0
  140.3640   71.1790  221.3520 C   0  0  0  0  0  0  0  0  0  0  0  0
  140.1580   71.7680  220.1100 C   0  0  0  0  0  0  0  0  0  0  0  0
  139.5560   73.0040  219.9690 C   0  0  0  0  0  0  0  0  0  0  0  0
  139.1590   73.6480  221.1180 C   0  0  0  0  0  0  0  0  0  0  0  0
  138.5080   74.9530  221.1280 C   0  0  0  0  0  0  0  0  0  0  0  0
  137.3030   75.0340  221.4680 O   0  0  0  0  0  0  0  0  0  0  0  0
  139.2740   76.0900  220.7450 N   0  0  0  0  0  0  0  0  0  0  0  0
  140.6850   75.9660  220.3490 C   0  0  0  0  0  0  0  0  0  0  0  0
  141.4570   76.9500  221.1860 C   0  0  0  0  0  0  0  0  0  0  0  0
  140.7930   78.2600  221.2310 N   0  0  0  0  0  0  0  0  0  0  0  0
  141.2550   79.2460  222.1410 C   0  0  0  0  0  0  0  0  0  0  0  0
  142.5770   79.3750  222.5200 C   0  0  0  0  0  0  0  0  0  0  0  0
  142.9820   80.3530  223.4100 C   0  0  0  0  0  0  0  0  0  0  0  0
  142.0480   81.2230  223.9350 C   0  0  0  0  0  0  0  0  0  0  0  0
  140.6990   81.1260  223.5760 C   0  0  0  0  0  0  0  0  0  0  0  0
  140.3520   80.1320  222.6860 C   0  0  0  0  0  0  0  0  0  0  0  0
  139.6910   78.4440  220.3180 C   0  0  0  0  0  0  0  0  0  0  0  0
  138.6520   77.3970  220.7400 C   0  0  0  0  0  0  0  0  0  0  0  0
  139.3620   73.0620  222.3660 C   0  0  0  0  0  0  0  0  0  0  0  0
  140.5750   71.8850  224.8640 N   0  0  0  0  0  0  0  0  0  0  0  0
  140.6906   68.6656  230.0071 H   0  0  0  0  0  0  0  0  0  0  0  0
  139.8247   67.4943  228.9559 H   0  0  0  0  0  0  0  0  0  0  0  0
  141.6203   67.5442  228.9559 H   0  0  0  0  0  0  0  0  0  0  0  0
  141.4105   70.6857  229.3098 H   0  0  0  0  0  0  0  0  0  0  0  0
  141.3844   72.4197  227.5124 H   0  0  0  0  0  0  0  0  0  0  0  0
  139.9562   67.8143  226.4301 H   0  0  0  0  0  0  0  0  0  0  0  0
  140.5305   69.1533  223.6381 H   0  0  0  0  0  0  0  0  0  0  0  0
  138.8602   69.5283  224.0300 H   0  0  0  0  0  0  0  0  0  0  0  0
  140.8481   70.1934  221.4172 H   0  0  0  0  0  0  0  0  0  0  0  0
  140.4857   71.2314  219.2074 H   0  0  0  0  0  0  0  0  0  0  0  0
  139.4005   73.4548  218.9777 H   0  0  0  0  0  0  0  0  0  0  0  0
  141.0436   74.9435  220.5387 H   0  0  0  0  0  0  0  0  0  0  0  0
  140.8145   76.1718  219.2762 H   0  0  0  0  0  0  0  0  0  0  0  0
  141.5425   76.5577  222.2101 H   0  0  0  0  0  0  0  0  0  0  0  0
  142.4501   77.0831  220.7321 H   0  0  0  0  0  0  0  0  0  0  0  0
  143.3250   78.6838  222.1043 H   0  0  0  0  0  0  0  0  0  0  0  0
  144.0405   80.4369  223.6973 H   0  0  0  0  0  0  0  0  0  0  0  0
  142.3676   82.0013  224.6435 H   0  0  0  0  0  0  0  0  0  0  0  0
  139.9462   81.8147  223.9871 H   0  0  0  0  0  0  0  0  0  0  0  0
  139.2951   80.0414  222.3949 H   0  0  0  0  0  0  0  0  0  0  0  0
  139.2773   79.4591  220.4098 H   0  0  0  0  0  0  0  0  0  0  0  0
  139.9976   78.3245  219.2684 H   0  0  0  0  0  0  0  0  0  0  0  0
  138.2802   77.6322  221.7482 H   0  0  0  0  0  0  0  0  0  0  0  0
  137.8092   77.4044  220.0331 H   0  0  0  0  0  0  0  0  0  0  0  0
  139.0325   73.6020  223.2659 H   0  0  0  0  0  0  0  0  0  0  0  0
  1  2  1  0
  2  3  2  0
  3  4  1  0
  4  5  2  0
  5  6  1  0
  6  7  2  0
  6  8  1  0
  8  9  1  0
  9 10  1  0
 10 11  2  0
 11 12  1  0
 12 13  2  0
 13 14  1  0
 14 15  1  0
 15 16  2  0
 15 17  1  0
 17 18  1  0
 18 19  1  0
 19 20  1  0
 20 21  1  0
 21 22  2  0
 22 23  1  0
 23 24  2  0
 24 25  1  0
 25 26  2  0
 20 27  1  0
 27 28  1  0
 14 29  2  0
  9 30  2  0
  7  2  1  0
 29 10  1  0
 30  5  1  0
 28 17  1  0
 26 21  1  0
  1 31  1  0
  1 32  1  0
  1 33  1  0
  3 34  1  0
  4 35  1  0
  7 36  1  0
  8 37  1  0
  8 38  1  0
 11 39  1  0
 12 40  1  0
 13 41  1  0
 18 42  1  0
 18 43  1  0
 19 44  1  0
 19 45  1  0
 22 46  1  0
 23 47  1  0
 24 48  1  0
 25 49  1  0
 26 50  1  0
 27 51  1  0
 27 52  1  0
 28 53  1  0
 28 54  1  0
 29 55  1  0
M  END
>  <smiles>  (30) 
Cc1ccc2c(c1)CC(c1cccc(C(=O)N3CCN(c4ccccc4)CC3)c1)=N2

>  <score_type>  (30) 
oracle

>  <origin>  (30) 
autodockgpu

>  <m_score__min__energy>  (30) 
-8.7599999999999998

>  <m_primary>  (30) 
energy

>  <rmsd>  (30) 
4.469684647484249

>  <m_score__min__rmsd>  (30) 
4.469684647484249

>  <meeko>  (30) 
{"free_energy": -8.72, "intermolecular_energy": -9.62, "internal_energy": -0.93, "cluster_size": 49, "cluster_id": 1, "rank_in_cluster": 16}

>  <energy>  (30) 
-8.69

>  <cluster_rmsd>  (30) 
0.51

>  <cluster>  (30) 
1

$$$$

     RDKit          3D

 55 59  0  0  0  0  0  0  0  0999 V2000
  140.8170   68.1520  229.0230 C   0  0  0  0  0  0  0  0  0  0  0  0
  140.7490   69.1580  227.9260 C   0  0  0  0  0  0  0  0  0  0  0  0
  141.1160   70.4560  228.2750 C   0  0  0  0  0  0  0  0  0  0  0  0
  141.0610   71.4050  227.2770 C   0  0  0  0  0  0  0  0  0  0  0  0
  140.6590   71.0710  225.9960 C   0  0  0  0  0  0  0  0  0  0  0  0
  140.2930   69.7830  225.6480 C   0  0  0  0  0  0  0  0  0  0  0  0
  140.3490   68.8340  226.6480 C   0  0  0  0  0  0  0  0  0  0  0  0
  139.9290   69.8190  224.2140 C   0  0  0  0  0  0  0  0  0  0  0  0
  140.1340   71.2410  223.8310 C   0  0  0  0  0  0  0  0  0  0  0  0
  139.9140   71.8130  222.5070 C   0  0  0  0  0  0  0  0  0  0  0  0
  140.2760   71.1490  221.3420 C   0  0  0  0  0  0  0  0  0  0  0  0
  140.0470   71.7340  220.1020 C   0  0  0  0  0  0  0  0  0  0  0  0
  139.4600   72.9780  219.9690 C   0  0  0  0  0  0  0  0  0  0  0  0
  139.1030   73.6350  221.1240 C   0  0  0  0  0  0  0  0  0  0  0  0
  138.4720   74.9500  221.1430 C   0  0  0  0  0  0  0  0  0  0  0  0
  137.2670   75.0470  221.4820 O   0  0  0  0  0  0  0  0  0  0  0  0
  139.2550   76.0780  220.7680 N   0  0  0  0  0  0  0  0  0  0  0  0
  140.6650   75.9350  220.3730 C   0  0  0  0  0  0  0  0  0  0  0  0
  141.4510   76.9010  221.2180 C   0  0  0  0  0  0  0  0  0  0  0  0
  140.8070   78.2200  221.2720 N   0  0  0  0  0  0  0  0  0  0  0  0
  141.2830   79.1920  222.1890 C   0  0  0  0  0  0  0  0  0  0  0  0
  142.6230   79.4130  222.4410 C   0  0  0  0  0  0  0  0  0  0  0  0
  143.0420   80.3730  223.3430 C   0  0  0  0  0  0  0  0  0  0  0  0
  142.1020   81.1330  224.0120 C   0  0  0  0  0  0  0  0  0  0  0  0
  140.7350   80.9410  223.7840 C   0  0  0  0  0  0  0  0  0  0  0  0
  140.3750   79.9700  222.8740 C   0  0  0  0  0  0  0  0  0  0  0  0
  139.7080   78.4280  220.3590 C   0  0  0  0  0  0  0  0  0  0  0  0
  138.6540   77.3940  220.7730 C   0  0  0  0  0  0  0  0  0  0  0  0
  139.3300   73.0540  222.3700 C   0  0  0  0  0  0  0  0  0  0  0  0
  140.5370   71.8870  224.8570 N   0  0  0  0  0  0  0  0  0  0  0  0
  140.7822   68.6663  229.9948 H   0  0  0  0  0  0  0  0  0  0  0  0
  139.9634   67.4629  228.9420 H   0  0  0  0  0  0  0  0  0  0  0  0
  141.7556   67.5841  228.9420 H   0  0  0  0  0  0  0  0  0  0  0  0
  141.4340   70.7108  229.2967 H   0  0  0  0  0  0  0  0  0  0  0  0
  141.3412   72.4445  227.5026 H   0  0  0  0  0  0  0  0  0  0  0  0
  140.0679   67.7953  226.4197 H   0  0  0  0  0  0  0  0  0  0  0  0
  140.5828   69.1570  223.6271 H   0  0  0  0  0  0  0  0  0  0  0  0
  138.9019   69.4722  224.0273 H   0  0  0  0  0  0  0  0  0  0  0  0
  140.7458   70.1561  221.4008 H   0  0  0  0  0  0  0  0  0  0  0  0
  140.3435   71.1874  219.1946 H   0  0  0  0  0  0  0  0  0  0  0  0
  139.2852   73.4251  218.9793 H   0  0  0  0  0  0  0  0  0  0  0  0
  141.0074   74.9058  220.5559 H   0  0  0  0  0  0  0  0  0  0  0  0
  140.7992   76.1464  219.3019 H   0  0  0  0  0  0  0  0  0  0  0  0
  141.5295   76.5000  222.2393 H   0  0  0  0  0  0  0  0  0  0  0  0
  142.4465   77.0224  220.7661 H   0  0  0  0  0  0  0  0  0  0  0  0
  143.3751   78.8103  221.9109 H   0  0  0  0  0  0  0  0  0  0  0  0
  144.1151   80.5305  223.5266 H   0  0  0  0  0  0  0  0  0  0  0  0
  142.4318   81.8970  224.7314 H   0  0  0  0  0  0  0  0  0  0  0  0
  139.9777   81.5409  224.3099 H   0  0  0  0  0  0  0  0  0  0  0  0
  139.3038   79.8073  222.6842 H   0  0  0  0  0  0  0  0  0  0  0  0
  139.3096   79.4485  220.4582 H   0  0  0  0  0  0  0  0  0  0  0  0
  140.0132   78.3122  219.3085 H   0  0  0  0  0  0  0  0  0  0  0  0
  138.2860   77.6271  221.7831 H   0  0  0  0  0  0  0  0  0  0  0  0
  137.8117   77.4196  220.0660 H   0  0  0  0  0  0  0  0  0  0  0  0
  139.0331   73.6044  223.2749 H   0  0  0  0  0  0  0  0  0  0  0  0
  1  2  1  0
  2  3  2  0
  3  4  1  0
  4  5  2  0
  5  6  1  0
  6  7  2  0
  6  8  1  0
  8  9  1  0
  9 10  1  0
 10 11  2  0
 11 12  1  0
 12 13  2  0
 13 14  1  0
 14 15  1  0
 15 16  2  0
 15 17  1  0
 17 18  1  0
 18 19  1  0
 19 20  1  0
 20 21  1  0
 21 22  2  0
 22 23  1  0
 23 24  2  0
 24 25  1  0
 25 26  2  0
 20 27  1  0
 27 28  1  0
 14 29  2  0
  9 30  2  0
  7  2  1  0
 29 10  1  0
 30  5  1  0
 28 17  1  0
 26 21  1  0
  1 31  1  0
  1 32  1  0
  1 33  1  0
  3 34  1  0
  4 35  1  0
  7 36  1  0
  8 37  1  0
  8 38  1  0
 11 39  1  0
 12 40  1  0
 13 41  1  0
 18 42  1  0
 18 43  1  0
 19 44  1  0
 19 45  1  0
 22 46  1  0
 23 47  1  0
 24 48  1  0
 25 49  1  0
 26 50  1  0
 27 51  1  0
 27 52  1  0
 28 53  1  0
 28 54  1  0
 29 55  1  0
M  END
>  <smiles>  (31) 
Cc1ccc2c(c1)CC(c1cccc(C(=O)N3CCN(c4ccccc4)CC3)c1)=N2

>  <score_type>  (31) 
oracle

>  <origin>  (31) 
autodockgpu

>  <m_score__min__energy>  (31) 
-8.7599999999999998

>  <m_primary>  (31) 
energy

>  <rmsd>  (31) 
4.482062566586192

>  <m_score__min__rmsd>  (31) 
4.482062566586192

>  <meeko>  (31) 
{"free_energy": -8.71, "intermolecular_energy": -9.6, "internal_energy": -0.94, "cluster_size": 49, "cluster_id": 1, "rank_in_cluster": 20}

>  <energy>  (31) 
-8.69

>  <cluster_rmsd>  (31) 
0.47

>  <cluster>  (31) 
1

$$$$

     RDKit          3D

 55 59  0  0  0  0  0  0  0  0999 V2000
  140.8600   68.1350  229.0010 C   0  0  0  0  0  0  0  0  0  0  0  0
  140.7790   69.1380  227.9020 C   0  0  0  0  0  0  0  0  0  0  0  0
  141.1350   70.4410  228.2470 C   0  0  0  0  0  0  0  0  0  0  0  0
  141.0680   71.3870  227.2470 C   0  0  0  0  0  0  0  0  0  0  0  0
  140.6670   71.0460  225.9680 C   0  0  0  0  0  0  0  0  0  0  0  0
  140.3130   69.7540  225.6230 C   0  0  0  0  0  0  0  0  0  0  0  0
  140.3800   68.8070  226.6250 C   0  0  0  0  0  0  0  0  0  0  0  0
  139.9460   69.7830  224.1910 C   0  0  0  0  0  0  0  0  0  0  0  0
  140.1360   71.2050  223.8040 C   0  0  0  0  0  0  0  0  0  0  0  0
  139.9080   71.7730  222.4790 C   0  0  0  0  0  0  0  0  0  0  0  0
  140.2630   71.1040  221.3140 C   0  0  0  0  0  0  0  0  0  0  0  0
  140.0260   71.6850  220.0730 C   0  0  0  0  0  0  0  0  0  0  0  0
  139.4380   72.9280  219.9390 C   0  0  0  0  0  0  0  0  0  0  0  0
  139.0880   73.5890  221.0940 C   0  0  0  0  0  0  0  0  0  0  0  0
  138.4580   74.9040  221.1120 C   0  0  0  0  0  0  0  0  0  0  0  0
  137.2500   75.0010  221.4400 O   0  0  0  0  0  0  0  0  0  0  0  0
  139.2450   76.0340  220.7490 N   0  0  0  0  0  0  0  0  0  0  0  0
  140.6580   75.8920  220.3660 C   0  0  0  0  0  0  0  0  0  0  0  0
  141.4370   76.8540  221.2230 C   0  0  0  0  0  0  0  0  0  0  0  0
  140.7930   78.1740  221.2750 N   0  0  0  0  0  0  0  0  0  0  0  0
  141.2610   79.1420  222.2000 C   0  0  0  0  0  0  0  0  0  0  0  0
  140.4260   79.9380  222.9610 C   0  0  0  0  0  0  0  0  0  0  0  0
  140.9270   80.8690  223.8520 C   0  0  0  0  0  0  0  0  0  0  0  0
  142.2940   81.0110  223.9890 C   0  0  0  0  0  0  0  0  0  0  0  0
  143.1730   80.2240  223.2370 C   0  0  0  0  0  0  0  0  0  0  0  0
  142.6180   79.3130  222.3650 C   0  0  0  0  0  0  0  0  0  0  0  0
  139.7030   78.3860  220.3530 C   0  0  0  0  0  0  0  0  0  0  0  0
  138.6440   77.3500  220.7530 C   0  0  0  0  0  0  0  0  0  0  0  0
  139.3230   73.0130  222.3410 C   0  0  0  0  0  0  0  0  0  0  0  0
  140.5350   71.8580  224.8270 N   0  0  0  0  0  0  0  0  0  0  0  0
  140.8184   68.6506  229.9718 H   0  0  0  0  0  0  0  0  0  0  0  0
  140.0155   67.4347  228.9213 H   0  0  0  0  0  0  0  0  0  0  0  0
  141.8059   67.5793  228.9213 H   0  0  0  0  0  0  0  0  0  0  0  0
  141.4537   70.7013  229.2671 H   0  0  0  0  0  0  0  0  0  0  0  0
  141.3377   72.4299  227.4696 H   0  0  0  0  0  0  0  0  0  0  0  0
  140.1089   67.7651  226.3993 H   0  0  0  0  0  0  0  0  0  0  0  0
  140.6050   69.1260  223.6044 H   0  0  0  0  0  0  0  0  0  0  0  0
  138.9219   69.4258  224.0074 H   0  0  0  0  0  0  0  0  0  0  0  0
  140.7331   70.1113  221.3736 H   0  0  0  0  0  0  0  0  0  0  0  0
  140.3171   71.1353  219.1657 H   0  0  0  0  0  0  0  0  0  0  0  0
  139.2569   73.3715  218.9488 H   0  0  0  0  0  0  0  0  0  0  0  0
  140.9982   74.8617  220.5471 H   0  0  0  0  0  0  0  0  0  0  0  0
  140.8020   76.1082  219.2971 H   0  0  0  0  0  0  0  0  0  0  0  0
  141.5046   76.4491  222.2435 H   0  0  0  0  0  0  0  0  0  0  0  0
  142.4374   76.9758  220.7823 H   0  0  0  0  0  0  0  0  0  0  0  0
  139.3366   79.8282  222.8553 H   0  0  0  0  0  0  0  0  0  0  0  0
  140.2425   81.4915  224.4469 H   0  0  0  0  0  0  0  0  0  0  0  0
  142.6960   81.7508  224.6969 H   0  0  0  0  0  0  0  0  0  0  0  0
  144.2634   80.3284  223.3379 H   0  0  0  0  0  0  0  0  0  0  0  0
  143.2966   78.6870  221.7669 H   0  0  0  0  0  0  0  0  0  0  0  0
  139.3040   79.4062  220.4527 H   0  0  0  0  0  0  0  0  0  0  0  0
  140.0180   78.2743  219.3050 H   0  0  0  0  0  0  0  0  0  0  0  0
  138.2661   77.5794  221.7602 H   0  0  0  0  0  0  0  0  0  0  0  0
  137.8086   77.3784  220.0379 H   0  0  0  0  0  0  0  0  0  0  0  0
  139.0317   73.5669  223.2457 H   0  0  0  0  0  0  0  0  0  0  0  0
  1  2  1  0
  2  3  2  0
  3  4  1  0
  4  5  2  0
  5  6  1  0
  6  7  2  0
  6  8  1  0
  8  9  1  0
  9 10  1  0
 10 11  2  0
 11 12  1  0
 12 13  2  0
 13 14  1  0
 14 15  1  0
 15 16  2  0
 15 17  1  0
 17 18  1  0
 18 19  1  0
 19 20  1  0
 20 21  1  0
 21 22  2  0
 22 23  1  0
 23 24  2  0
 24 25  1  0
 25 26  2  0
 20 27  1  0
 27 28  1  0
 14 29  2  0
  9 30  2  0
  7  2  1  0
 29 10  1  0
 30  5  1  0
 28 17  1  0
 26 21  1  0
  1 31  1  0
  1 32  1  0
  1 33  1  0
  3 34  1  0
  4 35  1  0
  7 36  1  0
  8 37  1  0
  8 38  1  0
 11 39  1  0
 12 40  1  0
 13 41  1  0
 18 42  1  0
 18 43  1  0
 19 44  1  0
 19 45  1  0
 22 46  1  0
 23 47  1  0
 24 48  1  0
 25 49  1  0
 26 50  1  0
 27 51  1  0
 27 52  1  0
 28 53  1  0
 28 54  1  0
 29 55  1  0
M  END
>  <smiles>  (32) 
Cc1ccc2c(c1)CC(c1cccc(C(=O)N3CCN(c4ccccc4)CC3)c1)=N2

>  <score_type>  (32) 
oracle

>  <origin>  (32) 
autodockgpu

>  <m_score__min__energy>  (32) 
-8.7599999999999998

>  <m_primary>  (32) 
energy

>  <rmsd>  (32) 
4.406465302129184

>  <m_score__min__rmsd>  (32) 
4.406465302129184

>  <meeko>  (32) 
{"free_energy": -8.68, "intermolecular_energy": -9.58, "internal_energy": -0.94, "cluster_size": 49, "cluster_id": 1, "rank_in_cluster": 38}

>  <energy>  (32) 
-8.69

>  <cluster_rmsd>  (32) 
0.08

>  <cluster>  (32) 
1

$$$$

     RDKit          3D

 55 59  0  0  0  0  0  0  0  0999 V2000
  140.8260   68.1440  228.9870 C   0  0  0  0  0  0  0  0  0  0  0  0
  140.7380   69.1550  227.8960 C   0  0  0  0  0  0  0  0  0  0  0  0
  141.0830   70.4580  228.2530 C   0  0  0  0  0  0  0  0  0  0  0  0
  141.0090   71.4120  227.2600 C   0  0  0  0  0  0  0  0  0  0  0  0
  140.6120   71.0780  225.9790 C   0  0  0  0  0  0  0  0  0  0  0  0
  140.2680   69.7860  225.6230 C   0  0  0  0  0  0  0  0  0  0  0  0
  140.3420   68.8310  226.6170 C   0  0  0  0  0  0  0  0  0  0  0  0
  139.9020   69.8230  224.1900 C   0  0  0  0  0  0  0  0  0  0  0  0
  140.0820   71.2510  223.8150 C   0  0  0  0  0  0  0  0  0  0  0  0
  139.8500   71.8270  222.4950 C   0  0  0  0  0  0  0  0  0  0  0  0
  140.2000   71.1660  221.3240 C   0  0  0  0  0  0  0  0  0  0  0  0
  139.9590   71.7540  220.0880 C   0  0  0  0  0  0  0  0  0  0  0  0
  139.3730   72.9990  219.9640 C   0  0  0  0  0  0  0  0  0  0  0  0
  139.0280   73.6530  221.1240 C   0  0  0  0  0  0  0  0  0  0  0  0
  138.4000   74.9700  221.1520 C   0  0  0  0  0  0  0  0  0  0  0  0
  137.1950   75.0660  221.4890 O   0  0  0  0  0  0  0  0  0  0  0  0
  139.1860   76.0990  220.7900 N   0  0  0  0  0  0  0  0  0  0  0  0
  140.5970   75.9570  220.3970 C   0  0  0  0  0  0  0  0  0  0  0  0
  141.3830   76.9140  221.2520 C   0  0  0  0  0  0  0  0  0  0  0  0
  140.7410   78.2350  221.3160 N   0  0  0  0  0  0  0  0  0  0  0  0
  141.2170   79.1980  222.2430 C   0  0  0  0  0  0  0  0  0  0  0  0
  140.3930   80.0640  222.9340 C   0  0  0  0  0  0  0  0  0  0  0  0
  140.9010   80.9870  223.8290 C   0  0  0  0  0  0  0  0  0  0  0  0
  142.2640   81.0490  224.0410 C   0  0  0  0  0  0  0  0  0  0  0  0
  143.1330   80.1890  223.3610 C   0  0  0  0  0  0  0  0  0  0  0  0
  142.5710   79.2890  222.4810 C   0  0  0  0  0  0  0  0  0  0  0  0
  139.6450   78.4520  220.4020 C   0  0  0  0  0  0  0  0  0  0  0  0
  138.5880   77.4160  220.8040 C   0  0  0  0  0  0  0  0  0  0  0  0
  139.2670   73.0690  222.3660 C   0  0  0  0  0  0  0  0  0  0  0  0
  140.4740   71.8980  224.8440 N   0  0  0  0  0  0  0  0  0  0  0  0
  140.7818   68.6517  229.9618 H   0  0  0  0  0  0  0  0  0  0  0  0
  139.9858   67.4391  228.9023 H   0  0  0  0  0  0  0  0  0  0  0  0
  141.7753   67.5948  228.9023 H   0  0  0  0  0  0  0  0  0  0  0  0
  141.3984   70.7122  229.2757 H   0  0  0  0  0  0  0  0  0  0  0  0
  141.2701   72.4553  227.4911 H   0  0  0  0  0  0  0  0  0  0  0  0
  140.0791   67.7889  226.3827 H   0  0  0  0  0  0  0  0  0  0  0  0
  140.5666   69.1758  223.5989 H   0  0  0  0  0  0  0  0  0  0  0  0
  138.8811   69.4591  224.0020 H   0  0  0  0  0  0  0  0  0  0  0  0
  140.6700   70.1728  221.3755 H   0  0  0  0  0  0  0  0  0  0  0  0
  140.2449   71.2089  219.1763 H   0  0  0  0  0  0  0  0  0  0  0  0
  139.1897   73.4492  218.9773 H   0  0  0  0  0  0  0  0  0  0  0  0
  140.9371   74.9256  220.5717 H   0  0  0  0  0  0  0  0  0  0  0  0
  140.7339   76.1777  219.3281 H   0  0  0  0  0  0  0  0  0  0  0  0
  141.4583   76.5040  222.2700 H   0  0  0  0  0  0  0  0  0  0  0  0
  142.3798   77.0372  220.8034 H   0  0  0  0  0  0  0  0  0  0  0  0
  139.3065   80.0184  222.7684 H   0  0  0  0  0  0  0  0  0  0  0  0
  140.2247   81.6667  224.3680 H   0  0  0  0  0  0  0  0  0  0  0  0
  142.6710   81.7827  224.7524 H   0  0  0  0  0  0  0  0  0  0  0  0
  144.2204   80.2293  223.5220 H   0  0  0  0  0  0  0  0  0  0  0  0
  143.2408   78.6055  221.9387 H   0  0  0  0  0  0  0  0  0  0  0  0
  139.2478   79.4722  220.5087 H   0  0  0  0  0  0  0  0  0  0  0  0
  139.9531   78.3444  219.3515 H   0  0  0  0  0  0  0  0  0  0  0  0
  138.2172   77.6414  221.8148 H   0  0  0  0  0  0  0  0  0  0  0  0
  137.7483   77.4490  220.0942 H   0  0  0  0  0  0  0  0  0  0  0  0
  138.9805   73.6182  223.2750 H   0  0  0  0  0  0  0  0  0  0  0  0
  1  2  1  0
  2  3  2  0
  3  4  1  0
  4  5  2  0
  5  6  1  0
  6  7  2  0
  6  8  1  0
  8  9  1  0
  9 10  1  0
 10 11  2  0
 11 12  1  0
 12 13  2  0
 13 14  1  0
 14 15  1  0
 15 16  2  0
 15 17  1  0
 17 18  1  0
 18 19  1  0
 19 20  1  0
 20 21  1  0
 21 22  2  0
 22 23  1  0
 23 24  2  0
 24 25  1  0
 25 26  2  0
 20 27  1  0
 27 28  1  0
 14 29  2  0
  9 30  2  0
  7  2  1  0
 29 10  1  0
 30  5  1  0
 28 17  1  0
 26 21  1  0
  1 31  1  0
  1 32  1  0
  1 33  1  0
  3 34  1  0
  4 35  1  0
  7 36  1  0
  8 37  1  0
  8 38  1  0
 11 39  1  0
 12 40  1  0
 13 41  1  0
 18 42  1  0
 18 43  1  0
 19 44  1  0
 19 45  1  0
 22 46  1  0
 23 47  1  0
 24 48  1  0
 25 49  1  0
 26 50  1  0
 27 51  1  0
 27 52  1  0
 28 53  1  0
 28 54  1  0
 29 55  1  0
M  END
>  <smiles>  (33) 
Cc1ccc2c(c1)CC(c1cccc(C(=O)N3CCN(c4ccccc4)CC3)c1)=N2

>  <score_type>  (33) 
oracle

>  <origin>  (33) 
autodockgpu

>  <m_score__min__energy>  (33) 
-8.7599999999999998

>  <m_primary>  (33) 
energy

>  <rmsd>  (33) 
4.444453006338743

>  <m_score__min__rmsd>  (33) 
4.444453006338743

>  <meeko>  (33) 
{"free_energy": -8.68, "intermolecular_energy": -9.58, "internal_energy": -0.94, "cluster_size": 49, "cluster_id": 1, "rank_in_cluster": 40}

>  <energy>  (33) 
-8.69

>  <cluster_rmsd>  (33) 
0.52

>  <cluster>  (33) 
1

$$$$

     RDKit          3D

 55 59  0  0  0  0  0  0  0  0999 V2000
  140.7470   68.1610  228.9650 C   0  0  0  0  0  0  0  0  0  0  0  0
  140.6990   69.1740  227.8740 C   0  0  0  0  0  0  0  0  0  0  0  0
  141.0930   70.4630  228.2300 C   0  0  0  0  0  0  0  0  0  0  0  0
  141.0560   71.4190  227.2370 C   0  0  0  0  0  0  0  0  0  0  0  0
  140.6460   71.1000  225.9550 C   0  0  0  0  0  0  0  0  0  0  0  0
  140.2530   69.8220  225.6000 C   0  0  0  0  0  0  0  0  0  0  0  0
  140.2910   68.8660  226.5940 C   0  0  0  0  0  0  0  0  0  0  0  0
  139.8890   69.8730  224.1670 C   0  0  0  0  0  0  0  0  0  0  0  0
  140.1230   71.2930  223.7910 C   0  0  0  0  0  0  0  0  0  0  0  0
  139.9140   71.8780  222.4720 C   0  0  0  0  0  0  0  0  0  0  0  0
  140.2960   71.2290  221.3030 C   0  0  0  0  0  0  0  0  0  0  0  0
  140.0760   71.8250  220.0670 C   0  0  0  0  0  0  0  0  0  0  0  0
  139.4790   73.0650  219.9400 C   0  0  0  0  0  0  0  0  0  0  0  0
  139.1020   73.7060  221.0980 C   0  0  0  0  0  0  0  0  0  0  0  0
  138.4590   75.0150  221.1220 C   0  0  0  0  0  0  0  0  0  0  0  0
  137.2640   75.1040  221.4970 O   0  0  0  0  0  0  0  0  0  0  0  0
  139.2190   76.1470  220.7140 N   0  0  0  0  0  0  0  0  0  0  0  0
  140.6170   76.0130  220.2770 C   0  0  0  0  0  0  0  0  0  0  0  0
  141.4190   76.9950  221.0880 C   0  0  0  0  0  0  0  0  0  0  0  0
  140.7640   78.3090  221.1490 N   0  0  0  0  0  0  0  0  0  0  0  0
  141.2570   79.2950  222.0410 C   0  0  0  0  0  0  0  0  0  0  0  0
  142.0710   79.0100  223.1200 C   0  0  0  0  0  0  0  0  0  0  0  0
  142.5300   80.0040  223.9640 C   0  0  0  0  0  0  0  0  0  0  0  0
  142.1690   81.3160  223.7270 C   0  0  0  0  0  0  0  0  0  0  0  0
  141.3470   81.6470  222.6450 C   0  0  0  0  0  0  0  0  0  0  0  0
  140.9190   80.6150  221.8370 C   0  0  0  0  0  0  0  0  0  0  0  0
  139.6360   78.4970  220.2680 C   0  0  0  0  0  0  0  0  0  0  0  0
  138.6050   77.4560  220.7230 C   0  0  0  0  0  0  0  0  0  0  0  0
  139.3200   73.1140  222.3400 C   0  0  0  0  0  0  0  0  0  0  0  0
  140.5400   71.9240  224.8200 N   0  0  0  0  0  0  0  0  0  0  0  0
  140.7229   68.6704  229.9396 H   0  0  0  0  0  0  0  0  0  0  0  0
  139.8796   67.4898  228.8805 H   0  0  0  0  0  0  0  0  0  0  0  0
  141.6739   67.5748  228.8805 H   0  0  0  0  0  0  0  0  0  0  0  0
  141.4174   70.7055  229.2527 H   0  0  0  0  0  0  0  0  0  0  0  0
  141.3572   72.4514  227.4679 H   0  0  0  0  0  0  0  0  0  0  0  0
  139.9888   67.8346  226.3597 H   0  0  0  0  0  0  0  0  0  0  0  0
  140.5286   69.2008  223.5762 H   0  0  0  0  0  0  0  0  0  0  0  0
  138.8549   69.5484  223.9793 H   0  0  0  0  0  0  0  0  0  0  0  0
  140.7743   70.2399  221.3568 H   0  0  0  0  0  0  0  0  0  0  0  0
  140.3881   71.2909  219.1574 H   0  0  0  0  0  0  0  0  0  0  0  0
  139.3119   73.5212  218.9531 H   0  0  0  0  0  0  0  0  0  0  0  0
  140.9748   74.9889  220.4594 H   0  0  0  0  0  0  0  0  0  0  0  0
  140.7163   76.2144  219.2002 H   0  0  0  0  0  0  0  0  0  0  0  0
  141.5326   76.6050  222.1103 H   0  0  0  0  0  0  0  0  0  0  0  0
  142.3989   77.1213  220.6044 H   0  0  0  0  0  0  0  0  0  0  0  0
  142.3611   77.9665  223.3124 H   0  0  0  0  0  0  0  0  0  0  0  0
  143.1772   79.7522  224.8171 H   0  0  0  0  0  0  0  0  0  0  0  0
  142.5321   82.1094  224.3968 H   0  0  0  0  0  0  0  0  0  0  0  0
  141.0538   82.6885  222.4466 H   0  0  0  0  0  0  0  0  0  0  0  0
  140.2716   80.8591  220.9819 H   0  0  0  0  0  0  0  0  0  0  0  0
  139.2302   79.5143  220.3698 H   0  0  0  0  0  0  0  0  0  0  0  0
  139.9107   78.3741  219.2100 H   0  0  0  0  0  0  0  0  0  0  0  0
  138.2638   77.6959  221.7409 H   0  0  0  0  0  0  0  0  0  0  0  0
  137.7425   77.4656  220.0404 H   0  0  0  0  0  0  0  0  0  0  0  0
  139.0070   73.6521  223.2469 H   0  0  0  0  0  0  0  0  0  0  0  0
  1  2  1  0
  2  3  2  0
  3  4  1  0
  4  5  2  0
  5  6  1  0
  6  7  2  0
  6  8  1  0
  8  9  1  0
  9 10  1  0
 10 11  2  0
 11 12  1  0
 12 13  2  0
 13 14  1  0
 14 15  1  0
 15 16  2  0
 15 17  1  0
 17 18  1  0
 18 19  1  0
 19 20  1  0
 20 21  1  0
 21 22  2  0
 22 23  1  0
 23 24  2  0
 24 25  1  0
 25 26  2  0
 20 27  1  0
 27 28  1  0
 14 29  2  0
  9 30  2  0
  7  2  1  0
 29 10  1  0
 30  5  1  0
 28 17  1  0
 26 21  1  0
  1 31  1  0
  1 32  1  0
  1 33  1  0
  3 34  1  0
  4 35  1  0
  7 36  1  0
  8 37  1  0
  8 38  1  0
 11 39  1  0
 12 40  1  0
 13 41  1  0
 18 42  1  0
 18 43  1  0
 19 44  1  0
 19 45  1  0
 22 46  1  0
 23 47  1  0
 24 48  1  0
 25 49  1  0
 26 50  1  0
 27 51  1  0
 27 52  1  0
 28 53  1  0
 28 54  1  0
 29 55  1  0
M  END
>  <smiles>  (34) 
Cc1ccc2c(c1)CC(c1cccc(C(=O)N3CCN(c4ccccc4)CC3)c1)=N2

>  <score_type>  (34) 
oracle

>  <origin>  (34) 
autodockgpu

>  <m_score__min__energy>  (34) 
-8.7599999999999998

>  <m_primary>  (34) 
energy

>  <rmsd>  (34) 
4.398568119075516

>  <m_score__min__rmsd>  (34) 
4.398568119075516

>  <meeko>  (34) 
{"free_energy": -8.69, "intermolecular_energy": -9.58, "internal_energy": -0.93, "cluster_size": 49, "cluster_id": 1, "rank_in_cluster": 35}

>  <energy>  (34) 
-8.69

>  <cluster_rmsd>  (34) 
0.46

>  <cluster>  (34) 
1

$$$$

     RDKit          3D

 55 59  0  0  0  0  0  0  0  0999 V2000
  140.7690   68.1590  228.9980 C   0  0  0  0  0  0  0  0  0  0  0  0
  140.7110   69.1680  227.9030 C   0  0  0  0  0  0  0  0  0  0  0  0
  141.0920   70.4620  228.2550 C   0  0  0  0  0  0  0  0  0  0  0  0
  141.0470   71.4130  227.2590 C   0  0  0  0  0  0  0  0  0  0  0  0
  140.6420   71.0860  225.9780 C   0  0  0  0  0  0  0  0  0  0  0  0
  140.2630   69.8030  225.6260 C   0  0  0  0  0  0  0  0  0  0  0  0
  140.3080   68.8500  226.6250 C   0  0  0  0  0  0  0  0  0  0  0  0
  139.9010   69.8450  224.1930 C   0  0  0  0  0  0  0  0  0  0  0  0
  140.1210   71.2650  223.8130 C   0  0  0  0  0  0  0  0  0  0  0  0
  139.9080   71.8430  222.4900 C   0  0  0  0  0  0  0  0  0  0  0  0
  140.2840   71.1870  221.3240 C   0  0  0  0  0  0  0  0  0  0  0  0
  140.0610   71.7770  220.0850 C   0  0  0  0  0  0  0  0  0  0  0  0
  139.4650   73.0170  219.9530 C   0  0  0  0  0  0  0  0  0  0  0  0
  139.0930   73.6650  221.1090 C   0  0  0  0  0  0  0  0  0  0  0  0
  138.4530   74.9750  221.1290 C   0  0  0  0  0  0  0  0  0  0  0  0
  137.2440   75.0610  221.4570 O   0  0  0  0  0  0  0  0  0  0  0  0
  139.2310   76.1110  220.7680 N   0  0  0  0  0  0  0  0  0  0  0  0
  140.6450   75.9810  220.3850 C   0  0  0  0  0  0  0  0  0  0  0  0
  141.4160   76.9480  221.2440 C   0  0  0  0  0  0  0  0  0  0  0  0
  140.7620   78.2630  221.2990 N   0  0  0  0  0  0  0  0  0  0  0  0
  141.2220   79.2330  222.2260 C   0  0  0  0  0  0  0  0  0  0  0  0
  140.3830   80.0700  222.9340 C   0  0  0  0  0  0  0  0  0  0  0  0
  140.8760   81.0010  223.8290 C   0  0  0  0  0  0  0  0  0  0  0  0
  142.2390   81.1020  224.0230 C   0  0  0  0  0  0  0  0  0  0  0  0
  143.1240   80.2720  223.3250 C   0  0  0  0  0  0  0  0  0  0  0  0
  142.5760   79.3620  222.4460 C   0  0  0  0  0  0  0  0  0  0  0  0
  139.6700   78.4670  220.3770 C   0  0  0  0  0  0  0  0  0  0  0  0
  138.6200   77.4220  220.7740 C   0  0  0  0  0  0  0  0  0  0  0  0
  139.3150   73.0790  222.3540 C   0  0  0  0  0  0  0  0  0  0  0  0
  140.5300   71.9050  224.8400 N   0  0  0  0  0  0  0  0  0  0  0  0
  140.7395   68.6716  229.9708 H   0  0  0  0  0  0  0  0  0  0  0  0
  139.9085   67.4788  228.9157 H   0  0  0  0  0  0  0  0  0  0  0  0
  141.7018   67.5818  228.9157 H   0  0  0  0  0  0  0  0  0  0  0  0
  141.4126   70.7114  229.2772 H   0  0  0  0  0  0  0  0  0  0  0  0
  141.3380   72.4491  227.4866 H   0  0  0  0  0  0  0  0  0  0  0  0
  140.0157   67.8148  226.3948 H   0  0  0  0  0  0  0  0  0  0  0  0
  140.5484   69.1774  223.6056 H   0  0  0  0  0  0  0  0  0  0  0  0
  138.8707   69.5090  224.0046 H   0  0  0  0  0  0  0  0  0  0  0  0
  140.7599   70.1970  221.3816 H   0  0  0  0  0  0  0  0  0  0  0  0
  140.3699   71.2377  219.1774 H   0  0  0  0  0  0  0  0  0  0  0  0
  139.2948   73.4678  218.9641 H   0  0  0  0  0  0  0  0  0  0  0  0
  140.9935   74.9532  220.5644 H   0  0  0  0  0  0  0  0  0  0  0  0
  140.7875   76.2000  219.3165 H   0  0  0  0  0  0  0  0  0  0  0  0
  141.4868   76.5416  222.2637 H   0  0  0  0  0  0  0  0  0  0  0  0
  142.4152   77.0788  220.8030 H   0  0  0  0  0  0  0  0  0  0  0  0
  139.2961   79.9943  222.7823 H   0  0  0  0  0  0  0  0  0  0  0  0
  140.1874   81.6564  224.3824 H   0  0  0  0  0  0  0  0  0  0  0  0
  142.6339   81.8428  224.7338 H   0  0  0  0  0  0  0  0  0  0  0  0
  144.2119   80.3428  223.4717 H   0  0  0  0  0  0  0  0  0  0  0  0
  143.2578   78.7022  221.8894 H   0  0  0  0  0  0  0  0  0  0  0  0
  139.2623   79.4836  220.4784 H   0  0  0  0  0  0  0  0  0  0  0  0
  139.9865   78.3595  219.3290 H   0  0  0  0  0  0  0  0  0  0  0  0
  138.2395   77.6464  221.7814 H   0  0  0  0  0  0  0  0  0  0  0  0
  137.7852   77.4450  220.0581 H   0  0  0  0  0  0  0  0  0  0  0  0
  139.0060   73.6222  223.2592 H   0  0  0  0  0  0  0  0  0  0  0  0
  1  2  1  0
  2  3  2  0
  3  4  1  0
  4  5  2  0
  5  6  1  0
  6  7  2  0
  6  8  1  0
  8  9  1  0
  9 10  1  0
 10 11  2  0
 11 12  1  0
 12 13  2  0
 13 14  1  0
 14 15  1  0
 15 16  2  0
 15 17  1  0
 17 18  1  0
 18 19  1  0
 19 20  1  0
 20 21  1  0
 21 22  2  0
 22 23  1  0
 23 24  2  0
 24 25  1  0
 25 26  2  0
 20 27  1  0
 27 28  1  0
 14 29  2  0
  9 30  2  0
  7  2  1  0
 29 10  1  0
 30  5  1  0
 28 17  1  0
 26 21  1  0
  1 31  1  0
  1 32  1  0
  1 33  1  0
  3 34  1  0
  4 35  1  0
  7 36  1  0
  8 37  1  0
  8 38  1  0
 11 39  1  0
 12 40  1  0
 13 41  1  0
 18 42  1  0
 18 43  1  0
 19 44  1  0
 19 45  1  0
 22 46  1  0
 23 47  1  0
 24 48  1  0
 25 49  1  0
 26 50  1  0
 27 51  1  0
 27 52  1  0
 28 53  1  0
 28 54  1  0
 29 55  1  0
M  END
>  <smiles>  (35) 
Cc1ccc2c(c1)CC(c1cccc(C(=O)N3CCN(c4ccccc4)CC3)c1)=N2

>  <score_type>  (35) 
oracle

>  <origin>  (35) 
autodockgpu

>  <m_score__min__energy>  (35) 
-8.7599999999999998

>  <m_primary>  (35) 
energy

>  <rmsd>  (35) 
4.45581467052061

>  <m_score__min__rmsd>  (35) 
4.45581467052061

>  <meeko>  (35) 
{"free_energy": -8.72, "intermolecular_energy": -9.62, "internal_energy": -0.94, "cluster_size": 49, "cluster_id": 1, "rank_in_cluster": 17}

>  <energy>  (35) 
-8.69

>  <cluster_rmsd>  (35) 
0.45

>  <cluster>  (35) 
1

$$$$

     RDKit          3D

 55 59  0  0  0  0  0  0  0  0999 V2000
  140.7500   68.1380  229.0140 C   0  0  0  0  0  0  0  0  0  0  0  0
  140.7100   69.1480  227.9190 C   0  0  0  0  0  0  0  0  0  0  0  0
  141.1060   70.4380  228.2740 C   0  0  0  0  0  0  0  0  0  0  0  0
  141.0760   71.3900  227.2780 C   0  0  0  0  0  0  0  0  0  0  0  0
  140.6730   71.0690  225.9950 C   0  0  0  0  0  0  0  0  0  0  0  0
  140.2800   69.7910  225.6410 C   0  0  0  0  0  0  0  0  0  0  0  0
  140.3090   68.8370  226.6390 C   0  0  0  0  0  0  0  0  0  0  0  0
  139.9240   69.8380  224.2060 C   0  0  0  0  0  0  0  0  0  0  0  0
  140.1640   71.2560  223.8280 C   0  0  0  0  0  0  0  0  0  0  0  0
  139.9640   71.8370  222.5050 C   0  0  0  0  0  0  0  0  0  0  0  0
  140.3630   71.1900  221.3410 C   0  0  0  0  0  0  0  0  0  0  0  0
  140.1510   71.7820  220.1020 C   0  0  0  0  0  0  0  0  0  0  0  0
  139.5460   73.0170  219.9670 C   0  0  0  0  0  0  0  0  0  0  0  0
  139.1520   73.6570  221.1200 C   0  0  0  0  0  0  0  0  0  0  0  0
  138.4990   74.9610  221.1360 C   0  0  0  0  0  0  0  0  0  0  0  0
  137.2910   75.0380  221.4690 O   0  0  0  0  0  0  0  0  0  0  0  0
  139.2650   76.1030  220.7660 N   0  0  0  0  0  0  0  0  0  0  0  0
  140.6790   75.9840  220.3780 C   0  0  0  0  0  0  0  0  0  0  0  0
  141.4440   76.9630  221.2270 C   0  0  0  0  0  0  0  0  0  0  0  0
  140.7770   78.2710  221.2790 N   0  0  0  0  0  0  0  0  0  0  0  0
  141.2320   79.2510  222.1990 C   0  0  0  0  0  0  0  0  0  0  0  0
  140.3870   80.0650  222.9280 C   0  0  0  0  0  0  0  0  0  0  0  0
  140.8750   81.0060  223.8150 C   0  0  0  0  0  0  0  0  0  0  0  0
  142.2400   81.1400  223.9800 C   0  0  0  0  0  0  0  0  0  0  0  0
  143.1300   80.3340  223.2610 C   0  0  0  0  0  0  0  0  0  0  0  0
  142.5870   79.4140  222.3910 C   0  0  0  0  0  0  0  0  0  0  0  0
  139.6800   78.4610  220.3610 C   0  0  0  0  0  0  0  0  0  0  0  0
  138.6410   77.4080  220.7680 C   0  0  0  0  0  0  0  0  0  0  0  0
  139.3620   73.0680  222.3650 C   0  0  0  0  0  0  0  0  0  0  0  0
  140.5760   71.8900  224.8570 N   0  0  0  0  0  0  0  0  0  0  0  0
  140.7297   68.6509  229.9869 H   0  0  0  0  0  0  0  0  0  0  0  0
  139.8775   67.4732  228.9317 H   0  0  0  0  0  0  0  0  0  0  0  0
  141.6724   67.5443  228.9317 H   0  0  0  0  0  0  0  0  0  0  0  0
  141.4261   70.6828  229.2975 H   0  0  0  0  0  0  0  0  0  0  0  0
  141.3778   72.4226  227.5076 H   0  0  0  0  0  0  0  0  0  0  0  0
  140.0050   67.8058  226.4063 H   0  0  0  0  0  0  0  0  0  0  0  0
  140.5651   69.1624  223.6207 H   0  0  0  0  0  0  0  0  0  0  0  0
  138.8903   69.5151  224.0130 H   0  0  0  0  0  0  0  0  0  0  0  0
  140.8488   70.2049  221.4012 H   0  0  0  0  0  0  0  0  0  0  0  0
  140.4763   71.2487  219.1966 H   0  0  0  0  0  0  0  0  0  0  0  0
  139.3857   73.4704  218.9777 H   0  0  0  0  0  0  0  0  0  0  0  0
  141.0380   74.9607  220.5625 H   0  0  0  0  0  0  0  0  0  0  0  0
  140.8150   76.1977  219.3076 H   0  0  0  0  0  0  0  0  0  0  0  0
  141.5248   76.5627  222.2484 H   0  0  0  0  0  0  0  0  0  0  0  0
  142.4392   77.1020  220.7795 H   0  0  0  0  0  0  0  0  0  0  0  0
  139.2994   79.9618  222.7995 H   0  0  0  0  0  0  0  0  0  0  0  0
  140.1823   81.6428  224.3848 H   0  0  0  0  0  0  0  0  0  0  0  0
  142.6318   81.8886  224.6844 H   0  0  0  0  0  0  0  0  0  0  0  0
  144.2186   80.4311  223.3854 H   0  0  0  0  0  0  0  0  0  0  0  0
  143.2734   78.7737  221.8175 H   0  0  0  0  0  0  0  0  0  0  0  0
  139.2636   79.4744  220.4593 H   0  0  0  0  0  0  0  0  0  0  0  0
  139.9928   78.3517  219.3121 H   0  0  0  0  0  0  0  0  0  0  0  0
  138.2626   77.6340  221.7759 H   0  0  0  0  0  0  0  0  0  0  0  0
  137.8027   77.4194  220.0558 H   0  0  0  0  0  0  0  0  0  0  0  0
  139.0356   73.6049  223.2679 H   0  0  0  0  0  0  0  0  0  0  0  0
  1  2  1  0
  2  3  2  0
  3  4  1  0
  4  5  2  0
  5  6  1  0
  6  7  2  0
  6  8  1  0
  8  9  1  0
  9 10  1  0
 10 11  2  0
 11 12  1  0
 12 13  2  0
 13 14  1  0
 14 15  1  0
 15 16  2  0
 15 17  1  0
 17 18  1  0
 18 19  1  0
 19 20  1  0
 20 21  1  0
 21 22  2  0
 22 23  1  0
 23 24  2  0
 24 25  1  0
 25 26  2  0
 20 27  1  0
 27 28  1  0
 14 29  2  0
  9 30  2  0
  7  2  1  0
 29 10  1  0
 30  5  1  0
 28 17  1  0
 26 21  1  0
  1 31  1  0
  1 32  1  0
  1 33  1  0
  3 34  1  0
  4 35  1  0
  7 36  1  0
  8 37  1  0
  8 38  1  0
 11 39  1  0
 12 40  1  0
 13 41  1  0
 18 42  1  0
 18 43  1  0
 19 44  1  0
 19 45  1  0
 22 46  1  0
 23 47  1  0
 24 48  1  0
 25 49  1  0
 26 50  1  0
 27 51  1  0
 27 52  1  0
 28 53  1  0
 28 54  1  0
 29 55  1  0
M  END
>  <smiles>  (36) 
Cc1ccc2c(c1)CC(c1cccc(C(=O)N3CCN(c4ccccc4)CC3)c1)=N2

>  <score_type>  (36) 
oracle

>  <origin>  (36) 
autodockgpu

>  <m_score__min__energy>  (36) 
-8.7599999999999998

>  <m_primary>  (36) 
energy

>  <rmsd>  (36) 
4.450648940646226

>  <m_score__min__rmsd>  (36) 
4.450648940646226

>  <meeko>  (36) 
{"free_energy": -8.76, "intermolecular_energy": -9.65, "internal_energy": -0.93, "cluster_size": 49, "cluster_id": 1, "rank_in_cluster": 4}

>  <energy>  (36) 
-8.69

>  <cluster_rmsd>  (36) 
0.12

>  <cluster>  (36) 
1

$$$$

     RDKit          3D

 55 59  0  0  0  0  0  0  0  0999 V2000
  141.0270   68.1450  229.0500 C   0  0  0  0  0  0  0  0  0  0  0  0
  140.8370   69.1120  227.9320 C   0  0  0  0  0  0  0  0  0  0  0  0
  141.1220   70.4440  228.2310 C   0  0  0  0  0  0  0  0  0  0  0  0
  140.9530   71.3570  227.2120 C   0  0  0  0  0  0  0  0  0  0  0  0
  140.5230   70.9570  225.9600 C   0  0  0  0  0  0  0  0  0  0  0  0
  140.2390   69.6370  225.6610 C   0  0  0  0  0  0  0  0  0  0  0  0
  140.4080   68.7230  226.6820 C   0  0  0  0  0  0  0  0  0  0  0  0
  139.8130   69.6040  224.2450 C   0  0  0  0  0  0  0  0  0  0  0  0
  139.8950   71.0250  223.8170 C   0  0  0  0  0  0  0  0  0  0  0  0
  139.5770   71.5420  222.4900 C   0  0  0  0  0  0  0  0  0  0  0  0
  139.7550   70.7870  221.3370 C   0  0  0  0  0  0  0  0  0  0  0  0
  139.4370   71.3220  220.0940 C   0  0  0  0  0  0  0  0  0  0  0  0
  138.9390   72.6020  219.9450 C   0  0  0  0  0  0  0  0  0  0  0  0
  138.7640   73.3480  221.0880 C   0  0  0  0  0  0  0  0  0  0  0  0
  138.2450   74.7110  221.0900 C   0  0  0  0  0  0  0  0  0  0  0  0
  137.0560   74.9140  221.4390 O   0  0  0  0  0  0  0  0  0  0  0  0
  139.1140   75.7640  220.6870 N   0  0  0  0  0  0  0  0  0  0  0  0
  140.5020   75.4980  220.2800 C   0  0  0  0  0  0  0  0  0  0  0  0
  141.3760   76.4090  221.0990 C   0  0  0  0  0  0  0  0  0  0  0  0
  140.8440   77.7780  221.1370 N   0  0  0  0  0  0  0  0  0  0  0  0
  141.4100   78.7230  222.0310 C   0  0  0  0  0  0  0  0  0  0  0  0
  141.5080   78.5210  223.3940 C   0  0  0  0  0  0  0  0  0  0  0  0
  142.0680   79.4690  224.2280 C   0  0  0  0  0  0  0  0  0  0  0  0
  142.5430   80.6500  223.6920 C   0  0  0  0  0  0  0  0  0  0  0  0
  142.4630   80.8940  222.3170 C   0  0  0  0  0  0  0  0  0  0  0  0
  141.8940   79.9130  221.5330 C   0  0  0  0  0  0  0  0  0  0  0  0
  139.7560   78.0620  220.2320 C   0  0  0  0  0  0  0  0  0  0  0  0
  138.6240   77.1250  220.6750 C   0  0  0  0  0  0  0  0  0  0  0  0
  139.0800   72.8180  222.3370 C   0  0  0  0  0  0  0  0  0  0  0  0
  140.2920   71.7280  224.8070 N   0  0  0  0  0  0  0  0  0  0  0  0
  140.9238   68.6705  230.0108 H   0  0  0  0  0  0  0  0  0  0  0  0
  140.2674   67.3522  228.9822 H   0  0  0  0  0  0  0  0  0  0  0  0
  142.0300   67.6985  228.9822 H   0  0  0  0  0  0  0  0  0  0  0  0
  141.4646   70.7509  229.2302 H   0  0  0  0  0  0  0  0  0  0  0  0
  141.1635   72.4206  227.3978 H   0  0  0  0  0  0  0  0  0  0  0  0
  140.1953   67.6604  226.4931 H   0  0  0  0  0  0  0  0  0  0  0  0
  140.4888   68.9750  223.6470 H   0  0  0  0  0  0  0  0  0  0  0  0
  138.8078   69.1772  224.1130 H   0  0  0  0  0  0  0  0  0  0  0  0
  140.1489   69.7624  221.4082 H   0  0  0  0  0  0  0  0  0  0  0  0
  139.5873   70.7038  219.1966 H   0  0  0  0  0  0  0  0  0  0  0  0
  138.6924   73.0083  218.9530 H   0  0  0  0  0  0  0  0  0  0  0  0
  140.7600   74.4471  220.4774 H   0  0  0  0  0  0  0  0  0  0  0  0
  140.6401   75.6799  219.2040 H   0  0  0  0  0  0  0  0  0  0  0  0
  141.4339   76.0198  222.1262 H   0  0  0  0  0  0  0  0  0  0  0  0
  142.3724   76.4397  220.6340 H   0  0  0  0  0  0  0  0  0  0  0  0
  141.1308   77.5822  223.8258 H   0  0  0  0  0  0  0  0  0  0  0  0
  142.1351   79.2849  225.3104 H   0  0  0  0  0  0  0  0  0  0  0  0
  142.9891   81.4070  224.3537 H   0  0  0  0  0  0  0  0  0  0  0  0
  142.8388   81.8305  221.8790 H   0  0  0  0  0  0  0  0  0  0  0  0
  141.8224   80.0902  220.4497 H   0  0  0  0  0  0  0  0  0  0  0  0
  139.4448   79.1136  220.3179 H   0  0  0  0  0  0  0  0  0  0  0  0
  140.0382   77.9046  219.1805 H   0  0  0  0  0  0  0  0  0  0  0  0
  138.2881   77.4046  221.6845 H   0  0  0  0  0  0  0  0  0  0  0  0
  137.7786   77.2086  219.9761 H   0  0  0  0  0  0  0  0  0  0  0  0
  138.9275   73.4395  223.2317 H   0  0  0  0  0  0  0  0  0  0  0  0
  1  2  1  0
  2  3  2  0
  3  4  1  0
  4  5  2  0
  5  6  1  0
  6  7  2  0
  6  8  1  0
  8  9  1  0
  9 10  1  0
 10 11  2  0
 11 12  1  0
 12 13  2  0
 13 14  1  0
 14 15  1  0
 15 16  2  0
 15 17  1  0
 17 18  1  0
 18 19  1  0
 19 20  1  0
 20 21  1  0
 21 22  2  0
 22 23  1  0
 23 24  2  0
 24 25  1  0
 25 26  2  0
 20 27  1  0
 27 28  1  0
 14 29  2  0
  9 30  2  0
  7  2  1  0
 29 10  1  0
 30  5  1  0
 28 17  1  0
 26 21  1  0
  1 31  1  0
  1 32  1  0
  1 33  1  0
  3 34  1  0
  4 35  1  0
  7 36  1  0
  8 37  1  0
  8 38  1  0
 11 39  1  0
 12 40  1  0
 13 41  1  0
 18 42  1  0
 18 43  1  0
 19 44  1  0
 19 45  1  0
 22 46  1  0
 23 47  1  0
 24 48  1  0
 25 49  1  0
 26 50  1  0
 27 51  1  0
 27 52  1  0
 28 53  1  0
 28 54  1  0
 29 55  1  0
M  END
>  <smiles>  (37) 
Cc1ccc2c(c1)CC(c1cccc(C(=O)N3CCN(c4ccccc4)CC3)c1)=N2

>  <score_type>  (37) 
oracle

>  <origin>  (37) 
autodockgpu

>  <m_score__min__energy>  (37) 
-8.7599999999999998

>  <m_primary>  (37) 
energy

>  <rmsd>  (37) 
4.115304557242275

>  <m_score__min__rmsd>  (37) 
4.115304557242275

>  <meeko>  (37) 
{"free_energy": -8.61, "intermolecular_energy": -9.5, "internal_energy": -0.98, "cluster_size": 49, "cluster_id": 1, "rank_in_cluster": 47}

>  <energy>  (37) 
-8.69

>  <cluster_rmsd>  (37) 
0.48

>  <cluster>  (37) 
1

$$$$

     RDKit          3D

 55 59  0  0  0  0  0  0  0  0999 V2000
  140.9220   68.1510  229.0480 C   0  0  0  0  0  0  0  0  0  0  0  0
  140.7890   69.1330  227.9340 C   0  0  0  0  0  0  0  0  0  0  0  0
  141.1040   70.4530  228.2540 C   0  0  0  0  0  0  0  0  0  0  0  0
  140.9880   71.3800  227.2400 C   0  0  0  0  0  0  0  0  0  0  0  0
  140.5800   71.0040  225.9730 C   0  0  0  0  0  0  0  0  0  0  0  0
  140.2670   69.6950  225.6540 C   0  0  0  0  0  0  0  0  0  0  0  0
  140.3820   68.7670  226.6700 C   0  0  0  0  0  0  0  0  0  0  0  0
  139.8770   69.6880  224.2270 C   0  0  0  0  0  0  0  0  0  0  0  0
  140.0110   71.1100  223.8150 C   0  0  0  0  0  0  0  0  0  0  0  0
  139.7430   71.6480  222.4860 C   0  0  0  0  0  0  0  0  0  0  0  0
  140.0110   70.9290  221.3270 C   0  0  0  0  0  0  0  0  0  0  0  0
  139.7380   71.4820  220.0810 C   0  0  0  0  0  0  0  0  0  0  0  0
  139.1990   72.7460  219.9350 C   0  0  0  0  0  0  0  0  0  0  0  0
  138.9360   73.4570  221.0840 C   0  0  0  0  0  0  0  0  0  0  0  0
  138.3650   74.7990  221.0900 C   0  0  0  0  0  0  0  0  0  0  0  0
  137.1700   74.9550  221.4420 O   0  0  0  0  0  0  0  0  0  0  0  0
  139.1920   75.8850  220.6880 N   0  0  0  0  0  0  0  0  0  0  0  0
  140.5890   75.6730  220.2780 C   0  0  0  0  0  0  0  0  0  0  0  0
  141.4290   76.6150  221.0980 C   0  0  0  0  0  0  0  0  0  0  0  0
  140.8450   77.9630  221.1390 N   0  0  0  0  0  0  0  0  0  0  0  0
  141.3760   78.9270  222.0350 C   0  0  0  0  0  0  0  0  0  0  0  0
  141.6840   78.6550  223.3530 C   0  0  0  0  0  0  0  0  0  0  0  0
  142.2010   79.6260  224.1900 C   0  0  0  0  0  0  0  0  0  0  0  0
  142.4160   80.9000  223.7020 C   0  0  0  0  0  0  0  0  0  0  0  0
  142.1170   81.2160  222.3720 C   0  0  0  0  0  0  0  0  0  0  0  0
  141.6040   80.2090  221.5840 C   0  0  0  0  0  0  0  0  0  0  0  0
  139.7450   78.2060  220.2370 C   0  0  0  0  0  0  0  0  0  0  0  0
  138.6510   77.2260  220.6790 C   0  0  0  0  0  0  0  0  0  0  0  0
  139.2070   72.9080  222.3360 C   0  0  0  0  0  0  0  0  0  0  0  0
  140.4020   71.7920  224.8220 N   0  0  0  0  0  0  0  0  0  0  0  0
  140.8507   68.6774  230.0113 H   0  0  0  0  0  0  0  0  0  0  0  0
  140.1167   67.4050  228.9773 H   0  0  0  0  0  0  0  0  0  0  0  0
  141.8967   67.6461  228.9773 H   0  0  0  0  0  0  0  0  0  0  0  0
  141.4288   70.7404  229.2649 H   0  0  0  0  0  0  0  0  0  0  0  0
  141.2237   72.4353  227.4418 H   0  0  0  0  0  0  0  0  0  0  0  0
  140.1435   67.7128  226.4656 H   0  0  0  0  0  0  0  0  0  0  0  0
  140.5496   69.0451  223.6402 H   0  0  0  0  0  0  0  0  0  0  0  0
  138.8635   69.2923  224.0653 H   0  0  0  0  0  0  0  0  0  0  0  0
  140.4407   69.9187  221.3959 H   0  0  0  0  0  0  0  0  0  0  0  0
  139.9590   70.8923  219.1791 H   0  0  0  0  0  0  0  0  0  0  0  0
  138.9886   73.1670  218.9408 H   0  0  0  0  0  0  0  0  0  0  0  0
  140.8873   74.6322  220.4725 H   0  0  0  0  0  0  0  0  0  0  0  0
  140.7184   75.8625  219.2022 H   0  0  0  0  0  0  0  0  0  0  0  0
  141.5028   76.2264  222.1244 H   0  0  0  0  0  0  0  0  0  0  0  0
  142.4231   76.6843  220.6323 H   0  0  0  0  0  0  0  0  0  0  0  0
  141.5140   77.6419  223.7463 H   0  0  0  0  0  0  0  0  0  0  0  0
  142.4393   79.3859  225.2367 H   0  0  0  0  0  0  0  0  0  0  0  0
  142.8268   81.6748  224.3661 H   0  0  0  0  0  0  0  0  0  0  0  0
  142.2847   82.2269  221.9721 H   0  0  0  0  0  0  0  0  0  0  0  0
  141.3629   80.4414  220.5362 H   0  0  0  0  0  0  0  0  0  0  0  0
  139.3935   79.2446  220.3256 H   0  0  0  0  0  0  0  0  0  0  0  0
  140.0314   78.0611  219.1849 H   0  0  0  0  0  0  0  0  0  0  0  0
  138.3058   77.4906  221.6893 H   0  0  0  0  0  0  0  0  0  0  0  0
  137.8026   77.2785  219.9808 H   0  0  0  0  0  0  0  0  0  0  0  0
  138.9852   73.5013  223.2353 H   0  0  0  0  0  0  0  0  0  0  0  0
  1  2  1  0
  2  3  2  0
  3  4  1  0
  4  5  2  0
  5  6  1  0
  6  7  2  0
  6  8  1  0
  8  9  1  0
  9 10  1  0
 10 11  2  0
 11 12  1  0
 12 13  2  0
 13 14  1  0
 14 15  1  0
 15 16  2  0
 15 17  1  0
 17 18  1  0
 18 19  1  0
 19 20  1  0
 20 21  1  0
 21 22  2  0
 22 23  1  0
 23 24  2  0
 24 25  1  0
 25 26  2  0
 20 27  1  0
 27 28  1  0
 14 29  2  0
  9 30  2  0
  7  2  1  0
 29 10  1  0
 30  5  1  0
 28 17  1  0
 26 21  1  0
  1 31  1  0
  1 32  1  0
  1 33  1  0
  3 34  1  0
  4 35  1  0
  7 36  1  0
  8 37  1  0
  8 38  1  0
 11 39  1  0
 12 40  1  0
 13 41  1  0
 18 42  1  0
 18 43  1  0
 19 44  1  0
 19 45  1  0
 22 46  1  0
 23 47  1  0
 24 48  1  0
 25 49  1  0
 26 50  1  0
 27 51  1  0
 27 52  1  0
 28 53  1  0
 28 54  1  0
 29 55  1  0
M  END
>  <smiles>  (38) 
Cc1ccc2c(c1)CC(c1cccc(C(=O)N3CCN(c4ccccc4)CC3)c1)=N2

>  <score_type>  (38) 
oracle

>  <origin>  (38) 
autodockgpu

>  <m_score__min__energy>  (38) 
-8.7599999999999998

>  <m_primary>  (38) 
energy

>  <rmsd>  (38) 
4.206939726960213

>  <m_score__min__rmsd>  (38) 
4.206939726960213

>  <meeko>  (38) 
{"free_energy": -8.66, "intermolecular_energy": -9.56, "internal_energy": -0.96, "cluster_size": 49, "cluster_id": 1, "rank_in_cluster": 45}

>  <energy>  (38) 
-8.68

>  <cluster_rmsd>  (38) 
0.1

>  <cluster>  (38) 
1

$$$$

     RDKit          3D

 55 59  0  0  0  0  0  0  0  0999 V2000
  140.8290   68.1690  228.9840 C   0  0  0  0  0  0  0  0  0  0  0  0
  140.7600   69.1790  227.8890 C   0  0  0  0  0  0  0  0  0  0  0  0
  141.1220   70.4780  228.2440 C   0  0  0  0  0  0  0  0  0  0  0  0
  141.0650   71.4300  227.2480 C   0  0  0  0  0  0  0  0  0  0  0  0
  140.6670   71.0980  225.9660 C   0  0  0  0  0  0  0  0  0  0  0  0
  140.3060   69.8100  225.6130 C   0  0  0  0  0  0  0  0  0  0  0  0
  140.3630   68.8570  226.6100 C   0  0  0  0  0  0  0  0  0  0  0  0
  139.9450   69.8490  224.1790 C   0  0  0  0  0  0  0  0  0  0  0  0
  140.1460   71.2720  223.8000 C   0  0  0  0  0  0  0  0  0  0  0  0
  139.9270   71.8490  222.4780 C   0  0  0  0  0  0  0  0  0  0  0  0
  140.2970   71.1910  221.3110 C   0  0  0  0  0  0  0  0  0  0  0  0
  140.0680   71.7790  220.0730 C   0  0  0  0  0  0  0  0  0  0  0  0
  139.4730   73.0200  219.9420 C   0  0  0  0  0  0  0  0  0  0  0  0
  139.1080   73.6700  221.0990 C   0  0  0  0  0  0  0  0  0  0  0  0
  138.4690   74.9810  221.1200 C   0  0  0  0  0  0  0  0  0  0  0  0
  137.2600   75.0680  221.4480 O   0  0  0  0  0  0  0  0  0  0  0  0
  139.2480   76.1160  220.7610 N   0  0  0  0  0  0  0  0  0  0  0  0
  140.6630   75.9850  220.3780 C   0  0  0  0  0  0  0  0  0  0  0  0
  141.4350   76.9500  221.2380 C   0  0  0  0  0  0  0  0  0  0  0  0
  140.7820   78.2650  221.2950 N   0  0  0  0  0  0  0  0  0  0  0  0
  141.2430   79.2340  222.2230 C   0  0  0  0  0  0  0  0  0  0  0  0
  140.4040   80.0610  222.9430 C   0  0  0  0  0  0  0  0  0  0  0  0
  140.8980   80.9910  223.8390 C   0  0  0  0  0  0  0  0  0  0  0  0
  142.2630   81.1000  224.0220 C   0  0  0  0  0  0  0  0  0  0  0  0
  143.1470   80.2810  223.3110 C   0  0  0  0  0  0  0  0  0  0  0  0
  142.5980   79.3720  222.4320 C   0  0  0  0  0  0  0  0  0  0  0  0
  139.6910   78.4720  220.3720 C   0  0  0  0  0  0  0  0  0  0  0  0
  138.6390   77.4280  220.7690 C   0  0  0  0  0  0  0  0  0  0  0  0
  139.3350   73.0860  222.3430 C   0  0  0  0  0  0  0  0  0  0  0  0
  140.5450   71.9170  224.8290 N   0  0  0  0  0  0  0  0  0  0  0  0
  140.7941   68.6804  229.9573 H   0  0  0  0  0  0  0  0  0  0  0  0
  139.9759   67.4796  228.9012 H   0  0  0  0  0  0  0  0  0  0  0  0
  141.7680   67.6020  228.9012 H   0  0  0  0  0  0  0  0  0  0  0  0
  141.4372   70.7306  229.2672 H   0  0  0  0  0  0  0  0  0  0  0  0
  141.3405   72.4700  227.4769 H   0  0  0  0  0  0  0  0  0  0  0  0
  140.0854   67.8182  226.3781 H   0  0  0  0  0  0  0  0  0  0  0  0
  140.6021   69.1907  223.5917 H   0  0  0  0  0  0  0  0  0  0  0  0
  138.9193   69.4996  223.9894 H   0  0  0  0  0  0  0  0  0  0  0  0
  140.7730   70.2009  221.3677 H   0  0  0  0  0  0  0  0  0  0  0  0
  140.3710   71.2376  219.1646 H   0  0  0  0  0  0  0  0  0  0  0  0
  139.2984   73.4696  218.9534 H   0  0  0  0  0  0  0  0  0  0  0  0
  141.0104   74.9566  220.5563 H   0  0  0  0  0  0  0  0  0  0  0  0
  140.8058   76.2053  219.3098 H   0  0  0  0  0  0  0  0  0  0  0  0
  141.5059   76.5421  222.2571 H   0  0  0  0  0  0  0  0  0  0  0  0
  142.4342   77.0807  220.7970 H   0  0  0  0  0  0  0  0  0  0  0  0
  139.3165   79.9780  222.8004 H   0  0  0  0  0  0  0  0  0  0  0  0
  140.2097   81.6389  224.4016 H   0  0  0  0  0  0  0  0  0  0  0  0
  142.6592   81.8386  224.7344 H   0  0  0  0  0  0  0  0  0  0  0  0
  144.2356   80.3593  223.4479 H   0  0  0  0  0  0  0  0  0  0  0  0
  143.2797   78.7204  221.8658 H   0  0  0  0  0  0  0  0  0  0  0  0
  139.2851   79.4893  220.4736 H   0  0  0  0  0  0  0  0  0  0  0  0
  140.0075   78.3651  219.3240 H   0  0  0  0  0  0  0  0  0  0  0  0
  138.2598   77.6520  221.7770 H   0  0  0  0  0  0  0  0  0  0  0  0
  137.8035   77.4532  220.0539 H   0  0  0  0  0  0  0  0  0  0  0  0
  139.0312   73.6310  223.2489 H   0  0  0  0  0  0  0  0  0  0  0  0
  1  2  1  0
  2  3  2  0
  3  4  1  0
  4  5  2  0
  5  6  1  0
  6  7  2  0
  6  8  1  0
  8  9  1  0
  9 10  1  0
 10 11  2  0
 11 12  1  0
 12 13  2  0
 13 14  1  0
 14 15  1  0
 15 16  2  0
 15 17  1  0
 17 18  1  0
 18 19  1  0
 19 20  1  0
 20 21  1  0
 21 22  2  0
 22 23  1  0
 23 24  2  0
 24 25  1  0
 25 26  2  0
 20 27  1  0
 27 28  1  0
 14 29  2  0
  9 30  2  0
  7  2  1  0
 29 10  1  0
 30  5  1  0
 28 17  1  0
 26 21  1  0
  1 31  1  0
  1 32  1  0
  1 33  1  0
  3 34  1  0
  4 35  1  0
  7 36  1  0
  8 37  1  0
  8 38  1  0
 11 39  1  0
 12 40  1  0
 13 41  1  0
 18 42  1  0
 18 43  1  0
 19 44  1  0
 19 45  1  0
 22 46  1  0
 23 47  1  0
 24 48  1  0
 25 49  1  0
 26 50  1  0
 27 51  1  0
 27 52  1  0
 28 53  1  0
 28 54  1  0
 29 55  1  0
M  END
>  <smiles>  (39) 
Cc1ccc2c(c1)CC(c1cccc(C(=O)N3CCN(c4ccccc4)CC3)c1)=N2

>  <score_type>  (39) 
oracle

>  <origin>  (39) 
autodockgpu

>  <m_score__min__energy>  (39) 
-8.7599999999999998

>  <m_primary>  (39) 
energy

>  <rmsd>  (39) 
4.460331062036836

>  <m_score__min__rmsd>  (39) 
4.460331062036836

>  <meeko>  (39) 
{"free_energy": -8.71, "intermolecular_energy": -9.61, "internal_energy": -0.94, "cluster_size": 49, "cluster_id": 1, "rank_in_cluster": 19}

>  <energy>  (39) 
-8.68

>  <cluster_rmsd>  (39) 
0.1

>  <cluster>  (39) 
1

$$$$

     RDKit          3D

 55 59  0  0  0  0  0  0  0  0999 V2000
  140.7150   68.1400  229.0240 C   0  0  0  0  0  0  0  0  0  0  0  0
  140.6810   69.1530  227.9320 C   0  0  0  0  0  0  0  0  0  0  0  0
  141.0680   70.4430  228.2930 C   0  0  0  0  0  0  0  0  0  0  0  0
  141.0450   71.3980  227.2990 C   0  0  0  0  0  0  0  0  0  0  0  0
  140.6550   71.0780  226.0120 C   0  0  0  0  0  0  0  0  0  0  0  0
  140.2690   69.7990  225.6510 C   0  0  0  0  0  0  0  0  0  0  0  0
  140.2930   68.8430  226.6470 C   0  0  0  0  0  0  0  0  0  0  0  0
  139.9270   69.8480  224.2130 C   0  0  0  0  0  0  0  0  0  0  0  0
  140.1640   71.2680  223.8400 C   0  0  0  0  0  0  0  0  0  0  0  0
  139.9740   71.8520  222.5170 C   0  0  0  0  0  0  0  0  0  0  0  0
  140.3870   71.2090  221.3560 C   0  0  0  0  0  0  0  0  0  0  0  0
  140.1840   71.8040  220.1160 C   0  0  0  0  0  0  0  0  0  0  0  0
  139.5750   73.0360  219.9780 C   0  0  0  0  0  0  0  0  0  0  0  0
  139.1670   73.6710  221.1290 C   0  0  0  0  0  0  0  0  0  0  0  0
  138.5080   74.9720  221.1410 C   0  0  0  0  0  0  0  0  0  0  0  0
  137.2990   75.0440  221.4710 O   0  0  0  0  0  0  0  0  0  0  0  0
  139.2700   76.1170  220.7730 N   0  0  0  0  0  0  0  0  0  0  0  0
  140.6850   76.0050  220.3890 C   0  0  0  0  0  0  0  0  0  0  0  0
  141.4440   76.9880  221.2400 C   0  0  0  0  0  0  0  0  0  0  0  0
  140.7710   78.2930  221.2890 N   0  0  0  0  0  0  0  0  0  0  0  0
  141.2190   79.2750  222.2090 C   0  0  0  0  0  0  0  0  0  0  0  0
  140.3710   80.1240  222.8920 C   0  0  0  0  0  0  0  0  0  0  0  0
  140.8520   81.0670  223.7820 C   0  0  0  0  0  0  0  0  0  0  0  0
  142.2120   81.1670  223.9960 C   0  0  0  0  0  0  0  0  0  0  0  0
  143.1050   80.3250  223.3240 C   0  0  0  0  0  0  0  0  0  0  0  0
  142.5700   79.4040  222.4490 C   0  0  0  0  0  0  0  0  0  0  0  0
  139.6750   78.4770  220.3670 C   0  0  0  0  0  0  0  0  0  0  0  0
  138.6400   77.4200  220.7720 C   0  0  0  0  0  0  0  0  0  0  0  0
  139.3680   73.0810  222.3740 C   0  0  0  0  0  0  0  0  0  0  0  0
  140.5650   71.9010  224.8750 N   0  0  0  0  0  0  0  0  0  0  0  0
  140.6979   68.6504  229.9983 H   0  0  0  0  0  0  0  0  0  0  0  0
  139.8385   67.4807  228.9400 H   0  0  0  0  0  0  0  0  0  0  0  0
  141.6338   67.5410  228.9400 H   0  0  0  0  0  0  0  0  0  0  0  0
  141.3765   70.6867  229.3204 H   0  0  0  0  0  0  0  0  0  0  0  0
  141.3417   72.4309  227.5337 H   0  0  0  0  0  0  0  0  0  0  0  0
  139.9957   67.8110  226.4092 H   0  0  0  0  0  0  0  0  0  0  0  0
  140.5769   69.1767  223.6326 H   0  0  0  0  0  0  0  0  0  0  0  0
  138.8966   69.5211  224.0095 H   0  0  0  0  0  0  0  0  0  0  0  0
  140.8762   70.2258  221.4185 H   0  0  0  0  0  0  0  0  0  0  0  0
  140.5205   71.2746  219.2124 H   0  0  0  0  0  0  0  0  0  0  0  0
  139.4222   73.4912  218.9883 H   0  0  0  0  0  0  0  0  0  0  0  0
  141.0483   74.9834  220.5745 H   0  0  0  0  0  0  0  0  0  0  0  0
  140.8225   76.2196  219.3189 H   0  0  0  0  0  0  0  0  0  0  0  0
  141.5236   76.5887  222.2619 H   0  0  0  0  0  0  0  0  0  0  0  0
  142.4400   77.1309  220.7956 H   0  0  0  0  0  0  0  0  0  0  0  0
  139.2865   80.0485  222.7242 H   0  0  0  0  0  0  0  0  0  0  0  0
  140.1565   81.7319  224.3150 H   0  0  0  0  0  0  0  0  0  0  0  0
  142.5979   81.9167  224.7024 H   0  0  0  0  0  0  0  0  0  0  0  0
  144.1905   80.3952  223.4875 H   0  0  0  0  0  0  0  0  0  0  0  0
  143.2593   78.7352  221.9128 H   0  0  0  0  0  0  0  0  0  0  0  0
  139.2536   79.4885  220.4630 H   0  0  0  0  0  0  0  0  0  0  0  0
  139.9914   78.3679  219.3191 H   0  0  0  0  0  0  0  0  0  0  0  0
  138.2579   77.6452  221.7786 H   0  0  0  0  0  0  0  0  0  0  0  0
  137.8037   77.4270  220.0574 H   0  0  0  0  0  0  0  0  0  0  0  0
  139.0312   73.6148  223.2749 H   0  0  0  0  0  0  0  0  0  0  0  0
  1  2  1  0
  2  3  2  0
  3  4  1  0
  4  5  2  0
  5  6  1  0
  6  7  2  0
  6  8  1  0
  8  9  1  0
  9 10  1  0
 10 11  2  0
 11 12  1  0
 12 13  2  0
 13 14  1  0
 14 15  1  0
 15 16  2  0
 15 17  1  0
 17 18  1  0
 18 19  1  0
 19 20  1  0
 20 21  1  0
 21 22  2  0
 22 23  1  0
 23 24  2  0
 24 25  1  0
 25 26  2  0
 20 27  1  0
 27 28  1  0
 14 29  2  0
  9 30  2  0
  7  2  1  0
 29 10  1  0
 30  5  1  0
 28 17  1  0
 26 21  1  0
  1 31  1  0
  1 32  1  0
  1 33  1  0
  3 34  1  0
  4 35  1  0
  7 36  1  0
  8 37  1  0
  8 38  1  0
 11 39  1  0
 12 40  1  0
 13 41  1  0
 18 42  1  0
 18 43  1  0
 19 44  1  0
 19 45  1  0
 22 46  1  0
 23 47  1  0
 24 48  1  0
 25 49  1  0
 26 50  1  0
 27 51  1  0
 27 52  1  0
 28 53  1  0
 28 54  1  0
 29 55  1  0
M  END
>  <smiles>  (40) 
Cc1ccc2c(c1)CC(c1cccc(C(=O)N3CCN(c4ccccc4)CC3)c1)=N2

>  <score_type>  (40) 
oracle

>  <origin>  (40) 
autodockgpu

>  <m_score__min__energy>  (40) 
-8.7599999999999998

>  <m_primary>  (40) 
energy

>  <rmsd>  (40) 
4.46716257321146

>  <m_score__min__rmsd>  (40) 
4.46716257321146

>  <meeko>  (40) 
{"free_energy": -8.75, "intermolecular_energy": -9.64, "internal_energy": -0.93, "cluster_size": 49, "cluster_id": 1, "rank_in_cluster": 8}

>  <energy>  (40) 
-8.68

>  <cluster_rmsd>  (40) 
0.11

>  <cluster>  (40) 
1

$$$$

     RDKit          3D

 55 59  0  0  0  0  0  0  0  0999 V2000
  140.9740   68.1700  229.0730 C   0  0  0  0  0  0  0  0  0  0  0  0
  140.7950   69.1310  227.9480 C   0  0  0  0  0  0  0  0  0  0  0  0
  141.1070   70.4600  228.2360 C   0  0  0  0  0  0  0  0  0  0  0  0
  140.9490   71.3680  227.2110 C   0  0  0  0  0  0  0  0  0  0  0  0
  140.5030   70.9680  225.9650 C   0  0  0  0  0  0  0  0  0  0  0  0
  140.1930   69.6510  225.6780 C   0  0  0  0  0  0  0  0  0  0  0  0
  140.3510   68.7410  226.7040 C   0  0  0  0  0  0  0  0  0  0  0  0
  139.7570   69.6160  224.2650 C   0  0  0  0  0  0  0  0  0  0  0  0
  139.8640   71.0320  223.8250 C   0  0  0  0  0  0  0  0  0  0  0  0
  139.5470   71.5460  222.4970 C   0  0  0  0  0  0  0  0  0  0  0  0
  139.7150   70.7830  221.3470 C   0  0  0  0  0  0  0  0  0  0  0  0
  139.4000   71.3140  220.1020 C   0  0  0  0  0  0  0  0  0  0  0  0
  138.9130   72.5980  219.9480 C   0  0  0  0  0  0  0  0  0  0  0  0
  138.7470   73.3520  221.0870 C   0  0  0  0  0  0  0  0  0  0  0  0
  138.2410   74.7200  221.0830 C   0  0  0  0  0  0  0  0  0  0  0  0
  137.0540   74.9350  221.4310 O   0  0  0  0  0  0  0  0  0  0  0  0
  139.1200   75.7630  220.6790 N   0  0  0  0  0  0  0  0  0  0  0  0
  140.5070   75.4830  220.2750 C   0  0  0  0  0  0  0  0  0  0  0  0
  141.3870   76.3890  221.0930 C   0  0  0  0  0  0  0  0  0  0  0  0
  140.8680   77.7630  221.1250 N   0  0  0  0  0  0  0  0  0  0  0  0
  141.4410   78.7050  222.0170 C   0  0  0  0  0  0  0  0  0  0  0  0
  141.5300   78.5090  223.3810 C   0  0  0  0  0  0  0  0  0  0  0  0
  142.0980   79.4560  224.2130 C   0  0  0  0  0  0  0  0  0  0  0  0
  142.5900   80.6280  223.6730 C   0  0  0  0  0  0  0  0  0  0  0  0
  142.5200   80.8650  222.2960 C   0  0  0  0  0  0  0  0  0  0  0  0
  141.9430   79.8860  221.5150 C   0  0  0  0  0  0  0  0  0  0  0  0
  139.7840   78.0530  220.2170 C   0  0  0  0  0  0  0  0  0  0  0  0
  138.6430   77.1290  220.6610 C   0  0  0  0  0  0  0  0  0  0  0  0
  139.0620   72.8250  222.3380 C   0  0  0  0  0  0  0  0  0  0  0  0
  140.2810   71.7350  224.8070 N   0  0  0  0  0  0  0  0  0  0  0  0
  140.8747   68.7032  230.0300 H   0  0  0  0  0  0  0  0  0  0  0  0
  140.2068   67.3843  229.0097 H   0  0  0  0  0  0  0  0  0  0  0  0
  141.9727   67.7132  229.0097 H   0  0  0  0  0  0  0  0  0  0  0  0
  141.4612   70.7677  229.2309 H   0  0  0  0  0  0  0  0  0  0  0  0
  141.1817   72.4285  227.3873 H   0  0  0  0  0  0  0  0  0  0  0  0
  140.1172   67.6813  226.5240 H   0  0  0  0  0  0  0  0  0  0  0  0
  140.4163   68.9692  223.6675 H   0  0  0  0  0  0  0  0  0  0  0  0
  138.7426   69.2084  224.1431 H   0  0  0  0  0  0  0  0  0  0  0  0
  140.0988   69.7549  221.4229 H   0  0  0  0  0  0  0  0  0  0  0  0
  139.5434   70.6901  219.2075 H   0  0  0  0  0  0  0  0  0  0  0  0
  138.6678   73.0013  218.9544 H   0  0  0  0  0  0  0  0  0  0  0  0
  140.7553   74.4305  220.4762 H   0  0  0  0  0  0  0  0  0  0  0  0
  140.6489   75.6599  219.1986 H   0  0  0  0  0  0  0  0  0  0  0  0
  141.4385   76.0029  222.1217 H   0  0  0  0  0  0  0  0  0  0  0  0
  142.3847   76.4089  220.6302 H   0  0  0  0  0  0  0  0  0  0  0  0
  141.1397   77.5771  223.8160 H   0  0  0  0  0  0  0  0  0  0  0  0
  142.1576   79.2773  225.2967 H   0  0  0  0  0  0  0  0  0  0  0  0
  143.0418   81.3834  224.3328 H   0  0  0  0  0  0  0  0  0  0  0  0
  142.9093   81.7942  221.8544 H   0  0  0  0  0  0  0  0  0  0  0  0
  141.8799   80.0574  220.4303 H   0  0  0  0  0  0  0  0  0  0  0  0
  139.4823   79.1077  220.2980 H   0  0  0  0  0  0  0  0  0  0  0  0
  140.0668   77.8884  219.1668 H   0  0  0  0  0  0  0  0  0  0  0  0
  138.3079   77.4155  221.6688 H   0  0  0  0  0  0  0  0  0  0  0  0
  137.7999   77.2180  219.9601 H   0  0  0  0  0  0  0  0  0  0  0  0
  138.9182   73.4527  223.2298 H   0  0  0  0  0  0  0  0  0  0  0  0
  1  2  1  0
  2  3  2  0
  3  4  1  0
  4  5  2  0
  5  6  1  0
  6  7  2  0
  6  8  1  0
  8  9  1  0
  9 10  1  0
 10 11  2  0
 11 12  1  0
 12 13  2  0
 13 14  1  0
 14 15  1  0
 15 16  2  0
 15 17  1  0
 17 18  1  0
 18 19  1  0
 19 20  1  0
 20 21  1  0
 21 22  2  0
 22 23  1  0
 23 24  2  0
 24 25  1  0
 25 26  2  0
 20 27  1  0
 27 28  1  0
 14 29  2  0
  9 30  2  0
  7  2  1  0
 29 10  1  0
 30  5  1  0
 28 17  1  0
 26 21  1  0
  1 31  1  0
  1 32  1  0
  1 33  1  0
  3 34  1  0
  4 35  1  0
  7 36  1  0
  8 37  1  0
  8 38  1  0
 11 39  1  0
 12 40  1  0
 13 41  1  0
 18 42  1  0
 18 43  1  0
 19 44  1  0
 19 45  1  0
 22 46  1  0
 23 47  1  0
 24 48  1  0
 25 49  1  0
 26 50  1  0
 27 51  1  0
 27 52  1  0
 28 53  1  0
 28 54  1  0
 29 55  1  0
M  END
>  <smiles>  (41) 
Cc1ccc2c(c1)CC(c1cccc(C(=O)N3CCN(c4ccccc4)CC3)c1)=N2

>  <score_type>  (41) 
oracle

>  <origin>  (41) 
autodockgpu

>  <m_score__min__energy>  (41) 
-8.7599999999999998

>  <m_primary>  (41) 
energy

>  <rmsd>  (41) 
4.110080457664217

>  <m_score__min__rmsd>  (41) 
4.110080457664217

>  <meeko>  (41) 
{"free_energy": -8.6, "intermolecular_energy": -9.5, "internal_energy": -0.98, "cluster_size": 49, "cluster_id": 1, "rank_in_cluster": 48}

>  <energy>  (41) 
-8.68

>  <cluster_rmsd>  (41) 
0.52

>  <cluster>  (41) 
1

$$$$

     RDKit          3D

 55 59  0  0  0  0  0  0  0  0999 V2000
  140.7900   68.1430  229.0320 C   0  0  0  0  0  0  0  0  0  0  0  0
  140.7270   69.1430  227.9300 C   0  0  0  0  0  0  0  0  0  0  0  0
  141.0950   70.4430  228.2740 C   0  0  0  0  0  0  0  0  0  0  0  0
  141.0440   71.3870  227.2710 C   0  0  0  0  0  0  0  0  0  0  0  0
  140.6460   71.0470  225.9910 C   0  0  0  0  0  0  0  0  0  0  0  0
  140.2800   69.7580  225.6470 C   0  0  0  0  0  0  0  0  0  0  0  0
  140.3310   68.8130  226.6520 C   0  0  0  0  0  0  0  0  0  0  0  0
  139.9220   69.7860  224.2120 C   0  0  0  0  0  0  0  0  0  0  0  0
  140.1300   71.2060  223.8220 C   0  0  0  0  0  0  0  0  0  0  0  0
  139.9160   71.7720  222.4950 C   0  0  0  0  0  0  0  0  0  0  0  0
  140.2860   71.1040  221.3340 C   0  0  0  0  0  0  0  0  0  0  0  0
  140.0620   71.6830  220.0910 C   0  0  0  0  0  0  0  0  0  0  0  0
  139.4720   72.9240  219.9490 C   0  0  0  0  0  0  0  0  0  0  0  0
  139.1060   73.5840  221.0990 C   0  0  0  0  0  0  0  0  0  0  0  0
  138.4710   74.8970  221.1090 C   0  0  0  0  0  0  0  0  0  0  0  0
  137.2740   74.9970  221.4750 O   0  0  0  0  0  0  0  0  0  0  0  0
  139.2400   76.0210  220.6950 N   0  0  0  0  0  0  0  0  0  0  0  0
  140.6400   75.8760  220.2680 C   0  0  0  0  0  0  0  0  0  0  0  0
  141.4430   76.8600  221.0760 C   0  0  0  0  0  0  0  0  0  0  0  0
  140.7960   78.1780  221.1210 N   0  0  0  0  0  0  0  0  0  0  0  0
  141.2900   79.1680  222.0080 C   0  0  0  0  0  0  0  0  0  0  0  0
  141.3730   80.5090  221.6870 C   0  0  0  0  0  0  0  0  0  0  0  0
  141.8610   81.4400  222.5840 C   0  0  0  0  0  0  0  0  0  0  0  0
  142.2770   81.0260  223.8350 C   0  0  0  0  0  0  0  0  0  0  0  0
  142.2090   79.6770  224.2000 C   0  0  0  0  0  0  0  0  0  0  0  0
  141.7140   78.7930  223.2650 C   0  0  0  0  0  0  0  0  0  0  0  0
  139.6750   78.3650  220.2310 C   0  0  0  0  0  0  0  0  0  0  0  0
  138.6340   77.3350  220.6890 C   0  0  0  0  0  0  0  0  0  0  0  0
  139.3280   73.0100  222.3490 C   0  0  0  0  0  0  0  0  0  0  0  0
  140.5300   71.8570  224.8460 N   0  0  0  0  0  0  0  0  0  0  0  0
  140.7573   68.6626  230.0010 H   0  0  0  0  0  0  0  0  0  0  0  0
  139.9332   67.4574  228.9544 H   0  0  0  0  0  0  0  0  0  0  0  0
  141.7260   67.5704  228.9544 H   0  0  0  0  0  0  0  0  0  0  0  0
  141.4104   70.7025  229.2954 H   0  0  0  0  0  0  0  0  0  0  0  0
  141.3244   72.4274  227.4922 H   0  0  0  0  0  0  0  0  0  0  0  0
  140.0493   67.7736  226.4277 H   0  0  0  0  0  0  0  0  0  0  0  0
  140.5775   69.1202  223.6315 H   0  0  0  0  0  0  0  0  0  0  0  0
  138.8955   69.4390  224.0229 H   0  0  0  0  0  0  0  0  0  0  0  0
  140.7582   70.1127  221.3993 H   0  0  0  0  0  0  0  0  0  0  0  0
  140.3653   71.1335  219.1876 H   0  0  0  0  0  0  0  0  0  0  0  0
  139.3018   73.3665  218.9564 H   0  0  0  0  0  0  0  0  0  0  0  0
  140.9909   74.8515  220.4608 H   0  0  0  0  0  0  0  0  0  0  0  0
  140.7468   76.0686  219.1903 H   0  0  0  0  0  0  0  0  0  0  0  0
  141.5473   76.4783  222.1024 H   0  0  0  0  0  0  0  0  0  0  0  0
  142.4270   76.9758  220.5982 H   0  0  0  0  0  0  0  0  0  0  0  0
  141.0425   80.8440  220.6928 H   0  0  0  0  0  0  0  0  0  0  0  0
  141.9179   82.5023  222.3044 H   0  0  0  0  0  0  0  0  0  0  0  0
  142.6657   81.7647  224.5514 H   0  0  0  0  0  0  0  0  0  0  0  0
  142.5372   79.3356  225.1928 H   0  0  0  0  0  0  0  0  0  0  0  0
  141.6540   77.7289  223.5372 H   0  0  0  0  0  0  0  0  0  0  0  0
  139.2753   79.3859  220.3206 H   0  0  0  0  0  0  0  0  0  0  0  0
  139.9558   78.2303  219.1760 H   0  0  0  0  0  0  0  0  0  0  0  0
  138.2884   77.5861  221.7027 H   0  0  0  0  0  0  0  0  0  0  0  0
  137.7755   77.3444  220.0014 H   0  0  0  0  0  0  0  0  0  0  0  0
  139.0238   73.5635  223.2496 H   0  0  0  0  0  0  0  0  0  0  0  0
  1  2  1  0
  2  3  2  0
  3  4  1  0
  4  5  2  0
  5  6  1  0
  6  7  2  0
  6  8  1  0
  8  9  1  0
  9 10  1  0
 10 11  2  0
 11 12  1  0
 12 13  2  0
 13 14  1  0
 14 15  1  0
 15 16  2  0
 15 17  1  0
 17 18  1  0
 18 19  1  0
 19 20  1  0
 20 21  1  0
 21 22  2  0
 22 23  1  0
 23 24  2  0
 24 25  1  0
 25 26  2  0
 20 27  1  0
 27 28  1  0
 14 29  2  0
  9 30  2  0
  7  2  1  0
 29 10  1  0
 30  5  1  0
 28 17  1  0
 26 21  1  0
  1 31  1  0
  1 32  1  0
  1 33  1  0
  3 34  1  0
  4 35  1  0
  7 36  1  0
  8 37  1  0
  8 38  1  0
 11 39  1  0
 12 40  1  0
 13 41  1  0
 18 42  1  0
 18 43  1  0
 19 44  1  0
 19 45  1  0
 22 46  1  0
 23 47  1  0
 24 48  1  0
 25 49  1  0
 26 50  1  0
 27 51  1  0
 27 52  1  0
 28 53  1  0
 28 54  1  0
 29 55  1  0
M  END
>  <smiles>  (42) 
Cc1ccc2c(c1)CC(c1cccc(C(=O)N3CCN(c4ccccc4)CC3)c1)=N2

>  <score_type>  (42) 
oracle

>  <origin>  (42) 
autodockgpu

>  <m_score__min__energy>  (42) 
-8.7599999999999998

>  <m_primary>  (42) 
energy

>  <rmsd>  (42) 
4.461549524282036

>  <m_score__min__rmsd>  (42) 
4.461549524282036

>  <meeko>  (42) 
{"free_energy": -8.7, "intermolecular_energy": -9.6, "internal_energy": -0.94, "cluster_size": 49, "cluster_id": 1, "rank_in_cluster": 25}

>  <energy>  (42) 
-8.68

>  <cluster_rmsd>  (42) 
0.1

>  <cluster>  (42) 
1

$$$$

     RDKit          3D

 55 59  0  0  0  0  0  0  0  0999 V2000
  143.2530   80.9040  223.9070 C   0  0  0  0  0  0  0  0  0  0  0  0
  142.0520   80.0820  223.5860 C   0  0  0  0  0  0  0  0  0  0  0  0
  140.8220   80.7110  223.7760 C   0  0  0  0  0  0  0  0  0  0  0  0
  139.6960   79.9700  223.4880 C   0  0  0  0  0  0  0  0  0  0  0  0
  139.7970   78.6690  223.0320 C   0  0  0  0  0  0  0  0  0  0  0  0
  141.0150   78.0420  222.8440 C   0  0  0  0  0  0  0  0  0  0  0  0
  142.1430   78.7840  223.1330 C   0  0  0  0  0  0  0  0  0  0  0  0
  140.7200   76.6770  222.3570 C   0  0  0  0  0  0  0  0  0  0  0  0
  139.2350   76.6330  222.3030 C   0  0  0  0  0  0  0  0  0  0  0  0
  138.4240   75.4950  221.8820 C   0  0  0  0  0  0  0  0  0  0  0  0
  137.0820   75.6240  221.5470 C   0  0  0  0  0  0  0  0  0  0  0  0
  136.3480   74.5110  221.1510 C   0  0  0  0  0  0  0  0  0  0  0  0
  136.9050   73.2490  221.0720 C   0  0  0  0  0  0  0  0  0  0  0  0
  138.2350   73.1240  221.4040 C   0  0  0  0  0  0  0  0  0  0  0  0
  138.9600   71.8590  221.3650 C   0  0  0  0  0  0  0  0  0  0  0  0
  139.8890   71.7100  220.5340 O   0  0  0  0  0  0  0  0  0  0  0  0
  138.5780   70.8340  222.2760 N   0  0  0  0  0  0  0  0  0  0  0  0
  137.4830   71.0340  223.2380 C   0  0  0  0  0  0  0  0  0  0  0  0
  138.0300   70.6810  224.5950 C   0  0  0  0  0  0  0  0  0  0  0  0
  138.7920   69.4250  224.5610 N   0  0  0  0  0  0  0  0  0  0  0  0
  139.5600   69.0440  225.6910 C   0  0  0  0  0  0  0  0  0  0  0  0
  139.9830   67.7510  225.9260 C   0  0  0  0  0  0  0  0  0  0  0  0
  140.7320   67.4250  227.0420 C   0  0  0  0  0  0  0  0  0  0  0  0
  141.0680   68.4130  227.9460 C   0  0  0  0  0  0  0  0  0  0  0  0
  140.6600   69.7360  227.7440 C   0  0  0  0  0  0  0  0  0  0  0  0
  139.9150   70.0030  226.6150 C   0  0  0  0  0  0  0  0  0  0  0  0
  138.6940   68.6560  223.3440 C   0  0  0  0  0  0  0  0  0  0  0  0
  139.2770   69.5680  222.2560 C   0  0  0  0  0  0  0  0  0  0  0  0
  138.9750   74.2350  221.8020 C   0  0  0  0  0  0  0  0  0  0  0  0
  138.7780   77.7610  222.6880 N   0  0  0  0  0  0  0  0  0  0  0  0
  143.3641   80.9801  224.9987 H   0  0  0  0  0  0  0  0  0  0  0  0
  144.1479   80.4281  223.4796 H   0  0  0  0  0  0  0  0  0  0  0  0
  143.1334   81.9105  223.4796 H   0  0  0  0  0  0  0  0  0  0  0  0
  140.7537   81.7475  224.1379 H   0  0  0  0  0  0  0  0  0  0  0  0
  138.7018   80.4209  223.6231 H   0  0  0  0  0  0  0  0  0  0  0  0
  143.1355   78.3291  222.9987 H   0  0  0  0  0  0  0  0  0  0  0  0
  141.1534   76.5148  221.3591 H   0  0  0  0  0  0  0  0  0  0  0  0
  141.1456   75.8940  223.0018 H   0  0  0  0  0  0  0  0  0  0  0  0
  136.5979   76.6106  221.5951 H   0  0  0  0  0  0  0  0  0  0  0  0
  135.2868   74.6399  220.8916 H   0  0  0  0  0  0  0  0  0  0  0  0
  136.3097   72.3794  220.7566 H   0  0  0  0  0  0  0  0  0  0  0  0
  137.1525   72.0831  223.2236 H   0  0  0  0  0  0  0  0  0  0  0  0
  136.6151   70.4070  222.9858 H   0  0  0  0  0  0  0  0  0  0  0  0
  138.6920   71.4911  224.9348 H   0  0  0  0  0  0  0  0  0  0  0  0
  137.1827   70.5509  225.2843 H   0  0  0  0  0  0  0  0  0  0  0  0
  139.7179   66.9608  225.2081 H   0  0  0  0  0  0  0  0  0  0  0  0
  141.0573   66.3874  227.2080 H   0  0  0  0  0  0  0  0  0  0  0  0
  141.6631   68.1571  228.8350 H   0  0  0  0  0  0  0  0  0  0  0  0
  140.9230   70.5311  228.4572 H   0  0  0  0  0  0  0  0  0  0  0  0
  139.5859   71.0383  226.4423 H   0  0  0  0  0  0  0  0  0  0  0  0
  139.2775   67.7270  223.4246 H   0  0  0  0  0  0  0  0  0  0  0  0
  137.6586   68.3568  223.1241 H   0  0  0  0  0  0  0  0  0  0  0  0
  140.3469   69.7348  222.4493 H   0  0  0  0  0  0  0  0  0  0  0  0
  139.1569   69.0936  221.2708 H   0  0  0  0  0  0  0  0  0  0  0  0
  140.0357   74.1016  222.0613 H   0  0  0  0  0  0  0  0  0  0  0  0
  1  2  1  0
  2  3  2  0
  3  4  1  0
  4  5  2  0
  5  6  1  0
  6  7  2  0
  6  8  1  0
  8  9  1  0
  9 10  1  0
 10 11  2  0
 11 12  1  0
 12 13  2  0
 13 14  1  0
 14 15  1  0
 15 16  2  0
 15 17  1  0
 17 18  1  0
 18 19  1  0
 19 20  1  0
 20 21  1  0
 21 22  2  0
 22 23  1  0
 23 24  2  0
 24 25  1  0
 25 26  2  0
 20 27  1  0
 27 28  1  0
 14 29  2  0
  9 30  2  0
  7  2  1  0
 29 10  1  0
 30  5  1  0
 28 17  1  0
 26 21  1  0
  1 31  1  0
  1 32  1  0
  1 33  1  0
  3 34  1  0
  4 35  1  0
  7 36  1  0
  8 37  1  0
  8 38  1  0
 11 39  1  0
 12 40  1  0
 13 41  1  0
 18 42  1  0
 18 43  1  0
 19 44  1  0
 19 45  1  0
 22 46  1  0
 23 47  1  0
 24 48  1  0
 25 49  1  0
 26 50  1  0
 27 51  1  0
 27 52  1  0
 28 53  1  0
 28 54  1  0
 29 55  1  0
M  END
>  <smiles>  (43) 
Cc1ccc2c(c1)CC(c1cccc(C(=O)N3CCN(c4ccccc4)CC3)c1)=N2

>  <score_type>  (43) 
oracle

>  <origin>  (43) 
autodockgpu

>  <m_score__min__energy>  (43) 
-8.7599999999999998

>  <m_primary>  (43) 
energy

>  <rmsd>  (43) 
8.643914398736715

>  <m_score__min__rmsd>  (43) 
8.643914398736715

>  <meeko>  (43) 
{"free_energy": -8.43, "intermolecular_energy": -9.33, "internal_energy": -0.93, "cluster_size": 1, "cluster_id": 2, "rank_in_cluster": 1}

>  <energy>  (43) 
-8.67

>  <cluster_rmsd>  (43) 
0.58

>  <cluster>  (43) 
1

$$$$

     RDKit          3D

 55 59  0  0  0  0  0  0  0  0999 V2000
  140.8110   68.1370  228.9840 C   0  0  0  0  0  0  0  0  0  0  0  0
  140.7450   69.1520  227.8950 C   0  0  0  0  0  0  0  0  0  0  0  0
  141.1180   70.4460  228.2530 C   0  0  0  0  0  0  0  0  0  0  0  0
  141.0640   71.4030  227.2620 C   0  0  0  0  0  0  0  0  0  0  0  0
  140.6580   71.0800  225.9800 C   0  0  0  0  0  0  0  0  0  0  0  0
  140.2860   69.7970  225.6220 C   0  0  0  0  0  0  0  0  0  0  0  0
  140.3400   68.8390  226.6150 C   0  0  0  0  0  0  0  0  0  0  0  0
  139.9200   69.8440  224.1900 C   0  0  0  0  0  0  0  0  0  0  0  0
  140.1300   71.2680  223.8170 C   0  0  0  0  0  0  0  0  0  0  0  0
  139.9100   71.8520  222.4990 C   0  0  0  0  0  0  0  0  0  0  0  0
  140.2720   71.1970  221.3270 C   0  0  0  0  0  0  0  0  0  0  0  0
  140.0420   71.7930  220.0920 C   0  0  0  0  0  0  0  0  0  0  0  0
  139.4550   73.0380  219.9700 C   0  0  0  0  0  0  0  0  0  0  0  0
  139.0980   73.6850  221.1310 C   0  0  0  0  0  0  0  0  0  0  0  0
  138.4680   74.9990  221.1600 C   0  0  0  0  0  0  0  0  0  0  0  0
  137.2650   75.0950  221.5090 O   0  0  0  0  0  0  0  0  0  0  0  0
  139.2470   76.1300  220.7850 N   0  0  0  0  0  0  0  0  0  0  0  0
  140.6540   75.9890  220.3780 C   0  0  0  0  0  0  0  0  0  0  0  0
  141.4470   76.9510  221.2220 C   0  0  0  0  0  0  0  0  0  0  0  0
  140.8030   78.2700  221.2870 N   0  0  0  0  0  0  0  0  0  0  0  0
  141.2860   79.2380  222.2050 C   0  0  0  0  0  0  0  0  0  0  0  0
  142.6070   79.3250  222.5990 C   0  0  0  0  0  0  0  0  0  0  0  0
  143.0330   80.2860  223.4970 C   0  0  0  0  0  0  0  0  0  0  0  0
  142.1200   81.1830  224.0160 C   0  0  0  0  0  0  0  0  0  0  0  0
  140.7730   81.1290  223.6430 C   0  0  0  0  0  0  0  0  0  0  0  0
  140.4050   80.1500  222.7450 C   0  0  0  0  0  0  0  0  0  0  0  0
  139.6970   78.4820  220.3840 C   0  0  0  0  0  0  0  0  0  0  0  0
  138.6460   77.4450  220.8010 C   0  0  0  0  0  0  0  0  0  0  0  0
  139.3260   73.0930  222.3710 C   0  0  0  0  0  0  0  0  0  0  0  0
  140.5380   71.9050  224.8470 N   0  0  0  0  0  0  0  0  0  0  0  0
  140.7781   68.6436  229.9599 H   0  0  0  0  0  0  0  0  0  0  0  0
  139.9556   67.4508  228.8980 H   0  0  0  0  0  0  0  0  0  0  0  0
  141.7481   67.5674  228.8980 H   0  0  0  0  0  0  0  0  0  0  0  0
  141.4397   70.6918  229.2758 H   0  0  0  0  0  0  0  0  0  0  0  0
  141.3483   72.4398  227.4947 H   0  0  0  0  0  0  0  0  0  0  0  0
  140.0536   67.8034  226.3795 H   0  0  0  0  0  0  0  0  0  0  0  0
  140.5702   69.1837  223.5974 H   0  0  0  0  0  0  0  0  0  0  0  0
  138.8914   69.5022  224.0023 H   0  0  0  0  0  0  0  0  0  0  0  0
  140.7420   70.2037  221.3771 H   0  0  0  0  0  0  0  0  0  0  0  0
  140.3378   71.2543  219.1797 H   0  0  0  0  0  0  0  0  0  0  0  0
  139.2801   73.4937  218.9843 H   0  0  0  0  0  0  0  0  0  0  0  0
  140.9978   74.9589  220.5529 H   0  0  0  0  0  0  0  0  0  0  0  0
  140.7797   76.2059  219.3069 H   0  0  0  0  0  0  0  0  0  0  0  0
  141.5332   76.5451  222.2407 H   0  0  0  0  0  0  0  0  0  0  0  0
  142.4392   77.0744  220.7635 H   0  0  0  0  0  0  0  0  0  0  0  0
  143.3376   78.6125  222.1884 H   0  0  0  0  0  0  0  0  0  0  0  0
  144.0905   80.3358  223.7957 H   0  0  0  0  0  0  0  0  0  0  0  0
  142.4560   81.9486  224.7308 H   0  0  0  0  0  0  0  0  0  0  0  0
  140.0374   81.8387  224.0496 H   0  0  0  0  0  0  0  0  0  0  0  0
  139.3489   80.0935  222.4424 H   0  0  0  0  0  0  0  0  0  0  0  0
  139.2990   79.5018  220.4915 H   0  0  0  0  0  0  0  0  0  0  0  0
  139.9941   78.3716  219.3306 H   0  0  0  0  0  0  0  0  0  0  0  0
  138.2855   77.6730  221.8149 H   0  0  0  0  0  0  0  0  0  0  0  0
  137.7984   77.4738  220.1004 H   0  0  0  0  0  0  0  0  0  0  0  0
  139.0291   73.6358  223.2805 H   0  0  0  0  0  0  0  0  0  0  0  0
  1  2  1  0
  2  3  2  0
  3  4  1  0
  4  5  2  0
  5  6  1  0
  6  7  2  0
  6  8  1  0
  8  9  1  0
  9 10  1  0
 10 11  2  0
 11 12  1  0
 12 13  2  0
 13 14  1  0
 14 15  1  0
 15 16  2  0
 15 17  1  0
 17 18  1  0
 18 19  1  0
 19 20  1  0
 20 21  1  0
 21 22  2  0
 22 23  1  0
 23 24  2  0
 24 25  1  0
 25 26  2  0
 20 27  1  0
 27 28  1  0
 14 29  2  0
  9 30  2  0
  7  2  1  0
 29 10  1  0
 30  5  1  0
 28 17  1  0
 26 21  1  0
  1 31  1  0
  1 32  1  0
  1 33  1  0
  3 34  1  0
  4 35  1  0
  7 36  1  0
  8 37  1  0
  8 38  1  0
 11 39  1  0
 12 40  1  0
 13 41  1  0
 18 42  1  0
 18 43  1  0
 19 44  1  0
 19 45  1  0
 22 46  1  0
 23 47  1  0
 24 48  1  0
 25 49  1  0
 26 50  1  0
 27 51  1  0
 27 52  1  0
 28 53  1  0
 28 54  1  0
 29 55  1  0
M  END
>  <smiles>  (44) 
Cc1ccc2c(c1)CC(c1cccc(C(=O)N3CCN(c4ccccc4)CC3)c1)=N2

>  <score_type>  (44) 
oracle

>  <origin>  (44) 
autodockgpu

>  <m_score__min__energy>  (44) 
-8.7599999999999998

>  <m_primary>  (44) 
energy

>  <rmsd>  (44) 
4.499156616624738

>  <m_score__min__rmsd>  (44) 
4.499156616624738

>  <meeko>  (44) 
{"free_energy": -8.68, "intermolecular_energy": -9.58, "internal_energy": -0.93, "cluster_size": 49, "cluster_id": 1, "rank_in_cluster": 39}

>  <energy>  (44) 
-8.66

>  <cluster_rmsd>  (44) 
0.57

>  <cluster>  (44) 
1

$$$$

     RDKit          3D

 55 59  0  0  0  0  0  0  0  0999 V2000
  140.7720   68.1560  229.0210 C   0  0  0  0  0  0  0  0  0  0  0  0
  140.7140   69.1630  227.9240 C   0  0  0  0  0  0  0  0  0  0  0  0
  141.0950   70.4580  228.2720 C   0  0  0  0  0  0  0  0  0  0  0  0
  141.0490   71.4070  227.2740 C   0  0  0  0  0  0  0  0  0  0  0  0
  140.6430   71.0770  225.9940 C   0  0  0  0  0  0  0  0  0  0  0  0
  140.2640   69.7930  225.6460 C   0  0  0  0  0  0  0  0  0  0  0  0
  140.3100   68.8430  226.6460 C   0  0  0  0  0  0  0  0  0  0  0  0
  139.9000   69.8320  224.2120 C   0  0  0  0  0  0  0  0  0  0  0  0
  140.1200   71.2510  223.8290 C   0  0  0  0  0  0  0  0  0  0  0  0
  139.9060   71.8260  222.5050 C   0  0  0  0  0  0  0  0  0  0  0  0
  140.2740   71.1640  221.3400 C   0  0  0  0  0  0  0  0  0  0  0  0
  140.0490   71.7510  220.1000 C   0  0  0  0  0  0  0  0  0  0  0  0
  139.4620   72.9940  219.9660 C   0  0  0  0  0  0  0  0  0  0  0  0
  139.0980   73.6480  221.1210 C   0  0  0  0  0  0  0  0  0  0  0  0
  138.4660   74.9630  221.1390 C   0  0  0  0  0  0  0  0  0  0  0  0
  137.2610   75.0590  221.4760 O   0  0  0  0  0  0  0  0  0  0  0  0
  139.2490   76.0920  220.7660 N   0  0  0  0  0  0  0  0  0  0  0  0
  140.6590   75.9510  220.3730 C   0  0  0  0  0  0  0  0  0  0  0  0
  141.4430   76.9170  221.2200 C   0  0  0  0  0  0  0  0  0  0  0  0
  140.7980   78.2360  221.2740 N   0  0  0  0  0  0  0  0  0  0  0  0
  141.2710   79.2080  222.1920 C   0  0  0  0  0  0  0  0  0  0  0  0
  142.6090   79.4210  222.4570 C   0  0  0  0  0  0  0  0  0  0  0  0
  143.0250   80.3810  223.3600 C   0  0  0  0  0  0  0  0  0  0  0  0
  142.0830   81.1500  224.0160 C   0  0  0  0  0  0  0  0  0  0  0  0
  140.7170   80.9670  223.7760 C   0  0  0  0  0  0  0  0  0  0  0  0
  140.3610   79.9940  222.8650 C   0  0  0  0  0  0  0  0  0  0  0  0
  139.7000   78.4430  220.3590 C   0  0  0  0  0  0  0  0  0  0  0  0
  138.6460   77.4070  220.7700 C   0  0  0  0  0  0  0  0  0  0  0  0
  139.3210   73.0660  222.3670 C   0  0  0  0  0  0  0  0  0  0  0  0
  140.5300   71.8930  224.8540 N   0  0  0  0  0  0  0  0  0  0  0  0
  140.7424   68.6704  229.9929 H   0  0  0  0  0  0  0  0  0  0  0  0
  139.9116   67.4755  228.9399 H   0  0  0  0  0  0  0  0  0  0  0  0
  141.7049   67.5788  228.9399 H   0  0  0  0  0  0  0  0  0  0  0  0
  141.4166   70.7100  229.2933 H   0  0  0  0  0  0  0  0  0  0  0  0
  141.3399   72.4437  227.4991 H   0  0  0  0  0  0  0  0  0  0  0  0
  140.0177   67.8074  226.4178 H   0  0  0  0  0  0  0  0  0  0  0  0
  140.5466   69.1629  223.6252 H   0  0  0  0  0  0  0  0  0  0  0  0
  138.8694   69.4958  224.0254 H   0  0  0  0  0  0  0  0  0  0  0  0
  140.7451   70.1718  221.3991 H   0  0  0  0  0  0  0  0  0  0  0  0
  140.3493   71.2059  219.1930 H   0  0  0  0  0  0  0  0  0  0  0  0
  139.2923   73.4431  218.9763 H   0  0  0  0  0  0  0  0  0  0  0  0
  141.0022   74.9220  220.5554 H   0  0  0  0  0  0  0  0  0  0  0  0
  140.7944   76.1636  219.3023 H   0  0  0  0  0  0  0  0  0  0  0  0
  141.5201   76.5153  222.2411 H   0  0  0  0  0  0  0  0  0  0  0  0
  142.4391   77.0394  220.7697 H   0  0  0  0  0  0  0  0  0  0  0  0
  143.3626   78.8116  221.9366 H   0  0  0  0  0  0  0  0  0  0  0  0
  144.0971   80.5316  223.5548 H   0  0  0  0  0  0  0  0  0  0  0  0
  142.4109   81.9149  224.7353 H   0  0  0  0  0  0  0  0  0  0  0  0
  139.9583   81.5736  224.2921 H   0  0  0  0  0  0  0  0  0  0  0  0
  139.2909   79.8369  222.6647 H   0  0  0  0  0  0  0  0  0  0  0  0
  139.3000   79.4629  220.4582 H   0  0  0  0  0  0  0  0  0  0  0  0
  140.0074   78.3282  219.3091 H   0  0  0  0  0  0  0  0  0  0  0  0
  138.2750   77.6392  221.7792 H   0  0  0  0  0  0  0  0  0  0  0  0
  137.8054   77.4317  220.0609 H   0  0  0  0  0  0  0  0  0  0  0  0
  139.0198   73.6150  223.2714 H   0  0  0  0  0  0  0  0  0  0  0  0
  1  2  1  0
  2  3  2  0
  3  4  1  0
  4  5  2  0
  5  6  1  0
  6  7  2  0
  6  8  1  0
  8  9  1  0
  9 10  1  0
 10 11  2  0
 11 12  1  0
 12 13  2  0
 13 14  1  0
 14 15  1  0
 15 16  2  0
 15 17  1  0
 17 18  1  0
 18 19  1  0
 19 20  1  0
 20 21  1  0
 21 22  2  0
 22 23  1  0
 23 24  2  0
 24 25  1  0
 25 26  2  0
 20 27  1  0
 27 28  1  0
 14 29  2  0
  9 30  2  0
  7  2  1  0
 29 10  1  0
 30  5  1  0
 28 17  1  0
 26 21  1  0
  1 31  1  0
  1 32  1  0
  1 33  1  0
  3 34  1  0
  4 35  1  0
  7 36  1  0
  8 37  1  0
  8 38  1  0
 11 39  1  0
 12 40  1  0
 13 41  1  0
 18 42  1  0
 18 43  1  0
 19 44  1  0
 19 45  1  0
 22 46  1  0
 23 47  1  0
 24 48  1  0
 25 49  1  0
 26 50  1  0
 27 51  1  0
 27 52  1  0
 28 53  1  0
 28 54  1  0
 29 55  1  0
M  END
>  <smiles>  (45) 
Cc1ccc2c(c1)CC(c1cccc(C(=O)N3CCN(c4ccccc4)CC3)c1)=N2

>  <score_type>  (45) 
oracle

>  <origin>  (45) 
autodockgpu

>  <m_score__min__energy>  (45) 
-8.7599999999999998

>  <m_primary>  (45) 
energy

>  <rmsd>  (45) 
4.488639154966237

>  <m_score__min__rmsd>  (45) 
4.488639154966237

>  <meeko>  (45) 
{"free_energy": -8.71, "intermolecular_energy": -9.6, "internal_energy": -0.94, "cluster_size": 49, "cluster_id": 1, "rank_in_cluster": 21}

>  <energy>  (45) 
-8.66

>  <cluster_rmsd>  (45) 
0.58

>  <cluster>  (45) 
1

$$$$

     RDKit          3D

 55 59  0  0  0  0  0  0  0  0999 V2000
  140.7290   68.1370  229.0160 C   0  0  0  0  0  0  0  0  0  0  0  0
  140.6850   69.1510  227.9250 C   0  0  0  0  0  0  0  0  0  0  0  0
  141.0750   70.4410  228.2850 C   0  0  0  0  0  0  0  0  0  0  0  0
  141.0420   71.3970  227.2930 C   0  0  0  0  0  0  0  0  0  0  0  0
  140.6400   71.0780  226.0080 C   0  0  0  0  0  0  0  0  0  0  0  0
  140.2520   69.8000  225.6490 C   0  0  0  0  0  0  0  0  0  0  0  0
  140.2850   68.8430  226.6440 C   0  0  0  0  0  0  0  0  0  0  0  0
  139.8960   69.8510  224.2150 C   0  0  0  0  0  0  0  0  0  0  0  0
  140.1300   71.2710  223.8420 C   0  0  0  0  0  0  0  0  0  0  0  0
  139.9270   71.8570  222.5210 C   0  0  0  0  0  0  0  0  0  0  0  0
  140.3170   71.2100  221.3540 C   0  0  0  0  0  0  0  0  0  0  0  0
  140.1040   71.8060  220.1170 C   0  0  0  0  0  0  0  0  0  0  0  0
  139.5060   73.0450  219.9870 C   0  0  0  0  0  0  0  0  0  0  0  0
  139.1210   73.6850  221.1440 C   0  0  0  0  0  0  0  0  0  0  0  0
  138.4760   74.9930  221.1650 C   0  0  0  0  0  0  0  0  0  0  0  0
  137.2810   75.0810  221.5400 O   0  0  0  0  0  0  0  0  0  0  0  0
  139.2340   76.1250  220.7530 N   0  0  0  0  0  0  0  0  0  0  0  0
  140.6320   75.9930  220.3160 C   0  0  0  0  0  0  0  0  0  0  0  0
  141.4330   76.9780  221.1240 C   0  0  0  0  0  0  0  0  0  0  0  0
  140.7760   78.2910  221.1820 N   0  0  0  0  0  0  0  0  0  0  0  0
  141.2680   79.2800  222.0720 C   0  0  0  0  0  0  0  0  0  0  0  0
  142.0910   79.0000  223.1450 C   0  0  0  0  0  0  0  0  0  0  0  0
  142.5490   79.9970  223.9860 C   0  0  0  0  0  0  0  0  0  0  0  0
  142.1770   81.3060  223.7530 C   0  0  0  0  0  0  0  0  0  0  0  0
  141.3450   81.6320  222.6760 C   0  0  0  0  0  0  0  0  0  0  0  0
  140.9190   80.5980  221.8710 C   0  0  0  0  0  0  0  0  0  0  0  0
  139.6470   78.4750  220.3010 C   0  0  0  0  0  0  0  0  0  0  0  0
  138.6180   77.4340  220.7600 C   0  0  0  0  0  0  0  0  0  0  0  0
  139.3320   73.0920  222.3870 C   0  0  0  0  0  0  0  0  0  0  0  0
  140.5400   71.9030  224.8730 N   0  0  0  0  0  0  0  0  0  0  0  0
  140.7069   68.6461  229.9909 H   0  0  0  0  0  0  0  0  0  0  0  0
  139.8590   67.4692  228.9313 H   0  0  0  0  0  0  0  0  0  0  0  0
  141.6536   67.5471  228.9313 H   0  0  0  0  0  0  0  0  0  0  0  0
  141.3931   70.6831  229.3098 H   0  0  0  0  0  0  0  0  0  0  0  0
  141.3399   72.4299  227.5264 H   0  0  0  0  0  0  0  0  0  0  0  0
  139.9850   67.8114  226.4079 H   0  0  0  0  0  0  0  0  0  0  0  0
  140.5399   69.1802  223.6273 H   0  0  0  0  0  0  0  0  0  0  0  0
  138.8636   69.5247  224.0211 H   0  0  0  0  0  0  0  0  0  0  0  0
  140.7965   70.2216  221.4101 H   0  0  0  0  0  0  0  0  0  0  0  0
  140.4226   71.2728  219.2092 H   0  0  0  0  0  0  0  0  0  0  0  0
  139.3441   73.5015  218.9994 H   0  0  0  0  0  0  0  0  0  0  0  0
  140.9918   74.9700  220.5005 H   0  0  0  0  0  0  0  0  0  0  0  0
  140.7301   76.1927  219.2387 H   0  0  0  0  0  0  0  0  0  0  0  0
  141.5478   76.5907  222.1472 H   0  0  0  0  0  0  0  0  0  0  0  0
  142.4125   77.1045  220.6396 H   0  0  0  0  0  0  0  0  0  0  0  0
  142.3893   77.9584  223.3351 H   0  0  0  0  0  0  0  0  0  0  0  0
  143.2045   79.7494  224.8339 H   0  0  0  0  0  0  0  0  0  0  0  0
  142.5386   82.1014  224.4213 H   0  0  0  0  0  0  0  0  0  0  0  0
  141.0433   82.6715  222.4800 H   0  0  0  0  0  0  0  0  0  0  0  0
  140.2639   80.8379  221.0206 H   0  0  0  0  0  0  0  0  0  0  0  0
  139.2399   79.4921  220.4001 H   0  0  0  0  0  0  0  0  0  0  0  0
  139.9211   78.3495  219.2431 H   0  0  0  0  0  0  0  0  0  0  0  0
  138.2782   77.6758  221.7779 H   0  0  0  0  0  0  0  0  0  0  0  0
  137.7544   77.4410  220.0788 H   0  0  0  0  0  0  0  0  0  0  0  0
  139.0124   73.6286  223.2925 H   0  0  0  0  0  0  0  0  0  0  0  0
  1  2  1  0
  2  3  2  0
  3  4  1  0
  4  5  2  0
  5  6  1  0
  6  7  2  0
  6  8  1  0
  8  9  1  0
  9 10  1  0
 10 11  2  0
 11 12  1  0
 12 13  2  0
 13 14  1  0
 14 15  1  0
 15 16  2  0
 15 17  1  0
 17 18  1  0
 18 19  1  0
 19 20  1  0
 20 21  1  0
 21 22  2  0
 22 23  1  0
 23 24  2  0
 24 25  1  0
 25 26  2  0
 20 27  1  0
 27 28  1  0
 14 29  2  0
  9 30  2  0
  7  2  1  0
 29 10  1  0
 30  5  1  0
 28 17  1  0
 26 21  1  0
  1 31  1  0
  1 32  1  0
  1 33  1  0
  3 34  1  0
  4 35  1  0
  7 36  1  0
  8 37  1  0
  8 38  1  0
 11 39  1  0
 12 40  1  0
 13 41  1  0
 18 42  1  0
 18 43  1  0
 19 44  1  0
 19 45  1  0
 22 46  1  0
 23 47  1  0
 24 48  1  0
 25 49  1  0
 26 50  1  0
 27 51  1  0
 27 52  1  0
 28 53  1  0
 28 54  1  0
 29 55  1  0
M  END
>  <smiles>  (46) 
Cc1ccc2c(c1)CC(c1cccc(C(=O)N3CCN(c4ccccc4)CC3)c1)=N2

>  <score_type>  (46) 
oracle

>  <origin>  (46) 
autodockgpu

>  <m_score__min__energy>  (46) 
-8.7599999999999998

>  <m_primary>  (46) 
energy

>  <rmsd>  (46) 
4.393896869340122

>  <m_score__min__rmsd>  (46) 
4.393896869340122

>  <meeko>  (46) 
{"free_energy": -8.7, "intermolecular_energy": -9.59, "internal_energy": -0.92, "cluster_size": 49, "cluster_id": 1, "rank_in_cluster": 28}

>  <energy>  (46) 
-8.64

>  <cluster_rmsd>  (46) 
0.77

>  <cluster>  (46) 
1

$$$$

     RDKit          3D

 55 59  0  0  0  0  0  0  0  0999 V2000
  140.8150   68.1450  228.9910 C   0  0  0  0  0  0  0  0  0  0  0  0
  140.7340   69.1500  227.8930 C   0  0  0  0  0  0  0  0  0  0  0  0
  141.0910   70.4520  228.2400 C   0  0  0  0  0  0  0  0  0  0  0  0
  141.0230   71.4000  227.2410 C   0  0  0  0  0  0  0  0  0  0  0  0
  140.6210   71.0600  225.9620 C   0  0  0  0  0  0  0  0  0  0  0  0
  140.2660   69.7690  225.6150 C   0  0  0  0  0  0  0  0  0  0  0  0
  140.3340   68.8210  226.6160 C   0  0  0  0  0  0  0  0  0  0  0  0
  139.8980   69.7990  224.1830 C   0  0  0  0  0  0  0  0  0  0  0  0
  140.0890   71.2230  223.7980 C   0  0  0  0  0  0  0  0  0  0  0  0
  139.8610   71.7920  222.4740 C   0  0  0  0  0  0  0  0  0  0  0  0
  140.1990   71.1180  221.3070 C   0  0  0  0  0  0  0  0  0  0  0  0
  139.9620   71.7000  220.0670 C   0  0  0  0  0  0  0  0  0  0  0  0
  139.3900   72.9500  219.9350 C   0  0  0  0  0  0  0  0  0  0  0  0
  139.0560   73.6170  221.0920 C   0  0  0  0  0  0  0  0  0  0  0  0
  138.4430   74.9400  221.1120 C   0  0  0  0  0  0  0  0  0  0  0  0
  137.2440   75.0550  221.4660 O   0  0  0  0  0  0  0  0  0  0  0  0
  139.2360   76.0560  220.7220 N   0  0  0  0  0  0  0  0  0  0  0  0
  140.6380   75.8930  220.3100 C   0  0  0  0  0  0  0  0  0  0  0  0
  141.4480   76.8530  221.1400 C   0  0  0  0  0  0  0  0  0  0  0  0
  140.8220   78.1810  221.1960 N   0  0  0  0  0  0  0  0  0  0  0  0
  141.3220   79.1510  222.1020 C   0  0  0  0  0  0  0  0  0  0  0  0
  141.7860   78.8470  223.3670 C   0  0  0  0  0  0  0  0  0  0  0  0
  142.2660   79.8260  224.2160 C   0  0  0  0  0  0  0  0  0  0  0  0
  142.2850   81.1420  223.7960 C   0  0  0  0  0  0  0  0  0  0  0  0
  141.8240   81.4910  222.5220 C   0  0  0  0  0  0  0  0  0  0  0  0
  141.3570   80.4740  221.7170 C   0  0  0  0  0  0  0  0  0  0  0  0
  139.7150   78.3990  220.2960 C   0  0  0  0  0  0  0  0  0  0  0  0
  138.6520   77.3800  220.7280 C   0  0  0  0  0  0  0  0  0  0  0  0
  139.2910   73.0390  222.3380 C   0  0  0  0  0  0  0  0  0  0  0  0
  140.4890   71.8740  224.8220 N   0  0  0  0  0  0  0  0  0  0  0  0
  140.7736   68.6592  229.9625 H   0  0  0  0  0  0  0  0  0  0  0  0
  139.9704   67.4449  228.9103 H   0  0  0  0  0  0  0  0  0  0  0  0
  141.7609   67.5892  228.9103 H   0  0  0  0  0  0  0  0  0  0  0  0
  141.4111   70.7104  229.2602 H   0  0  0  0  0  0  0  0  0  0  0  0
  141.2926   72.4427  227.4647 H   0  0  0  0  0  0  0  0  0  0  0  0
  140.0628   67.7794  226.3892 H   0  0  0  0  0  0  0  0  0  0  0  0
  140.5563   69.1424  223.5953 H   0  0  0  0  0  0  0  0  0  0  0  0
  138.8739   69.4420  223.9991 H   0  0  0  0  0  0  0  0  0  0  0  0
  140.6563   70.1192  221.3645 H   0  0  0  0  0  0  0  0  0  0  0  0
  140.2399   71.1452  219.1587 H   0  0  0  0  0  0  0  0  0  0  0  0
  139.2086   73.3947  218.9454 H   0  0  0  0  0  0  0  0  0  0  0  0
  140.9694   74.8603  220.4937 H   0  0  0  0  0  0  0  0  0  0  0  0
  140.7609   76.0977  219.2362 H   0  0  0  0  0  0  0  0  0  0  0  0
  141.5348   76.4559  222.1621 H   0  0  0  0  0  0  0  0  0  0  0  0
  142.4389   76.9591  220.6743 H   0  0  0  0  0  0  0  0  0  0  0  0
  141.7731   77.8008  223.7066 H   0  0  0  0  0  0  0  0  0  0  0  0
  142.6304   79.5594  225.2191 H   0  0  0  0  0  0  0  0  0  0  0  0
  142.6664   81.9232  224.4700 H   0  0  0  0  0  0  0  0  0  0  0  0
  141.8338   82.5353  222.1765 H   0  0  0  0  0  0  0  0  0  0  0  0
  140.9922   80.7326  220.7120 H   0  0  0  0  0  0  0  0  0  0  0  0
  139.3311   79.4251  220.3953 H   0  0  0  0  0  0  0  0  0  0  0  0
  140.0057   78.2744  219.2424 H   0  0  0  0  0  0  0  0  0  0  0  0
  138.2993   77.6226  221.7413 H   0  0  0  0  0  0  0  0  0  0  0  0
  137.8015   77.4133  220.0312 H   0  0  0  0  0  0  0  0  0  0  0  0
  139.0120   73.5973  223.2438 H   0  0  0  0  0  0  0  0  0  0  0  0
  1  2  1  0
  2  3  2  0
  3  4  1  0
  4  5  2  0
  5  6  1  0
  6  7  2  0
  6  8  1  0
  8  9  1  0
  9 10  1  0
 10 11  2  0
 11 12  1  0
 12 13  2  0
 13 14  1  0
 14 15  1  0
 15 16  2  0
 15 17  1  0
 17 18  1  0
 18 19  1  0
 19 20  1  0
 20 21  1  0
 21 22  2  0
 22 23  1  0
 23 24  2  0
 24 25  1  0
 25 26  2  0
 20 27  1  0
 27 28  1  0
 14 29  2  0
  9 30  2  0
  7  2  1  0
 29 10  1  0
 30  5  1  0
 28 17  1  0
 26 21  1  0
  1 31  1  0
  1 32  1  0
  1 33  1  0
  3 34  1  0
  4 35  1  0
  7 36  1  0
  8 37  1  0
  8 38  1  0
 11 39  1  0
 12 40  1  0
 13 41  1  0
 18 42  1  0
 18 43  1  0
 19 44  1  0
 19 45  1  0
 22 46  1  0
 23 47  1  0
 24 48  1  0
 25 49  1  0
 26 50  1  0
 27 51  1  0
 27 52  1  0
 28 53  1  0
 28 54  1  0
 29 55  1  0
M  END
>  <smiles>  (47) 
Cc1ccc2c(c1)CC(c1cccc(C(=O)N3CCN(c4ccccc4)CC3)c1)=N2

>  <score_type>  (47) 
oracle

>  <origin>  (47) 
autodockgpu

>  <m_score__min__energy>  (47) 
-8.7599999999999998

>  <m_primary>  (47) 
energy

>  <rmsd>  (47) 
4.33832494510409

>  <m_score__min__rmsd>  (47) 
4.33832494510409

>  <meeko>  (47) 
{"free_energy": -8.7, "intermolecular_energy": -9.59, "internal_energy": -0.95, "cluster_size": 49, "cluster_id": 1, "rank_in_cluster": 27}

>  <energy>  (47) 
-8.61

>  <cluster_rmsd>  (47) 
0.66

>  <cluster>  (47) 
1

$$$$

     RDKit          3D

 55 59  0  0  0  0  0  0  0  0999 V2000
  140.7510   68.1440  229.0120 C   0  0  0  0  0  0  0  0  0  0  0  0
  140.7070   69.1510  227.9140 C   0  0  0  0  0  0  0  0  0  0  0  0
  141.0920   70.4440  228.2660 C   0  0  0  0  0  0  0  0  0  0  0  0
  141.0590   71.3940  227.2680 C   0  0  0  0  0  0  0  0  0  0  0  0
  140.6630   71.0650  225.9840 C   0  0  0  0  0  0  0  0  0  0  0  0
  140.2800   69.7830  225.6330 C   0  0  0  0  0  0  0  0  0  0  0  0
  140.3120   68.8330  226.6330 C   0  0  0  0  0  0  0  0  0  0  0  0
  139.9280   69.8240  224.1960 C   0  0  0  0  0  0  0  0  0  0  0  0
  140.1590   71.2430  223.8150 C   0  0  0  0  0  0  0  0  0  0  0  0
  139.9580   71.8180  222.4890 C   0  0  0  0  0  0  0  0  0  0  0  0
  140.3590   71.1670  221.3290 C   0  0  0  0  0  0  0  0  0  0  0  0
  140.1470   71.7550  220.0870 C   0  0  0  0  0  0  0  0  0  0  0  0
  139.5410   72.9880  219.9470 C   0  0  0  0  0  0  0  0  0  0  0  0
  139.1450   73.6320  221.0970 C   0  0  0  0  0  0  0  0  0  0  0  0
  138.4910   74.9350  221.1080 C   0  0  0  0  0  0  0  0  0  0  0  0
  137.2810   75.0110  221.4340 O   0  0  0  0  0  0  0  0  0  0  0  0
  139.2570   76.0770  220.7410 N   0  0  0  0  0  0  0  0  0  0  0  0
  140.6730   75.9600  220.3590 C   0  0  0  0  0  0  0  0  0  0  0  0
  141.4330   76.9410  221.2120 C   0  0  0  0  0  0  0  0  0  0  0  0
  140.7650   78.2480  221.2580 N   0  0  0  0  0  0  0  0  0  0  0  0
  141.2130   79.2300  222.1790 C   0  0  0  0  0  0  0  0  0  0  0  0
  140.3640   80.0470  222.8990 C   0  0  0  0  0  0  0  0  0  0  0  0
  140.8460   80.9890  223.7870 C   0  0  0  0  0  0  0  0  0  0  0  0
  142.2100   81.1220  223.9630 C   0  0  0  0  0  0  0  0  0  0  0  0
  143.1040   80.3140  223.2530 C   0  0  0  0  0  0  0  0  0  0  0  0
  142.5670   79.3910  222.3810 C   0  0  0  0  0  0  0  0  0  0  0  0
  139.6720   78.4350  220.3340 C   0  0  0  0  0  0  0  0  0  0  0  0
  138.6320   77.3820  220.7370 C   0  0  0  0  0  0  0  0  0  0  0  0
  139.3550   73.0490  222.3450 C   0  0  0  0  0  0  0  0  0  0  0  0
  140.5630   71.8820  224.8440 N   0  0  0  0  0  0  0  0  0  0  0  0
  140.7285   68.6595  229.9834 H   0  0  0  0  0  0  0  0  0  0  0  0
  139.8812   67.4754  228.9314 H   0  0  0  0  0  0  0  0  0  0  0  0
  141.6758   67.5539  228.9314 H   0  0  0  0  0  0  0  0  0  0  0  0
  141.4066   70.6937  229.2900 H   0  0  0  0  0  0  0  0  0  0  0  0
  141.3520   72.4295  227.4959 H   0  0  0  0  0  0  0  0  0  0  0  0
  140.0156   67.7991  226.4025 H   0  0  0  0  0  0  0  0  0  0  0  0
  140.5758   69.1516  223.6144 H   0  0  0  0  0  0  0  0  0  0  0  0
  138.8972   69.4933  224.0007 H   0  0  0  0  0  0  0  0  0  0  0  0
  140.8460   70.1828  221.3934 H   0  0  0  0  0  0  0  0  0  0  0  0
  140.4736   71.2189  219.1837 H   0  0  0  0  0  0  0  0  0  0  0  0
  139.3812   73.4375  218.9558 H   0  0  0  0  0  0  0  0  0  0  0  0
  141.0328   74.9373  220.5451 H   0  0  0  0  0  0  0  0  0  0  0  0
  140.8135   76.1736  219.2891 H   0  0  0  0  0  0  0  0  0  0  0  0
  141.5078   76.5421  222.2344 H   0  0  0  0  0  0  0  0  0  0  0  0
  142.4310   77.0799  220.7707 H   0  0  0  0  0  0  0  0  0  0  0  0
  139.2773   79.9452  222.7621 H   0  0  0  0  0  0  0  0  0  0  0  0
  140.1495   81.6281  224.3495 H   0  0  0  0  0  0  0  0  0  0  0  0
  142.5970   81.8714  224.6691 H   0  0  0  0  0  0  0  0  0  0  0  0
  144.1917   80.4111  223.3850 H   0  0  0  0  0  0  0  0  0  0  0  0
  143.2570   78.7476  221.8153 H   0  0  0  0  0  0  0  0  0  0  0  0
  139.2540   79.4481  220.4285 H   0  0  0  0  0  0  0  0  0  0  0  0
  139.9905   78.3239  219.2870 H   0  0  0  0  0  0  0  0  0  0  0  0
  138.2478   77.6096  221.7423 H   0  0  0  0  0  0  0  0  0  0  0  0
  137.7979   77.3914  220.0199 H   0  0  0  0  0  0  0  0  0  0  0  0
  139.0285   73.5895  223.2457 H   0  0  0  0  0  0  0  0  0  0  0  0
  1  2  1  0
  2  3  2  0
  3  4  1  0
  4  5  2  0
  5  6  1  0
  6  7  2  0
  6  8  1  0
  8  9  1  0
  9 10  1  0
 10 11  2  0
 11 12  1  0
 12 13  2  0
 13 14  1  0
 14 15  1  0
 15 16  2  0
 15 17  1  0
 17 18  1  0
 18 19  1  0
 19 20  1  0
 20 21  1  0
 21 22  2  0
 22 23  1  0
 23 24  2  0
 24 25  1  0
 25 26  2  0
 20 27  1  0
 27 28  1  0
 14 29  2  0
  9 30  2  0
  7  2  1  0
 29 10  1  0
 30  5  1  0
 28 17  1  0
 26 21  1  0
  1 31  1  0
  1 32  1  0
  1 33  1  0
  3 34  1  0
  4 35  1  0
  7 36  1  0
  8 37  1  0
  8 38  1  0
 11 39  1  0
 12 40  1  0
 13 41  1  0
 18 42  1  0
 18 43  1  0
 19 44  1  0
 19 45  1  0
 22 46  1  0
 23 47  1  0
 24 48  1  0
 25 49  1  0
 26 50  1  0
 27 51  1  0
 27 52  1  0
 28 53  1  0
 28 54  1  0
 29 55  1  0
M  END
>  <smiles>  (48) 
Cc1ccc2c(c1)CC(c1cccc(C(=O)N3CCN(c4ccccc4)CC3)c1)=N2

>  <score_type>  (48) 
oracle

>  <origin>  (48) 
autodockgpu

>  <m_score__min__energy>  (48) 
-8.7599999999999998

>  <m_primary>  (48) 
energy

>  <rmsd>  (48) 
4.43354619866877

>  <m_score__min__rmsd>  (48) 
4.43354619866877

>  <meeko>  (48) 
{"free_energy": -8.76, "intermolecular_energy": -9.65, "internal_energy": -0.93, "cluster_size": 49, "cluster_id": 1, "rank_in_cluster": 3}

>  <energy>  (48) 
-8.6

>  <cluster_rmsd>  (48) 
0.67

>  <cluster>  (48) 
1

$$$$

     RDKit          3D

 55 59  0  0  0  0  0  0  0  0999 V2000
  140.7720   68.1560  229.0310 C   0  0  0  0  0  0  0  0  0  0  0  0
  140.7180   69.1610  227.9320 C   0  0  0  0  0  0  0  0  0  0  0  0
  141.0930   70.4580  228.2820 C   0  0  0  0  0  0  0  0  0  0  0  0
  141.0510   71.4060  227.2820 C   0  0  0  0  0  0  0  0  0  0  0  0
  140.6560   71.0730  225.9990 C   0  0  0  0  0  0  0  0  0  0  0  0
  140.2830   69.7870  225.6500 C   0  0  0  0  0  0  0  0  0  0  0  0
  140.3250   68.8380  226.6520 C   0  0  0  0  0  0  0  0  0  0  0  0
  139.9300   69.8230  224.2140 C   0  0  0  0  0  0  0  0  0  0  0  0
  140.1480   71.2430  223.8300 C   0  0  0  0  0  0  0  0  0  0  0  0
  139.9420   71.8150  222.5040 C   0  0  0  0  0  0  0  0  0  0  0  0
  140.3320   71.1590  221.3430 C   0  0  0  0  0  0  0  0  0  0  0  0
  140.1150   71.7430  220.1010 C   0  0  0  0  0  0  0  0  0  0  0  0
  139.5130   72.9790  219.9610 C   0  0  0  0  0  0  0  0  0  0  0  0
  139.1270   73.6280  221.1110 C   0  0  0  0  0  0  0  0  0  0  0  0
  138.4780   74.9340  221.1220 C   0  0  0  0  0  0  0  0  0  0  0  0
  137.2680   75.0140  221.4460 O   0  0  0  0  0  0  0  0  0  0  0  0
  139.2500   76.0730  220.7580 N   0  0  0  0  0  0  0  0  0  0  0  0
  140.6660   75.9500  220.3800 C   0  0  0  0  0  0  0  0  0  0  0  0
  141.4280   76.9270  221.2360 C   0  0  0  0  0  0  0  0  0  0  0  0
  140.7650   78.2370  221.2820 N   0  0  0  0  0  0  0  0  0  0  0  0
  141.2150   79.2150  222.2050 C   0  0  0  0  0  0  0  0  0  0  0  0
  140.3680   80.0450  222.9130 C   0  0  0  0  0  0  0  0  0  0  0  0
  140.8520   80.9840  223.8040 C   0  0  0  0  0  0  0  0  0  0  0  0
  142.2140   81.1010  223.9950 C   0  0  0  0  0  0  0  0  0  0  0  0
  143.1070   80.2800  223.2970 C   0  0  0  0  0  0  0  0  0  0  0  0
  142.5680   79.3620  222.4220 C   0  0  0  0  0  0  0  0  0  0  0  0
  139.6750   78.4300  220.3550 C   0  0  0  0  0  0  0  0  0  0  0  0
  138.6300   77.3800  220.7550 C   0  0  0  0  0  0  0  0  0  0  0  0
  139.3420   73.0470  222.3590 C   0  0  0  0  0  0  0  0  0  0  0  0
  140.5480   71.8870  224.8580 N   0  0  0  0  0  0  0  0  0  0  0  0
  140.7443   68.6724  230.0018 H   0  0  0  0  0  0  0  0  0  0  0  0
  139.9090   67.4787  228.9512 H   0  0  0  0  0  0  0  0  0  0  0  0
  141.7027   67.5750  228.9512 H   0  0  0  0  0  0  0  0  0  0  0  0
  141.4067   70.7119  229.3053 H   0  0  0  0  0  0  0  0  0  0  0  0
  141.3362   72.4440  227.5081 H   0  0  0  0  0  0  0  0  0  0  0  0
  140.0382   67.8010  226.4230 H   0  0  0  0  0  0  0  0  0  0  0  0
  140.5833   69.1553  223.6331 H   0  0  0  0  0  0  0  0  0  0  0  0
  138.9019   69.4832  224.0203 H   0  0  0  0  0  0  0  0  0  0  0  0
  140.8148   70.1727  221.4073 H   0  0  0  0  0  0  0  0  0  0  0  0
  140.4336   71.2025  219.1975 H   0  0  0  0  0  0  0  0  0  0  0  0
  139.3490   73.4262  218.9695 H   0  0  0  0  0  0  0  0  0  0  0  0
  141.0207   74.9256  220.5664 H   0  0  0  0  0  0  0  0  0  0  0  0
  140.8104   76.1638  219.3107 H   0  0  0  0  0  0  0  0  0  0  0  0
  141.4988   76.5266  222.2581 H   0  0  0  0  0  0  0  0  0  0  0  0
  142.4275   77.0624  220.7971 H   0  0  0  0  0  0  0  0  0  0  0  0
  139.2817   79.9565  222.7640 H   0  0  0  0  0  0  0  0  0  0  0  0
  140.1571   81.6332  224.3568 H   0  0  0  0  0  0  0  0  0  0  0  0
  142.6018   81.8477  224.7036 H   0  0  0  0  0  0  0  0  0  0  0  0
  144.1943   80.3640  223.4409 H   0  0  0  0  0  0  0  0  0  0  0  0
  143.2567   78.7096  221.8652 H   0  0  0  0  0  0  0  0  0  0  0  0
  139.2608   79.4446  220.4497 H   0  0  0  0  0  0  0  0  0  0  0  0
  139.9953   78.3195  219.3085 H   0  0  0  0  0  0  0  0  0  0  0  0
  138.2451   77.6075  221.7600 H   0  0  0  0  0  0  0  0  0  0  0  0
  137.7970   77.3936  220.0367 H   0  0  0  0  0  0  0  0  0  0  0  0
  139.0216   73.5907  223.2599 H   0  0  0  0  0  0  0  0  0  0  0  0
  1  2  1  0
  2  3  2  0
  3  4  1  0
  4  5  2  0
  5  6  1  0
  6  7  2  0
  6  8  1  0
  8  9  1  0
  9 10  1  0
 10 11  2  0
 11 12  1  0
 12 13  2  0
 13 14  1  0
 14 15  1  0
 15 16  2  0
 15 17  1  0
 17 18  1  0
 18 19  1  0
 19 20  1  0
 20 21  1  0
 21 22  2  0
 22 23  1  0
 23 24  2  0
 24 25  1  0
 25 26  2  0
 20 27  1  0
 27 28  1  0
 14 29  2  0
  9 30  2  0
  7  2  1  0
 29 10  1  0
 30  5  1  0
 28 17  1  0
 26 21  1  0
  1 31  1  0
  1 32  1  0
  1 33  1  0
  3 34  1  0
  4 35  1  0
  7 36  1  0
  8 37  1  0
  8 38  1  0
 11 39  1  0
 12 40  1  0
 13 41  1  0
 18 42  1  0
 18 43  1  0
 19 44  1  0
 19 45  1  0
 22 46  1  0
 23 47  1  0
 24 48  1  0
 25 49  1  0
 26 50  1  0
 27 51  1  0
 27 52  1  0
 28 53  1  0
 28 54  1  0
 29 55  1  0
M  END
>  <smiles>  (49) 
Cc1ccc2c(c1)CC(c1cccc(C(=O)N3CCN(c4ccccc4)CC3)c1)=N2

>  <score_type>  (49) 
oracle

>  <origin>  (49) 
autodockgpu

>  <m_score__min__energy>  (49) 
-8.7599999999999998

>  <m_primary>  (49) 
energy

>  <rmsd>  (49) 
4.436384399497888

>  <m_score__min__rmsd>  (49) 
4.436384399497888

>  <meeko>  (49) 
{"free_energy": -8.74, "intermolecular_energy": -9.63, "internal_energy": -0.93, "cluster_size": 49, "cluster_id": 1, "rank_in_cluster": 11}

>  <energy>  (49) 
-8.55

>  <cluster_rmsd>  (49) 
0.64

>  <cluster>  (49) 
1

$$$$

     RDKit          3D

 55 59  0  0  0  0  0  0  0  0999 V2000
  140.7370   68.1320  228.9670 C   0  0  0  0  0  0  0  0  0  0  0  0
  140.7030   69.1490  227.8780 C   0  0  0  0  0  0  0  0  0  0  0  0
  141.0970   70.4360  228.2430 C   0  0  0  0  0  0  0  0  0  0  0  0
  141.0740   71.3940  227.2530 C   0  0  0  0  0  0  0  0  0  0  0  0
  140.6780   71.0800  225.9650 C   0  0  0  0  0  0  0  0  0  0  0  0
  140.2860   69.8050  225.6010 C   0  0  0  0  0  0  0  0  0  0  0  0
  140.3090   68.8450  226.5940 C   0  0  0  0  0  0  0  0  0  0  0  0
  139.9390   69.8610  224.1650 C   0  0  0  0  0  0  0  0  0  0  0  0
  140.1810   71.2810  223.7960 C   0  0  0  0  0  0  0  0  0  0  0  0
  139.9890   71.8700  222.4760 C   0  0  0  0  0  0  0  0  0  0  0  0
  140.4020   71.2330  221.3110 C   0  0  0  0  0  0  0  0  0  0  0  0
  140.1970   71.8330  220.0740 C   0  0  0  0  0  0  0  0  0  0  0  0
  139.5860   73.0650  219.9420 C   0  0  0  0  0  0  0  0  0  0  0  0
  139.1780   73.6940  221.0960 C   0  0  0  0  0  0  0  0  0  0  0  0
  138.5160   74.9940  221.1160 C   0  0  0  0  0  0  0  0  0  0  0  0
  137.3090   75.0620  221.4530 O   0  0  0  0  0  0  0  0  0  0  0  0
  139.2730   76.1410  220.7450 N   0  0  0  0  0  0  0  0  0  0  0  0
  140.6860   76.0320  220.3510 C   0  0  0  0  0  0  0  0  0  0  0  0
  141.4480   77.0150  221.1990 C   0  0  0  0  0  0  0  0  0  0  0  0
  140.7730   78.3190  221.2540 N   0  0  0  0  0  0  0  0  0  0  0  0
  141.2240   79.3010  222.1740 C   0  0  0  0  0  0  0  0  0  0  0  0
  140.3800   80.1650  222.8440 C   0  0  0  0  0  0  0  0  0  0  0  0
  140.8650   81.1060  223.7330 C   0  0  0  0  0  0  0  0  0  0  0  0
  142.2250   81.1890  223.9600 C   0  0  0  0  0  0  0  0  0  0  0  0
  143.1130   80.3320  223.3020 C   0  0  0  0  0  0  0  0  0  0  0  0
  142.5740   79.4140  222.4260 C   0  0  0  0  0  0  0  0  0  0  0  0
  139.6710   78.5020  220.3400 C   0  0  0  0  0  0  0  0  0  0  0  0
  138.6400   77.4420  220.7500 C   0  0  0  0  0  0  0  0  0  0  0  0
  139.3800   73.0980  222.3390 C   0  0  0  0  0  0  0  0  0  0  0  0
  140.5880   71.9080  224.8320 N   0  0  0  0  0  0  0  0  0  0  0  0
  140.7200   68.6391  229.9430 H   0  0  0  0  0  0  0  0  0  0  0  0
  139.8604   67.4731  228.8809 H   0  0  0  0  0  0  0  0  0  0  0  0
  141.6557   67.5331  228.8809 H   0  0  0  0  0  0  0  0  0  0  0  0
  141.4105   70.6744  229.2701 H   0  0  0  0  0  0  0  0  0  0  0  0
  141.3753   72.4249  227.4904 H   0  0  0  0  0  0  0  0  0  0  0  0
  140.0060   67.8152  226.3538 H   0  0  0  0  0  0  0  0  0  0  0  0
  140.5837   69.1888  223.5797 H   0  0  0  0  0  0  0  0  0  0  0  0
  138.9063   69.5397  223.9643 H   0  0  0  0  0  0  0  0  0  0  0  0
  140.8929   70.2503  221.3685 H   0  0  0  0  0  0  0  0  0  0  0  0
  140.5333   71.3080  219.1677 H   0  0  0  0  0  0  0  0  0  0  0  0
  139.4319   73.5245  218.9545 H   0  0  0  0  0  0  0  0  0  0  0  0
  141.0525   75.0108  220.5323 H   0  0  0  0  0  0  0  0  0  0  0  0
  140.8163   76.2483  219.2804 H   0  0  0  0  0  0  0  0  0  0  0  0
  141.5342   76.6143  222.2198 H   0  0  0  0  0  0  0  0  0  0  0  0
  142.4411   77.1603  220.7489 H   0  0  0  0  0  0  0  0  0  0  0  0
  139.2963   80.1029  222.6660 H   0  0  0  0  0  0  0  0  0  0  0  0
  140.1734   81.7833  224.2555 H   0  0  0  0  0  0  0  0  0  0  0  0
  142.6139   81.9374  224.6661 H   0  0  0  0  0  0  0  0  0  0  0  0
  144.1976   80.3881  223.4764 H   0  0  0  0  0  0  0  0  0  0  0  0
  143.2596   78.7341  221.8990 H   0  0  0  0  0  0  0  0  0  0  0  0
  139.2483   79.5126  220.4403 H   0  0  0  0  0  0  0  0  0  0  0  0
  139.9809   78.3949  219.2900 H   0  0  0  0  0  0  0  0  0  0  0  0
  138.2636   77.6649  221.7593 H   0  0  0  0  0  0  0  0  0  0  0  0
  137.7990   77.4484  220.0409 H   0  0  0  0  0  0  0  0  0  0  0  0
  139.0414   73.6264  223.2424 H   0  0  0  0  0  0  0  0  0  0  0  0
  1  2  1  0
  2  3  2  0
  3  4  1  0
  4  5  2  0
  5  6  1  0
  6  7  2  0
  6  8  1  0
  8  9  1  0
  9 10  1  0
 10 11  2  0
 11 12  1  0
 12 13  2  0
 13 14  1  0
 14 15  1  0
 15 16  2  0
 15 17  1  0
 17 18  1  0
 18 19  1  0
 19 20  1  0
 20 21  1  0
 21 22  2  0
 22 23  1  0
 23 24  2  0
 24 25  1  0
 25 26  2  0
 20 27  1  0
 27 28  1  0
 14 29  2  0
  9 30  2  0
  7  2  1  0
 29 10  1  0
 30  5  1  0
 28 17  1  0
 26 21  1  0
  1 31  1  0
  1 32  1  0
  1 33  1  0
  3 34  1  0
  4 35  1  0
  7 36  1  0
  8 37  1  0
  8 38  1  0
 11 39  1  0
 12 40  1  0
 13 41  1  0
 18 42  1  0
 18 43  1  0
 19 44  1  0
 19 45  1  0
 22 46  1  0
 23 47  1  0
 24 48  1  0
 25 49  1  0
 26 50  1  0
 27 51  1  0
 27 52  1  0
 28 53  1  0
 28 54  1  0
 29 55  1  0
M  END
>  <smiles>  (50) 
Cc1ccc2c(c1)CC(c1cccc(C(=O)N3CCN(c4ccccc4)CC3)c1)=N2

>  <score_type>  (50) 
oracle

>  <origin>  (50) 
autodockgpu

>  <m_score__min__energy>  (50) 
-8.7599999999999998

>  <m_primary>  (50) 
energy

>  <rmsd>  (50) 
4.473692747640795

>  <m_score__min__rmsd>  (50) 
4.473692747640795

>  <meeko>  (50) 
{"free_energy": -8.74, "intermolecular_energy": -9.64, "internal_energy": -0.92, "cluster_size": 49, "cluster_id": 1, "rank_in_cluster": 9}

>  <energy>  (50) 
-8.43

>  <cluster_rmsd>  (50) 
0.0

>  <cluster>  (50) 
2

$$$$
