
     RDKit          3D

 52 55  0  0  0  0  0  0  0  0999 V2000
  138.1720   68.9350  221.8880 O   0  0  0  0  0  0  0  0  0  0  0  0
  138.7540   69.8880  222.4560 C   0  0  0  0  0  0  0  0  0  0  0  0
  139.0020   71.0690  221.6800 N   0  0  0  0  0  0  0  0  0  0  0  0
  138.5990   71.1750  220.2890 C   0  0  0  0  0  0  0  0  0  0  0  0
  137.9630   72.5050  220.1120 C   0  0  0  0  0  0  0  0  0  0  0  0
  137.8120   72.9070  218.9270 O   0  0  0  0  0  0  0  0  0  0  0  0
  137.5500   73.2770  221.2280 N   0  0  0  0  0  0  0  0  0  0  0  0
  136.7350   72.9210  222.3620 C   0  0  0  0  0  0  0  0  0  0  0  0
  135.9880   74.1740  222.7250 C   0  0  2  0  0  0  0  0  0  0  0  0
  134.6570   74.1040  222.3120 F   0  0  0  0  0  0  0  0  0  0  0  0
  136.7230   75.2670  222.0420 C   0  0  0  0  0  0  0  0  0  0  0  0
  137.9110   74.6740  221.4290 C   0  0  1  0  0  0  0  0  0  0  0  0
  139.2370   74.8030  222.0890 C   0  0  0  0  0  0  0  0  0  0  0  0
  140.1910   73.8890  221.9730 O   0  0  0  0  0  0  0  0  0  0  0  0
  141.3730   73.5660  221.4590 C   0  0  0  0  0  0  0  0  0  0  0  0
  142.1660   74.6320  220.9740 C   0  0  0  0  0  0  0  0  0  0  0  0
  143.4030   74.4300  220.4240 C   0  0  0  0  0  0  0  0  0  0  0  0
  143.9050   73.1540  220.3330 C   0  0  0  0  0  0  0  0  0  0  0  0
  145.4800   72.8340  219.6410 Cl  0  0  0  0  0  0  0  0  0  0  0  0
  143.1830   72.0790  220.7880 C   0  0  0  0  0  0  0  0  0  0  0  0
  141.9460   72.3240  221.3330 C   0  0  0  0  0  0  0  0  0  0  0  0
  139.1750   69.8210  223.8530 C   0  0  0  0  0  0  0  0  0  0  0  0
  138.8970   68.7170  224.5990 C   0  0  0  0  0  0  0  0  0  0  0  0
  139.3000   68.6580  225.9300 C   0  0  0  0  0  0  0  0  0  0  0  0
  139.9780   69.7340  226.4630 C   0  0  0  0  0  0  0  0  0  0  0  0
  140.4070   69.7460  227.7730 C   0  0  0  0  0  0  0  0  0  0  0  0
  141.0880   70.8400  228.2850 C   0  0  0  0  0  0  0  0  0  0  0  0
  141.3660   71.9590  227.5150 C   0  0  0  0  0  0  0  0  0  0  0  0
  140.9190   71.9120  226.2010 C   0  0  0  0  0  0  0  0  0  0  0  0
  140.2410   70.8250  225.6880 C   0  0  0  0  0  0  0  0  0  0  0  0
  139.8450   70.8710  224.3960 N   0  0  0  0  0  0  0  0  0  0  0  0
  139.4870   71.8410  222.1860 H   0  0  0  0  0  0  0  0  0  0  0  0
  139.4791   71.0889  219.6348 H   0  0  0  0  0  0  0  0  0  0  0  0
  137.8970   70.3702  220.0252 H   0  0  0  0  0  0  0  0  0  0  0  0
  136.0326   72.1179  222.0943 H   0  0  0  0  0  0  0  0  0  0  0  0
  137.3412   72.5483  223.2008 H   0  0  0  0  0  0  0  0  0  0  0  0
  135.9461   74.3342  223.8125 H   0  0  0  0  0  0  0  0  0  0  0  0
  136.0873   75.7222  221.2682 H   0  0  0  0  0  0  0  0  0  0  0  0
  137.0049   76.0537  222.7573 H   0  0  0  0  0  0  0  0  0  0  0  0
  138.1217   75.2583  220.5211 H   0  0  0  0  0  0  0  0  0  0  0  0
  139.6707   75.7433  221.7179 H   0  0  0  0  0  0  0  0  0  0  0  0
  138.9660   74.7066  223.1507 H   0  0  0  0  0  0  0  0  0  0  0  0
  141.7754   75.6581  221.0411 H   0  0  0  0  0  0  0  0  0  0  0  0
  143.9916   75.2838  220.0571 H   0  0  0  0  0  0  0  0  0  0  0  0
  143.5814   71.0560  220.7186 H   0  0  0  0  0  0  0  0  0  0  0  0
  141.3705   71.4597  221.6961 H   0  0  0  0  0  0  0  0  0  0  0  0
  138.3542   67.8720  224.1503 H   0  0  0  0  0  0  0  0  0  0  0  0
  139.0822   67.7716  226.5438 H   0  0  0  0  0  0  0  0  0  0  0  0
  140.2070   68.8785  228.4190 H   0  0  0  0  0  0  0  0  0  0  0  0
  141.4178   70.8194  229.3342 H   0  0  0  0  0  0  0  0  0  0  0  0
  141.9059   72.8281  227.9189 H   0  0  0  0  0  0  0  0  0  0  0  0
  141.1126   72.7733  225.5447 H   0  0  0  0  0  0  0  0  0  0  0  0
  1  2  2  0
  2  3  1  0
  3  4  1  0
  4  5  1  0
  5  6  2  0
  5  7  1  0
  7  8  1  0
  8  9  1  0
  9 10  1  0
  9 11  1  0
 11 12  1  0
 12 13  1  0
 13 14  1  0
 14 15  1  0
 15 16  2  0
 16 17  1  0
 17 18  2  0
 18 19  1  0
 18 20  1  0
 20 21  2  0
  2 22  1  0
 22 23  2  0
 23 24  1  0
 24 25  2  0
 25 26  1  0
 26 27  2  0
 27 28  1  0
 28 29  2  0
 29 30  1  0
 30 31  2  0
 12  7  1  0
 21 15  1  0
 31 22  1  0
 30 25  1  0
  3 32  1  0
  4 33  1  0
  4 34  1  0
  8 35  1  0
  8 36  1  0
  9 37  1  1
 11 38  1  0
 11 39  1  0
 12 40  1  6
 13 41  1  0
 13 42  1  0
 16 43  1  0
 17 44  1  0
 20 45  1  0
 21 46  1  0
 23 47  1  0
 24 48  1  0
 26 49  1  0
 27 50  1  0
 28 51  1  0
 29 52  1  0
M  END
>  <smiles>  (1) 
O=C(NCC(=O)N1C[C@H](F)C[C@H]1COc1ccc(Cl)cc1)c1ccc2ccccc2n1

>  <score_type>  (1) 
oracle

>  <origin>  (1) 
autodockgpu

>  <m_score__min__energy>  (1) 
-8.1600000000000001

>  <m_primary>  (1) 
energy

>  <rmsd>  (1) 
3.5984683195388985

>  <m_score__min__rmsd>  (1) 
3.5984683195388985

>  <meeko>  (1) 
{"free_energy": -6.83, "intermolecular_energy": -8.92, "internal_energy": -3.19, "cluster_size": 4, "cluster_id": 6, "rank_in_cluster": 4}

>  <energy>  (1) 
-8.16

>  <cluster_rmsd>  (1) 
0.0

>  <cluster>  (1) 
1

$$$$

     RDKit          3D

 52 55  0  0  0  0  0  0  0  0999 V2000
  140.4960   71.1590  221.7000 O   0  0  0  0  0  0  0  0  0  0  0  0
  140.2420   71.7970  222.7480 C   0  0  0  0  0  0  0  0  0  0  0  0
  139.8200   73.1610  222.6050 N   0  0  0  0  0  0  0  0  0  0  0  0
  139.6860   73.7940  221.3060 C   0  0  0  0  0  0  0  0  0  0  0  0
  139.1110   75.1450  221.5270 C   0  0  0  0  0  0  0  0  0  0  0  0
  138.9740   75.5130  222.7240 O   0  0  0  0  0  0  0  0  0  0  0  0
  138.7350   75.9710  220.4360 N   0  0  0  0  0  0  0  0  0  0  0  0
  137.9160   77.1560  220.3980 C   0  0  0  0  0  0  0  0  0  0  0  0
  137.2200   77.1170  219.0660 C   0  0  2  0  0  0  0  0  0  0  0  0
  135.8840   76.7380  219.2070 F   0  0  0  0  0  0  0  0  0  0  0  0
  137.9910   76.1360  218.2630 C   0  0  0  0  0  0  0  0  0  0  0  0
  139.1500   75.7380  219.0590 C   0  0  1  0  0  0  0  0  0  0  0  0
  140.4860   76.3330  218.7850 C   0  0  0  0  0  0  0  0  0  0  0  0
  141.2470   76.8590  219.7350 O   0  0  0  0  0  0  0  0  0  0  0  0
  141.4440   77.8640  220.5810 C   0  0  0  0  0  0  0  0  0  0  0  0
  141.2440   77.5850  221.9540 C   0  0  0  0  0  0  0  0  0  0  0  0
  141.4170   78.5340  222.9240 C   0  0  0  0  0  0  0  0  0  0  0  0
  141.7980   79.8060  222.5690 C   0  0  0  0  0  0  0  0  0  0  0  0
  142.0350   81.0610  223.7650 Cl  0  0  0  0  0  0  0  0  0  0  0  0
  142.0080   80.1370  221.2540 C   0  0  0  0  0  0  0  0  0  0  0  0
  141.8240   79.1560  220.3100 C   0  0  0  0  0  0  0  0  0  0  0  0
  140.3630   71.1970  224.0740 C   0  0  0  0  0  0  0  0  0  0  0  0
  140.9390   71.8960  225.0900 C   0  0  0  0  0  0  0  0  0  0  0  0
  141.0530   71.3200  226.3520 C   0  0  0  0  0  0  0  0  0  0  0  0
  140.5740   70.0400  226.5400 C   0  0  0  0  0  0  0  0  0  0  0  0
  140.6530   69.4070  227.7620 C   0  0  0  0  0  0  0  0  0  0  0  0
  140.1620   68.1200  227.9240 C   0  0  0  0  0  0  0  0  0  0  0  0
  139.5780   67.4190  226.8820 C   0  0  0  0  0  0  0  0  0  0  0  0
  139.5150   68.0870  225.6660 C   0  0  0  0  0  0  0  0  0  0  0  0
  140.0030   69.3690  225.5000 C   0  0  0  0  0  0  0  0  0  0  0  0
  139.8970   69.9380  224.2790 N   0  0  0  0  0  0  0  0  0  0  0  0
  139.6160   73.6600  223.4980 H   0  0  0  0  0  0  0  0  0  0  0  0
  140.6720   73.8791  220.8258 H   0  0  0  0  0  0  0  0  0  0  0  0
  139.0355   73.1980  220.6490 H   0  0  0  0  0  0  0  0  0  0  0  0
  137.1815   77.1427  221.2167 H   0  0  0  0  0  0  0  0  0  0  0  0
  138.5141   78.0710  220.5207 H   0  0  0  0  0  0  0  0  0  0  0  0
  137.1923   78.1038  218.5808 H   0  0  0  0  0  0  0  0  0  0  0  0
  137.3670   75.2577  218.0414 H   0  0  0  0  0  0  0  0  0  0  0  0
  138.3084   76.5787  217.3074 H   0  0  0  0  0  0  0  0  0  0  0  0
  139.3755   74.6960  218.7882 H   0  0  0  0  0  0  0  0  0  0  0  0
  141.0852   75.5347  218.3228 H   0  0  0  0  0  0  0  0  0  0  0  0
  140.2163   77.2234  218.1982 H   0  0  0  0  0  0  0  0  0  0  0  0
  140.9391   76.5707  222.2512 H   0  0  0  0  0  0  0  0  0  0  0  0
  141.2522   78.2806  223.9817 H   0  0  0  0  0  0  0  0  0  0  0  0
  142.3134   81.1536  220.9654 H   0  0  0  0  0  0  0  0  0  0  0  0
  141.9939   79.4256  219.2572 H   0  0  0  0  0  0  0  0  0  0  0  0
  141.3140   72.9150  224.9139 H   0  0  0  0  0  0  0  0  0  0  0  0
  141.5154   71.8739  227.1822 H   0  0  0  0  0  0  0  0  0  0  0  0
  141.1097   69.9275  228.6167 H   0  0  0  0  0  0  0  0  0  0  0  0
  140.2388   67.6409  228.9112 H   0  0  0  0  0  0  0  0  0  0  0  0
  139.1888   66.3981  227.0094 H   0  0  0  0  0  0  0  0  0  0  0  0
  139.0602   67.5771  224.8039 H   0  0  0  0  0  0  0  0  0  0  0  0
  1  2  2  0
  2  3  1  0
  3  4  1  0
  4  5  1  0
  5  6  2  0
  5  7  1  0
  7  8  1  0
  8  9  1  0
  9 10  1  0
  9 11  1  0
 11 12  1  0
 12 13  1  0
 13 14  1  0
 14 15  1  0
 15 16  2  0
 16 17  1  0
 17 18  2  0
 18 19  1  0
 18 20  1  0
 20 21  2  0
  2 22  1  0
 22 23  2  0
 23 24  1  0
 24 25  2  0
 25 26  1  0
 26 27  2  0
 27 28  1  0
 28 29  2  0
 29 30  1  0
 30 31  2  0
 12  7  1  0
 21 15  1  0
 31 22  1  0
 30 25  1  0
  3 32  1  0
  4 33  1  0
  4 34  1  0
  8 35  1  0
  8 36  1  0
  9 37  1  6
 11 38  1  0
 11 39  1  0
 12 40  1  1
 13 41  1  0
 13 42  1  0
 16 43  1  0
 17 44  1  0
 20 45  1  0
 21 46  1  0
 23 47  1  0
 24 48  1  0
 26 49  1  0
 27 50  1  0
 28 51  1  0
 29 52  1  0
M  END
>  <smiles>  (2) 
O=C(NCC(=O)N1C[C@H](F)C[C@H]1COc1ccc(Cl)cc1)c1ccc2ccccc2n1

>  <score_type>  (2) 
oracle

>  <origin>  (2) 
autodockgpu

>  <m_score__min__energy>  (2) 
-8.1600000000000001

>  <m_primary>  (2) 
energy

>  <rmsd>  (2) 
3.1265675733469234

>  <m_score__min__rmsd>  (2) 
3.1265675733469234

>  <meeko>  (2) 
{"free_energy": -7.37, "intermolecular_energy": -9.45, "internal_energy": -2.24, "cluster_size": 10, "cluster_id": 2, "rank_in_cluster": 9}

>  <energy>  (2) 
-8.16

>  <cluster_rmsd>  (2) 
1.82

>  <cluster>  (2) 
1

$$$$

     RDKit          3D

 52 55  0  0  0  0  0  0  0  0999 V2000
  138.0210   70.5090  221.9170 O   0  0  0  0  0  0  0  0  0  0  0  0
  138.6960   71.0000  222.8510 C   0  0  0  0  0  0  0  0  0  0  0  0
  139.0790   72.3770  222.7370 N   0  0  0  0  0  0  0  0  0  0  0  0
  138.7070   73.1880  221.5920 C   0  0  0  0  0  0  0  0  0  0  0  0
  139.1030   74.5870  221.8900 C   0  0  0  0  0  0  0  0  0  0  0  0
  140.3320   74.8030  222.0670 O   0  0  0  0  0  0  0  0  0  0  0  0
  138.1370   75.6230  221.9710 N   0  0  0  0  0  0  0  0  0  0  0  0
  137.7120   76.4220  223.0920 C   0  0  0  0  0  0  0  0  0  0  0  0
  136.2550   76.7060  222.8500 C   0  0  2  0  0  0  0  0  0  0  0  0
  135.4460   75.9210  223.6730 F   0  0  0  0  0  0  0  0  0  0  0  0
  136.0420   76.4020  221.4130 C   0  0  0  0  0  0  0  0  0  0  0  0
  137.3490   76.0890  220.8370 C   0  0  1  0  0  0  0  0  0  0  0  0
  138.0840   77.1140  220.0480 C   0  0  0  0  0  0  0  0  0  0  0  0
  139.2700   77.5840  220.4080 O   0  0  0  0  0  0  0  0  0  0  0  0
  139.9620   78.3520  221.2440 C   0  0  0  0  0  0  0  0  0  0  0  0
  141.3730   78.2690  221.1580 C   0  0  0  0  0  0  0  0  0  0  0  0
  142.1960   79.0090  221.9610 C   0  0  0  0  0  0  0  0  0  0  0  0
  141.6510   79.8660  222.8880 C   0  0  0  0  0  0  0  0  0  0  0  0
  142.6540   80.8380  223.9420 Cl  0  0  0  0  0  0  0  0  0  0  0  0
  140.2900   79.9900  223.0170 C   0  0  0  0  0  0  0  0  0  0  0  0
  139.4980   79.2300  222.1920 C   0  0  0  0  0  0  0  0  0  0  0  0
  139.0900   70.2180  224.0210 C   0  0  0  0  0  0  0  0  0  0  0  0
  138.8440   68.8810  224.0640 C   0  0  0  0  0  0  0  0  0  0  0  0
  139.2210   68.1410  225.1810 C   0  0  0  0  0  0  0  0  0  0  0  0
  139.8410   68.7920  226.2270 C   0  0  0  0  0  0  0  0  0  0  0  0
  140.2410   68.1240  227.3640 C   0  0  0  0  0  0  0  0  0  0  0  0
  140.8620   68.8030  228.4020 C   0  0  0  0  0  0  0  0  0  0  0  0
  141.1070   70.1650  228.3460 C   0  0  0  0  0  0  0  0  0  0  0  0
  140.6900   70.8060  227.1870 C   0  0  0  0  0  0  0  0  0  0  0  0
  140.0710   70.1340  226.1510 C   0  0  0  0  0  0  0  0  0  0  0  0
  139.7010   70.8430  225.0610 N   0  0  0  0  0  0  0  0  0  0  0  0
  139.6390   72.7520  223.5340 H   0  0  0  0  0  0  0  0  0  0  0  0
  139.2319   72.8323  220.6931 H   0  0  0  0  0  0  0  0  0  0  0  0
  137.6249   73.1225  221.4055 H   0  0  0  0  0  0  0  0  0  0  0  0
  137.8450   75.8673  224.0325 H   0  0  0  0  0  0  0  0  0  0  0  0
  138.3000   77.3474  223.1813 H   0  0  0  0  0  0  0  0  0  0  0  0
  135.9877   77.7464  223.0869 H   0  0  0  0  0  0  0  0  0  0  0  0
  135.3673   75.5397  221.3065 H   0  0  0  0  0  0  0  0  0  0  0  0
  135.5839   77.2588  220.8972 H   0  0  0  0  0  0  0  0  0  0  0  0
  137.1726   75.3587  220.0336 H   0  0  0  0  0  0  0  0  0  0  0  0
  138.2191   76.6853  219.0440 H   0  0  0  0  0  0  0  0  0  0  0  0
  137.4445   77.9987  220.1834 H   0  0  0  0  0  0  0  0  0  0  0  0
  141.8218   77.5868  220.4210 H   0  0  0  0  0  0  0  0  0  0  0  0
  143.2882   78.9192  221.8659 H   0  0  0  0  0  0  0  0  0  0  0  0
  139.8488   80.6749  223.7561 H   0  0  0  0  0  0  0  0  0  0  0  0
  138.4080   79.3325  222.2989 H   0  0  0  0  0  0  0  0  0  0  0  0
  138.3476   68.3850  223.2169 H   0  0  0  0  0  0  0  0  0  0  0  0
  139.0284   67.0590  225.2286 H   0  0  0  0  0  0  0  0  0  0  0  0
  140.0661   67.0414  227.4493 H   0  0  0  0  0  0  0  0  0  0  0  0
  141.1693   68.2425  229.2972 H   0  0  0  0  0  0  0  0  0  0  0  0
  141.6006   70.7047  229.1676 H   0  0  0  0  0  0  0  0  0  0  0  0
  140.8588   71.8887  227.0903 H   0  0  0  0  0  0  0  0  0  0  0  0
  1  2  2  0
  2  3  1  0
  3  4  1  0
  4  5  1  0
  5  6  2  0
  5  7  1  0
  7  8  1  0
  8  9  1  0
  9 10  1  0
  9 11  1  0
 11 12  1  0
 12 13  1  0
 13 14  1  0
 14 15  1  0
 15 16  2  0
 16 17  1  0
 17 18  2  0
 18 19  1  0
 18 20  1  0
 20 21  2  0
  2 22  1  0
 22 23  2  0
 23 24  1  0
 24 25  2  0
 25 26  1  0
 26 27  2  0
 27 28  1  0
 28 29  2  0
 29 30  1  0
 30 31  2  0
 12  7  1  0
 21 15  1  0
 31 22  1  0
 30 25  1  0
  3 32  1  0
  4 33  1  0
  4 34  1  0
  8 35  1  0
  8 36  1  0
  9 37  1  6
 11 38  1  0
 11 39  1  0
 12 40  1  6
 13 41  1  0
 13 42  1  0
 16 43  1  0
 17 44  1  0
 20 45  1  0
 21 46  1  0
 23 47  1  0
 24 48  1  0
 26 49  1  0
 27 50  1  0
 28 51  1  0
 29 52  1  0
M  END
>  <smiles>  (3) 
O=C(NCC(=O)N1C[C@H](F)C[C@H]1COc1ccc(Cl)cc1)c1ccc2ccccc2n1

>  <score_type>  (3) 
oracle

>  <origin>  (3) 
autodockgpu

>  <m_score__min__energy>  (3) 
-8.1600000000000001

>  <m_primary>  (3) 
energy

>  <rmsd>  (3) 
3.225845573456416

>  <m_score__min__rmsd>  (3) 
3.225845573456416

>  <meeko>  (3) 
{"free_energy": -7.88, "intermolecular_energy": -9.97, "internal_energy": -2.1, "cluster_size": 10, "cluster_id": 2, "rank_in_cluster": 3}

>  <energy>  (3) 
-8.13

>  <cluster_rmsd>  (3) 
1.2

>  <cluster>  (3) 
1

$$$$

     RDKit          3D

 52 55  0  0  0  0  0  0  0  0999 V2000
  140.8650   71.8180  221.4460 O   0  0  0  0  0  0  0  0  0  0  0  0
  140.1290   72.1290  222.4110 C   0  0  0  0  0  0  0  0  0  0  0  0
  139.3120   73.2990  222.2680 N   0  0  0  0  0  0  0  0  0  0  0  0
  139.3220   74.1040  221.0590 C   0  0  0  0  0  0  0  0  0  0  0  0
  139.0660   75.5100  221.4590 C   0  0  0  0  0  0  0  0  0  0  0  0
  138.0490   75.7200  222.1730 O   0  0  0  0  0  0  0  0  0  0  0  0
  139.9300   76.5590  221.0520 N   0  0  0  0  0  0  0  0  0  0  0  0
  141.0800   77.1320  221.7050 C   0  0  0  0  0  0  0  0  0  0  0  0
  141.0790   78.5830  221.3130 C   0  0  2  0  0  0  0  0  0  0  0  0
  140.6380   79.3880  222.3650 F   0  0  0  0  0  0  0  0  0  0  0  0
  140.1740   78.6600  220.1400 C   0  0  0  0  0  0  0  0  0  0  0  0
  139.7860   77.2930  219.8010 C   0  0  1  0  0  0  0  0  0  0  0  0
  140.4490   76.5830  218.6750 C   0  0  0  0  0  0  0  0  0  0  0  0
  141.1440   75.4650  218.8380 O   0  0  0  0  0  0  0  0  0  0  0  0
  142.2150   74.8810  219.3640 C   0  0  0  0  0  0  0  0  0  0  0  0
  143.3050   75.7250  219.6820 C   0  0  0  0  0  0  0  0  0  0  0  0
  144.4640   75.2460  220.2300 C   0  0  0  0  0  0  0  0  0  0  0  0
  144.5880   73.9020  220.4860 C   0  0  0  0  0  0  0  0  0  0  0  0
  146.0450   73.2310  221.1860 Cl  0  0  0  0  0  0  0  0  0  0  0  0
  143.5650   73.0320  220.2000 C   0  0  0  0  0  0  0  0  0  0  0  0
  142.4190   73.5530  219.6500 C   0  0  0  0  0  0  0  0  0  0  0  0
  140.0890   71.3470  223.6440 C   0  0  0  0  0  0  0  0  0  0  0  0
  139.5740   70.0880  223.6380 C   0  0  0  0  0  0  0  0  0  0  0  0
  139.5380   69.3470  224.8150 C   0  0  0  0  0  0  0  0  0  0  0  0
  140.0310   69.9160  225.9710 C   0  0  0  0  0  0  0  0  0  0  0  0
  140.0270   69.2410  227.1730 C   0  0  0  0  0  0  0  0  0  0  0  0
  140.5290   69.8380  228.3200 C   0  0  0  0  0  0  0  0  0  0  0  0
  141.0510   71.1210  228.3130 C   0  0  0  0  0  0  0  0  0  0  0  0
  141.0390   71.7710  227.0860 C   0  0  0  0  0  0  0  0  0  0  0  0
  140.5400   71.1810  225.9410 C   0  0  0  0  0  0  0  0  0  0  0  0
  140.5700   71.8920  224.7910 N   0  0  0  0  0  0  0  0  0  0  0  0
  138.7120   73.5270  223.0910 H   0  0  0  0  0  0  0  0  0  0  0  0
  140.3012   74.0264  220.5639 H   0  0  0  0  0  0  0  0  0  0  0  0
  138.5532   73.7550  220.3540 H   0  0  0  0  0  0  0  0  0  0  0  0
  140.9943   77.0281  222.7967 H   0  0  0  0  0  0  0  0  0  0  0  0
  142.0121   76.6286  221.4087 H   0  0  0  0  0  0  0  0  0  0  0  0
  142.0869   78.9500  221.0694 H   0  0  0  0  0  0  0  0  0  0  0  0
  139.2823   79.2533  220.3907 H   0  0  0  0  0  0  0  0  0  0  0  0
  140.6776   79.1442  219.2904 H   0  0  0  0  0  0  0  0  0  0  0  0
  138.7700   77.3498  219.3832 H   0  0  0  0  0  0  0  0  0  0  0  0
  139.6518   76.3428  217.9561 H   0  0  0  0  0  0  0  0  0  0  0  0
  141.2392   77.2964  218.3982 H   0  0  0  0  0  0  0  0  0  0  0  0
  143.2179   76.8031  219.4820 H   0  0  0  0  0  0  0  0  0  0  0  0
  145.2909   75.9327  220.4639 H   0  0  0  0  0  0  0  0  0  0  0  0
  143.6598   71.9553  220.4042 H   0  0  0  0  0  0  0  0  0  0  0  0
  141.6020   72.8530  219.4210 H   0  0  0  0  0  0  0  0  0  0  0  0
  139.1864   69.6562  222.7035 H   0  0  0  0  0  0  0  0  0  0  0  0
  139.1246   68.3277  224.8237 H   0  0  0  0  0  0  0  0  0  0  0  0
  139.6219   68.2195  227.2230 H   0  0  0  0  0  0  0  0  0  0  0  0
  140.5121   69.2749  229.2648 H   0  0  0  0  0  0  0  0  0  0  0  0
  141.4498   71.5950  229.2220 H   0  0  0  0  0  0  0  0  0  0  0  0
  141.4415   72.7928  227.0235 H   0  0  0  0  0  0  0  0  0  0  0  0
  1  2  2  0
  2  3  1  0
  3  4  1  0
  4  5  1  0
  5  6  2  0
  5  7  1  0
  7  8  1  0
  8  9  1  0
  9 10  1  0
  9 11  1  0
 11 12  1  0
 12 13  1  0
 13 14  1  0
 14 15  1  0
 15 16  2  0
 16 17  1  0
 17 18  2  0
 18 19  1  0
 18 20  1  0
 20 21  2  0
  2 22  1  0
 22 23  2  0
 23 24  1  0
 24 25  2  0
 25 26  1  0
 26 27  2  0
 27 28  1  0
 28 29  2  0
 29 30  1  0
 30 31  2  0
 12  7  1  0
 21 15  1  0
 31 22  1  0
 30 25  1  0
  3 32  1  0
  4 33  1  0
  4 34  1  0
  8 35  1  0
  8 36  1  0
  9 37  1  6
 11 38  1  0
 11 39  1  0
 12 40  1  6
 13 41  1  0
 13 42  1  0
 16 43  1  0
 17 44  1  0
 20 45  1  0
 21 46  1  0
 23 47  1  0
 24 48  1  0
 26 49  1  0
 27 50  1  0
 28 51  1  0
 29 52  1  0
M  END
>  <smiles>  (4) 
O=C(NCC(=O)N1C[C@H](F)C[C@H]1COc1ccc(Cl)cc1)c1ccc2ccccc2n1

>  <score_type>  (4) 
oracle

>  <origin>  (4) 
autodockgpu

>  <m_score__min__energy>  (4) 
-8.1600000000000001

>  <m_primary>  (4) 
energy

>  <rmsd>  (4) 
2.3765609525497737

>  <m_score__min__rmsd>  (4) 
2.3765609525497737

>  <meeko>  (4) 
{"free_energy": -7.88, "intermolecular_energy": -9.97, "internal_energy": -2.31, "cluster_size": 19, "cluster_id": 1, "rank_in_cluster": 11}

>  <energy>  (4) 
-8.1

>  <cluster_rmsd>  (4) 
1.75

>  <cluster>  (4) 
1

$$$$

     RDKit          3D

 52 55  0  0  0  0  0  0  0  0999 V2000
  137.3320   76.5240  222.1030 O   0  0  0  0  0  0  0  0  0  0  0  0
  138.5730   76.5900  222.2610 C   0  0  0  0  0  0  0  0  0  0  0  0
  139.3350   75.4000  222.0190 N   0  0  0  0  0  0  0  0  0  0  0  0
  138.7110   74.1560  221.6040 C   0  0  0  0  0  0  0  0  0  0  0  0
  139.6350   73.0530  221.9660 C   0  0  0  0  0  0  0  0  0  0  0  0
  140.7900   73.3830  222.3460 O   0  0  0  0  0  0  0  0  0  0  0  0
  139.2270   71.6960  221.8850 N   0  0  0  0  0  0  0  0  0  0  0  0
  139.9280   70.5350  221.3980 C   0  0  0  0  0  0  0  0  0  0  0  0
  138.8690   69.6500  220.8020 C   0  0  2  0  0  0  0  0  0  0  0  0
  138.8970   69.7000  219.4080 F   0  0  0  0  0  0  0  0  0  0  0  0
  137.5900   70.1660  221.3490 C   0  0  0  0  0  0  0  0  0  0  0  0
  137.9220   71.2120  222.3150 C   0  0  1  0  0  0  0  0  0  0  0  0
  137.9050   70.9170  223.7730 C   0  0  0  0  0  0  0  0  0  0  0  0
  139.0100   70.8130  224.4990 O   0  0  0  0  0  0  0  0  0  0  0  0
  139.6030   70.2840  225.5640 C   0  0  0  0  0  0  0  0  0  0  0  0
  139.4610   68.8870  225.7390 C   0  0  0  0  0  0  0  0  0  0  0  0
  140.0260   68.2230  226.7940 C   0  0  0  0  0  0  0  0  0  0  0  0
  140.7570   68.9230  227.7230 C   0  0  0  0  0  0  0  0  0  0  0  0
  141.5020   68.1280  229.0930 Cl  0  0  0  0  0  0  0  0  0  0  0  0
  140.9300   70.2800  227.6070 C   0  0  0  0  0  0  0  0  0  0  0  0
  140.3480   70.9090  226.5340 C   0  0  0  0  0  0  0  0  0  0  0  0
  139.2400   77.8220  222.6780 C   0  0  0  0  0  0  0  0  0  0  0  0
  138.5090   78.8710  223.1440 C   0  0  0  0  0  0  0  0  0  0  0  0
  139.1490   80.0410  223.5390 C   0  0  0  0  0  0  0  0  0  0  0  0
  140.5240   80.1080  223.4450 C   0  0  0  0  0  0  0  0  0  0  0  0
  141.2240   81.2350  223.8180 C   0  0  0  0  0  0  0  0  0  0  0  0
  142.6070   81.2750  223.7140 C   0  0  0  0  0  0  0  0  0  0  0  0
  143.3400   80.2000  223.2380 C   0  0  0  0  0  0  0  0  0  0  0  0
  142.6020   79.0820  222.8720 C   0  0  0  0  0  0  0  0  0  0  0  0
  141.2250   79.0380  222.9730 C   0  0  0  0  0  0  0  0  0  0  0  0
  140.5930   77.9050  222.5930 N   0  0  0  0  0  0  0  0  0  0  0  0
  140.3650   75.4930  222.1600 H   0  0  0  0  0  0  0  0  0  0  0  0
  137.7496   74.0264  222.1226 H   0  0  0  0  0  0  0  0  0  0  0  0
  138.5180   74.1610  220.5211 H   0  0  0  0  0  0  0  0  0  0  0  0
  140.6643   70.8228  220.6331 H   0  0  0  0  0  0  0  0  0  0  0  0
  140.4828   70.0259  222.1999 H   0  0  0  0  0  0  0  0  0  0  0  0
  139.0189   68.5905  221.0570 H   0  0  0  0  0  0  0  0  0  0  0  0
  136.9748   70.5835  220.5383 H   0  0  0  0  0  0  0  0  0  0  0  0
  137.0176   69.3589  221.8296 H   0  0  0  0  0  0  0  0  0  0  0  0
  137.0984   71.9406  222.2847 H   0  0  0  0  0  0  0  0  0  0  0  0
  137.3103   71.7172  224.2379 H   0  0  0  0  0  0  0  0  0  0  0  0
  137.5335   69.8817  223.7853 H   0  0  0  0  0  0  0  0  0  0  0  0
  138.8770   68.3156  225.0025 H   0  0  0  0  0  0  0  0  0  0  0  0
  139.8956   67.1357  226.8975 H   0  0  0  0  0  0  0  0  0  0  0  0
  141.5149   70.8442  228.3483 H   0  0  0  0  0  0  0  0  0  0  0  0
  140.4892   71.9962  226.4445 H   0  0  0  0  0  0  0  0  0  0  0  0
  137.4136   78.7937  223.2082 H   0  0  0  0  0  0  0  0  0  0  0  0
  138.5705   80.8960  223.9188 H   0  0  0  0  0  0  0  0  0  0  0  0
  140.6810   82.1113  224.2018 H   0  0  0  0  0  0  0  0  0  0  0  0
  143.1381   82.1888  224.0190 H   0  0  0  0  0  0  0  0  0  0  0  0
  144.4365   80.2301  223.1553 H   0  0  0  0  0  0  0  0  0  0  0  0
  143.1335   78.1990  222.4875 H   0  0  0  0  0  0  0  0  0  0  0  0
  1  2  2  0
  2  3  1  0
  3  4  1  0
  4  5  1  0
  5  6  2  0
  5  7  1  0
  7  8  1  0
  8  9  1  0
  9 10  1  0
  9 11  1  0
 11 12  1  0
 12 13  1  0
 13 14  1  0
 14 15  1  0
 15 16  2  0
 16 17  1  0
 17 18  2  0
 18 19  1  0
 18 20  1  0
 20 21  2  0
  2 22  1  0
 22 23  2  0
 23 24  1  0
 24 25  2  0
 25 26  1  0
 26 27  2  0
 27 28  1  0
 28 29  2  0
 29 30  1  0
 30 31  2  0
 12  7  1  0
 21 15  1  0
 31 22  1  0
 30 25  1  0
  3 32  1  0
  4 33  1  0
  4 34  1  0
  8 35  1  0
  8 36  1  0
  9 37  1  6
 11 38  1  0
 11 39  1  0
 12 40  1  1
 13 41  1  0
 13 42  1  0
 16 43  1  0
 17 44  1  0
 20 45  1  0
 21 46  1  0
 23 47  1  0
 24 48  1  0
 26 49  1  0
 27 50  1  0
 28 51  1  0
 29 52  1  0
M  END
>  <smiles>  (5) 
O=C(NCC(=O)N1C[C@H](F)C[C@H]1COc1ccc(Cl)cc1)c1ccc2ccccc2n1

>  <score_type>  (5) 
oracle

>  <origin>  (5) 
autodockgpu

>  <m_score__min__energy>  (5) 
-8.1600000000000001

>  <m_primary>  (5) 
energy

>  <rmsd>  (5) 
8.275185103787914

>  <m_score__min__rmsd>  (5) 
8.275185103787914

>  <meeko>  (5) 
{"free_energy": -8.06, "intermolecular_energy": -10.15, "internal_energy": -2.28, "cluster_size": 4, "cluster_id": 3, "rank_in_cluster": 1}

>  <energy>  (5) 
-8.07

>  <cluster_rmsd>  (5) 
0.56

>  <cluster>  (5) 
1

$$$$

     RDKit          3D

 52 55  0  0  0  0  0  0  0  0999 V2000
  141.5460   72.4410  221.5430 O   0  0  0  0  0  0  0  0  0  0  0  0
  140.6460   72.6310  222.3930 C   0  0  0  0  0  0  0  0  0  0  0  0
  139.9390   73.8780  222.3390 N   0  0  0  0  0  0  0  0  0  0  0  0
  140.2390   74.8920  221.3450 C   0  0  0  0  0  0  0  0  0  0  0  0
  139.9210   76.2110  221.9460 C   0  0  0  0  0  0  0  0  0  0  0  0
  138.9450   76.2510  222.7420 O   0  0  0  0  0  0  0  0  0  0  0  0
  140.6840   77.3660  221.6320 N   0  0  0  0  0  0  0  0  0  0  0  0
  141.4720   78.2260  222.4780 C   0  0  0  0  0  0  0  0  0  0  0  0
  141.3520   79.5980  221.8730 C   0  0  2  0  0  0  0  0  0  0  0  0
  140.4880   80.4020  222.6170 F   0  0  0  0  0  0  0  0  0  0  0  0
  140.8460   79.3640  220.4980 C   0  0  0  0  0  0  0  0  0  0  0  0
  140.8070   77.9180  220.2890 C   0  0  1  0  0  0  0  0  0  0  0  0
  141.8880   77.2440  219.5210 C   0  0  0  0  0  0  0  0  0  0  0  0
  142.6260   76.2650  220.0260 O   0  0  0  0  0  0  0  0  0  0  0  0
  143.2240   75.0950  219.8220 C   0  0  0  0  0  0  0  0  0  0  0  0
  144.4660   74.8970  220.4720 C   0  0  0  0  0  0  0  0  0  0  0  0
  145.1780   73.7360  220.3440 C   0  0  0  0  0  0  0  0  0  0  0  0
  144.6850   72.7200  219.5610 C   0  0  0  0  0  0  0  0  0  0  0  0
  145.5520   71.2130  219.3600 Cl  0  0  0  0  0  0  0  0  0  0  0  0
  143.4860   72.8530  218.9060 C   0  0  0  0  0  0  0  0  0  0  0  0
  142.8010   74.0330  219.0600 C   0  0  0  0  0  0  0  0  0  0  0  0
  140.3120   71.6360  223.4100 C   0  0  0  0  0  0  0  0  0  0  0  0
  139.6170   70.5170  223.0680 C   0  0  0  0  0  0  0  0  0  0  0  0
  139.3010   69.5730  224.0410 C   0  0  0  0  0  0  0  0  0  0  0  0
  139.7060   69.8000  225.3400 C   0  0  0  0  0  0  0  0  0  0  0  0
  139.4290   68.9090  226.3540 C   0  0  0  0  0  0  0  0  0  0  0  0
  139.8480   69.1610  227.6520 C   0  0  0  0  0  0  0  0  0  0  0  0
  140.5550   70.3050  227.9860 C   0  0  0  0  0  0  0  0  0  0  0  0
  140.8170   71.1800  226.9400 C   0  0  0  0  0  0  0  0  0  0  0  0
  140.4010   70.9320  225.6470 C   0  0  0  0  0  0  0  0  0  0  0  0
  140.7030   71.8430  224.6940 N   0  0  0  0  0  0  0  0  0  0  0  0
  139.1960   74.0000  223.0620 H   0  0  0  0  0  0  0  0  0  0  0  0
  141.3043   74.8493  221.0742 H   0  0  0  0  0  0  0  0  0  0  0  0
  139.6469   74.7283  220.4325 H   0  0  0  0  0  0  0  0  0  0  0  0
  141.0779   78.2221  223.5050 H   0  0  0  0  0  0  0  0  0  0  0  0
  142.5192   77.8946  222.5372 H   0  0  0  0  0  0  0  0  0  0  0  0
  142.3115   80.1358  221.8635 H   0  0  0  0  0  0  0  0  0  0  0  0
  139.8362   79.7870  220.3915 H   0  0  0  0  0  0  0  0  0  0  0  0
  141.4983   79.8471  219.7557 H   0  0  0  0  0  0  0  0  0  0  0  0
  139.9700   77.7210  219.6030 H   0  0  0  0  0  0  0  0  0  0  0  0
  141.4089   76.8302  218.6214 H   0  0  0  0  0  0  0  0  0  0  0  0
  142.6280   78.0521  219.4240 H   0  0  0  0  0  0  0  0  0  0  0  0
  144.8718   75.7033  221.1007 H   0  0  0  0  0  0  0  0  0  0  0  0
  146.1395   73.6164  220.8648 H   0  0  0  0  0  0  0  0  0  0  0  0
  143.0875   72.0418  218.2790 H   0  0  0  0  0  0  0  0  0  0  0  0
  141.8408   74.1358  218.5333 H   0  0  0  0  0  0  0  0  0  0  0  0
  139.3056   70.3588  222.0249 H   0  0  0  0  0  0  0  0  0  0  0  0
  138.7395   68.6641  223.7793 H   0  0  0  0  0  0  0  0  0  0  0  0
  138.8697   67.9882  226.1317 H   0  0  0  0  0  0  0  0  0  0  0  0
  139.6120   68.4307  228.4400 H   0  0  0  0  0  0  0  0  0  0  0  0
  140.8877   70.5073  229.0148 H   0  0  0  0  0  0  0  0  0  0  0  0
  141.3761   72.1040  227.1491 H   0  0  0  0  0  0  0  0  0  0  0  0
  1  2  2  0
  2  3  1  0
  3  4  1  0
  4  5  1  0
  5  6  2  0
  5  7  1  0
  7  8  1  0
  8  9  1  0
  9 10  1  0
  9 11  1  0
 11 12  1  0
 12 13  1  0
 13 14  1  0
 14 15  1  0
 15 16  2  0
 16 17  1  0
 17 18  2  0
 18 19  1  0
 18 20  1  0
 20 21  2  0
  2 22  1  0
 22 23  2  0
 23 24  1  0
 24 25  2  0
 25 26  1  0
 26 27  2  0
 27 28  1  0
 28 29  2  0
 29 30  1  0
 30 31  2  0
 12  7  1  0
 21 15  1  0
 31 22  1  0
 30 25  1  0
  3 32  1  0
  4 33  1  0
  4 34  1  0
  8 35  1  0
  8 36  1  0
  9 37  1  6
 11 38  1  0
 11 39  1  0
 12 40  1  6
 13 41  1  0
 13 42  1  0
 16 43  1  0
 17 44  1  0
 20 45  1  0
 21 46  1  0
 23 47  1  0
 24 48  1  0
 26 49  1  0
 27 50  1  0
 28 51  1  0
 29 52  1  0
M  END
>  <smiles>  (6) 
O=C(NCC(=O)N1C[C@H](F)C[C@H]1COc1ccc(Cl)cc1)c1ccc2ccccc2n1

>  <score_type>  (6) 
oracle

>  <origin>  (6) 
autodockgpu

>  <m_score__min__energy>  (6) 
-8.1600000000000001

>  <m_primary>  (6) 
energy

>  <rmsd>  (6) 
2.945422901610485

>  <m_score__min__rmsd>  (6) 
2.945422901610485

>  <meeko>  (6) 
{"free_energy": -8.02, "intermolecular_energy": -10.11, "internal_energy": -2.34, "cluster_size": 19, "cluster_id": 1, "rank_in_cluster": 6}

>  <energy>  (6) 
-8.02

>  <cluster_rmsd>  (6) 
0.37

>  <cluster>  (6) 
1

$$$$

     RDKit          3D

 52 55  0  0  0  0  0  0  0  0999 V2000
  137.3400   76.3540  222.1490 O   0  0  0  0  0  0  0  0  0  0  0  0
  138.5750   76.4730  222.3220 C   0  0  0  0  0  0  0  0  0  0  0  0
  139.3860   75.3070  222.1200 N   0  0  0  0  0  0  0  0  0  0  0  0
  138.8160   74.0300  221.7300 C   0  0  0  0  0  0  0  0  0  0  0  0
  139.9250   73.0440  221.6820 C   0  0  0  0  0  0  0  0  0  0  0  0
  141.0070   73.3820  222.2320 O   0  0  0  0  0  0  0  0  0  0  0  0
  139.7630   71.7870  221.0440 N   0  0  0  0  0  0  0  0  0  0  0  0
  140.7380   70.9020  220.4580 C   0  0  0  0  0  0  0  0  0  0  0  0
  140.0330   70.2380  219.3080 C   0  0  2  0  0  0  0  0  0  0  0  0
  140.4430   70.7770  218.0870 F   0  0  0  0  0  0  0  0  0  0  0  0
  138.5900   70.4740  219.5590 C   0  0  0  0  0  0  0  0  0  0  0  0
  138.4770   71.1270  220.8620 C   0  0  1  0  0  0  0  0  0  0  0  0
  138.0960   70.3380  222.0640 C   0  0  0  0  0  0  0  0  0  0  0  0
  138.9430   70.0730  223.0500 O   0  0  0  0  0  0  0  0  0  0  0  0
  139.4710   70.4620  224.2060 C   0  0  0  0  0  0  0  0  0  0  0  0
  139.1100   69.7120  225.3500 C   0  0  0  0  0  0  0  0  0  0  0  0
  139.5870   70.0100  226.5970 C   0  0  0  0  0  0  0  0  0  0  0  0
  140.4460   71.0700  226.7600 C   0  0  0  0  0  0  0  0  0  0  0  0
  141.0900   71.4980  228.3300 Cl  0  0  0  0  0  0  0  0  0  0  0  0
  140.8330   71.8340  225.6870 C   0  0  0  0  0  0  0  0  0  0  0  0
  140.3320   71.5030  224.4520 C   0  0  0  0  0  0  0  0  0  0  0  0
  139.1880   77.7400  222.7140 C   0  0  0  0  0  0  0  0  0  0  0  0
  138.4070   78.7900  223.0850 C   0  0  0  0  0  0  0  0  0  0  0  0
  138.9970   79.9950  223.4580 C   0  0  0  0  0  0  0  0  0  0  0  0
  140.3720   80.0920  223.4400 C   0  0  0  0  0  0  0  0  0  0  0  0
  141.0240   81.2540  223.7960 C   0  0  0  0  0  0  0  0  0  0  0  0
  142.4090   81.3240  223.7690 C   0  0  0  0  0  0  0  0  0  0  0  0
  143.1930   80.2470  223.3890 C   0  0  0  0  0  0  0  0  0  0  0  0
  142.5030   79.0940  223.0370 C   0  0  0  0  0  0  0  0  0  0  0  0
  141.1240   79.0190  223.0620 C   0  0  0  0  0  0  0  0  0  0  0  0
  140.5420   77.8540  222.7030 N   0  0  0  0  0  0  0  0  0  0  0  0
  140.4090   75.4440  222.2720 H   0  0  0  0  0  0  0  0  0  0  0  0
  138.0634   73.7135  222.4671 H   0  0  0  0  0  0  0  0  0  0  0  0
  138.3235   74.1081  220.7495 H   0  0  0  0  0  0  0  0  0  0  0  0
  141.6082   71.4713  220.0992 H   0  0  0  0  0  0  0  0  0  0  0  0
  141.1148   70.1684  221.1859 H   0  0  0  0  0  0  0  0  0  0  0  0
  140.2617   69.1640  219.2431 H   0  0  0  0  0  0  0  0  0  0  0  0
  138.1727   71.1231  218.7751 H   0  0  0  0  0  0  0  0  0  0  0  0
  138.0325   69.5258  219.5487 H   0  0  0  0  0  0  0  0  0  0  0  0
  137.5957   71.7832  220.8098 H   0  0  0  0  0  0  0  0  0  0  0  0
  137.2526   70.8738  222.5240 H   0  0  0  0  0  0  0  0  0  0  0  0
  137.9396   69.3385  221.6321 H   0  0  0  0  0  0  0  0  0  0  0  0
  138.4229   68.8610  225.2329 H   0  0  0  0  0  0  0  0  0  0  0  0
  139.2847   69.4046  227.4642 H   0  0  0  0  0  0  0  0  0  0  0  0
  141.5213   72.6828  225.8123 H   0  0  0  0  0  0  0  0  0  0  0  0
  140.6440   72.1182  223.5951 H   0  0  0  0  0  0  0  0  0  0  0  0
  137.3118   78.6875  223.0904 H   0  0  0  0  0  0  0  0  0  0  0  0
  138.3781   80.8524  223.7610 H   0  0  0  0  0  0  0  0  0  0  0  0
  140.4400   82.1337  224.1043 H   0  0  0  0  0  0  0  0  0  0  0  0
  142.9004   82.2646  224.0585 H   0  0  0  0  0  0  0  0  0  0  0  0
  144.2914   80.3014  223.3674 H   0  0  0  0  0  0  0  0  0  0  0  0
  143.0760   78.2078  222.7268 H   0  0  0  0  0  0  0  0  0  0  0  0
  1  2  2  0
  2  3  1  0
  3  4  1  0
  4  5  1  0
  5  6  2  0
  5  7  1  0
  7  8  1  0
  8  9  1  0
  9 10  1  0
  9 11  1  0
 11 12  1  0
 12 13  1  0
 13 14  1  0
 14 15  1  0
 15 16  2  0
 16 17  1  0
 17 18  2  0
 18 19  1  0
 18 20  1  0
 20 21  2  0
  2 22  1  0
 22 23  2  0
 23 24  1  0
 24 25  2  0
 25 26  1  0
 26 27  2  0
 27 28  1  0
 28 29  2  0
 29 30  1  0
 30 31  2  0
 12  7  1  0
 21 15  1  0
 31 22  1  0
 30 25  1  0
  3 32  1  0
  4 33  1  0
  4 34  1  0
  8 35  1  0
  8 36  1  0
  9 37  1  6
 11 38  1  0
 11 39  1  0
 12 40  1  6
 13 41  1  0
 13 42  1  0
 16 43  1  0
 17 44  1  0
 20 45  1  0
 21 46  1  0
 23 47  1  0
 24 48  1  0
 26 49  1  0
 27 50  1  0
 28 51  1  0
 29 52  1  0
M  END
>  <smiles>  (7) 
O=C(NCC(=O)N1C[C@H](F)C[C@H]1COc1ccc(Cl)cc1)c1ccc2ccccc2n1

>  <score_type>  (7) 
oracle

>  <origin>  (7) 
autodockgpu

>  <m_score__min__energy>  (7) 
-8.1600000000000001

>  <m_primary>  (7) 
energy

>  <rmsd>  (7) 
8.028871188582341

>  <m_score__min__rmsd>  (7) 
8.028871188582341

>  <meeko>  (7) 
{"free_energy": -7.51, "intermolecular_energy": -9.6, "internal_energy": -2.49, "cluster_size": 4, "cluster_id": 3, "rank_in_cluster": 4}

>  <energy>  (7) 
-8.0

>  <cluster_rmsd>  (7) 
0.86

>  <cluster>  (7) 
1

$$$$

     RDKit          3D

 52 55  0  0  0  0  0  0  0  0999 V2000
  139.2650   70.9550  221.3330 O   0  0  0  0  0  0  0  0  0  0  0  0
  139.4340   71.5410  222.4280 C   0  0  0  0  0  0  0  0  0  0  0  0
  139.4460   72.9750  222.4150 N   0  0  0  0  0  0  0  0  0  0  0  0
  139.2690   73.7360  221.1910 C   0  0  0  0  0  0  0  0  0  0  0  0
  139.3760   75.1740  221.5430 C   0  0  0  0  0  0  0  0  0  0  0  0
  139.9120   75.4480  222.6500 O   0  0  0  0  0  0  0  0  0  0  0  0
  138.8940   76.1830  220.6690 N   0  0  0  0  0  0  0  0  0  0  0  0
  138.1510   77.3860  220.9460 C   0  0  0  0  0  0  0  0  0  0  0  0
  137.2640   77.5920  219.7500 C   0  0  2  0  0  0  0  0  0  0  0  0
  135.9440   77.2420  220.0350 F   0  0  0  0  0  0  0  0  0  0  0  0
  137.8480   76.7310  218.6910 C   0  0  0  0  0  0  0  0  0  0  0  0
  139.0860   76.1660  219.2240 C   0  0  1  0  0  0  0  0  0  0  0  0
  140.4000   76.7510  218.8450 C   0  0  0  0  0  0  0  0  0  0  0  0
  141.2390   77.2710  219.7300 O   0  0  0  0  0  0  0  0  0  0  0  0
  141.4810   78.2390  220.6080 C   0  0  0  0  0  0  0  0  0  0  0  0
  141.4120   77.8840  221.9760 C   0  0  0  0  0  0  0  0  0  0  0  0
  141.6420   78.7890  222.9770 C   0  0  0  0  0  0  0  0  0  0  0  0
  141.9510   80.0890  222.6580 C   0  0  0  0  0  0  0  0  0  0  0  0
  142.2550   81.2910  223.8940 Cl  0  0  0  0  0  0  0  0  0  0  0  0
  142.0320   80.4930  221.3480 C   0  0  0  0  0  0  0  0  0  0  0  0
  141.7950   79.5550  220.3740 C   0  0  0  0  0  0  0  0  0  0  0  0
  139.6150   70.8120  223.6810 C   0  0  0  0  0  0  0  0  0  0  0  0
  139.2730   69.4980  223.7630 C   0  0  0  0  0  0  0  0  0  0  0  0
  139.4470   68.8080  224.9590 C   0  0  0  0  0  0  0  0  0  0  0  0
  139.9670   69.4850  226.0430 C   0  0  0  0  0  0  0  0  0  0  0  0
  140.1660   68.8660  227.2590 C   0  0  0  0  0  0  0  0  0  0  0  0
  140.6920   69.5700  228.3320 C   0  0  0  0  0  0  0  0  0  0  0  0
  141.0360   70.9080  228.2360 C   0  0  0  0  0  0  0  0  0  0  0  0
  140.8220   71.4990  226.9970 C   0  0  0  0  0  0  0  0  0  0  0  0
  140.2990   70.8020  225.9260 C   0  0  0  0  0  0  0  0  0  0  0  0
  140.1260   71.4620  224.7590 N   0  0  0  0  0  0  0  0  0  0  0  0
  139.5880   73.4280  223.3440 H   0  0  0  0  0  0  0  0  0  0  0  0
  140.0505   73.4675  220.4650 H   0  0  0  0  0  0  0  0  0  0  0  0
  138.2909   73.5191  220.7368 H   0  0  0  0  0  0  0  0  0  0  0  0
  137.5465   77.2638  221.8569 H   0  0  0  0  0  0  0  0  0  0  0  0
  138.8147   78.2466  221.1160 H   0  0  0  0  0  0  0  0  0  0  0  0
  137.2234   78.6460  219.4379 H   0  0  0  0  0  0  0  0  0  0  0  0
  137.1466   75.9240  218.4326 H   0  0  0  0  0  0  0  0  0  0  0  0
  138.0468   77.3147  217.7801 H   0  0  0  0  0  0  0  0  0  0  0  0
  139.2053   75.1762  218.7592 H   0  0  0  0  0  0  0  0  0  0  0  0
  140.9542   75.9483  218.3365 H   0  0  0  0  0  0  0  0  0  0  0  0
  140.0903   77.6442  218.2826 H   0  0  0  0  0  0  0  0  0  0  0  0
  141.1653   76.8461  222.2441 H   0  0  0  0  0  0  0  0  0  0  0  0
  141.5798   78.4773  224.0301 H   0  0  0  0  0  0  0  0  0  0  0  0
  142.2784   81.5330  221.0879 H   0  0  0  0  0  0  0  0  0  0  0  0
  141.8618   79.8828  219.3261 H   0  0  0  0  0  0  0  0  0  0  0  0
  138.8592   68.9811  222.8846 H   0  0  0  0  0  0  0  0  0  0  0  0
  139.1756   67.7450  225.0385 H   0  0  0  0  0  0  0  0  0  0  0  0
  139.9052   67.8041  227.3791 H   0  0  0  0  0  0  0  0  0  0  0  0
  140.8406   69.0492  229.2894 H   0  0  0  0  0  0  0  0  0  0  0  0
  141.4523   71.4674  229.0868 H   0  0  0  0  0  0  0  0  0  0  0  0
  141.0785   72.5604  226.8645 H   0  0  0  0  0  0  0  0  0  0  0  0
  1  2  2  0
  2  3  1  0
  3  4  1  0
  4  5  1  0
  5  6  2  0
  5  7  1  0
  7  8  1  0
  8  9  1  0
  9 10  1  0
  9 11  1  0
 11 12  1  0
 12 13  1  0
 13 14  1  0
 14 15  1  0
 15 16  2  0
 16 17  1  0
 17 18  2  0
 18 19  1  0
 18 20  1  0
 20 21  2  0
  2 22  1  0
 22 23  2  0
 23 24  1  0
 24 25  2  0
 25 26  1  0
 26 27  2  0
 27 28  1  0
 28 29  2  0
 29 30  1  0
 30 31  2  0
 12  7  1  0
 21 15  1  0
 31 22  1  0
 30 25  1  0
  3 32  1  0
  4 33  1  0
  4 34  1  0
  8 35  1  0
  8 36  1  0
  9 37  1  6
 11 38  1  0
 11 39  1  0
 12 40  1  6
 13 41  1  0
 13 42  1  0
 16 43  1  0
 17 44  1  0
 20 45  1  0
 21 46  1  0
 23 47  1  0
 24 48  1  0
 26 49  1  0
 27 50  1  0
 28 51  1  0
 29 52  1  0
M  END
>  <smiles>  (8) 
O=C(NCC(=O)N1C[C@H](F)C[C@H]1COc1ccc(Cl)cc1)c1ccc2ccccc2n1

>  <score_type>  (8) 
oracle

>  <origin>  (8) 
autodockgpu

>  <m_score__min__energy>  (8) 
-8.1600000000000001

>  <m_primary>  (8) 
energy

>  <rmsd>  (8) 
2.1330966343993416

>  <m_score__min__rmsd>  (8) 
2.1330966343993416

>  <meeko>  (8) 
{"free_energy": -7.71, "intermolecular_energy": -9.8, "internal_energy": -2.51, "cluster_size": 10, "cluster_id": 2, "rank_in_cluster": 5}

>  <energy>  (8) 
-8.0

>  <cluster_rmsd>  (8) 
1.65

>  <cluster>  (8) 
1

$$$$

     RDKit          3D

 52 55  0  0  0  0  0  0  0  0999 V2000
  138.1210   70.1320  221.6730 O   0  0  0  0  0  0  0  0  0  0  0  0
  138.5050   70.9330  222.5560 C   0  0  0  0  0  0  0  0  0  0  0  0
  138.4340   72.3330  222.2540 N   0  0  0  0  0  0  0  0  0  0  0  0
  137.9380   72.8230  220.9800 C   0  0  0  0  0  0  0  0  0  0  0  0
  136.7820   73.7090  221.2650 C   0  0  0  0  0  0  0  0  0  0  0  0
  135.6710   73.3660  220.7790 O   0  0  0  0  0  0  0  0  0  0  0  0
  136.9310   74.8840  222.0470 N   0  0  0  0  0  0  0  0  0  0  0  0
  136.2390   75.3120  223.2360 C   0  0  0  0  0  0  0  0  0  0  0  0
  136.1790   76.8110  223.1460 C   0  0  2  0  0  0  0  0  0  0  0  0
  134.9020   77.2430  222.7850 F   0  0  0  0  0  0  0  0  0  0  0  0
  137.1940   77.1710  222.1250 C   0  0  0  0  0  0  0  0  0  0  0  0
  137.8900   75.9410  221.7520 C   0  0  1  0  0  0  0  0  0  0  0  0
  139.2290   75.6360  222.3230 C   0  0  0  0  0  0  0  0  0  0  0  0
  139.9100   74.5400  222.0150 O   0  0  0  0  0  0  0  0  0  0  0  0
  141.0360   74.0200  221.5380 C   0  0  0  0  0  0  0  0  0  0  0  0
  141.9500   74.9240  220.9470 C   0  0  0  0  0  0  0  0  0  0  0  0
  143.1450   74.5140  220.4210 C   0  0  0  0  0  0  0  0  0  0  0  0
  143.4820   73.1830  220.4610 C   0  0  0  0  0  0  0  0  0  0  0  0
  144.9960   72.5990  219.8050 Cl  0  0  0  0  0  0  0  0  0  0  0  0
  142.6370   72.2580  221.0210 C   0  0  0  0  0  0  0  0  0  0  0  0
  141.4470   72.7100  221.5380 C   0  0  0  0  0  0  0  0  0  0  0  0
  139.0110   70.4820  223.8500 C   0  0  0  0  0  0  0  0  0  0  0  0
  138.8790   69.1780  224.2170 C   0  0  0  0  0  0  0  0  0  0  0  0
  139.3620   68.7530  225.4510 C   0  0  0  0  0  0  0  0  0  0  0  0
  139.9680   69.6760  226.2790 C   0  0  0  0  0  0  0  0  0  0  0  0
  140.4690   69.3260  227.5140 C   0  0  0  0  0  0  0  0  0  0  0  0
  141.0730   70.2750  228.3260 C   0  0  0  0  0  0  0  0  0  0  0  0
  141.2010   71.5990  227.9410 C   0  0  0  0  0  0  0  0  0  0  0  0
  140.6850   71.9150  226.6900 C   0  0  0  0  0  0  0  0  0  0  0  0
  140.0820   70.9740  225.8790 C   0  0  0  0  0  0  0  0  0  0  0  0
  139.6100   71.3760  224.6770 N   0  0  0  0  0  0  0  0  0  0  0  0
  138.7620   72.9700  223.0130 H   0  0  0  0  0  0  0  0  0  0  0  0
  138.7265   73.3886  220.4619 H   0  0  0  0  0  0  0  0  0  0  0  0
  137.6359   71.9863  220.3330 H   0  0  0  0  0  0  0  0  0  0  0  0
  135.2247   74.8874  223.2647 H   0  0  0  0  0  0  0  0  0  0  0  0
  136.7516   74.9776  224.1500 H   0  0  0  0  0  0  0  0  0  0  0  0
  136.3871   77.2957  224.1113 H   0  0  0  0  0  0  0  0  0  0  0  0
  136.7025   77.6077  221.2431 H   0  0  0  0  0  0  0  0  0  0  0  0
  137.9012   77.9133  222.5235 H   0  0  0  0  0  0  0  0  0  0  0  0
  138.1831   76.0523  220.6976 H   0  0  0  0  0  0  0  0  0  0  0  0
  139.8759   76.4825  222.0494 H   0  0  0  0  0  0  0  0  0  0  0  0
  138.9832   75.4546  223.3797 H   0  0  0  0  0  0  0  0  0  0  0  0
  141.6913   75.9925  220.9091 H   0  0  0  0  0  0  0  0  0  0  0  0
  143.8311   75.2455  219.9692 H   0  0  0  0  0  0  0  0  0  0  0  0
  142.9033   71.1913  221.0548 H   0  0  0  0  0  0  0  0  0  0  0  0
  140.7722   71.9657  221.9860 H   0  0  0  0  0  0  0  0  0  0  0  0
  138.3915   68.4615  223.5395 H   0  0  0  0  0  0  0  0  0  0  0  0
  139.2627   67.7021  225.7604 H   0  0  0  0  0  0  0  0  0  0  0  0
  140.3893   68.2846  227.8592 H   0  0  0  0  0  0  0  0  0  0  0  0
  141.4627   69.9658  229.3071 H   0  0  0  0  0  0  0  0  0  0  0  0
  141.6802   72.3520  228.5839 H   0  0  0  0  0  0  0  0  0  0  0  0
  140.7596   72.9527  226.3327 H   0  0  0  0  0  0  0  0  0  0  0  0
  1  2  2  0
  2  3  1  0
  3  4  1  0
  4  5  1  0
  5  6  2  0
  5  7  1  0
  7  8  1  0
  8  9  1  0
  9 10  1  0
  9 11  1  0
 11 12  1  0
 12 13  1  0
 13 14  1  0
 14 15  1  0
 15 16  2  0
 16 17  1  0
 17 18  2  0
 18 19  1  0
 18 20  1  0
 20 21  2  0
  2 22  1  0
 22 23  2  0
 23 24  1  0
 24 25  2  0
 25 26  1  0
 26 27  2  0
 27 28  1  0
 28 29  2  0
 29 30  1  0
 30 31  2  0
 12  7  1  0
 21 15  1  0
 31 22  1  0
 30 25  1  0
  3 32  1  0
  4 33  1  0
  4 34  1  0
  8 35  1  0
  8 36  1  0
  9 37  1  1
 11 38  1  0
 11 39  1  0
 12 40  1  6
 13 41  1  0
 13 42  1  0
 16 43  1  0
 17 44  1  0
 20 45  1  0
 21 46  1  0
 23 47  1  0
 24 48  1  0
 26 49  1  0
 27 50  1  0
 28 51  1  0
 29 52  1  0
M  END
>  <smiles>  (9) 
O=C(NCC(=O)N1C[C@H](F)C[C@H]1COc1ccc(Cl)cc1)c1ccc2ccccc2n1

>  <score_type>  (9) 
oracle

>  <origin>  (9) 
autodockgpu

>  <m_score__min__energy>  (9) 
-8.1600000000000001

>  <m_primary>  (9) 
energy

>  <rmsd>  (9) 
3.3982707925663553

>  <m_score__min__rmsd>  (9) 
3.3982707925663553

>  <meeko>  (9) 
{"free_energy": -7.52, "intermolecular_energy": -9.61, "internal_energy": -2.75, "cluster_size": 4, "cluster_id": 6, "rank_in_cluster": 1}

>  <energy>  (9) 
-7.96

>  <cluster_rmsd>  (9) 
0.55

>  <cluster>  (9) 
1

$$$$

     RDKit          3D

 52 55  0  0  0  0  0  0  0  0999 V2000
  141.5890   72.5490  221.6100 O   0  0  0  0  0  0  0  0  0  0  0  0
  140.6430   72.6920  222.4180 C   0  0  0  0  0  0  0  0  0  0  0  0
  139.8770   73.9010  222.3320 N   0  0  0  0  0  0  0  0  0  0  0  0
  140.1710   74.9320  221.3530 C   0  0  0  0  0  0  0  0  0  0  0  0
  139.8080   76.2370  221.9580 C   0  0  0  0  0  0  0  0  0  0  0  0
  138.6540   76.3300  222.4570 O   0  0  0  0  0  0  0  0  0  0  0  0
  140.7230   77.3220  221.9700 N   0  0  0  0  0  0  0  0  0  0  0  0
  141.4220   77.9450  223.0650 C   0  0  0  0  0  0  0  0  0  0  0  0
  141.5480   79.3940  222.6860 C   0  0  2  0  0  0  0  0  0  0  0  0
  140.6430   80.1810  223.4000 F   0  0  0  0  0  0  0  0  0  0  0  0
  141.2800   79.4300  221.2270 C   0  0  0  0  0  0  0  0  0  0  0  0
  141.1410   78.0460  220.7770 C   0  0  1  0  0  0  0  0  0  0  0  0
  142.2740   77.3630  220.0960 C   0  0  0  0  0  0  0  0  0  0  0  0
  142.2500   76.0770  219.7750 O   0  0  0  0  0  0  0  0  0  0  0  0
  142.9370   74.9490  219.6260 C   0  0  0  0  0  0  0  0  0  0  0  0
  144.2140   74.9000  220.2330 C   0  0  0  0  0  0  0  0  0  0  0  0
  145.0170   73.7950  220.1530 C   0  0  0  0  0  0  0  0  0  0  0  0
  144.5830   72.6880  219.4640 C   0  0  0  0  0  0  0  0  0  0  0  0
  145.5660   71.2460  219.3290 Cl  0  0  0  0  0  0  0  0  0  0  0  0
  143.3530   72.6750  218.8540 C   0  0  0  0  0  0  0  0  0  0  0  0
  142.5770   73.8040  218.9570 C   0  0  0  0  0  0  0  0  0  0  0  0
  140.3130   71.6790  223.4190 C   0  0  0  0  0  0  0  0  0  0  0  0
  139.6300   70.5590  223.0570 C   0  0  0  0  0  0  0  0  0  0  0  0
  139.3190   69.5980  224.0140 C   0  0  0  0  0  0  0  0  0  0  0  0
  139.7150   69.8090  225.3190 C   0  0  0  0  0  0  0  0  0  0  0  0
  139.4410   68.9000  226.3180 C   0  0  0  0  0  0  0  0  0  0  0  0
  139.8520   69.1380  227.6210 C   0  0  0  0  0  0  0  0  0  0  0  0
  140.5470   70.2830  227.9760 C   0  0  0  0  0  0  0  0  0  0  0  0
  140.8050   71.1760  226.9440 C   0  0  0  0  0  0  0  0  0  0  0  0
  140.3980   70.9430  225.6450 C   0  0  0  0  0  0  0  0  0  0  0  0
  140.6960   71.8700  224.7080 N   0  0  0  0  0  0  0  0  0  0  0  0
  139.0970   73.9850  223.0200 H   0  0  0  0  0  0  0  0  0  0  0  0
  141.2422   74.9186  221.1034 H   0  0  0  0  0  0  0  0  0  0  0  0
  139.6012   74.7618  220.4276 H   0  0  0  0  0  0  0  0  0  0  0  0
  140.8481   77.8397  223.9975 H   0  0  0  0  0  0  0  0  0  0  0  0
  142.4040   77.4813  223.2400 H   0  0  0  0  0  0  0  0  0  0  0  0
  142.5409   79.8029  222.9248 H   0  0  0  0  0  0  0  0  0  0  0  0
  140.3517   79.9856  221.0283 H   0  0  0  0  0  0  0  0  0  0  0  0
  142.0992   79.9332  220.6925 H   0  0  0  0  0  0  0  0  0  0  0  0
  140.4280   78.0577  219.9395 H   0  0  0  0  0  0  0  0  0  0  0  0
  142.4357   77.9082  219.1544 H   0  0  0  0  0  0  0  0  0  0  0  0
  143.0469   77.3818  220.8785 H   0  0  0  0  0  0  0  0  0  0  0  0
  144.5733   75.7794  220.7876 H   0  0  0  0  0  0  0  0  0  0  0  0
  146.0045   73.7928  220.6375 H   0  0  0  0  0  0  0  0  0  0  0  0
  143.0010   71.7911  218.3019 H   0  0  0  0  0  0  0  0  0  0  0  0
  141.5925   73.7903  218.4666 H   0  0  0  0  0  0  0  0  0  0  0  0
  139.3245   70.4137  222.0103 H   0  0  0  0  0  0  0  0  0  0  0  0
  138.7680   68.6875  223.7357 H   0  0  0  0  0  0  0  0  0  0  0  0
  138.8914   67.9774  226.0797 H   0  0  0  0  0  0  0  0  0  0  0  0
  139.6189   68.3943  228.3972 H   0  0  0  0  0  0  0  0  0  0  0  0
  140.8735   70.4726  229.0092 H   0  0  0  0  0  0  0  0  0  0  0  0
  141.3534   72.1025  227.1695 H   0  0  0  0  0  0  0  0  0  0  0  0
  1  2  2  0
  2  3  1  0
  3  4  1  0
  4  5  1  0
  5  6  2  0
  5  7  1  0
  7  8  1  0
  8  9  1  0
  9 10  1  0
  9 11  1  0
 11 12  1  0
 12 13  1  0
 13 14  1  0
 14 15  1  0
 15 16  2  0
 16 17  1  0
 17 18  2  0
 18 19  1  0
 18 20  1  0
 20 21  2  0
  2 22  1  0
 22 23  2  0
 23 24  1  0
 24 25  2  0
 25 26  1  0
 26 27  2  0
 27 28  1  0
 28 29  2  0
 29 30  1  0
 30 31  2  0
 12  7  1  0
 21 15  1  0
 31 22  1  0
 30 25  1  0
  3 32  1  0
  4 33  1  0
  4 34  1  0
  8 35  1  0
  8 36  1  0
  9 37  1  6
 11 38  1  0
 11 39  1  0
 12 40  1  6
 13 41  1  0
 13 42  1  0
 16 43  1  0
 17 44  1  0
 20 45  1  0
 21 46  1  0
 23 47  1  0
 24 48  1  0
 26 49  1  0
 27 50  1  0
 28 51  1  0
 29 52  1  0
M  END
>  <smiles>  (10) 
O=C(NCC(=O)N1C[C@H](F)C[C@H]1COc1ccc(Cl)cc1)c1ccc2ccccc2n1

>  <score_type>  (10) 
oracle

>  <origin>  (10) 
autodockgpu

>  <m_score__min__energy>  (10) 
-8.1600000000000001

>  <m_primary>  (10) 
energy

>  <rmsd>  (10) 
3.133369020410343

>  <m_score__min__rmsd>  (10) 
3.133369020410343

>  <meeko>  (10) 
{"free_energy": -8.16, "intermolecular_energy": -10.25, "internal_energy": -2.08, "cluster_size": 19, "cluster_id": 1, "rank_in_cluster": 1}

>  <energy>  (10) 
-7.92

>  <cluster_rmsd>  (10) 
0.59

>  <cluster>  (10) 
1

$$$$

     RDKit          3D

 52 55  0  0  0  0  0  0  0  0999 V2000
  138.8860   75.1550  221.9500 O   0  0  0  0  0  0  0  0  0  0  0  0
  140.0000   75.7100  222.0920 C   0  0  0  0  0  0  0  0  0  0  0  0
  141.1700   74.9190  221.8430 N   0  0  0  0  0  0  0  0  0  0  0  0
  141.0880   73.5270  221.4400 C   0  0  0  0  0  0  0  0  0  0  0  0
  141.6050   73.4350  220.0520 C   0  0  0  0  0  0  0  0  0  0  0  0
  140.7850   73.0810  219.1630 O   0  0  0  0  0  0  0  0  0  0  0  0
  142.9600   73.7330  219.7510 N   0  0  0  0  0  0  0  0  0  0  0  0
  143.9440   72.9780  219.0170 C   0  0  0  0  0  0  0  0  0  0  0  0
  145.2600   73.2980  219.6700 C   0  0  2  0  0  0  0  0  0  0  0  0
  145.6960   72.2410  220.4690 F   0  0  0  0  0  0  0  0  0  0  0  0
  145.0020   74.5240  220.4650 C   0  0  0  0  0  0  0  0  0  0  0  0
  143.6360   74.9540  220.1700 C   0  0  1  0  0  0  0  0  0  0  0  0
  143.3920   76.0670  219.2140 C   0  0  0  0  0  0  0  0  0  0  0  0
  142.2550   76.7480  219.1790 O   0  0  0  0  0  0  0  0  0  0  0  0
  141.6450   77.9160  219.3550 C   0  0  0  0  0  0  0  0  0  0  0  0
  140.2300   77.8990  219.3460 C   0  0  0  0  0  0  0  0  0  0  0  0
  139.4860   79.0340  219.5180 C   0  0  0  0  0  0  0  0  0  0  0  0
  140.1200   80.2390  219.7060 C   0  0  0  0  0  0  0  0  0  0  0  0
  139.2220   81.7240  219.9320 Cl  0  0  0  0  0  0  0  0  0  0  0  0
  141.4900   80.3190  219.7250 C   0  0  0  0  0  0  0  0  0  0  0  0
  142.2010   79.1570  219.5480 C   0  0  0  0  0  0  0  0  0  0  0  0
  140.1270   77.1090  222.4960 C   0  0  0  0  0  0  0  0  0  0  0  0
  139.0140   77.8530  222.7390 C   0  0  0  0  0  0  0  0  0  0  0  0
  139.1400   79.1850  223.1230 C   0  0  0  0  0  0  0  0  0  0  0  0
  140.4040   79.7210  223.2480 C   0  0  0  0  0  0  0  0  0  0  0  0
  140.6050   81.0320  223.6240 C   0  0  0  0  0  0  0  0  0  0  0  0
  141.8870   81.5450  223.7430 C   0  0  0  0  0  0  0  0  0  0  0  0
  143.0130   80.7760  223.4930 C   0  0  0  0  0  0  0  0  0  0  0  0
  142.7740   79.4610  223.1170 C   0  0  0  0  0  0  0  0  0  0  0  0
  141.4980   78.9460  222.9970 C   0  0  0  0  0  0  0  0  0  0  0  0
  141.3640   77.6530  222.6250 N   0  0  0  0  0  0  0  0  0  0  0  0
  142.0790   75.4160  221.9700 H   0  0  0  0  0  0  0  0  0  0  0  0
  141.6989   72.9049  222.1107 H   0  0  0  0  0  0  0  0  0  0  0  0
  140.0494   73.1685  221.4919 H   0  0  0  0  0  0  0  0  0  0  0  0
  143.7322   71.9007  219.0852 H   0  0  0  0  0  0  0  0  0  0  0  0
  143.9440   73.2360  217.9477 H   0  0  0  0  0  0  0  0  0  0  0  0
  146.0630   73.4554  218.9349 H   0  0  0  0  0  0  0  0  0  0  0  0
  145.1043   74.3052  221.5382 H   0  0  0  0  0  0  0  0  0  0  0  0
  145.7231   75.3139  220.2078 H   0  0  0  0  0  0  0  0  0  0  0  0
  143.2525   75.4344  221.0822 H   0  0  0  0  0  0  0  0  0  0  0  0
  144.1840   76.8072  219.4008 H   0  0  0  0  0  0  0  0  0  0  0  0
  143.3597   75.5316  218.2536 H   0  0  0  0  0  0  0  0  0  0  0  0
  139.7109   76.9409  219.1956 H   0  0  0  0  0  0  0  0  0  0  0  0
  138.3873   78.9826  219.5060 H   0  0  0  0  0  0  0  0  0  0  0  0
  142.0014   81.2810  219.8768 H   0  0  0  0  0  0  0  0  0  0  0  0
  143.2988   79.2256  219.5619 H   0  0  0  0  0  0  0  0  0  0  0  0
  138.0162   77.4025  222.6322 H   0  0  0  0  0  0  0  0  0  0  0  0
  138.2486   79.7978  223.3228 H   0  0  0  0  0  0  0  0  0  0  0  0
  139.7389   81.6776  223.8317 H   0  0  0  0  0  0  0  0  0  0  0  0
  142.0150   82.5949  224.0452 H   0  0  0  0  0  0  0  0  0  0  0  0
  144.0311   81.1818  223.5866 H   0  0  0  0  0  0  0  0  0  0  0  0
  143.6320   78.8055  222.9071 H   0  0  0  0  0  0  0  0  0  0  0  0
  1  2  2  0
  2  3  1  0
  3  4  1  0
  4  5  1  0
  5  6  2  0
  5  7  1  0
  7  8  1  0
  8  9  1  0
  9 10  1  0
  9 11  1  0
 11 12  1  0
 12 13  1  0
 13 14  1  0
 14 15  1  0
 15 16  2  0
 16 17  1  0
 17 18  2  0
 18 19  1  0
 18 20  1  0
 20 21  2  0
  2 22  1  0
 22 23  2  0
 23 24  1  0
 24 25  2  0
 25 26  1  0
 26 27  2  0
 27 28  1  0
 28 29  2  0
 29 30  1  0
 30 31  2  0
 12  7  1  0
 21 15  1  0
 31 22  1  0
 30 25  1  0
  3 32  1  0
  4 33  1  0
  4 34  1  0
  8 35  1  0
  8 36  1  0
  9 37  1  6
 11 38  1  0
 11 39  1  0
 12 40  1  1
 13 41  1  0
 13 42  1  0
 16 43  1  0
 17 44  1  0
 20 45  1  0
 21 46  1  0
 23 47  1  0
 24 48  1  0
 26 49  1  0
 27 50  1  0
 28 51  1  0
 29 52  1  0
M  END
>  <smiles>  (11) 
O=C(NCC(=O)N1C[C@H](F)C[C@H]1COc1ccc(Cl)cc1)c1ccc2ccccc2n1

>  <score_type>  (11) 
oracle

>  <origin>  (11) 
autodockgpu

>  <m_score__min__energy>  (11) 
-8.1600000000000001

>  <m_primary>  (11) 
energy

>  <rmsd>  (11) 
7.629408064113377

>  <m_score__min__rmsd>  (11) 
7.629408064113377

>  <meeko>  (11) 
{"free_energy": -6.23, "intermolecular_energy": -8.32, "internal_energy": -3.63, "cluster_size": 9, "cluster_id": 8, "rank_in_cluster": 6}

>  <energy>  (11) 
-7.88

>  <cluster_rmsd>  (11) 
1.14

>  <cluster>  (11) 
1

$$$$

     RDKit          3D

 52 55  0  0  0  0  0  0  0  0999 V2000
  139.2420   74.6990  222.3320 O   0  0  0  0  0  0  0  0  0  0  0  0
  140.0750   75.5110  221.8670 C   0  0  0  0  0  0  0  0  0  0  0  0
  140.9440   75.0440  220.8260 N   0  0  0  0  0  0  0  0  0  0  0  0
  140.8760   73.6860  220.3160 C   0  0  0  0  0  0  0  0  0  0  0  0
  142.0520   72.9520  220.8470 C   0  0  0  0  0  0  0  0  0  0  0  0
  141.8230   72.0620  221.7090 O   0  0  0  0  0  0  0  0  0  0  0  0
  143.3660   73.2480  220.3990 N   0  0  0  0  0  0  0  0  0  0  0  0
  144.4650   72.3720  220.0810 C   0  0  0  0  0  0  0  0  0  0  0  0
  145.7040   73.1330  220.4630 C   0  0  2  0  0  0  0  0  0  0  0  0
  146.2460   72.6480  221.6540 F   0  0  0  0  0  0  0  0  0  0  0  0
  145.2610   74.5430  220.5900 C   0  0  0  0  0  0  0  0  0  0  0  0
  143.8620   74.5980  220.1690 C   0  0  1  0  0  0  0  0  0  0  0  0
  143.5080   75.0820  218.8070 C   0  0  0  0  0  0  0  0  0  0  0  0
  142.6620   76.0800  218.5950 O   0  0  0  0  0  0  0  0  0  0  0  0
  142.4600   77.3930  218.5920 C   0  0  0  0  0  0  0  0  0  0  0  0
  141.6320   77.9100  219.6170 C   0  0  0  0  0  0  0  0  0  0  0  0
  141.3490   79.2440  219.7240 C   0  0  0  0  0  0  0  0  0  0  0  0
  141.8780   80.1250  218.8120 C   0  0  0  0  0  0  0  0  0  0  0  0
  141.5520   81.8420  218.8970 Cl  0  0  0  0  0  0  0  0  0  0  0  0
  142.6890   79.6840  217.7940 C   0  0  0  0  0  0  0  0  0  0  0  0
  142.9480   78.3380  217.7220 C   0  0  0  0  0  0  0  0  0  0  0  0
  140.1760   76.8860  222.3520 C   0  0  0  0  0  0  0  0  0  0  0  0
  139.0520   77.5820  222.6710 C   0  0  0  0  0  0  0  0  0  0  0  0
  139.1530   78.8910  223.1320 C   0  0  0  0  0  0  0  0  0  0  0  0
  140.4060   79.4540  223.2540 C   0  0  0  0  0  0  0  0  0  0  0  0
  140.5830   80.7450  223.7030 C   0  0  0  0  0  0  0  0  0  0  0  0
  141.8540   81.2870  223.8160 C   0  0  0  0  0  0  0  0  0  0  0  0
  142.9920   80.5680  223.4880 C   0  0  0  0  0  0  0  0  0  0  0  0
  142.7770   79.2710  223.0390 C   0  0  0  0  0  0  0  0  0  0  0  0
  141.5130   78.7280  222.9240 C   0  0  0  0  0  0  0  0  0  0  0  0
  141.4020   77.4560  222.4780 N   0  0  0  0  0  0  0  0  0  0  0  0
  141.6240   75.7480  220.4630 H   0  0  0  0  0  0  0  0  0  0  0  0
  139.9474   73.2034  220.6548 H   0  0  0  0  0  0  0  0  0  0  0  0
  140.8816   73.6839  219.2160 H   0  0  0  0  0  0  0  0  0  0  0  0
  144.3930   71.4386  220.6586 H   0  0  0  0  0  0  0  0  0  0  0  0
  144.4693   72.0896  219.0179 H   0  0  0  0  0  0  0  0  0  0  0  0
  146.5047   73.0275  219.7162 H   0  0  0  0  0  0  0  0  0  0  0  0
  145.3531   74.8740  221.6350 H   0  0  0  0  0  0  0  0  0  0  0  0
  145.8817   75.2041  219.9673 H   0  0  0  0  0  0  0  0  0  0  0  0
  143.3882   75.3982  220.7565 H   0  0  0  0  0  0  0  0  0  0  0  0
  144.4555   75.3820  218.3357 H   0  0  0  0  0  0  0  0  0  0  0  0
  142.9445   74.2258  218.4076 H   0  0  0  0  0  0  0  0  0  0  0  0
  141.2013   77.2151  220.3529 H   0  0  0  0  0  0  0  0  0  0  0  0
  140.7019   79.6092  220.5351 H   0  0  0  0  0  0  0  0  0  0  0  0
  143.1159   80.3855  217.0621 H   0  0  0  0  0  0  0  0  0  0  0  0
  143.5962   77.9889  216.9048 H   0  0  0  0  0  0  0  0  0  0  0  0
  138.0639   77.1105  222.5647 H   0  0  0  0  0  0  0  0  0  0  0  0
  138.2519   79.4650  223.3938 H   0  0  0  0  0  0  0  0  0  0  0  0
  139.7065   81.3517  223.9746 H   0  0  0  0  0  0  0  0  0  0  0  0
  141.9624   82.3203  224.1774 H   0  0  0  0  0  0  0  0  0  0  0  0
  144.0011   80.9966  223.5774 H   0  0  0  0  0  0  0  0  0  0  0  0
  143.6456   78.6542  222.7651 H   0  0  0  0  0  0  0  0  0  0  0  0
  1  2  2  0
  2  3  1  0
  3  4  1  0
  4  5  1  0
  5  6  2  0
  5  7  1  0
  7  8  1  0
  8  9  1  0
  9 10  1  0
  9 11  1  0
 11 12  1  0
 12 13  1  0
 13 14  1  0
 14 15  1  0
 15 16  2  0
 16 17  1  0
 17 18  2  0
 18 19  1  0
 18 20  1  0
 20 21  2  0
  2 22  1  0
 22 23  2  0
 23 24  1  0
 24 25  2  0
 25 26  1  0
 26 27  2  0
 27 28  1  0
 28 29  2  0
 29 30  1  0
 30 31  2  0
 12  7  1  0
 21 15  1  0
 31 22  1  0
 30 25  1  0
  3 32  1  0
  4 33  1  0
  4 34  1  0
  8 35  1  0
  8 36  1  0
  9 37  1  6
 11 38  1  0
 11 39  1  0
 12 40  1  1
 13 41  1  0
 13 42  1  0
 16 43  1  0
 17 44  1  0
 20 45  1  0
 21 46  1  0
 23 47  1  0
 24 48  1  0
 26 49  1  0
 27 50  1  0
 28 51  1  0
 29 52  1  0
M  END
>  <smiles>  (12) 
O=C(NCC(=O)N1C[C@H](F)C[C@H]1COc1ccc(Cl)cc1)c1ccc2ccccc2n1

>  <score_type>  (12) 
oracle

>  <origin>  (12) 
autodockgpu

>  <m_score__min__energy>  (12) 
-8.1600000000000001

>  <m_primary>  (12) 
energy

>  <rmsd>  (12) 
7.621728556555927

>  <m_score__min__rmsd>  (12) 
7.621728556555927

>  <meeko>  (12) 
{"free_energy": -7.31, "intermolecular_energy": -9.4, "internal_energy": -3.21, "cluster_size": 9, "cluster_id": 8, "rank_in_cluster": 2}

>  <energy>  (12) 
-7.82

>  <cluster_rmsd>  (12) 
1.11

>  <cluster>  (12) 
1

$$$$

     RDKit          3D

 52 55  0  0  0  0  0  0  0  0999 V2000
  140.3580   71.3630  221.2010 O   0  0  0  0  0  0  0  0  0  0  0  0
  140.0450   71.9400  222.2680 C   0  0  0  0  0  0  0  0  0  0  0  0
  139.6780   73.3240  222.1870 N   0  0  0  0  0  0  0  0  0  0  0  0
  139.6630   74.0460  220.9270 C   0  0  0  0  0  0  0  0  0  0  0  0
  140.2370   75.3910  221.1790 C   0  0  0  0  0  0  0  0  0  0  0  0
  140.2890   75.7700  222.3800 O   0  0  0  0  0  0  0  0  0  0  0  0
  140.7000   76.2040  220.1110 N   0  0  0  0  0  0  0  0  0  0  0  0
  141.6380   77.2980  220.1060 C   0  0  0  0  0  0  0  0  0  0  0  0
  141.1550   78.2320  219.0330 C   0  0  2  0  0  0  0  0  0  0  0  0
  140.5330   79.3540  219.5840 F   0  0  0  0  0  0  0  0  0  0  0  0
  140.2150   77.4230  218.2180 C   0  0  0  0  0  0  0  0  0  0  0  0
  140.2670   76.0540  218.7280 C   0  0  1  0  0  0  0  0  0  0  0  0
  141.0650   75.0200  218.0180 C   0  0  0  0  0  0  0  0  0  0  0  0
  141.9230   74.2210  218.6380 O   0  0  0  0  0  0  0  0  0  0  0  0
  143.0210   74.1200  219.3790 C   0  0  0  0  0  0  0  0  0  0  0  0
  143.2950   72.8470  219.9350 C   0  0  0  0  0  0  0  0  0  0  0  0
  144.3950   72.6130  220.7140 C   0  0  0  0  0  0  0  0  0  0  0  0
  145.2730   73.6380  220.9750 C   0  0  0  0  0  0  0  0  0  0  0  0
  146.6970   73.3980  221.9640 Cl  0  0  0  0  0  0  0  0  0  0  0  0
  145.0610   74.8940  220.4620 C   0  0  0  0  0  0  0  0  0  0  0  0
  143.9460   75.0880  219.6850 C   0  0  0  0  0  0  0  0  0  0  0  0
  140.0470   71.2510  223.5560 C   0  0  0  0  0  0  0  0  0  0  0  0
  139.5700   69.9800  223.6510 C   0  0  0  0  0  0  0  0  0  0  0  0
  139.5740   69.3280  224.8810 C   0  0  0  0  0  0  0  0  0  0  0  0
  140.0670   69.9950  225.9820 C   0  0  0  0  0  0  0  0  0  0  0  0
  140.1020   69.4120  227.2310 C   0  0  0  0  0  0  0  0  0  0  0  0
  140.6040   70.1060  228.3220 C   0  0  0  0  0  0  0  0  0  0  0  0
  141.0870   71.3990  228.2110 C   0  0  0  0  0  0  0  0  0  0  0  0
  141.0370   71.9550  226.9400 C   0  0  0  0  0  0  0  0  0  0  0  0
  140.5380   71.2680  225.8510 C   0  0  0  0  0  0  0  0  0  0  0  0
  140.5300   71.8920  224.6510 N   0  0  0  0  0  0  0  0  0  0  0  0
  139.4230   73.7710  223.0950 H   0  0  0  0  0  0  0  0  0  0  0  0
  140.2696   73.5122  220.1806 H   0  0  0  0  0  0  0  0  0  0  0  0
  138.6370   74.1282  220.5388 H   0  0  0  0  0  0  0  0  0  0  0  0
  141.6444   77.8041  221.0826 H   0  0  0  0  0  0  0  0  0  0  0  0
  142.6660   76.9549  219.9177 H   0  0  0  0  0  0  0  0  0  0  0  0
  141.9804   78.6279  218.4231 H   0  0  0  0  0  0  0  0  0  0  0  0
  139.1943   77.8220  218.3133 H   0  0  0  0  0  0  0  0  0  0  0  0
  140.4946   77.4540  217.1546 H   0  0  0  0  0  0  0  0  0  0  0  0
  139.2667   75.6231  218.5742 H   0  0  0  0  0  0  0  0  0  0  0  0
  140.3363   74.3593  217.5256 H   0  0  0  0  0  0  0  0  0  0  0  0
  141.7400   75.6403  217.4101 H   0  0  0  0  0  0  0  0  0  0  0  0
  142.6001   72.0184  219.7338 H   0  0  0  0  0  0  0  0  0  0  0  0
  144.5758   71.6105  221.1291 H   0  0  0  0  0  0  0  0  0  0  0  0
  145.7613   75.7172  220.6668 H   0  0  0  0  0  0  0  0  0  0  0  0
  143.7808   76.0958  219.2762 H   0  0  0  0  0  0  0  0  0  0  0  0
  139.1820   69.4688  222.7576 H   0  0  0  0  0  0  0  0  0  0  0  0
  139.1913   68.3008  224.9725 H   0  0  0  0  0  0  0  0  0  0  0  0
  139.7280   68.3861  227.3636 H   0  0  0  0  0  0  0  0  0  0  0  0
  140.6189   69.6141  229.3058 H   0  0  0  0  0  0  0  0  0  0  0  0
  141.4852   71.9507  229.0753 H   0  0  0  0  0  0  0  0  0  0  0  0
  141.4084   72.9802  226.7951 H   0  0  0  0  0  0  0  0  0  0  0  0
  1  2  2  0
  2  3  1  0
  3  4  1  0
  4  5  1  0
  5  6  2  0
  5  7  1  0
  7  8  1  0
  8  9  1  0
  9 10  1  0
  9 11  1  0
 11 12  1  0
 12 13  1  0
 13 14  1  0
 14 15  1  0
 15 16  2  0
 16 17  1  0
 17 18  2  0
 18 19  1  0
 18 20  1  0
 20 21  2  0
  2 22  1  0
 22 23  2  0
 23 24  1  0
 24 25  2  0
 25 26  1  0
 26 27  2  0
 27 28  1  0
 28 29  2  0
 29 30  1  0
 30 31  2  0
 12  7  1  0
 21 15  1  0
 31 22  1  0
 30 25  1  0
  3 32  1  0
  4 33  1  0
  4 34  1  0
  8 35  1  0
  8 36  1  0
  9 37  1  6
 11 38  1  0
 11 39  1  0
 12 40  1  1
 13 41  1  0
 13 42  1  0
 16 43  1  0
 17 44  1  0
 20 45  1  0
 21 46  1  0
 23 47  1  0
 24 48  1  0
 26 49  1  0
 27 50  1  0
 28 51  1  0
 29 52  1  0
M  END
>  <smiles>  (13) 
O=C(NCC(=O)N1C[C@H](F)C[C@H]1COc1ccc(Cl)cc1)c1ccc2ccccc2n1

>  <score_type>  (13) 
oracle

>  <origin>  (13) 
autodockgpu

>  <m_score__min__energy>  (13) 
-8.1600000000000001

>  <m_primary>  (13) 
energy

>  <rmsd>  (13) 
2.031203805515231

>  <m_score__min__rmsd>  (13) 
2.031203805515231

>  <meeko>  (13) 
{"free_energy": -8.0, "intermolecular_energy": -10.09, "internal_energy": -2.58, "cluster_size": 19, "cluster_id": 1, "rank_in_cluster": 8}

>  <energy>  (13) 
-7.81

>  <cluster_rmsd>  (13) 
0.64

>  <cluster>  (13) 
1

$$$$

     RDKit          3D

 52 55  0  0  0  0  0  0  0  0999 V2000
  141.5170   72.2910  221.4650 O   0  0  0  0  0  0  0  0  0  0  0  0
  140.6810   72.5500  222.3610 C   0  0  0  0  0  0  0  0  0  0  0  0
  140.0610   73.8430  222.3330 N   0  0  0  0  0  0  0  0  0  0  0  0
  140.3750   74.8260  221.3120 C   0  0  0  0  0  0  0  0  0  0  0  0
  140.1030   76.1670  221.8870 C   0  0  0  0  0  0  0  0  0  0  0  0
  139.1510   76.2480  222.7090 O   0  0  0  0  0  0  0  0  0  0  0  0
  140.8820   77.2960  221.5220 N   0  0  0  0  0  0  0  0  0  0  0  0
  141.4550   78.3400  222.3340 C   0  0  0  0  0  0  0  0  0  0  0  0
  141.4240   79.5740  221.4750 C   0  0  2  0  0  0  0  0  0  0  0  0
  140.4030   80.4380  221.8730 F   0  0  0  0  0  0  0  0  0  0  0  0
  141.2180   79.0710  220.0950 C   0  0  0  0  0  0  0  0  0  0  0  0
  141.2640   77.6120  220.1520 C   0  0  1  0  0  0  0  0  0  0  0  0
  142.4970   76.8850  219.7500 C   0  0  0  0  0  0  0  0  0  0  0  0
  142.7750   75.6550  220.1620 O   0  0  0  0  0  0  0  0  0  0  0  0
  143.3820   74.5010  219.9070 C   0  0  0  0  0  0  0  0  0  0  0  0
  144.6510   74.3080  220.5030 C   0  0  0  0  0  0  0  0  0  0  0  0
  145.3770   73.1630  220.3200 C   0  0  0  0  0  0  0  0  0  0  0  0
  144.8690   72.1560  219.5340 C   0  0  0  0  0  0  0  0  0  0  0  0
  145.7500   70.6690  219.2640 Cl  0  0  0  0  0  0  0  0  0  0  0  0
  143.6430   72.2840  218.9300 C   0  0  0  0  0  0  0  0  0  0  0  0
  142.9460   73.4490  219.1380 C   0  0  0  0  0  0  0  0  0  0  0  0
  140.3360   71.5890  223.4060 C   0  0  0  0  0  0  0  0  0  0  0  0
  139.6540   70.4540  223.0920 C   0  0  0  0  0  0  0  0  0  0  0  0
  139.3280   69.5420  224.0920 C   0  0  0  0  0  0  0  0  0  0  0  0
  139.7090   69.8160  225.3880 C   0  0  0  0  0  0  0  0  0  0  0  0
  139.4190   68.9590  226.4280 C   0  0  0  0  0  0  0  0  0  0  0  0
  139.8150   69.2600  227.7230 C   0  0  0  0  0  0  0  0  0  0  0  0
  140.5090   70.4190  228.0300 C   0  0  0  0  0  0  0  0  0  0  0  0
  140.7830   71.2590  226.9580 C   0  0  0  0  0  0  0  0  0  0  0  0
  140.3910   70.9640  225.6670 C   0  0  0  0  0  0  0  0  0  0  0  0
  140.7030   71.8430  224.6890 N   0  0  0  0  0  0  0  0  0  0  0  0
  139.3700   74.0230  223.0940 H   0  0  0  0  0  0  0  0  0  0  0  0
  141.4346   74.7470  221.0275 H   0  0  0  0  0  0  0  0  0  0  0  0
  139.7652   74.6588  220.4119 H   0  0  0  0  0  0  0  0  0  0  0  0
  140.8582   78.4902  223.2457 H   0  0  0  0  0  0  0  0  0  0  0  0
  142.4763   78.0925  222.6590 H   0  0  0  0  0  0  0  0  0  0  0  0
  142.3497   80.1627  221.5556 H   0  0  0  0  0  0  0  0  0  0  0  0
  140.2399   79.4021  219.7159 H   0  0  0  0  0  0  0  0  0  0  0  0
  141.9949   79.4586  219.4196 H   0  0  0  0  0  0  0  0  0  0  0  0
  140.5929   77.2451  219.3615 H   0  0  0  0  0  0  0  0  0  0  0  0
  142.4782   76.8400  218.6511 H   0  0  0  0  0  0  0  0  0  0  0  0
  143.2755   77.4706  220.2610 H   0  0  0  0  0  0  0  0  0  0  0  0
  145.0679   75.1060  221.1350 H   0  0  0  0  0  0  0  0  0  0  0  0
  146.3608   73.0489  220.7987 H   0  0  0  0  0  0  0  0  0  0  0  0
  143.2326   71.4806  218.3006 H   0  0  0  0  0  0  0  0  0  0  0  0
  141.9641   73.5474  218.6521 H   0  0  0  0  0  0  0  0  0  0  0  0
  139.3609   70.2576  222.0501 H   0  0  0  0  0  0  0  0  0  0  0  0
  138.7770   68.6206  223.8525 H   0  0  0  0  0  0  0  0  0  0  0  0
  138.8684   68.0277  226.2292 H   0  0  0  0  0  0  0  0  0  0  0  0
  139.5701   68.5559  228.5319 H   0  0  0  0  0  0  0  0  0  0  0  0
  140.8229   70.6587  229.0566 H   0  0  0  0  0  0  0  0  0  0  0  0
  141.3324   72.1936  227.1443 H   0  0  0  0  0  0  0  0  0  0  0  0
  1  2  2  0
  2  3  1  0
  3  4  1  0
  4  5  1  0
  5  6  2  0
  5  7  1  0
  7  8  1  0
  8  9  1  0
  9 10  1  0
  9 11  1  0
 11 12  1  0
 12 13  1  0
 13 14  1  0
 14 15  1  0
 15 16  2  0
 16 17  1  0
 17 18  2  0
 18 19  1  0
 18 20  1  0
 20 21  2  0
  2 22  1  0
 22 23  2  0
 23 24  1  0
 24 25  2  0
 25 26  1  0
 26 27  2  0
 27 28  1  0
 28 29  2  0
 29 30  1  0
 30 31  2  0
 12  7  1  0
 21 15  1  0
 31 22  1  0
 30 25  1  0
  3 32  1  0
  4 33  1  0
  4 34  1  0
  8 35  1  0
  8 36  1  0
  9 37  1  6
 11 38  1  0
 11 39  1  0
 12 40  1  6
 13 41  1  0
 13 42  1  0
 16 43  1  0
 17 44  1  0
 20 45  1  0
 21 46  1  0
 23 47  1  0
 24 48  1  0
 26 49  1  0
 27 50  1  0
 28 51  1  0
 29 52  1  0
M  END
>  <smiles>  (14) 
O=C(NCC(=O)N1C[C@H](F)C[C@H]1COc1ccc(Cl)cc1)c1ccc2ccccc2n1

>  <score_type>  (14) 
oracle

>  <origin>  (14) 
autodockgpu

>  <m_score__min__energy>  (14) 
-8.1600000000000001

>  <m_primary>  (14) 
energy

>  <rmsd>  (14) 
2.8658066084349794

>  <m_score__min__rmsd>  (14) 
2.8658066084349794

>  <meeko>  (14) 
{"free_energy": -8.07, "intermolecular_energy": -10.16, "internal_energy": -2.23, "cluster_size": 19, "cluster_id": 1, "rank_in_cluster": 5}

>  <energy>  (14) 
-7.78

>  <cluster_rmsd>  (14) 
1.29

>  <cluster>  (14) 
1

$$$$

     RDKit          3D

 52 55  0  0  0  0  0  0  0  0999 V2000
  141.5300   72.3030  221.5340 O   0  0  0  0  0  0  0  0  0  0  0  0
  140.6630   72.5480  222.4050 C   0  0  0  0  0  0  0  0  0  0  0  0
  139.9990   73.8170  222.3390 N   0  0  0  0  0  0  0  0  0  0  0  0
  140.3050   74.7940  221.3100 C   0  0  0  0  0  0  0  0  0  0  0  0
  140.0250   76.1380  221.8750 C   0  0  0  0  0  0  0  0  0  0  0  0
  139.0910   76.2150  222.7170 O   0  0  0  0  0  0  0  0  0  0  0  0
  140.7790   77.2730  221.4790 N   0  0  0  0  0  0  0  0  0  0  0  0
  141.4730   78.2580  222.2690 C   0  0  0  0  0  0  0  0  0  0  0  0
  141.3640   79.5410  221.4930 C   0  0  2  0  0  0  0  0  0  0  0  0
  140.4210   80.3970  222.0660 F   0  0  0  0  0  0  0  0  0  0  0  0
  140.9740   79.1250  220.1240 C   0  0  0  0  0  0  0  0  0  0  0  0
  140.9920   77.6640  220.0920 C   0  0  1  0  0  0  0  0  0  0  0  0
  142.1480   76.9430  219.4950 C   0  0  0  0  0  0  0  0  0  0  0  0
  142.7640   75.9400  220.1070 O   0  0  0  0  0  0  0  0  0  0  0  0
  143.4420   74.8040  219.9860 C   0  0  0  0  0  0  0  0  0  0  0  0
  143.1880   74.0340  218.8260 C   0  0  0  0  0  0  0  0  0  0  0  0
  143.8230   72.8470  218.5840 C   0  0  0  0  0  0  0  0  0  0  0  0
  144.7420   72.3730  219.4890 C   0  0  0  0  0  0  0  0  0  0  0  0
  145.5870   70.8610  219.2340 Cl  0  0  0  0  0  0  0  0  0  0  0  0
  145.0320   73.0750  220.6330 C   0  0  0  0  0  0  0  0  0  0  0  0
  144.3730   74.2620  220.8390 C   0  0  0  0  0  0  0  0  0  0  0  0
  140.3260   71.5920  223.4570 C   0  0  0  0  0  0  0  0  0  0  0  0
  139.6490   70.4510  223.1530 C   0  0  0  0  0  0  0  0  0  0  0  0
  139.3300   69.5440  224.1590 C   0  0  0  0  0  0  0  0  0  0  0  0
  139.7120   69.8300  225.4530 C   0  0  0  0  0  0  0  0  0  0  0  0
  139.4300   68.9780  226.4990 C   0  0  0  0  0  0  0  0  0  0  0  0
  139.8260   69.2890  227.7910 C   0  0  0  0  0  0  0  0  0  0  0  0
  140.5150   70.4540  228.0890 C   0  0  0  0  0  0  0  0  0  0  0  0
  140.7820   71.2880  227.0100 C   0  0  0  0  0  0  0  0  0  0  0  0
  140.3890   70.9820  225.7230 C   0  0  0  0  0  0  0  0  0  0  0  0
  140.6950   71.8560  224.7370 N   0  0  0  0  0  0  0  0  0  0  0  0
  139.2840   73.9850  223.0790 H   0  0  0  0  0  0  0  0  0  0  0  0
  141.3647   74.7197  221.0245 H   0  0  0  0  0  0  0  0  0  0  0  0
  139.6949   74.6158  220.4122 H   0  0  0  0  0  0  0  0  0  0  0  0
  140.9988   78.3636  223.2559 H   0  0  0  0  0  0  0  0  0  0  0  0
  142.5211   77.9753  222.4470 H   0  0  0  0  0  0  0  0  0  0  0  0
  142.3065   80.1082  221.4894 H   0  0  0  0  0  0  0  0  0  0  0  0
  139.9642   79.4942  219.8917 H   0  0  0  0  0  0  0  0  0  0  0  0
  141.6685   79.5394  219.3784 H   0  0  0  0  0  0  0  0  0  0  0  0
  140.2173   77.3552  219.3748 H   0  0  0  0  0  0  0  0  0  0  0  0
  141.7923   76.5407  218.5350 H   0  0  0  0  0  0  0  0  0  0  0  0
  142.9252   77.7213  219.5073 H   0  0  0  0  0  0  0  0  0  0  0  0
  142.4546   74.4029  218.0938 H   0  0  0  0  0  0  0  0  0  0  0  0
  143.5995   72.2756  217.6710 H   0  0  0  0  0  0  0  0  0  0  0  0
  145.7673   72.6992  221.3598 H   0  0  0  0  0  0  0  0  0  0  0  0
  144.6082   74.8214  221.7565 H   0  0  0  0  0  0  0  0  0  0  0  0
  139.3544   70.2461  222.1132 H   0  0  0  0  0  0  0  0  0  0  0  0
  138.7842   68.6176  223.9268 H   0  0  0  0  0  0  0  0  0  0  0  0
  138.8853   68.0418  226.3070 H   0  0  0  0  0  0  0  0  0  0  0  0
  139.5858   68.5891  228.6049 H   0  0  0  0  0  0  0  0  0  0  0  0
  140.8301   70.7024  229.1132 H   0  0  0  0  0  0  0  0  0  0  0  0
  141.3268   72.2268  227.1883 H   0  0  0  0  0  0  0  0  0  0  0  0
  1  2  2  0
  2  3  1  0
  3  4  1  0
  4  5  1  0
  5  6  2  0
  5  7  1  0
  7  8  1  0
  8  9  1  0
  9 10  1  0
  9 11  1  0
 11 12  1  0
 12 13  1  0
 13 14  1  0
 14 15  1  0
 15 16  2  0
 16 17  1  0
 17 18  2  0
 18 19  1  0
 18 20  1  0
 20 21  2  0
  2 22  1  0
 22 23  2  0
 23 24  1  0
 24 25  2  0
 25 26  1  0
 26 27  2  0
 27 28  1  0
 28 29  2  0
 29 30  1  0
 30 31  2  0
 12  7  1  0
 21 15  1  0
 31 22  1  0
 30 25  1  0
  3 32  1  0
  4 33  1  0
  4 34  1  0
  8 35  1  0
  8 36  1  0
  9 37  1  6
 11 38  1  0
 11 39  1  0
 12 40  1  6
 13 41  1  0
 13 42  1  0
 16 43  1  0
 17 44  1  0
 20 45  1  0
 21 46  1  0
 23 47  1  0
 24 48  1  0
 26 49  1  0
 27 50  1  0
 28 51  1  0
 29 52  1  0
M  END
>  <smiles>  (15) 
O=C(NCC(=O)N1C[C@H](F)C[C@H]1COc1ccc(Cl)cc1)c1ccc2ccccc2n1

>  <score_type>  (15) 
oracle

>  <origin>  (15) 
autodockgpu

>  <m_score__min__energy>  (15) 
-8.1600000000000001

>  <m_primary>  (15) 
energy

>  <rmsd>  (15) 
2.837769711986497

>  <m_score__min__rmsd>  (15) 
2.837769711986497

>  <meeko>  (15) 
{"free_energy": -7.96, "intermolecular_energy": -10.05, "internal_energy": -2.35, "cluster_size": 19, "cluster_id": 1, "rank_in_cluster": 9}

>  <energy>  (15) 
-7.78

>  <cluster_rmsd>  (15) 
1.39

>  <cluster>  (15) 
1

$$$$

     RDKit          3D

 52 55  0  0  0  0  0  0  0  0999 V2000
  137.2950   76.4620  222.2600 O   0  0  0  0  0  0  0  0  0  0  0  0
  138.5410   76.5470  222.3580 C   0  0  0  0  0  0  0  0  0  0  0  0
  139.3070   75.3630  222.0960 N   0  0  0  0  0  0  0  0  0  0  0  0
  138.6800   74.1050  221.7290 C   0  0  0  0  0  0  0  0  0  0  0  0
  139.6960   73.0360  221.9000 C   0  0  0  0  0  0  0  0  0  0  0  0
  140.8120   73.3850  222.3710 O   0  0  0  0  0  0  0  0  0  0  0  0
  139.4150   71.6910  221.5450 N   0  0  0  0  0  0  0  0  0  0  0  0
  140.2980   70.6190  221.1630 C   0  0  0  0  0  0  0  0  0  0  0  0
  139.5190   69.7910  220.1790 C   0  0  2  0  0  0  0  0  0  0  0  0
  139.9550   70.0190  218.8730 F   0  0  0  0  0  0  0  0  0  0  0  0
  138.1060   70.2030  220.3710 C   0  0  0  0  0  0  0  0  0  0  0  0
  138.0720   71.1250  221.5040 C   0  0  1  0  0  0  0  0  0  0  0  0
  137.6430   70.6470  222.8460 C   0  0  0  0  0  0  0  0  0  0  0  0
  138.4190   70.7220  223.9190 O   0  0  0  0  0  0  0  0  0  0  0  0
  138.9730   70.0860  224.9450 C   0  0  0  0  0  0  0  0  0  0  0  0
  139.9500   70.7980  225.6800 C   0  0  0  0  0  0  0  0  0  0  0  0
  140.5920   70.2540  226.7590 C   0  0  0  0  0  0  0  0  0  0  0  0
  140.2880   68.9740  227.1550 C   0  0  0  0  0  0  0  0  0  0  0  0
  141.0740   68.2250  228.5270 Cl  0  0  0  0  0  0  0  0  0  0  0  0
  139.3480   68.2330  226.4820 C   0  0  0  0  0  0  0  0  0  0  0  0
  138.7270   68.8150  225.4040 C   0  0  0  0  0  0  0  0  0  0  0  0
  139.2110   77.7930  222.7240 C   0  0  0  0  0  0  0  0  0  0  0  0
  138.4800   78.8710  223.1170 C   0  0  0  0  0  0  0  0  0  0  0  0
  139.1230   80.0560  223.4640 C   0  0  0  0  0  0  0  0  0  0  0  0
  140.4990   80.1050  223.3990 C   0  0  0  0  0  0  0  0  0  0  0  0
  141.2020   81.2450  223.7280 C   0  0  0  0  0  0  0  0  0  0  0  0
  142.5870   81.2670  223.6540 C   0  0  0  0  0  0  0  0  0  0  0  0
  143.3200   80.1620  223.2520 C   0  0  0  0  0  0  0  0  0  0  0  0
  142.5790   79.0330  222.9280 C   0  0  0  0  0  0  0  0  0  0  0  0
  141.2010   79.0060  223.0000 C   0  0  0  0  0  0  0  0  0  0  0  0
  140.5660   77.8600  222.6660 N   0  0  0  0  0  0  0  0  0  0  0  0
  140.3410   75.4710  222.1860 H   0  0  0  0  0  0  0  0  0  0  0  0
  137.8163   73.9108  222.3820 H   0  0  0  0  0  0  0  0  0  0  0  0
  138.3223   74.1381  220.6893 H   0  0  0  0  0  0  0  0  0  0  0  0
  141.2085   71.0194  220.6932 H   0  0  0  0  0  0  0  0  0  0  0  0
  140.6208   70.0259  222.0314 H   0  0  0  0  0  0  0  0  0  0  0  0
  139.6512   68.7116  220.3445 H   0  0  0  0  0  0  0  0  0  0  0  0
  137.7341   70.7052  219.4658 H   0  0  0  0  0  0  0  0  0  0  0  0
  137.4678   69.3277  220.5621 H   0  0  0  0  0  0  0  0  0  0  0  0
  137.2509   71.8310  221.3104 H   0  0  0  0  0  0  0  0  0  0  0  0
  136.7304   71.2099  223.0914 H   0  0  0  0  0  0  0  0  0  0  0  0
  137.5895   69.5599  222.6871 H   0  0  0  0  0  0  0  0  0  0  0  0
  140.2021   71.8239  225.3736 H   0  0  0  0  0  0  0  0  0  0  0  0
  141.3469   70.8379  227.3060 H   0  0  0  0  0  0  0  0  0  0  0  0
  139.1008   67.2081  226.7956 H   0  0  0  0  0  0  0  0  0  0  0  0
  137.9753   68.2177  224.8673 H   0  0  0  0  0  0  0  0  0  0  0  0
  137.3828   78.8064  223.1605 H   0  0  0  0  0  0  0  0  0  0  0  0
  138.5447   80.9354  223.7836 H   0  0  0  0  0  0  0  0  0  0  0  0
  140.6593   82.1453  224.0521 H   0  0  0  0  0  0  0  0  0  0  0  0
  143.1202   82.1908  223.9230 H   0  0  0  0  0  0  0  0  0  0  0  0
  144.4183   80.1780  223.1933 H   0  0  0  0  0  0  0  0  0  0  0  0
  143.1101   78.1266  222.6019 H   0  0  0  0  0  0  0  0  0  0  0  0
  1  2  2  0
  2  3  1  0
  3  4  1  0
  4  5  1  0
  5  6  2  0
  5  7  1  0
  7  8  1  0
  8  9  1  0
  9 10  1  0
  9 11  1  0
 11 12  1  0
 12 13  1  0
 13 14  1  0
 14 15  1  0
 15 16  2  0
 16 17  1  0
 17 18  2  0
 18 19  1  0
 18 20  1  0
 20 21  2  0
  2 22  1  0
 22 23  2  0
 23 24  1  0
 24 25  2  0
 25 26  1  0
 26 27  2  0
 27 28  1  0
 28 29  2  0
 29 30  1  0
 30 31  2  0
 12  7  1  0
 21 15  1  0
 31 22  1  0
 30 25  1  0
  3 32  1  0
  4 33  1  0
  4 34  1  0
  8 35  1  0
  8 36  1  0
  9 37  1  1
 11 38  1  0
 11 39  1  0
 12 40  1  6
 13 41  1  0
 13 42  1  0
 16 43  1  0
 17 44  1  0
 20 45  1  0
 21 46  1  0
 23 47  1  0
 24 48  1  0
 26 49  1  0
 27 50  1  0
 28 51  1  0
 29 52  1  0
M  END
>  <smiles>  (16) 
O=C(NCC(=O)N1C[C@H](F)C[C@H]1COc1ccc(Cl)cc1)c1ccc2ccccc2n1

>  <score_type>  (16) 
oracle

>  <origin>  (16) 
autodockgpu

>  <m_score__min__energy>  (16) 
-8.1600000000000001

>  <m_primary>  (16) 
energy

>  <rmsd>  (16) 
8.17942786806073

>  <m_score__min__rmsd>  (16) 
8.17942786806073

>  <meeko>  (16) 
{"free_energy": -7.81, "intermolecular_energy": -9.89, "internal_energy": -2.37, "cluster_size": 4, "cluster_id": 3, "rank_in_cluster": 3}

>  <energy>  (16) 
-7.66

>  <cluster_rmsd>  (16) 
1.39

>  <cluster>  (16) 
1

$$$$

     RDKit          3D

 52 55  0  0  0  0  0  0  0  0999 V2000
  140.7890   73.3280  222.5180 O   0  0  0  0  0  0  0  0  0  0  0  0
  139.7800   72.6140  222.7200 C   0  0  0  0  0  0  0  0  0  0  0  0
  138.6000   72.9070  221.9590 N   0  0  0  0  0  0  0  0  0  0  0  0
  138.5560   73.9850  220.9880 C   0  0  0  0  0  0  0  0  0  0  0  0
  138.5460   75.2630  221.7430 C   0  0  0  0  0  0  0  0  0  0  0  0
  137.5990   75.4320  222.5580 O   0  0  0  0  0  0  0  0  0  0  0  0
  139.5560   76.2400  221.5490 N   0  0  0  0  0  0  0  0  0  0  0  0
  140.7080   76.5680  222.3510 C   0  0  0  0  0  0  0  0  0  0  0  0
  140.9080   78.0470  222.1750 C   0  0  2  0  0  0  0  0  0  0  0  0
  140.4790   78.7500  223.3020 F   0  0  0  0  0  0  0  0  0  0  0  0
  140.1160   78.3980  220.9700 C   0  0  0  0  0  0  0  0  0  0  0  0
  139.6000   77.1500  220.4110 C   0  0  1  0  0  0  0  0  0  0  0  0
  140.2660   76.5220  219.2390 C   0  0  0  0  0  0  0  0  0  0  0  0
  140.9540   75.3920  219.3220 O   0  0  0  0  0  0  0  0  0  0  0  0
  142.0720   74.7890  219.7140 C   0  0  0  0  0  0  0  0  0  0  0  0
  143.2390   75.5880  219.7600 C   0  0  0  0  0  0  0  0  0  0  0  0
  144.4520   75.0870  220.1480 C   0  0  0  0  0  0  0  0  0  0  0  0
  144.5550   73.7640  220.5080 C   0  0  0  0  0  0  0  0  0  0  0  0
  146.0790   73.0670  221.0130 Cl  0  0  0  0  0  0  0  0  0  0  0  0
  143.4580   72.9390  220.4840 C   0  0  0  0  0  0  0  0  0  0  0  0
  142.2600   73.4810  220.0880 C   0  0  0  0  0  0  0  0  0  0  0  0
  139.7820   71.5190  223.6870 C   0  0  0  0  0  0  0  0  0  0  0  0
  139.1970   70.3310  223.3760 C   0  0  0  0  0  0  0  0  0  0  0  0
  139.2010   69.2910  224.3010 C   0  0  0  0  0  0  0  0  0  0  0  0
  139.8060   69.4960  225.5240 C   0  0  0  0  0  0  0  0  0  0  0  0
  139.8480   68.5130  226.4880 C   0  0  0  0  0  0  0  0  0  0  0  0
  140.4630   68.7450  227.7090 C   0  0  0  0  0  0  0  0  0  0  0  0
  141.0560   69.9600  228.0150 C   0  0  0  0  0  0  0  0  0  0  0  0
  140.9950   70.9270  227.0200 C   0  0  0  0  0  0  0  0  0  0  0  0
  140.3830   70.7000  225.8030 C   0  0  0  0  0  0  0  0  0  0  0  0
  140.3740   71.7030  224.8960 N   0  0  0  0  0  0  0  0  0  0  0  0
  137.7810   72.2900  222.1530 H   0  0  0  0  0  0  0  0  0  0  0  0
  139.4411   73.9403  220.3364 H   0  0  0  0  0  0  0  0  0  0  0  0
  137.6602   73.9010  220.3551 H   0  0  0  0  0  0  0  0  0  0  0  0
  140.5221   76.3278  223.4082 H   0  0  0  0  0  0  0  0  0  0  0  0
  141.5961   75.9956  222.0451 H   0  0  0  0  0  0  0  0  0  0  0  0
  141.9684   78.3126  222.0525 H   0  0  0  0  0  0  0  0  0  0  0  0
  139.2821   79.0596  221.2471 H   0  0  0  0  0  0  0  0  0  0  0  0
  140.7399   78.9261  220.2339 H   0  0  0  0  0  0  0  0  0  0  0  0
  138.6350   77.3913  219.9414 H   0  0  0  0  0  0  0  0  0  0  0  0
  139.4718   76.3403  218.4999 H   0  0  0  0  0  0  0  0  0  0  0  0
  141.0614   77.2497  219.0204 H   0  0  0  0  0  0  0  0  0  0  0  0
  143.1688   76.6479  219.4741 H   0  0  0  0  0  0  0  0  0  0  0  0
  145.3383   75.7381  220.1717 H   0  0  0  0  0  0  0  0  0  0  0  0
  143.5359   71.8803  220.7720 H   0  0  0  0  0  0  0  0  0  0  0  0
  141.3836   72.8165  220.0689 H   0  0  0  0  0  0  0  0  0  0  0  0
  138.7211   70.1923  222.3941 H   0  0  0  0  0  0  0  0  0  0  0  0
  138.7315   68.3254  224.0619 H   0  0  0  0  0  0  0  0  0  0  0  0
  139.3889   67.5338  226.2872 H   0  0  0  0  0  0  0  0  0  0  0  0
  140.4808   67.9397  228.4581 H   0  0  0  0  0  0  0  0  0  0  0  0
  141.5434   70.1462  228.9834 H   0  0  0  0  0  0  0  0  0  0  0  0
  141.4510   71.9101  227.2083 H   0  0  0  0  0  0  0  0  0  0  0  0
  1  2  2  0
  2  3  1  0
  3  4  1  0
  4  5  1  0
  5  6  2  0
  5  7  1  0
  7  8  1  0
  8  9  1  0
  9 10  1  0
  9 11  1  0
 11 12  1  0
 12 13  1  0
 13 14  1  0
 14 15  1  0
 15 16  2  0
 16 17  1  0
 17 18  2  0
 18 19  1  0
 18 20  1  0
 20 21  2  0
  2 22  1  0
 22 23  2  0
 23 24  1  0
 24 25  2  0
 25 26  1  0
 26 27  2  0
 27 28  1  0
 28 29  2  0
 29 30  1  0
 30 31  2  0
 12  7  1  0
 21 15  1  0
 31 22  1  0
 30 25  1  0
  3 32  1  0
  4 33  1  0
  4 34  1  0
  8 35  1  0
  8 36  1  0
  9 37  1  6
 11 38  1  0
 11 39  1  0
 12 40  1  6
 13 41  1  0
 13 42  1  0
 16 43  1  0
 17 44  1  0
 20 45  1  0
 21 46  1  0
 23 47  1  0
 24 48  1  0
 26 49  1  0
 27 50  1  0
 28 51  1  0
 29 52  1  0
M  END
>  <smiles>  (17) 
O=C(NCC(=O)N1C[C@H](F)C[C@H]1COc1ccc(Cl)cc1)c1ccc2ccccc2n1

>  <score_type>  (17) 
oracle

>  <origin>  (17) 
autodockgpu

>  <m_score__min__energy>  (17) 
-8.1600000000000001

>  <m_primary>  (17) 
energy

>  <rmsd>  (17) 
2.5087073862367495

>  <m_score__min__rmsd>  (17) 
2.5087073862367495

>  <meeko>  (17) 
{"free_energy": -7.78, "intermolecular_energy": -9.86, "internal_energy": -2.14, "cluster_size": 19, "cluster_id": 1, "rank_in_cluster": 14}

>  <energy>  (17) 
-7.55

>  <cluster_rmsd>  (17) 
1.39

>  <cluster>  (17) 
1

$$$$

     RDKit          3D

 52 55  0  0  0  0  0  0  0  0999 V2000
  137.4430   70.1030  221.9070 O   0  0  0  0  0  0  0  0  0  0  0  0
  137.6700   70.7650  222.9470 C   0  0  0  0  0  0  0  0  0  0  0  0
  137.1930   72.1170  222.9860 N   0  0  0  0  0  0  0  0  0  0  0  0
  136.4720   72.7130  221.8760 C   0  0  0  0  0  0  0  0  0  0  0  0
  137.4790   73.3020  220.9580 C   0  0  0  0  0  0  0  0  0  0  0  0
  137.0520   74.1140  220.0950 O   0  0  0  0  0  0  0  0  0  0  0  0
  138.8530   72.9590  221.0560 N   0  0  0  0  0  0  0  0  0  0  0  0
  139.6280   71.9820  220.3330 C   0  0  0  0  0  0  0  0  0  0  0  0
  140.6600   71.4900  221.3090 C   0  0  2  0  0  0  0  0  0  0  0  0
  140.3330   70.2210  221.7890 F   0  0  0  0  0  0  0  0  0  0  0  0
  140.6730   72.5050  222.3920 C   0  0  0  0  0  0  0  0  0  0  0  0
  139.7840   73.5900  221.9810 C   0  0  1  0  0  0  0  0  0  0  0  0
  140.3480   74.8440  221.4140 C   0  0  0  0  0  0  0  0  0  0  0  0
  140.8620   75.8070  222.1660 O   0  0  0  0  0  0  0  0  0  0  0  0
  141.0730   77.1090  222.3260 C   0  0  0  0  0  0  0  0  0  0  0  0
  140.8730   77.9280  221.1900 C   0  0  0  0  0  0  0  0  0  0  0  0
  141.0550   79.2830  221.2250 C   0  0  0  0  0  0  0  0  0  0  0  0
  141.4460   79.8850  222.3970 C   0  0  0  0  0  0  0  0  0  0  0  0
  141.6950   81.6140  222.5040 Cl  0  0  0  0  0  0  0  0  0  0  0  0
  141.6560   79.1440  223.5340 C   0  0  0  0  0  0  0  0  0  0  0  0
  141.4620   77.7860  223.4570 C   0  0  0  0  0  0  0  0  0  0  0  0
  138.3920   70.2020  224.0860 C   0  0  0  0  0  0  0  0  0  0  0  0
  138.4150   68.8560  224.2820 C   0  0  0  0  0  0  0  0  0  0  0  0
  139.1040   68.3260  225.3690 C   0  0  0  0  0  0  0  0  0  0  0  0
  139.7500   69.1890  226.2290 C   0  0  0  0  0  0  0  0  0  0  0  0
  140.4510   68.7350  227.3250 C   0  0  0  0  0  0  0  0  0  0  0  0
  141.0920   69.6250  228.1730 C   0  0  0  0  0  0  0  0  0  0  0  0
  141.0600   70.9940  227.9630 C   0  0  0  0  0  0  0  0  0  0  0  0
  140.3460   71.4160  226.8490 C   0  0  0  0  0  0  0  0  0  0  0  0
  139.7050   70.5330  226.0020 C   0  0  0  0  0  0  0  0  0  0  0  0
  139.0340   71.0380  224.9420 N   0  0  0  0  0  0  0  0  0  0  0  0
  137.4000   72.6360  223.8670 H   0  0  0  0  0  0  0  0  0  0  0  0
  135.8884   71.9431  221.3500 H   0  0  0  0  0  0  0  0  0  0  0  0
  135.7751   73.4847  222.2349 H   0  0  0  0  0  0  0  0  0  0  0  0
  138.9872   71.1525  219.9996 H   0  0  0  0  0  0  0  0  0  0  0  0
  140.0893   72.4113  219.4314 H   0  0  0  0  0  0  0  0  0  0  0  0
  141.6523   71.3792  220.8474 H   0  0  0  0  0  0  0  0  0  0  0  0
  140.3132   72.0586  223.3307 H   0  0  0  0  0  0  0  0  0  0  0  0
  141.6929   72.8803  222.5620 H   0  0  0  0  0  0  0  0  0  0  0  0
  139.3483   74.0062  222.9013 H   0  0  0  0  0  0  0  0  0  0  0  0
  141.1503   74.5332  220.7287 H   0  0  0  0  0  0  0  0  0  0  0  0
  139.4460   75.3319  221.0161 H   0  0  0  0  0  0  0  0  0  0  0  0
  140.5602   77.4586  220.2456 H   0  0  0  0  0  0  0  0  0  0  0  0
  140.8895   79.8872  220.3208 H   0  0  0  0  0  0  0  0  0  0  0  0
  141.9689   79.6214  224.4743 H   0  0  0  0  0  0  0  0  0  0  0  0
  141.6308   77.1959  224.3698 H   0  0  0  0  0  0  0  0  0  0  0  0
  137.8903   68.1881  223.5830 H   0  0  0  0  0  0  0  0  0  0  0  0
  139.1327   67.2396  225.5388 H   0  0  0  0  0  0  0  0  0  0  0  0
  140.5026   67.6553  227.5292 H   0  0  0  0  0  0  0  0  0  0  0  0
  141.6433   69.2318  229.0398 H   0  0  0  0  0  0  0  0  0  0  0  0
  141.5675   71.7013  228.6354 H   0  0  0  0  0  0  0  0  0  0  0  0
  140.2888   72.4931  226.6332 H   0  0  0  0  0  0  0  0  0  0  0  0
  1  2  2  0
  2  3  1  0
  3  4  1  0
  4  5  1  0
  5  6  2  0
  5  7  1  0
  7  8  1  0
  8  9  1  0
  9 10  1  0
  9 11  1  0
 11 12  1  0
 12 13  1  0
 13 14  1  0
 14 15  1  0
 15 16  2  0
 16 17  1  0
 17 18  2  0
 18 19  1  0
 18 20  1  0
 20 21  2  0
  2 22  1  0
 22 23  2  0
 23 24  1  0
 24 25  2  0
 25 26  1  0
 26 27  2  0
 27 28  1  0
 28 29  2  0
 29 30  1  0
 30 31  2  0
 12  7  1  0
 21 15  1  0
 31 22  1  0
 30 25  1  0
  3 32  1  0
  4 33  1  0
  4 34  1  0
  8 35  1  0
  8 36  1  0
  9 37  1  6
 11 38  1  0
 11 39  1  0
 12 40  1  1
 13 41  1  0
 13 42  1  0
 16 43  1  0
 17 44  1  0
 20 45  1  0
 21 46  1  0
 23 47  1  0
 24 48  1  0
 26 49  1  0
 27 50  1  0
 28 51  1  0
 29 52  1  0
M  END
>  <smiles>  (18) 
O=C(NCC(=O)N1C[C@H](F)C[C@H]1COc1ccc(Cl)cc1)c1ccc2ccccc2n1

>  <score_type>  (18) 
oracle

>  <origin>  (18) 
autodockgpu

>  <m_score__min__energy>  (18) 
-8.1600000000000001

>  <m_primary>  (18) 
energy

>  <rmsd>  (18) 
3.1710184987254064

>  <m_score__min__rmsd>  (18) 
3.1710184987254064

>  <meeko>  (18) 
{"free_energy": -7.51, "intermolecular_energy": -9.6, "internal_energy": -2.14, "cluster_size": 10, "cluster_id": 2, "rank_in_cluster": 7}

>  <energy>  (18) 
-7.37

>  <cluster_rmsd>  (18) 
1.7

>  <cluster>  (18) 
1

$$$$

     RDKit          3D

 52 55  0  0  0  0  0  0  0  0999 V2000
  140.4420   71.5190  221.2850 O   0  0  0  0  0  0  0  0  0  0  0  0
  140.1400   72.0540  222.3770 C   0  0  0  0  0  0  0  0  0  0  0  0
  139.8210   73.4520  222.3620 N   0  0  0  0  0  0  0  0  0  0  0  0
  139.8400   74.2350  221.1390 C   0  0  0  0  0  0  0  0  0  0  0  0
  139.0990   75.4930  221.4050 C   0  0  0  0  0  0  0  0  0  0  0  0
  138.8140   75.7400  222.6070 O   0  0  0  0  0  0  0  0  0  0  0  0
  138.7330   76.3670  220.3480 N   0  0  0  0  0  0  0  0  0  0  0  0
  137.8480   77.5040  220.3380 C   0  0  0  0  0  0  0  0  0  0  0  0
  137.2270   77.5140  218.9690 C   0  0  2  0  0  0  0  0  0  0  0  0
  135.9110   77.0530  219.0110 F   0  0  0  0  0  0  0  0  0  0  0  0
  138.0970   76.6330  218.1510 C   0  0  0  0  0  0  0  0  0  0  0  0
  139.2340   76.2490  218.9850 C   0  0  1  0  0  0  0  0  0  0  0  0
  140.5440   76.9340  218.8260 C   0  0  0  0  0  0  0  0  0  0  0  0
  141.2740   77.3400  219.8560 O   0  0  0  0  0  0  0  0  0  0  0  0
  141.5130   78.2940  220.7510 C   0  0  0  0  0  0  0  0  0  0  0  0
  141.4460   77.9150  222.1130 C   0  0  0  0  0  0  0  0  0  0  0  0
  141.6730   78.8030  223.1280 C   0  0  0  0  0  0  0  0  0  0  0  0
  141.9780   80.1100  222.8320 C   0  0  0  0  0  0  0  0  0  0  0  0
  142.2790   81.2910  224.0880 Cl  0  0  0  0  0  0  0  0  0  0  0  0
  142.0580   80.5370  221.5290 C   0  0  0  0  0  0  0  0  0  0  0  0
  141.8220   79.6150  220.5390 C   0  0  0  0  0  0  0  0  0  0  0  0
  140.1080   71.3030  223.6300 C   0  0  0  0  0  0  0  0  0  0  0  0
  139.5910   70.0450  223.6590 C   0  0  0  0  0  0  0  0  0  0  0  0
  139.5630   69.3340  224.8550 C   0  0  0  0  0  0  0  0  0  0  0  0
  140.0660   69.9310  225.9920 C   0  0  0  0  0  0  0  0  0  0  0  0
  140.0700   69.2860  227.2100 C   0  0  0  0  0  0  0  0  0  0  0  0
  140.5820   69.9100  228.3380 C   0  0  0  0  0  0  0  0  0  0  0  0
  141.1070   71.1910  228.2950 C   0  0  0  0  0  0  0  0  0  0  0  0
  141.0860   71.8100  227.0520 C   0  0  0  0  0  0  0  0  0  0  0  0
  140.5770   71.1930  225.9270 C   0  0  0  0  0  0  0  0  0  0  0  0
  140.6000   71.8750  224.7590 N   0  0  0  0  0  0  0  0  0  0  0  0
  139.5730   73.8630  223.2890 H   0  0  0  0  0  0  0  0  0  0  0  0
  140.8779   74.4631  220.8548 H   0  0  0  0  0  0  0  0  0  0  0  0
  139.3736   73.6770  220.3137 H   0  0  0  0  0  0  0  0  0  0  0  0
  137.0733   77.3956  221.1113 H   0  0  0  0  0  0  0  0  0  0  0  0
  138.3832   78.4410  220.5515 H   0  0  0  0  0  0  0  0  0  0  0  0
  137.1660   78.5272  218.5450 H   0  0  0  0  0  0  0  0  0  0  0  0
  137.5393   75.7375  217.8395 H   0  0  0  0  0  0  0  0  0  0  0  0
  138.4377   77.1551  217.2447 H   0  0  0  0  0  0  0  0  0  0  0  0
  139.5355   75.2416  218.6620 H   0  0  0  0  0  0  0  0  0  0  0  0
  141.1814   76.2418  218.2563 H   0  0  0  0  0  0  0  0  0  0  0  0
  140.2399   77.8920  218.3791 H   0  0  0  0  0  0  0  0  0  0  0  0
  141.2033   76.8717  222.3634 H   0  0  0  0  0  0  0  0  0  0  0  0
  141.6118   78.4730  224.1755 H   0  0  0  0  0  0  0  0  0  0  0  0
  142.3027   81.5817  221.2868 H   0  0  0  0  0  0  0  0  0  0  0  0
  141.8853   79.9611  219.4968 H   0  0  0  0  0  0  0  0  0  0  0  0
  139.1957   69.5905  222.7386 H   0  0  0  0  0  0  0  0  0  0  0  0
  139.1479   68.3160  224.8928 H   0  0  0  0  0  0  0  0  0  0  0  0
  139.6634   68.2669  227.2883 H   0  0  0  0  0  0  0  0  0  0  0  0
  140.5707   69.3707  229.2966 H   0  0  0  0  0  0  0  0  0  0  0  0
  141.5146   71.6865  229.1885 H   0  0  0  0  0  0  0  0  0  0  0  0
  141.4897   72.8291  226.9606 H   0  0  0  0  0  0  0  0  0  0  0  0
  1  2  2  0
  2  3  1  0
  3  4  1  0
  4  5  1  0
  5  6  2  0
  5  7  1  0
  7  8  1  0
  8  9  1  0
  9 10  1  0
  9 11  1  0
 11 12  1  0
 12 13  1  0
 13 14  1  0
 14 15  1  0
 15 16  2  0
 16 17  1  0
 17 18  2  0
 18 19  1  0
 18 20  1  0
 20 21  2  0
  2 22  1  0
 22 23  2  0
 23 24  1  0
 24 25  2  0
 25 26  1  0
 26 27  2  0
 27 28  1  0
 28 29  2  0
 29 30  1  0
 30 31  2  0
 12  7  1  0
 21 15  1  0
 31 22  1  0
 30 25  1  0
  3 32  1  0
  4 33  1  0
  4 34  1  0
  8 35  1  0
  8 36  1  0
  9 37  1  6
 11 38  1  0
 11 39  1  0
 12 40  1  6
 13 41  1  0
 13 42  1  0
 16 43  1  0
 17 44  1  0
 20 45  1  0
 21 46  1  0
 23 47  1  0
 24 48  1  0
 26 49  1  0
 27 50  1  0
 28 51  1  0
 29 52  1  0
M  END
>  <smiles>  (19) 
O=C(NCC(=O)N1C[C@H](F)C[C@H]1COc1ccc(Cl)cc1)c1ccc2ccccc2n1

>  <score_type>  (19) 
oracle

>  <origin>  (19) 
autodockgpu

>  <m_score__min__energy>  (19) 
-8.1600000000000001

>  <m_primary>  (19) 
energy

>  <rmsd>  (19) 
2.196890649360349

>  <m_score__min__rmsd>  (19) 
2.196890649360349

>  <meeko>  (19) 
{"free_energy": -7.67, "intermolecular_energy": -9.76, "internal_energy": -2.38, "cluster_size": 10, "cluster_id": 2, "rank_in_cluster": 6}

>  <energy>  (19) 
-7.36

>  <cluster_rmsd>  (19) 
1.93

>  <cluster>  (19) 
1

$$$$

     RDKit          3D

 52 55  0  0  0  0  0  0  0  0999 V2000
  139.9870   71.2370  221.2090 O   0  0  0  0  0  0  0  0  0  0  0  0
  139.9340   71.8560  222.2970 C   0  0  0  0  0  0  0  0  0  0  0  0
  139.8320   73.2850  222.2390 N   0  0  0  0  0  0  0  0  0  0  0  0
  139.7900   74.0050  220.9790 C   0  0  0  0  0  0  0  0  0  0  0  0
  140.6520   75.2050  221.1240 C   0  0  0  0  0  0  0  0  0  0  0  0
  140.7290   75.7110  222.2750 O   0  0  0  0  0  0  0  0  0  0  0  0
  141.3490   75.7480  220.0130 N   0  0  0  0  0  0  0  0  0  0  0  0
  141.2460   75.4510  218.6070 C   0  0  0  0  0  0  0  0  0  0  0  0
  142.6310   75.6440  218.0560 C   0  0  2  0  0  0  0  0  0  0  0  0
  143.2510   74.4170  217.8150 F   0  0  0  0  0  0  0  0  0  0  0  0
  143.3460   76.4310  219.0910 C   0  0  0  0  0  0  0  0  0  0  0  0
  142.3700   76.7820  220.1210 C   0  0  1  0  0  0  0  0  0  0  0  0
  141.7660   78.1410  220.1470 C   0  0  0  0  0  0  0  0  0  0  0  0
  140.6410   78.4170  220.7930 O   0  0  0  0  0  0  0  0  0  0  0  0
  140.0480   79.1050  221.7630 C   0  0  0  0  0  0  0  0  0  0  0  0
  138.7170   78.7390  222.0770 C   0  0  0  0  0  0  0  0  0  0  0  0
  137.9990   79.3690  223.0560 C   0  0  0  0  0  0  0  0  0  0  0  0
  138.5750   80.3940  223.7670 C   0  0  0  0  0  0  0  0  0  0  0  0
  137.7060   81.2370  225.0310 Cl  0  0  0  0  0  0  0  0  0  0  0  0
  139.8630   80.7940  223.5090 C   0  0  0  0  0  0  0  0  0  0  0  0
  140.5500   80.1360  222.5180 C   0  0  0  0  0  0  0  0  0  0  0  0
  139.9720   71.1700  223.5860 C   0  0  0  0  0  0  0  0  0  0  0  0
  139.5340   69.8860  223.6900 C   0  0  0  0  0  0  0  0  0  0  0  0
  139.5730   69.2370  224.9200 C   0  0  0  0  0  0  0  0  0  0  0  0
  140.0600   69.9210  226.0150 C   0  0  0  0  0  0  0  0  0  0  0  0
  140.1270   69.3420  227.2630 C   0  0  0  0  0  0  0  0  0  0  0  0
  140.6210   70.0530  228.3470 C   0  0  0  0  0  0  0  0  0  0  0  0
  141.0640   71.3600  228.2280 C   0  0  0  0  0  0  0  0  0  0  0  0
  140.9820   71.9120  226.9560 C   0  0  0  0  0  0  0  0  0  0  0  0
  140.4900   71.2080  225.8750 C   0  0  0  0  0  0  0  0  0  0  0  0
  140.4490   71.8280  224.6740 N   0  0  0  0  0  0  0  0  0  0  0  0
  139.7880   73.7670  223.1640 H   0  0  0  0  0  0  0  0  0  0  0  0
  140.1689   73.3658  220.1680 H   0  0  0  0  0  0  0  0  0  0  0  0
  138.7582   74.2957  220.7322 H   0  0  0  0  0  0  0  0  0  0  0  0
  140.9129   74.4136  218.4561 H   0  0  0  0  0  0  0  0  0  0  0  0
  140.5120   76.0983  218.1048 H   0  0  0  0  0  0  0  0  0  0  0  0
  142.6260   76.1631  217.0862 H   0  0  0  0  0  0  0  0  0  0  0  0
  144.1557   75.8290  219.5291 H   0  0  0  0  0  0  0  0  0  0  0  0
  143.7926   77.3358  218.6530 H   0  0  0  0  0  0  0  0  0  0  0  0
  142.9191   76.8271  221.0731 H   0  0  0  0  0  0  0  0  0  0  0  0
  142.5319   78.8054  220.5736 H   0  0  0  0  0  0  0  0  0  0  0  0
  141.4555   78.2651  219.0991 H   0  0  0  0  0  0  0  0  0  0  0  0
  138.2442   77.9203  221.5147 H   0  0  0  0  0  0  0  0  0  0  0  0
  136.9667   79.0570  223.2728 H   0  0  0  0  0  0  0  0  0  0  0  0
  140.3287   81.6132  224.0764 H   0  0  0  0  0  0  0  0  0  0  0  0
  141.5812   80.4599  222.3137 H   0  0  0  0  0  0  0  0  0  0  0  0
  139.1495   69.3617  222.8027 H   0  0  0  0  0  0  0  0  0  0  0  0
  139.2225   68.1989  225.0177 H   0  0  0  0  0  0  0  0  0  0  0  0
  139.7854   68.3056  227.4015 H   0  0  0  0  0  0  0  0  0  0  0  0
  140.6622   69.5637  229.3313 H   0  0  0  0  0  0  0  0  0  0  0  0
  141.4559   71.9251  229.0865 H   0  0  0  0  0  0  0  0  0  0  0  0
  141.3213   72.9473  226.8045 H   0  0  0  0  0  0  0  0  0  0  0  0
  1  2  2  0
  2  3  1  0
  3  4  1  0
  4  5  1  0
  5  6  2  0
  5  7  1  0
  7  8  1  0
  8  9  1  0
  9 10  1  0
  9 11  1  0
 11 12  1  0
 12 13  1  0
 13 14  1  0
 14 15  1  0
 15 16  2  0
 16 17  1  0
 17 18  2  0
 18 19  1  0
 18 20  1  0
 20 21  2  0
  2 22  1  0
 22 23  2  0
 23 24  1  0
 24 25  2  0
 25 26  1  0
 26 27  2  0
 27 28  1  0
 28 29  2  0
 29 30  1  0
 30 31  2  0
 12  7  1  0
 21 15  1  0
 31 22  1  0
 30 25  1  0
  3 32  1  0
  4 33  1  0
  4 34  1  0
  8 35  1  0
  8 36  1  0
  9 37  1  6
 11 38  1  0
 11 39  1  0
 12 40  1  1
 13 41  1  0
 13 42  1  0
 16 43  1  0
 17 44  1  0
 20 45  1  0
 21 46  1  0
 23 47  1  0
 24 48  1  0
 26 49  1  0
 27 50  1  0
 28 51  1  0
 29 52  1  0
M  END
>  <smiles>  (20) 
O=C(NCC(=O)N1C[C@H](F)C[C@H]1COc1ccc(Cl)cc1)c1ccc2ccccc2n1

>  <score_type>  (20) 
oracle

>  <origin>  (20) 
autodockgpu

>  <m_score__min__energy>  (20) 
-8.1600000000000001

>  <m_primary>  (20) 
energy

>  <rmsd>  (20) 
1.671842878909195

>  <m_score__min__rmsd>  (20) 
1.671842878909195

>  <meeko>  (20) 
{"free_energy": -7.88, "intermolecular_energy": -9.97, "internal_energy": -2.06, "cluster_size": 1, "cluster_id": 4, "rank_in_cluster": 1}

>  <energy>  (20) 
-8.13

>  <cluster_rmsd>  (20) 
0.0

>  <cluster>  (20) 
2

$$$$

     RDKit          3D

 52 55  0  0  0  0  0  0  0  0999 V2000
  140.4740   71.5620  221.2800 O   0  0  0  0  0  0  0  0  0  0  0  0
  140.1420   72.1050  222.3590 C   0  0  0  0  0  0  0  0  0  0  0  0
  139.8460   73.5080  222.3300 N   0  0  0  0  0  0  0  0  0  0  0  0
  139.9210   74.2860  221.1070 C   0  0  0  0  0  0  0  0  0  0  0  0
  141.0350   75.2550  221.2640 C   0  0  0  0  0  0  0  0  0  0  0  0
  142.2040   74.7860  221.2150 O   0  0  0  0  0  0  0  0  0  0  0  0
  140.7850   76.6380  221.4610 N   0  0  0  0  0  0  0  0  0  0  0  0
  141.4180   77.7950  220.8820 C   0  0  0  0  0  0  0  0  0  0  0  0
  141.3720   78.8510  221.9510 C   0  0  2  0  0  0  0  0  0  0  0  0
  142.6230   79.0180  222.5470 F   0  0  0  0  0  0  0  0  0  0  0  0
  140.3570   78.3680  222.9200 C   0  0  0  0  0  0  0  0  0  0  0  0
  139.7600   77.1590  222.3560 C   0  0  1  0  0  0  0  0  0  0  0  0
  138.4330   77.2220  221.6850 C   0  0  0  0  0  0  0  0  0  0  0  0
  137.3330   76.7090  222.2180 O   0  0  0  0  0  0  0  0  0  0  0  0
  136.7600   75.6720  222.8200 C   0  0  0  0  0  0  0  0  0  0  0  0
  136.9040   74.4140  222.1870 C   0  0  0  0  0  0  0  0  0  0  0  0
  136.3630   73.2700  222.7080 C   0  0  0  0  0  0  0  0  0  0  0  0
  135.6520   73.3290  223.8820 C   0  0  0  0  0  0  0  0  0  0  0  0
  134.9370   71.9000  224.5960 Cl  0  0  0  0  0  0  0  0  0  0  0  0
  135.4780   74.5200  224.5420 C   0  0  0  0  0  0  0  0  0  0  0  0
  136.0370   75.6460  223.9880 C   0  0  0  0  0  0  0  0  0  0  0  0
  140.0530   71.3570  223.6110 C   0  0  0  0  0  0  0  0  0  0  0  0
  139.4350   70.1460  223.6410 C   0  0  0  0  0  0  0  0  0  0  0  0
  139.3530   69.4380  224.8370 C   0  0  0  0  0  0  0  0  0  0  0  0
  139.9070   69.9910  225.9720 C   0  0  0  0  0  0  0  0  0  0  0  0
  139.8630   69.3470  227.1900 C   0  0  0  0  0  0  0  0  0  0  0  0
  140.4290   69.9250  228.3170 C   0  0  0  0  0  0  0  0  0  0  0  0
  141.0570   71.1600  228.2730 C   0  0  0  0  0  0  0  0  0  0  0  0
  141.0820   71.7800  227.0300 C   0  0  0  0  0  0  0  0  0  0  0  0
  140.5200   71.2070  225.9060 C   0  0  0  0  0  0  0  0  0  0  0  0
  140.5940   71.8860  224.7390 N   0  0  0  0  0  0  0  0  0  0  0  0
  139.5720   73.9250  223.2460 H   0  0  0  0  0  0  0  0  0  0  0  0
  140.1172   73.6232  220.2513 H   0  0  0  0  0  0  0  0  0  0  0  0
  138.9725   74.8116  220.9226 H   0  0  0  0  0  0  0  0  0  0  0  0
  142.4593   77.5682  220.6094 H   0  0  0  0  0  0  0  0  0  0  0  0
  140.9113   78.1215  219.9619 H   0  0  0  0  0  0  0  0  0  0  0  0
  141.1074   79.8402  221.5493 H   0  0  0  0  0  0  0  0  0  0  0  0
  140.8356   78.1376  223.8833 H   0  0  0  0  0  0  0  0  0  0  0  0
  139.5896   79.1361  223.0962 H   0  0  0  0  0  0  0  0  0  0  0  0
  139.4841   76.5180  223.2063 H   0  0  0  0  0  0  0  0  0  0  0  0
  138.2237   78.2900  221.5253 H   0  0  0  0  0  0  0  0  0  0  0  0
  138.5900   76.5603  220.8204 H   0  0  0  0  0  0  0  0  0  0  0  0
  137.4694   74.3540  221.2453 H   0  0  0  0  0  0  0  0  0  0  0  0
  136.4967   72.3089  222.1898 H   0  0  0  0  0  0  0  0  0  0  0  0
  134.9101   74.5711  225.4827 H   0  0  0  0  0  0  0  0  0  0  0  0
  135.8951   76.5985  224.5196 H   0  0  0  0  0  0  0  0  0  0  0  0
  139.0005   69.7264  222.7217 H   0  0  0  0  0  0  0  0  0  0  0  0
  138.8563   68.4573  224.8756 H   0  0  0  0  0  0  0  0  0  0  0  0
  139.3741   68.3648  227.2691 H   0  0  0  0  0  0  0  0  0  0  0  0
  140.3779   69.3868  229.2750 H   0  0  0  0  0  0  0  0  0  0  0  0
  141.5069   71.6198  229.1653 H   0  0  0  0  0  0  0  0  0  0  0  0
  141.5670   72.7630  226.9377 H   0  0  0  0  0  0  0  0  0  0  0  0
  1  2  2  0
  2  3  1  0
  3  4  1  0
  4  5  1  0
  5  6  2  0
  5  7  1  0
  7  8  1  0
  8  9  1  0
  9 10  1  0
  9 11  1  0
 11 12  1  0
 12 13  1  0
 13 14  1  0
 14 15  1  0
 15 16  2  0
 16 17  1  0
 17 18  2  0
 18 19  1  0
 18 20  1  0
 20 21  2  0
  2 22  1  0
 22 23  2  0
 23 24  1  0
 24 25  2  0
 25 26  1  0
 26 27  2  0
 27 28  1  0
 28 29  2  0
 29 30  1  0
 30 31  2  0
 12  7  1  0
 21 15  1  0
 31 22  1  0
 30 25  1  0
  3 32  1  0
  4 33  1  0
  4 34  1  0
  8 35  1  0
  8 36  1  0
  9 37  1  6
 11 38  1  0
 11 39  1  0
 12 40  1  1
 13 41  1  0
 13 42  1  0
 16 43  1  0
 17 44  1  0
 20 45  1  0
 21 46  1  0
 23 47  1  0
 24 48  1  0
 26 49  1  0
 27 50  1  0
 28 51  1  0
 29 52  1  0
M  END
>  <smiles>  (21) 
O=C(NCC(=O)N1C[C@H](F)C[C@H]1COc1ccc(Cl)cc1)c1ccc2ccccc2n1

>  <score_type>  (21) 
oracle

>  <origin>  (21) 
autodockgpu

>  <m_score__min__energy>  (21) 
-8.1600000000000001

>  <m_primary>  (21) 
energy

>  <rmsd>  (21) 
2.83051343186434

>  <m_score__min__rmsd>  (21) 
2.83051343186434

>  <meeko>  (21) 
{"free_energy": -7.62, "intermolecular_energy": -9.71, "internal_energy": -2.04, "cluster_size": 1, "cluster_id": 5, "rank_in_cluster": 1}

>  <energy>  (21) 
-8.05

>  <cluster_rmsd>  (21) 
0.36

>  <cluster>  (21) 
2

$$$$

     RDKit          3D

 52 55  0  0  0  0  0  0  0  0999 V2000
  139.4480   70.9230  221.2440 O   0  0  0  0  0  0  0  0  0  0  0  0
  139.5560   71.5480  222.3240 C   0  0  0  0  0  0  0  0  0  0  0  0
  139.5640   72.9810  222.2600 N   0  0  0  0  0  0  0  0  0  0  0  0
  139.4500   73.6970  221.0020 C   0  0  0  0  0  0  0  0  0  0  0  0
  140.1090   75.0150  221.1800 C   0  0  0  0  0  0  0  0  0  0  0  0
  140.5910   75.2590  222.3180 O   0  0  0  0  0  0  0  0  0  0  0  0
  140.1860   75.9480  220.1130 N   0  0  0  0  0  0  0  0  0  0  0  0
  139.1560   76.7290  219.4760 C   0  0  0  0  0  0  0  0  0  0  0  0
  139.5820   76.8540  218.0390 C   0  0  2  0  0  0  0  0  0  0  0  0
  138.8310   76.0130  217.2170 F   0  0  0  0  0  0  0  0  0  0  0  0
  141.0200   76.4920  218.0360 C   0  0  0  0  0  0  0  0  0  0  0  0
  141.4230   76.3000  219.4280 C   0  0  1  0  0  0  0  0  0  0  0  0
  142.1580   77.3730  220.1500 C   0  0  0  0  0  0  0  0  0  0  0  0
  141.7970   77.8120  221.3480 O   0  0  0  0  0  0  0  0  0  0  0  0
  140.8890   78.4510  222.0780 C   0  0  0  0  0  0  0  0  0  0  0  0
  141.3050   79.6570  222.6910 C   0  0  0  0  0  0  0  0  0  0  0  0
  140.4640   80.4090  223.4660 C   0  0  0  0  0  0  0  0  0  0  0  0
  139.1700   79.9920  223.6650 C   0  0  0  0  0  0  0  0  0  0  0  0
  138.0490   80.9120  224.6450 Cl  0  0  0  0  0  0  0  0  0  0  0  0
  138.7080   78.8310  223.0950 C   0  0  0  0  0  0  0  0  0  0  0  0
  139.5830   78.1050  222.3250 C   0  0  0  0  0  0  0  0  0  0  0  0
  139.6730   70.8670  223.6110 C   0  0  0  0  0  0  0  0  0  0  0  0
  139.2530   69.5790  223.7420 C   0  0  0  0  0  0  0  0  0  0  0  0
  139.3660   68.9340  224.9700 C   0  0  0  0  0  0  0  0  0  0  0  0
  139.9070   69.6260  226.0340 C   0  0  0  0  0  0  0  0  0  0  0  0
  140.0480   69.0510  227.2790 C   0  0  0  0  0  0  0  0  0  0  0  0
  140.5960   69.7700  228.3310 C   0  0  0  0  0  0  0  0  0  0  0  0
  141.0200   71.0810  228.1850 C   0  0  0  0  0  0  0  0  0  0  0  0
  140.8620   71.6270  226.9180 C   0  0  0  0  0  0  0  0  0  0  0  0
  140.3170   70.9160  225.8670 C   0  0  0  0  0  0  0  0  0  0  0  0
  140.2030   71.5320  224.6690 N   0  0  0  0  0  0  0  0  0  0  0  0
  139.6550   73.4680  223.1780 H   0  0  0  0  0  0  0  0  0  0  0  0
  139.9495   73.1320  220.2012 H   0  0  0  0  0  0  0  0  0  0  0  0
  138.3939   73.8255  220.7226 H   0  0  0  0  0  0  0  0  0  0  0  0
  138.1852   76.2166  219.5466 H   0  0  0  0  0  0  0  0  0  0  0  0
  139.0333   77.7122  219.9537 H   0  0  0  0  0  0  0  0  0  0  0  0
  139.4205   77.8671  217.6421 H   0  0  0  0  0  0  0  0  0  0  0  0
  141.1729   75.5624  217.4682 H   0  0  0  0  0  0  0  0  0  0  0  0
  141.6197   77.2833  217.5626 H   0  0  0  0  0  0  0  0  0  0  0  0
  142.2129   75.5344  219.4240 H   0  0  0  0  0  0  0  0  0  0  0  0
  143.1920   77.0135  220.2572 H   0  0  0  0  0  0  0  0  0  0  0  0
  141.9457   78.2493  219.5199 H   0  0  0  0  0  0  0  0  0  0  0  0
  142.3386   80.0014  222.5395 H   0  0  0  0  0  0  0  0  0  0  0  0
  140.8219   81.3415  223.9268 H   0  0  0  0  0  0  0  0  0  0  0  0
  137.6724   78.4942  223.2500 H   0  0  0  0  0  0  0  0  0  0  0  0
  139.2094   77.1752  221.8713 H   0  0  0  0  0  0  0  0  0  0  0  0
  138.8249   69.0487  222.8786 H   0  0  0  0  0  0  0  0  0  0  0  0
  139.0307   67.8932  225.0899 H   0  0  0  0  0  0  0  0  0  0  0  0
  139.7229   68.0125  227.4396 H   0  0  0  0  0  0  0  0  0  0  0  0
  140.6972   69.2839  229.3125 H   0  0  0  0  0  0  0  0  0  0  0  0
  141.4538   71.6524  229.0189 H   0  0  0  0  0  0  0  0  0  0  0  0
  141.1830   72.6648  226.7450 H   0  0  0  0  0  0  0  0  0  0  0  0
  1  2  2  0
  2  3  1  0
  3  4  1  0
  4  5  1  0
  5  6  2  0
  5  7  1  0
  7  8  1  0
  8  9  1  0
  9 10  1  0
  9 11  1  0
 11 12  1  0
 12 13  1  0
 13 14  1  0
 14 15  1  0
 15 16  2  0
 16 17  1  0
 17 18  2  0
 18 19  1  0
 18 20  1  0
 20 21  2  0
  2 22  1  0
 22 23  2  0
 23 24  1  0
 24 25  2  0
 25 26  1  0
 26 27  2  0
 27 28  1  0
 28 29  2  0
 29 30  1  0
 30 31  2  0
 12  7  1  0
 21 15  1  0
 31 22  1  0
 30 25  1  0
  3 32  1  0
  4 33  1  0
  4 34  1  0
  8 35  1  0
  8 36  1  0
  9 37  1  6
 11 38  1  0
 11 39  1  0
 12 40  1  6
 13 41  1  0
 13 42  1  0
 16 43  1  0
 17 44  1  0
 20 45  1  0
 21 46  1  0
 23 47  1  0
 24 48  1  0
 26 49  1  0
 27 50  1  0
 28 51  1  0
 29 52  1  0
M  END
>  <smiles>  (22) 
O=C(NCC(=O)N1C[C@H](F)C[C@H]1COc1ccc(Cl)cc1)c1ccc2ccccc2n1

>  <score_type>  (22) 
oracle

>  <origin>  (22) 
autodockgpu

>  <m_score__min__energy>  (22) 
-8.1600000000000001

>  <m_primary>  (22) 
energy

>  <rmsd>  (22) 
1.2615035222977151

>  <m_score__min__rmsd>  (22) 
1.2615035222977151

>  <meeko>  (22) 
{"free_energy": -7.72, "intermolecular_energy": -9.81, "internal_energy": -2.36, "cluster_size": 10, "cluster_id": 2, "rank_in_cluster": 4}

>  <energy>  (22) 
-7.88

>  <cluster_rmsd>  (22) 
1.93

>  <cluster>  (22) 
2

$$$$

     RDKit          3D

 52 55  0  0  0  0  0  0  0  0999 V2000
  138.1300   70.2780  221.8590 O   0  0  0  0  0  0  0  0  0  0  0  0
  138.6730   70.8860  222.8110 C   0  0  0  0  0  0  0  0  0  0  0  0
  138.8770   72.2970  222.6620 N   0  0  0  0  0  0  0  0  0  0  0  0
  138.4770   73.0130  221.4640 C   0  0  0  0  0  0  0  0  0  0  0  0
  139.3750   74.1870  221.3270 C   0  0  0  0  0  0  0  0  0  0  0  0
  140.0660   74.4930  222.3350 O   0  0  0  0  0  0  0  0  0  0  0  0
  139.4450   74.9210  220.1140 N   0  0  0  0  0  0  0  0  0  0  0  0
  138.4220   75.6340  219.3920 C   0  0  0  0  0  0  0  0  0  0  0  0
  138.7880   75.4930  217.9400 C   0  0  2  0  0  0  0  0  0  0  0  0
  137.9650   74.5640  217.3020 F   0  0  0  0  0  0  0  0  0  0  0  0
  140.2080   75.0640  217.9460 C   0  0  0  0  0  0  0  0  0  0  0  0
  140.6640   75.0900  219.3340 C   0  0  1  0  0  0  0  0  0  0  0  0
  141.4760   76.2310  219.8350 C   0  0  0  0  0  0  0  0  0  0  0  0
  141.1030   76.9850  220.8600 O   0  0  0  0  0  0  0  0  0  0  0  0
  141.4140   77.9690  221.6960 C   0  0  0  0  0  0  0  0  0  0  0  0
  141.8250   79.1910  221.1110 C   0  0  0  0  0  0  0  0  0  0  0  0
  142.1700   80.2800  221.8640 C   0  0  0  0  0  0  0  0  0  0  0  0
  142.1220   80.2010  223.2350 C   0  0  0  0  0  0  0  0  0  0  0  0
  142.5520   81.5600  224.2500 Cl  0  0  0  0  0  0  0  0  0  0  0  0
  141.7320   79.0420  223.8600 C   0  0  0  0  0  0  0  0  0  0  0  0
  141.3930   77.9720  223.0690 C   0  0  0  0  0  0  0  0  0  0  0  0
  139.0900   70.2040  224.0340 C   0  0  0  0  0  0  0  0  0  0  0  0
  138.8820   68.8660  224.1740 C   0  0  0  0  0  0  0  0  0  0  0  0
  139.2810   68.2210  225.3410 C   0  0  0  0  0  0  0  0  0  0  0  0
  139.8820   68.9640  226.3360 C   0  0  0  0  0  0  0  0  0  0  0  0
  140.3020   68.3930  227.5180 C   0  0  0  0  0  0  0  0  0  0  0  0
  140.9040   69.1630  228.5010 C   0  0  0  0  0  0  0  0  0  0  0  0
  141.1100   70.5250  228.3460 C   0  0  0  0  0  0  0  0  0  0  0  0
  140.6740   71.0670  227.1430 C   0  0  0  0  0  0  0  0  0  0  0  0
  140.0740   70.3030  226.1610 C   0  0  0  0  0  0  0  0  0  0  0  0
  139.6830   70.9190  225.0230 N   0  0  0  0  0  0  0  0  0  0  0  0
  139.3300   72.7700  223.4750 H   0  0  0  0  0  0  0  0  0  0  0  0
  138.5761   72.3594  220.5848 H   0  0  0  0  0  0  0  0  0  0  0  0
  137.4272   73.3337  221.5358 H   0  0  0  0  0  0  0  0  0  0  0  0
  137.4341   75.1903  219.5850 H   0  0  0  0  0  0  0  0  0  0  0  0
  138.3633   76.6886  219.6991 H   0  0  0  0  0  0  0  0  0  0  0  0
  138.6527   76.4312  217.3819 H   0  0  0  0  0  0  0  0  0  0  0  0
  140.2952   74.0453  217.5402 H   0  0  0  0  0  0  0  0  0  0  0  0
  140.8195   75.7329  217.3226 H   0  0  0  0  0  0  0  0  0  0  0  0
  141.4194   74.2963  219.4314 H   0  0  0  0  0  0  0  0  0  0  0  0
  142.4549   75.8102  220.1081 H   0  0  0  0  0  0  0  0  0  0  0  0
  141.3994   76.9412  218.9985 H   0  0  0  0  0  0  0  0  0  0  0  0
  141.8684   79.2675  220.0145 H   0  0  0  0  0  0  0  0  0  0  0  0
  142.4841   81.2137  221.3746 H   0  0  0  0  0  0  0  0  0  0  0  0
  141.6925   78.9732  224.9571 H   0  0  0  0  0  0  0  0  0  0  0  0
  141.0806   77.0461  223.5740 H   0  0  0  0  0  0  0  0  0  0  0  0
  138.3996   68.2958  223.3665 H   0  0  0  0  0  0  0  0  0  0  0  0
  139.1203   67.1402  225.4675 H   0  0  0  0  0  0  0  0  0  0  0  0
  140.1580   67.3150  227.6831 H   0  0  0  0  0  0  0  0  0  0  0  0
  141.2285   68.6779  229.4334 H   0  0  0  0  0  0  0  0  0  0  0  0
  141.5878   71.1373  229.1250 H   0  0  0  0  0  0  0  0  0  0  0  0
  140.8117   72.1439  226.9663 H   0  0  0  0  0  0  0  0  0  0  0  0
  1  2  2  0
  2  3  1  0
  3  4  1  0
  4  5  1  0
  5  6  2  0
  5  7  1  0
  7  8  1  0
  8  9  1  0
  9 10  1  0
  9 11  1  0
 11 12  1  0
 12 13  1  0
 13 14  1  0
 14 15  1  0
 15 16  2  0
 16 17  1  0
 17 18  2  0
 18 19  1  0
 18 20  1  0
 20 21  2  0
  2 22  1  0
 22 23  2  0
 23 24  1  0
 24 25  2  0
 25 26  1  0
 26 27  2  0
 27 28  1  0
 28 29  2  0
 29 30  1  0
 30 31  2  0
 12  7  1  0
 21 15  1  0
 31 22  1  0
 30 25  1  0
  3 32  1  0
  4 33  1  0
  4 34  1  0
  8 35  1  0
  8 36  1  0
  9 37  1  6
 11 38  1  0
 11 39  1  0
 12 40  1  6
 13 41  1  0
 13 42  1  0
 16 43  1  0
 17 44  1  0
 20 45  1  0
 21 46  1  0
 23 47  1  0
 24 48  1  0
 26 49  1  0
 27 50  1  0
 28 51  1  0
 29 52  1  0
M  END
>  <smiles>  (23) 
O=C(NCC(=O)N1C[C@H](F)C[C@H]1COc1ccc(Cl)cc1)c1ccc2ccccc2n1

>  <score_type>  (23) 
oracle

>  <origin>  (23) 
autodockgpu

>  <m_score__min__energy>  (23) 
-8.1600000000000001

>  <m_primary>  (23) 
energy

>  <rmsd>  (23) 
1.407669172702819

>  <m_score__min__rmsd>  (23) 
1.407669172702819

>  <meeko>  (23) 
{"free_energy": -8.13, "intermolecular_energy": -10.22, "internal_energy": -2.27, "cluster_size": 10, "cluster_id": 2, "rank_in_cluster": 1}

>  <energy>  (23) 
-7.72

>  <cluster_rmsd>  (23) 
1.52

>  <cluster>  (23) 
2

$$$$

     RDKit          3D

 52 55  0  0  0  0  0  0  0  0999 V2000
  140.7370   72.6260  220.9890 O   0  0  0  0  0  0  0  0  0  0  0  0
  140.1930   72.8580  222.0940 C   0  0  0  0  0  0  0  0  0  0  0  0
  139.7060   74.1870  222.3250 N   0  0  0  0  0  0  0  0  0  0  0  0
  139.8280   75.2370  221.3290 C   0  0  0  0  0  0  0  0  0  0  0  0
  139.5830   76.5300  222.0150 C   0  0  0  0  0  0  0  0  0  0  0  0
  138.4650   76.6680  222.5810 O   0  0  0  0  0  0  0  0  0  0  0  0
  140.5650   77.5540  222.0260 N   0  0  0  0  0  0  0  0  0  0  0  0
  141.4470   77.9940  223.0770 C   0  0  0  0  0  0  0  0  0  0  0  0
  141.6220   79.4710  222.8590 C   0  0  2  0  0  0  0  0  0  0  0  0
  140.8790   80.2080  223.7830 F   0  0  0  0  0  0  0  0  0  0  0  0
  141.1650   79.7060  221.4670 C   0  0  0  0  0  0  0  0  0  0  0  0
  140.8700   78.4010  220.8800 C   0  0  1  0  0  0  0  0  0  0  0  0
  141.8500   77.7510  219.9690 C   0  0  0  0  0  0  0  0  0  0  0  0
  141.9530   76.4350  219.8440 O   0  0  0  0  0  0  0  0  0  0  0  0
  142.7530   75.3740  219.8130 C   0  0  0  0  0  0  0  0  0  0  0  0
  143.3810   75.0900  218.5770 C   0  0  0  0  0  0  0  0  0  0  0  0
  144.2280   74.0270  218.4170 C   0  0  0  0  0  0  0  0  0  0  0  0
  144.4860   73.1980  219.4820 C   0  0  0  0  0  0  0  0  0  0  0  0
  145.5600   71.8240  219.3370 Cl  0  0  0  0  0  0  0  0  0  0  0  0
  143.9060   73.4220  220.7060 C   0  0  0  0  0  0  0  0  0  0  0  0
  143.0620   74.4990  220.8260 C   0  0  0  0  0  0  0  0  0  0  0  0
  140.0510   71.8300  223.1220 C   0  0  0  0  0  0  0  0  0  0  0  0
  139.5160   70.6190  222.8080 C   0  0  0  0  0  0  0  0  0  0  0  0
  139.3820   69.6430  223.7910 C   0  0  0  0  0  0  0  0  0  0  0  0
  139.7990   69.9340  225.0730 C   0  0  0  0  0  0  0  0  0  0  0  0
  139.6960   69.0170  226.0970 C   0  0  0  0  0  0  0  0  0  0  0  0
  140.1240   69.3350  227.3770 C   0  0  0  0  0  0  0  0  0  0  0  0
  140.6670   70.5720  227.6850 C   0  0  0  0  0  0  0  0  0  0  0  0
  140.7550   71.4710  226.6290 C   0  0  0  0  0  0  0  0  0  0  0  0
  140.3300   71.1580  225.3530 C   0  0  0  0  0  0  0  0  0  0  0  0
  140.4570   72.0990  224.3900 N   0  0  0  0  0  0  0  0  0  0  0  0
  139.2590   74.3420  223.2540 H   0  0  0  0  0  0  0  0  0  0  0  0
  140.8385   75.2275  220.8945 H   0  0  0  0  0  0  0  0  0  0  0  0
  139.1040   75.0860  220.5147 H   0  0  0  0  0  0  0  0  0  0  0  0
  140.9978   77.8010  224.0624 H   0  0  0  0  0  0  0  0  0  0  0  0
  142.4086   77.4604  223.0543 H   0  0  0  0  0  0  0  0  0  0  0  0
  142.6638   79.7937  223.0019 H   0  0  0  0  0  0  0  0  0  0  0  0
  140.2600   80.3313  221.4685 H   0  0  0  0  0  0  0  0  0  0  0  0
  141.9394   80.2281  220.8859 H   0  0  0  0  0  0  0  0  0  0  0  0
  140.0541   78.5575  220.1590 H   0  0  0  0  0  0  0  0  0  0  0  0
  141.6300   78.1354  218.9621 H   0  0  0  0  0  0  0  0  0  0  0  0
  142.8045   78.0028  220.4544 H   0  0  0  0  0  0  0  0  0  0  0  0
  143.1817   75.7454  217.7163 H   0  0  0  0  0  0  0  0  0  0  0  0
  144.6995   73.8374  217.4415 H   0  0  0  0  0  0  0  0  0  0  0  0
  144.1103   72.7614  221.5615 H   0  0  0  0  0  0  0  0  0  0  0  0
  142.5982   74.6742  221.8079 H   0  0  0  0  0  0  0  0  0  0  0  0
  139.1897   70.4116  221.7782 H   0  0  0  0  0  0  0  0  0  0  0  0
  138.9522   68.6594  223.5503 H   0  0  0  0  0  0  0  0  0  0  0  0
  139.2699   68.0228  225.8967 H   0  0  0  0  0  0  0  0  0  0  0  0
  140.0295   68.5816  228.1729 H   0  0  0  0  0  0  0  0  0  0  0  0
  141.0065   70.8260  228.7000 H   0  0  0  0  0  0  0  0  0  0  0  0
  141.1788   72.4686  226.8165 H   0  0  0  0  0  0  0  0  0  0  0  0
  1  2  2  0
  2  3  1  0
  3  4  1  0
  4  5  1  0
  5  6  2  0
  5  7  1  0
  7  8  1  0
  8  9  1  0
  9 10  1  0
  9 11  1  0
 11 12  1  0
 12 13  1  0
 13 14  1  0
 14 15  1  0
 15 16  2  0
 16 17  1  0
 17 18  2  0
 18 19  1  0
 18 20  1  0
 20 21  2  0
  2 22  1  0
 22 23  2  0
 23 24  1  0
 24 25  2  0
 25 26  1  0
 26 27  2  0
 27 28  1  0
 28 29  2  0
 29 30  1  0
 30 31  2  0
 12  7  1  0
 21 15  1  0
 31 22  1  0
 30 25  1  0
  3 32  1  0
  4 33  1  0
  4 34  1  0
  8 35  1  0
  8 36  1  0
  9 37  1  6
 11 38  1  0
 11 39  1  0
 12 40  1  6
 13 41  1  0
 13 42  1  0
 16 43  1  0
 17 44  1  0
 20 45  1  0
 21 46  1  0
 23 47  1  0
 24 48  1  0
 26 49  1  0
 27 50  1  0
 28 51  1  0
 29 52  1  0
M  END
>  <smiles>  (24) 
O=C(NCC(=O)N1C[C@H](F)C[C@H]1COc1ccc(Cl)cc1)c1ccc2ccccc2n1

>  <score_type>  (24) 
oracle

>  <origin>  (24) 
autodockgpu

>  <m_score__min__energy>  (24) 
-8.1600000000000001

>  <m_primary>  (24) 
energy

>  <rmsd>  (24) 
3.1909247329432344

>  <m_score__min__rmsd>  (24) 
3.1909247329432344

>  <meeko>  (24) 
{"free_energy": -7.81, "intermolecular_energy": -9.9, "internal_energy": -2.11, "cluster_size": 19, "cluster_id": 1, "rank_in_cluster": 13}

>  <energy>  (24) 
-7.71

>  <cluster_rmsd>  (24) 
1.29

>  <cluster>  (24) 
2

$$$$

     RDKit          3D

 52 55  0  0  0  0  0  0  0  0999 V2000
  141.3570   72.3150  221.7720 O   0  0  0  0  0  0  0  0  0  0  0  0
  140.4060   72.4270  222.5800 C   0  0  0  0  0  0  0  0  0  0  0  0
  139.4820   73.5040  222.3670 N   0  0  0  0  0  0  0  0  0  0  0  0
  139.6270   74.4360  221.2630 C   0  0  0  0  0  0  0  0  0  0  0  0
  139.1500   75.7600  221.7350 C   0  0  0  0  0  0  0  0  0  0  0  0
  137.9640   75.8190  222.1560 O   0  0  0  0  0  0  0  0  0  0  0  0
  139.9970   76.8980  221.7080 N   0  0  0  0  0  0  0  0  0  0  0  0
  141.0750   77.2840  222.5840 C   0  0  0  0  0  0  0  0  0  0  0  0
  141.0420   78.7870  222.6180 C   0  0  2  0  0  0  0  0  0  0  0  0
  140.4970   79.2510  223.8160 F   0  0  0  0  0  0  0  0  0  0  0  0
  140.2180   79.1760  221.4480 C   0  0  0  0  0  0  0  0  0  0  0  0
  139.9100   77.9540  220.7080 C   0  0  1  0  0  0  0  0  0  0  0  0
  140.6780   77.6060  219.4820 C   0  0  0  0  0  0  0  0  0  0  0  0
  141.1580   76.3910  219.2540 O   0  0  0  0  0  0  0  0  0  0  0  0
  142.1380   75.5190  219.4610 C   0  0  0  0  0  0  0  0  0  0  0  0
  143.3750   76.0490  219.9020 C   0  0  0  0  0  0  0  0  0  0  0  0
  144.4600   75.2550  220.1520 C   0  0  0  0  0  0  0  0  0  0  0  0
  144.3630   73.8960  219.9740 C   0  0  0  0  0  0  0  0  0  0  0  0
  145.7180   72.8300  220.2780 Cl  0  0  0  0  0  0  0  0  0  0  0  0
  143.1900   73.3230  219.5480 C   0  0  0  0  0  0  0  0  0  0  0  0
  142.1230   74.1540  219.3080 C   0  0  0  0  0  0  0  0  0  0  0  0
  140.2250   71.5110  223.7030 C   0  0  0  0  0  0  0  0  0  0  0  0
  139.5920   70.3200  223.5170 C   0  0  0  0  0  0  0  0  0  0  0  0
  139.4210   69.4510  224.5910 C   0  0  0  0  0  0  0  0  0  0  0  0
  139.9040   69.8230  225.8280 C   0  0  0  0  0  0  0  0  0  0  0  0
  139.7710   69.0130  226.9350 C   0  0  0  0  0  0  0  0  0  0  0  0
  140.2660   69.4120  228.1670 C   0  0  0  0  0  0  0  0  0  0  0  0
  140.9090   70.6270  228.3430 C   0  0  0  0  0  0  0  0  0  0  0  0
  141.0250   71.4170  227.2060 C   0  0  0  0  0  0  0  0  0  0  0  0
  140.5330   71.0240  225.9780 C   0  0  0  0  0  0  0  0  0  0  0  0
  140.6940   71.8610  224.9280 N   0  0  0  0  0  0  0  0  0  0  0  0
  138.7030   73.5660  223.0570 H   0  0  0  0  0  0  0  0  0  0  0  0
  140.6832   74.5019  220.9627 H   0  0  0  0  0  0  0  0  0  0  0  0
  139.0443   74.1008  220.3923 H   0  0  0  0  0  0  0  0  0  0  0  0
  140.9181   76.8725  223.5920 H   0  0  0  0  0  0  0  0  0  0  0  0
  142.0451   76.9036  222.2316 H   0  0  0  0  0  0  0  0  0  0  0  0
  142.0486   79.2277  222.5669 H   0  0  0  0  0  0  0  0  0  0  0  0
  139.2877   79.6562  221.7857 H   0  0  0  0  0  0  0  0  0  0  0  0
  140.7591   79.8912  220.8110 H   0  0  0  0  0  0  0  0  0  0  0  0
  138.9238   78.1076  220.2456 H   0  0  0  0  0  0  0  0  0  0  0  0
  140.0161   77.8351  218.6338 H   0  0  0  0  0  0  0  0  0  0  0  0
  141.6017   78.1853  219.6275 H   0  0  0  0  0  0  0  0  0  0  0  0
  143.4661   77.1354  220.0483 H   0  0  0  0  0  0  0  0  0  0  0  0
  145.4053   75.7019  220.4937 H   0  0  0  0  0  0  0  0  0  0  0  0
  143.1077   72.2356  219.4039 H   0  0  0  0  0  0  0  0  0  0  0  0
  141.1851   73.6912  218.9673 H   0  0  0  0  0  0  0  0  0  0  0  0
  139.2165   70.0451  222.5203 H   0  0  0  0  0  0  0  0  0  0  0  0
  138.9104   68.4861  224.4556 H   0  0  0  0  0  0  0  0  0  0  0  0
  139.2669   68.0399  226.8401 H   0  0  0  0  0  0  0  0  0  0  0  0
  140.1446   68.7433  229.0319 H   0  0  0  0  0  0  0  0  0  0  0  0
  141.3021   70.9453  229.3198 H   0  0  0  0  0  0  0  0  0  0  0  0
  141.5277   72.3920  227.2877 H   0  0  0  0  0  0  0  0  0  0  0  0
  1  2  2  0
  2  3  1  0
  3  4  1  0
  4  5  1  0
  5  6  2  0
  5  7  1  0
  7  8  1  0
  8  9  1  0
  9 10  1  0
  9 11  1  0
 11 12  1  0
 12 13  1  0
 13 14  1  0
 14 15  1  0
 15 16  2  0
 16 17  1  0
 17 18  2  0
 18 19  1  0
 18 20  1  0
 20 21  2  0
  2 22  1  0
 22 23  2  0
 23 24  1  0
 24 25  2  0
 25 26  1  0
 26 27  2  0
 27 28  1  0
 28 29  2  0
 29 30  1  0
 30 31  2  0
 12  7  1  0
 21 15  1  0
 31 22  1  0
 30 25  1  0
  3 32  1  0
  4 33  1  0
  4 34  1  0
  8 35  1  0
  8 36  1  0
  9 37  1  6
 11 38  1  0
 11 39  1  0
 12 40  1  6
 13 41  1  0
 13 42  1  0
 16 43  1  0
 17 44  1  0
 20 45  1  0
 21 46  1  0
 23 47  1  0
 24 48  1  0
 26 49  1  0
 27 50  1  0
 28 51  1  0
 29 52  1  0
M  END
>  <smiles>  (25) 
O=C(NCC(=O)N1C[C@H](F)C[C@H]1COc1ccc(Cl)cc1)c1ccc2ccccc2n1

>  <score_type>  (25) 
oracle

>  <origin>  (25) 
autodockgpu

>  <m_score__min__energy>  (25) 
-8.1600000000000001

>  <m_primary>  (25) 
energy

>  <rmsd>  (25) 
2.851781837678981

>  <m_score__min__rmsd>  (25) 
2.851781837678981

>  <meeko>  (25) 
{"free_energy": -8.0, "intermolecular_energy": -10.09, "internal_energy": -2.16, "cluster_size": 19, "cluster_id": 1, "rank_in_cluster": 7}

>  <energy>  (25) 
-7.67

>  <cluster_rmsd>  (25) 
1.42

>  <cluster>  (25) 
2

$$$$

     RDKit          3D

 52 55  0  0  0  0  0  0  0  0999 V2000
  140.0740   70.7010  222.1430 O   0  0  0  0  0  0  0  0  0  0  0  0
  139.6350   71.8590  222.3250 C   0  0  0  0  0  0  0  0  0  0  0  0
  138.4220   71.9950  223.0790 N   0  0  0  0  0  0  0  0  0  0  0  0
  137.7170   70.8470  223.6190 C   0  0  0  0  0  0  0  0  0  0  0  0
  136.9600   70.2260  222.5030 C   0  0  0  0  0  0  0  0  0  0  0  0
  135.8920   70.7970  222.1560 O   0  0  0  0  0  0  0  0  0  0  0  0
  137.4250   69.0460  221.8660 N   0  0  0  0  0  0  0  0  0  0  0  0
  137.8650   68.8240  220.5120 C   0  0  0  0  0  0  0  0  0  0  0  0
  137.4580   67.4130  220.1870 C   0  0  2  0  0  0  0  0  0  0  0  0
  136.3380   67.3920  219.3540 F   0  0  0  0  0  0  0  0  0  0  0  0
  137.1820   66.7850  221.5020 C   0  0  0  0  0  0  0  0  0  0  0  0
  137.5450   67.7550  222.5330 C   0  0  1  0  0  0  0  0  0  0  0  0
  138.8410   67.6340  223.2530 C   0  0  0  0  0  0  0  0  0  0  0  0
  138.9790   67.9200  224.5400 O   0  0  0  0  0  0  0  0  0  0  0  0
  139.4350   68.7700  225.4540 C   0  0  0  0  0  0  0  0  0  0  0  0
  140.2830   69.8040  224.9900 C   0  0  0  0  0  0  0  0  0  0  0  0
  140.8150   70.7430  225.8310 C   0  0  0  0  0  0  0  0  0  0  0  0
  140.5270   70.6930  227.1740 C   0  0  0  0  0  0  0  0  0  0  0  0
  141.1780   71.8660  228.2970 Cl  0  0  0  0  0  0  0  0  0  0  0  0
  139.7100   69.7140  227.6830 C   0  0  0  0  0  0  0  0  0  0  0  0
  139.1960   68.7910  226.8060 C   0  0  0  0  0  0  0  0  0  0  0  0
  140.3130   73.0420  221.7990 C   0  0  0  0  0  0  0  0  0  0  0  0
  141.3120   72.9060  220.8850 C   0  0  0  0  0  0  0  0  0  0  0  0
  141.9550   74.0350  220.3870 C   0  0  0  0  0  0  0  0  0  0  0  0
  141.5600   75.2760  220.8410 C   0  0  0  0  0  0  0  0  0  0  0  0
  142.1520   76.4370  220.3930 C   0  0  0  0  0  0  0  0  0  0  0  0
  141.7350   77.6720  220.8650 C   0  0  0  0  0  0  0  0  0  0  0  0
  140.7170   77.7970  221.7970 C   0  0  0  0  0  0  0  0  0  0  0  0
  140.1430   76.6070  222.2260 C   0  0  0  0  0  0  0  0  0  0  0  0
  140.5560   75.3750  221.7580 C   0  0  0  0  0  0  0  0  0  0  0  0
  139.9370   74.2720  222.2340 N   0  0  0  0  0  0  0  0  0  0  0  0
  138.0870   72.9750  223.2120 H   0  0  0  0  0  0  0  0  0  0  0  0
  138.4360   70.1249  224.0333 H   0  0  0  0  0  0  0  0  0  0  0  0
  137.0363   71.1538  224.4268 H   0  0  0  0  0  0  0  0  0  0  0  0
  137.3766   69.5330  219.8273 H   0  0  0  0  0  0  0  0  0  0  0  0
  138.9496   68.9724  220.4044 H   0  0  0  0  0  0  0  0  0  0  0  0
  138.2394   66.8690  219.6361 H   0  0  0  0  0  0  0  0  0  0  0  0
  136.1143   66.5330  221.5818 H   0  0  0  0  0  0  0  0  0  0  0  0
  137.7616   65.8575  221.6193 H   0  0  0  0  0  0  0  0  0  0  0  0
  136.8686   67.5794  223.3825 H   0  0  0  0  0  0  0  0  0  0  0  0
  139.1545   66.5857  223.1397 H   0  0  0  0  0  0  0  0  0  0  0  0
  139.4303   68.4356  222.7839 H   0  0  0  0  0  0  0  0  0  0  0  0
  140.5223   69.8543  223.9175 H   0  0  0  0  0  0  0  0  0  0  0  0
  141.4694   71.5333  225.4346 H   0  0  0  0  0  0  0  0  0  0  0  0
  139.4752   69.6706  228.7568 H   0  0  0  0  0  0  0  0  0  0  0  0
  138.5424   68.0081  227.2182 H   0  0  0  0  0  0  0  0  0  0  0  0
  141.6107   71.9050  220.5404 H   0  0  0  0  0  0  0  0  0  0  0  0
  142.7623   73.9397  219.6459 H   0  0  0  0  0  0  0  0  0  0  0  0
  142.9641   76.3832  219.6530 H   0  0  0  0  0  0  0  0  0  0  0  0
  142.2273   78.5806  220.4882 H   0  0  0  0  0  0  0  0  0  0  0  0
  140.3848   78.7759  222.1730 H   0  0  0  0  0  0  0  0  0  0  0  0
  139.3297   76.6474  222.9656 H   0  0  0  0  0  0  0  0  0  0  0  0
  1  2  2  0
  2  3  1  0
  3  4  1  0
  4  5  1  0
  5  6  2  0
  5  7  1  0
  7  8  1  0
  8  9  1  0
  9 10  1  0
  9 11  1  0
 11 12  1  0
 12 13  1  0
 13 14  1  0
 14 15  1  0
 15 16  2  0
 16 17  1  0
 17 18  2  0
 18 19  1  0
 18 20  1  0
 20 21  2  0
  2 22  1  0
 22 23  2  0
 23 24  1  0
 24 25  2  0
 25 26  1  0
 26 27  2  0
 27 28  1  0
 28 29  2  0
 29 30  1  0
 30 31  2  0
 12  7  1  0
 21 15  1  0
 31 22  1  0
 30 25  1  0
  3 32  1  0
  4 33  1  0
  4 34  1  0
  8 35  1  0
  8 36  1  0
  9 37  1  6
 11 38  1  0
 11 39  1  0
 12 40  1  1
 13 41  1  0
 13 42  1  0
 16 43  1  0
 17 44  1  0
 20 45  1  0
 21 46  1  0
 23 47  1  0
 24 48  1  0
 26 49  1  0
 27 50  1  0
 28 51  1  0
 29 52  1  0
M  END
>  <smiles>  (26) 
O=C(NCC(=O)N1C[C@H](F)C[C@H]1COc1ccc(Cl)cc1)c1ccc2ccccc2n1

>  <score_type>  (26) 
oracle

>  <origin>  (26) 
autodockgpu

>  <m_score__min__energy>  (26) 
-8.1600000000000001

>  <m_primary>  (26) 
energy

>  <rmsd>  (26) 
7.772381520348211

>  <m_score__min__rmsd>  (26) 
7.772381520348211

>  <meeko>  (26) 
{"free_energy": -7.2, "intermolecular_energy": -9.29, "internal_energy": -2.25, "cluster_size": 1, "cluster_id": 9, "rank_in_cluster": 1}

>  <energy>  (26) 
-7.51

>  <cluster_rmsd>  (26) 
1.83

>  <cluster>  (26) 
2

$$$$

     RDKit          3D

 52 55  0  0  0  0  0  0  0  0999 V2000
  139.0980   75.0040  222.1150 O   0  0  0  0  0  0  0  0  0  0  0  0
  140.1630   75.6610  222.0520 C   0  0  0  0  0  0  0  0  0  0  0  0
  141.3390   74.9720  221.6030 N   0  0  0  0  0  0  0  0  0  0  0  0
  141.3150   73.5690  221.2310 C   0  0  0  0  0  0  0  0  0  0  0  0
  141.8360   73.4680  219.8450 C   0  0  0  0  0  0  0  0  0  0  0  0
  140.9910   73.2500  218.9360 O   0  0  0  0  0  0  0  0  0  0  0  0
  143.2210   73.6120  219.5680 N   0  0  0  0  0  0  0  0  0  0  0  0
  144.0520   72.9590  218.5890 C   0  0  0  0  0  0  0  0  0  0  0  0
  145.4070   72.8430  219.2310 C   0  0  2  0  0  0  0  0  0  0  0  0
  145.6530   71.5370  219.6560 F   0  0  0  0  0  0  0  0  0  0  0  0
  145.3740   73.7980  220.3660 C   0  0  0  0  0  0  0  0  0  0  0  0
  144.1040   74.5190  220.2900 C   0  0  1  0  0  0  0  0  0  0  0  0
  144.0560   75.8920  219.7200 C   0  0  0  0  0  0  0  0  0  0  0  0
  143.0870   76.7530  219.9980 O   0  0  0  0  0  0  0  0  0  0  0  0
  142.0340   77.4330  219.5560 C   0  0  0  0  0  0  0  0  0  0  0  0
  142.1150   78.8440  219.6320 C   0  0  0  0  0  0  0  0  0  0  0  0
  141.0990   79.6570  219.2080 C   0  0  0  0  0  0  0  0  0  0  0  0
  139.9560   79.0990  218.6890 C   0  0  0  0  0  0  0  0  0  0  0  0
  138.6230   80.0870  218.1300 Cl  0  0  0  0  0  0  0  0  0  0  0  0
  139.8190   77.7360  218.5900 C   0  0  0  0  0  0  0  0  0  0  0  0
  140.8610   76.9560  219.0260 C   0  0  0  0  0  0  0  0  0  0  0  0
  140.2290   77.0740  222.4170 C   0  0  0  0  0  0  0  0  0  0  0  0
  139.0850   77.7910  222.5830 C   0  0  0  0  0  0  0  0  0  0  0  0
  139.1530   79.1370  222.9310 C   0  0  0  0  0  0  0  0  0  0  0  0
  140.3940   79.7150  223.0980 C   0  0  0  0  0  0  0  0  0  0  0  0
  140.5380   81.0420  223.4410 C   0  0  0  0  0  0  0  0  0  0  0  0
  141.7980   81.5980  223.6040 C   0  0  0  0  0  0  0  0  0  0  0  0
  142.9570   80.8570  223.4320 C   0  0  0  0  0  0  0  0  0  0  0  0
  142.7740   79.5240  223.0860 C   0  0  0  0  0  0  0  0  0  0  0  0
  141.5210   78.9670  222.9230 C   0  0  0  0  0  0  0  0  0  0  0  0
  141.4430   77.6600  222.5870 N   0  0  0  0  0  0  0  0  0  0  0  0
  142.2060   75.5510  221.5620 H   0  0  0  0  0  0  0  0  0  0  0  0
  141.9510   72.9878  221.9149 H   0  0  0  0  0  0  0  0  0  0  0  0
  140.2922   73.1688  221.2914 H   0  0  0  0  0  0  0  0  0  0  0  0
  143.6532   71.9624  218.3485 H   0  0  0  0  0  0  0  0  0  0  0  0
  144.0928   73.5223  217.6451 H   0  0  0  0  0  0  0  0  0  0  0  0
  146.2216   73.0777  218.5301 H   0  0  0  0  0  0  0  0  0  0  0  0
  145.4410   73.2527  221.3190 H   0  0  0  0  0  0  0  0  0  0  0  0
  146.2223   74.4962  220.3126 H   0  0  0  0  0  0  0  0  0  0  0  0
  143.8160   74.7596  221.3240 H   0  0  0  0  0  0  0  0  0  0  0  0
  144.9931   76.3805  220.0253 H   0  0  0  0  0  0  0  0  0  0  0  0
  143.8687   75.6837  218.6563 H   0  0  0  0  0  0  0  0  0  0  0  0
  143.0252   79.3026  220.0458 H   0  0  0  0  0  0  0  0  0  0  0  0
  141.1970   80.7501  219.2823 H   0  0  0  0  0  0  0  0  0  0  0  0
  138.9054   77.2848  218.1755 H   0  0  0  0  0  0  0  0  0  0  0  0
  140.7473   75.8649  218.9444 H   0  0  0  0  0  0  0  0  0  0  0  0
  138.1070   77.3075  222.4423 H   0  0  0  0  0  0  0  0  0  0  0  0
  138.2355   79.7277  223.0700 H   0  0  0  0  0  0  0  0  0  0  0  0
  139.6444   81.6666  223.5870 H   0  0  0  0  0  0  0  0  0  0  0  0
  141.8804   82.6601  223.8783 H   0  0  0  0  0  0  0  0  0  0  0  0
  143.9572   81.2962  223.5612 H   0  0  0  0  0  0  0  0  0  0  0  0
  143.6597   78.8890  222.9364 H   0  0  0  0  0  0  0  0  0  0  0  0
  1  2  2  0
  2  3  1  0
  3  4  1  0
  4  5  1  0
  5  6  2  0
  5  7  1  0
  7  8  1  0
  8  9  1  0
  9 10  1  0
  9 11  1  0
 11 12  1  0
 12 13  1  0
 13 14  1  0
 14 15  1  0
 15 16  2  0
 16 17  1  0
 17 18  2  0
 18 19  1  0
 18 20  1  0
 20 21  2  0
  2 22  1  0
 22 23  2  0
 23 24  1  0
 24 25  2  0
 25 26  1  0
 26 27  2  0
 27 28  1  0
 28 29  2  0
 29 30  1  0
 30 31  2  0
 12  7  1  0
 21 15  1  0
 31 22  1  0
 30 25  1  0
  3 32  1  0
  4 33  1  0
  4 34  1  0
  8 35  1  0
  8 36  1  0
  9 37  1  6
 11 38  1  0
 11 39  1  0
 12 40  1  1
 13 41  1  0
 13 42  1  0
 16 43  1  0
 17 44  1  0
 20 45  1  0
 21 46  1  0
 23 47  1  0
 24 48  1  0
 26 49  1  0
 27 50  1  0
 28 51  1  0
 29 52  1  0
M  END
>  <smiles>  (27) 
O=C(NCC(=O)N1C[C@H](F)C[C@H]1COc1ccc(Cl)cc1)c1ccc2ccccc2n1

>  <score_type>  (27) 
oracle

>  <origin>  (27) 
autodockgpu

>  <m_score__min__energy>  (27) 
-8.1600000000000001

>  <m_primary>  (27) 
energy

>  <rmsd>  (27) 
7.744218844520776

>  <m_score__min__rmsd>  (27) 
7.744218844520776

>  <meeko>  (27) 
{"free_energy": -6.07, "intermolecular_energy": -8.16, "internal_energy": -4.02, "cluster_size": 9, "cluster_id": 8, "rank_in_cluster": 9}

>  <energy>  (27) 
-7.4

>  <cluster_rmsd>  (27) 
1.39

>  <cluster>  (27) 
2

$$$$

     RDKit          3D

 52 55  0  0  0  0  0  0  0  0999 V2000
  139.4820   74.4690  222.3790 O   0  0  0  0  0  0  0  0  0  0  0  0
  140.1560   75.3430  221.7850 C   0  0  0  0  0  0  0  0  0  0  0  0
  140.9180   74.9280  220.6440 N   0  0  0  0  0  0  0  0  0  0  0  0
  140.9220   73.5530  220.1780 C   0  0  0  0  0  0  0  0  0  0  0  0
  142.0950   72.8790  220.7900 C   0  0  0  0  0  0  0  0  0  0  0  0
  141.8550   72.0330  221.6920 O   0  0  0  0  0  0  0  0  0  0  0  0
  143.4160   73.1820  220.3710 N   0  0  0  0  0  0  0  0  0  0  0  0
  144.5410   72.3160  220.1210 C   0  0  0  0  0  0  0  0  0  0  0  0
  145.7540   73.1150  220.5110 C   0  0  2  0  0  0  0  0  0  0  0  0
  146.2660   72.6870  221.7360 F   0  0  0  0  0  0  0  0  0  0  0  0
  145.2810   74.5200  220.5690 C   0  0  0  0  0  0  0  0  0  0  0  0
  143.8950   74.5320  220.1030 C   0  0  1  0  0  0  0  0  0  0  0  0
  143.5760   74.9560  218.7130 C   0  0  0  0  0  0  0  0  0  0  0  0
  142.7660   75.9690  218.4380 O   0  0  0  0  0  0  0  0  0  0  0  0
  142.5790   77.2840  218.4410 C   0  0  0  0  0  0  0  0  0  0  0  0
  142.0670   77.8480  219.6340 C   0  0  0  0  0  0  0  0  0  0  0  0
  141.8330   79.1900  219.7650 C   0  0  0  0  0  0  0  0  0  0  0  0
  142.0980   80.0310  218.7110 C   0  0  0  0  0  0  0  0  0  0  0  0
  141.8190   81.7550  218.8190 Cl  0  0  0  0  0  0  0  0  0  0  0  0
  142.5970   79.5430  217.5280 C   0  0  0  0  0  0  0  0  0  0  0  0
  142.8180   78.1900  217.4370 C   0  0  0  0  0  0  0  0  0  0  0  0
  140.1790   76.7370  222.2210 C   0  0  0  0  0  0  0  0  0  0  0  0
  139.0140   77.4210  222.3870 C   0  0  0  0  0  0  0  0  0  0  0  0
  139.0430   78.7490  222.8030 C   0  0  0  0  0  0  0  0  0  0  0  0
  140.2650   79.3440  223.0370 C   0  0  0  0  0  0  0  0  0  0  0  0
  140.3690   80.6550  223.4500 C   0  0  0  0  0  0  0  0  0  0  0  0
  141.6110   81.2270  223.6780 C   0  0  0  0  0  0  0  0  0  0  0  0
  142.7900   80.5210  223.5060 C   0  0  0  0  0  0  0  0  0  0  0  0
  142.6470   79.2030  223.0890 C   0  0  0  0  0  0  0  0  0  0  0  0
  141.4130   78.6290  222.8600 C   0  0  0  0  0  0  0  0  0  0  0  0
  141.3740   77.3390  222.4570 N   0  0  0  0  0  0  0  0  0  0  0  0
  141.4650   75.6820  220.1750 H   0  0  0  0  0  0  0  0  0  0  0  0
  139.9949   73.0486  220.4877 H   0  0  0  0  0  0  0  0  0  0  0  0
  140.9822   73.5156  219.0803 H   0  0  0  0  0  0  0  0  0  0  0  0
  144.4680   71.4041  220.7318 H   0  0  0  0  0  0  0  0  0  0  0  0
  144.5838   71.9937  219.0701 H   0  0  0  0  0  0  0  0  0  0  0  0
  146.5800   72.9963  219.7943 H   0  0  0  0  0  0  0  0  0  0  0  0
  145.3338   74.8926  221.6026 H   0  0  0  0  0  0  0  0  0  0  0  0
  145.9088   75.1685  219.9402 H   0  0  0  0  0  0  0  0  0  0  0  0
  143.3883   75.3452  220.6434 H   0  0  0  0  0  0  0  0  0  0  0  0
  144.5392   75.2006  218.2414 H   0  0  0  0  0  0  0  0  0  0  0  0
  142.9906   74.0989  218.3487 H   0  0  0  0  0  0  0  0  0  0  0  0
  141.8499   77.1852  220.4846 H   0  0  0  0  0  0  0  0  0  0  0  0
  141.4353   79.5930  220.7081 H   0  0  0  0  0  0  0  0  0  0  0  0
  142.8123   80.2126  216.6823 H   0  0  0  0  0  0  0  0  0  0  0  0
  143.2167   77.8030  216.4877 H   0  0  0  0  0  0  0  0  0  0  0  0
  138.0514   76.9253  222.1928 H   0  0  0  0  0  0  0  0  0  0  0  0
  138.1090   79.3132  222.9424 H   0  0  0  0  0  0  0  0  0  0  0  0
  139.4580   81.2529  223.6001 H   0  0  0  0  0  0  0  0  0  0  0  0
  141.6617   82.2757  224.0062 H   0  0  0  0  0  0  0  0  0  0  0  0
  143.7757   80.9741  223.6877 H   0  0  0  0  0  0  0  0  0  0  0  0
  143.5507   78.5949  222.9358 H   0  0  0  0  0  0  0  0  0  0  0  0
  1  2  2  0
  2  3  1  0
  3  4  1  0
  4  5  1  0
  5  6  2  0
  5  7  1  0
  7  8  1  0
  8  9  1  0
  9 10  1  0
  9 11  1  0
 11 12  1  0
 12 13  1  0
 13 14  1  0
 14 15  1  0
 15 16  2  0
 16 17  1  0
 17 18  2  0
 18 19  1  0
 18 20  1  0
 20 21  2  0
  2 22  1  0
 22 23  2  0
 23 24  1  0
 24 25  2  0
 25 26  1  0
 26 27  2  0
 27 28  1  0
 28 29  2  0
 29 30  1  0
 30 31  2  0
 12  7  1  0
 21 15  1  0
 31 22  1  0
 30 25  1  0
  3 32  1  0
  4 33  1  0
  4 34  1  0
  8 35  1  0
  8 36  1  0
  9 37  1  6
 11 38  1  0
 11 39  1  0
 12 40  1  1
 13 41  1  0
 13 42  1  0
 16 43  1  0
 17 44  1  0
 20 45  1  0
 21 46  1  0
 23 47  1  0
 24 48  1  0
 26 49  1  0
 27 50  1  0
 28 51  1  0
 29 52  1  0
M  END
>  <smiles>  (28) 
O=C(NCC(=O)N1C[C@H](F)C[C@H]1COc1ccc(Cl)cc1)c1ccc2ccccc2n1

>  <score_type>  (28) 
oracle

>  <origin>  (28) 
autodockgpu

>  <m_score__min__energy>  (28) 
-8.1600000000000001

>  <m_primary>  (28) 
energy

>  <rmsd>  (28) 
7.590511396800211

>  <m_score__min__rmsd>  (28) 
7.590511396800211

>  <meeko>  (28) 
{"free_energy": -7.36, "intermolecular_energy": -9.45, "internal_energy": -3.11, "cluster_size": 9, "cluster_id": 8, "rank_in_cluster": 1}

>  <energy>  (28) 
-7.37

>  <cluster_rmsd>  (28) 
1.38

>  <cluster>  (28) 
2

$$$$

     RDKit          3D

 52 55  0  0  0  0  0  0  0  0999 V2000
  139.0650   75.0110  222.3180 O   0  0  0  0  0  0  0  0  0  0  0  0
  140.1190   75.6740  222.1810 C   0  0  0  0  0  0  0  0  0  0  0  0
  141.2700   74.9870  221.6710 N   0  0  0  0  0  0  0  0  0  0  0  0
  141.2360   73.5790  221.3220 C   0  0  0  0  0  0  0  0  0  0  0  0
  141.7740   73.4490  219.9450 C   0  0  0  0  0  0  0  0  0  0  0  0
  140.9590   73.1060  219.0470 O   0  0  0  0  0  0  0  0  0  0  0  0
  143.1430   73.7010  219.6640 N   0  0  0  0  0  0  0  0  0  0  0  0
  144.0410   73.0620  218.7360 C   0  0  0  0  0  0  0  0  0  0  0  0
  145.3940   73.1160  219.3890 C   0  0  2  0  0  0  0  0  0  0  0  0
  145.7540   71.8700  219.9050 F   0  0  0  0  0  0  0  0  0  0  0  0
  145.2610   74.1390  220.4550 C   0  0  0  0  0  0  0  0  0  0  0  0
  143.9320   74.7330  220.3240 C   0  0  1  0  0  0  0  0  0  0  0  0
  143.7630   76.0530  219.6600 C   0  0  0  0  0  0  0  0  0  0  0  0
  142.8630   76.9450  220.0510 O   0  0  0  0  0  0  0  0  0  0  0  0
  141.8750   77.7630  219.7030 C   0  0  0  0  0  0  0  0  0  0  0  0
  140.7020   77.1570  219.1920 C   0  0  0  0  0  0  0  0  0  0  0  0
  139.6150   77.8890  218.8010 C   0  0  0  0  0  0  0  0  0  0  0  0
  139.6470   79.2600  218.9010 C   0  0  0  0  0  0  0  0  0  0  0  0
  138.2860   80.2480  218.4170 Cl  0  0  0  0  0  0  0  0  0  0  0  0
  140.7560   79.9040  219.3900 C   0  0  0  0  0  0  0  0  0  0  0  0
  141.8270   79.1340  219.7720 C   0  0  0  0  0  0  0  0  0  0  0  0
  140.1960   77.0930  222.5200 C   0  0  0  0  0  0  0  0  0  0  0  0
  139.0570   77.8260  222.6520 C   0  0  0  0  0  0  0  0  0  0  0  0
  139.1360   79.1780  222.9760 C   0  0  0  0  0  0  0  0  0  0  0  0
  140.3810   79.7440  223.1540 C   0  0  0  0  0  0  0  0  0  0  0  0
  140.5340   81.0760  223.4750 C   0  0  0  0  0  0  0  0  0  0  0  0
  141.7980   81.6200  223.6490 C   0  0  0  0  0  0  0  0  0  0  0  0
  142.9500   80.8620  223.5120 C   0  0  0  0  0  0  0  0  0  0  0  0
  142.7570   79.5260  223.1880 C   0  0  0  0  0  0  0  0  0  0  0  0
  141.5010   78.9800  223.0130 C   0  0  0  0  0  0  0  0  0  0  0  0
  141.4130   77.6680  222.7000 N   0  0  0  0  0  0  0  0  0  0  0  0
  142.1290   75.5720  221.5690 H   0  0  0  0  0  0  0  0  0  0  0  0
  141.8566   73.0027  222.0239 H   0  0  0  0  0  0  0  0  0  0  0  0
  140.2081   73.1908  221.3752 H   0  0  0  0  0  0  0  0  0  0  0  0
  143.7381   72.0187  218.5637 H   0  0  0  0  0  0  0  0  0  0  0  0
  144.0395   73.5609  217.7556 H   0  0  0  0  0  0  0  0  0  0  0  0
  146.1909   73.3762  218.6769 H   0  0  0  0  0  0  0  0  0  0  0  0
  145.3672   73.6685  221.4436 H   0  0  0  0  0  0  0  0  0  0  0  0
  146.0423   74.9072  220.3572 H   0  0  0  0  0  0  0  0  0  0  0  0
  143.6138   75.0173  221.3379 H   0  0  0  0  0  0  0  0  0  0  0  0
  144.7390   76.5555  219.7301 H   0  0  0  0  0  0  0  0  0  0  0  0
  143.3693   75.7575  218.6763 H   0  0  0  0  0  0  0  0  0  0  0  0
  140.6636   76.0610  219.1066 H   0  0  0  0  0  0  0  0  0  0  0  0
  138.7201   77.3838  218.4087 H   0  0  0  0  0  0  0  0  0  0  0  0
  140.7859   81.0004  219.4732 H   0  0  0  0  0  0  0  0  0  0  0  0
  142.7137   79.6546  220.1629 H   0  0  0  0  0  0  0  0  0  0  0  0
  138.0759   77.3514  222.5030 H   0  0  0  0  0  0  0  0  0  0  0  0
  138.2237   79.7824  223.0877 H   0  0  0  0  0  0  0  0  0  0  0  0
  139.6454   81.7133  223.5943 H   0  0  0  0  0  0  0  0  0  0  0  0
  141.8888   82.6863  223.9037 H   0  0  0  0  0  0  0  0  0  0  0  0
  143.9531   81.2915  223.6511 H   0  0  0  0  0  0  0  0  0  0  0  0
  143.6376   78.8782  223.0662 H   0  0  0  0  0  0  0  0  0  0  0  0
  1  2  2  0
  2  3  1  0
  3  4  1  0
  4  5  1  0
  5  6  2  0
  5  7  1  0
  7  8  1  0
  8  9  1  0
  9 10  1  0
  9 11  1  0
 11 12  1  0
 12 13  1  0
 13 14  1  0
 14 15  1  0
 15 16  2  0
 16 17  1  0
 17 18  2  0
 18 19  1  0
 18 20  1  0
 20 21  2  0
  2 22  1  0
 22 23  2  0
 23 24  1  0
 24 25  2  0
 25 26  1  0
 26 27  2  0
 27 28  1  0
 28 29  2  0
 29 30  1  0
 30 31  2  0
 12  7  1  0
 21 15  1  0
 31 22  1  0
 30 25  1  0
  3 32  1  0
  4 33  1  0
  4 34  1  0
  8 35  1  0
  8 36  1  0
  9 37  1  6
 11 38  1  0
 11 39  1  0
 12 40  1  1
 13 41  1  0
 13 42  1  0
 16 43  1  0
 17 44  1  0
 20 45  1  0
 21 46  1  0
 23 47  1  0
 24 48  1  0
 26 49  1  0
 27 50  1  0
 28 51  1  0
 29 52  1  0
M  END
>  <smiles>  (29) 
O=C(NCC(=O)N1C[C@H](F)C[C@H]1COc1ccc(Cl)cc1)c1ccc2ccccc2n1

>  <score_type>  (29) 
oracle

>  <origin>  (29) 
autodockgpu

>  <m_score__min__energy>  (29) 
-8.1600000000000001

>  <m_primary>  (29) 
energy

>  <rmsd>  (29) 
7.707181229804445

>  <m_score__min__rmsd>  (29) 
7.707181229804445

>  <meeko>  (29) 
{"free_energy": -6.18, "intermolecular_energy": -8.27, "internal_energy": -3.95, "cluster_size": 9, "cluster_id": 8, "rank_in_cluster": 7}

>  <energy>  (29) 
-6.92

>  <cluster_rmsd>  (29) 
1.94

>  <cluster>  (29) 
2

$$$$

     RDKit          3D

 52 55  0  0  0  0  0  0  0  0999 V2000
  139.5810   74.6570  222.5510 O   0  0  0  0  0  0  0  0  0  0  0  0
  140.0700   75.5780  221.8560 C   0  0  0  0  0  0  0  0  0  0  0  0
  140.5470   75.2370  220.5470 N   0  0  0  0  0  0  0  0  0  0  0  0
  140.4740   73.8830  220.0290 C   0  0  0  0  0  0  0  0  0  0  0  0
  141.6660   73.1520  220.5270 C   0  0  0  0  0  0  0  0  0  0  0  0
  141.4580   72.2320  221.3630 O   0  0  0  0  0  0  0  0  0  0  0  0
  142.9710   73.4820  220.0780 N   0  0  0  0  0  0  0  0  0  0  0  0
  143.9930   72.6580  219.4840 C   0  0  0  0  0  0  0  0  0  0  0  0
  145.2970   73.2380  219.9550 C   0  0  2  0  0  0  0  0  0  0  0  0
  145.8680   72.4480  220.9540 F   0  0  0  0  0  0  0  0  0  0  0  0
  144.9530   74.5940  220.4500 C   0  0  0  0  0  0  0  0  0  0  0  0
  143.5410   74.8210  220.1490 C   0  0  1  0  0  0  0  0  0  0  0  0
  143.1490   75.6420  218.9730 C   0  0  0  0  0  0  0  0  0  0  0  0
  142.3470   76.6940  219.0640 O   0  0  0  0  0  0  0  0  0  0  0  0
  142.2080   78.0090  218.9330 C   0  0  0  0  0  0  0  0  0  0  0  0
  141.1860   78.6170  219.7000 C   0  0  0  0  0  0  0  0  0  0  0  0
  140.9430   79.9630  219.6550 C   0  0  0  0  0  0  0  0  0  0  0  0
  141.7080   80.7640  218.8410 C   0  0  0  0  0  0  0  0  0  0  0  0
  141.4450   82.4910  218.7420 Cl  0  0  0  0  0  0  0  0  0  0  0  0
  142.7150   80.2320  218.0730 C   0  0  0  0  0  0  0  0  0  0  0  0
  142.9270   78.8770  218.1470 C   0  0  0  0  0  0  0  0  0  0  0  0
  140.1610   76.9530  222.3400 C   0  0  0  0  0  0  0  0  0  0  0  0
  139.0300   77.6460  222.6470 C   0  0  0  0  0  0  0  0  0  0  0  0
  139.1230   78.9560  223.1070 C   0  0  0  0  0  0  0  0  0  0  0  0
  140.3730   79.5240  223.2420 C   0  0  0  0  0  0  0  0  0  0  0  0
  140.5400   80.8160  223.6910 C   0  0  0  0  0  0  0  0  0  0  0  0
  141.8080   81.3620  223.8170 C   0  0  0  0  0  0  0  0  0  0  0  0
  142.9520   80.6460  223.5020 C   0  0  0  0  0  0  0  0  0  0  0  0
  142.7460   79.3480  223.0530 C   0  0  0  0  0  0  0  0  0  0  0  0
  141.4850   78.8010  222.9250 C   0  0  0  0  0  0  0  0  0  0  0  0
  141.3830   77.5280  222.4790 N   0  0  0  0  0  0  0  0  0  0  0  0
  140.9450   76.0290  219.9980 H   0  0  0  0  0  0  0  0  0  0  0  0
  139.5562   73.3929  220.3860 H   0  0  0  0  0  0  0  0  0  0  0  0
  140.4535   73.8886  218.9292 H   0  0  0  0  0  0  0  0  0  0  0  0
  143.8912   71.6158  219.8210 H   0  0  0  0  0  0  0  0  0  0  0  0
  143.9229   72.6470  218.3863 H   0  0  0  0  0  0  0  0  0  0  0  0
  146.0491   73.2796  219.1533 H   0  0  0  0  0  0  0  0  0  0  0  0
  145.1206   74.6522  221.5356 H   0  0  0  0  0  0  0  0  0  0  0  0
  145.5818   75.3563  219.9666 H   0  0  0  0  0  0  0  0  0  0  0  0
  143.1511   75.4751  220.9428 H   0  0  0  0  0  0  0  0  0  0  0  0
  144.0876   76.0129  218.5354 H   0  0  0  0  0  0  0  0  0  0  0  0
  142.5231   74.9351  218.4087 H   0  0  0  0  0  0  0  0  0  0  0  0
  140.5661   77.9865  220.3544 H   0  0  0  0  0  0  0  0  0  0  0  0
  140.1404   80.4012  220.2665 H   0  0  0  0  0  0  0  0  0  0  0  0
  143.3305   80.8693  217.4211 H   0  0  0  0  0  0  0  0  0  0  0  0
  143.7338   78.4545  217.5301 H   0  0  0  0  0  0  0  0  0  0  0  0
  138.0445   77.1712  222.5316 H   0  0  0  0  0  0  0  0  0  0  0  0
  138.2174   79.5276  223.3581 H   0  0  0  0  0  0  0  0  0  0  0  0
  139.6585   81.4201  223.9520 H   0  0  0  0  0  0  0  0  0  0  0  0
  141.9093   82.3960  224.1784 H   0  0  0  0  0  0  0  0  0  0  0  0
  143.9587   81.0781  223.6012 H   0  0  0  0  0  0  0  0  0  0  0  0
  143.6195   78.7334  222.7898 H   0  0  0  0  0  0  0  0  0  0  0  0
  1  2  2  0
  2  3  1  0
  3  4  1  0
  4  5  1  0
  5  6  2  0
  5  7  1  0
  7  8  1  0
  8  9  1  0
  9 10  1  0
  9 11  1  0
 11 12  1  0
 12 13  1  0
 13 14  1  0
 14 15  1  0
 15 16  2  0
 16 17  1  0
 17 18  2  0
 18 19  1  0
 18 20  1  0
 20 21  2  0
  2 22  1  0
 22 23  2  0
 23 24  1  0
 24 25  2  0
 25 26  1  0
 26 27  2  0
 27 28  1  0
 28 29  2  0
 29 30  1  0
 30 31  2  0
 12  7  1  0
 21 15  1  0
 31 22  1  0
 30 25  1  0
  3 32  1  0
  4 33  1  0
  4 34  1  0
  8 35  1  0
  8 36  1  0
  9 37  1  6
 11 38  1  0
 11 39  1  0
 12 40  1  1
 13 41  1  0
 13 42  1  0
 16 43  1  0
 17 44  1  0
 20 45  1  0
 21 46  1  0
 23 47  1  0
 24 48  1  0
 26 49  1  0
 27 50  1  0
 28 51  1  0
 29 52  1  0
M  END
>  <smiles>  (30) 
O=C(NCC(=O)N1C[C@H](F)C[C@H]1COc1ccc(Cl)cc1)c1ccc2ccccc2n1

>  <score_type>  (30) 
oracle

>  <origin>  (30) 
autodockgpu

>  <m_score__min__energy>  (30) 
-8.1600000000000001

>  <m_primary>  (30) 
energy

>  <rmsd>  (30) 
7.527884920285843

>  <m_score__min__rmsd>  (30) 
7.527884920285843

>  <meeko>  (30) 
{"free_energy": -6.99, "intermolecular_energy": -9.08, "internal_energy": -3.28, "cluster_size": 9, "cluster_id": 8, "rank_in_cluster": 3}

>  <energy>  (30) 
-8.06

>  <cluster_rmsd>  (30) 
0.0

>  <cluster>  (30) 
3

$$$$

     RDKit          3D

 52 55  0  0  0  0  0  0  0  0999 V2000
  138.2240   70.6070  221.7900 O   0  0  0  0  0  0  0  0  0  0  0  0
  138.8320   71.0970  222.7690 C   0  0  0  0  0  0  0  0  0  0  0  0
  139.2060   72.4800  222.6910 N   0  0  0  0  0  0  0  0  0  0  0  0
  138.8990   73.2970  221.5310 C   0  0  0  0  0  0  0  0  0  0  0  0
  139.8050   74.4720  221.5630 C   0  0  0  0  0  0  0  0  0  0  0  0
  140.8070   74.3950  222.3240 O   0  0  0  0  0  0  0  0  0  0  0  0
  139.5460   75.6210  220.7720 N   0  0  0  0  0  0  0  0  0  0  0  0
  139.6740   77.0220  221.0850 C   0  0  0  0  0  0  0  0  0  0  0  0
  138.5830   77.7060  220.3100 C   0  0  2  0  0  0  0  0  0  0  0  0
  137.5270   78.0730  221.1450 F   0  0  0  0  0  0  0  0  0  0  0  0
  138.1620   76.7140  219.2900 C   0  0  0  0  0  0  0  0  0  0  0  0
  139.0660   75.5710  219.3960 C   0  0  1  0  0  0  0  0  0  0  0  0
  140.1900   75.4120  218.4350 C   0  0  0  0  0  0  0  0  0  0  0  0
  141.1670   74.5330  218.6080 O   0  0  0  0  0  0  0  0  0  0  0  0
  142.2600   74.1940  219.2840 C   0  0  0  0  0  0  0  0  0  0  0  0
  143.2290   75.2090  219.4710 C   0  0  0  0  0  0  0  0  0  0  0  0
  144.3950   74.9880  220.1510 C   0  0  0  0  0  0  0  0  0  0  0  0
  144.6490   73.7430  220.6750 C   0  0  0  0  0  0  0  0  0  0  0  0
  146.1230   73.4000  221.5550 Cl  0  0  0  0  0  0  0  0  0  0  0  0
  143.7480   72.7180  220.5270 C   0  0  0  0  0  0  0  0  0  0  0  0
  142.5890   72.9810  219.8380 C   0  0  0  0  0  0  0  0  0  0  0  0
  139.1600   70.3100  223.9560 C   0  0  0  0  0  0  0  0  0  0  0  0
  138.8580   68.9840  224.0000 C   0  0  0  0  0  0  0  0  0  0  0  0
  139.1720   68.2380  225.1330 C   0  0  0  0  0  0  0  0  0  0  0  0
  139.7870   68.8720  226.1920 C   0  0  0  0  0  0  0  0  0  0  0  0
  140.1270   68.1960  227.3450 C   0  0  0  0  0  0  0  0  0  0  0  0
  140.7460   68.8580  228.3950 C   0  0  0  0  0  0  0  0  0  0  0  0
  141.0490   70.2090  228.3370 C   0  0  0  0  0  0  0  0  0  0  0  0
  140.6920   70.8560  227.1610 C   0  0  0  0  0  0  0  0  0  0  0  0
  140.0760   70.2020  226.1130 C   0  0  0  0  0  0  0  0  0  0  0  0
  139.7670   70.9170  225.0080 N   0  0  0  0  0  0  0  0  0  0  0  0
  139.7100   72.8530  223.5250 H   0  0  0  0  0  0  0  0  0  0  0  0
  139.0650   72.7193  220.6098 H   0  0  0  0  0  0  0  0  0  0  0  0
  137.8469   73.6174  221.5492 H   0  0  0  0  0  0  0  0  0  0  0  0
  139.5419   77.1888  222.1642 H   0  0  0  0  0  0  0  0  0  0  0  0
  140.6685   77.4107  220.8209 H   0  0  0  0  0  0  0  0  0  0  0  0
  138.9253   78.6426  219.8457 H   0  0  0  0  0  0  0  0  0  0  0  0
  137.1269   76.3942  219.4807 H   0  0  0  0  0  0  0  0  0  0  0  0
  138.2037   77.1511  218.2814 H   0  0  0  0  0  0  0  0  0  0  0  0
  138.4822   74.6823  219.1143 H   0  0  0  0  0  0  0  0  0  0  0  0
  139.7290   75.1666  217.4669 H   0  0  0  0  0  0  0  0  0  0  0  0
  140.7251   76.3647  218.5615 H   0  0  0  0  0  0  0  0  0  0  0  0
  143.0377   76.2093  219.0553 H   0  0  0  0  0  0  0  0  0  0  0  0
  145.1247   75.8013  220.2777 H   0  0  0  0  0  0  0  0  0  0  0  0
  143.9472   71.7205  220.9456 H   0  0  0  0  0  0  0  0  0  0  0  0
  141.8695   72.1572  219.7210 H   0  0  0  0  0  0  0  0  0  0  0  0
  138.3666   68.5021  223.1419 H   0  0  0  0  0  0  0  0  0  0  0  0
  138.9344   67.1651  225.1823 H   0  0  0  0  0  0  0  0  0  0  0  0
  139.9053   67.1222  227.4327 H   0  0  0  0  0  0  0  0  0  0  0  0
  141.0046   68.2927  229.3025 H   0  0  0  0  0  0  0  0  0  0  0  0
  141.5405   70.7350  229.1687 H   0  0  0  0  0  0  0  0  0  0  0  0
  140.9083   71.9299  227.0610 H   0  0  0  0  0  0  0  0  0  0  0  0
  1  2  2  0
  2  3  1  0
  3  4  1  0
  4  5  1  0
  5  6  2  0
  5  7  1  0
  7  8  1  0
  8  9  1  0
  9 10  1  0
  9 11  1  0
 11 12  1  0
 12 13  1  0
 13 14  1  0
 14 15  1  0
 15 16  2  0
 16 17  1  0
 17 18  2  0
 18 19  1  0
 18 20  1  0
 20 21  2  0
  2 22  1  0
 22 23  2  0
 23 24  1  0
 24 25  2  0
 25 26  1  0
 26 27  2  0
 27 28  1  0
 28 29  2  0
 29 30  1  0
 30 31  2  0
 12  7  1  0
 21 15  1  0
 31 22  1  0
 30 25  1  0
  3 32  1  0
  4 33  1  0
  4 34  1  0
  8 35  1  0
  8 36  1  0
  9 37  1  6
 11 38  1  0
 11 39  1  0
 12 40  1  1
 13 41  1  0
 13 42  1  0
 16 43  1  0
 17 44  1  0
 20 45  1  0
 21 46  1  0
 23 47  1  0
 24 48  1  0
 26 49  1  0
 27 50  1  0
 28 51  1  0
 29 52  1  0
M  END
>  <smiles>  (31) 
O=C(NCC(=O)N1C[C@H](F)C[C@H]1COc1ccc(Cl)cc1)c1ccc2ccccc2n1

>  <score_type>  (31) 
oracle

>  <origin>  (31) 
autodockgpu

>  <m_score__min__energy>  (31) 
-8.1600000000000001

>  <m_primary>  (31) 
energy

>  <rmsd>  (31) 
2.1090827535072343

>  <m_score__min__rmsd>  (31) 
2.1090827535072343

>  <meeko>  (31) 
{"free_energy": -7.36, "intermolecular_energy": -9.45, "internal_energy": -2.65, "cluster_size": 19, "cluster_id": 1, "rank_in_cluster": 19}

>  <energy>  (31) 
-7.98

>  <cluster_rmsd>  (31) 
0.27

>  <cluster>  (31) 
3

$$$$

     RDKit          3D

 52 55  0  0  0  0  0  0  0  0999 V2000
  137.2590   76.6080  222.1120 O   0  0  0  0  0  0  0  0  0  0  0  0
  138.4940   76.6460  222.3180 C   0  0  0  0  0  0  0  0  0  0  0  0
  139.2300   75.4270  222.1440 N   0  0  0  0  0  0  0  0  0  0  0  0
  138.5870   74.1880  221.7440 C   0  0  0  0  0  0  0  0  0  0  0  0
  139.5660   73.0920  221.9520 C   0  0  0  0  0  0  0  0  0  0  0  0
  140.7250   73.4290  222.3150 O   0  0  0  0  0  0  0  0  0  0  0  0
  139.2040   71.7350  221.7500 N   0  0  0  0  0  0  0  0  0  0  0  0
  139.9820   70.6190  221.2750 C   0  0  0  0  0  0  0  0  0  0  0  0
  139.0140   69.7510  220.5200 C   0  0  2  0  0  0  0  0  0  0  0  0
  139.1880   69.8840  219.1420 F   0  0  0  0  0  0  0  0  0  0  0  0
  137.6720   70.2090  220.9550 C   0  0  0  0  0  0  0  0  0  0  0  0
  137.8730   71.2010  222.0100 C   0  0  1  0  0  0  0  0  0  0  0  0
  137.7100   70.8200  223.4380 C   0  0  0  0  0  0  0  0  0  0  0  0
  138.6880   70.9240  224.3270 O   0  0  0  0  0  0  0  0  0  0  0  0
  139.3450   70.3650  225.3380 C   0  0  0  0  0  0  0  0  0  0  0  0
  138.9780   69.0410  225.6760 C   0  0  0  0  0  0  0  0  0  0  0  0
  139.5810   68.3550  226.6950 C   0  0  0  0  0  0  0  0  0  0  0  0
  140.5770   68.9590  227.4240 C   0  0  0  0  0  0  0  0  0  0  0  0
  141.3840   68.1310  228.7380 Cl  0  0  0  0  0  0  0  0  0  0  0  0
  140.9770   70.2420  227.1430 C   0  0  0  0  0  0  0  0  0  0  0  0
  140.3470   70.8960  226.1120 C   0  0  0  0  0  0  0  0  0  0  0  0
  139.1800   77.8710  222.7220 C   0  0  0  0  0  0  0  0  0  0  0  0
  138.4620   78.9520  223.1320 C   0  0  0  0  0  0  0  0  0  0  0  0
  139.1200   80.1170  223.5150 C   0  0  0  0  0  0  0  0  0  0  0  0
  140.4980   80.1450  223.4680 C   0  0  0  0  0  0  0  0  0  0  0  0
  141.2150   81.2640  223.8320 C   0  0  0  0  0  0  0  0  0  0  0  0
  142.6010   81.2650  223.7750 C   0  0  0  0  0  0  0  0  0  0  0  0
  143.3210   80.1570  223.3560 C   0  0  0  0  0  0  0  0  0  0  0  0
  142.5650   79.0480  222.9970 C   0  0  0  0  0  0  0  0  0  0  0  0
  141.1860   79.0430  223.0520 C   0  0  0  0  0  0  0  0  0  0  0  0
  140.5370   77.9170  222.6820 N   0  0  0  0  0  0  0  0  0  0  0  0
  140.2560   75.4960  222.3240 H   0  0  0  0  0  0  0  0  0  0  0  0
  137.6915   74.0138  222.3586 H   0  0  0  0  0  0  0  0  0  0  0  0
  138.2752   74.2351  220.6902 H   0  0  0  0  0  0  0  0  0  0  0  0
  140.7871   70.9660  220.6106 H   0  0  0  0  0  0  0  0  0  0  0  0
  140.4625   70.0739  222.1008 H   0  0  0  0  0  0  0  0  0  0  0  0
  139.1625   68.6814  220.7294 H   0  0  0  0  0  0  0  0  0  0  0  0
  137.1363   70.6630  220.1083 H   0  0  0  0  0  0  0  0  0  0  0  0
  137.0722   69.3638  221.3238 H   0  0  0  0  0  0  0  0  0  0  0  0
  137.0382   71.9133  221.9343 H   0  0  0  0  0  0  0  0  0  0  0  0
  136.8828   71.4341  223.8235 H   0  0  0  0  0  0  0  0  0  0  0  0
  137.5936   69.7287  223.3639 H   0  0  0  0  0  0  0  0  0  0  0  0
  138.1815   68.5467  225.1005 H   0  0  0  0  0  0  0  0  0  0  0  0
  139.2702   67.3261  226.9292 H   0  0  0  0  0  0  0  0  0  0  0  0
  141.7743   70.7294  227.7233 H   0  0  0  0  0  0  0  0  0  0  0  0
  140.6701   71.9237  225.8896 H   0  0  0  0  0  0  0  0  0  0  0  0
  137.3634   78.9050  223.1606 H   0  0  0  0  0  0  0  0  0  0  0  0
  138.5522   80.9981  223.8486 H   0  0  0  0  0  0  0  0  0  0  0  0
  140.6832   82.1652  224.1711 H   0  0  0  0  0  0  0  0  0  0  0  0
  143.1458   82.1734  224.0715 H   0  0  0  0  0  0  0  0  0  0  0  0
  144.4201   80.1559  223.3107 H   0  0  0  0  0  0  0  0  0  0  0  0
  143.0848   78.1404  222.6563 H   0  0  0  0  0  0  0  0  0  0  0  0
  1  2  2  0
  2  3  1  0
  3  4  1  0
  4  5  1  0
  5  6  2  0
  5  7  1  0
  7  8  1  0
  8  9  1  0
  9 10  1  0
  9 11  1  0
 11 12  1  0
 12 13  1  0
 13 14  1  0
 14 15  1  0
 15 16  2  0
 16 17  1  0
 17 18  2  0
 18 19  1  0
 18 20  1  0
 20 21  2  0
  2 22  1  0
 22 23  2  0
 23 24  1  0
 24 25  2  0
 25 26  1  0
 26 27  2  0
 27 28  1  0
 28 29  2  0
 29 30  1  0
 30 31  2  0
 12  7  1  0
 21 15  1  0
 31 22  1  0
 30 25  1  0
  3 32  1  0
  4 33  1  0
  4 34  1  0
  8 35  1  0
  8 36  1  0
  9 37  1  1
 11 38  1  0
 11 39  1  0
 12 40  1  6
 13 41  1  0
 13 42  1  0
 16 43  1  0
 17 44  1  0
 20 45  1  0
 21 46  1  0
 23 47  1  0
 24 48  1  0
 26 49  1  0
 27 50  1  0
 28 51  1  0
 29 52  1  0
M  END
>  <smiles>  (32) 
O=C(NCC(=O)N1C[C@H](F)C[C@H]1COc1ccc(Cl)cc1)c1ccc2ccccc2n1

>  <score_type>  (32) 
oracle

>  <origin>  (32) 
autodockgpu

>  <m_score__min__energy>  (32) 
-8.1600000000000001

>  <m_primary>  (32) 
energy

>  <rmsd>  (32) 
8.240691868970577

>  <m_score__min__rmsd>  (32) 
8.240691868970577

>  <meeko>  (32) 
{"free_energy": -7.98, "intermolecular_energy": -10.07, "internal_energy": -2.32, "cluster_size": 4, "cluster_id": 3, "rank_in_cluster": 2}

>  <energy>  (32) 
-7.81

>  <cluster_rmsd>  (32) 
0.56

>  <cluster>  (32) 
3

$$$$

     RDKit          3D

 52 55  0  0  0  0  0  0  0  0999 V2000
  138.8750   70.9300  221.4790 O   0  0  0  0  0  0  0  0  0  0  0  0
  139.1780   71.5250  222.5380 C   0  0  0  0  0  0  0  0  0  0  0  0
  139.2160   72.9590  222.5030 N   0  0  0  0  0  0  0  0  0  0  0  0
  138.9180   73.7080  221.2960 C   0  0  0  0  0  0  0  0  0  0  0  0
  138.7940   75.1370  221.6800 C   0  0  0  0  0  0  0  0  0  0  0  0
  137.7250   75.4780  222.2530 O   0  0  0  0  0  0  0  0  0  0  0  0
  139.8330   76.0640  221.4090 N   0  0  0  0  0  0  0  0  0  0  0  0
  141.0150   76.3930  222.1650 C   0  0  0  0  0  0  0  0  0  0  0  0
  141.2620   77.8530  221.9030 C   0  0  2  0  0  0  0  0  0  0  0  0
  140.8860   78.6320  222.9970 F   0  0  0  0  0  0  0  0  0  0  0  0
  140.4550   78.1640  220.6970 C   0  0  0  0  0  0  0  0  0  0  0  0
  139.8820   76.9070  220.2210 C   0  0  1  0  0  0  0  0  0  0  0  0
  140.4970   76.1910  219.0720 C   0  0  0  0  0  0  0  0  0  0  0  0
  141.3640   75.1990  219.2220 O   0  0  0  0  0  0  0  0  0  0  0  0
  142.5130   74.7880  219.7490 C   0  0  0  0  0  0  0  0  0  0  0  0
  142.5550   73.4500  220.2100 C   0  0  0  0  0  0  0  0  0  0  0  0
  143.6780   72.9070  220.7700 C   0  0  0  0  0  0  0  0  0  0  0  0
  144.8120   73.6740  220.8970 C   0  0  0  0  0  0  0  0  0  0  0  0
  146.2790   73.0340  221.6050 Cl  0  0  0  0  0  0  0  0  0  0  0  0
  144.8330   74.9780  220.4680 C   0  0  0  0  0  0  0  0  0  0  0  0
  143.6850   75.4860  219.9120 C   0  0  0  0  0  0  0  0  0  0  0  0
  139.4840   70.8090  223.7740 C   0  0  0  0  0  0  0  0  0  0  0  0
  139.2790   69.4660  223.8540 C   0  0  0  0  0  0  0  0  0  0  0  0
  139.5730   68.7880  225.0330 C   0  0  0  0  0  0  0  0  0  0  0  0
  140.0680   69.5040  226.1030 C   0  0  0  0  0  0  0  0  0  0  0  0
  140.3810   68.8990  227.3010 C   0  0  0  0  0  0  0  0  0  0  0  0
  140.8780   69.6430  228.3600 C   0  0  0  0  0  0  0  0  0  0  0  0
  141.0830   71.0110  228.2670 C   0  0  0  0  0  0  0  0  0  0  0  0
  140.7570   71.5860  227.0450 C   0  0  0  0  0  0  0  0  0  0  0  0
  140.2610   70.8490  225.9880 C   0  0  0  0  0  0  0  0  0  0  0  0
  139.9740   71.4980  224.8370 N   0  0  0  0  0  0  0  0  0  0  0  0
  139.4710   73.4200  223.4040 H   0  0  0  0  0  0  0  0  0  0  0  0
  139.7314   73.5840  220.5660 H   0  0  0  0  0  0  0  0  0  0  0  0
  137.9867   73.3473  220.8348 H   0  0  0  0  0  0  0  0  0  0  0  0
  140.8471   76.2174  223.2378 H   0  0  0  0  0  0  0  0  0  0  0  0
  141.8748   75.7731  221.8710 H   0  0  0  0  0  0  0  0  0  0  0  0
  142.3277   78.0740  221.7438 H   0  0  0  0  0  0  0  0  0  0  0  0
  139.6518   78.8704  220.9535 H   0  0  0  0  0  0  0  0  0  0  0  0
  141.0802   78.6261  219.9188 H   0  0  0  0  0  0  0  0  0  0  0  0
  138.9151   77.1570  219.7600 H   0  0  0  0  0  0  0  0  0  0  0  0
  139.6607   75.7776  218.4892 H   0  0  0  0  0  0  0  0  0  0  0  0
  141.1326   76.9762  218.6369 H   0  0  0  0  0  0  0  0  0  0  0  0
  141.6539   72.8264  220.1145 H   0  0  0  0  0  0  0  0  0  0  0  0
  143.6742   71.8631  221.1167 H   0  0  0  0  0  0  0  0  0  0  0  0
  145.7386   75.5947  220.5664 H   0  0  0  0  0  0  0  0  0  0  0  0
  143.7052   76.5316  219.5711 H   0  0  0  0  0  0  0  0  0  0  0  0
  138.8814   68.9171  222.9876 H   0  0  0  0  0  0  0  0  0  0  0  0
  139.4138   67.7023  225.1102 H   0  0  0  0  0  0  0  0  0  0  0  0
  140.2350   67.8150  227.4181 H   0  0  0  0  0  0  0  0  0  0  0  0
  141.1173   69.1316  229.3041 H   0  0  0  0  0  0  0  0  0  0  0  0
  141.4780   71.6026  229.1060 H   0  0  0  0  0  0  0  0  0  0  0  0
  140.8994   72.6689  226.9147 H   0  0  0  0  0  0  0  0  0  0  0  0
  1  2  2  0
  2  3  1  0
  3  4  1  0
  4  5  1  0
  5  6  2  0
  5  7  1  0
  7  8  1  0
  8  9  1  0
  9 10  1  0
  9 11  1  0
 11 12  1  0
 12 13  1  0
 13 14  1  0
 14 15  1  0
 15 16  2  0
 16 17  1  0
 17 18  2  0
 18 19  1  0
 18 20  1  0
 20 21  2  0
  2 22  1  0
 22 23  2  0
 23 24  1  0
 24 25  2  0
 25 26  1  0
 26 27  2  0
 27 28  1  0
 28 29  2  0
 29 30  1  0
 30 31  2  0
 12  7  1  0
 21 15  1  0
 31 22  1  0
 30 25  1  0
  3 32  1  0
  4 33  1  0
  4 34  1  0
  8 35  1  0
  8 36  1  0
  9 37  1  6
 11 38  1  0
 11 39  1  0
 12 40  1  6
 13 41  1  0
 13 42  1  0
 16 43  1  0
 17 44  1  0
 20 45  1  0
 21 46  1  0
 23 47  1  0
 24 48  1  0
 26 49  1  0
 27 50  1  0
 28 51  1  0
 29 52  1  0
M  END
>  <smiles>  (33) 
O=C(NCC(=O)N1C[C@H](F)C[C@H]1COc1ccc(Cl)cc1)c1ccc2ccccc2n1

>  <score_type>  (33) 
oracle

>  <origin>  (33) 
autodockgpu

>  <m_score__min__energy>  (33) 
-8.1600000000000001

>  <m_primary>  (33) 
energy

>  <rmsd>  (33) 
2.315045474573619

>  <m_score__min__rmsd>  (33) 
2.315045474573619

>  <meeko>  (33) 
{"free_energy": -7.78, "intermolecular_energy": -9.86, "internal_energy": -2.19, "cluster_size": 19, "cluster_id": 1, "rank_in_cluster": 15}

>  <energy>  (33) 
-7.51

>  <cluster_rmsd>  (33) 
1.13

>  <cluster>  (33) 
3

$$$$

     RDKit          3D

 52 55  0  0  0  0  0  0  0  0999 V2000
  140.6920   71.5400  221.2930 O   0  0  0  0  0  0  0  0  0  0  0  0
  140.2840   72.0640  222.3550 C   0  0  0  0  0  0  0  0  0  0  0  0
  139.9000   73.4450  222.3060 N   0  0  0  0  0  0  0  0  0  0  0  0
  139.9740   74.2230  221.0820 C   0  0  0  0  0  0  0  0  0  0  0  0
  140.1580   75.6440  221.4690 C   0  0  0  0  0  0  0  0  0  0  0  0
  140.1520   75.9010  222.7020 O   0  0  0  0  0  0  0  0  0  0  0  0
  140.3300   76.6560  220.4890 N   0  0  0  0  0  0  0  0  0  0  0  0
  141.2580   77.7570  220.4330 C   0  0  0  0  0  0  0  0  0  0  0  0
  140.5220   78.8630  219.7300 C   0  0  2  0  0  0  0  0  0  0  0  0
  140.1040   79.8430  220.6330 F   0  0  0  0  0  0  0  0  0  0  0  0
  139.3750   78.1960  219.0670 C   0  0  0  0  0  0  0  0  0  0  0  0
  139.5300   76.7570  219.2750 C   0  0  1  0  0  0  0  0  0  0  0  0
  140.0760   75.8990  218.1910 C   0  0  0  0  0  0  0  0  0  0  0  0
  141.3320   75.4740  218.1720 O   0  0  0  0  0  0  0  0  0  0  0  0
  142.3770   75.0420  218.8710 C   0  0  0  0  0  0  0  0  0  0  0  0
  142.4730   73.6440  219.0680 C   0  0  0  0  0  0  0  0  0  0  0  0
  143.5010   73.0750  219.7670 C   0  0  0  0  0  0  0  0  0  0  0  0
  144.4830   73.8750  220.3020 C   0  0  0  0  0  0  0  0  0  0  0  0
  145.8230   73.2040  221.2060 Cl  0  0  0  0  0  0  0  0  0  0  0  0
  144.4450   75.2380  220.1440 C   0  0  0  0  0  0  0  0  0  0  0  0
  143.3960   75.7700  219.4360 C   0  0  0  0  0  0  0  0  0  0  0  0
  140.1940   71.3170  223.6070 C   0  0  0  0  0  0  0  0  0  0  0  0
  139.6330   70.0770  223.6240 C   0  0  0  0  0  0  0  0  0  0  0  0
  139.5500   69.3700  224.8200 C   0  0  0  0  0  0  0  0  0  0  0  0
  140.0430   69.9520  225.9690 C   0  0  0  0  0  0  0  0  0  0  0  0
  139.9930   69.3100  227.1880 C   0  0  0  0  0  0  0  0  0  0  0  0
  140.4970   69.9190  228.3280 C   0  0  0  0  0  0  0  0  0  0  0  0
  141.0650   71.1820  228.2980 C   0  0  0  0  0  0  0  0  0  0  0  0
  141.0980   71.7980  227.0530 C   0  0  0  0  0  0  0  0  0  0  0  0
  140.5980   71.1960  225.9160 C   0  0  0  0  0  0  0  0  0  0  0  0
  140.6740   71.8740  224.7490 N   0  0  0  0  0  0  0  0  0  0  0  0
  139.5650   73.8470  223.2080 H   0  0  0  0  0  0  0  0  0  0  0  0
  140.8259   73.8859  220.4733 H   0  0  0  0  0  0  0  0  0  0  0  0
  139.0573   74.0984  220.4869 H   0  0  0  0  0  0  0  0  0  0  0  0
  141.5456   78.0701  221.4475 H   0  0  0  0  0  0  0  0  0  0  0  0
  142.1855   77.4843  219.9083 H   0  0  0  0  0  0  0  0  0  0  0  0
  141.1572   79.3902  219.0029 H   0  0  0  0  0  0  0  0  0  0  0  0
  138.4301   78.5411  219.5121 H   0  0  0  0  0  0  0  0  0  0  0  0
  139.3530   78.4344  217.9934 H   0  0  0  0  0  0  0  0  0  0  0  0
  138.5156   76.3343  219.3232 H   0  0  0  0  0  0  0  0  0  0  0  0
  139.4495   74.9950  218.1748 H   0  0  0  0  0  0  0  0  0  0  0  0
  140.0635   76.5897  217.3350 H   0  0  0  0  0  0  0  0  0  0  0  0
  141.6941   72.9930  218.6443 H   0  0  0  0  0  0  0  0  0  0  0  0
  143.5423   71.9839  219.9006 H   0  0  0  0  0  0  0  0  0  0  0  0
  145.2284   75.8820  220.5701 H   0  0  0  0  0  0  0  0  0  0  0  0
  143.3693   76.8626  219.3116 H   0  0  0  0  0  0  0  0  0  0  0  0
  139.2459   69.6345  222.6943 H   0  0  0  0  0  0  0  0  0  0  0  0
  139.1000   68.3667  224.8482 H   0  0  0  0  0  0  0  0  0  0  0  0
  139.5495   68.3058  227.2573 H   0  0  0  0  0  0  0  0  0  0  0  0
  140.4439   69.3817  229.2864 H   0  0  0  0  0  0  0  0  0  0  0  0
  141.4642   71.6661  229.2015 H   0  0  0  0  0  0  0  0  0  0  0  0
  141.5388   72.8024  226.9704 H   0  0  0  0  0  0  0  0  0  0  0  0
  1  2  2  0
  2  3  1  0
  3  4  1  0
  4  5  1  0
  5  6  2  0
  5  7  1  0
  7  8  1  0
  8  9  1  0
  9 10  1  0
  9 11  1  0
 11 12  1  0
 12 13  1  0
 13 14  1  0
 14 15  1  0
 15 16  2  0
 16 17  1  0
 17 18  2  0
 18 19  1  0
 18 20  1  0
 20 21  2  0
  2 22  1  0
 22 23  2  0
 23 24  1  0
 24 25  2  0
 25 26  1  0
 26 27  2  0
 27 28  1  0
 28 29  2  0
 29 30  1  0
 30 31  2  0
 12  7  1  0
 21 15  1  0
 31 22  1  0
 30 25  1  0
  3 32  1  0
  4 33  1  0
  4 34  1  0
  8 35  1  0
  8 36  1  0
  9 37  1  6
 11 38  1  0
 11 39  1  0
 12 40  1  1
 13 41  1  0
 13 42  1  0
 16 43  1  0
 17 44  1  0
 20 45  1  0
 21 46  1  0
 23 47  1  0
 24 48  1  0
 26 49  1  0
 27 50  1  0
 28 51  1  0
 29 52  1  0
M  END
>  <smiles>  (34) 
O=C(NCC(=O)N1C[C@H](F)C[C@H]1COc1ccc(Cl)cc1)c1ccc2ccccc2n1

>  <score_type>  (34) 
oracle

>  <origin>  (34) 
autodockgpu

>  <m_score__min__energy>  (34) 
-8.1600000000000001

>  <m_primary>  (34) 
energy

>  <rmsd>  (34) 
2.2369682457592353

>  <m_score__min__rmsd>  (34) 
2.2369682457592353

>  <meeko>  (34) 
{"free_energy": -7.55, "intermolecular_energy": -9.64, "internal_energy": -2.58, "cluster_size": 19, "cluster_id": 1, "rank_in_cluster": 17}

>  <energy>  (34) 
-7.88

>  <cluster_rmsd>  (34) 
0.0

>  <cluster>  (34) 
4

$$$$

     RDKit          3D

 52 55  0  0  0  0  0  0  0  0999 V2000
  137.6010   70.0790  221.9760 O   0  0  0  0  0  0  0  0  0  0  0  0
  138.1600   70.8730  222.7670 C   0  0  0  0  0  0  0  0  0  0  0  0
  138.1600   72.2640  222.4170 N   0  0  0  0  0  0  0  0  0  0  0  0
  137.5400   72.7520  221.1990 C   0  0  0  0  0  0  0  0  0  0  0  0
  138.3860   72.3090  220.0620 C   0  0  0  0  0  0  0  0  0  0  0  0
  137.8690   71.4870  219.2580 O   0  0  0  0  0  0  0  0  0  0  0  0
  139.7100   72.7930  219.8980 N   0  0  0  0  0  0  0  0  0  0  0  0
  140.2560   73.7200  218.9400 C   0  0  0  0  0  0  0  0  0  0  0  0
  141.6650   73.2570  218.6950 C   0  0  2  0  0  0  0  0  0  0  0  0
  141.7760   72.6090  217.4640 F   0  0  0  0  0  0  0  0  0  0  0  0
  141.9680   72.3480  219.8280 C   0  0  0  0  0  0  0  0  0  0  0  0
  140.8300   72.3990  220.7430 C   0  0  1  0  0  0  0  0  0  0  0  0
  140.8970   73.2260  221.9770 C   0  0  0  0  0  0  0  0  0  0  0  0
  140.0850   74.2500  222.2030 O   0  0  0  0  0  0  0  0  0  0  0  0
  139.9510   75.5660  222.3220 C   0  0  0  0  0  0  0  0  0  0  0  0
  138.6350   76.0560  222.4990 C   0  0  0  0  0  0  0  0  0  0  0  0
  138.3660   77.3900  222.6360 C   0  0  0  0  0  0  0  0  0  0  0  0
  139.3970   78.2980  222.6030 C   0  0  0  0  0  0  0  0  0  0  0  0
  139.1140   80.0170  222.7730 Cl  0  0  0  0  0  0  0  0  0  0  0  0
  140.6950   77.8840  222.4340 C   0  0  0  0  0  0  0  0  0  0  0  0
  140.9240   76.5360  222.3000 C   0  0  0  0  0  0  0  0  0  0  0  0
  138.7950   70.4230  224.0040 C   0  0  0  0  0  0  0  0  0  0  0  0
  138.7700   69.1050  224.3440 C   0  0  0  0  0  0  0  0  0  0  0  0
  139.3760   68.6820  225.5230 C   0  0  0  0  0  0  0  0  0  0  0  0
  139.9930   69.6200  226.3240 C   0  0  0  0  0  0  0  0  0  0  0  0
  140.6130   69.2720  227.5050 C   0  0  0  0  0  0  0  0  0  0  0  0
  141.2260   70.2360  228.2920 C   0  0  0  0  0  0  0  0  0  0  0  0
  141.2450   71.5750  227.9350 C   0  0  0  0  0  0  0  0  0  0  0  0
  140.6110   71.8880  226.7390 C   0  0  0  0  0  0  0  0  0  0  0  0
  139.9990   70.9320  225.9530 C   0  0  0  0  0  0  0  0  0  0  0  0
  139.4080   71.3320  224.8050 N   0  0  0  0  0  0  0  0  0  0  0  0
  138.6340   72.8950  223.1000 H   0  0  0  0  0  0  0  0  0  0  0  0
  136.5273   72.3344  221.0992 H   0  0  0  0  0  0  0  0  0  0  0  0
  137.4575   73.8487  221.2176 H   0  0  0  0  0  0  0  0  0  0  0  0
  139.6750   73.6954  218.0063 H   0  0  0  0  0  0  0  0  0  0  0  0
  140.2240   74.7558  219.3088 H   0  0  0  0  0  0  0  0  0  0  0  0
  142.3767   74.0943  218.6466 H   0  0  0  0  0  0  0  0  0  0  0  0
  142.1088   71.3212  219.4594 H   0  0  0  0  0  0  0  0  0  0  0  0
  142.8921   72.6570  220.3385 H   0  0  0  0  0  0  0  0  0  0  0  0
  140.7607   71.4075  221.2142 H   0  0  0  0  0  0  0  0  0  0  0  0
  140.7497   72.5308  222.8166 H   0  0  0  0  0  0  0  0  0  0  0  0
  141.8641   73.7346  221.8501 H   0  0  0  0  0  0  0  0  0  0  0  0
  137.8005   75.3399  222.5273 H   0  0  0  0  0  0  0  0  0  0  0  0
  137.3301   77.7342  222.7719 H   0  0  0  0  0  0  0  0  0  0  0  0
  141.5235   78.6070  222.4068 H   0  0  0  0  0  0  0  0  0  0  0  0
  141.9653   76.2083  222.1648 H   0  0  0  0  0  0  0  0  0  0  0  0
  138.2718   68.3760  223.6880 H   0  0  0  0  0  0  0  0  0  0  0  0
  139.3632   67.6203  225.8105 H   0  0  0  0  0  0  0  0  0  0  0  0
  140.6218   68.2200  227.8264 H   0  0  0  0  0  0  0  0  0  0  0  0
  141.7125   69.9278  229.2292 H   0  0  0  0  0  0  0  0  0  0  0  0
  141.7306   72.3404  228.5582 H   0  0  0  0  0  0  0  0  0  0  0  0
  140.5961   72.9363  226.4060 H   0  0  0  0  0  0  0  0  0  0  0  0
  1  2  2  0
  2  3  1  0
  3  4  1  0
  4  5  1  0
  5  6  2  0
  5  7  1  0
  7  8  1  0
  8  9  1  0
  9 10  1  0
  9 11  1  0
 11 12  1  0
 12 13  1  0
 13 14  1  0
 14 15  1  0
 15 16  2  0
 16 17  1  0
 17 18  2  0
 18 19  1  0
 18 20  1  0
 20 21  2  0
  2 22  1  0
 22 23  2  0
 23 24  1  0
 24 25  2  0
 25 26  1  0
 26 27  2  0
 27 28  1  0
 28 29  2  0
 29 30  1  0
 30 31  2  0
 12  7  1  0
 21 15  1  0
 31 22  1  0
 30 25  1  0
  3 32  1  0
  4 33  1  0
  4 34  1  0
  8 35  1  0
  8 36  1  0
  9 37  1  6
 11 38  1  0
 11 39  1  0
 12 40  1  1
 13 41  1  0
 13 42  1  0
 16 43  1  0
 17 44  1  0
 20 45  1  0
 21 46  1  0
 23 47  1  0
 24 48  1  0
 26 49  1  0
 27 50  1  0
 28 51  1  0
 29 52  1  0
M  END
>  <smiles>  (35) 
O=C(NCC(=O)N1C[C@H](F)C[C@H]1COc1ccc(Cl)cc1)c1ccc2ccccc2n1

>  <score_type>  (35) 
oracle

>  <origin>  (35) 
autodockgpu

>  <m_score__min__energy>  (35) 
-8.1600000000000001

>  <m_primary>  (35) 
energy

>  <rmsd>  (35) 
2.7417224844963832

>  <m_score__min__rmsd>  (35) 
2.7417224844963832

>  <meeko>  (35) 
{"free_energy": -6.92, "intermolecular_energy": -9.01, "internal_energy": -2.94, "cluster_size": 10, "cluster_id": 2, "rank_in_cluster": 10}

>  <energy>  (35) 
-7.62

>  <cluster_rmsd>  (35) 
0.0

>  <cluster>  (35) 
5

$$$$

     RDKit          3D

 52 55  0  0  0  0  0  0  0  0999 V2000
  138.2940   69.0000  221.8520 O   0  0  0  0  0  0  0  0  0  0  0  0
  138.8710   69.9480  222.4340 C   0  0  0  0  0  0  0  0  0  0  0  0
  139.1540   71.1230  221.6610 N   0  0  0  0  0  0  0  0  0  0  0  0
  138.7930   71.2290  220.2590 C   0  0  0  0  0  0  0  0  0  0  0  0
  138.0600   72.5080  220.0840 C   0  0  0  0  0  0  0  0  0  0  0  0
  137.8470   72.8820  218.9000 O   0  0  0  0  0  0  0  0  0  0  0  0
  137.6250   73.2640  221.2030 N   0  0  0  0  0  0  0  0  0  0  0  0
  136.7870   72.8940  222.3160 C   0  0  0  0  0  0  0  0  0  0  0  0
  136.0350   74.1430  222.6820 C   0  0  2  0  0  0  0  0  0  0  0  0
  134.7120   74.0810  222.2400 F   0  0  0  0  0  0  0  0  0  0  0  0
  136.7850   75.2440  222.0290 C   0  0  0  0  0  0  0  0  0  0  0  0
  137.9840   74.6580  221.4310 C   0  0  1  0  0  0  0  0  0  0  0  0
  139.2970   74.7760  222.1190 C   0  0  0  0  0  0  0  0  0  0  0  0
  140.2680   73.8840  221.9740 O   0  0  0  0  0  0  0  0  0  0  0  0
  141.4480   73.5930  221.4380 C   0  0  0  0  0  0  0  0  0  0  0  0
  142.2080   74.6830  220.9510 C   0  0  0  0  0  0  0  0  0  0  0  0
  143.4390   74.5160  220.3780 C   0  0  0  0  0  0  0  0  0  0  0  0
  143.9690   73.2530  220.2640 C   0  0  0  0  0  0  0  0  0  0  0  0
  145.5390   72.9770  219.5420 Cl  0  0  0  0  0  0  0  0  0  0  0  0
  143.2790   72.1560  220.7190 C   0  0  0  0  0  0  0  0  0  0  0  0
  142.0470   72.3660  221.2870 C   0  0  0  0  0  0  0  0  0  0  0  0
  139.2510   69.8820  223.8430 C   0  0  0  0  0  0  0  0  0  0  0  0
  138.9230   68.7920  224.5880 C   0  0  0  0  0  0  0  0  0  0  0  0
  139.2870   68.7340  225.9300 C   0  0  0  0  0  0  0  0  0  0  0  0
  139.9790   69.7960  226.4750 C   0  0  0  0  0  0  0  0  0  0  0  0
  140.3720   69.8080  227.7960 C   0  0  0  0  0  0  0  0  0  0  0  0
  141.0670   70.8880  228.3180 C   0  0  0  0  0  0  0  0  0  0  0  0
  141.3950   71.9930  227.5480 C   0  0  0  0  0  0  0  0  0  0  0  0
  140.9840   71.9470  226.2220 C   0  0  0  0  0  0  0  0  0  0  0  0
  140.2910   70.8730  225.6980 C   0  0  0  0  0  0  0  0  0  0  0  0
  139.9330   70.9190  224.3960 N   0  0  0  0  0  0  0  0  0  0  0  0
  139.6340   71.8920  222.1780 H   0  0  0  0  0  0  0  0  0  0  0  0
  139.6997   71.2272  219.6362 H   0  0  0  0  0  0  0  0  0  0  0  0
  138.1665   70.3778  219.9542 H   0  0  0  0  0  0  0  0  0  0  0  0
  136.0886   72.0961  222.0234 H   0  0  0  0  0  0  0  0  0  0  0  0
  137.3761   72.5087  223.1613 H   0  0  0  0  0  0  0  0  0  0  0  0
  135.9716   74.2880  223.7706 H   0  0  0  0  0  0  0  0  0  0  0  0
  136.1653   75.7111  221.2494 H   0  0  0  0  0  0  0  0  0  0  0  0
  137.0540   76.0198  222.7609 H   0  0  0  0  0  0  0  0  0  0  0  0
  138.2134   75.2544  220.5357 H   0  0  0  0  0  0  0  0  0  0  0  0
  139.7206   75.7404  221.8018 H   0  0  0  0  0  0  0  0  0  0  0  0
  139.0110   74.6234  223.1701 H   0  0  0  0  0  0  0  0  0  0  0  0
  141.7949   75.6989  221.0361 H   0  0  0  0  0  0  0  0  0  0  0  0
  144.0012   75.3872  220.0108 H   0  0  0  0  0  0  0  0  0  0  0  0
  143.6994   71.1433  220.6312 H   0  0  0  0  0  0  0  0  0  0  0  0
  141.4975   71.4845  221.6489 H   0  0  0  0  0  0  0  0  0  0  0  0
  138.3710   67.9578  224.1304 H   0  0  0  0  0  0  0  0  0  0  0  0
  139.0281   67.8588  226.5440 H   0  0  0  0  0  0  0  0  0  0  0  0
  140.1316   68.9515  228.4430 H   0  0  0  0  0  0  0  0  0  0  0  0
  141.3675   70.8674  229.3760 H   0  0  0  0  0  0  0  0  0  0  0  0
  141.9455   72.8513  227.9606 H   0  0  0  0  0  0  0  0  0  0  0  0
  141.2190   72.7972  225.5648 H   0  0  0  0  0  0  0  0  0  0  0  0
  1  2  2  0
  2  3  1  0
  3  4  1  0
  4  5  1  0
  5  6  2  0
  5  7  1  0
  7  8  1  0
  8  9  1  0
  9 10  1  0
  9 11  1  0
 11 12  1  0
 12 13  1  0
 13 14  1  0
 14 15  1  0
 15 16  2  0
 16 17  1  0
 17 18  2  0
 18 19  1  0
 18 20  1  0
 20 21  2  0
  2 22  1  0
 22 23  2  0
 23 24  1  0
 24 25  2  0
 25 26  1  0
 26 27  2  0
 27 28  1  0
 28 29  2  0
 29 30  1  0
 30 31  2  0
 12  7  1  0
 21 15  1  0
 31 22  1  0
 30 25  1  0
  3 32  1  0
  4 33  1  0
  4 34  1  0
  8 35  1  0
  8 36  1  0
  9 37  1  1
 11 38  1  0
 11 39  1  0
 12 40  1  6
 13 41  1  0
 13 42  1  0
 16 43  1  0
 17 44  1  0
 20 45  1  0
 21 46  1  0
 23 47  1  0
 24 48  1  0
 26 49  1  0
 27 50  1  0
 28 51  1  0
 29 52  1  0
M  END
>  <smiles>  (36) 
O=C(NCC(=O)N1C[C@H](F)C[C@H]1COc1ccc(Cl)cc1)c1ccc2ccccc2n1

>  <score_type>  (36) 
oracle

>  <origin>  (36) 
autodockgpu

>  <m_score__min__energy>  (36) 
-8.1600000000000001

>  <m_primary>  (36) 
energy

>  <rmsd>  (36) 
3.577069429185092

>  <m_score__min__rmsd>  (36) 
3.577069429185092

>  <meeko>  (36) 
{"free_energy": -6.84, "intermolecular_energy": -8.93, "internal_energy": -3.21, "cluster_size": 4, "cluster_id": 6, "rank_in_cluster": 3}

>  <energy>  (36) 
-7.52

>  <cluster_rmsd>  (36) 
0.0

>  <cluster>  (36) 
6

$$$$

     RDKit          3D

 52 55  0  0  0  0  0  0  0  0999 V2000
  139.7500   71.1060  221.3080 O   0  0  0  0  0  0  0  0  0  0  0  0
  139.6900   71.6590  222.4310 C   0  0  0  0  0  0  0  0  0  0  0  0
  139.4820   73.0780  222.4590 N   0  0  0  0  0  0  0  0  0  0  0  0
  139.3430   73.8610  221.2440 C   0  0  0  0  0  0  0  0  0  0  0  0
  139.4290   75.2930  221.6260 C   0  0  0  0  0  0  0  0  0  0  0  0
  138.7680   75.6500  222.6370 O   0  0  0  0  0  0  0  0  0  0  0  0
  140.2210   76.2050  220.8820 N   0  0  0  0  0  0  0  0  0  0  0  0
  141.4550   76.8670  221.2200 C   0  0  0  0  0  0  0  0  0  0  0  0
  141.3930   78.2030  220.5330 C   0  0  2  0  0  0  0  0  0  0  0  0
  141.1160   79.2240  221.4440 F   0  0  0  0  0  0  0  0  0  0  0  0
  140.3210   78.0600  219.5190 C   0  0  0  0  0  0  0  0  0  0  0  0
  139.8870   76.6640  219.5390 C   0  0  1  0  0  0  0  0  0  0  0  0
  140.3720   75.7130  218.5040 C   0  0  0  0  0  0  0  0  0  0  0  0
  141.2220   74.7310  218.7700 O   0  0  0  0  0  0  0  0  0  0  0  0
  142.3080   74.3400  219.4290 C   0  0  0  0  0  0  0  0  0  0  0  0
  143.3930   75.2480  219.4590 C   0  0  0  0  0  0  0  0  0  0  0  0
  144.5640   74.9640  220.1060 C   0  0  0  0  0  0  0  0  0  0  0  0
  144.7080   73.7600  220.7520 C   0  0  0  0  0  0  0  0  0  0  0  0
  146.1830   73.3410  221.5960 Cl  0  0  0  0  0  0  0  0  0  0  0  0
  143.6910   72.8380  220.7590 C   0  0  0  0  0  0  0  0  0  0  0  0
  142.5310   73.1610  220.0980 C   0  0  0  0  0  0  0  0  0  0  0  0
  139.8250   70.9080  223.6770 C   0  0  0  0  0  0  0  0  0  0  0  0
  139.4810   69.5920  223.7210 C   0  0  0  0  0  0  0  0  0  0  0  0
  139.6110   68.8810  224.9100 C   0  0  0  0  0  0  0  0  0  0  0  0
  140.0900   69.5370  226.0250 C   0  0  0  0  0  0  0  0  0  0  0  0
  140.2440   68.8960  227.2360 C   0  0  0  0  0  0  0  0  0  0  0  0
  140.7290   69.5800  228.3410 C   0  0  0  0  0  0  0  0  0  0  0  0
  141.0760   70.9200  228.2820 C   0  0  0  0  0  0  0  0  0  0  0  0
  140.9070   71.5330  227.0470 C   0  0  0  0  0  0  0  0  0  0  0  0
  140.4250   70.8560  225.9450 C   0  0  0  0  0  0  0  0  0  0  0  0
  140.2950   71.5370  224.7840 N   0  0  0  0  0  0  0  0  0  0  0  0
  139.4370   73.5030  223.4110 H   0  0  0  0  0  0  0  0  0  0  0  0
  140.1509   73.6104  220.5408 H   0  0  0  0  0  0  0  0  0  0  0  0
  138.3825   73.6474  220.7522 H   0  0  0  0  0  0  0  0  0  0  0  0
  141.5357   76.9978  222.3092 H   0  0  0  0  0  0  0  0  0  0  0  0
  142.3321   76.2841  220.9023 H   0  0  0  0  0  0  0  0  0  0  0  0
  142.3516   78.4793  220.0697 H   0  0  0  0  0  0  0  0  0  0  0  0
  139.4770   78.7202  219.7678 H   0  0  0  0  0  0  0  0  0  0  0  0
  140.6894   78.3390  218.5208 H   0  0  0  0  0  0  0  0  0  0  0  0
  138.8193   76.6635  219.2742 H   0  0  0  0  0  0  0  0  0  0  0  0
  139.4739   75.2328  218.0884 H   0  0  0  0  0  0  0  0  0  0  0  0
  140.9850   76.3702  217.8697 H   0  0  0  0  0  0  0  0  0  0  0  0
  143.2911   76.2149  218.9445 H   0  0  0  0  0  0  0  0  0  0  0  0
  145.3857   75.6953  220.1092 H   0  0  0  0  0  0  0  0  0  0  0  0
  143.8012   71.8735  221.2763 H   0  0  0  0  0  0  0  0  0  0  0  0
  141.7188   72.4192  220.1049 H   0  0  0  0  0  0  0  0  0  0  0  0
  139.1009   69.0913  222.8183 H   0  0  0  0  0  0  0  0  0  0  0  0
  139.3372   67.8168  224.9599 H   0  0  0  0  0  0  0  0  0  0  0  0
  139.9797   67.8321  227.3267 H   0  0  0  0  0  0  0  0  0  0  0  0
  140.8416   69.0418  229.2937 H   0  0  0  0  0  0  0  0  0  0  0  0
  141.4608   71.4638  229.1573 H   0  0  0  0  0  0  0  0  0  0  0  0
  141.1668   72.5969  226.9435 H   0  0  0  0  0  0  0  0  0  0  0  0
  1  2  2  0
  2  3  1  0
  3  4  1  0
  4  5  1  0
  5  6  2  0
  5  7  1  0
  7  8  1  0
  8  9  1  0
  9 10  1  0
  9 11  1  0
 11 12  1  0
 12 13  1  0
 13 14  1  0
 14 15  1  0
 15 16  2  0
 16 17  1  0
 17 18  2  0
 18 19  1  0
 18 20  1  0
 20 21  2  0
  2 22  1  0
 22 23  2  0
 23 24  1  0
 24 25  2  0
 25 26  1  0
 26 27  2  0
 27 28  1  0
 28 29  2  0
 29 30  1  0
 30 31  2  0
 12  7  1  0
 21 15  1  0
 31 22  1  0
 30 25  1  0
  3 32  1  0
  4 33  1  0
  4 34  1  0
  8 35  1  0
  8 36  1  0
  9 37  1  6
 11 38  1  0
 11 39  1  0
 12 40  1  1
 13 41  1  0
 13 42  1  0
 16 43  1  0
 17 44  1  0
 20 45  1  0
 21 46  1  0
 23 47  1  0
 24 48  1  0
 26 49  1  0
 27 50  1  0
 28 51  1  0
 29 52  1  0
M  END
>  <smiles>  (37) 
O=C(NCC(=O)N1C[C@H](F)C[C@H]1COc1ccc(Cl)cc1)c1ccc2ccccc2n1

>  <score_type>  (37) 
oracle

>  <origin>  (37) 
autodockgpu

>  <m_score__min__energy>  (37) 
-8.1600000000000001

>  <m_primary>  (37) 
energy

>  <rmsd>  (37) 
2.085633481199241

>  <m_score__min__rmsd>  (37) 
2.085633481199241

>  <meeko>  (37) 
{"free_energy": -7.66, "intermolecular_energy": -9.74, "internal_energy": -2.48, "cluster_size": 19, "cluster_id": 1, "rank_in_cluster": 16}

>  <energy>  (37) 
-6.88

>  <cluster_rmsd>  (37) 
1.11

>  <cluster>  (37) 
6

$$$$

     RDKit          3D

 52 55  0  0  0  0  0  0  0  0999 V2000
  141.2170   71.7790  221.4050 O   0  0  0  0  0  0  0  0  0  0  0  0
  140.5560   72.2300  222.3690 C   0  0  0  0  0  0  0  0  0  0  0  0
  140.1000   73.5870  222.2810 N   0  0  0  0  0  0  0  0  0  0  0  0
  140.3810   74.4210  221.1270 C   0  0  0  0  0  0  0  0  0  0  0  0
  140.4330   75.8280  221.5980 C   0  0  0  0  0  0  0  0  0  0  0  0
  139.8560   76.0820  222.6890 O   0  0  0  0  0  0  0  0  0  0  0  0
  141.1020   76.8300  220.8480 N   0  0  0  0  0  0  0  0  0  0  0  0
  141.2690   78.2380  221.1050 C   0  0  0  0  0  0  0  0  0  0  0  0
  141.2860   78.8910  219.7510 C   0  0  2  0  0  0  0  0  0  0  0  0
  140.0770   79.5360  219.4880 F   0  0  0  0  0  0  0  0  0  0  0  0
  141.5410   77.7830  218.7970 C   0  0  0  0  0  0  0  0  0  0  0  0
  141.7900   76.5790  219.5870 C   0  0  1  0  0  0  0  0  0  0  0  0
  143.1810   76.1050  219.8120 C   0  0  0  0  0  0  0  0  0  0  0  0
  143.4660   74.8750  220.2180 O   0  0  0  0  0  0  0  0  0  0  0  0
  144.0850   73.7270  219.9610 C   0  0  0  0  0  0  0  0  0  0  0  0
  143.2990   72.6960  219.3950 C   0  0  0  0  0  0  0  0  0  0  0  0
  143.8190   71.4700  219.0830 C   0  0  0  0  0  0  0  0  0  0  0  0
  145.1480   71.2160  219.3220 C   0  0  0  0  0  0  0  0  0  0  0  0
  145.8700   69.6670  218.9430 Cl  0  0  0  0  0  0  0  0  0  0  0  0
  145.9620   72.1770  219.8690 C   0  0  0  0  0  0  0  0  0  0  0  0
  145.4020   73.3940  220.1680 C   0  0  0  0  0  0  0  0  0  0  0  0
  140.2510   71.4240  223.5490 C   0  0  0  0  0  0  0  0  0  0  0  0
  139.5910   70.2410  223.4160 C   0  0  0  0  0  0  0  0  0  0  0  0
  139.3030   69.4770  224.5430 C   0  0  0  0  0  0  0  0  0  0  0  0
  139.6980   69.9450  225.7790 C   0  0  0  0  0  0  0  0  0  0  0  0
  139.4460   69.2420  226.9370 C   0  0  0  0  0  0  0  0  0  0  0  0
  139.8550   69.7350  228.1670 C   0  0  0  0  0  0  0  0  0  0  0  0
  140.5260   70.9410  228.2890 C   0  0  0  0  0  0  0  0  0  0  0  0
  140.7630   71.6220  227.1020 C   0  0  0  0  0  0  0  0  0  0  0  0
  140.3570   71.1350  225.8750 C   0  0  0  0  0  0  0  0  0  0  0  0
  140.6330   71.8690  224.7740 N   0  0  0  0  0  0  0  0  0  0  0  0
  139.5520   73.9270  223.1020 H   0  0  0  0  0  0  0  0  0  0  0  0
  141.3470   74.1369  220.6841 H   0  0  0  0  0  0  0  0  0  0  0  0
  139.6029   74.2969  220.3595 H   0  0  0  0  0  0  0  0  0  0  0  0
  140.4319   78.6214  221.7068 H   0  0  0  0  0  0  0  0  0  0  0  0
  142.1895   78.4445  221.6706 H   0  0  0  0  0  0  0  0  0  0  0  0
  142.0550   79.6738  219.6754 H   0  0  0  0  0  0  0  0  0  0  0  0
  140.6641   77.6340  218.1498 H   0  0  0  0  0  0  0  0  0  0  0  0
  142.4036   78.0128  218.1543 H   0  0  0  0  0  0  0  0  0  0  0  0
  141.4223   75.7306  218.9912 H   0  0  0  0  0  0  0  0  0  0  0  0
  143.7056   76.2377  218.8543 H   0  0  0  0  0  0  0  0  0  0  0  0
  143.4791   76.7014  220.6869 H   0  0  0  0  0  0  0  0  0  0  0  0
  142.2335   72.8867  219.1992 H   0  0  0  0  0  0  0  0  0  0  0  0
  143.1772   70.6922  218.6435 H   0  0  0  0  0  0  0  0  0  0  0  0
  147.0267   71.9783  220.0611 H   0  0  0  0  0  0  0  0  0  0  0  0
  146.0572   74.1610  220.6066 H   0  0  0  0  0  0  0  0  0  0  0  0
  139.2858   69.8894  222.4194 H   0  0  0  0  0  0  0  0  0  0  0  0
  138.7708   68.5188  224.4500 H   0  0  0  0  0  0  0  0  0  0  0  0
  138.9150   68.2800  226.8853 H   0  0  0  0  0  0  0  0  0  0  0  0
  139.6400   69.1505  229.0737 H   0  0  0  0  0  0  0  0  0  0  0  0
  140.8504   71.3341  229.2638 H   0  0  0  0  0  0  0  0  0  0  0  0
  141.2937   72.5848  227.1405 H   0  0  0  0  0  0  0  0  0  0  0  0
  1  2  2  0
  2  3  1  0
  3  4  1  0
  4  5  1  0
  5  6  2  0
  5  7  1  0
  7  8  1  0
  8  9  1  0
  9 10  1  0
  9 11  1  0
 11 12  1  0
 12 13  1  0
 13 14  1  0
 14 15  1  0
 15 16  2  0
 16 17  1  0
 17 18  2  0
 18 19  1  0
 18 20  1  0
 20 21  2  0
  2 22  1  0
 22 23  2  0
 23 24  1  0
 24 25  2  0
 25 26  1  0
 26 27  2  0
 27 28  1  0
 28 29  2  0
 29 30  1  0
 30 31  2  0
 12  7  1  0
 21 15  1  0
 31 22  1  0
 30 25  1  0
  3 32  1  0
  4 33  1  0
  4 34  1  0
  8 35  1  0
  8 36  1  0
  9 37  1  1
 11 38  1  0
 11 39  1  0
 12 40  1  6
 13 41  1  0
 13 42  1  0
 16 43  1  0
 17 44  1  0
 20 45  1  0
 21 46  1  0
 23 47  1  0
 24 48  1  0
 26 49  1  0
 27 50  1  0
 28 51  1  0
 29 52  1  0
M  END
>  <smiles>  (38) 
O=C(NCC(=O)N1C[C@H](F)C[C@H]1COc1ccc(Cl)cc1)c1ccc2ccccc2n1

>  <score_type>  (38) 
oracle

>  <origin>  (38) 
autodockgpu

>  <m_score__min__energy>  (38) 
-8.1600000000000001

>  <m_primary>  (38) 
energy

>  <rmsd>  (38) 
2.3896386909034666

>  <m_score__min__rmsd>  (38) 
2.3896386909034666

>  <meeko>  (38) 
{"free_energy": -8.13, "intermolecular_energy": -10.22, "internal_energy": -2.24, "cluster_size": 19, "cluster_id": 1, "rank_in_cluster": 3}

>  <energy>  (38) 
-6.84

>  <cluster_rmsd>  (38) 
1.21

>  <cluster>  (38) 
6

$$$$

     RDKit          3D

 52 55  0  0  0  0  0  0  0  0999 V2000
  138.1750   69.0610  221.8130 O   0  0  0  0  0  0  0  0  0  0  0  0
  138.7530   69.9920  222.4190 C   0  0  0  0  0  0  0  0  0  0  0  0
  138.9950   71.2040  221.6920 N   0  0  0  0  0  0  0  0  0  0  0  0
  138.5900   71.3650  220.3060 C   0  0  0  0  0  0  0  0  0  0  0  0
  137.7450   72.5830  220.2290 C   0  0  0  0  0  0  0  0  0  0  0  0
  137.3480   72.9260  219.0830 O   0  0  0  0  0  0  0  0  0  0  0  0
  137.4070   73.3180  221.3950 N   0  0  0  0  0  0  0  0  0  0  0  0
  136.7330   72.9050  222.6000 C   0  0  0  0  0  0  0  0  0  0  0  0
  135.9600   74.1100  223.0580 C   0  0  2  0  0  0  0  0  0  0  0  0
  134.6000   73.9710  222.7810 F   0  0  0  0  0  0  0  0  0  0  0  0
  136.5610   75.2500  222.3220 C   0  0  0  0  0  0  0  0  0  0  0  0
  137.7100   74.7310  221.5820 C   0  0  1  0  0  0  0  0  0  0  0  0
  139.0880   74.9270  222.1050 C   0  0  0  0  0  0  0  0  0  0  0  0
  140.0420   74.0140  221.9810 O   0  0  0  0  0  0  0  0  0  0  0  0
  141.2350   73.7030  221.4850 C   0  0  0  0  0  0  0  0  0  0  0  0
  142.0160   74.7760  220.9950 C   0  0  0  0  0  0  0  0  0  0  0  0
  143.2620   74.5880  220.4620 C   0  0  0  0  0  0  0  0  0  0  0  0
  143.7860   73.3190  220.3940 C   0  0  0  0  0  0  0  0  0  0  0  0
  145.3740   73.0160  219.7230 Cl  0  0  0  0  0  0  0  0  0  0  0  0
  143.0760   72.2380  220.8530 C   0  0  0  0  0  0  0  0  0  0  0  0
  141.8290   72.4690  221.3810 C   0  0  0  0  0  0  0  0  0  0  0  0
  139.1760   69.8710  223.8120 C   0  0  0  0  0  0  0  0  0  0  0  0
  138.9320   68.7240  224.5030 C   0  0  0  0  0  0  0  0  0  0  0  0
  139.3370   68.6130  225.8300 C   0  0  0  0  0  0  0  0  0  0  0  0
  139.9810   69.6820  226.4160 C   0  0  0  0  0  0  0  0  0  0  0  0
  140.4090   69.6440  227.7260 C   0  0  0  0  0  0  0  0  0  0  0  0
  141.0550   70.7330  228.2910 C   0  0  0  0  0  0  0  0  0  0  0  0
  141.2980   71.8960  227.5770 C   0  0  0  0  0  0  0  0  0  0  0  0
  140.8530   71.8990  226.2620 C   0  0  0  0  0  0  0  0  0  0  0  0
  140.2090   70.8170  225.6950 C   0  0  0  0  0  0  0  0  0  0  0  0
  139.8130   70.9130  224.4060 N   0  0  0  0  0  0  0  0  0  0  0  0
  139.4770   71.9580  222.2280 H   0  0  0  0  0  0  0  0  0  0  0  0
  139.4771   71.4818  219.6662 H   0  0  0  0  0  0  0  0  0  0  0  0
  138.0320   70.4827  219.9594 H   0  0  0  0  0  0  0  0  0  0  0  0
  136.0516   72.0669  222.3919 H   0  0  0  0  0  0  0  0  0  0  0  0
  137.4415   72.5578  223.3665 H   0  0  0  0  0  0  0  0  0  0  0  0
  136.0208   74.2551  224.1467 H   0  0  0  0  0  0  0  0  0  0  0  0
  135.8257   75.6776  221.6245 H   0  0  0  0  0  0  0  0  0  0  0  0
  136.8715   76.0432  223.0180 H   0  0  0  0  0  0  0  0  0  0  0  0
  137.7942   75.3363  220.6674 H   0  0  0  0  0  0  0  0  0  0  0  0
  139.4716   75.8351  221.6170 H   0  0  0  0  0  0  0  0  0  0  0  0
  138.9153   74.9204  223.1913 H   0  0  0  0  0  0  0  0  0  0  0  0
  141.6076   75.7962  221.0442 H   0  0  0  0  0  0  0  0  0  0  0  0
  143.8406   75.4466  220.0904 H   0  0  0  0  0  0  0  0  0  0  0  0
  143.4914   71.2208  220.7999 H   0  0  0  0  0  0  0  0  0  0  0  0
  141.2634   71.5999  221.7483 H   0  0  0  0  0  0  0  0  0  0  0  0
  138.4152   67.8855  224.0132 H   0  0  0  0  0  0  0  0  0  0  0  0
  139.1472   67.6913  226.3995 H   0  0  0  0  0  0  0  0  0  0  0  0
  140.2362   68.7405  228.3291 H   0  0  0  0  0  0  0  0  0  0  0  0
  141.3850   70.6721  229.3386 H   0  0  0  0  0  0  0  0  0  0  0  0
  141.8105   72.7608  228.0236 H   0  0  0  0  0  0  0  0  0  0  0  0
  141.0196   72.7969  225.6487 H   0  0  0  0  0  0  0  0  0  0  0  0
  1  2  2  0
  2  3  1  0
  3  4  1  0
  4  5  1  0
  5  6  2  0
  5  7  1  0
  7  8  1  0
  8  9  1  0
  9 10  1  0
  9 11  1  0
 11 12  1  0
 12 13  1  0
 13 14  1  0
 14 15  1  0
 15 16  2  0
 16 17  1  0
 17 18  2  0
 18 19  1  0
 18 20  1  0
 20 21  2  0
  2 22  1  0
 22 23  2  0
 23 24  1  0
 24 25  2  0
 25 26  1  0
 26 27  2  0
 27 28  1  0
 28 29  2  0
 29 30  1  0
 30 31  2  0
 12  7  1  0
 21 15  1  0
 31 22  1  0
 30 25  1  0
  3 32  1  0
  4 33  1  0
  4 34  1  0
  8 35  1  0
  8 36  1  0
  9 37  1  1
 11 38  1  0
 11 39  1  0
 12 40  1  6
 13 41  1  0
 13 42  1  0
 16 43  1  0
 17 44  1  0
 20 45  1  0
 21 46  1  0
 23 47  1  0
 24 48  1  0
 26 49  1  0
 27 50  1  0
 28 51  1  0
 29 52  1  0
M  END
>  <smiles>  (39) 
O=C(NCC(=O)N1C[C@H](F)C[C@H]1COc1ccc(Cl)cc1)c1ccc2ccccc2n1

>  <score_type>  (39) 
oracle

>  <origin>  (39) 
autodockgpu

>  <m_score__min__energy>  (39) 
-8.1600000000000001

>  <m_primary>  (39) 
energy

>  <rmsd>  (39) 
3.6874560279830777

>  <m_score__min__rmsd>  (39) 
3.6874560279830777

>  <meeko>  (39) 
{"free_energy": -6.88, "intermolecular_energy": -8.97, "internal_energy": -3.19, "cluster_size": 4, "cluster_id": 6, "rank_in_cluster": 2}

>  <energy>  (39) 
-6.83

>  <cluster_rmsd>  (39) 
1.19

>  <cluster>  (39) 
6

$$$$

     RDKit          3D

 52 55  0  0  0  0  0  0  0  0999 V2000
  140.7780   71.2930  221.2660 O   0  0  0  0  0  0  0  0  0  0  0  0
  140.4150   71.8970  222.3020 C   0  0  0  0  0  0  0  0  0  0  0  0
  140.2230   73.3150  222.2070 N   0  0  0  0  0  0  0  0  0  0  0  0
  140.4350   74.0410  220.9680 C   0  0  0  0  0  0  0  0  0  0  0  0
  140.7780   75.4400  221.3250 C   0  0  0  0  0  0  0  0  0  0  0  0
  140.2810   75.8900  222.3920 O   0  0  0  0  0  0  0  0  0  0  0  0
  141.6240   76.2230  220.4980 N   0  0  0  0  0  0  0  0  0  0  0  0
  141.8070   77.6510  220.4310 C   0  0  0  0  0  0  0  0  0  0  0  0
  142.1100   77.9470  218.9880 C   0  0  2  0  0  0  0  0  0  0  0  0
  141.0050   78.5080  218.3470 F   0  0  0  0  0  0  0  0  0  0  0  0
  142.4850   76.6370  218.4020 C   0  0  0  0  0  0  0  0  0  0  0  0
  142.5220   75.6660  219.4940 C   0  0  1  0  0  0  0  0  0  0  0  0
  143.8220   75.2620  220.0930 C   0  0  0  0  0  0  0  0  0  0  0  0
  144.0710   74.0270  220.5060 O   0  0  0  0  0  0  0  0  0  0  0  0
  144.2940   72.7600  220.1730 C   0  0  0  0  0  0  0  0  0  0  0  0
  145.5950   72.4450  219.7140 C   0  0  0  0  0  0  0  0  0  0  0  0
  145.9500   71.1770  219.3420 C   0  0  0  0  0  0  0  0  0  0  0  0
  145.0230   70.1640  219.4110 C   0  0  0  0  0  0  0  0  0  0  0  0
  145.4190   68.5230  218.9500 Cl  0  0  0  0  0  0  0  0  0  0  0  0
  143.7440   70.4080  219.8490 C   0  0  0  0  0  0  0  0  0  0  0  0
  143.4280   71.6940  220.2120 C   0  0  0  0  0  0  0  0  0  0  0  0
  140.1920   71.2040  223.5690 C   0  0  0  0  0  0  0  0  0  0  0  0
  139.5710   69.9940  223.5850 C   0  0  0  0  0  0  0  0  0  0  0  0
  139.3600   69.3380  224.7940 C   0  0  0  0  0  0  0  0  0  0  0  0
  139.7900   69.9410  225.9580 C   0  0  0  0  0  0  0  0  0  0  0  0
  139.6150   69.3510  227.1910 C   0  0  0  0  0  0  0  0  0  0  0  0
  140.0580   69.9790  228.3450 C   0  0  0  0  0  0  0  0  0  0  0  0
  140.6890   71.2120  228.3160 C   0  0  0  0  0  0  0  0  0  0  0  0
  140.8480   71.7770  227.0570 C   0  0  0  0  0  0  0  0  0  0  0  0
  140.4090   71.1550  225.9050 C   0  0  0  0  0  0  0  0  0  0  0  0
  140.6090   71.7830  224.7240 N   0  0  0  0  0  0  0  0  0  0  0  0
  139.9210   73.7840  223.0890 H   0  0  0  0  0  0  0  0  0  0  0  0
  141.2602   73.5847  220.4016 H   0  0  0  0  0  0  0  0  0  0  0  0
  139.5314   74.0110  220.3414 H   0  0  0  0  0  0  0  0  0  0  0  0
  140.8909   78.1717  220.7467 H   0  0  0  0  0  0  0  0  0  0  0  0
  142.6135   77.9920  221.0968 H   0  0  0  0  0  0  0  0  0  0  0  0
  142.9170   78.6857  218.8736 H   0  0  0  0  0  0  0  0  0  0  0  0
  141.7392   76.3326  217.6529 H   0  0  0  0  0  0  0  0  0  0  0  0
  143.4636   76.6995  217.9036 H   0  0  0  0  0  0  0  0  0  0  0  0
  142.2309   74.6967  219.0630 H   0  0  0  0  0  0  0  0  0  0  0  0
  144.5884   75.4899  219.3375 H   0  0  0  0  0  0  0  0  0  0  0  0
  143.8093   75.8151  221.0437 H   0  0  0  0  0  0  0  0  0  0  0  0
  146.3461   73.2464  219.6543 H   0  0  0  0  0  0  0  0  0  0  0  0
  146.9712   70.9693  218.9898 H   0  0  0  0  0  0  0  0  0  0  0  0
  142.9988   69.6010  219.9069 H   0  0  0  0  0  0  0  0  0  0  0  0
  142.4025   71.8855  220.5609 H   0  0  0  0  0  0  0  0  0  0  0  0
  139.2360   69.5345  222.6434 H   0  0  0  0  0  0  0  0  0  0  0  0
  138.8604   68.3584  224.8211 H   0  0  0  0  0  0  0  0  0  0  0  0
  139.1188   68.3717  227.2604 H   0  0  0  0  0  0  0  0  0  0  0  0
  139.9035   69.4825  229.3143 H   0  0  0  0  0  0  0  0  0  0  0  0
  141.0413   71.7112  229.2307 H   0  0  0  0  0  0  0  0  0  0  0  0
  141.3420   72.7564  226.9747 H   0  0  0  0  0  0  0  0  0  0  0  0
  1  2  2  0
  2  3  1  0
  3  4  1  0
  4  5  1  0
  5  6  2  0
  5  7  1  0
  7  8  1  0
  8  9  1  0
  9 10  1  0
  9 11  1  0
 11 12  1  0
 12 13  1  0
 13 14  1  0
 14 15  1  0
 15 16  2  0
 16 17  1  0
 17 18  2  0
 18 19  1  0
 18 20  1  0
 20 21  2  0
  2 22  1  0
 22 23  2  0
 23 24  1  0
 24 25  2  0
 25 26  1  0
 26 27  2  0
 27 28  1  0
 28 29  2  0
 29 30  1  0
 30 31  2  0
 12  7  1  0
 21 15  1  0
 31 22  1  0
 30 25  1  0
  3 32  1  0
  4 33  1  0
  4 34  1  0
  8 35  1  0
  8 36  1  0
  9 37  1  1
 11 38  1  0
 11 39  1  0
 12 40  1  6
 13 41  1  0
 13 42  1  0
 16 43  1  0
 17 44  1  0
 20 45  1  0
 21 46  1  0
 23 47  1  0
 24 48  1  0
 26 49  1  0
 27 50  1  0
 28 51  1  0
 29 52  1  0
M  END
>  <smiles>  (40) 
O=C(NCC(=O)N1C[C@H](F)C[C@H]1COc1ccc(Cl)cc1)c1ccc2ccccc2n1

>  <score_type>  (40) 
oracle

>  <origin>  (40) 
autodockgpu

>  <m_score__min__energy>  (40) 
-8.1600000000000001

>  <m_primary>  (40) 
energy

>  <rmsd>  (40) 
2.3208205144505767

>  <m_score__min__rmsd>  (40) 
2.3208205144505767

>  <meeko>  (40) 
{"free_energy": -8.1, "intermolecular_energy": -10.18, "internal_energy": -2.29, "cluster_size": 19, "cluster_id": 1, "rank_in_cluster": 4}

>  <energy>  (40) 
-7.45

>  <cluster_rmsd>  (40) 
0.0

>  <cluster>  (40) 
7

$$$$

     RDKit          3D

 52 55  0  0  0  0  0  0  0  0999 V2000
  141.4110   72.2110  221.4480 O   0  0  0  0  0  0  0  0  0  0  0  0
  140.5980   72.4930  222.3590 C   0  0  0  0  0  0  0  0  0  0  0  0
  139.9600   73.7760  222.3020 N   0  0  0  0  0  0  0  0  0  0  0  0
  140.2320   74.7260  221.2380 C   0  0  0  0  0  0  0  0  0  0  0  0
  139.8290   76.0680  221.7270 C   0  0  0  0  0  0  0  0  0  0  0  0
  138.7250   76.1450  222.3280 O   0  0  0  0  0  0  0  0  0  0  0  0
  140.6560   77.2030  221.5210 N   0  0  0  0  0  0  0  0  0  0  0  0
  141.4340   77.9760  222.4550 C   0  0  0  0  0  0  0  0  0  0  0  0
  141.4040   79.3850  221.9300 C   0  0  2  0  0  0  0  0  0  0  0  0
  140.5370   80.1820  222.6780 F   0  0  0  0  0  0  0  0  0  0  0  0
  140.9590   79.2560  220.5200 C   0  0  0  0  0  0  0  0  0  0  0  0
  140.8710   77.8280  220.2210 C   0  0  1  0  0  0  0  0  0  0  0  0
  141.9600   77.1510  219.4670 C   0  0  0  0  0  0  0  0  0  0  0  0
  142.7560   76.2430  220.0130 O   0  0  0  0  0  0  0  0  0  0  0  0
  143.3900   75.0830  219.8750 C   0  0  0  0  0  0  0  0  0  0  0  0
  143.6820   74.6750  218.5510 C   0  0  0  0  0  0  0  0  0  0  0  0
  144.3320   73.5030  218.2760 C   0  0  0  0  0  0  0  0  0  0  0  0
  144.7200   72.6830  219.3090 C   0  0  0  0  0  0  0  0  0  0  0  0
  145.5540   71.1720  219.0180 Cl  0  0  0  0  0  0  0  0  0  0  0  0
  144.4650   73.0250  220.6140 C   0  0  0  0  0  0  0  0  0  0  0  0
  143.8110   74.2090  220.8480 C   0  0  0  0  0  0  0  0  0  0  0  0
  140.2970   71.5660  223.4470 C   0  0  0  0  0  0  0  0  0  0  0  0
  139.6570   70.3930  223.1880 C   0  0  0  0  0  0  0  0  0  0  0  0
  139.3720   69.5140  224.2280 C   0  0  0  0  0  0  0  0  0  0  0  0
  139.7500   69.8590  225.5090 C   0  0  0  0  0  0  0  0  0  0  0  0
  139.5000   69.0380  226.5870 C   0  0  0  0  0  0  0  0  0  0  0  0
  139.8910   69.4100  227.8650 C   0  0  0  0  0  0  0  0  0  0  0  0
  140.5420   70.6070  228.1160 C   0  0  0  0  0  0  0  0  0  0  0  0
  140.7770   71.4090  227.0060 C   0  0  0  0  0  0  0  0  0  0  0  0
  140.3890   71.0430  225.7330 C   0  0  0  0  0  0  0  0  0  0  0  0
  140.6620   71.8890  224.7150 N   0  0  0  0  0  0  0  0  0  0  0  0
  139.2890   73.9750  223.0760 H   0  0  0  0  0  0  0  0  0  0  0  0
  141.3048   74.7211  220.9948 H   0  0  0  0  0  0  0  0  0  0  0  0
  139.6735   74.4604  220.3283 H   0  0  0  0  0  0  0  0  0  0  0  0
  140.9871   77.9298  223.4590 H   0  0  0  0  0  0  0  0  0  0  0  0
  142.4619   77.5949  222.5451 H   0  0  0  0  0  0  0  0  0  0  0  0
  142.3850   79.8775  222.0005 H   0  0  0  0  0  0  0  0  0  0  0  0
  139.9742   79.7289  220.3913 H   0  0  0  0  0  0  0  0  0  0  0  0
  141.6674   79.7532  219.8410 H   0  0  0  0  0  0  0  0  0  0  0  0
  140.0635   77.7111  219.4833 H   0  0  0  0  0  0  0  0  0  0  0  0
  141.4754   76.6557  218.6127 H   0  0  0  0  0  0  0  0  0  0  0  0
  142.6590   77.9824  219.2932 H   0  0  0  0  0  0  0  0  0  0  0  0
  143.3760   75.3219  217.7156 H   0  0  0  0  0  0  0  0  0  0  0  0
  144.5429   73.2185  217.2346 H   0  0  0  0  0  0  0  0  0  0  0  0
  144.7742   72.3724  221.4438 H   0  0  0  0  0  0  0  0  0  0  0  0
  143.6084   74.4788  221.8950 H   0  0  0  0  0  0  0  0  0  0  0  0
  139.3655   70.1404  222.1578 H   0  0  0  0  0  0  0  0  0  0  0  0
  138.8554   68.5627  224.0327 H   0  0  0  0  0  0  0  0  0  0  0  0
  138.9853   68.0782  226.4327 H   0  0  0  0  0  0  0  0  0  0  0  0
  139.6775   68.7333  228.7055 H   0  0  0  0  0  0  0  0  0  0  0  0
  140.8528   70.9033  229.1287 H   0  0  0  0  0  0  0  0  0  0  0  0
  141.2912   72.3711  227.1470 H   0  0  0  0  0  0  0  0  0  0  0  0
  1  2  2  0
  2  3  1  0
  3  4  1  0
  4  5  1  0
  5  6  2  0
  5  7  1  0
  7  8  1  0
  8  9  1  0
  9 10  1  0
  9 11  1  0
 11 12  1  0
 12 13  1  0
 13 14  1  0
 14 15  1  0
 15 16  2  0
 16 17  1  0
 17 18  2  0
 18 19  1  0
 18 20  1  0
 20 21  2  0
  2 22  1  0
 22 23  2  0
 23 24  1  0
 24 25  2  0
 25 26  1  0
 26 27  2  0
 27 28  1  0
 28 29  2  0
 29 30  1  0
 30 31  2  0
 12  7  1  0
 21 15  1  0
 31 22  1  0
 30 25  1  0
  3 32  1  0
  4 33  1  0
  4 34  1  0
  8 35  1  0
  8 36  1  0
  9 37  1  6
 11 38  1  0
 11 39  1  0
 12 40  1  6
 13 41  1  0
 13 42  1  0
 16 43  1  0
 17 44  1  0
 20 45  1  0
 21 46  1  0
 23 47  1  0
 24 48  1  0
 26 49  1  0
 27 50  1  0
 28 51  1  0
 29 52  1  0
M  END
>  <smiles>  (41) 
O=C(NCC(=O)N1C[C@H](F)C[C@H]1COc1ccc(Cl)cc1)c1ccc2ccccc2n1

>  <score_type>  (41) 
oracle

>  <origin>  (41) 
autodockgpu

>  <m_score__min__energy>  (41) 
-8.1600000000000001

>  <m_primary>  (41) 
energy

>  <rmsd>  (41) 
2.869561059047901

>  <m_score__min__rmsd>  (41) 
2.869561059047901

>  <meeko>  (41) 
{"free_energy": -7.92, "intermolecular_energy": -10.01, "internal_energy": -2.26, "cluster_size": 19, "cluster_id": 1, "rank_in_cluster": 10}

>  <energy>  (41) 
-7.36

>  <cluster_rmsd>  (41) 
0.0

>  <cluster>  (41) 
8

$$$$

     RDKit          3D

 52 55  0  0  0  0  0  0  0  0999 V2000
  141.1690   72.4420  221.8300 O   0  0  0  0  0  0  0  0  0  0  0  0
  140.1910   72.4250  222.6120 C   0  0  0  0  0  0  0  0  0  0  0  0
  139.1330   73.3630  222.3680 N   0  0  0  0  0  0  0  0  0  0  0  0
  139.1760   74.3020  221.2620 C   0  0  0  0  0  0  0  0  0  0  0  0
  138.8520   75.6450  221.8060 C   0  0  0  0  0  0  0  0  0  0  0  0
  137.7270   75.7760  222.3580 O   0  0  0  0  0  0  0  0  0  0  0  0
  139.7730   76.7200  221.7040 N   0  0  0  0  0  0  0  0  0  0  0  0
  141.0750   76.8970  222.2950 C   0  0  0  0  0  0  0  0  0  0  0  0
  141.2030   78.3750  222.5420 C   0  0  2  0  0  0  0  0  0  0  0  0
  141.0410   78.6740  223.8960 F   0  0  0  0  0  0  0  0  0  0  0  0
  140.1440   78.9930  221.7080 C   0  0  0  0  0  0  0  0  0  0  0  0
  139.5320   77.9250  220.9200 C   0  0  1  0  0  0  0  0  0  0  0  0
  139.9130   77.7320  219.4960 C   0  0  0  0  0  0  0  0  0  0  0  0
  141.0360   77.1310  219.1260 O   0  0  0  0  0  0  0  0  0  0  0  0
  141.9880   76.2550  219.4300 C   0  0  0  0  0  0  0  0  0  0  0  0
  141.6330   74.8870  219.3650 C   0  0  0  0  0  0  0  0  0  0  0  0
  142.5220   73.8880  219.6510 C   0  0  0  0  0  0  0  0  0  0  0  0
  143.8080   74.2080  220.0170 C   0  0  0  0  0  0  0  0  0  0  0  0
  144.9900   72.9740  220.3950 Cl  0  0  0  0  0  0  0  0  0  0  0  0
  144.2120   75.5180  220.0970 C   0  0  0  0  0  0  0  0  0  0  0  0
  143.2890   76.4910  219.8020 C   0  0  0  0  0  0  0  0  0  0  0  0
  140.1090   71.4960  223.7370 C   0  0  0  0  0  0  0  0  0  0  0  0
  139.5390   70.2720  223.5700 C   0  0  0  0  0  0  0  0  0  0  0  0
  139.4640   69.3900  224.6450 C   0  0  0  0  0  0  0  0  0  0  0  0
  139.9730   69.7870  225.8640 C   0  0  0  0  0  0  0  0  0  0  0  0
  139.9320   68.9670  226.9710 C   0  0  0  0  0  0  0  0  0  0  0  0
  140.4530   69.3910  228.1840 C   0  0  0  0  0  0  0  0  0  0  0  0
  141.0300   70.6410  228.3410 C   0  0  0  0  0  0  0  0  0  0  0  0
  141.0540   71.4400  227.2050 C   0  0  0  0  0  0  0  0  0  0  0  0
  140.5370   71.0220  225.9940 C   0  0  0  0  0  0  0  0  0  0  0  0
  140.6060   71.8700  224.9440 N   0  0  0  0  0  0  0  0  0  0  0  0
  138.3350   73.3190  223.0380 H   0  0  0  0  0  0  0  0  0  0  0  0
  140.1809   74.3101  220.8147 H   0  0  0  0  0  0  0  0  0  0  0  0
  138.4559   74.0154  220.4814 H   0  0  0  0  0  0  0  0  0  0  0  0
  141.1471   76.3409  223.2413 H   0  0  0  0  0  0  0  0  0  0  0  0
  141.8758   76.5202  221.6417 H   0  0  0  0  0  0  0  0  0  0  0  0
  142.1996   78.7580  222.2772 H   0  0  0  0  0  0  0  0  0  0  0  0
  139.3876   79.4672  222.3507 H   0  0  0  0  0  0  0  0  0  0  0  0
  140.5678   79.7672  221.0515 H   0  0  0  0  0  0  0  0  0  0  0  0
  138.4795   78.2078  220.7708 H   0  0  0  0  0  0  0  0  0  0  0  0
  139.0953   77.1558  219.0384 H   0  0  0  0  0  0  0  0  0  0  0  0
  140.0999   78.7673  219.1747 H   0  0  0  0  0  0  0  0  0  0  0  0
  140.6068   74.6178  219.0745 H   0  0  0  0  0  0  0  0  0  0  0  0
  142.2101   72.8350  219.5886 H   0  0  0  0  0  0  0  0  0  0  0  0
  145.2403   75.7791  220.3876 H   0  0  0  0  0  0  0  0  0  0  0  0
  143.6164   77.5390  219.8687 H   0  0  0  0  0  0  0  0  0  0  0  0
  139.1383   69.9798  222.5881 H   0  0  0  0  0  0  0  0  0  0  0  0
  139.0079   68.3963  224.5244 H   0  0  0  0  0  0  0  0  0  0  0  0
  139.4816   67.9666  226.8914 H   0  0  0  0  0  0  0  0  0  0  0  0
  140.4068   68.7134  229.0493 H   0  0  0  0  0  0  0  0  0  0  0  0
  141.4424   70.9788  229.3032 H   0  0  0  0  0  0  0  0  0  0  0  0
  141.5012   72.4427  227.2721 H   0  0  0  0  0  0  0  0  0  0  0  0
  1  2  2  0
  2  3  1  0
  3  4  1  0
  4  5  1  0
  5  6  2  0
  5  7  1  0
  7  8  1  0
  8  9  1  0
  9 10  1  0
  9 11  1  0
 11 12  1  0
 12 13  1  0
 13 14  1  0
 14 15  1  0
 15 16  2  0
 16 17  1  0
 17 18  2  0
 18 19  1  0
 18 20  1  0
 20 21  2  0
  2 22  1  0
 22 23  2  0
 23 24  1  0
 24 25  2  0
 25 26  1  0
 26 27  2  0
 27 28  1  0
 28 29  2  0
 29 30  1  0
 30 31  2  0
 12  7  1  0
 21 15  1  0
 31 22  1  0
 30 25  1  0
  3 32  1  0
  4 33  1  0
  4 34  1  0
  8 35  1  0
  8 36  1  0
  9 37  1  6
 11 38  1  0
 11 39  1  0
 12 40  1  6
 13 41  1  0
 13 42  1  0
 16 43  1  0
 17 44  1  0
 20 45  1  0
 21 46  1  0
 23 47  1  0
 24 48  1  0
 26 49  1  0
 27 50  1  0
 28 51  1  0
 29 52  1  0
M  END
>  <smiles>  (42) 
O=C(NCC(=O)N1C[C@H](F)C[C@H]1COc1ccc(Cl)cc1)c1ccc2ccccc2n1

>  <score_type>  (42) 
oracle

>  <origin>  (42) 
autodockgpu

>  <m_score__min__energy>  (42) 
-8.1600000000000001

>  <m_primary>  (42) 
energy

>  <rmsd>  (42) 
2.7472612594221437

>  <m_score__min__rmsd>  (42) 
2.7472612594221437

>  <meeko>  (42) 
{"free_energy": -7.82, "intermolecular_energy": -9.91, "internal_energy": -2.11, "cluster_size": 19, "cluster_id": 1, "rank_in_cluster": 12}

>  <energy>  (42) 
-7.31

>  <cluster_rmsd>  (42) 
0.25

>  <cluster>  (42) 
8

$$$$

     RDKit          3D

 52 55  0  0  0  0  0  0  0  0999 V2000
  138.9990   71.1900  221.3950 O   0  0  0  0  0  0  0  0  0  0  0  0
  139.2950   71.7960  222.4510 C   0  0  0  0  0  0  0  0  0  0  0  0
  139.3630   73.2280  222.3950 N   0  0  0  0  0  0  0  0  0  0  0  0
  139.1020   73.9640  221.1710 C   0  0  0  0  0  0  0  0  0  0  0  0
  139.1040   75.4090  221.5130 C   0  0  0  0  0  0  0  0  0  0  0  0
  139.1750   75.7010  222.7370 O   0  0  0  0  0  0  0  0  0  0  0  0
  139.0270   76.4030  220.5030 N   0  0  0  0  0  0  0  0  0  0  0  0
  138.5840   77.7730  220.5690 C   0  0  0  0  0  0  0  0  0  0  0  0
  137.9630   78.0560  219.2300 C   0  0  2  0  0  0  0  0  0  0  0  0
  136.5700   78.0690  219.3140 F   0  0  0  0  0  0  0  0  0  0  0  0
  138.4550   76.9710  218.3460 C   0  0  0  0  0  0  0  0  0  0  0  0
  139.4170   76.1850  219.1160 C   0  0  1  0  0  0  0  0  0  0  0  0
  140.8770   76.3900  218.9230 C   0  0  0  0  0  0  0  0  0  0  0  0
  141.5230   77.4490  219.3920 O   0  0  0  0  0  0  0  0  0  0  0  0
  141.6100   78.3770  220.3390 C   0  0  0  0  0  0  0  0  0  0  0  0
  141.5220   77.9260  221.6770 C   0  0  0  0  0  0  0  0  0  0  0  0
  141.5990   78.7810  222.7420 C   0  0  0  0  0  0  0  0  0  0  0  0
  141.7690   80.1270  222.5210 C   0  0  0  0  0  0  0  0  0  0  0  0
  141.8750   81.2690  223.8420 Cl  0  0  0  0  0  0  0  0  0  0  0  0
  141.8620   80.6240  221.2440 C   0  0  0  0  0  0  0  0  0  0  0  0
  141.7790   79.7330  220.2030 C   0  0  0  0  0  0  0  0  0  0  0  0
  139.5640   71.0930  223.7030 C   0  0  0  0  0  0  0  0  0  0  0  0
  139.3320   69.7560  223.7990 C   0  0  0  0  0  0  0  0  0  0  0  0
  139.5910   69.0910  224.9940 C   0  0  0  0  0  0  0  0  0  0  0  0
  140.0800   69.8140  226.0620 C   0  0  0  0  0  0  0  0  0  0  0  0
  140.3580   69.2220  227.2750 C   0  0  0  0  0  0  0  0  0  0  0  0
  140.8500   69.9730  228.3320 C   0  0  0  0  0  0  0  0  0  0  0  0
  141.0820   71.3340  228.2220 C   0  0  0  0  0  0  0  0  0  0  0  0
  140.7910   71.8970  226.9860 C   0  0  0  0  0  0  0  0  0  0  0  0
  140.3010   71.1530  225.9310 C   0  0  0  0  0  0  0  0  0  0  0  0
  140.0470   71.7890  224.7650 N   0  0  0  0  0  0  0  0  0  0  0  0
  139.6100   73.6980  223.2930 H   0  0  0  0  0  0  0  0  0  0  0  0
  139.8869   73.7519  220.4301 H   0  0  0  0  0  0  0  0  0  0  0  0
  138.1346   73.6684  220.7387 H   0  0  0  0  0  0  0  0  0  0  0  0
  137.8426   77.8996  221.3717 H   0  0  0  0  0  0  0  0  0  0  0  0
  139.4134   78.4612  220.7892 H   0  0  0  0  0  0  0  0  0  0  0  0
  138.2390   79.0480  218.8429 H   0  0  0  0  0  0  0  0  0  0  0  0
  137.6160   76.3339  218.0295 H   0  0  0  0  0  0  0  0  0  0  0  0
  138.9263   77.3877  217.4437 H   0  0  0  0  0  0  0  0  0  0  0  0
  139.3468   75.1514  218.7463 H   0  0  0  0  0  0  0  0  0  0  0  0
  141.3684   75.5125  219.3685 H   0  0  0  0  0  0  0  0  0  0  0  0
  140.9357   76.5575  217.8374 H   0  0  0  0  0  0  0  0  0  0  0  0
  141.3871   76.8511  221.8675 H   0  0  0  0  0  0  0  0  0  0  0  0
  141.5253   78.3938  223.7690 H   0  0  0  0  0  0  0  0  0  0  0  0
  141.9984   81.7001  221.0615 H   0  0  0  0  0  0  0  0  0  0  0  0
  141.8536   80.1359  219.1822 H   0  0  0  0  0  0  0  0  0  0  0  0
  138.9403   69.2013  222.9336 H   0  0  0  0  0  0  0  0  0  0  0  0
  139.4093   68.0099  225.0849 H   0  0  0  0  0  0  0  0  0  0  0  0
  140.1880   68.1432  227.4061 H   0  0  0  0  0  0  0  0  0  0  0  0
  141.0627   69.4719  229.2879 H   0  0  0  0  0  0  0  0  0  0  0  0
  141.4717   71.9308  229.0598 H   0  0  0  0  0  0  0  0  0  0  0  0
  140.9570   72.9749  226.8424 H   0  0  0  0  0  0  0  0  0  0  0  0
  1  2  2  0
  2  3  1  0
  3  4  1  0
  4  5  1  0
  5  6  2  0
  5  7  1  0
  7  8  1  0
  8  9  1  0
  9 10  1  0
  9 11  1  0
 11 12  1  0
 12 13  1  0
 13 14  1  0
 14 15  1  0
 15 16  2  0
 16 17  1  0
 17 18  2  0
 18 19  1  0
 18 20  1  0
 20 21  2  0
  2 22  1  0
 22 23  2  0
 23 24  1  0
 24 25  2  0
 25 26  1  0
 26 27  2  0
 27 28  1  0
 28 29  2  0
 29 30  1  0
 30 31  2  0
 12  7  1  0
 21 15  1  0
 31 22  1  0
 30 25  1  0
  3 32  1  0
  4 33  1  0
  4 34  1  0
  8 35  1  0
  8 36  1  0
  9 37  1  6
 11 38  1  0
 11 39  1  0
 12 40  1  6
 13 41  1  0
 13 42  1  0
 16 43  1  0
 17 44  1  0
 20 45  1  0
 21 46  1  0
 23 47  1  0
 24 48  1  0
 26 49  1  0
 27 50  1  0
 28 51  1  0
 29 52  1  0
M  END
>  <smiles>  (43) 
O=C(NCC(=O)N1C[C@H](F)C[C@H]1COc1ccc(Cl)cc1)c1ccc2ccccc2n1

>  <score_type>  (43) 
oracle

>  <origin>  (43) 
autodockgpu

>  <m_score__min__energy>  (43) 
-8.1600000000000001

>  <m_primary>  (43) 
energy

>  <rmsd>  (43) 
2.0417829986106124

>  <m_score__min__rmsd>  (43) 
2.0417829986106124

>  <meeko>  (43) 
{"free_energy": -7.4, "intermolecular_energy": -9.49, "internal_energy": -2.49, "cluster_size": 10, "cluster_id": 2, "rank_in_cluster": 8}

>  <energy>  (43) 
-6.99

>  <cluster_rmsd>  (43) 
0.64

>  <cluster>  (43) 
8

$$$$

     RDKit          3D

 52 55  0  0  0  0  0  0  0  0999 V2000
  140.7470   71.3680  221.2650 O   0  0  0  0  0  0  0  0  0  0  0  0
  140.3540   71.9520  222.3020 C   0  0  0  0  0  0  0  0  0  0  0  0
  140.0870   73.3580  222.2060 N   0  0  0  0  0  0  0  0  0  0  0  0
  140.2570   74.0930  220.9660 C   0  0  0  0  0  0  0  0  0  0  0  0
  140.7720   75.4410  221.3150 C   0  0  0  0  0  0  0  0  0  0  0  0
  140.4020   75.9190  222.4200 O   0  0  0  0  0  0  0  0  0  0  0  0
  141.6360   76.1470  220.4390 N   0  0  0  0  0  0  0  0  0  0  0  0
  141.8620   77.5620  220.2850 C   0  0  0  0  0  0  0  0  0  0  0  0
  142.1660   77.7610  218.8260 C   0  0  2  0  0  0  0  0  0  0  0  0
  141.0740   78.3150  218.1560 F   0  0  0  0  0  0  0  0  0  0  0  0
  142.4980   76.4070  218.3180 C   0  0  0  0  0  0  0  0  0  0  0  0
  142.5120   75.5040  219.4670 C   0  0  1  0  0  0  0  0  0  0  0  0
  143.8020   75.0970  220.0840 C   0  0  0  0  0  0  0  0  0  0  0  0
  144.0490   73.8570  220.4850 O   0  0  0  0  0  0  0  0  0  0  0  0
  144.2820   72.5950  220.1400 C   0  0  0  0  0  0  0  0  0  0  0  0
  145.5890   72.2930  219.6890 C   0  0  0  0  0  0  0  0  0  0  0  0
  145.9550   71.0310  219.3070 C   0  0  0  0  0  0  0  0  0  0  0  0
  145.0330   70.0130  219.3560 C   0  0  0  0  0  0  0  0  0  0  0  0
  145.4420   68.3790  218.8800 Cl  0  0  0  0  0  0  0  0  0  0  0  0
  143.7490   70.2450  219.7840 C   0  0  0  0  0  0  0  0  0  0  0  0
  143.4220   71.5250  220.1590 C   0  0  0  0  0  0  0  0  0  0  0  0
  140.1690   71.2500  223.5690 C   0  0  0  0  0  0  0  0  0  0  0  0
  139.5640   70.0310  223.5930 C   0  0  0  0  0  0  0  0  0  0  0  0
  139.3900   69.3670  224.8030 C   0  0  0  0  0  0  0  0  0  0  0  0
  139.8410   69.9680  225.9600 C   0  0  0  0  0  0  0  0  0  0  0  0
  139.7030   69.3690  227.1930 C   0  0  0  0  0  0  0  0  0  0  0  0
  140.1660   69.9960  228.3400 C   0  0  0  0  0  0  0  0  0  0  0  0
  140.7810   71.2370  228.3030 C   0  0  0  0  0  0  0  0  0  0  0  0
  140.9030   71.8110  227.0440 C   0  0  0  0  0  0  0  0  0  0  0  0
  140.4430   71.1900  225.8990 C   0  0  0  0  0  0  0  0  0  0  0  0
  140.6080   71.8270  224.7180 N   0  0  0  0  0  0  0  0  0  0  0  0
  139.7610   73.8110  223.0880 H   0  0  0  0  0  0  0  0  0  0  0  0
  140.9760   73.5726  220.3162 H   0  0  0  0  0  0  0  0  0  0  0  0
  139.3014   74.1703  220.4266 H   0  0  0  0  0  0  0  0  0  0  0  0
  140.9639   78.1287  220.5718 H   0  0  0  0  0  0  0  0  0  0  0  0
  142.6821   77.9176  220.9261 H   0  0  0  0  0  0  0  0  0  0  0  0
  142.9944   78.4666  218.6649 H   0  0  0  0  0  0  0  0  0  0  0  0
  141.7390   76.0807  217.5918 H   0  0  0  0  0  0  0  0  0  0  0  0
  143.4747   76.4092  217.8120 H   0  0  0  0  0  0  0  0  0  0  0  0
  142.1895   74.5197  219.0966 H   0  0  0  0  0  0  0  0  0  0  0  0
  144.5811   75.3382  219.3459 H   0  0  0  0  0  0  0  0  0  0  0  0
  143.7693   75.6369  221.0418 H   0  0  0  0  0  0  0  0  0  0  0  0
  146.3356   73.0996  219.6440 H   0  0  0  0  0  0  0  0  0  0  0  0
  146.9808   70.8326  218.9629 H   0  0  0  0  0  0  0  0  0  0  0  0
  143.0077   69.4333  219.8251 H   0  0  0  0  0  0  0  0  0  0  0  0
  142.3924   71.7069  220.5007 H   0  0  0  0  0  0  0  0  0  0  0  0
  139.2132   69.5716  222.6571 H   0  0  0  0  0  0  0  0  0  0  0  0
  138.9022   68.3817  224.8366 H   0  0  0  0  0  0  0  0  0  0  0  0
  139.2206   68.3833  227.2684 H   0  0  0  0  0  0  0  0  0  0  0  0
  140.0410   69.4922  229.3098 H   0  0  0  0  0  0  0  0  0  0  0  0
  141.1489   71.7355  229.2119 H   0  0  0  0  0  0  0  0  0  0  0  0
  141.3837   72.7965  226.9555 H   0  0  0  0  0  0  0  0  0  0  0  0
  1  2  2  0
  2  3  1  0
  3  4  1  0
  4  5  1  0
  5  6  2  0
  5  7  1  0
  7  8  1  0
  8  9  1  0
  9 10  1  0
  9 11  1  0
 11 12  1  0
 12 13  1  0
 13 14  1  0
 14 15  1  0
 15 16  2  0
 16 17  1  0
 17 18  2  0
 18 19  1  0
 18 20  1  0
 20 21  2  0
  2 22  1  0
 22 23  2  0
 23 24  1  0
 24 25  2  0
 25 26  1  0
 26 27  2  0
 27 28  1  0
 28 29  2  0
 29 30  1  0
 30 31  2  0
 12  7  1  0
 21 15  1  0
 31 22  1  0
 30 25  1  0
  3 32  1  0
  4 33  1  0
  4 34  1  0
  8 35  1  0
  8 36  1  0
  9 37  1  1
 11 38  1  0
 11 39  1  0
 12 40  1  6
 13 41  1  0
 13 42  1  0
 16 43  1  0
 17 44  1  0
 20 45  1  0
 21 46  1  0
 23 47  1  0
 24 48  1  0
 26 49  1  0
 27 50  1  0
 28 51  1  0
 29 52  1  0
M  END
>  <smiles>  (44) 
O=C(NCC(=O)N1C[C@H](F)C[C@H]1COc1ccc(Cl)cc1)c1ccc2ccccc2n1

>  <score_type>  (44) 
oracle

>  <origin>  (44) 
autodockgpu

>  <m_score__min__energy>  (44) 
-8.1600000000000001

>  <m_primary>  (44) 
energy

>  <rmsd>  (44) 
2.2873928156075496

>  <m_score__min__rmsd>  (44) 
2.2873928156075496

>  <meeko>  (44) 
{"free_energy": -8.16, "intermolecular_energy": -10.25, "internal_energy": -2.2, "cluster_size": 19, "cluster_id": 1, "rank_in_cluster": 2}

>  <energy>  (44) 
-6.51

>  <cluster_rmsd>  (44) 
1.12

>  <cluster>  (44) 
8

$$$$

     RDKit          3D

 52 55  0  0  0  0  0  0  0  0999 V2000
  142.4420   76.4010  218.0380 O   0  0  0  0  0  0  0  0  0  0  0  0
  142.5240   76.6120  219.2700 C   0  0  0  0  0  0  0  0  0  0  0  0
  142.9520   75.5240  220.1010 N   0  0  0  0  0  0  0  0  0  0  0  0
  143.2820   74.2200  219.5540 C   0  0  0  0  0  0  0  0  0  0  0  0
  142.0360   73.4140  219.5450 C   0  0  0  0  0  0  0  0  0  0  0  0
  142.0680   72.3270  218.9080 O   0  0  0  0  0  0  0  0  0  0  0  0
  140.8700   73.8550  220.2240 N   0  0  0  0  0  0  0  0  0  0  0  0
  139.6310   74.3810  219.7110 C   0  0  0  0  0  0  0  0  0  0  0  0
  139.1620   75.3720  220.7400 C   0  0  2  0  0  0  0  0  0  0  0  0
  139.3790   76.6830  220.3110 F   0  0  0  0  0  0  0  0  0  0  0  0
  139.9440   75.0530  221.9600 C   0  0  0  0  0  0  0  0  0  0  0  0
  140.7220   73.8490  221.6740 C   0  0  1  0  0  0  0  0  0  0  0  0
  140.2610   72.5240  222.1680 C   0  0  0  0  0  0  0  0  0  0  0  0
  140.0230   72.2760  223.4480 O   0  0  0  0  0  0  0  0  0  0  0  0
  140.1240   71.4200  224.4590 C   0  0  0  0  0  0  0  0  0  0  0  0
  140.8910   71.8410  225.5720 C   0  0  0  0  0  0  0  0  0  0  0  0
  141.0690   71.0520  226.6750 C   0  0  0  0  0  0  0  0  0  0  0  0
  140.4910   69.8060  226.7200 C   0  0  0  0  0  0  0  0  0  0  0  0
  140.6830   68.7530  228.1040 Cl  0  0  0  0  0  0  0  0  0  0  0  0
  139.7350   69.3430  225.6710 C   0  0  0  0  0  0  0  0  0  0  0  0
  139.5800   70.1640  224.5820 C   0  0  0  0  0  0  0  0  0  0  0  0
  142.2020   77.9090  219.8610 C   0  0  0  0  0  0  0  0  0  0  0  0
  141.9300   78.9760  219.0600 C   0  0  0  0  0  0  0  0  0  0  0  0
  141.6240   80.2090  219.6280 C   0  0  0  0  0  0  0  0  0  0  0  0
  141.6050   80.3180  221.0030 C   0  0  0  0  0  0  0  0  0  0  0  0
  141.3100   81.5080  221.6330 C   0  0  0  0  0  0  0  0  0  0  0  0
  141.2970   81.5900  223.0180 C   0  0  0  0  0  0  0  0  0  0  0  0
  141.5760   80.4970  223.8220 C   0  0  0  0  0  0  0  0  0  0  0  0
  141.8680   79.3150  223.1530 C   0  0  0  0  0  0  0  0  0  0  0  0
  141.8820   79.2290  221.7750 C   0  0  0  0  0  0  0  0  0  0  0  0
  142.1780   78.0360  221.2130 N   0  0  0  0  0  0  0  0  0  0  0  0
  143.0100   75.7380  221.1210 H   0  0  0  0  0  0  0  0  0  0  0  0
  143.6669   74.3286  218.5293 H   0  0  0  0  0  0  0  0  0  0  0  0
  144.0574   73.7294  220.1606 H   0  0  0  0  0  0  0  0  0  0  0  0
  139.7952   74.8788  218.7439 H   0  0  0  0  0  0  0  0  0  0  0  0
  138.8892   73.5871  219.5394 H   0  0  0  0  0  0  0  0  0  0  0  0
  138.0799   75.3015  220.9243 H   0  0  0  0  0  0  0  0  0  0  0  0
  140.6177   75.8875  222.2044 H   0  0  0  0  0  0  0  0  0  0  0  0
  139.2768   74.8910  222.8195 H   0  0  0  0  0  0  0  0  0  0  0  0
  141.6501   73.9280  222.2592 H   0  0  0  0  0  0  0  0  0  0  0  0
  139.3206   72.3128  221.6379 H   0  0  0  0  0  0  0  0  0  0  0  0
  141.1466   71.8985  221.9825 H   0  0  0  0  0  0  0  0  0  0  0  0
  141.3595   72.8360  225.5490 H   0  0  0  0  0  0  0  0  0  0  0  0
  141.6716   71.4129  227.5216 H   0  0  0  0  0  0  0  0  0  0  0  0
  139.2691   68.3470  225.7025 H   0  0  0  0  0  0  0  0  0  0  0  0
  138.9744   69.7881  223.7442 H   0  0  0  0  0  0  0  0  0  0  0  0
  141.9521   78.8636  217.9660 H   0  0  0  0  0  0  0  0  0  0  0  0
  141.4017   81.0794  218.9932 H   0  0  0  0  0  0  0  0  0  0  0  0
  141.0828   82.4009  221.0321 H   0  0  0  0  0  0  0  0  0  0  0  0
  141.0576   82.5531  223.4925 H   0  0  0  0  0  0  0  0  0  0  0  0
  141.5669   80.5609  224.9201 H   0  0  0  0  0  0  0  0  0  0  0  0
  142.0964   78.4148  223.7425 H   0  0  0  0  0  0  0  0  0  0  0  0
  1  2  2  0
  2  3  1  0
  3  4  1  0
  4  5  1  0
  5  6  2  0
  5  7  1  0
  7  8  1  0
  8  9  1  0
  9 10  1  0
  9 11  1  0
 11 12  1  0
 12 13  1  0
 13 14  1  0
 14 15  1  0
 15 16  2  0
 16 17  1  0
 17 18  2  0
 18 19  1  0
 18 20  1  0
 20 21  2  0
  2 22  1  0
 22 23  2  0
 23 24  1  0
 24 25  2  0
 25 26  1  0
 26 27  2  0
 27 28  1  0
 28 29  2  0
 29 30  1  0
 30 31  2  0
 12  7  1  0
 21 15  1  0
 31 22  1  0
 30 25  1  0
  3 32  1  0
  4 33  1  0
  4 34  1  0
  8 35  1  0
  8 36  1  0
  9 37  1  1
 11 38  1  0
 11 39  1  0
 12 40  1  1
 13 41  1  0
 13 42  1  0
 16 43  1  0
 17 44  1  0
 20 45  1  0
 21 46  1  0
 23 47  1  0
 24 48  1  0
 26 49  1  0
 27 50  1  0
 28 51  1  0
 29 52  1  0
M  END
>  <smiles>  (45) 
O=C(NCC(=O)N1C[C@H](F)C[C@H]1COc1ccc(Cl)cc1)c1ccc2ccccc2n1

>  <score_type>  (45) 
oracle

>  <origin>  (45) 
autodockgpu

>  <m_score__min__energy>  (45) 
-8.1600000000000001

>  <m_primary>  (45) 
energy

>  <rmsd>  (45) 
8.24455234070028

>  <m_score__min__rmsd>  (45) 
8.24455234070028

>  <meeko>  (45) 
{"free_energy": -7.45, "intermolecular_energy": -9.54, "internal_energy": -2.17, "cluster_size": 1, "cluster_id": 7, "rank_in_cluster": 1}

>  <energy>  (45) 
-6.23

>  <cluster_rmsd>  (45) 
1.17

>  <cluster>  (45) 
8

$$$$

     RDKit          3D

 52 55  0  0  0  0  0  0  0  0999 V2000
  139.1700   74.8800  222.2960 O   0  0  0  0  0  0  0  0  0  0  0  0
  140.1950   75.5720  222.0950 C   0  0  0  0  0  0  0  0  0  0  0  0
  141.3430   74.9090  221.5460 N   0  0  0  0  0  0  0  0  0  0  0  0
  141.3360   73.4920  221.2290 C   0  0  0  0  0  0  0  0  0  0  0  0
  141.9400   73.3350  219.8830 C   0  0  0  0  0  0  0  0  0  0  0  0
  141.1620   73.0090  218.9470 O   0  0  0  0  0  0  0  0  0  0  0  0
  143.3280   73.5440  219.6710 N   0  0  0  0  0  0  0  0  0  0  0  0
  144.2200   72.9830  218.6890 C   0  0  0  0  0  0  0  0  0  0  0  0
  145.5530   72.8760  219.3760 C   0  0  2  0  0  0  0  0  0  0  0  0
  145.8310   71.5560  219.7330 F   0  0  0  0  0  0  0  0  0  0  0  0
  145.4400   73.7580  220.5640 C   0  0  0  0  0  0  0  0  0  0  0  0
  144.1480   74.4370  220.4800 C   0  0  1  0  0  0  0  0  0  0  0  0
  144.0700   75.8390  219.9910 C   0  0  0  0  0  0  0  0  0  0  0  0
  142.9480   76.3820  219.5390 O   0  0  0  0  0  0  0  0  0  0  0  0
  142.3560   77.4440  219.0020 C   0  0  0  0  0  0  0  0  0  0  0  0
  142.1350   78.5470  219.8610 C   0  0  0  0  0  0  0  0  0  0  0  0
  141.5370   79.6990  219.4280 C   0  0  0  0  0  0  0  0  0  0  0  0
  141.1320   79.8040  218.1200 C   0  0  0  0  0  0  0  0  0  0  0  0
  140.3620   81.2520  217.5090 Cl  0  0  0  0  0  0  0  0  0  0  0  0
  141.3200   78.7680  217.2390 C   0  0  0  0  0  0  0  0  0  0  0  0
  141.9230   77.6280  217.7120 C   0  0  0  0  0  0  0  0  0  0  0  0
  140.2430   77.0000  222.4000 C   0  0  0  0  0  0  0  0  0  0  0  0
  139.0990   77.7370  222.4020 C   0  0  0  0  0  0  0  0  0  0  0  0
  139.1510   79.0970  222.6920 C   0  0  0  0  0  0  0  0  0  0  0  0
  140.3750   79.6680  222.9740 C   0  0  0  0  0  0  0  0  0  0  0  0
  140.5010   81.0080  223.2700 C   0  0  0  0  0  0  0  0  0  0  0  0
  141.7430   81.5560  223.5490 C   0  0  0  0  0  0  0  0  0  0  0  0
  142.9010   80.7950  223.5440 C   0  0  0  0  0  0  0  0  0  0  0  0
  142.7360   79.4500  223.2420 C   0  0  0  0  0  0  0  0  0  0  0  0
  141.5010   78.9000  222.9630 C   0  0  0  0  0  0  0  0  0  0  0  0
  141.4400   77.5790  222.6800 N   0  0  0  0  0  0  0  0  0  0  0  0
  142.1770   75.5160  221.3910 H   0  0  0  0  0  0  0  0  0  0  0  0
  141.9266   72.9374  221.9731 H   0  0  0  0  0  0  0  0  0  0  0  0
  140.3097   73.0963  221.2425 H   0  0  0  0  0  0  0  0  0  0  0  0
  143.8689   71.9896  218.3730 H   0  0  0  0  0  0  0  0  0  0  0  0
  144.2751   73.6050  217.7834 H   0  0  0  0  0  0  0  0  0  0  0  0
  146.3842   73.1813  218.7234 H   0  0  0  0  0  0  0  0  0  0  0  0
  145.4908   73.1580  221.4845 H   0  0  0  0  0  0  0  0  0  0  0  0
  146.2627   74.4878  220.5869 H   0  0  0  0  0  0  0  0  0  0  0  0
  143.8119   74.6049  221.5138 H   0  0  0  0  0  0  0  0  0  0  0  0
  144.3974   76.4716  220.8292 H   0  0  0  0  0  0  0  0  0  0  0  0
  144.6762   75.7880  219.0746 H   0  0  0  0  0  0  0  0  0  0  0  0
  142.4545   78.4757  220.9112 H   0  0  0  0  0  0  0  0  0  0  0  0
  141.3815   80.5366  220.1239 H   0  0  0  0  0  0  0  0  0  0  0  0
  140.9987   78.8481  216.1900 H   0  0  0  0  0  0  0  0  0  0  0  0
  142.0702   76.7995  217.0035 H   0  0  0  0  0  0  0  0  0  0  0  0
  138.1349   77.2585  222.1748 H   0  0  0  0  0  0  0  0  0  0  0  0
  138.2343   79.7049  222.6963 H   0  0  0  0  0  0  0  0  0  0  0  0
  139.6071   81.6489  223.2850 H   0  0  0  0  0  0  0  0  0  0  0  0
  141.8117   82.6289  223.7817 H   0  0  0  0  0  0  0  0  0  0  0  0
  143.8875   81.2286  223.7651 H   0  0  0  0  0  0  0  0  0  0  0  0
  143.6221   78.7985  223.2244 H   0  0  0  0  0  0  0  0  0  0  0  0
  1  2  2  0
  2  3  1  0
  3  4  1  0
  4  5  1  0
  5  6  2  0
  5  7  1  0
  7  8  1  0
  8  9  1  0
  9 10  1  0
  9 11  1  0
 11 12  1  0
 12 13  1  0
 13 14  1  0
 14 15  1  0
 15 16  2  0
 16 17  1  0
 17 18  2  0
 18 19  1  0
 18 20  1  0
 20 21  2  0
  2 22  1  0
 22 23  2  0
 23 24  1  0
 24 25  2  0
 25 26  1  0
 26 27  2  0
 27 28  1  0
 28 29  2  0
 29 30  1  0
 30 31  2  0
 12  7  1  0
 21 15  1  0
 31 22  1  0
 30 25  1  0
  3 32  1  0
  4 33  1  0
  4 34  1  0
  8 35  1  0
  8 36  1  0
  9 37  1  6
 11 38  1  0
 11 39  1  0
 12 40  1  1
 13 41  1  0
 13 42  1  0
 16 43  1  0
 17 44  1  0
 20 45  1  0
 21 46  1  0
 23 47  1  0
 24 48  1  0
 26 49  1  0
 27 50  1  0
 28 51  1  0
 29 52  1  0
M  END
>  <smiles>  (46) 
O=C(NCC(=O)N1C[C@H](F)C[C@H]1COc1ccc(Cl)cc1)c1ccc2ccccc2n1

>  <score_type>  (46) 
oracle

>  <origin>  (46) 
autodockgpu

>  <m_score__min__energy>  (46) 
-8.1600000000000001

>  <m_primary>  (46) 
energy

>  <rmsd>  (46) 
7.748324863945663

>  <m_score__min__rmsd>  (46) 
7.748324863945663

>  <meeko>  (46) 
{"free_energy": -6.51, "intermolecular_energy": -8.6, "internal_energy": -3.42, "cluster_size": 9, "cluster_id": 8, "rank_in_cluster": 4}

>  <energy>  (46) 
-6.23

>  <cluster_rmsd>  (46) 
1.27

>  <cluster>  (46) 
8

$$$$

     RDKit          3D

 52 55  0  0  0  0  0  0  0  0999 V2000
  138.0870   70.5330  221.9170 O   0  0  0  0  0  0  0  0  0  0  0  0
  138.6900   71.1110  222.8500 C   0  0  0  0  0  0  0  0  0  0  0  0
  138.9580   72.5120  222.6950 N   0  0  0  0  0  0  0  0  0  0  0  0
  138.5520   73.2480  221.5120 C   0  0  0  0  0  0  0  0  0  0  0  0
  139.5710   74.3010  221.2720 C   0  0  0  0  0  0  0  0  0  0  0  0
  140.2330   74.6870  222.2720 O   0  0  0  0  0  0  0  0  0  0  0  0
  139.7810   74.8390  219.9750 N   0  0  0  0  0  0  0  0  0  0  0  0
  138.8410   75.3560  219.0130 C   0  0  0  0  0  0  0  0  0  0  0  0
  139.4200   75.0150  217.6680 C   0  0  2  0  0  0  0  0  0  0  0  0
  138.7440   73.9420  217.0860 F   0  0  0  0  0  0  0  0  0  0  0  0
  140.8430   74.6920  217.9370 C   0  0  0  0  0  0  0  0  0  0  0  0
  141.0910   74.9670  219.3510 C   0  0  1  0  0  0  0  0  0  0  0  0
  141.7670   76.2270  219.7610 C   0  0  0  0  0  0  0  0  0  0  0  0
  141.2410   77.0750  220.6350 O   0  0  0  0  0  0  0  0  0  0  0  0
  141.4520   78.0490  221.5140 C   0  0  0  0  0  0  0  0  0  0  0  0
  141.8370   79.3050  220.9870 C   0  0  0  0  0  0  0  0  0  0  0  0
  142.0800   80.3880  221.7860 C   0  0  0  0  0  0  0  0  0  0  0  0
  141.9510   80.2680  223.1490 C   0  0  0  0  0  0  0  0  0  0  0  0
  142.2490   81.6180  224.2230 Cl  0  0  0  0  0  0  0  0  0  0  0  0
  141.5800   79.0750  223.7200 C   0  0  0  0  0  0  0  0  0  0  0  0
  141.3450   78.0120  222.8830 C   0  0  0  0  0  0  0  0  0  0  0  0
  139.1160   70.4080  224.0580 C   0  0  0  0  0  0  0  0  0  0  0  0
  138.9050   69.0680  224.1770 C   0  0  0  0  0  0  0  0  0  0  0  0
  139.3120   68.4030  225.3300 C   0  0  0  0  0  0  0  0  0  0  0  0
  139.9240   69.1270  226.3310 C   0  0  0  0  0  0  0  0  0  0  0  0
  140.3520   68.5340  227.5000 C   0  0  0  0  0  0  0  0  0  0  0  0
  140.9650   69.2860  228.4910 C   0  0  0  0  0  0  0  0  0  0  0  0
  141.1740   70.6490  228.3570 C   0  0  0  0  0  0  0  0  0  0  0  0
  140.7300   71.2120  227.1670 C   0  0  0  0  0  0  0  0  0  0  0  0
  140.1190   70.4680  226.1780 C   0  0  0  0  0  0  0  0  0  0  0  0
  139.7200   71.1040  225.0540 N   0  0  0  0  0  0  0  0  0  0  0  0
  139.4610   72.9600  223.4920 H   0  0  0  0  0  0  0  0  0  0  0  0
  138.5007   72.5704  220.6470 H   0  0  0  0  0  0  0  0  0  0  0  0
  137.5576   73.6957  221.6557 H   0  0  0  0  0  0  0  0  0  0  0  0
  137.8578   74.8797  219.1410 H   0  0  0  0  0  0  0  0  0  0  0  0
  138.6883   76.4390  219.1306 H   0  0  0  0  0  0  0  0  0  0  0  0
  139.3225   75.8429  216.9503 H   0  0  0  0  0  0  0  0  0  0  0  0
  141.0357   73.6309  217.7204 H   0  0  0  0  0  0  0  0  0  0  0  0
  141.5066   75.2957  217.3005 H   0  0  0  0  0  0  0  0  0  0  0  0
  141.8598   74.2526  219.6805 H   0  0  0  0  0  0  0  0  0  0  0  0
  142.7407   75.9279  220.1764 H   0  0  0  0  0  0  0  0  0  0  0  0
  141.7252   76.8132  218.8312 H   0  0  0  0  0  0  0  0  0  0  0  0
  141.9444   79.4137  219.8977 H   0  0  0  0  0  0  0  0  0  0  0  0
  142.3768   81.3490  221.3406 H   0  0  0  0  0  0  0  0  0  0  0  0
  141.4748   78.9746  224.8103 H   0  0  0  0  0  0  0  0  0  0  0  0
  141.0485   77.0582  223.3439 H   0  0  0  0  0  0  0  0  0  0  0  0
  138.4143   68.5126  223.3641 H   0  0  0  0  0  0  0  0  0  0  0  0
  139.1485   67.3208  225.4404 H   0  0  0  0  0  0  0  0  0  0  0  0
  140.2058   67.4538  227.6480 H   0  0  0  0  0  0  0  0  0  0  0  0
  141.2957   68.7845  229.4125 H   0  0  0  0  0  0  0  0  0  0  0  0
  141.6601   71.2468  229.1421 H   0  0  0  0  0  0  0  0  0  0  0  0
  140.8707   72.2912  227.0070 H   0  0  0  0  0  0  0  0  0  0  0  0
  1  2  2  0
  2  3  1  0
  3  4  1  0
  4  5  1  0
  5  6  2  0
  5  7  1  0
  7  8  1  0
  8  9  1  0
  9 10  1  0
  9 11  1  0
 11 12  1  0
 12 13  1  0
 13 14  1  0
 14 15  1  0
 15 16  2  0
 16 17  1  0
 17 18  2  0
 18 19  1  0
 18 20  1  0
 20 21  2  0
  2 22  1  0
 22 23  2  0
 23 24  1  0
 24 25  2  0
 25 26  1  0
 26 27  2  0
 27 28  1  0
 28 29  2  0
 29 30  1  0
 30 31  2  0
 12  7  1  0
 21 15  1  0
 31 22  1  0
 30 25  1  0
  3 32  1  0
  4 33  1  0
  4 34  1  0
  8 35  1  0
  8 36  1  0
  9 37  1  6
 11 38  1  0
 11 39  1  0
 12 40  1  1
 13 41  1  0
 13 42  1  0
 16 43  1  0
 17 44  1  0
 20 45  1  0
 21 46  1  0
 23 47  1  0
 24 48  1  0
 26 49  1  0
 27 50  1  0
 28 51  1  0
 29 52  1  0
M  END
>  <smiles>  (47) 
O=C(NCC(=O)N1C[C@H](F)C[C@H]1COc1ccc(Cl)cc1)c1ccc2ccccc2n1

>  <score_type>  (47) 
oracle

>  <origin>  (47) 
autodockgpu

>  <m_score__min__energy>  (47) 
-8.1600000000000001

>  <m_primary>  (47) 
energy

>  <rmsd>  (47) 
1.375486456233583

>  <m_score__min__rmsd>  (47) 
1.375486456233583

>  <meeko>  (47) 
{"free_energy": -8.05, "intermolecular_energy": -10.14, "internal_energy": -2.23, "cluster_size": 10, "cluster_id": 2, "rank_in_cluster": 2}

>  <energy>  (47) 
-6.18

>  <cluster_rmsd>  (47) 
1.41

>  <cluster>  (47) 
8

$$$$

     RDKit          3D

 52 55  0  0  0  0  0  0  0  0999 V2000
  139.6390   71.1560  221.2730 O   0  0  0  0  0  0  0  0  0  0  0  0
  139.6950   71.7780  222.3590 C   0  0  0  0  0  0  0  0  0  0  0  0
  139.5940   73.2080  222.3070 N   0  0  0  0  0  0  0  0  0  0  0  0
  139.4330   73.9250  221.0550 C   0  0  0  0  0  0  0  0  0  0  0  0
  140.0900   75.2470  221.2120 C   0  0  0  0  0  0  0  0  0  0  0  0
  140.6630   75.4680  222.3120 O   0  0  0  0  0  0  0  0  0  0  0  0
  140.0670   76.2070  220.1670 N   0  0  0  0  0  0  0  0  0  0  0  0
  140.6850   77.5060  220.0760 C   0  0  0  0  0  0  0  0  0  0  0  0
  139.7430   78.3390  219.2520 C   0  0  2  0  0  0  0  0  0  0  0  0
  139.0270   79.2290  220.0530 F   0  0  0  0  0  0  0  0  0  0  0  0
  138.8540   77.3570  218.5830 C   0  0  0  0  0  0  0  0  0  0  0  0
  139.3550   76.0240  218.9090 C   0  0  1  0  0  0  0  0  0  0  0  0
  140.1770   75.2720  217.9240 C   0  0  0  0  0  0  0  0  0  0  0  0
  141.4830   75.0890  218.0660 O   0  0  0  0  0  0  0  0  0  0  0  0
  142.4710   74.6200  218.8220 C   0  0  0  0  0  0  0  0  0  0  0  0
  143.3760   75.5740  219.3440 C   0  0  0  0  0  0  0  0  0  0  0  0
  144.4330   75.2190  220.1360 C   0  0  0  0  0  0  0  0  0  0  0  0
  144.6360   73.8950  220.4440 C   0  0  0  0  0  0  0  0  0  0  0  0
  145.9700   73.3810  221.4530 Cl  0  0  0  0  0  0  0  0  0  0  0  0
  143.7910   72.9240  219.9680 C   0  0  0  0  0  0  0  0  0  0  0  0
  142.7420   73.3210  219.1750 C   0  0  0  0  0  0  0  0  0  0  0  0
  139.8560   71.0950  223.6400 C   0  0  0  0  0  0  0  0  0  0  0  0
  139.5020   69.7880  223.7660 C   0  0  0  0  0  0  0  0  0  0  0  0
  139.6570   69.1420  224.9890 C   0  0  0  0  0  0  0  0  0  0  0  0
  140.1720   69.8530  226.0530 C   0  0  0  0  0  0  0  0  0  0  0  0
  140.3530   69.2780  227.2920 C   0  0  0  0  0  0  0  0  0  0  0  0
  140.8730   70.0170  228.3450 C   0  0  0  0  0  0  0  0  0  0  0  0
  141.2300   71.3480  228.2040 C   0  0  0  0  0  0  0  0  0  0  0  0
  141.0340   71.8940  226.9420 C   0  0  0  0  0  0  0  0  0  0  0  0
  140.5160   71.1630  225.8910 C   0  0  0  0  0  0  0  0  0  0  0  0
  140.3610   71.7800  224.6980 N   0  0  0  0  0  0  0  0  0  0  0  0
  139.6440   73.6920  223.2300 H   0  0  0  0  0  0  0  0  0  0  0  0
  139.9082   73.3640  220.2368 H   0  0  0  0  0  0  0  0  0  0  0  0
  138.3671   74.0477  220.8123 H   0  0  0  0  0  0  0  0  0  0  0  0
  140.8104   77.9436  221.0774 H   0  0  0  0  0  0  0  0  0  0  0  0
  141.6862   77.4521  219.6236 H   0  0  0  0  0  0  0  0  0  0  0  0
  140.2718   78.9682  218.5209 H   0  0  0  0  0  0  0  0  0  0  0  0
  137.8233   77.4717  218.9496 H   0  0  0  0  0  0  0  0  0  0  0  0
  138.8487   77.5153  217.4945 H   0  0  0  0  0  0  0  0  0  0  0  0
  138.4804   75.3574  218.9367 H   0  0  0  0  0  0  0  0  0  0  0  0
  139.7344   74.2668  217.8638 H   0  0  0  0  0  0  0  0  0  0  0  0
  140.1409   75.9395  217.0504 H   0  0  0  0  0  0  0  0  0  0  0  0
  143.2244   76.6369  219.1048 H   0  0  0  0  0  0  0  0  0  0  0  0
  145.1165   75.9885  220.5242 H   0  0  0  0  0  0  0  0  0  0  0  0
  143.9485   71.8633  220.2133 H   0  0  0  0  0  0  0  0  0  0  0  0
  142.0683   72.5394  218.7940 H   0  0  0  0  0  0  0  0  0  0  0  0
  139.0938   69.2422  222.9026 H   0  0  0  0  0  0  0  0  0  0  0  0
  139.3744   68.0853  225.1049 H   0  0  0  0  0  0  0  0  0  0  0  0
  140.0827   68.2232  227.4478 H   0  0  0  0  0  0  0  0  0  0  0  0
  141.0060   69.5306  229.3226 H   0  0  0  0  0  0  0  0  0  0  0  0
  141.6423   71.9349  229.0380 H   0  0  0  0  0  0  0  0  0  0  0  0
  141.3012   72.9476  226.7734 H   0  0  0  0  0  0  0  0  0  0  0  0
  1  2  2  0
  2  3  1  0
  3  4  1  0
  4  5  1  0
  5  6  2  0
  5  7  1  0
  7  8  1  0
  8  9  1  0
  9 10  1  0
  9 11  1  0
 11 12  1  0
 12 13  1  0
 13 14  1  0
 14 15  1  0
 15 16  2  0
 16 17  1  0
 17 18  2  0
 18 19  1  0
 18 20  1  0
 20 21  2  0
  2 22  1  0
 22 23  2  0
 23 24  1  0
 24 25  2  0
 25 26  1  0
 26 27  2  0
 27 28  1  0
 28 29  2  0
 29 30  1  0
 30 31  2  0
 12  7  1  0
 21 15  1  0
 31 22  1  0
 30 25  1  0
  3 32  1  0
  4 33  1  0
  4 34  1  0
  8 35  1  0
  8 36  1  0
  9 37  1  6
 11 38  1  0
 11 39  1  0
 12 40  1  1
 13 41  1  0
 13 42  1  0
 16 43  1  0
 17 44  1  0
 20 45  1  0
 21 46  1  0
 23 47  1  0
 24 48  1  0
 26 49  1  0
 27 50  1  0
 28 51  1  0
 29 52  1  0
M  END
>  <smiles>  (48) 
O=C(NCC(=O)N1C[C@H](F)C[C@H]1COc1ccc(Cl)cc1)c1ccc2ccccc2n1

>  <score_type>  (48) 
oracle

>  <origin>  (48) 
autodockgpu

>  <m_score__min__energy>  (48) 
-8.1600000000000001

>  <m_primary>  (48) 
energy

>  <rmsd>  (48) 
2.0219286578772273

>  <m_score__min__rmsd>  (48) 
2.0219286578772273

>  <meeko>  (48) 
{"free_energy": -7.37, "intermolecular_energy": -9.46, "internal_energy": -2.75, "cluster_size": 19, "cluster_id": 1, "rank_in_cluster": 18}

>  <energy>  (48) 
-6.14

>  <cluster_rmsd>  (48) 
1.3

>  <cluster>  (48) 
8

$$$$

     RDKit          3D

 52 55  0  0  0  0  0  0  0  0999 V2000
  138.4120   75.5250  222.5560 O   0  0  0  0  0  0  0  0  0  0  0  0
  139.5170   76.0510  222.2870 C   0  0  0  0  0  0  0  0  0  0  0  0
  140.4650   75.2600  221.5580 N   0  0  0  0  0  0  0  0  0  0  0  0
  140.1750   73.9010  221.1370 C   0  0  0  0  0  0  0  0  0  0  0  0
  141.4430   73.1340  221.2060 C   0  0  0  0  0  0  0  0  0  0  0  0
  141.4640   72.1410  221.9810 O   0  0  0  0  0  0  0  0  0  0  0  0
  142.5730   73.5110  220.4330 N   0  0  0  0  0  0  0  0  0  0  0  0
  143.5260   72.7040  219.7150 C   0  0  0  0  0  0  0  0  0  0  0  0
  144.8280   73.4510  219.8040 C   0  0  2  0  0  0  0  0  0  0  0  0
  145.6890   72.8550  220.7260 F   0  0  0  0  0  0  0  0  0  0  0  0
  144.4490   74.8270  220.2100 C   0  0  0  0  0  0  0  0  0  0  0  0
  142.9890   74.8910  220.2210 C   0  0  1  0  0  0  0  0  0  0  0  0
  142.2580   75.5100  219.0820 C   0  0  0  0  0  0  0  0  0  0  0  0
  141.4100   76.5180  219.2340 O   0  0  0  0  0  0  0  0  0  0  0  0
  141.2470   77.8190  219.4500 C   0  0  0  0  0  0  0  0  0  0  0  0
  139.9150   78.2730  219.6020 C   0  0  0  0  0  0  0  0  0  0  0  0
  139.6140   79.5880  219.8300 C   0  0  0  0  0  0  0  0  0  0  0  0
  140.6290   80.5110  219.9160 C   0  0  0  0  0  0  0  0  0  0  0  0
  140.3060   82.2070  220.2070 Cl  0  0  0  0  0  0  0  0  0  0  0  0
  141.9410   80.1310  219.7780 C   0  0  0  0  0  0  0  0  0  0  0  0
  142.2010   78.8020  219.5500 C   0  0  0  0  0  0  0  0  0  0  0  0
  139.8480   77.4150  222.6910 C   0  0  0  0  0  0  0  0  0  0  0  0
  138.8600   78.2850  223.0370 C   0  0  0  0  0  0  0  0  0  0  0  0
  139.1820   79.5830  223.4210 C   0  0  0  0  0  0  0  0  0  0  0  0
  140.5090   79.9580  223.4400 C   0  0  0  0  0  0  0  0  0  0  0  0
  140.9000   81.2270  223.8090 C   0  0  0  0  0  0  0  0  0  0  0  0
  142.2420   81.5780  223.8200 C   0  0  0  0  0  0  0  0  0  0  0  0
  143.2390   80.6840  223.4650 C   0  0  0  0  0  0  0  0  0  0  0  0
  142.8080   79.4150  223.0990 C   0  0  0  0  0  0  0  0  0  0  0  0
  141.4730   79.0620  223.0870 C   0  0  0  0  0  0  0  0  0  0  0  0
  141.1500   77.8020  222.7160 N   0  0  0  0  0  0  0  0  0  0  0  0
  141.3730   75.7320  221.3510 H   0  0  0  0  0  0  0  0  0  0  0  0
  139.4270   73.4516  221.8068 H   0  0  0  0  0  0  0  0  0  0  0  0
  139.7699   73.8897  220.1144 H   0  0  0  0  0  0  0  0  0  0  0  0
  143.6187   71.7118  220.1809 H   0  0  0  0  0  0  0  0  0  0  0  0
  143.2191   72.5391  218.6716 H   0  0  0  0  0  0  0  0  0  0  0  0
  145.3770   73.4473  218.8508 H   0  0  0  0  0  0  0  0  0  0  0  0
  144.8428   75.0451  221.2137 H   0  0  0  0  0  0  0  0  0  0  0  0
  144.8657   75.5675  219.5115 H   0  0  0  0  0  0  0  0  0  0  0  0
  142.7110   75.6102  221.0055 H   0  0  0  0  0  0  0  0  0  0  0  0
  143.0295   75.8649  218.3829 H   0  0  0  0  0  0  0  0  0  0  0  0
  141.5822   74.6951  218.7834 H   0  0  0  0  0  0  0  0  0  0  0  0
  139.0941   77.5439  219.5345 H   0  0  0  0  0  0  0  0  0  0  0  0
  138.5667   79.9046  219.9437 H   0  0  0  0  0  0  0  0  0  0  0  0
  142.7563   80.8661  219.8477 H   0  0  0  0  0  0  0  0  0  0  0  0
  143.2534   78.5019  219.4390 H   0  0  0  0  0  0  0  0  0  0  0  0
  137.8086   77.9624  223.0131 H   0  0  0  0  0  0  0  0  0  0  0  0
  138.3936   80.2961  223.7039 H   0  0  0  0  0  0  0  0  0  0  0  0
  140.1406   81.9686  224.0976 H   0  0  0  0  0  0  0  0  0  0  0  0
  142.5234   82.5982  224.1200 H   0  0  0  0  0  0  0  0  0  0  0  0
  144.3035   80.9611  223.4724 H   0  0  0  0  0  0  0  0  0  0  0  0
  143.5574   78.6641  222.8082 H   0  0  0  0  0  0  0  0  0  0  0  0
  1  2  2  0
  2  3  1  0
  3  4  1  0
  4  5  1  0
  5  6  2  0
  5  7  1  0
  7  8  1  0
  8  9  1  0
  9 10  1  0
  9 11  1  0
 11 12  1  0
 12 13  1  0
 13 14  1  0
 14 15  1  0
 15 16  2  0
 16 17  1  0
 17 18  2  0
 18 19  1  0
 18 20  1  0
 20 21  2  0
  2 22  1  0
 22 23  2  0
 23 24  1  0
 24 25  2  0
 25 26  1  0
 26 27  2  0
 27 28  1  0
 28 29  2  0
 29 30  1  0
 30 31  2  0
 12  7  1  0
 21 15  1  0
 31 22  1  0
 30 25  1  0
  3 32  1  0
  4 33  1  0
  4 34  1  0
  8 35  1  0
  8 36  1  0
  9 37  1  6
 11 38  1  0
 11 39  1  0
 12 40  1  1
 13 41  1  0
 13 42  1  0
 16 43  1  0
 17 44  1  0
 20 45  1  0
 21 46  1  0
 23 47  1  0
 24 48  1  0
 26 49  1  0
 27 50  1  0
 28 51  1  0
 29 52  1  0
M  END
>  <smiles>  (49) 
O=C(NCC(=O)N1C[C@H](F)C[C@H]1COc1ccc(Cl)cc1)c1ccc2ccccc2n1

>  <score_type>  (49) 
oracle

>  <origin>  (49) 
autodockgpu

>  <m_score__min__energy>  (49) 
-8.1600000000000001

>  <m_primary>  (49) 
energy

>  <rmsd>  (49) 
7.611968495034838

>  <m_score__min__rmsd>  (49) 
7.611968495034838

>  <meeko>  (49) 
{"free_energy": -6.23, "intermolecular_energy": -8.32, "internal_energy": -3.84, "cluster_size": 9, "cluster_id": 8, "rank_in_cluster": 5}

>  <energy>  (49) 
-6.07

>  <cluster_rmsd>  (49) 
1.41

>  <cluster>  (49) 
8

$$$$

     RDKit          3D

 52 55  0  0  0  0  0  0  0  0999 V2000
  139.2170   74.8400  222.3370 O   0  0  0  0  0  0  0  0  0  0  0  0
  140.2260   75.5500  222.1220 C   0  0  0  0  0  0  0  0  0  0  0  0
  141.3770   74.9080  221.5550 N   0  0  0  0  0  0  0  0  0  0  0  0
  141.3900   73.4920  221.2350 C   0  0  0  0  0  0  0  0  0  0  0  0
  141.8570   73.3580  219.8320 C   0  0  0  0  0  0  0  0  0  0  0  0
  140.9960   73.0150  218.9790 O   0  0  0  0  0  0  0  0  0  0  0  0
  143.2100   73.6050  219.4810 N   0  0  0  0  0  0  0  0  0  0  0  0
  143.9870   73.1370  218.3620 C   0  0  0  0  0  0  0  0  0  0  0  0
  145.3910   72.9990  218.8810 C   0  0  2  0  0  0  0  0  0  0  0  0
  145.7180   71.6590  219.0970 F   0  0  0  0  0  0  0  0  0  0  0  0
  145.4090   73.7820  220.1410 C   0  0  0  0  0  0  0  0  0  0  0  0
  144.1110   74.4440  220.2600 C   0  0  1  0  0  0  0  0  0  0  0  0
  143.9670   75.8800  219.8970 C   0  0  0  0  0  0  0  0  0  0  0  0
  142.8250   76.4040  219.4760 O   0  0  0  0  0  0  0  0  0  0  0  0
  142.1090   77.5040  219.2660 C   0  0  0  0  0  0  0  0  0  0  0  0
  140.7030   77.3710  219.3540 C   0  0  0  0  0  0  0  0  0  0  0  0
  139.8560   78.4280  219.1620 C   0  0  0  0  0  0  0  0  0  0  0  0
  140.3740   79.6680  218.8720 C   0  0  0  0  0  0  0  0  0  0  0  0
  139.3410   81.0580  218.6170 Cl  0  0  0  0  0  0  0  0  0  0  0  0
  141.7300   79.8600  218.7750 C   0  0  0  0  0  0  0  0  0  0  0  0
  142.5450   78.7730  218.9740 C   0  0  0  0  0  0  0  0  0  0  0  0
  140.2540   76.9780  222.4290 C   0  0  0  0  0  0  0  0  0  0  0  0
  139.0900   77.6700  222.5660 C   0  0  0  0  0  0  0  0  0  0  0  0
  139.1220   79.0300  222.8580 C   0  0  0  0  0  0  0  0  0  0  0  0
  140.3470   79.6470  223.0030 C   0  0  0  0  0  0  0  0  0  0  0  0
  140.4540   80.9910  223.2920 C   0  0  0  0  0  0  0  0  0  0  0  0
  141.6990   81.5860  223.4320 C   0  0  0  0  0  0  0  0  0  0  0  0
  142.8770   80.8710  223.2910 C   0  0  0  0  0  0  0  0  0  0  0  0
  142.7310   79.5200  223.0000 C   0  0  0  0  0  0  0  0  0  0  0  0
  141.4940   78.9230  222.8590 C   0  0  0  0  0  0  0  0  0  0  0  0
  141.4510   77.6020  222.5750 N   0  0  0  0  0  0  0  0  0  0  0  0
  142.1980   75.5300  221.3890 H   0  0  0  0  0  0  0  0  0  0  0  0
  142.0749   72.9599  221.9116 H   0  0  0  0  0  0  0  0  0  0  0  0
  140.3862   73.0579  221.3533 H   0  0  0  0  0  0  0  0  0  0  0  0
  143.6093   72.1655  218.0106 H   0  0  0  0  0  0  0  0  0  0  0  0
  143.9325   73.8285  217.5083 H   0  0  0  0  0  0  0  0  0  0  0  0
  146.1390   73.3691  218.1644 H   0  0  0  0  0  0  0  0  0  0  0  0
  145.5698   73.1119  220.9984 H   0  0  0  0  0  0  0  0  0  0  0  0
  146.2235   74.5212  220.1286 H   0  0  0  0  0  0  0  0  0  0  0  0
  143.8950   74.5237  221.3356 H   0  0  0  0  0  0  0  0  0  0  0  0
  144.2503   76.4500  220.7942 H   0  0  0  0  0  0  0  0  0  0  0  0
  144.5871   75.9428  218.9906 H   0  0  0  0  0  0  0  0  0  0  0  0
  140.2764   76.3837  219.5847 H   0  0  0  0  0  0  0  0  0  0  0  0
  138.7678   78.2867  219.2391 H   0  0  0  0  0  0  0  0  0  0  0  0
  142.1492   80.8508  218.5457 H   0  0  0  0  0  0  0  0  0  0  0  0
  143.6306   78.9309  218.8933 H   0  0  0  0  0  0  0  0  0  0  0  0
  138.1255   77.1549  222.4460 H   0  0  0  0  0  0  0  0  0  0  0  0
  138.1890   79.6017  222.9710 H   0  0  0  0  0  0  0  0  0  0  0  0
  139.5437   81.5967  223.4126 H   0  0  0  0  0  0  0  0  0  0  0  0
  141.7527   82.6603  223.6624 H   0  0  0  0  0  0  0  0  0  0  0  0
  143.8646   81.3424  223.4022 H   0  0  0  0  0  0  0  0  0  0  0  0
  143.6339   78.9037  222.8775 H   0  0  0  0  0  0  0  0  0  0  0  0
  1  2  2  0
  2  3  1  0
  3  4  1  0
  4  5  1  0
  5  6  2  0
  5  7  1  0
  7  8  1  0
  8  9  1  0
  9 10  1  0
  9 11  1  0
 11 12  1  0
 12 13  1  0
 13 14  1  0
 14 15  1  0
 15 16  2  0
 16 17  1  0
 17 18  2  0
 18 19  1  0
 18 20  1  0
 20 21  2  0
  2 22  1  0
 22 23  2  0
 23 24  1  0
 24 25  2  0
 25 26  1  0
 26 27  2  0
 27 28  1  0
 28 29  2  0
 29 30  1  0
 30 31  2  0
 12  7  1  0
 21 15  1  0
 31 22  1  0
 30 25  1  0
  3 32  1  0
  4 33  1  0
  4 34  1  0
  8 35  1  0
  8 36  1  0
  9 37  1  6
 11 38  1  0
 11 39  1  0
 12 40  1  1
 13 41  1  0
 13 42  1  0
 16 43  1  0
 17 44  1  0
 20 45  1  0
 21 46  1  0
 23 47  1  0
 24 48  1  0
 26 49  1  0
 27 50  1  0
 28 51  1  0
 29 52  1  0
M  END
>  <smiles>  (50) 
O=C(NCC(=O)N1C[C@H](F)C[C@H]1COc1ccc(Cl)cc1)c1ccc2ccccc2n1

>  <score_type>  (50) 
oracle

>  <origin>  (50) 
autodockgpu

>  <m_score__min__energy>  (50) 
-8.1600000000000001

>  <m_primary>  (50) 
energy

>  <rmsd>  (50) 
7.712468033874619

>  <m_score__min__rmsd>  (50) 
7.712468033874619

>  <meeko>  (50) 
{"free_energy": -6.14, "intermolecular_energy": -8.23, "internal_energy": -3.9, "cluster_size": 9, "cluster_id": 8, "rank_in_cluster": 8}

>  <energy>  (50) 
-7.2

>  <cluster_rmsd>  (50) 
0.0

>  <cluster>  (50) 
9

$$$$
