
     RDKit          3D

 51 54  0  0  0  0  0  0  0  0999 V2000
  140.9960   72.0390  221.0710 O   0  0  0  0  0  0  0  0  0  0  0  0
  140.4460   72.4480  222.1440 C   0  0  0  0  0  0  0  0  0  0  0  0
  139.9500   73.7670  222.2910 N   0  0  0  0  0  0  0  0  0  0  0  0
  140.0730   74.6800  221.1830 C   0  0  0  0  0  0  0  0  0  0  0  0
  140.7080   75.9670  221.5940 C   0  0  0  0  0  0  0  0  0  0  0  0
  140.3470   76.4350  222.7000 O   0  0  0  0  0  0  0  0  0  0  0  0
  141.6530   76.5600  220.7290 N   0  0  0  0  0  0  0  0  0  0  0  0
  142.4860   75.7110  219.8460 C   0  0  0  0  0  0  0  0  0  0  0  0
  142.3470   76.1790  218.4140 C   0  0  0  0  0  0  0  0  0  0  0  0
  142.2870   77.6570  218.2450 C   0  0  0  0  0  0  0  0  0  0  0  0
  141.3660   78.3620  219.2420 C   0  0  0  0  0  0  0  0  0  0  0  0
  141.8920   77.9800  220.6040 C   0  0  1  0  0  0  0  0  0  0  0  0
  141.4380   78.8090  221.7090 C   0  0  0  0  0  0  0  0  0  0  0  0
  142.2250   79.0880  222.8030 C   0  0  0  0  0  0  0  0  0  0  0  0
  141.7920   79.8700  223.8440 C   0  0  0  0  0  0  0  0  0  0  0  0
  140.5290   80.4250  223.8430 C   0  0  0  0  0  0  0  0  0  0  0  0
  139.7260   80.1660  222.7690 C   0  0  0  0  0  0  0  0  0  0  0  0
  140.1600   79.3790  221.7230 C   0  0  0  0  0  0  0  0  0  0  0  0
  140.3070   71.5380  223.2960 C   0  0  0  0  0  0  0  0  0  0  0  0
  139.7730   70.2710  223.1580 C   0  0  0  0  0  0  0  0  0  0  0  0
  139.6400   69.4130  224.2460 C   0  0  0  0  0  0  0  0  0  0  0  0
  140.0520   69.8370  225.4870 C   0  0  0  0  0  0  0  0  0  0  0  0
  139.9690   69.0750  226.6280 C   0  0  0  0  0  0  0  0  0  0  0  0
  139.3010   67.4630  226.5190 Cl  0  0  0  0  0  0  0  0  0  0  0  0
  140.3940   69.5350  227.8620 C   0  0  0  0  0  0  0  0  0  0  0  0
  140.9250   70.8090  227.9720 C   0  0  0  0  0  0  0  0  0  0  0  0
  141.0180   71.5960  226.8310 C   0  0  0  0  0  0  0  0  0  0  0  0
  140.5840   71.1030  225.6150 C   0  0  0  0  0  0  0  0  0  0  0  0
  140.6910   71.8950  224.5360 N   0  0  0  0  0  0  0  0  0  0  0  0
  139.5000   74.1030  223.1710 H   0  0  0  0  0  0  0  0  0  0  0  0
  140.6903   74.2116  220.4023 H   0  0  0  0  0  0  0  0  0  0  0  0
  139.0628   74.9012  220.8080 H   0  0  0  0  0  0  0  0  0  0  0  0
  143.5392   75.7845  220.1546 H   0  0  0  0  0  0  0  0  0  0  0  0
  142.1520   74.6657  219.9229 H   0  0  0  0  0  0  0  0  0  0  0  0
  143.2110   75.8041  217.8457 H   0  0  0  0  0  0  0  0  0  0  0  0
  141.3860   75.7858  218.0508 H   0  0  0  0  0  0  0  0  0  0  0  0
  143.3029   78.0604  218.3681 H   0  0  0  0  0  0  0  0  0  0  0  0
  141.8739   77.8455  217.2431 H   0  0  0  0  0  0  0  0  0  0  0  0
  141.4098   79.4523  219.1034 H   0  0  0  0  0  0  0  0  0  0  0  0
  140.3144   78.0677  219.1097 H   0  0  0  0  0  0  0  0  0  0  0  0
  142.9697   78.1877  220.6771 H   0  0  0  0  0  0  0  0  0  0  0  0
  143.2407   78.6677  222.8445 H   0  0  0  0  0  0  0  0  0  0  0  0
  142.4639   80.0577  224.6945 H   0  0  0  0  0  0  0  0  0  0  0  0
  140.1815   81.0530  224.6765 H   0  0  0  0  0  0  0  0  0  0  0  0
  138.7130   80.5936  222.7377 H   0  0  0  0  0  0  0  0  0  0  0  0
  139.4828   79.1942  220.8761 H   0  0  0  0  0  0  0  0  0  0  0  0
  139.4450   69.9322  222.1642 H   0  0  0  0  0  0  0  0  0  0  0  0
  139.2108   68.4088  224.1144 H   0  0  0  0  0  0  0  0  0  0  0  0
  140.3104   68.8921  228.7506 H   0  0  0  0  0  0  0  0  0  0  0  0
  141.2670   71.1910  228.9452 H   0  0  0  0  0  0  0  0  0  0  0  0
  141.4369   72.6111  226.8953 H   0  0  0  0  0  0  0  0  0  0  0  0
  1  2  2  0
  2  3  1  0
  3  4  1  0
  4  5  1  0
  5  6  2  0
  5  7  1  0
  7  8  1  0
  8  9  1  0
  9 10  1  0
 10 11  1  0
 11 12  1  0
 12 13  1  0
 13 14  2  0
 14 15  1  0
 15 16  2  0
 16 17  1  0
 17 18  2  0
  2 19  1  0
 19 20  2  0
 20 21  1  0
 21 22  2  0
 22 23  1  0
 23 24  1  0
 23 25  2  0
 25 26  1  0
 26 27  2  0
 27 28  1  0
 28 29  2  0
 12  7  1  0
 18 13  1  0
 29 19  1  0
 28 22  1  0
  3 30  1  0
  4 31  1  0
  4 32  1  0
  8 33  1  0
  8 34  1  0
  9 35  1  0
  9 36  1  0
 10 37  1  0
 10 38  1  0
 11 39  1  0
 11 40  1  0
 12 41  1  6
 14 42  1  0
 15 43  1  0
 16 44  1  0
 17 45  1  0
 18 46  1  0
 20 47  1  0
 21 48  1  0
 25 49  1  0
 26 50  1  0
 27 51  1  0
M  END
>  <smiles>  (1) 
O=C(NCC(=O)N1CCCC[C@H]1c1ccccc1)c1ccc2c(Cl)cccc2n1

>  <score_type>  (1) 
oracle

>  <origin>  (1) 
autodockgpu

>  <m_score__min__energy>  (1) 
-9.5199999999999996

>  <m_primary>  (1) 
energy

>  <rmsd>  (1) 
2.059214312532348

>  <m_score__min__rmsd>  (1) 
2.059214312532348

>  <meeko>  (1) 
{"free_energy": -9.38, "intermolecular_energy": -10.87, "internal_energy": -1.62, "cluster_size": 18, "cluster_id": 1, "rank_in_cluster": 7}

>  <energy>  (1) 
-9.52

>  <cluster_rmsd>  (1) 
0.0

>  <cluster>  (1) 
1

$$$$

     RDKit          3D

 51 54  0  0  0  0  0  0  0  0999 V2000
  139.0180   74.4850  221.5700 O   0  0  0  0  0  0  0  0  0  0  0  0
  140.0710   75.1590  221.8090 C   0  0  0  0  0  0  0  0  0  0  0  0
  141.3720   74.6280  221.6320 N   0  0  0  0  0  0  0  0  0  0  0  0
  141.5080   73.2720  221.1620 C   0  0  0  0  0  0  0  0  0  0  0  0
  141.4610   73.1960  219.6730 C   0  0  0  0  0  0  0  0  0  0  0  0
  141.0620   72.1120  219.1840 O   0  0  0  0  0  0  0  0  0  0  0  0
  141.8610   74.3260  218.9260 N   0  0  0  0  0  0  0  0  0  0  0  0
  140.8970   74.9980  218.0240 C   0  0  0  0  0  0  0  0  0  0  0  0
  140.8290   76.4720  218.3620 C   0  0  0  0  0  0  0  0  0  0  0  0
  142.1380   77.0920  218.7070 C   0  0  0  0  0  0  0  0  0  0  0  0
  142.9920   76.2550  219.6600 C   0  0  0  0  0  0  0  0  0  0  0  0
  143.1750   74.9280  218.9640 C   0  0  1  0  0  0  0  0  0  0  0  0
  144.2500   74.0930  219.4730 C   0  0  0  0  0  0  0  0  0  0  0  0
  144.6540   72.9350  218.8470 C   0  0  0  0  0  0  0  0  0  0  0  0
  145.6710   72.1500  219.3320 C   0  0  0  0  0  0  0  0  0  0  0  0
  146.3470   72.4900  220.4860 C   0  0  0  0  0  0  0  0  0  0  0  0
  145.9690   73.6340  221.1270 C   0  0  0  0  0  0  0  0  0  0  0  0
  144.9470   74.4230  220.6410 C   0  0  0  0  0  0  0  0  0  0  0  0
  139.9650   76.5490  222.2920 C   0  0  0  0  0  0  0  0  0  0  0  0
  138.7420   77.1260  222.5760 C   0  0  0  0  0  0  0  0  0  0  0  0
  138.6420   78.4380  223.0300 C   0  0  0  0  0  0  0  0  0  0  0  0
  139.7890   79.1760  223.2010 C   0  0  0  0  0  0  0  0  0  0  0  0
  139.8090   80.4780  223.6430 C   0  0  0  0  0  0  0  0  0  0  0  0
  138.2930   81.2640  224.0190 Cl  0  0  0  0  0  0  0  0  0  0  0  0
  140.9840   81.1910  223.8040 C   0  0  0  0  0  0  0  0  0  0  0  0
  142.1960   80.5880  223.5120 C   0  0  0  0  0  0  0  0  0  0  0  0
  142.1990   79.2730  223.0630 C   0  0  0  0  0  0  0  0  0  0  0  0
  141.0050   78.5920  222.9150 C   0  0  0  0  0  0  0  0  0  0  0  0
  141.0510   77.3230  222.4790 N   0  0  0  0  0  0  0  0  0  0  0  0
  142.2360   75.1810  221.8290 H   0  0  0  0  0  0  0  0  0  0  0  0
  142.4710   72.8695  221.5091 H   0  0  0  0  0  0  0  0  0  0  0  0
  140.6679   72.6851  221.5616 H   0  0  0  0  0  0  0  0  0  0  0  0
  141.2251   74.8762  216.9812 H   0  0  0  0  0  0  0  0  0  0  0  0
  139.9017   74.5474  218.1516 H   0  0  0  0  0  0  0  0  0  0  0  0
  140.4163   77.0043  217.4923 H   0  0  0  0  0  0  0  0  0  0  0  0
  140.1990   76.5562  219.2598 H   0  0  0  0  0  0  0  0  0  0  0  0
  142.7051   77.2427  217.7765 H   0  0  0  0  0  0  0  0  0  0  0  0
  141.9155   78.0361  219.2258 H   0  0  0  0  0  0  0  0  0  0  0  0
  143.9652   76.7382  219.8315 H   0  0  0  0  0  0  0  0  0  0  0  0
  142.5170   76.1407  220.6456 H   0  0  0  0  0  0  0  0  0  0  0  0
  143.5532   75.0738  217.9414 H   0  0  0  0  0  0  0  0  0  0  0  0
  144.1426   72.6270  217.9231 H   0  0  0  0  0  0  0  0  0  0  0  0
  145.9517   71.2342  218.7912 H   0  0  0  0  0  0  0  0  0  0  0  0
  147.1614   71.8614  220.8753 H   0  0  0  0  0  0  0  0  0  0  0  0
  146.4893   73.9327  222.0490 H   0  0  0  0  0  0  0  0  0  0  0  0
  144.6721   75.3375  221.1870 H   0  0  0  0  0  0  0  0  0  0  0  0
  137.8249   76.5340  222.4400 H   0  0  0  0  0  0  0  0  0  0  0  0
  137.6581   78.8784  223.2490 H   0  0  0  0  0  0  0  0  0  0  0  0
  140.9555   82.2308  224.1619 H   0  0  0  0  0  0  0  0  0  0  0  0
  143.1396   81.1402  223.6333 H   0  0  0  0  0  0  0  0  0  0  0  0
  143.1503   78.7744  222.8256 H   0  0  0  0  0  0  0  0  0  0  0  0
  1  2  2  0
  2  3  1  0
  3  4  1  0
  4  5  1  0
  5  6  2  0
  5  7  1  0
  7  8  1  0
  8  9  1  0
  9 10  1  0
 10 11  1  0
 11 12  1  0
 12 13  1  0
 13 14  2  0
 14 15  1  0
 15 16  2  0
 16 17  1  0
 17 18  2  0
  2 19  1  0
 19 20  2  0
 20 21  1  0
 21 22  2  0
 22 23  1  0
 23 24  1  0
 23 25  2  0
 25 26  1  0
 26 27  2  0
 27 28  1  0
 28 29  2  0
 12  7  1  0
 18 13  1  0
 29 19  1  0
 28 22  1  0
  3 30  1  0
  4 31  1  0
  4 32  1  0
  8 33  1  0
  8 34  1  0
  9 35  1  0
  9 36  1  0
 10 37  1  0
 10 38  1  0
 11 39  1  0
 11 40  1  0
 12 41  1  6
 14 42  1  0
 15 43  1  0
 16 44  1  0
 17 45  1  0
 18 46  1  0
 20 47  1  0
 21 48  1  0
 25 49  1  0
 26 50  1  0
 27 51  1  0
M  END
>  <smiles>  (2) 
O=C(NCC(=O)N1CCCC[C@H]1c1ccccc1)c1ccc2c(Cl)cccc2n1

>  <score_type>  (2) 
oracle

>  <origin>  (2) 
autodockgpu

>  <m_score__min__energy>  (2) 
-9.5199999999999996

>  <m_primary>  (2) 
energy

>  <rmsd>  (2) 
6.566691498442789

>  <m_score__min__rmsd>  (2) 
6.566691498442789

>  <meeko>  (2) 
{"free_energy": -7.46, "intermolecular_energy": -8.95, "internal_energy": -2.49, "cluster_size": 6, "cluster_id": 8, "rank_in_cluster": 5}

>  <energy>  (2) 
-9.46

>  <cluster_rmsd>  (2) 
0.42

>  <cluster>  (2) 
1

$$$$

     RDKit          3D

 51 54  0  0  0  0  0  0  0  0999 V2000
  138.9360   74.5460  221.4980 O   0  0  0  0  0  0  0  0  0  0  0  0
  139.9970   75.2050  221.7470 C   0  0  0  0  0  0  0  0  0  0  0  0
  141.2930   74.6650  221.5560 N   0  0  0  0  0  0  0  0  0  0  0  0
  141.4140   73.3170  221.0590 C   0  0  0  0  0  0  0  0  0  0  0  0
  141.4970   73.2830  219.5690 C   0  0  0  0  0  0  0  0  0  0  0  0
  141.1700   72.2040  219.0200 O   0  0  0  0  0  0  0  0  0  0  0  0
  141.9310   74.4430  218.8910 N   0  0  0  0  0  0  0  0  0  0  0  0
  141.0230   75.1340  217.9470 C   0  0  0  0  0  0  0  0  0  0  0  0
  140.9090   76.5940  218.3290 C   0  0  0  0  0  0  0  0  0  0  0  0
  142.1820   77.2180  218.7840 C   0  0  0  0  0  0  0  0  0  0  0  0
  142.9810   76.3590  219.7660 C   0  0  0  0  0  0  0  0  0  0  0  0
  143.2300   75.0590  219.0400 C   0  0  1  0  0  0  0  0  0  0  0  0
  144.2800   74.2210  219.5940 C   0  0  0  0  0  0  0  0  0  0  0  0
  144.6860   73.0460  219.0020 C   0  0  0  0  0  0  0  0  0  0  0  0
  145.6780   72.2570  219.5290 C   0  0  0  0  0  0  0  0  0  0  0  0
  146.3270   72.6100  220.6950 C   0  0  0  0  0  0  0  0  0  0  0  0
  145.9460   73.7710  221.3040 C   0  0  0  0  0  0  0  0  0  0  0  0
  144.9480   74.5630  220.7750 C   0  0  0  0  0  0  0  0  0  0  0  0
  139.9060   76.5860  222.2580 C   0  0  0  0  0  0  0  0  0  0  0  0
  138.6930   77.1540  222.5970 C   0  0  0  0  0  0  0  0  0  0  0  0
  138.6070   78.4580  223.0780 C   0  0  0  0  0  0  0  0  0  0  0  0
  139.7580   79.1960  223.2180 C   0  0  0  0  0  0  0  0  0  0  0  0
  139.7920   80.4900  223.6820 C   0  0  0  0  0  0  0  0  0  0  0  0
  138.2890   81.2660  224.1280 Cl  0  0  0  0  0  0  0  0  0  0  0  0
  140.9700   81.2040  223.8100 C   0  0  0  0  0  0  0  0  0  0  0  0
  142.1720   80.6110  223.4620 C   0  0  0  0  0  0  0  0  0  0  0  0
  142.1610   79.3030  222.9900 C   0  0  0  0  0  0  0  0  0  0  0  0
  140.9640   78.6210  222.8760 C   0  0  0  0  0  0  0  0  0  0  0  0
  140.9960   77.3600  222.4170 N   0  0  0  0  0  0  0  0  0  0  0  0
  142.1620   75.2050  221.7620 H   0  0  0  0  0  0  0  0  0  0  0  0
  142.3247   72.8634  221.4772 H   0  0  0  0  0  0  0  0  0  0  0  0
  140.5181   72.7570  221.3653 H   0  0  0  0  0  0  0  0  0  0  0  0
  141.4253   75.0529  216.9264 H   0  0  0  0  0  0  0  0  0  0  0  0
  140.0281   74.6667  217.9888 H   0  0  0  0  0  0  0  0  0  0  0  0
  140.5486   77.1509  217.4515 H   0  0  0  0  0  0  0  0  0  0  0  0
  140.2175   76.6391  219.1833 H   0  0  0  0  0  0  0  0  0  0  0  0
  142.8094   77.4073  217.9005 H   0  0  0  0  0  0  0  0  0  0  0  0
  141.9107   78.1411  219.3171 H   0  0  0  0  0  0  0  0  0  0  0  0
  143.9331   76.8477  220.0203 H   0  0  0  0  0  0  0  0  0  0  0  0
  142.4416   76.2055  220.7123 H   0  0  0  0  0  0  0  0  0  0  0  0
  143.6745   75.2437  218.0509 H   0  0  0  0  0  0  0  0  0  0  0  0
  144.1962   72.7270  218.0701 H   0  0  0  0  0  0  0  0  0  0  0  0
  145.9606   71.3274  219.0132 H   0  0  0  0  0  0  0  0  0  0  0  0
  147.1223   71.9788  221.1182 H   0  0  0  0  0  0  0  0  0  0  0  0
  146.4444   74.0809  222.2344 H   0  0  0  0  0  0  0  0  0  0  0  0
  144.6692   75.4904  221.2968 H   0  0  0  0  0  0  0  0  0  0  0  0
  137.7729   76.5618  222.4842 H   0  0  0  0  0  0  0  0  0  0  0  0
  137.6312   78.8915  223.3423 H   0  0  0  0  0  0  0  0  0  0  0  0
  140.9519   82.2375  224.1863 H   0  0  0  0  0  0  0  0  0  0  0  0
  143.1179   81.1643  223.5572 H   0  0  0  0  0  0  0  0  0  0  0  0
  143.1038   78.8116  222.7077 H   0  0  0  0  0  0  0  0  0  0  0  0
  1  2  2  0
  2  3  1  0
  3  4  1  0
  4  5  1  0
  5  6  2  0
  5  7  1  0
  7  8  1  0
  8  9  1  0
  9 10  1  0
 10 11  1  0
 11 12  1  0
 12 13  1  0
 13 14  2  0
 14 15  1  0
 15 16  2  0
 16 17  1  0
 17 18  2  0
  2 19  1  0
 19 20  2  0
 20 21  1  0
 21 22  2  0
 22 23  1  0
 23 24  1  0
 23 25  2  0
 25 26  1  0
 26 27  2  0
 27 28  1  0
 28 29  2  0
 12  7  1  0
 18 13  1  0
 29 19  1  0
 28 22  1  0
  3 30  1  0
  4 31  1  0
  4 32  1  0
  8 33  1  0
  8 34  1  0
  9 35  1  0
  9 36  1  0
 10 37  1  0
 10 38  1  0
 11 39  1  0
 11 40  1  0
 12 41  1  6
 14 42  1  0
 15 43  1  0
 16 44  1  0
 17 45  1  0
 18 46  1  0
 20 47  1  0
 21 48  1  0
 25 49  1  0
 26 50  1  0
 27 51  1  0
M  END
>  <smiles>  (3) 
O=C(NCC(=O)N1CCCC[C@H]1c1ccccc1)c1ccc2c(Cl)cccc2n1

>  <score_type>  (3) 
oracle

>  <origin>  (3) 
autodockgpu

>  <m_score__min__energy>  (3) 
-9.5199999999999996

>  <m_primary>  (3) 
energy

>  <rmsd>  (3) 
6.583227999935107

>  <m_score__min__rmsd>  (3) 
6.583227999935107

>  <meeko>  (3) 
{"free_energy": -7.46, "intermolecular_energy": -8.95, "internal_energy": -2.47, "cluster_size": 6, "cluster_id": 8, "rank_in_cluster": 4}

>  <energy>  (3) 
-9.45

>  <cluster_rmsd>  (3) 
0.36

>  <cluster>  (3) 
1

$$$$

     RDKit          3D

 51 54  0  0  0  0  0  0  0  0999 V2000
  141.1570   72.2990  221.3320 O   0  0  0  0  0  0  0  0  0  0  0  0
  140.3780   72.5880  222.2970 C   0  0  0  0  0  0  0  0  0  0  0  0
  139.5640   73.7470  222.2980 N   0  0  0  0  0  0  0  0  0  0  0  0
  139.6190   74.6330  221.1620 C   0  0  0  0  0  0  0  0  0  0  0  0
  140.2490   75.9400  221.5110 C   0  0  0  0  0  0  0  0  0  0  0  0
  139.6690   76.6180  222.3930 O   0  0  0  0  0  0  0  0  0  0  0  0
  141.4310   76.3210  220.8380 N   0  0  0  0  0  0  0  0  0  0  0  0
  142.2810   75.2940  220.1940 C   0  0  0  0  0  0  0  0  0  0  0  0
  142.5100   75.6610  218.7440 C   0  0  0  0  0  0  0  0  0  0  0  0
  142.7200   77.1150  218.4970 C   0  0  0  0  0  0  0  0  0  0  0  0
  141.7370   78.0210  219.2400 C   0  0  0  0  0  0  0  0  0  0  0  0
  141.9110   77.6770  220.7000 C   0  0  1  0  0  0  0  0  0  0  0  0
  141.3790   78.6470  221.6430 C   0  0  0  0  0  0  0  0  0  0  0  0
  140.4050   79.5590  221.3040 C   0  0  0  0  0  0  0  0  0  0  0  0
  139.9060   80.4730  222.1980 C   0  0  0  0  0  0  0  0  0  0  0  0
  140.3620   80.5210  223.5000 C   0  0  0  0  0  0  0  0  0  0  0  0
  141.3280   79.6280  223.8650 C   0  0  0  0  0  0  0  0  0  0  0  0
  141.8310   78.7100  222.9660 C   0  0  0  0  0  0  0  0  0  0  0  0
  140.3000   71.7020  223.4730 C   0  0  0  0  0  0  0  0  0  0  0  0
  139.8300   70.4060  223.3750 C   0  0  0  0  0  0  0  0  0  0  0  0
  139.7550   69.5710  224.4860 C   0  0  0  0  0  0  0  0  0  0  0  0
  140.1600   70.0480  225.7100 C   0  0  0  0  0  0  0  0  0  0  0  0
  140.1300   69.3130  226.8720 C   0  0  0  0  0  0  0  0  0  0  0  0
  139.5450   67.6660  226.8130 Cl  0  0  0  0  0  0  0  0  0  0  0  0
  140.5460   69.8260  228.0880 C   0  0  0  0  0  0  0  0  0  0  0  0
  141.0120   71.1280  228.1580 C   0  0  0  0  0  0  0  0  0  0  0  0
  141.0500   71.8890  226.9960 C   0  0  0  0  0  0  0  0  0  0  0  0
  140.6270   71.3420  225.7990 C   0  0  0  0  0  0  0  0  0  0  0  0
  140.6810   72.1100  224.6990 N   0  0  0  0  0  0  0  0  0  0  0  0
  138.9250   73.9840  223.0900 H   0  0  0  0  0  0  0  0  0  0  0  0
  140.2079   74.1549  220.3653 H   0  0  0  0  0  0  0  0  0  0  0  0
  138.5889   74.8272  220.8286 H   0  0  0  0  0  0  0  0  0  0  0  0
  143.2482   75.2400  220.7151 H   0  0  0  0  0  0  0  0  0  0  0  0
  141.7783   74.3171  220.2486 H   0  0  0  0  0  0  0  0  0  0  0  0
  143.4005   75.1209  218.3901 H   0  0  0  0  0  0  0  0  0  0  0  0
  141.5930   75.3828  218.2039 H   0  0  0  0  0  0  0  0  0  0  0  0
  143.7398   77.3762  218.8159 H   0  0  0  0  0  0  0  0  0  0  0  0
  142.5563   77.2819  217.4221 H   0  0  0  0  0  0  0  0  0  0  0  0
  141.9769   79.0796  219.0615 H   0  0  0  0  0  0  0  0  0  0  0  0
  140.7012   77.8702  218.9018 H   0  0  0  0  0  0  0  0  0  0  0  0
  142.9706   77.7334  220.9901 H   0  0  0  0  0  0  0  0  0  0  0  0
  140.0115   79.5550  220.2768 H   0  0  0  0  0  0  0  0  0  0  0  0
  139.1290   81.1798  221.8712 H   0  0  0  0  0  0  0  0  0  0  0  0
  139.9615   81.2523  224.2175 H   0  0  0  0  0  0  0  0  0  0  0  0
  141.7127   79.6406  224.8955 H   0  0  0  0  0  0  0  0  0  0  0  0
  142.6095   78.0076  223.2987 H   0  0  0  0  0  0  0  0  0  0  0  0
  139.5073   70.0251  222.3948 H   0  0  0  0  0  0  0  0  0  0  0  0
  139.3767   68.5430  224.3859 H   0  0  0  0  0  0  0  0  0  0  0  0
  140.5067   69.2031  228.9938 H   0  0  0  0  0  0  0  0  0  0  0  0
  141.3461   71.5523  229.1163 H   0  0  0  0  0  0  0  0  0  0  0  0
  141.4163   72.9257  227.0286 H   0  0  0  0  0  0  0  0  0  0  0  0
  1  2  2  0
  2  3  1  0
  3  4  1  0
  4  5  1  0
  5  6  2  0
  5  7  1  0
  7  8  1  0
  8  9  1  0
  9 10  1  0
 10 11  1  0
 11 12  1  0
 12 13  1  0
 13 14  2  0
 14 15  1  0
 15 16  2  0
 16 17  1  0
 17 18  2  0
  2 19  1  0
 19 20  2  0
 20 21  1  0
 21 22  2  0
 22 23  1  0
 23 24  1  0
 23 25  2  0
 25 26  1  0
 26 27  2  0
 27 28  1  0
 28 29  2  0
 12  7  1  0
 18 13  1  0
 29 19  1  0
 28 22  1  0
  3 30  1  0
  4 31  1  0
  4 32  1  0
  8 33  1  0
  8 34  1  0
  9 35  1  0
  9 36  1  0
 10 37  1  0
 10 38  1  0
 11 39  1  0
 11 40  1  0
 12 41  1  1
 14 42  1  0
 15 43  1  0
 16 44  1  0
 17 45  1  0
 18 46  1  0
 20 47  1  0
 21 48  1  0
 25 49  1  0
 26 50  1  0
 27 51  1  0
M  END
>  <smiles>  (4) 
O=C(NCC(=O)N1CCCC[C@H]1c1ccccc1)c1ccc2c(Cl)cccc2n1

>  <score_type>  (4) 
oracle

>  <origin>  (4) 
autodockgpu

>  <m_score__min__energy>  (4) 
-9.5199999999999996

>  <m_primary>  (4) 
energy

>  <rmsd>  (4) 
2.0356421721185245

>  <m_score__min__rmsd>  (4) 
2.0356421721185245

>  <meeko>  (4) 
{"free_energy": -9.45, "intermolecular_energy": -10.95, "internal_energy": -1.47, "cluster_size": 18, "cluster_id": 1, "rank_in_cluster": 3}

>  <energy>  (4) 
-9.44

>  <cluster_rmsd>  (4) 
0.36

>  <cluster>  (4) 
1

$$$$

     RDKit          3D

 51 54  0  0  0  0  0  0  0  0999 V2000
  140.4090   71.9280  221.0270 O   0  0  0  0  0  0  0  0  0  0  0  0
  140.0830   72.4140  222.1580 C   0  0  0  0  0  0  0  0  0  0  0  0
  139.7090   73.7710  222.3250 N   0  0  0  0  0  0  0  0  0  0  0  0
  139.6960   74.6320  221.1700 C   0  0  0  0  0  0  0  0  0  0  0  0
  140.3010   75.9640  221.4670 C   0  0  0  0  0  0  0  0  0  0  0  0
  139.7190   76.6570  222.3350 O   0  0  0  0  0  0  0  0  0  0  0  0
  141.4650   76.3480  220.7640 N   0  0  0  0  0  0  0  0  0  0  0  0
  142.2970   75.3240  220.0920 C   0  0  0  0  0  0  0  0  0  0  0  0
  142.4860   75.6990  218.6380 C   0  0  0  0  0  0  0  0  0  0  0  0
  142.6890   77.1540  218.3920 C   0  0  0  0  0  0  0  0  0  0  0  0
  141.7280   78.0570  219.1670 C   0  0  0  0  0  0  0  0  0  0  0  0
  141.9410   77.7050  220.6200 C   0  0  1  0  0  0  0  0  0  0  0  0
  141.4350   78.6700  221.5820 C   0  0  0  0  0  0  0  0  0  0  0  0
  140.5370   79.6580  221.2450 C   0  0  0  0  0  0  0  0  0  0  0  0
  140.0620   80.5670  222.1570 C   0  0  0  0  0  0  0  0  0  0  0  0
  140.4670   80.5330  223.4760 C   0  0  0  0  0  0  0  0  0  0  0  0
  141.3570   79.5630  223.8390 C   0  0  0  0  0  0  0  0  0  0  0  0
  141.8350   78.6500  222.9230 C   0  0  0  0  0  0  0  0  0  0  0  0
  140.0880   71.5580  223.3590 C   0  0  0  0  0  0  0  0  0  0  0  0
  139.6370   70.2520  223.3200 C   0  0  0  0  0  0  0  0  0  0  0  0
  139.6410   69.4450  224.4550 C   0  0  0  0  0  0  0  0  0  0  0  0
  140.1040   69.9610  225.6410 C   0  0  0  0  0  0  0  0  0  0  0  0
  140.1530   69.2560  226.8210 C   0  0  0  0  0  0  0  0  0  0  0  0
  139.5970   67.5990  226.8360 Cl  0  0  0  0  0  0  0  0  0  0  0  0
  140.6270   69.8080  227.9980 C   0  0  0  0  0  0  0  0  0  0  0  0
  141.0710   71.1200  228.0090 C   0  0  0  0  0  0  0  0  0  0  0  0
  141.0300   71.8510  226.8280 C   0  0  0  0  0  0  0  0  0  0  0  0
  140.5510   71.2650  225.6710 C   0  0  0  0  0  0  0  0  0  0  0  0
  140.5280   72.0050  224.5510 N   0  0  0  0  0  0  0  0  0  0  0  0
  139.4420   74.1690  223.2530 H   0  0  0  0  0  0  0  0  0  0  0  0
  140.2681   74.1529  220.3618 H   0  0  0  0  0  0  0  0  0  0  0  0
  138.6490   74.7899  220.8720 H   0  0  0  0  0  0  0  0  0  0  0  0
  143.2781   75.2673  220.5861 H   0  0  0  0  0  0  0  0  0  0  0  0
  141.7962   74.3467  220.1555 H   0  0  0  0  0  0  0  0  0  0  0  0
  143.3665   75.1609  218.2570 H   0  0  0  0  0  0  0  0  0  0  0  0
  141.5541   75.4237  218.1224 H   0  0  0  0  0  0  0  0  0  0  0  0
  143.7176   77.4136  218.6828 H   0  0  0  0  0  0  0  0  0  0  0  0
  142.4943   77.3258  217.3231 H   0  0  0  0  0  0  0  0  0  0  0  0
  141.9645   79.1162  218.9878 H   0  0  0  0  0  0  0  0  0  0  0  0
  140.6832   77.9089  218.8564 H   0  0  0  0  0  0  0  0  0  0  0  0
  143.0080   77.7597  220.8816 H   0  0  0  0  0  0  0  0  0  0  0  0
  140.1867   79.7212  220.2042 H   0  0  0  0  0  0  0  0  0  0  0  0
  139.3461   81.3360  221.8311 H   0  0  0  0  0  0  0  0  0  0  0  0
  140.0867   81.2607  224.2081 H   0  0  0  0  0  0  0  0  0  0  0  0
  141.6994   79.5090  224.8830 H   0  0  0  0  0  0  0  0  0  0  0  0
  142.5511   77.8841  223.2557 H   0  0  0  0  0  0  0  0  0  0  0  0
  139.2661   69.8403  222.3698 H   0  0  0  0  0  0  0  0  0  0  0  0
  139.2782   68.4079  224.4025 H   0  0  0  0  0  0  0  0  0  0  0  0
  140.6511   69.2082  228.9198 H   0  0  0  0  0  0  0  0  0  0  0  0
  141.4493   71.5752  228.9362 H   0  0  0  0  0  0  0  0  0  0  0  0
  141.3781   72.8944  226.8136 H   0  0  0  0  0  0  0  0  0  0  0  0
  1  2  2  0
  2  3  1  0
  3  4  1  0
  4  5  1  0
  5  6  2  0
  5  7  1  0
  7  8  1  0
  8  9  1  0
  9 10  1  0
 10 11  1  0
 11 12  1  0
 12 13  1  0
 13 14  2  0
 14 15  1  0
 15 16  2  0
 16 17  1  0
 17 18  2  0
  2 19  1  0
 19 20  2  0
 20 21  1  0
 21 22  2  0
 22 23  1  0
 23 24  1  0
 23 25  2  0
 25 26  1  0
 26 27  2  0
 27 28  1  0
 28 29  2  0
 12  7  1  0
 18 13  1  0
 29 19  1  0
 28 22  1  0
  3 30  1  0
  4 31  1  0
  4 32  1  0
  8 33  1  0
  8 34  1  0
  9 35  1  0
  9 36  1  0
 10 37  1  0
 10 38  1  0
 11 39  1  0
 11 40  1  0
 12 41  1  6
 14 42  1  0
 15 43  1  0
 16 44  1  0
 17 45  1  0
 18 46  1  0
 20 47  1  0
 21 48  1  0
 25 49  1  0
 26 50  1  0
 27 51  1  0
M  END
>  <smiles>  (5) 
O=C(NCC(=O)N1CCCC[C@H]1c1ccccc1)c1ccc2c(Cl)cccc2n1

>  <score_type>  (5) 
oracle

>  <origin>  (5) 
autodockgpu

>  <m_score__min__energy>  (5) 
-9.5199999999999996

>  <m_primary>  (5) 
energy

>  <rmsd>  (5) 
1.9678343851065274

>  <m_score__min__rmsd>  (5) 
1.9678343851065274

>  <meeko>  (5) 
{"free_energy": -9.33, "intermolecular_energy": -10.82, "internal_energy": -1.53, "cluster_size": 18, "cluster_id": 1, "rank_in_cluster": 11}

>  <energy>  (5) 
-9.4

>  <cluster_rmsd>  (5) 
0.24

>  <cluster>  (5) 
1

$$$$

     RDKit          3D

 51 54  0  0  0  0  0  0  0  0999 V2000
  140.6580   71.6230  221.0950 O   0  0  0  0  0  0  0  0  0  0  0  0
  140.2120   72.1710  222.1540 C   0  0  0  0  0  0  0  0  0  0  0  0
  139.7250   73.5020  222.1760 N   0  0  0  0  0  0  0  0  0  0  0  0
  139.7360   74.2630  220.9530 C   0  0  0  0  0  0  0  0  0  0  0  0
  140.7940   75.3160  220.9670 C   0  0  0  0  0  0  0  0  0  0  0  0
  141.1880   75.6930  222.0970 O   0  0  0  0  0  0  0  0  0  0  0  0
  141.2720   75.8090  219.7320 N   0  0  0  0  0  0  0  0  0  0  0  0
  140.3980   76.6470  218.8800 C   0  0  0  0  0  0  0  0  0  0  0  0
  141.1050   77.9440  218.5490 C   0  0  0  0  0  0  0  0  0  0  0  0
  142.5620   77.8050  218.2740 C   0  0  0  0  0  0  0  0  0  0  0  0
  143.3010   76.9080  219.2690 C   0  0  0  0  0  0  0  0  0  0  0  0
  142.5950   75.5760  219.1980 C   0  0  1  0  0  0  0  0  0  0  0  0
  143.3230   74.4480  219.7540 C   0  0  0  0  0  0  0  0  0  0  0  0
  142.8800   73.1480  219.6470 C   0  0  0  0  0  0  0  0  0  0  0  0
  143.5720   72.0860  220.1730 C   0  0  0  0  0  0  0  0  0  0  0  0
  144.7640   72.2720  220.8430 C   0  0  0  0  0  0  0  0  0  0  0  0
  145.2290   73.5500  220.9650 C   0  0  0  0  0  0  0  0  0  0  0  0
  144.5330   74.6180  220.4370 C   0  0  0  0  0  0  0  0  0  0  0  0
  140.1880   71.4180  223.4220 C   0  0  0  0  0  0  0  0  0  0  0  0
  139.7320   70.1150  223.4820 C   0  0  0  0  0  0  0  0  0  0  0  0
  139.7090   69.4050  224.6800 C   0  0  0  0  0  0  0  0  0  0  0  0
  140.1520   70.0160  225.8290 C   0  0  0  0  0  0  0  0  0  0  0  0
  140.1740   69.4120  227.0630 C   0  0  0  0  0  0  0  0  0  0  0  0
  139.6100   67.7630  227.2050 Cl  0  0  0  0  0  0  0  0  0  0  0  0
  140.6270   70.0580  228.2000 C   0  0  0  0  0  0  0  0  0  0  0  0
  141.0780   71.3640  228.1110 C   0  0  0  0  0  0  0  0  0  0  0  0
  141.0630   71.9950  226.8720 C   0  0  0  0  0  0  0  0  0  0  0  0
  140.6050   71.3170  225.7590 C   0  0  0  0  0  0  0  0  0  0  0  0
  140.6080   71.9610  224.5810 N   0  0  0  0  0  0  0  0  0  0  0  0
  139.3590   73.9510  223.0450 H   0  0  0  0  0  0  0  0  0  0  0  0
  139.9231   73.5810  220.1105 H   0  0  0  0  0  0  0  0  0  0  0  0
  138.7598   74.7593  220.8494 H   0  0  0  0  0  0  0  0  0  0  0  0
  140.1677   76.1076  217.9494 H   0  0  0  0  0  0  0  0  0  0  0  0
  139.4644   76.8667  219.4186 H   0  0  0  0  0  0  0  0  0  0  0  0
  140.6276   78.3768  217.6575 H   0  0  0  0  0  0  0  0  0  0  0  0
  141.0162   78.5828  219.4401 H   0  0  0  0  0  0  0  0  0  0  0  0
  142.6848   77.3791  217.2672 H   0  0  0  0  0  0  0  0  0  0  0  0
  143.0001   78.8098  218.3656 H   0  0  0  0  0  0  0  0  0  0  0  0
  144.3573   76.8009  218.9815 H   0  0  0  0  0  0  0  0  0  0  0  0
  143.2909   77.3258  220.2865 H   0  0  0  0  0  0  0  0  0  0  0  0
  142.5252   75.2275  218.1570 H   0  0  0  0  0  0  0  0  0  0  0  0
  141.9346   72.9536  219.1193 H   0  0  0  0  0  0  0  0  0  0  0  0
  143.1695   71.0687  220.0585 H   0  0  0  0  0  0  0  0  0  0  0  0
  145.3197   71.4211  221.2638 H   0  0  0  0  0  0  0  0  0  0  0  0
  146.1762   73.7315  221.4941 H   0  0  0  0  0  0  0  0  0  0  0  0
  144.9409   75.6326  220.5562 H   0  0  0  0  0  0  0  0  0  0  0  0
  139.3787   69.6269  222.5617 H   0  0  0  0  0  0  0  0  0  0  0  0
  139.3411   68.3687  224.7064 H   0  0  0  0  0  0  0  0  0  0  0  0
  140.6287   69.5369  229.1687 H   0  0  0  0  0  0  0  0  0  0  0  0
  141.4416   71.8929  229.0043 H   0  0  0  0  0  0  0  0  0  0  0  0
  141.4154   73.0328  226.7782 H   0  0  0  0  0  0  0  0  0  0  0  0
  1  2  2  0
  2  3  1  0
  3  4  1  0
  4  5  1  0
  5  6  2  0
  5  7  1  0
  7  8  1  0
  8  9  1  0
  9 10  1  0
 10 11  1  0
 11 12  1  0
 12 13  1  0
 13 14  2  0
 14 15  1  0
 15 16  2  0
 16 17  1  0
 17 18  2  0
  2 19  1  0
 19 20  2  0
 20 21  1  0
 21 22  2  0
 22 23  1  0
 23 24  1  0
 23 25  2  0
 25 26  1  0
 26 27  2  0
 27 28  1  0
 28 29  2  0
 12  7  1  0
 18 13  1  0
 29 19  1  0
 28 22  1  0
  3 30  1  0
  4 31  1  0
  4 32  1  0
  8 33  1  0
  8 34  1  0
  9 35  1  0
  9 36  1  0
 10 37  1  0
 10 38  1  0
 11 39  1  0
 11 40  1  0
 12 41  1  6
 14 42  1  0
 15 43  1  0
 16 44  1  0
 17 45  1  0
 18 46  1  0
 20 47  1  0
 21 48  1  0
 25 49  1  0
 26 50  1  0
 27 51  1  0
M  END
>  <smiles>  (6) 
O=C(NCC(=O)N1CCCC[C@H]1c1ccccc1)c1ccc2c(Cl)cccc2n1

>  <score_type>  (6) 
oracle

>  <origin>  (6) 
autodockgpu

>  <m_score__min__energy>  (6) 
-9.5199999999999996

>  <m_primary>  (6) 
energy

>  <rmsd>  (6) 
1.958790196008276

>  <m_score__min__rmsd>  (6) 
1.958790196008276

>  <meeko>  (6) 
{"free_energy": -8.88, "intermolecular_energy": -10.37, "internal_energy": -1.97, "cluster_size": 14, "cluster_id": 2, "rank_in_cluster": 2}

>  <energy>  (6) 
-9.39

>  <cluster_rmsd>  (6) 
0.23

>  <cluster>  (6) 
1

$$$$

     RDKit          3D

 51 54  0  0  0  0  0  0  0  0999 V2000
  140.8670   71.9860  221.0690 O   0  0  0  0  0  0  0  0  0  0  0  0
  140.3900   72.4200  222.1670 C   0  0  0  0  0  0  0  0  0  0  0  0
  139.9540   73.7580  222.3320 N   0  0  0  0  0  0  0  0  0  0  0  0
  140.0520   74.6610  221.2130 C   0  0  0  0  0  0  0  0  0  0  0  0
  140.6640   75.9640  221.6070 C   0  0  0  0  0  0  0  0  0  0  0  0
  140.2390   76.4780  222.6700 O   0  0  0  0  0  0  0  0  0  0  0  0
  141.6590   76.5220  220.7750 N   0  0  0  0  0  0  0  0  0  0  0  0
  142.5060   75.6410  219.9390 C   0  0  0  0  0  0  0  0  0  0  0  0
  142.4380   76.0920  218.4960 C   0  0  0  0  0  0  0  0  0  0  0  0
  142.4230   77.5690  218.3060 C   0  0  0  0  0  0  0  0  0  0  0  0
  141.4790   78.3090  219.2540 C   0  0  0  0  0  0  0  0  0  0  0  0
  141.9380   77.9340  220.6420 C   0  0  1  0  0  0  0  0  0  0  0  0
  141.4600   78.7880  221.7160 C   0  0  0  0  0  0  0  0  0  0  0  0
  140.1990   79.3410  221.7230 C   0  0  0  0  0  0  0  0  0  0  0  0
  139.7520   80.1470  222.7400 C   0  0  0  0  0  0  0  0  0  0  0  0
  140.5560   80.4460  223.8210 C   0  0  0  0  0  0  0  0  0  0  0  0
  141.8130   79.9110  223.8410 C   0  0  0  0  0  0  0  0  0  0  0  0
  142.2630   79.1020  222.8180 C   0  0  0  0  0  0  0  0  0  0  0  0
  140.2770   71.5200  223.3300 C   0  0  0  0  0  0  0  0  0  0  0  0
  139.7370   70.2530  223.2170 C   0  0  0  0  0  0  0  0  0  0  0  0
  139.6300   69.4050  224.3160 C   0  0  0  0  0  0  0  0  0  0  0  0
  140.0720   69.8400  225.5420 C   0  0  0  0  0  0  0  0  0  0  0  0
  140.0160   69.0880  226.6920 C   0  0  0  0  0  0  0  0  0  0  0  0
  139.3430   67.4770  226.6140 Cl  0  0  0  0  0  0  0  0  0  0  0  0
  140.4720   69.5590  227.9110 C   0  0  0  0  0  0  0  0  0  0  0  0
  141.0080   70.8320  227.9960 C   0  0  0  0  0  0  0  0  0  0  0  0
  141.0740   71.6090  226.8460 C   0  0  0  0  0  0  0  0  0  0  0  0
  140.6100   71.1050  225.6450 C   0  0  0  0  0  0  0  0  0  0  0  0
  140.6920   71.8870  224.5570 N   0  0  0  0  0  0  0  0  0  0  0  0
  139.5640   74.1140  223.2330 H   0  0  0  0  0  0  0  0  0  0  0  0
  140.6737   74.1964  220.4334 H   0  0  0  0  0  0  0  0  0  0  0  0
  139.0356   74.8580  220.8414 H   0  0  0  0  0  0  0  0  0  0  0  0
  143.5471   75.6933  220.2902 H   0  0  0  0  0  0  0  0  0  0  0  0
  142.1432   74.6054  220.0156 H   0  0  0  0  0  0  0  0  0  0  0  0
  143.3147   75.6876  217.9689 H   0  0  0  0  0  0  0  0  0  0  0  0
  141.4832   75.7177  218.0980 H   0  0  0  0  0  0  0  0  0  0  0  0
  143.4427   77.9487  218.4673 H   0  0  0  0  0  0  0  0  0  0  0  0
  142.0581   77.7546  217.2850 H   0  0  0  0  0  0  0  0  0  0  0  0
  141.5549   79.3960  219.1031 H   0  0  0  0  0  0  0  0  0  0  0  0
  140.4271   78.0375  219.0815 H   0  0  0  0  0  0  0  0  0  0  0  0
  143.0164   78.1176  220.7575 H   0  0  0  0  0  0  0  0  0  0  0  0
  139.5238   79.1286  220.8810 H   0  0  0  0  0  0  0  0  0  0  0  0
  138.7345   80.5622  222.6926 H   0  0  0  0  0  0  0  0  0  0  0  0
  140.1980   81.0914  224.6366 H   0  0  0  0  0  0  0  0  0  0  0  0
  142.4789   80.1294  224.6889 H   0  0  0  0  0  0  0  0  0  0  0  0
  143.2824   78.6920  222.8702 H   0  0  0  0  0  0  0  0  0  0  0  0
  139.3831   69.9061  222.2350 H   0  0  0  0  0  0  0  0  0  0  0  0
  139.1973   68.3999  224.2042 H   0  0  0  0  0  0  0  0  0  0  0  0
  140.4087   68.9248  228.8075 H   0  0  0  0  0  0  0  0  0  0  0  0
  141.3752   71.2218  228.9568 H   0  0  0  0  0  0  0  0  0  0  0  0
  141.4951   72.6242  226.8910 H   0  0  0  0  0  0  0  0  0  0  0  0
  1  2  2  0
  2  3  1  0
  3  4  1  0
  4  5  1  0
  5  6  2  0
  5  7  1  0
  7  8  1  0
  8  9  1  0
  9 10  1  0
 10 11  1  0
 11 12  1  0
 12 13  1  0
 13 14  2  0
 14 15  1  0
 15 16  2  0
 16 17  1  0
 17 18  2  0
  2 19  1  0
 19 20  2  0
 20 21  1  0
 21 22  2  0
 22 23  1  0
 23 24  1  0
 23 25  2  0
 25 26  1  0
 26 27  2  0
 27 28  1  0
 28 29  2  0
 12  7  1  0
 18 13  1  0
 29 19  1  0
 28 22  1  0
  3 30  1  0
  4 31  1  0
  4 32  1  0
  8 33  1  0
  8 34  1  0
  9 35  1  0
  9 36  1  0
 10 37  1  0
 10 38  1  0
 11 39  1  0
 11 40  1  0
 12 41  1  6
 14 42  1  0
 15 43  1  0
 16 44  1  0
 17 45  1  0
 18 46  1  0
 20 47  1  0
 21 48  1  0
 25 49  1  0
 26 50  1  0
 27 51  1  0
M  END
>  <smiles>  (7) 
O=C(NCC(=O)N1CCCC[C@H]1c1ccccc1)c1ccc2c(Cl)cccc2n1

>  <score_type>  (7) 
oracle

>  <origin>  (7) 
autodockgpu

>  <m_score__min__energy>  (7) 
-9.5199999999999996

>  <m_primary>  (7) 
energy

>  <rmsd>  (7) 
2.0657298243298805

>  <m_score__min__rmsd>  (7) 
2.0657298243298805

>  <meeko>  (7) 
{"free_energy": -9.4, "intermolecular_energy": -10.89, "internal_energy": -1.61, "cluster_size": 18, "cluster_id": 1, "rank_in_cluster": 5}

>  <energy>  (7) 
-9.38

>  <cluster_rmsd>  (7) 
0.24

>  <cluster>  (7) 
1

$$$$

     RDKit          3D

 51 54  0  0  0  0  0  0  0  0999 V2000
  141.2050   72.4170  221.4270 O   0  0  0  0  0  0  0  0  0  0  0  0
  140.3660   72.6390  222.3580 C   0  0  0  0  0  0  0  0  0  0  0  0
  139.4630   73.7300  222.3270 N   0  0  0  0  0  0  0  0  0  0  0  0
  139.4960   74.6230  221.1970 C   0  0  0  0  0  0  0  0  0  0  0  0
  140.1290   75.9300  221.5430 C   0  0  0  0  0  0  0  0  0  0  0  0
  139.5030   76.6520  222.3560 O   0  0  0  0  0  0  0  0  0  0  0  0
  141.3640   76.2620  220.9440 N   0  0  0  0  0  0  0  0  0  0  0  0
  142.2220   75.1970  220.3750 C   0  0  0  0  0  0  0  0  0  0  0  0
  142.5580   75.5290  218.9370 C   0  0  0  0  0  0  0  0  0  0  0  0
  142.8290   76.9710  218.6790 C   0  0  0  0  0  0  0  0  0  0  0  0
  141.8290   77.9210  219.3410 C   0  0  0  0  0  0  0  0  0  0  0  0
  141.8950   77.6000  220.8140 C   0  0  1  0  0  0  0  0  0  0  0  0
  141.3330   78.6030  221.7030 C   0  0  0  0  0  0  0  0  0  0  0  0
  140.3060   79.4400  221.3280 C   0  0  0  0  0  0  0  0  0  0  0  0
  139.7790   80.3860  222.1710 C   0  0  0  0  0  0  0  0  0  0  0  0
  140.2590   80.5460  223.4550 C   0  0  0  0  0  0  0  0  0  0  0  0
  141.2770   79.7290  223.8550 C   0  0  0  0  0  0  0  0  0  0  0  0
  141.8080   78.7790  223.0070 C   0  0  0  0  0  0  0  0  0  0  0  0
  140.3080   71.7430  223.5290 C   0  0  0  0  0  0  0  0  0  0  0  0
  139.8450   70.4450  223.4260 C   0  0  0  0  0  0  0  0  0  0  0  0
  139.7900   69.6010  224.5320 C   0  0  0  0  0  0  0  0  0  0  0  0
  140.2070   70.0710  225.7540 C   0  0  0  0  0  0  0  0  0  0  0  0
  140.1970   69.3260  226.9100 C   0  0  0  0  0  0  0  0  0  0  0  0
  139.6210   67.6770  226.8460 Cl  0  0  0  0  0  0  0  0  0  0  0  0
  140.6250   69.8330  228.1240 C   0  0  0  0  0  0  0  0  0  0  0  0
  141.0840   71.1370  228.1990 C   0  0  0  0  0  0  0  0  0  0  0  0
  141.1030   71.9070  227.0430 C   0  0  0  0  0  0  0  0  0  0  0  0
  140.6680   71.3670  225.8470 C   0  0  0  0  0  0  0  0  0  0  0  0
  140.7020   72.1440  224.7530 N   0  0  0  0  0  0  0  0  0  0  0  0
  138.7750   73.9120  223.0920 H   0  0  0  0  0  0  0  0  0  0  0  0
  140.0719   74.1516  220.3870 H   0  0  0  0  0  0  0  0  0  0  0  0
  138.4596   74.8169  220.8834 H   0  0  0  0  0  0  0  0  0  0  0  0
  143.1505   75.1234  220.9602 H   0  0  0  0  0  0  0  0  0  0  0  0
  141.6858   74.2373  220.4124 H   0  0  0  0  0  0  0  0  0  0  0  0
  143.4529   74.9558  218.6529 H   0  0  0  0  0  0  0  0  0  0  0  0
  141.6705   75.2679  218.3419 H   0  0  0  0  0  0  0  0  0  0  0  0
  143.8339   77.2073  219.0588 H   0  0  0  0  0  0  0  0  0  0  0  0
  142.7399   77.1219  217.5931 H   0  0  0  0  0  0  0  0  0  0  0  0
  142.1142   78.9680  219.1611 H   0  0  0  0  0  0  0  0  0  0  0  0
  140.8133   77.7955  218.9377 H   0  0  0  0  0  0  0  0  0  0  0  0
  142.9348   77.6298  221.1717 H   0  0  0  0  0  0  0  0  0  0  0  0
  139.8919   79.3468  220.3132 H   0  0  0  0  0  0  0  0  0  0  0  0
  138.9592   81.0283  221.8169 H   0  0  0  0  0  0  0  0  0  0  0  0
  139.8369   81.3039  224.1313 H   0  0  0  0  0  0  0  0  0  0  0  0
  141.6816   79.8301  224.8729 H   0  0  0  0  0  0  0  0  0  0  0  0
  142.6289   78.1413  223.3668 H   0  0  0  0  0  0  0  0  0  0  0  0
  139.5120   70.0697  222.4471 H   0  0  0  0  0  0  0  0  0  0  0  0
  139.4175   68.5711  224.4288 H   0  0  0  0  0  0  0  0  0  0  0  0
  140.6007   69.2030  229.0254 H   0  0  0  0  0  0  0  0  0  0  0  0
  141.4274   71.5557  229.1565 H   0  0  0  0  0  0  0  0  0  0  0  0
  141.4638   72.9455  227.0792 H   0  0  0  0  0  0  0  0  0  0  0  0
  1  2  2  0
  2  3  1  0
  3  4  1  0
  4  5  1  0
  5  6  2  0
  5  7  1  0
  7  8  1  0
  8  9  1  0
  9 10  1  0
 10 11  1  0
 11 12  1  0
 12 13  1  0
 13 14  2  0
 14 15  1  0
 15 16  2  0
 16 17  1  0
 17 18  2  0
  2 19  1  0
 19 20  2  0
 20 21  1  0
 21 22  2  0
 22 23  1  0
 23 24  1  0
 23 25  2  0
 25 26  1  0
 26 27  2  0
 27 28  1  0
 28 29  2  0
 12  7  1  0
 18 13  1  0
 29 19  1  0
 28 22  1  0
  3 30  1  0
  4 31  1  0
  4 32  1  0
  8 33  1  0
  8 34  1  0
  9 35  1  0
  9 36  1  0
 10 37  1  0
 10 38  1  0
 11 39  1  0
 11 40  1  0
 12 41  1  1
 14 42  1  0
 15 43  1  0
 16 44  1  0
 17 45  1  0
 18 46  1  0
 20 47  1  0
 21 48  1  0
 25 49  1  0
 26 50  1  0
 27 51  1  0
M  END
>  <smiles>  (8) 
O=C(NCC(=O)N1CCCC[C@H]1c1ccccc1)c1ccc2c(Cl)cccc2n1

>  <score_type>  (8) 
oracle

>  <origin>  (8) 
autodockgpu

>  <m_score__min__energy>  (8) 
-9.5199999999999996

>  <m_primary>  (8) 
energy

>  <rmsd>  (8) 
2.06578893004648

>  <m_score__min__rmsd>  (8) 
2.06578893004648

>  <meeko>  (8) 
{"free_energy": -9.46, "intermolecular_energy": -10.96, "internal_energy": -1.45, "cluster_size": 18, "cluster_id": 1, "rank_in_cluster": 2}

>  <energy>  (8) 
-9.37

>  <cluster_rmsd>  (8) 
0.32

>  <cluster>  (8) 
1

$$$$

     RDKit          3D

 51 54  0  0  0  0  0  0  0  0999 V2000
  140.2490   73.9930  222.1180 O   0  0  0  0  0  0  0  0  0  0  0  0
  140.0870   75.0160  221.3780 C   0  0  0  0  0  0  0  0  0  0  0  0
  139.9950   74.9290  219.9670 N   0  0  0  0  0  0  0  0  0  0  0  0
  140.0870   73.6320  219.3460 C   0  0  0  0  0  0  0  0  0  0  0  0
  141.4740   73.3400  218.8790 C   0  0  0  0  0  0  0  0  0  0  0  0
  141.5990   73.0300  217.6690 O   0  0  0  0  0  0  0  0  0  0  0  0
  142.5330   73.4280  219.8090 N   0  0  0  0  0  0  0  0  0  0  0  0
  142.6650   72.4150  220.8810 C   0  0  0  0  0  0  0  0  0  0  0  0
  144.0550   71.8170  220.8450 C   0  0  0  0  0  0  0  0  0  0  0  0
  145.1430   72.7910  220.5540 C   0  0  0  0  0  0  0  0  0  0  0  0
  144.8290   73.7510  219.4060 C   0  0  0  0  0  0  0  0  0  0  0  0
  143.5550   74.4500  219.8140 C   0  0  1  0  0  0  0  0  0  0  0  0
  143.2460   75.6710  219.0880 C   0  0  0  0  0  0  0  0  0  0  0  0
  143.4820   75.8170  217.7390 C   0  0  0  0  0  0  0  0  0  0  0  0
  143.1890   76.9720  217.0590 C   0  0  0  0  0  0  0  0  0  0  0  0
  142.6340   78.0590  217.7030 C   0  0  0  0  0  0  0  0  0  0  0  0
  142.3890   77.9440  219.0410 C   0  0  0  0  0  0  0  0  0  0  0  0
  142.6840   76.7830  219.7260 C   0  0  0  0  0  0  0  0  0  0  0  0
  139.9910   76.3570  221.9830 C   0  0  0  0  0  0  0  0  0  0  0  0
  138.7780   76.8880  222.3790 C   0  0  0  0  0  0  0  0  0  0  0  0
  138.6870   78.1550  222.9500 C   0  0  0  0  0  0  0  0  0  0  0  0
  139.8330   78.8940  223.1230 C   0  0  0  0  0  0  0  0  0  0  0  0
  139.8610   80.1540  223.6740 C   0  0  0  0  0  0  0  0  0  0  0  0
  138.3580   80.8800  224.1950 Cl  0  0  0  0  0  0  0  0  0  0  0  0
  141.0340   80.8690  223.8330 C   0  0  0  0  0  0  0  0  0  0  0  0
  142.2360   80.3140  223.4270 C   0  0  0  0  0  0  0  0  0  0  0  0
  142.2300   79.0420  222.8670 C   0  0  0  0  0  0  0  0  0  0  0  0
  141.0380   78.3570  222.7240 C   0  0  0  0  0  0  0  0  0  0  0  0
  141.0760   77.1310  222.1790 N   0  0  0  0  0  0  0  0  0  0  0  0
  139.8630   75.7690  219.3600 H   0  0  0  0  0  0  0  0  0  0  0  0
  139.7880   72.8654  220.0760 H   0  0  0  0  0  0  0  0  0  0  0  0
  139.4217   73.6236  218.4700 H   0  0  0  0  0  0  0  0  0  0  0  0
  142.4965   72.8916  221.8580 H   0  0  0  0  0  0  0  0  0  0  0  0
  141.9208   71.6199  220.7264 H   0  0  0  0  0  0  0  0  0  0  0  0
  144.2571   71.3600  221.8250 H   0  0  0  0  0  0  0  0  0  0  0  0
  144.0595   71.0898  220.0197 H   0  0  0  0  0  0  0  0  0  0  0  0
  145.3267   73.3853  221.4612 H   0  0  0  0  0  0  0  0  0  0  0  0
  146.0211   72.2041  220.2464 H   0  0  0  0  0  0  0  0  0  0  0  0
  145.6441   74.4783  219.2771 H   0  0  0  0  0  0  0  0  0  0  0  0
  144.7204   73.2240  218.4466 H   0  0  0  0  0  0  0  0  0  0  0  0
  143.6535   74.8804  220.8215 H   0  0  0  0  0  0  0  0  0  0  0  0
  143.9225   74.9748  217.1852 H   0  0  0  0  0  0  0  0  0  0  0  0
  143.4002   77.0327  215.9812 H   0  0  0  0  0  0  0  0  0  0  0  0
  142.3976   78.9847  217.1579 H   0  0  0  0  0  0  0  0  0  0  0  0
  141.9479   78.7932  219.5836 H   0  0  0  0  0  0  0  0  0  0  0  0
  142.4715   76.7298  220.8040 H   0  0  0  0  0  0  0  0  0  0  0  0
  137.8619   76.2953  222.2397 H   0  0  0  0  0  0  0  0  0  0  0  0
  137.7114   78.5588  223.2583 H   0  0  0  0  0  0  0  0  0  0  0  0
  141.0123   81.8739  224.2799 H   0  0  0  0  0  0  0  0  0  0  0  0
  143.1780   80.8695  223.5455 H   0  0  0  0  0  0  0  0  0  0  0  0
  143.1729   78.5809  222.5379 H   0  0  0  0  0  0  0  0  0  0  0  0
  1  2  2  0
  2  3  1  0
  3  4  1  0
  4  5  1  0
  5  6  2  0
  5  7  1  0
  7  8  1  0
  8  9  1  0
  9 10  1  0
 10 11  1  0
 11 12  1  0
 12 13  1  0
 13 14  2  0
 14 15  1  0
 15 16  2  0
 16 17  1  0
 17 18  2  0
  2 19  1  0
 19 20  2  0
 20 21  1  0
 21 22  2  0
 22 23  1  0
 23 24  1  0
 23 25  2  0
 25 26  1  0
 26 27  2  0
 27 28  1  0
 28 29  2  0
 12  7  1  0
 18 13  1  0
 29 19  1  0
 28 22  1  0
  3 30  1  0
  4 31  1  0
  4 32  1  0
  8 33  1  0
  8 34  1  0
  9 35  1  0
  9 36  1  0
 10 37  1  0
 10 38  1  0
 11 39  1  0
 11 40  1  0
 12 41  1  1
 14 42  1  0
 15 43  1  0
 16 44  1  0
 17 45  1  0
 18 46  1  0
 20 47  1  0
 21 48  1  0
 25 49  1  0
 26 50  1  0
 27 51  1  0
M  END
>  <smiles>  (9) 
O=C(NCC(=O)N1CCCC[C@H]1c1ccccc1)c1ccc2c(Cl)cccc2n1

>  <score_type>  (9) 
oracle

>  <origin>  (9) 
autodockgpu

>  <m_score__min__energy>  (9) 
-9.5199999999999996

>  <m_primary>  (9) 
energy

>  <rmsd>  (9) 
6.938560817247719

>  <m_score__min__rmsd>  (9) 
6.938560817247719

>  <meeko>  (9) 
{"free_energy": -7.47, "intermolecular_energy": -8.96, "internal_energy": -2.38, "cluster_size": 4, "cluster_id": 9, "rank_in_cluster": 4}

>  <energy>  (9) 
-9.36

>  <cluster_rmsd>  (9) 
0.42

>  <cluster>  (9) 
1

$$$$

     RDKit          3D

 51 54  0  0  0  0  0  0  0  0999 V2000
  140.9500   71.9200  221.1270 O   0  0  0  0  0  0  0  0  0  0  0  0
  140.4210   72.3720  222.1930 C   0  0  0  0  0  0  0  0  0  0  0  0
  139.9400   73.7000  222.3020 N   0  0  0  0  0  0  0  0  0  0  0  0
  140.0530   74.5730  221.1610 C   0  0  0  0  0  0  0  0  0  0  0  0
  140.6060   75.9070  221.5390 C   0  0  0  0  0  0  0  0  0  0  0  0
  140.1220   76.4380  222.5680 O   0  0  0  0  0  0  0  0  0  0  0  0
  141.6160   76.4730  220.7300 N   0  0  0  0  0  0  0  0  0  0  0  0
  142.4720   75.6010  219.8940 C   0  0  0  0  0  0  0  0  0  0  0  0
  142.4280   76.0730  218.4570 C   0  0  0  0  0  0  0  0  0  0  0  0
  142.4220   77.5530  218.2890 C   0  0  0  0  0  0  0  0  0  0  0  0
  141.4660   78.2830  219.2330 C   0  0  0  0  0  0  0  0  0  0  0  0
  141.9030   77.8860  220.6220 C   0  0  1  0  0  0  0  0  0  0  0  0
  141.4120   78.7260  221.7020 C   0  0  0  0  0  0  0  0  0  0  0  0
  140.1470   79.2690  221.7070 C   0  0  0  0  0  0  0  0  0  0  0  0
  139.6870   80.0620  222.7280 C   0  0  0  0  0  0  0  0  0  0  0  0
  140.4830   80.3560  223.8170 C   0  0  0  0  0  0  0  0  0  0  0  0
  141.7430   79.8300  223.8400 C   0  0  0  0  0  0  0  0  0  0  0  0
  142.2050   79.0340  222.8120 C   0  0  0  0  0  0  0  0  0  0  0  0
  140.2910   71.5030  223.3780 C   0  0  0  0  0  0  0  0  0  0  0  0
  139.7710   70.2260  223.2870 C   0  0  0  0  0  0  0  0  0  0  0  0
  139.6470   69.4070  224.4060 C   0  0  0  0  0  0  0  0  0  0  0  0
  140.0540   69.8820  225.6310 C   0  0  0  0  0  0  0  0  0  0  0  0
  139.9790   69.1610  226.7990 C   0  0  0  0  0  0  0  0  0  0  0  0
  139.3300   67.5390  226.7500 Cl  0  0  0  0  0  0  0  0  0  0  0  0
  140.3990   69.6720  228.0150 C   0  0  0  0  0  0  0  0  0  0  0  0
  140.9160   70.9540  228.0780 C   0  0  0  0  0  0  0  0  0  0  0  0
  141.0000   71.7000  226.9090 C   0  0  0  0  0  0  0  0  0  0  0  0
  140.5720   71.1570  225.7120 C   0  0  0  0  0  0  0  0  0  0  0  0
  140.6710   71.9100  224.6050 N   0  0  0  0  0  0  0  0  0  0  0  0
  139.5060   74.0700  223.1780 H   0  0  0  0  0  0  0  0  0  0  0  0
  140.7201   74.1074  220.4206 H   0  0  0  0  0  0  0  0  0  0  0  0
  139.0463   74.7247  220.7443 H   0  0  0  0  0  0  0  0  0  0  0  0
  143.5078   75.6438  220.2618 H   0  0  0  0  0  0  0  0  0  0  0  0
  142.1037   74.5660  219.9498 H   0  0  0  0  0  0  0  0  0  0  0  0
  143.3110   75.6726  217.9374 H   0  0  0  0  0  0  0  0  0  0  0  0
  141.4782   75.7085  218.0387 H   0  0  0  0  0  0  0  0  0  0  0  0
  143.4405   77.9259  218.4721 H   0  0  0  0  0  0  0  0  0  0  0  0
  142.0741   77.7553  217.2653 H   0  0  0  0  0  0  0  0  0  0  0  0
  141.5479   79.3717  219.0991 H   0  0  0  0  0  0  0  0  0  0  0  0
  140.4158   78.0183  219.0406 H   0  0  0  0  0  0  0  0  0  0  0  0
  142.9802   78.0639  220.7559 H   0  0  0  0  0  0  0  0  0  0  0  0
  139.4786   79.0589  220.8590 H   0  0  0  0  0  0  0  0  0  0  0  0
  138.6668   80.4703  222.6779 H   0  0  0  0  0  0  0  0  0  0  0  0
  140.1155   80.9910  224.6366 H   0  0  0  0  0  0  0  0  0  0  0  0
  142.4020   80.0449  224.6941 H   0  0  0  0  0  0  0  0  0  0  0  0
  143.2266   78.6300  222.8671 H   0  0  0  0  0  0  0  0  0  0  0  0
  139.4471   69.8472  222.3064 H   0  0  0  0  0  0  0  0  0  0  0  0
  139.2292   68.3938  224.3117 H   0  0  0  0  0  0  0  0  0  0  0  0
  140.3221   69.0618  228.9270 H   0  0  0  0  0  0  0  0  0  0  0  0
  141.2544   71.3748  229.0363 H   0  0  0  0  0  0  0  0  0  0  0  0
  141.4067   72.7217  226.9359 H   0  0  0  0  0  0  0  0  0  0  0  0
  1  2  2  0
  2  3  1  0
  3  4  1  0
  4  5  1  0
  5  6  2  0
  5  7  1  0
  7  8  1  0
  8  9  1  0
  9 10  1  0
 10 11  1  0
 11 12  1  0
 12 13  1  0
 13 14  2  0
 14 15  1  0
 15 16  2  0
 16 17  1  0
 17 18  2  0
  2 19  1  0
 19 20  2  0
 20 21  1  0
 21 22  2  0
 22 23  1  0
 23 24  1  0
 23 25  2  0
 25 26  1  0
 26 27  2  0
 27 28  1  0
 28 29  2  0
 12  7  1  0
 18 13  1  0
 29 19  1  0
 28 22  1  0
  3 30  1  0
  4 31  1  0
  4 32  1  0
  8 33  1  0
  8 34  1  0
  9 35  1  0
  9 36  1  0
 10 37  1  0
 10 38  1  0
 11 39  1  0
 11 40  1  0
 12 41  1  6
 14 42  1  0
 15 43  1  0
 16 44  1  0
 17 45  1  0
 18 46  1  0
 20 47  1  0
 21 48  1  0
 25 49  1  0
 26 50  1  0
 27 51  1  0
M  END
>  <smiles>  (10) 
O=C(NCC(=O)N1CCCC[C@H]1c1ccccc1)c1ccc2c(Cl)cccc2n1

>  <score_type>  (10) 
oracle

>  <origin>  (10) 
autodockgpu

>  <m_score__min__energy>  (10) 
-9.5199999999999996

>  <m_primary>  (10) 
energy

>  <rmsd>  (10) 
2.0429917632386094

>  <m_score__min__rmsd>  (10) 
2.0429917632386094

>  <meeko>  (10) 
{"free_energy": -9.39, "intermolecular_energy": -10.88, "internal_energy": -1.59, "cluster_size": 18, "cluster_id": 1, "rank_in_cluster": 6}

>  <energy>  (10) 
-9.36

>  <cluster_rmsd>  (10) 
0.38

>  <cluster>  (10) 
1

$$$$

     RDKit          3D

 51 54  0  0  0  0  0  0  0  0999 V2000
  140.1710   71.8930  221.0040 O   0  0  0  0  0  0  0  0  0  0  0  0
  139.8990   72.3840  222.1470 C   0  0  0  0  0  0  0  0  0  0  0  0
  139.5430   73.7430  222.3270 N   0  0  0  0  0  0  0  0  0  0  0  0
  139.4870   74.6030  221.1720 C   0  0  0  0  0  0  0  0  0  0  0  0
  140.7160   75.4390  221.0450 C   0  0  0  0  0  0  0  0  0  0  0  0
  141.5740   75.3080  221.9510 O   0  0  0  0  0  0  0  0  0  0  0  0
  140.8310   76.3060  219.9360 N   0  0  0  0  0  0  0  0  0  0  0  0
  141.0810   75.7530  218.5850 C   0  0  0  0  0  0  0  0  0  0  0  0
  140.0270   76.2630  217.6250 C   0  0  0  0  0  0  0  0  0  0  0  0
  139.6400   77.6870  217.8260 C   0  0  0  0  0  0  0  0  0  0  0  0
  139.4130   78.0700  219.2890 C   0  0  0  0  0  0  0  0  0  0  0  0
  140.7110   77.7460  219.9880 C   0  0  1  0  0  0  0  0  0  0  0  0
  140.8950   78.3600  221.2920 C   0  0  0  0  0  0  0  0  0  0  0  0
  139.8800   78.4620  222.2170 C   0  0  0  0  0  0  0  0  0  0  0  0
  140.0580   79.0430  223.4480 C   0  0  0  0  0  0  0  0  0  0  0  0
  141.2820   79.5590  223.8240 C   0  0  0  0  0  0  0  0  0  0  0  0
  142.3070   79.4710  222.9260 C   0  0  0  0  0  0  0  0  0  0  0  0
  142.1280   78.8880  221.6890 C   0  0  0  0  0  0  0  0  0  0  0  0
  139.9490   71.5300  223.3480 C   0  0  0  0  0  0  0  0  0  0  0  0
  139.5220   70.2160  223.3220 C   0  0  0  0  0  0  0  0  0  0  0  0
  139.5680   69.4110  224.4570 C   0  0  0  0  0  0  0  0  0  0  0  0
  140.0520   69.9370  225.6310 C   0  0  0  0  0  0  0  0  0  0  0  0
  140.1440   69.2340  226.8100 C   0  0  0  0  0  0  0  0  0  0  0  0
  139.6180   67.5670  226.8410 Cl  0  0  0  0  0  0  0  0  0  0  0  0
  140.6370   69.7970  227.9740 C   0  0  0  0  0  0  0  0  0  0  0  0
  141.0580   71.1160  227.9730 C   0  0  0  0  0  0  0  0  0  0  0  0
  140.9730   71.8440  226.7920 C   0  0  0  0  0  0  0  0  0  0  0  0
  140.4760   71.2490  225.6480 C   0  0  0  0  0  0  0  0  0  0  0  0
  140.4120   71.9860  224.5280 N   0  0  0  0  0  0  0  0  0  0  0  0
  139.3210   74.1460  223.2650 H   0  0  0  0  0  0  0  0  0  0  0  0
  139.3839   73.9819  220.2700 H   0  0  0  0  0  0  0  0  0  0  0  0
  138.6252   75.2766  221.2882 H   0  0  0  0  0  0  0  0  0  0  0  0
  142.0759   76.0692  218.2382 H   0  0  0  0  0  0  0  0  0  0  0  0
  141.0375   74.6546  218.6258 H   0  0  0  0  0  0  0  0  0  0  0  0
  140.4144   76.1543  216.6012 H   0  0  0  0  0  0  0  0  0  0  0  0
  139.1222   75.6656  217.8106 H   0  0  0  0  0  0  0  0  0  0  0  0
  140.4413   78.3234  217.4223 H   0  0  0  0  0  0  0  0  0  0  0  0
  138.6811   77.8322  217.3069 H   0  0  0  0  0  0  0  0  0  0  0  0
  139.1850   79.1426  219.3762 H   0  0  0  0  0  0  0  0  0  0  0  0
  138.5625   77.5286  219.7289 H   0  0  0  0  0  0  0  0  0  0  0  0
  141.5598   78.2142  219.4680 H   0  0  0  0  0  0  0  0  0  0  0  0
  138.8880   78.0624  221.9595 H   0  0  0  0  0  0  0  0  0  0  0  0
  139.2105   79.0984  224.1470 H   0  0  0  0  0  0  0  0  0  0  0  0
  141.4263   80.0238  224.8105 H   0  0  0  0  0  0  0  0  0  0  0  0
  143.2950   79.8731  223.1946 H   0  0  0  0  0  0  0  0  0  0  0  0
  142.9795   78.8367  220.9945 H   0  0  0  0  0  0  0  0  0  0  0  0
  139.1363   69.7957  222.3815 H   0  0  0  0  0  0  0  0  0  0  0  0
  139.2216   68.3678  224.4148 H   0  0  0  0  0  0  0  0  0  0  0  0
  140.6941   69.1994  228.8958 H   0  0  0  0  0  0  0  0  0  0  0  0
  141.4523   71.5790  228.8896 H   0  0  0  0  0  0  0  0  0  0  0  0
  141.3013   72.8936  226.7680 H   0  0  0  0  0  0  0  0  0  0  0  0
  1  2  2  0
  2  3  1  0
  3  4  1  0
  4  5  1  0
  5  6  2  0
  5  7  1  0
  7  8  1  0
  8  9  1  0
  9 10  1  0
 10 11  1  0
 11 12  1  0
 12 13  1  0
 13 14  2  0
 14 15  1  0
 15 16  2  0
 16 17  1  0
 17 18  2  0
  2 19  1  0
 19 20  2  0
 20 21  1  0
 21 22  2  0
 22 23  1  0
 23 24  1  0
 23 25  2  0
 25 26  1  0
 26 27  2  0
 27 28  1  0
 28 29  2  0
 12  7  1  0
 18 13  1  0
 29 19  1  0
 28 22  1  0
  3 30  1  0
  4 31  1  0
  4 32  1  0
  8 33  1  0
  8 34  1  0
  9 35  1  0
  9 36  1  0
 10 37  1  0
 10 38  1  0
 11 39  1  0
 11 40  1  0
 12 41  1  6
 14 42  1  0
 15 43  1  0
 16 44  1  0
 17 45  1  0
 18 46  1  0
 20 47  1  0
 21 48  1  0
 25 49  1  0
 26 50  1  0
 27 51  1  0
M  END
>  <smiles>  (11) 
O=C(NCC(=O)N1CCCC[C@H]1c1ccccc1)c1ccc2c(Cl)cccc2n1

>  <score_type>  (11) 
oracle

>  <origin>  (11) 
autodockgpu

>  <m_score__min__energy>  (11) 
-9.5199999999999996

>  <m_primary>  (11) 
energy

>  <rmsd>  (11) 
1.5976462811962997

>  <m_score__min__rmsd>  (11) 
1.5976462811962997

>  <meeko>  (11) 
{"free_energy": -8.41, "intermolecular_energy": -9.9, "internal_energy": -1.61, "cluster_size": 18, "cluster_id": 1, "rank_in_cluster": 14}

>  <energy>  (11) 
-9.33

>  <cluster_rmsd>  (11) 
0.44

>  <cluster>  (11) 
1

$$$$

     RDKit          3D

 51 54  0  0  0  0  0  0  0  0999 V2000
  139.6380   71.6530  220.8670 O   0  0  0  0  0  0  0  0  0  0  0  0
  139.7330   72.2120  222.0080 C   0  0  0  0  0  0  0  0  0  0  0  0
  139.7270   73.6190  222.1700 N   0  0  0  0  0  0  0  0  0  0  0  0
  139.6080   74.4500  220.9980 C   0  0  0  0  0  0  0  0  0  0  0  0
  140.6270   75.5410  220.9890 C   0  0  0  0  0  0  0  0  0  0  0  0
  140.9500   76.0090  222.1070 O   0  0  0  0  0  0  0  0  0  0  0  0
  141.1500   75.9650  219.7470 N   0  0  0  0  0  0  0  0  0  0  0  0
  140.3760   76.8970  218.8960 C   0  0  0  0  0  0  0  0  0  0  0  0
  141.2300   78.0970  218.5500 C   0  0  0  0  0  0  0  0  0  0  0  0
  142.6580   77.7830  218.2650 C   0  0  0  0  0  0  0  0  0  0  0  0
  143.2920   76.8100  219.2600 C   0  0  0  0  0  0  0  0  0  0  0  0
  142.4310   75.5710  219.2040 C   0  0  1  0  0  0  0  0  0  0  0  0
  143.0230   74.3670  219.7620 C   0  0  0  0  0  0  0  0  0  0  0  0
  142.4200   73.1320  219.6790 C   0  0  0  0  0  0  0  0  0  0  0  0
  142.9830   71.9980  220.2080 C   0  0  0  0  0  0  0  0  0  0  0  0
  144.2010   72.0410  220.8550 C   0  0  0  0  0  0  0  0  0  0  0  0
  144.8240   73.2520  220.9520 C   0  0  0  0  0  0  0  0  0  0  0  0
  144.2570   74.3930  220.4220 C   0  0  0  0  0  0  0  0  0  0  0  0
  139.8560   71.3890  223.2250 C   0  0  0  0  0  0  0  0  0  0  0  0
  139.5080   70.0510  223.2350 C   0  0  0  0  0  0  0  0  0  0  0  0
  139.6240   69.2750  224.3850 C   0  0  0  0  0  0  0  0  0  0  0  0
  140.0960   69.8550  225.5380 C   0  0  0  0  0  0  0  0  0  0  0  0
  140.2510   69.1850  226.7290 C   0  0  0  0  0  0  0  0  0  0  0  0
  139.8280   67.4900  226.8050 Cl  0  0  0  0  0  0  0  0  0  0  0  0
  140.7300   69.8010  227.8720 C   0  0  0  0  0  0  0  0  0  0  0  0
  141.0700   71.1430  227.8350 C   0  0  0  0  0  0  0  0  0  0  0  0
  140.9210   71.8390  226.6410 C   0  0  0  0  0  0  0  0  0  0  0  0
  140.4400   71.1900  225.5200 C   0  0  0  0  0  0  0  0  0  0  0  0
  140.3110   71.8980  224.3860 N   0  0  0  0  0  0  0  0  0  0  0  0
  139.8050   74.0770  223.1050 H   0  0  0  0  0  0  0  0  0  0  0  0
  139.7461   73.8258  220.1029 H   0  0  0  0  0  0  0  0  0  0  0  0
  138.6101   74.9128  221.0056 H   0  0  0  0  0  0  0  0  0  0  0  0
  140.0744   76.3835  217.9711 H   0  0  0  0  0  0  0  0  0  0  0  0
  139.4806   77.2309  219.4408 H   0  0  0  0  0  0  0  0  0  0  0  0
  140.8004   78.5778  217.6588 H   0  0  0  0  0  0  0  0  0  0  0  0
  141.2259   78.7476  219.4370 H   0  0  0  0  0  0  0  0  0  0  0  0
  142.7207   77.3398  217.2602 H   0  0  0  0  0  0  0  0  0  0  0  0
  143.2140   78.7286  218.3467 H   0  0  0  0  0  0  0  0  0  0  0  0
  144.3255   76.5754  218.9652 H   0  0  0  0  0  0  0  0  0  0  0  0
  143.3401   77.2322  220.2746 H   0  0  0  0  0  0  0  0  0  0  0  0
  142.3114   75.2264  218.1662 H   0  0  0  0  0  0  0  0  0  0  0  0
  141.4489   73.0513  219.1686 H   0  0  0  0  0  0  0  0  0  0  0  0
  142.4542   71.0380  220.1147 H   0  0  0  0  0  0  0  0  0  0  0  0
  144.6539   71.1320  221.2776 H   0  0  0  0  0  0  0  0  0  0  0  0
  145.7962   73.3194  221.4622 H   0  0  0  0  0  0  0  0  0  0  0  0
  144.7900   75.3501  220.5210 H   0  0  0  0  0  0  0  0  0  0  0  0
  139.1301   69.5881  222.3114 H   0  0  0  0  0  0  0  0  0  0  0  0
  139.3417   68.2119  224.3709 H   0  0  0  0  0  0  0  0  0  0  0  0
  140.8400   69.2280  228.8045 H   0  0  0  0  0  0  0  0  0  0  0  0
  141.4511   71.6490  228.7343 H   0  0  0  0  0  0  0  0  0  0  0  0
  141.1858   72.9054  226.5886 H   0  0  0  0  0  0  0  0  0  0  0  0
  1  2  2  0
  2  3  1  0
  3  4  1  0
  4  5  1  0
  5  6  2  0
  5  7  1  0
  7  8  1  0
  8  9  1  0
  9 10  1  0
 10 11  1  0
 11 12  1  0
 12 13  1  0
 13 14  2  0
 14 15  1  0
 15 16  2  0
 16 17  1  0
 17 18  2  0
  2 19  1  0
 19 20  2  0
 20 21  1  0
 21 22  2  0
 22 23  1  0
 23 24  1  0
 23 25  2  0
 25 26  1  0
 26 27  2  0
 27 28  1  0
 28 29  2  0
 12  7  1  0
 18 13  1  0
 29 19  1  0
 28 22  1  0
  3 30  1  0
  4 31  1  0
  4 32  1  0
  8 33  1  0
  8 34  1  0
  9 35  1  0
  9 36  1  0
 10 37  1  0
 10 38  1  0
 11 39  1  0
 11 40  1  0
 12 41  1  6
 14 42  1  0
 15 43  1  0
 16 44  1  0
 17 45  1  0
 18 46  1  0
 20 47  1  0
 21 48  1  0
 25 49  1  0
 26 50  1  0
 27 51  1  0
M  END
>  <smiles>  (12) 
O=C(NCC(=O)N1CCCC[C@H]1c1ccccc1)c1ccc2c(Cl)cccc2n1

>  <score_type>  (12) 
oracle

>  <origin>  (12) 
autodockgpu

>  <m_score__min__energy>  (12) 
-9.5199999999999996

>  <m_primary>  (12) 
energy

>  <rmsd>  (12) 
1.9247030030891015

>  <m_score__min__rmsd>  (12) 
1.9247030030891015

>  <meeko>  (12) 
{"free_energy": -8.36, "intermolecular_energy": -9.85, "internal_energy": -2.31, "cluster_size": 14, "cluster_id": 2, "rank_in_cluster": 11}

>  <energy>  (12) 
-9.32

>  <cluster_rmsd>  (12) 
0.48

>  <cluster>  (12) 
1

$$$$

     RDKit          3D

 51 54  0  0  0  0  0  0  0  0999 V2000
  140.6920   74.1350  222.0520 O   0  0  0  0  0  0  0  0  0  0  0  0
  140.4290   75.1500  221.3290 C   0  0  0  0  0  0  0  0  0  0  0  0
  140.2820   75.0650  219.9220 N   0  0  0  0  0  0  0  0  0  0  0  0
  140.4360   73.7800  219.2860 C   0  0  0  0  0  0  0  0  0  0  0  0
  141.5150   73.8000  218.2560 C   0  0  0  0  0  0  0  0  0  0  0  0
  141.7910   72.6990  217.7200 O   0  0  0  0  0  0  0  0  0  0  0  0
  142.1430   75.0290  217.9580 N   0  0  0  0  0  0  0  0  0  0  0  0
  141.5400   75.9480  216.9650 C   0  0  0  0  0  0  0  0  0  0  0  0
  141.3590   77.3170  217.5850 C   0  0  0  0  0  0  0  0  0  0  0  0
  142.4740   77.7500  218.4730 C   0  0  0  0  0  0  0  0  0  0  0  0
  142.9570   76.6670  219.4390 C   0  0  0  0  0  0  0  0  0  0  0  0
  143.3660   75.5090  218.5620 C   0  0  1  0  0  0  0  0  0  0  0  0
  144.2070   74.5060  219.1940 C   0  0  0  0  0  0  0  0  0  0  0  0
  144.5020   74.5210  220.5380 C   0  0  0  0  0  0  0  0  0  0  0  0
  145.2980   73.5720  221.1300 C   0  0  0  0  0  0  0  0  0  0  0  0
  145.8460   72.5400  220.3960 C   0  0  0  0  0  0  0  0  0  0  0  0
  145.5690   72.4990  219.0590 C   0  0  0  0  0  0  0  0  0  0  0  0
  144.7710   73.4540  218.4630 C   0  0  0  0  0  0  0  0  0  0  0  0
  140.2660   76.4770  221.9490 C   0  0  0  0  0  0  0  0  0  0  0  0
  139.0300   76.9400  222.3580 C   0  0  0  0  0  0  0  0  0  0  0  0
  138.8770   78.1940  222.9430 C   0  0  0  0  0  0  0  0  0  0  0  0
  139.9840   78.9900  223.1180 C   0  0  0  0  0  0  0  0  0  0  0  0
  139.9500   80.2430  223.6830 C   0  0  0  0  0  0  0  0  0  0  0  0
  138.4150   80.8850  224.2200 Cl  0  0  0  0  0  0  0  0  0  0  0  0
  141.0860   81.0170  223.8440 C   0  0  0  0  0  0  0  0  0  0  0  0
  142.3120   80.5300  223.4250 C   0  0  0  0  0  0  0  0  0  0  0  0
  142.3690   79.2660  222.8500 C   0  0  0  0  0  0  0  0  0  0  0  0
  141.2130   78.5200  222.7070 C   0  0  0  0  0  0  0  0  0  0  0  0
  141.3110   77.3040  222.1480 N   0  0  0  0  0  0  0  0  0  0  0  0
  140.0670   75.8970  219.3290 H   0  0  0  0  0  0  0  0  0  0  0  0
  140.6877   73.0312  220.0515 H   0  0  0  0  0  0  0  0  0  0  0  0
  139.4890   73.5292  218.7857 H   0  0  0  0  0  0  0  0  0  0  0  0
  142.2018   76.0269  216.0899 H   0  0  0  0  0  0  0  0  0  0  0  0
  140.5610   75.5563  216.6518 H   0  0  0  0  0  0  0  0  0  0  0  0
  141.2634   78.0516  216.7718 H   0  0  0  0  0  0  0  0  0  0  0  0
  140.4625   77.2549  218.2194 H   0  0  0  0  0  0  0  0  0  0  0  0
  143.3218   78.0527  217.8409 H   0  0  0  0  0  0  0  0  0  0  0  0
  142.0880   78.5760  219.0885 H   0  0  0  0  0  0  0  0  0  0  0  0
  143.8144   77.0281  220.0260 H   0  0  0  0  0  0  0  0  0  0  0  0
  142.1769   76.3814  220.1601 H   0  0  0  0  0  0  0  0  0  0  0  0
  144.0674   75.8409  217.7823 H   0  0  0  0  0  0  0  0  0  0  0  0
  144.0838   75.3245  221.1621 H   0  0  0  0  0  0  0  0  0  0  0  0
  145.5027   73.6354  222.2089 H   0  0  0  0  0  0  0  0  0  0  0  0
  146.4825   71.7783  220.8701 H   0  0  0  0  0  0  0  0  0  0  0  0
  145.9903   71.6889  218.4456 H   0  0  0  0  0  0  0  0  0  0  0  0
  144.5725   73.3867  217.3831 H   0  0  0  0  0  0  0  0  0  0  0  0
  138.1450   76.3019  222.2179 H   0  0  0  0  0  0  0  0  0  0  0  0
  137.8835   78.5432  223.2609 H   0  0  0  0  0  0  0  0  0  0  0  0
  141.0149   82.0143  224.3027 H   0  0  0  0  0  0  0  0  0  0  0  0
  143.2245   81.1324  223.5449 H   0  0  0  0  0  0  0  0  0  0  0  0
  143.3325   78.8592  222.5090 H   0  0  0  0  0  0  0  0  0  0  0  0
  1  2  2  0
  2  3  1  0
  3  4  1  0
  4  5  1  0
  5  6  2  0
  5  7  1  0
  7  8  1  0
  8  9  1  0
  9 10  1  0
 10 11  1  0
 11 12  1  0
 12 13  1  0
 13 14  2  0
 14 15  1  0
 15 16  2  0
 16 17  1  0
 17 18  2  0
  2 19  1  0
 19 20  2  0
 20 21  1  0
 21 22  2  0
 22 23  1  0
 23 24  1  0
 23 25  2  0
 25 26  1  0
 26 27  2  0
 27 28  1  0
 28 29  2  0
 12  7  1  0
 18 13  1  0
 29 19  1  0
 28 22  1  0
  3 30  1  0
  4 31  1  0
  4 32  1  0
  8 33  1  0
  8 34  1  0
  9 35  1  0
  9 36  1  0
 10 37  1  0
 10 38  1  0
 11 39  1  0
 11 40  1  0
 12 41  1  6
 14 42  1  0
 15 43  1  0
 16 44  1  0
 17 45  1  0
 18 46  1  0
 20 47  1  0
 21 48  1  0
 25 49  1  0
 26 50  1  0
 27 51  1  0
M  END
>  <smiles>  (13) 
O=C(NCC(=O)N1CCCC[C@H]1c1ccccc1)c1ccc2c(Cl)cccc2n1

>  <score_type>  (13) 
oracle

>  <origin>  (13) 
autodockgpu

>  <m_score__min__energy>  (13) 
-9.5199999999999996

>  <m_primary>  (13) 
energy

>  <rmsd>  (13) 
6.58879276524481

>  <m_score__min__rmsd>  (13) 
6.58879276524481

>  <meeko>  (13) 
{"free_energy": -7.4, "intermolecular_energy": -8.89, "internal_energy": -2.31, "cluster_size": 6, "cluster_id": 8, "rank_in_cluster": 6}

>  <energy>  (13) 
-9.0

>  <cluster_rmsd>  (13) 
1.15

>  <cluster>  (13) 
1

$$$$

     RDKit          3D

 51 54  0  0  0  0  0  0  0  0999 V2000
  139.0910   74.6960  221.1590 O   0  0  0  0  0  0  0  0  0  0  0  0
  140.1240   75.2950  221.6000 C   0  0  0  0  0  0  0  0  0  0  0  0
  141.4110   74.7030  221.5890 N   0  0  0  0  0  0  0  0  0  0  0  0
  141.5560   73.3710  221.0570 C   0  0  0  0  0  0  0  0  0  0  0  0
  141.4540   73.3570  219.5680 C   0  0  0  0  0  0  0  0  0  0  0  0
  140.9750   72.3170  219.0550 O   0  0  0  0  0  0  0  0  0  0  0  0
  141.8940   74.4900  218.8500 N   0  0  0  0  0  0  0  0  0  0  0  0
  140.9700   75.1870  217.9270 C   0  0  0  0  0  0  0  0  0  0  0  0
  140.9110   76.6580  218.2820 C   0  0  0  0  0  0  0  0  0  0  0  0
  142.2170   77.2540  218.6770 C   0  0  0  0  0  0  0  0  0  0  0  0
  143.0280   76.3930  219.6460 C   0  0  0  0  0  0  0  0  0  0  0  0
  143.2140   75.0720  218.9390 C   0  0  1  0  0  0  0  0  0  0  0  0
  144.2600   74.2150  219.4710 C   0  0  0  0  0  0  0  0  0  0  0  0
  144.6220   73.0260  218.8790 C   0  0  0  0  0  0  0  0  0  0  0  0
  145.6110   72.2200  219.3850 C   0  0  0  0  0  0  0  0  0  0  0  0
  146.3020   72.5690  220.5280 C   0  0  0  0  0  0  0  0  0  0  0  0
  145.9640   73.7440  221.1360 C   0  0  0  0  0  0  0  0  0  0  0  0
  144.9700   74.5540  220.6280 C   0  0  0  0  0  0  0  0  0  0  0  0
  140.0080   76.6580  222.1510 C   0  0  0  0  0  0  0  0  0  0  0  0
  138.7860   77.1940  222.5090 C   0  0  0  0  0  0  0  0  0  0  0  0
  138.6770   78.4810  223.0280 C   0  0  0  0  0  0  0  0  0  0  0  0
  139.8140   79.2360  223.1880 C   0  0  0  0  0  0  0  0  0  0  0  0
  139.8250   80.5160  223.6900 C   0  0  0  0  0  0  0  0  0  0  0  0
  138.3090   81.2500  224.1610 Cl  0  0  0  0  0  0  0  0  0  0  0  0
  140.9900   81.2470  223.8380 C   0  0  0  0  0  0  0  0  0  0  0  0
  142.2020   80.6870  223.4710 C   0  0  0  0  0  0  0  0  0  0  0  0
  142.2140   79.3940  222.9610 C   0  0  0  0  0  0  0  0  0  0  0  0
  141.0300   78.6930  222.8280 C   0  0  0  0  0  0  0  0  0  0  0  0
  141.0850   77.4470  222.3320 N   0  0  0  0  0  0  0  0  0  0  0  0
  142.2590   75.1950  221.9510 H   0  0  0  0  0  0  0  0  0  0  0  0
  142.5393   72.9750  221.3507 H   0  0  0  0  0  0  0  0  0  0  0  0
  140.7437   72.7497  221.4622 H   0  0  0  0  0  0  0  0  0  0  0  0
  141.3303   75.0739  216.8938 H   0  0  0  0  0  0  0  0  0  0  0  0
  139.9649   74.7490  218.0166 H   0  0  0  0  0  0  0  0  0  0  0  0
  140.5342   77.2072  217.4066 H   0  0  0  0  0  0  0  0  0  0  0  0
  140.2530   76.7404  219.1596 H   0  0  0  0  0  0  0  0  0  0  0  0
  142.8159   77.4079  217.7672 H   0  0  0  0  0  0  0  0  0  0  0  0
  141.9912   78.1945  219.2008 H   0  0  0  0  0  0  0  0  0  0  0  0
  144.0020   76.8597  219.8545 H   0  0  0  0  0  0  0  0  0  0  0  0
  142.5203   76.2737  220.6145 H   0  0  0  0  0  0  0  0  0  0  0  0
  143.6270   75.2252  217.9310 H   0  0  0  0  0  0  0  0  0  0  0  0
  144.0982   72.7096  217.9649 H   0  0  0  0  0  0  0  0  0  0  0  0
  145.8574   71.2794  218.8707 H   0  0  0  0  0  0  0  0  0  0  0  0
  147.0955   71.9244  220.9340 H   0  0  0  0  0  0  0  0  0  0  0  0
  146.4951   74.0507  222.0492 H   0  0  0  0  0  0  0  0  0  0  0  0
  144.7286   75.4932  221.1472 H   0  0  0  0  0  0  0  0  0  0  0  0
  137.8765   76.5887  222.3807 H   0  0  0  0  0  0  0  0  0  0  0  0
  137.6938   78.8883  223.3063 H   0  0  0  0  0  0  0  0  0  0  0  0
  140.9538   82.2682  224.2453 H   0  0  0  0  0  0  0  0  0  0  0  0
  143.1378   81.2547  223.5810 H   0  0  0  0  0  0  0  0  0  0  0  0
  143.1653   78.9287  222.6633 H   0  0  0  0  0  0  0  0  0  0  0  0
  1  2  2  0
  2  3  1  0
  3  4  1  0
  4  5  1  0
  5  6  2  0
  5  7  1  0
  7  8  1  0
  8  9  1  0
  9 10  1  0
 10 11  1  0
 11 12  1  0
 12 13  1  0
 13 14  2  0
 14 15  1  0
 15 16  2  0
 16 17  1  0
 17 18  2  0
  2 19  1  0
 19 20  2  0
 20 21  1  0
 21 22  2  0
 22 23  1  0
 23 24  1  0
 23 25  2  0
 25 26  1  0
 26 27  2  0
 27 28  1  0
 28 29  2  0
 12  7  1  0
 18 13  1  0
 29 19  1  0
 28 22  1  0
  3 30  1  0
  4 31  1  0
  4 32  1  0
  8 33  1  0
  8 34  1  0
  9 35  1  0
  9 36  1  0
 10 37  1  0
 10 38  1  0
 11 39  1  0
 11 40  1  0
 12 41  1  6
 14 42  1  0
 15 43  1  0
 16 44  1  0
 17 45  1  0
 18 46  1  0
 20 47  1  0
 21 48  1  0
 25 49  1  0
 26 50  1  0
 27 51  1  0
M  END
>  <smiles>  (14) 
O=C(NCC(=O)N1CCCC[C@H]1c1ccccc1)c1ccc2c(Cl)cccc2n1

>  <score_type>  (14) 
oracle

>  <origin>  (14) 
autodockgpu

>  <m_score__min__energy>  (14) 
-9.5199999999999996

>  <m_primary>  (14) 
energy

>  <rmsd>  (14) 
6.623967494145903

>  <m_score__min__rmsd>  (14) 
6.623967494145903

>  <meeko>  (14) 
{"free_energy": -7.53, "intermolecular_energy": -9.02, "internal_energy": -2.5, "cluster_size": 6, "cluster_id": 8, "rank_in_cluster": 3}

>  <energy>  (14) 
-8.41

>  <cluster_rmsd>  (14) 
1.05

>  <cluster>  (14) 
1

$$$$

     RDKit          3D

 51 54  0  0  0  0  0  0  0  0999 V2000
  139.5250   71.1670  221.2210 O   0  0  0  0  0  0  0  0  0  0  0  0
  139.6140   71.8900  222.2660 C   0  0  0  0  0  0  0  0  0  0  0  0
  139.4890   73.3010  222.2300 N   0  0  0  0  0  0  0  0  0  0  0  0
  139.2510   73.9420  220.9620 C   0  0  0  0  0  0  0  0  0  0  0  0
  140.3830   73.7280  220.0130 C   0  0  0  0  0  0  0  0  0  0  0  0
  140.0750   73.5650  218.8080 O   0  0  0  0  0  0  0  0  0  0  0  0
  141.7000   73.7220  220.5240 N   0  0  0  0  0  0  0  0  0  0  0  0
  142.3810   72.4370  220.8040 C   0  0  0  0  0  0  0  0  0  0  0  0
  143.7120   72.4010  220.0850 C   0  0  0  0  0  0  0  0  0  0  0  0
  144.4530   73.6930  220.0820 C   0  0  0  0  0  0  0  0  0  0  0  0
  143.5840   74.9090  219.7610 C   0  0  0  0  0  0  0  0  0  0  0  0
  142.4910   74.9000  220.8020 C   0  0  1  0  0  0  0  0  0  0  0  0
  141.7580   76.1450  220.9560 C   0  0  0  0  0  0  0  0  0  0  0  0
  141.7370   77.1230  219.9870 C   0  0  0  0  0  0  0  0  0  0  0  0
  141.0430   78.2980  220.1380 C   0  0  0  0  0  0  0  0  0  0  0  0
  140.3210   78.5580  221.2850 C   0  0  0  0  0  0  0  0  0  0  0  0
  140.3220   77.6050  222.2630 C   0  0  0  0  0  0  0  0  0  0  0  0
  141.0200   76.4250  222.1120 C   0  0  0  0  0  0  0  0  0  0  0  0
  139.8580   71.2630  223.5790 C   0  0  0  0  0  0  0  0  0  0  0  0
  139.5890   69.9260  223.8050 C   0  0  0  0  0  0  0  0  0  0  0  0
  139.8180   69.3360  225.0450 C   0  0  0  0  0  0  0  0  0  0  0  0
  140.3250   70.1020  226.0670 C   0  0  0  0  0  0  0  0  0  0  0  0
  140.5890   69.6240  227.3290 C   0  0  0  0  0  0  0  0  0  0  0  0
  140.2700   67.9410  227.6780 Cl  0  0  0  0  0  0  0  0  0  0  0  0
  141.1000   70.4250  228.3360 C   0  0  0  0  0  0  0  0  0  0  0  0
  141.3600   71.7610  228.0820 C   0  0  0  0  0  0  0  0  0  0  0  0
  141.0990   72.2650  226.8130 C   0  0  0  0  0  0  0  0  0  0  0  0
  140.5900   71.4340  225.8330 C   0  0  0  0  0  0  0  0  0  0  0  0
  140.3520   71.9590  224.6200 N   0  0  0  0  0  0  0  0  0  0  0  0
  139.5620   73.8930  223.0870 H   0  0  0  0  0  0  0  0  0  0  0  0
  138.3326   73.5279  220.5203 H   0  0  0  0  0  0  0  0  0  0  0  0
  139.1516   75.0232  221.1382 H   0  0  0  0  0  0  0  0  0  0  0  0
  142.5471   72.3390  221.8870 H   0  0  0  0  0  0  0  0  0  0  0  0
  141.7526   71.6059  220.4513 H   0  0  0  0  0  0  0  0  0  0  0  0
  144.3444   71.6445  220.5725 H   0  0  0  0  0  0  0  0  0  0  0  0
  143.4906   72.1674  219.0331 H   0  0  0  0  0  0  0  0  0  0  0  0
  144.8974   73.8389  221.0776 H   0  0  0  0  0  0  0  0  0  0  0  0
  145.2090   73.6238  219.2859 H   0  0  0  0  0  0  0  0  0  0  0  0
  144.1748   75.8343  219.8299 H   0  0  0  0  0  0  0  0  0  0  0  0
  143.1790   74.8667  218.7392 H   0  0  0  0  0  0  0  0  0  0  0  0
  142.9180   74.8372  221.8138 H   0  0  0  0  0  0  0  0  0  0  0  0
  142.2981   76.9564  219.0556 H   0  0  0  0  0  0  0  0  0  0  0  0
  141.0628   79.0450  219.3308 H   0  0  0  0  0  0  0  0  0  0  0  0
  139.7647   79.4991  221.4070 H   0  0  0  0  0  0  0  0  0  0  0  0
  139.7553   77.7818  223.1890 H   0  0  0  0  0  0  0  0  0  0  0  0
  140.9960   75.6826  222.9233 H   0  0  0  0  0  0  0  0  0  0  0  0
  139.1844   69.3137  222.9856 H   0  0  0  0  0  0  0  0  0  0  0  0
  139.5960   68.2705  225.2046 H   0  0  0  0  0  0  0  0  0  0  0  0
  141.2983   70.0025  229.3321 H   0  0  0  0  0  0  0  0  0  0  0  0
  141.7659   72.4120  228.8703 H   0  0  0  0  0  0  0  0  0  0  0  0
  141.2973   73.3236  226.5892 H   0  0  0  0  0  0  0  0  0  0  0  0
  1  2  2  0
  2  3  1  0
  3  4  1  0
  4  5  1  0
  5  6  2  0
  5  7  1  0
  7  8  1  0
  8  9  1  0
  9 10  1  0
 10 11  1  0
 11 12  1  0
 12 13  1  0
 13 14  2  0
 14 15  1  0
 15 16  2  0
 16 17  1  0
 17 18  2  0
  2 19  1  0
 19 20  2  0
 20 21  1  0
 21 22  2  0
 22 23  1  0
 23 24  1  0
 23 25  2  0
 25 26  1  0
 26 27  2  0
 27 28  1  0
 28 29  2  0
 12  7  1  0
 18 13  1  0
 29 19  1  0
 28 22  1  0
  3 30  1  0
  4 31  1  0
  4 32  1  0
  8 33  1  0
  8 34  1  0
  9 35  1  0
  9 36  1  0
 10 37  1  0
 10 38  1  0
 11 39  1  0
 11 40  1  0
 12 41  1  1
 14 42  1  0
 15 43  1  0
 16 44  1  0
 17 45  1  0
 18 46  1  0
 20 47  1  0
 21 48  1  0
 25 49  1  0
 26 50  1  0
 27 51  1  0
M  END
>  <smiles>  (15) 
O=C(NCC(=O)N1CCCC[C@H]1c1ccccc1)c1ccc2c(Cl)cccc2n1

>  <score_type>  (15) 
oracle

>  <origin>  (15) 
autodockgpu

>  <m_score__min__energy>  (15) 
-9.5199999999999996

>  <m_primary>  (15) 
energy

>  <rmsd>  (15) 
2.851130562723642

>  <m_score__min__rmsd>  (15) 
2.851130562723642

>  <meeko>  (15) 
{"free_energy": -8.15, "intermolecular_energy": -9.64, "internal_energy": -1.97, "cluster_size": 18, "cluster_id": 1, "rank_in_cluster": 16}

>  <energy>  (15) 
-8.26

>  <cluster_rmsd>  (15) 
1.53

>  <cluster>  (15) 
1

$$$$

     RDKit          3D

 51 54  0  0  0  0  0  0  0  0999 V2000
  141.0520   72.2300  221.1980 O   0  0  0  0  0  0  0  0  0  0  0  0
  140.3610   72.5730  222.2100 C   0  0  0  0  0  0  0  0  0  0  0  0
  139.6370   73.7900  222.2600 N   0  0  0  0  0  0  0  0  0  0  0  0
  139.6840   74.6710  221.1210 C   0  0  0  0  0  0  0  0  0  0  0  0
  140.2920   75.9890  221.4670 C   0  0  0  0  0  0  0  0  0  0  0  0
  139.7040   76.6580  222.3500 O   0  0  0  0  0  0  0  0  0  0  0  0
  141.4660   76.3890  220.7900 N   0  0  0  0  0  0  0  0  0  0  0  0
  142.3020   75.3830  220.0980 C   0  0  0  0  0  0  0  0  0  0  0  0
  142.5110   75.8000  218.6580 C   0  0  0  0  0  0  0  0  0  0  0  0
  142.7220   77.2600  218.4580 C   0  0  0  0  0  0  0  0  0  0  0  0
  141.7540   78.1440  219.2480 C   0  0  0  0  0  0  0  0  0  0  0  0
  141.9480   77.7480  220.6920 C   0  0  1  0  0  0  0  0  0  0  0  0
  141.4340   78.6860  221.6760 C   0  0  0  0  0  0  0  0  0  0  0  0
  141.8380   78.6820  222.9920 C   0  0  0  0  0  0  0  0  0  0  0  0
  141.3500   79.5700  223.9170 C   0  0  0  0  0  0  0  0  0  0  0  0
  140.4170   80.5260  223.5670 C   0  0  0  0  0  0  0  0  0  0  0  0
  139.9990   80.5550  222.2680 C   0  0  0  0  0  0  0  0  0  0  0  0
  140.4890   79.6620  221.3380 C   0  0  0  0  0  0  0  0  0  0  0  0
  140.2940   71.6940  223.3920 C   0  0  0  0  0  0  0  0  0  0  0  0
  139.8190   70.3980  223.3050 C   0  0  0  0  0  0  0  0  0  0  0  0
  139.7550   69.5690  224.4210 C   0  0  0  0  0  0  0  0  0  0  0  0
  140.1740   70.0510  225.6380 C   0  0  0  0  0  0  0  0  0  0  0  0
  140.1560   69.3210  226.8040 C   0  0  0  0  0  0  0  0  0  0  0  0
  139.5660   67.6760  226.7600 Cl  0  0  0  0  0  0  0  0  0  0  0  0
  140.5860   69.8400  228.0120 C   0  0  0  0  0  0  0  0  0  0  0  0
  141.0560   71.1410  228.0710 C   0  0  0  0  0  0  0  0  0  0  0  0
  141.0840   71.8960  226.9050 C   0  0  0  0  0  0  0  0  0  0  0  0
  140.6460   71.3440  225.7150 C   0  0  0  0  0  0  0  0  0  0  0  0
  140.6890   72.1070  224.6110 N   0  0  0  0  0  0  0  0  0  0  0  0
  139.0700   74.0720  223.0910 H   0  0  0  0  0  0  0  0  0  0  0  0
  140.2841   74.1985  220.3294 H   0  0  0  0  0  0  0  0  0  0  0  0
  138.6527   74.8478  220.7817 H   0  0  0  0  0  0  0  0  0  0  0  0
  143.2766   75.3076  220.6024 H   0  0  0  0  0  0  0  0  0  0  0  0
  141.7964   74.4065  220.1257 H   0  0  0  0  0  0  0  0  0  0  0  0
  143.3945   75.2701  218.2725 H   0  0  0  0  0  0  0  0  0  0  0  0
  141.5850   75.5435  218.1226 H   0  0  0  0  0  0  0  0  0  0  0  0
  143.7478   77.5068  218.7690 H   0  0  0  0  0  0  0  0  0  0  0  0
  142.5412   77.4641  217.3923 H   0  0  0  0  0  0  0  0  0  0  0  0
  141.9964   79.2072  219.1033 H   0  0  0  0  0  0  0  0  0  0  0  0
  140.7126   78.0096  218.9204 H   0  0  0  0  0  0  0  0  0  0  0  0
  143.0120   77.7906  220.9680 H   0  0  0  0  0  0  0  0  0  0  0  0
  142.5811   77.9378  223.3145 H   0  0  0  0  0  0  0  0  0  0  0  0
  141.7083   79.5196  224.9558 H   0  0  0  0  0  0  0  0  0  0  0  0
  140.0250   81.2382  224.3080 H   0  0  0  0  0  0  0  0  0  0  0  0
  139.2570   81.3050  221.9568 H   0  0  0  0  0  0  0  0  0  0  0  0
  140.1268   79.7183  220.3009 H   0  0  0  0  0  0  0  0  0  0  0  0
  139.4838   70.0133  222.3305 H   0  0  0  0  0  0  0  0  0  0  0  0
  139.3739   68.5411  224.3302 H   0  0  0  0  0  0  0  0  0  0  0  0
  140.5547   69.2220  228.9214 H   0  0  0  0  0  0  0  0  0  0  0  0
  141.4010   71.5691  229.0237 H   0  0  0  0  0  0  0  0  0  0  0  0
  141.4541   72.9316  226.9283 H   0  0  0  0  0  0  0  0  0  0  0  0
  1  2  2  0
  2  3  1  0
  3  4  1  0
  4  5  1  0
  5  6  2  0
  5  7  1  0
  7  8  1  0
  8  9  1  0
  9 10  1  0
 10 11  1  0
 11 12  1  0
 12 13  1  0
 13 14  2  0
 14 15  1  0
 15 16  2  0
 16 17  1  0
 17 18  2  0
  2 19  1  0
 19 20  2  0
 20 21  1  0
 21 22  2  0
 22 23  1  0
 23 24  1  0
 23 25  2  0
 25 26  1  0
 26 27  2  0
 27 28  1  0
 28 29  2  0
 12  7  1  0
 18 13  1  0
 29 19  1  0
 28 22  1  0
  3 30  1  0
  4 31  1  0
  4 32  1  0
  8 33  1  0
  8 34  1  0
  9 35  1  0
  9 36  1  0
 10 37  1  0
 10 38  1  0
 11 39  1  0
 11 40  1  0
 12 41  1  1
 14 42  1  0
 15 43  1  0
 16 44  1  0
 17 45  1  0
 18 46  1  0
 20 47  1  0
 21 48  1  0
 25 49  1  0
 26 50  1  0
 27 51  1  0
M  END
>  <smiles>  (16) 
O=C(NCC(=O)N1CCCC[C@H]1c1ccccc1)c1ccc2c(Cl)cccc2n1

>  <score_type>  (16) 
oracle

>  <origin>  (16) 
autodockgpu

>  <m_score__min__energy>  (16) 
-9.5199999999999996

>  <m_primary>  (16) 
energy

>  <rmsd>  (16) 
2.0418100524703484

>  <m_score__min__rmsd>  (16) 
2.0418100524703484

>  <meeko>  (16) 
{"free_energy": -9.44, "intermolecular_energy": -10.93, "internal_energy": -1.47, "cluster_size": 18, "cluster_id": 1, "rank_in_cluster": 4}

>  <energy>  (16) 
-8.15

>  <cluster_rmsd>  (16) 
1.7

>  <cluster>  (16) 
1

$$$$

     RDKit          3D

 51 54  0  0  0  0  0  0  0  0999 V2000
  140.6290   72.0350  221.0060 O   0  0  0  0  0  0  0  0  0  0  0  0
  140.1480   72.4860  222.0950 C   0  0  0  0  0  0  0  0  0  0  0  0
  139.6070   73.7910  222.2060 N   0  0  0  0  0  0  0  0  0  0  0  0
  139.6000   74.6390  221.0410 C   0  0  0  0  0  0  0  0  0  0  0  0
  140.9780   75.0690  220.6620 C   0  0  0  0  0  0  0  0  0  0  0  0
  141.7900   75.2280  221.6050 O   0  0  0  0  0  0  0  0  0  0  0  0
  141.2720   75.2650  219.2940 N   0  0  0  0  0  0  0  0  0  0  0  0
  140.2050   75.6880  218.3600 C   0  0  0  0  0  0  0  0  0  0  0  0
  140.6430   76.9330  217.6190 C   0  0  0  0  0  0  0  0  0  0  0  0
  142.0780   76.9480  217.2220 C   0  0  0  0  0  0  0  0  0  0  0  0
  143.0340   76.4880  218.3240 C   0  0  0  0  0  0  0  0  0  0  0  0
  142.5740   75.0970  218.6900 C   0  0  1  0  0  0  0  0  0  0  0  0
  143.5300   74.2940  219.4330 C   0  0  0  0  0  0  0  0  0  0  0  0
  144.5710   74.8440  220.1480 C   0  0  0  0  0  0  0  0  0  0  0  0
  145.4710   74.0810  220.8490 C   0  0  0  0  0  0  0  0  0  0  0  0
  145.3740   72.7040  220.8720 C   0  0  0  0  0  0  0  0  0  0  0  0
  144.3510   72.1300  220.1730 C   0  0  0  0  0  0  0  0  0  0  0  0
  143.4470   72.8970  219.4680 C   0  0  0  0  0  0  0  0  0  0  0  0
  140.1420   71.6430  223.3050 C   0  0  0  0  0  0  0  0  0  0  0  0
  139.7000   70.3350  223.2750 C   0  0  0  0  0  0  0  0  0  0  0  0
  139.6930   69.5400  224.4180 C   0  0  0  0  0  0  0  0  0  0  0  0
  140.1380   70.0710  225.6040 C   0  0  0  0  0  0  0  0  0  0  0  0
  140.1760   69.3790  226.7920 C   0  0  0  0  0  0  0  0  0  0  0  0
  139.6290   67.7180  226.8180 Cl  0  0  0  0  0  0  0  0  0  0  0  0
  140.6310   69.9460  227.9690 C   0  0  0  0  0  0  0  0  0  0  0  0
  141.0680   71.2600  227.9720 C   0  0  0  0  0  0  0  0  0  0  0  0
  141.0380   71.9780  226.7820 C   0  0  0  0  0  0  0  0  0  0  0  0
  140.5780   71.3770  225.6260 C   0  0  0  0  0  0  0  0  0  0  0  0
  140.5650   72.1050  224.4980 N   0  0  0  0  0  0  0  0  0  0  0  0
  139.2140   74.1610  223.1000 H   0  0  0  0  0  0  0  0  0  0  0  0
  139.1554   74.0860  220.2004 H   0  0  0  0  0  0  0  0  0  0  0  0
  139.0128   75.5390  221.2759 H   0  0  0  0  0  0  0  0  0  0  0  0
  140.0099   74.8817  217.6377 H   0  0  0  0  0  0  0  0  0  0  0  0
  139.2876   75.9042  218.9272 H   0  0  0  0  0  0  0  0  0  0  0  0
  140.0342   77.0210  216.7071 H   0  0  0  0  0  0  0  0  0  0  0  0
  140.5042   77.7737  218.3147 H   0  0  0  0  0  0  0  0  0  0  0  0
  142.2039   76.2827  216.3551 H   0  0  0  0  0  0  0  0  0  0  0  0
  142.3341   77.9934  216.9948 H   0  0  0  0  0  0  0  0  0  0  0  0
  144.0693   76.4670  217.9529 H   0  0  0  0  0  0  0  0  0  0  0  0
  143.0217   77.1668  219.1895 H   0  0  0  0  0  0  0  0  0  0  0  0
  142.4936   74.4646  217.7936 H   0  0  0  0  0  0  0  0  0  0  0  0
  144.6855   75.9380  220.1575 H   0  0  0  0  0  0  0  0  0  0  0  0
  146.2835   74.5750  221.4020 H   0  0  0  0  0  0  0  0  0  0  0  0
  146.0949   72.0913  221.4332 H   0  0  0  0  0  0  0  0  0  0  0  0
  144.2458   71.0350  220.1721 H   0  0  0  0  0  0  0  0  0  0  0  0
  142.6372   72.3963  218.9171 H   0  0  0  0  0  0  0  0  0  0  0  0
  139.3446   69.9107  222.3244 H   0  0  0  0  0  0  0  0  0  0  0  0
  139.3359   68.5006  224.3718 H   0  0  0  0  0  0  0  0  0  0  0  0
  140.6456   69.3563  228.8974 H   0  0  0  0  0  0  0  0  0  0  0  0
  141.4322   71.7271  228.8990 H   0  0  0  0  0  0  0  0  0  0  0  0
  141.3800   73.0233  226.7607 H   0  0  0  0  0  0  0  0  0  0  0  0
  1  2  2  0
  2  3  1  0
  3  4  1  0
  4  5  1  0
  5  6  2  0
  5  7  1  0
  7  8  1  0
  8  9  1  0
  9 10  1  0
 10 11  1  0
 11 12  1  0
 12 13  1  0
 13 14  2  0
 14 15  1  0
 15 16  2  0
 16 17  1  0
 17 18  2  0
  2 19  1  0
 19 20  2  0
 20 21  1  0
 21 22  2  0
 22 23  1  0
 23 24  1  0
 23 25  2  0
 25 26  1  0
 26 27  2  0
 27 28  1  0
 28 29  2  0
 12  7  1  0
 18 13  1  0
 29 19  1  0
 28 22  1  0
  3 30  1  0
  4 31  1  0
  4 32  1  0
  8 33  1  0
  8 34  1  0
  9 35  1  0
  9 36  1  0
 10 37  1  0
 10 38  1  0
 11 39  1  0
 11 40  1  0
 12 41  1  6
 14 42  1  0
 15 43  1  0
 16 44  1  0
 17 45  1  0
 18 46  1  0
 20 47  1  0
 21 48  1  0
 25 49  1  0
 26 50  1  0
 27 51  1  0
M  END
>  <smiles>  (17) 
O=C(NCC(=O)N1CCCC[C@H]1c1ccccc1)c1ccc2c(Cl)cccc2n1

>  <score_type>  (17) 
oracle

>  <origin>  (17) 
autodockgpu

>  <m_score__min__energy>  (17) 
-9.5199999999999996

>  <m_primary>  (17) 
energy

>  <rmsd>  (17) 
1.80191932095578

>  <m_score__min__rmsd>  (17) 
1.80191932095578

>  <meeko>  (17) 
{"free_energy": -8.52, "intermolecular_energy": -10.01, "internal_energy": -1.84, "cluster_size": 14, "cluster_id": 2, "rank_in_cluster": 8}

>  <energy>  (17) 
-8.13

>  <cluster_rmsd>  (17) 
1.69

>  <cluster>  (17) 
1

$$$$

     RDKit          3D

 51 54  0  0  0  0  0  0  0  0999 V2000
  140.9130   72.0130  221.1950 O   0  0  0  0  0  0  0  0  0  0  0  0
  140.2140   72.3500  222.2040 C   0  0  0  0  0  0  0  0  0  0  0  0
  139.4480   73.5420  222.2370 N   0  0  0  0  0  0  0  0  0  0  0  0
  139.4610   74.4050  221.0830 C   0  0  0  0  0  0  0  0  0  0  0  0
  140.7560   75.1370  220.9540 C   0  0  0  0  0  0  0  0  0  0  0  0
  141.4310   75.2600  222.0050 O   0  0  0  0  0  0  0  0  0  0  0  0
  141.1280   75.6320  219.6850 N   0  0  0  0  0  0  0  0  0  0  0  0
  140.1270   76.3120  218.8320 C   0  0  0  0  0  0  0  0  0  0  0  0
  140.6480   77.6730  218.4250 C   0  0  0  0  0  0  0  0  0  0  0  0
  142.1020   77.7120  218.1040 C   0  0  0  0  0  0  0  0  0  0  0  0
  142.9810   76.9630  219.1060 C   0  0  0  0  0  0  0  0  0  0  0  0
  142.4530   75.5490  219.1140 C   0  0  1  0  0  0  0  0  0  0  0  0
  143.3390   74.5490  219.6880 C   0  0  0  0  0  0  0  0  0  0  0  0
  143.0830   73.1980  219.6180 C   0  0  0  0  0  0  0  0  0  0  0  0
  143.9230   72.2580  220.1610 C   0  0  0  0  0  0  0  0  0  0  0  0
  145.0830   72.6280  220.8120 C   0  0  0  0  0  0  0  0  0  0  0  0
  145.3630   73.9620  220.8960 C   0  0  0  0  0  0  0  0  0  0  0  0
  144.5190   74.9070  220.3510 C   0  0  0  0  0  0  0  0  0  0  0  0
  140.1810   71.4890  223.4000 C   0  0  0  0  0  0  0  0  0  0  0  0
  139.7060   70.1920  223.3470 C   0  0  0  0  0  0  0  0  0  0  0  0
  139.6740   69.3790  224.4770 C   0  0  0  0  0  0  0  0  0  0  0  0
  140.1260   69.8800  225.6740 C   0  0  0  0  0  0  0  0  0  0  0  0
  140.1410   69.1690  226.8510 C   0  0  0  0  0  0  0  0  0  0  0  0
  139.5530   67.5220  226.8480 Cl  0  0  0  0  0  0  0  0  0  0  0  0
  140.6040   69.7060  228.0390 C   0  0  0  0  0  0  0  0  0  0  0  0
  141.0740   71.0080  228.0650 C   0  0  0  0  0  0  0  0  0  0  0  0
  141.0680   71.7460  226.8870 C   0  0  0  0  0  0  0  0  0  0  0  0
  140.5980   71.1750  225.7180 C   0  0  0  0  0  0  0  0  0  0  0  0
  140.6090   71.9210  224.6020 N   0  0  0  0  0  0  0  0  0  0  0  0
  138.8750   73.8180  223.0660 H   0  0  0  0  0  0  0  0  0  0  0  0
  139.3048   73.7956  220.1806 H   0  0  0  0  0  0  0  0  0  0  0  0
  138.6582   75.1476  221.2017 H   0  0  0  0  0  0  0  0  0  0  0  0
  139.9412   75.7070  217.9323 H   0  0  0  0  0  0  0  0  0  0  0  0
  139.1894   76.4329  219.3944 H   0  0  0  0  0  0  0  0  0  0  0  0
  140.0915   78.0007  217.5345 H   0  0  0  0  0  0  0  0  0  0  0  0
  140.5034   78.3334  219.2927 H   0  0  0  0  0  0  0  0  0  0  0  0
  142.2491   77.2621  217.1111 H   0  0  0  0  0  0  0  0  0  0  0  0
  142.4074   78.7681  218.1403 H   0  0  0  0  0  0  0  0  0  0  0  0
  144.0330   76.9804  218.7851 H   0  0  0  0  0  0  0  0  0  0  0  0
  142.9474   77.4206  220.1057 H   0  0  0  0  0  0  0  0  0  0  0  0
  142.3979   75.1492  218.0907 H   0  0  0  0  0  0  0  0  0  0  0  0
  142.1698   72.8588  219.1071 H   0  0  0  0  0  0  0  0  0  0  0  0
  143.6676   71.1914  220.0760 H   0  0  0  0  0  0  0  0  0  0  0  0
  145.7571   71.8756  221.2472 H   0  0  0  0  0  0  0  0  0  0  0  0
  146.2797   74.2893  221.4084 H   0  0  0  0  0  0  0  0  0  0  0  0
  144.7803   75.9718  220.4398 H   0  0  0  0  0  0  0  0  0  0  0  0
  139.3442   69.7921  222.3882 H   0  0  0  0  0  0  0  0  0  0  0  0
  139.2920   68.3495  224.4123 H   0  0  0  0  0  0  0  0  0  0  0  0
  140.5987   69.1017  228.9581 H   0  0  0  0  0  0  0  0  0  0  0  0
  141.4455   71.4505  229.0010 H   0  0  0  0  0  0  0  0  0  0  0  0
  141.4364   72.7825  226.8844 H   0  0  0  0  0  0  0  0  0  0  0  0
  1  2  2  0
  2  3  1  0
  3  4  1  0
  4  5  1  0
  5  6  2  0
  5  7  1  0
  7  8  1  0
  8  9  1  0
  9 10  1  0
 10 11  1  0
 11 12  1  0
 12 13  1  0
 13 14  2  0
 14 15  1  0
 15 16  2  0
 16 17  1  0
 17 18  2  0
  2 19  1  0
 19 20  2  0
 20 21  1  0
 21 22  2  0
 22 23  1  0
 23 24  1  0
 23 25  2  0
 25 26  1  0
 26 27  2  0
 27 28  1  0
 28 29  2  0
 12  7  1  0
 18 13  1  0
 29 19  1  0
 28 22  1  0
  3 30  1  0
  4 31  1  0
  4 32  1  0
  8 33  1  0
  8 34  1  0
  9 35  1  0
  9 36  1  0
 10 37  1  0
 10 38  1  0
 11 39  1  0
 11 40  1  0
 12 41  1  6
 14 42  1  0
 15 43  1  0
 16 44  1  0
 17 45  1  0
 18 46  1  0
 20 47  1  0
 21 48  1  0
 25 49  1  0
 26 50  1  0
 27 51  1  0
M  END
>  <smiles>  (18) 
O=C(NCC(=O)N1CCCC[C@H]1c1ccccc1)c1ccc2c(Cl)cccc2n1

>  <score_type>  (18) 
oracle

>  <origin>  (18) 
autodockgpu

>  <m_score__min__energy>  (18) 
-9.5199999999999996

>  <m_primary>  (18) 
energy

>  <rmsd>  (18) 
1.7864625056210126

>  <m_score__min__rmsd>  (18) 
1.7864625056210126

>  <meeko>  (18) 
{"free_energy": -8.96, "intermolecular_energy": -10.46, "internal_energy": -1.8, "cluster_size": 14, "cluster_id": 2, "rank_in_cluster": 1}

>  <energy>  (18) 
-7.86

>  <cluster_rmsd>  (18) 
1.59

>  <cluster>  (18) 
1

$$$$

     RDKit          3D

 51 54  0  0  0  0  0  0  0  0999 V2000
  140.8210   71.9310  221.0530 O   0  0  0  0  0  0  0  0  0  0  0  0
  140.3730   72.4120  222.1440 C   0  0  0  0  0  0  0  0  0  0  0  0
  139.9240   73.7500  222.2590 N   0  0  0  0  0  0  0  0  0  0  0  0
  139.9740   74.6000  221.0960 C   0  0  0  0  0  0  0  0  0  0  0  0
  140.4420   75.9750  221.4360 C   0  0  0  0  0  0  0  0  0  0  0  0
  139.8150   76.5660  222.3480 O   0  0  0  0  0  0  0  0  0  0  0  0
  141.5380   76.5110  220.7230 N   0  0  0  0  0  0  0  0  0  0  0  0
  142.4030   75.6220  219.9150 C   0  0  0  0  0  0  0  0  0  0  0  0
  142.4890   76.1480  218.4990 C   0  0  0  0  0  0  0  0  0  0  0  0
  142.5760   77.6300  218.3900 C   0  0  0  0  0  0  0  0  0  0  0  0
  141.5960   78.3800  219.2930 C   0  0  0  0  0  0  0  0  0  0  0  0
  141.9090   77.9080  220.6920 C   0  0  1  0  0  0  0  0  0  0  0  0
  141.3880   78.7360  221.7670 C   0  0  0  0  0  0  0  0  0  0  0  0
  141.8600   78.6660  223.0580 C   0  0  0  0  0  0  0  0  0  0  0  0
  141.3640   79.4500  224.0700 C   0  0  0  0  0  0  0  0  0  0  0  0
  140.3540   80.3610  223.8380 C   0  0  0  0  0  0  0  0  0  0  0  0
  139.8660   80.4530  222.5660 C   0  0  0  0  0  0  0  0  0  0  0  0
  140.3640   79.6650  221.5490 C   0  0  0  0  0  0  0  0  0  0  0  0
  140.3100   71.5680  223.3520 C   0  0  0  0  0  0  0  0  0  0  0  0
  139.8410   70.2690  223.3050 C   0  0  0  0  0  0  0  0  0  0  0  0
  139.7800   69.4740  224.4460 C   0  0  0  0  0  0  0  0  0  0  0  0
  140.1980   69.9940  225.6480 C   0  0  0  0  0  0  0  0  0  0  0  0
  140.1820   69.3010  226.8350 C   0  0  0  0  0  0  0  0  0  0  0  0
  139.5990   67.6520  226.8410 Cl  0  0  0  0  0  0  0  0  0  0  0  0
  140.6110   69.8570  228.0270 C   0  0  0  0  0  0  0  0  0  0  0  0
  141.0760   71.1610  228.0460 C   0  0  0  0  0  0  0  0  0  0  0  0
  141.1000   71.8810  226.8570 C   0  0  0  0  0  0  0  0  0  0  0  0
  140.6640   71.2910  225.6850 C   0  0  0  0  0  0  0  0  0  0  0  0
  140.7040   72.0200  224.5580 N   0  0  0  0  0  0  0  0  0  0  0  0
  139.5570   74.1450  223.1540 H   0  0  0  0  0  0  0  0  0  0  0  0
  140.6652   74.1596  220.3623 H   0  0  0  0  0  0  0  0  0  0  0  0
  138.9570   74.6765  220.6838 H   0  0  0  0  0  0  0  0  0  0  0  0
  143.4102   75.5915  220.3560 H   0  0  0  0  0  0  0  0  0  0  0  0
  141.9756   74.6085  219.9030 H   0  0  0  0  0  0  0  0  0  0  0  0
  143.3841   75.7166  218.0270 H   0  0  0  0  0  0  0  0  0  0  0  0
  141.5531   75.8544  218.0012 H   0  0  0  0  0  0  0  0  0  0  0  0
  143.5976   77.9369  218.6585 H   0  0  0  0  0  0  0  0  0  0  0  0
  142.3140   77.8882  217.3533 H   0  0  0  0  0  0  0  0  0  0  0  0
  141.7477   79.4663  219.2091 H   0  0  0  0  0  0  0  0  0  0  0  0
  140.5493   78.1844  219.0169 H   0  0  0  0  0  0  0  0  0  0  0  0
  142.9819   78.0174  220.9084 H   0  0  0  0  0  0  0  0  0  0  0  0
  142.6663   77.9539  223.2880 H   0  0  0  0  0  0  0  0  0  0  0  0
  141.7791   79.3501  225.0838 H   0  0  0  0  0  0  0  0  0  0  0  0
  139.9565   80.9901  224.6481 H   0  0  0  0  0  0  0  0  0  0  0  0
  139.0602   81.1693  222.3480 H   0  0  0  0  0  0  0  0  0  0  0  0
  139.9442   79.7698  220.5376 H   0  0  0  0  0  0  0  0  0  0  0  0
  139.5078   69.8532  222.3427 H   0  0  0  0  0  0  0  0  0  0  0  0
  139.4021   68.4427  224.3866 H   0  0  0  0  0  0  0  0  0  0  0  0
  140.5828   69.2663  228.9545 H   0  0  0  0  0  0  0  0  0  0  0  0
  141.4202   71.6191  228.9850 H   0  0  0  0  0  0  0  0  0  0  0  0
  141.4653   72.9185  226.8486 H   0  0  0  0  0  0  0  0  0  0  0  0
  1  2  2  0
  2  3  1  0
  3  4  1  0
  4  5  1  0
  5  6  2  0
  5  7  1  0
  7  8  1  0
  8  9  1  0
  9 10  1  0
 10 11  1  0
 11 12  1  0
 12 13  1  0
 13 14  2  0
 14 15  1  0
 15 16  2  0
 16 17  1  0
 17 18  2  0
  2 19  1  0
 19 20  2  0
 20 21  1  0
 21 22  2  0
 22 23  1  0
 23 24  1  0
 23 25  2  0
 25 26  1  0
 26 27  2  0
 27 28  1  0
 28 29  2  0
 12  7  1  0
 18 13  1  0
 29 19  1  0
 28 22  1  0
  3 30  1  0
  4 31  1  0
  4 32  1  0
  8 33  1  0
  8 34  1  0
  9 35  1  0
  9 36  1  0
 10 37  1  0
 10 38  1  0
 11 39  1  0
 11 40  1  0
 12 41  1  6
 14 42  1  0
 15 43  1  0
 16 44  1  0
 17 45  1  0
 18 46  1  0
 20 47  1  0
 21 48  1  0
 25 49  1  0
 26 50  1  0
 27 51  1  0
M  END
>  <smiles>  (19) 
O=C(NCC(=O)N1CCCC[C@H]1c1ccccc1)c1ccc2c(Cl)cccc2n1

>  <score_type>  (19) 
oracle

>  <origin>  (19) 
autodockgpu

>  <m_score__min__energy>  (19) 
-9.5199999999999996

>  <m_primary>  (19) 
energy

>  <rmsd>  (19) 
2.071626059052459

>  <m_score__min__rmsd>  (19) 
2.071626059052459

>  <meeko>  (19) 
{"free_energy": -9.36, "intermolecular_energy": -10.85, "internal_energy": -1.56, "cluster_size": 18, "cluster_id": 1, "rank_in_cluster": 10}

>  <energy>  (19) 
-8.96

>  <cluster_rmsd>  (19) 
0.0

>  <cluster>  (19) 
2

$$$$

     RDKit          3D

 51 54  0  0  0  0  0  0  0  0999 V2000
  140.3170   73.5840  222.2120 O   0  0  0  0  0  0  0  0  0  0  0  0
  140.5590   72.3350  222.1600 C   0  0  0  0  0  0  0  0  0  0  0  0
  140.9600   71.6860  220.9670 N   0  0  0  0  0  0  0  0  0  0  0  0
  141.1000   72.4700  219.7660 C   0  0  0  0  0  0  0  0  0  0  0  0
  142.2840   72.0430  218.9620 C   0  0  0  0  0  0  0  0  0  0  0  0
  142.1090   71.0700  218.1900 O   0  0  0  0  0  0  0  0  0  0  0  0
  143.4970   72.7470  219.1210 N   0  0  0  0  0  0  0  0  0  0  0  0
  143.5420   74.2090  218.8890 C   0  0  0  0  0  0  0  0  0  0  0  0
  144.1250   74.8980  220.1040 C   0  0  0  0  0  0  0  0  0  0  0  0
  145.2570   74.1750  220.7460 C   0  0  0  0  0  0  0  0  0  0  0  0
  145.0230   72.6730  220.9120 C   0  0  0  0  0  0  0  0  0  0  0  0
  144.7560   72.1580  219.5180 C   0  0  1  0  0  0  0  0  0  0  0  0
  144.8780   70.7210  219.3440 C   0  0  0  0  0  0  0  0  0  0  0  0
  145.7710   70.1490  218.4670 C   0  0  0  0  0  0  0  0  0  0  0  0
  145.8820   68.7900  218.3060 C   0  0  0  0  0  0  0  0  0  0  0  0
  145.0920   67.9190  219.0280 C   0  0  0  0  0  0  0  0  0  0  0  0
  144.1960   68.4580  219.9070 C   0  0  0  0  0  0  0  0  0  0  0  0
  144.0840   69.8230  220.0680 C   0  0  0  0  0  0  0  0  0  0  0  0
  140.4230   71.5060  223.3720 C   0  0  0  0  0  0  0  0  0  0  0  0
  139.9390   70.2130  223.3150 C   0  0  0  0  0  0  0  0  0  0  0  0
  139.8100   69.4310  224.4600 C   0  0  0  0  0  0  0  0  0  0  0  0
  140.1730   69.9590  225.6750 C   0  0  0  0  0  0  0  0  0  0  0  0
  140.0880   69.2790  226.8670 C   0  0  0  0  0  0  0  0  0  0  0  0
  139.4830   67.6380  226.8610 Cl  0  0  0  0  0  0  0  0  0  0  0  0
  140.4640   69.8430  228.0740 C   0  0  0  0  0  0  0  0  0  0  0  0
  140.9450   71.1410  228.1030 C   0  0  0  0  0  0  0  0  0  0  0  0
  141.0380   71.8470  226.9090 C   0  0  0  0  0  0  0  0  0  0  0  0
  140.6550   71.2500  225.7230 C   0  0  0  0  0  0  0  0  0  0  0  0
  140.7610   71.9660  224.5920 N   0  0  0  0  0  0  0  0  0  0  0  0
  141.1570   70.6610  220.9240 H   0  0  0  0  0  0  0  0  0  0  0  0
  140.1929   72.3514  219.1552 H   0  0  0  0  0  0  0  0  0  0  0  0
  141.2446   73.5208  220.0576 H   0  0  0  0  0  0  0  0  0  0  0  0
  144.1701   74.4212  218.0112 H   0  0  0  0  0  0  0  0  0  0  0  0
  142.5227   74.5823  218.7113 H   0  0  0  0  0  0  0  0  0  0  0  0
  144.4837   75.8911  219.7955 H   0  0  0  0  0  0  0  0  0  0  0  0
  143.3200   74.9417  220.8524 H   0  0  0  0  0  0  0  0  0  0  0  0
  146.1546   74.3186  220.1266 H   0  0  0  0  0  0  0  0  0  0  0  0
  145.3682   74.5929  221.7574 H   0  0  0  0  0  0  0  0  0  0  0  0
  145.9138   72.1885  221.3383 H   0  0  0  0  0  0  0  0  0  0  0  0
  144.1884   72.4599  221.5961 H   0  0  0  0  0  0  0  0  0  0  0  0
  145.5526   72.4723  218.8276 H   0  0  0  0  0  0  0  0  0  0  0  0
  146.4215   70.8065  217.8715 H   0  0  0  0  0  0  0  0  0  0  0  0
  146.6134   68.3886  217.5891 H   0  0  0  0  0  0  0  0  0  0  0  0
  145.1805   66.8300  218.9004 H   0  0  0  0  0  0  0  0  0  0  0  0
  143.5515   67.7904  220.4977 H   0  0  0  0  0  0  0  0  0  0  0  0
  143.3499   70.2178  220.7858 H   0  0  0  0  0  0  0  0  0  0  0  0
  139.6485   69.7911  222.3415 H   0  0  0  0  0  0  0  0  0  0  0  0
  139.4224   68.4038  224.3924 H   0  0  0  0  0  0  0  0  0  0  0  0
  140.3811   69.2631  229.0050 H   0  0  0  0  0  0  0  0  0  0  0  0
  141.2480   71.6050  229.0532 H   0  0  0  0  0  0  0  0  0  0  0  0
  141.4161   72.8800  226.9083 H   0  0  0  0  0  0  0  0  0  0  0  0
  1  2  2  0
  2  3  1  0
  3  4  1  0
  4  5  1  0
  5  6  2  0
  5  7  1  0
  7  8  1  0
  8  9  1  0
  9 10  1  0
 10 11  1  0
 11 12  1  0
 12 13  1  0
 13 14  2  0
 14 15  1  0
 15 16  2  0
 16 17  1  0
 17 18  2  0
  2 19  1  0
 19 20  2  0
 20 21  1  0
 21 22  2  0
 22 23  1  0
 23 24  1  0
 23 25  2  0
 25 26  1  0
 26 27  2  0
 27 28  1  0
 28 29  2  0
 12  7  1  0
 18 13  1  0
 29 19  1  0
 28 22  1  0
  3 30  1  0
  4 31  1  0
  4 32  1  0
  8 33  1  0
  8 34  1  0
  9 35  1  0
  9 36  1  0
 10 37  1  0
 10 38  1  0
 11 39  1  0
 11 40  1  0
 12 41  1  6
 14 42  1  0
 15 43  1  0
 16 44  1  0
 17 45  1  0
 18 46  1  0
 20 47  1  0
 21 48  1  0
 25 49  1  0
 26 50  1  0
 27 51  1  0
M  END
>  <smiles>  (20) 
O=C(NCC(=O)N1CCCC[C@H]1c1ccccc1)c1ccc2c(Cl)cccc2n1

>  <score_type>  (20) 
oracle

>  <origin>  (20) 
autodockgpu

>  <m_score__min__energy>  (20) 
-9.5199999999999996

>  <m_primary>  (20) 
energy

>  <rmsd>  (20) 
4.0588050505220625

>  <m_score__min__rmsd>  (20) 
4.0588050505220625

>  <meeko>  (20) 
{"free_energy": -8.53, "intermolecular_energy": -10.02, "internal_energy": -1.58, "cluster_size": 1, "cluster_id": 4, "rank_in_cluster": 1}

>  <energy>  (20) 
-8.88

>  <cluster_rmsd>  (20) 
0.34

>  <cluster>  (20) 
2

$$$$

     RDKit          3D

 51 54  0  0  0  0  0  0  0  0999 V2000
  141.3520   72.3400  221.3890 O   0  0  0  0  0  0  0  0  0  0  0  0
  140.4810   72.5600  222.2910 C   0  0  0  0  0  0  0  0  0  0  0  0
  139.6410   73.7010  222.2770 N   0  0  0  0  0  0  0  0  0  0  0  0
  139.7780   74.6480  221.1990 C   0  0  0  0  0  0  0  0  0  0  0  0
  140.4830   75.8880  221.6380 C   0  0  0  0  0  0  0  0  0  0  0  0
  140.0980   76.3920  222.7210 O   0  0  0  0  0  0  0  0  0  0  0  0
  141.5150   76.4030  220.8230 N   0  0  0  0  0  0  0  0  0  0  0  0
  142.3450   75.4850  220.0100 C   0  0  0  0  0  0  0  0  0  0  0  0
  142.3240   75.9290  218.5630 C   0  0  0  0  0  0  0  0  0  0  0  0
  142.3670   77.4040  218.3640 C   0  0  0  0  0  0  0  0  0  0  0  0
  141.4320   78.1850  219.2870 C   0  0  0  0  0  0  0  0  0  0  0  0
  141.8490   77.8030  220.6870 C   0  0  1  0  0  0  0  0  0  0  0  0
  141.3810   78.6820  221.7460 C   0  0  0  0  0  0  0  0  0  0  0  0
  142.1600   79.0250  222.8280 C   0  0  0  0  0  0  0  0  0  0  0  0
  141.7130   79.8560  223.8250 C   0  0  0  0  0  0  0  0  0  0  0  0
  140.4430   80.3960  223.7900 C   0  0  0  0  0  0  0  0  0  0  0  0
  139.6480   80.0730  222.7270 C   0  0  0  0  0  0  0  0  0  0  0  0
  140.0970   79.2370  221.7250 C   0  0  0  0  0  0  0  0  0  0  0  0
  140.3180   71.6110  223.4080 C   0  0  0  0  0  0  0  0  0  0  0  0
  139.7690   70.3570  223.2190 C   0  0  0  0  0  0  0  0  0  0  0  0
  139.6140   69.4620  224.2740 C   0  0  0  0  0  0  0  0  0  0  0  0
  140.0170   69.8360  225.5330 C   0  0  0  0  0  0  0  0  0  0  0  0
  139.9120   69.0340  226.6450 C   0  0  0  0  0  0  0  0  0  0  0  0
  139.2260   67.4350  226.4710 Cl  0  0  0  0  0  0  0  0  0  0  0  0
  140.3290   69.4440  227.9000 C   0  0  0  0  0  0  0  0  0  0  0  0
  140.8750   70.7060  228.0610 C   0  0  0  0  0  0  0  0  0  0  0  0
  140.9900   71.5330  226.9500 C   0  0  0  0  0  0  0  0  0  0  0  0
  140.5630   71.0890  225.7130 C   0  0  0  0  0  0  0  0  0  0  0  0
  140.6930   71.9180  224.6650 N   0  0  0  0  0  0  0  0  0  0  0  0
  138.9280   73.8820  223.0180 H   0  0  0  0  0  0  0  0  0  0  0  0
  140.3522   74.1809  220.3853 H   0  0  0  0  0  0  0  0  0  0  0  0
  138.7699   74.9291  220.8602 H   0  0  0  0  0  0  0  0  0  0  0  0
  143.3799   75.5000  220.3826 H   0  0  0  0  0  0  0  0  0  0  0  0
  141.9416   74.4644  220.0850 H   0  0  0  0  0  0  0  0  0  0  0  0
  143.1962   75.4894  218.0571 H   0  0  0  0  0  0  0  0  0  0  0  0
  141.3647   75.5873  218.1471 H   0  0  0  0  0  0  0  0  0  0  0  0
  143.3965   77.7472  218.5442 H   0  0  0  0  0  0  0  0  0  0  0  0
  142.0298   77.5955  217.3346 H   0  0  0  0  0  0  0  0  0  0  0  0
  141.5510   79.2673  219.1307 H   0  0  0  0  0  0  0  0  0  0  0  0
  140.3744   77.9515  219.0946 H   0  0  0  0  0  0  0  0  0  0  0  0
  142.9309   77.9475  220.8235 H   0  0  0  0  0  0  0  0  0  0  0  0
  143.1795   78.6176  222.8962 H   0  0  0  0  0  0  0  0  0  0  0  0
  142.3788   80.0960  224.6671 H   0  0  0  0  0  0  0  0  0  0  0  0
  140.0843   81.0619  224.5887 H   0  0  0  0  0  0  0  0  0  0  0  0
  138.6306   80.4872  222.6687 H   0  0  0  0  0  0  0  0  0  0  0  0
  139.4262   79.0003  220.8860 H   0  0  0  0  0  0  0  0  0  0  0  0
  139.4466   70.0588  222.2105 H   0  0  0  0  0  0  0  0  0  0  0  0
  139.1746   68.4684  224.1018 H   0  0  0  0  0  0  0  0  0  0  0  0
  140.2271   68.7710  228.7641 H   0  0  0  0  0  0  0  0  0  0  0  0
  141.2118   71.0481  229.0507 H   0  0  0  0  0  0  0  0  0  0  0  0
  141.4204   72.5398  227.0552 H   0  0  0  0  0  0  0  0  0  0  0  0
  1  2  2  0
  2  3  1  0
  3  4  1  0
  4  5  1  0
  5  6  2  0
  5  7  1  0
  7  8  1  0
  8  9  1  0
  9 10  1  0
 10 11  1  0
 11 12  1  0
 12 13  1  0
 13 14  2  0
 14 15  1  0
 15 16  2  0
 16 17  1  0
 17 18  2  0
  2 19  1  0
 19 20  2  0
 20 21  1  0
 21 22  2  0
 22 23  1  0
 23 24  1  0
 23 25  2  0
 25 26  1  0
 26 27  2  0
 27 28  1  0
 28 29  2  0
 12  7  1  0
 18 13  1  0
 29 19  1  0
 28 22  1  0
  3 30  1  0
  4 31  1  0
  4 32  1  0
  8 33  1  0
  8 34  1  0
  9 35  1  0
  9 36  1  0
 10 37  1  0
 10 38  1  0
 11 39  1  0
 11 40  1  0
 12 41  1  6
 14 42  1  0
 15 43  1  0
 16 44  1  0
 17 45  1  0
 18 46  1  0
 20 47  1  0
 21 48  1  0
 25 49  1  0
 26 50  1  0
 27 51  1  0
M  END
>  <smiles>  (21) 
O=C(NCC(=O)N1CCCC[C@H]1c1ccccc1)c1ccc2c(Cl)cccc2n1

>  <score_type>  (21) 
oracle

>  <origin>  (21) 
autodockgpu

>  <m_score__min__energy>  (21) 
-9.5199999999999996

>  <m_primary>  (21) 
energy

>  <rmsd>  (21) 
2.0049564954215366

>  <m_score__min__rmsd>  (21) 
2.0049564954215366

>  <meeko>  (21) 
{"free_energy": -9.52, "intermolecular_energy": -11.01, "internal_energy": -1.47, "cluster_size": 18, "cluster_id": 1, "rank_in_cluster": 1}

>  <energy>  (21) 
-8.86

>  <cluster_rmsd>  (21) 
0.28

>  <cluster>  (21) 
2

$$$$

     RDKit          3D

 51 54  0  0  0  0  0  0  0  0999 V2000
  140.0250   71.6080  220.9560 O   0  0  0  0  0  0  0  0  0  0  0  0
  139.8990   72.1850  222.0840 C   0  0  0  0  0  0  0  0  0  0  0  0
  139.7030   73.5830  222.2070 N   0  0  0  0  0  0  0  0  0  0  0  0
  139.6440   74.3810  221.0080 C   0  0  0  0  0  0  0  0  0  0  0  0
  140.6280   75.5040  221.0430 C   0  0  0  0  0  0  0  0  0  0  0  0
  140.9260   75.9460  222.1780 O   0  0  0  0  0  0  0  0  0  0  0  0
  141.1480   75.9840  219.8200 N   0  0  0  0  0  0  0  0  0  0  0  0
  140.3910   76.9860  219.0360 C   0  0  0  0  0  0  0  0  0  0  0  0
  141.2780   78.1790  218.7480 C   0  0  0  0  0  0  0  0  0  0  0  0
  142.6910   77.8390  218.4240 C   0  0  0  0  0  0  0  0  0  0  0  0
  143.3080   76.7900  219.3510 C   0  0  0  0  0  0  0  0  0  0  0  0
  142.4080   75.5840  219.2370 C   0  0  1  0  0  0  0  0  0  0  0  0
  142.9700   74.3320  219.7150 C   0  0  0  0  0  0  0  0  0  0  0  0
  144.1130   74.2720  220.4810 C   0  0  0  0  0  0  0  0  0  0  0  0
  144.6400   73.0870  220.9300 C   0  0  0  0  0  0  0  0  0  0  0  0
  144.0390   71.8800  220.6330 C   0  0  0  0  0  0  0  0  0  0  0  0
  142.9030   71.9090  219.8760 C   0  0  0  0  0  0  0  0  0  0  0  0
  142.3740   73.1000  219.4230 C   0  0  0  0  0  0  0  0  0  0  0  0
  139.9550   71.3960  223.3290 C   0  0  0  0  0  0  0  0  0  0  0  0
  139.5320   70.0810  223.3730 C   0  0  0  0  0  0  0  0  0  0  0  0
  139.5840   69.3370  224.5480 C   0  0  0  0  0  0  0  0  0  0  0  0
  140.0700   69.9260  225.6920 C   0  0  0  0  0  0  0  0  0  0  0  0
  140.1670   69.2870  226.9050 C   0  0  0  0  0  0  0  0  0  0  0  0
  139.6470   67.6220  227.0260 Cl  0  0  0  0  0  0  0  0  0  0  0  0
  140.6610   69.9110  228.0370 C   0  0  0  0  0  0  0  0  0  0  0  0
  141.0780   71.2290  227.9650 C   0  0  0  0  0  0  0  0  0  0  0  0
  140.9880   71.8940  226.7480 C   0  0  0  0  0  0  0  0  0  0  0  0
  140.4890   71.2380  225.6380 C   0  0  0  0  0  0  0  0  0  0  0  0
  140.4190   71.9150  224.4810 N   0  0  0  0  0  0  0  0  0  0  0  0
  139.6000   74.0570  223.1320 H   0  0  0  0  0  0  0  0  0  0  0  0
  139.8653   73.7400  220.1419 H   0  0  0  0  0  0  0  0  0  0  0  0
  138.6347   74.8117  220.9320 H   0  0  0  0  0  0  0  0  0  0  0  0
  140.0621   76.5366  218.0874 H   0  0  0  0  0  0  0  0  0  0  0  0
  139.5127   77.3135  219.6116 H   0  0  0  0  0  0  0  0  0  0  0  0
  140.8520   78.7244  217.8930 H   0  0  0  0  0  0  0  0  0  0  0  0
  141.3057   78.7761  219.6714 H   0  0  0  0  0  0  0  0  0  0  0  0
  142.7265   77.4540  217.3942 H   0  0  0  0  0  0  0  0  0  0  0  0
  143.2772   78.7609  218.5526 H   0  0  0  0  0  0  0  0  0  0  0  0
  144.3293   76.5414  219.0267 H   0  0  0  0  0  0  0  0  0  0  0  0
  143.3836   77.1504  220.3875 H   0  0  0  0  0  0  0  0  0  0  0  0
  142.2632   75.3043  218.1831 H   0  0  0  0  0  0  0  0  0  0  0  0
  144.6234   75.2105  220.7432 H   0  0  0  0  0  0  0  0  0  0  0  0
  145.5572   73.0991  221.5371 H   0  0  0  0  0  0  0  0  0  0  0  0
  144.4600   70.9297  220.9931 H   0  0  0  0  0  0  0  0  0  0  0  0
  142.3997   70.9643  219.6224 H   0  0  0  0  0  0  0  0  0  0  0  0
  141.4575   73.0806  218.8149 H   0  0  0  0  0  0  0  0  0  0  0  0
  139.1448   69.6110  222.4570 H   0  0  0  0  0  0  0  0  0  0  0  0
  139.2410   68.2919  224.5616 H   0  0  0  0  0  0  0  0  0  0  0  0
  140.7220   69.3628  228.9887 H   0  0  0  0  0  0  0  0  0  0  0  0
  141.4734   71.7407  228.8548 H   0  0  0  0  0  0  0  0  0  0  0  0
  141.3136   72.9417  226.6679 H   0  0  0  0  0  0  0  0  0  0  0  0
  1  2  2  0
  2  3  1  0
  3  4  1  0
  4  5  1  0
  5  6  2  0
  5  7  1  0
  7  8  1  0
  8  9  1  0
  9 10  1  0
 10 11  1  0
 11 12  1  0
 12 13  1  0
 13 14  2  0
 14 15  1  0
 15 16  2  0
 16 17  1  0
 17 18  2  0
  2 19  1  0
 19 20  2  0
 20 21  1  0
 21 22  2  0
 22 23  1  0
 23 24  1  0
 23 25  2  0
 25 26  1  0
 26 27  2  0
 27 28  1  0
 28 29  2  0
 12  7  1  0
 18 13  1  0
 29 19  1  0
 28 22  1  0
  3 30  1  0
  4 31  1  0
  4 32  1  0
  8 33  1  0
  8 34  1  0
  9 35  1  0
  9 36  1  0
 10 37  1  0
 10 38  1  0
 11 39  1  0
 11 40  1  0
 12 41  1  6
 14 42  1  0
 15 43  1  0
 16 44  1  0
 17 45  1  0
 18 46  1  0
 20 47  1  0
 21 48  1  0
 25 49  1  0
 26 50  1  0
 27 51  1  0
M  END
>  <smiles>  (22) 
O=C(NCC(=O)N1CCCC[C@H]1c1ccccc1)c1ccc2c(Cl)cccc2n1

>  <score_type>  (22) 
oracle

>  <origin>  (22) 
autodockgpu

>  <m_score__min__energy>  (22) 
-9.5199999999999996

>  <m_primary>  (22) 
energy

>  <rmsd>  (22) 
1.9799478006143894

>  <m_score__min__rmsd>  (22) 
1.9799478006143894

>  <meeko>  (22) 
{"free_energy": -8.46, "intermolecular_energy": -9.96, "internal_energy": -2.26, "cluster_size": 14, "cluster_id": 2, "rank_in_cluster": 9}

>  <energy>  (22) 
-8.84

>  <cluster_rmsd>  (22) 
0.28

>  <cluster>  (22) 
2

$$$$

     RDKit          3D

 51 54  0  0  0  0  0  0  0  0999 V2000
  140.3460   71.8110  220.9610 O   0  0  0  0  0  0  0  0  0  0  0  0
  140.0000   72.3080  222.0810 C   0  0  0  0  0  0  0  0  0  0  0  0
  139.5960   73.6590  222.2230 N   0  0  0  0  0  0  0  0  0  0  0  0
  139.5760   74.5010  221.0540 C   0  0  0  0  0  0  0  0  0  0  0  0
  140.8310   75.2980  220.9250 C   0  0  0  0  0  0  0  0  0  0  0  0
  141.4130   75.5950  221.9960 O   0  0  0  0  0  0  0  0  0  0  0  0
  141.2720   75.6590  219.6330 N   0  0  0  0  0  0  0  0  0  0  0  0
  140.3310   76.2840  218.6760 C   0  0  0  0  0  0  0  0  0  0  0  0
  140.9160   77.5840  218.1660 C   0  0  0  0  0  0  0  0  0  0  0  0
  142.3820   77.5470  217.9080 C   0  0  0  0  0  0  0  0  0  0  0  0
  143.1930   76.8700  219.0140 C   0  0  0  0  0  0  0  0  0  0  0  0
  142.6160   75.4800  219.1320 C   0  0  1  0  0  0  0  0  0  0  0  0
  143.4430   74.5140  219.8350 C   0  0  0  0  0  0  0  0  0  0  0  0
  143.0750   73.1970  219.9980 C   0  0  0  0  0  0  0  0  0  0  0  0
  143.8580   72.2880  220.6640 C   0  0  0  0  0  0  0  0  0  0  0  0
  145.0720   72.6550  221.2080 C   0  0  0  0  0  0  0  0  0  0  0  0
  145.4640   73.9550  221.0610 C   0  0  0  0  0  0  0  0  0  0  0  0
  144.6760   74.8690  220.3940 C   0  0  0  0  0  0  0  0  0  0  0  0
  140.0110   71.4710  223.2950 C   0  0  0  0  0  0  0  0  0  0  0  0
  139.5750   70.1600  223.2770 C   0  0  0  0  0  0  0  0  0  0  0  0
  139.5840   69.3720  224.4240 C   0  0  0  0  0  0  0  0  0  0  0  0
  140.0400   69.9110  225.6030 C   0  0  0  0  0  0  0  0  0  0  0  0
  140.0940   69.2250  226.7930 C   0  0  0  0  0  0  0  0  0  0  0  0
  139.5550   67.5630  226.8350 Cl  0  0  0  0  0  0  0  0  0  0  0  0
  140.5600   69.8010  227.9620 C   0  0  0  0  0  0  0  0  0  0  0  0
  140.9920   71.1160  227.9540 C   0  0  0  0  0  0  0  0  0  0  0  0
  140.9450   71.8280  226.7610 C   0  0  0  0  0  0  0  0  0  0  0  0
  140.4740   71.2200  225.6120 C   0  0  0  0  0  0  0  0  0  0  0  0
  140.4460   71.9410  224.4810 N   0  0  0  0  0  0  0  0  0  0  0  0
  139.3130   74.0660  223.1420 H   0  0  0  0  0  0  0  0  0  0  0  0
  139.4623   73.8685  220.1613 H   0  0  0  0  0  0  0  0  0  0  0  0
  138.7338   75.2018  221.1512 H   0  0  0  0  0  0  0  0  0  0  0  0
  140.1618   75.6016  217.8300 H   0  0  0  0  0  0  0  0  0  0  0  0
  139.3754   76.4864  219.1818 H   0  0  0  0  0  0  0  0  0  0  0  0
  140.4087   77.8422  217.2247 H   0  0  0  0  0  0  0  0  0  0  0  0
  140.7587   78.3285  218.9603 H   0  0  0  0  0  0  0  0  0  0  0  0
  142.5540   77.0001  216.9692 H   0  0  0  0  0  0  0  0  0  0  0  0
  142.7223   78.5919  217.8590 H   0  0  0  0  0  0  0  0  0  0  0  0
  144.2572   76.8241  218.7393 H   0  0  0  0  0  0  0  0  0  0  0  0
  143.1347   77.4219  219.9638 H   0  0  0  0  0  0  0  0  0  0  0  0
  142.5879   74.9844  218.1504 H   0  0  0  0  0  0  0  0  0  0  0  0
  142.1157   72.8605  219.5778 H   0  0  0  0  0  0  0  0  0  0  0  0
  143.5120   71.2488  220.7660 H   0  0  0  0  0  0  0  0  0  0  0  0
  145.7012   71.9268  221.7407 H   0  0  0  0  0  0  0  0  0  0  0  0
  146.4268   74.2791  221.4828 H   0  0  0  0  0  0  0  0  0  0  0  0
  145.0266   75.9072  220.2985 H   0  0  0  0  0  0  0  0  0  0  0  0
  139.2118   69.7285  222.3326 H   0  0  0  0  0  0  0  0  0  0  0  0
  139.2306   68.3310  224.3874 H   0  0  0  0  0  0  0  0  0  0  0  0
  140.5869   69.2163  228.8934 H   0  0  0  0  0  0  0  0  0  0  0  0
  141.3655   71.5887  228.8743 H   0  0  0  0  0  0  0  0  0  0  0  0
  141.2824   72.8746  226.7311 H   0  0  0  0  0  0  0  0  0  0  0  0
  1  2  2  0
  2  3  1  0
  3  4  1  0
  4  5  1  0
  5  6  2  0
  5  7  1  0
  7  8  1  0
  8  9  1  0
  9 10  1  0
 10 11  1  0
 11 12  1  0
 12 13  1  0
 13 14  2  0
 14 15  1  0
 15 16  2  0
 16 17  1  0
 17 18  2  0
  2 19  1  0
 19 20  2  0
 20 21  1  0
 21 22  2  0
 22 23  1  0
 23 24  1  0
 23 25  2  0
 25 26  1  0
 26 27  2  0
 27 28  1  0
 28 29  2  0
 12  7  1  0
 18 13  1  0
 29 19  1  0
 28 22  1  0
  3 30  1  0
  4 31  1  0
  4 32  1  0
  8 33  1  0
  8 34  1  0
  9 35  1  0
  9 36  1  0
 10 37  1  0
 10 38  1  0
 11 39  1  0
 11 40  1  0
 12 41  1  6
 14 42  1  0
 15 43  1  0
 16 44  1  0
 17 45  1  0
 18 46  1  0
 20 47  1  0
 21 48  1  0
 25 49  1  0
 26 50  1  0
 27 51  1  0
M  END
>  <smiles>  (23) 
O=C(NCC(=O)N1CCCC[C@H]1c1ccccc1)c1ccc2c(Cl)cccc2n1

>  <score_type>  (23) 
oracle

>  <origin>  (23) 
autodockgpu

>  <m_score__min__energy>  (23) 
-9.5199999999999996

>  <m_primary>  (23) 
energy

>  <rmsd>  (23) 
1.802617073592298

>  <m_score__min__rmsd>  (23) 
1.802617073592298

>  <meeko>  (23) 
{"free_energy": -8.86, "intermolecular_energy": -10.35, "internal_energy": -1.92, "cluster_size": 14, "cluster_id": 2, "rank_in_cluster": 3}

>  <energy>  (23) 
-8.75

>  <cluster_rmsd>  (23) 
0.32

>  <cluster>  (23) 
2

$$$$

     RDKit          3D

 51 54  0  0  0  0  0  0  0  0999 V2000
  139.6790   73.7580  222.3560 O   0  0  0  0  0  0  0  0  0  0  0  0
  139.9240   72.5180  222.1990 C   0  0  0  0  0  0  0  0  0  0  0  0
  140.1470   71.9410  220.9250 N   0  0  0  0  0  0  0  0  0  0  0  0
  140.0940   72.7900  219.7620 C   0  0  0  0  0  0  0  0  0  0  0  0
  141.4420   72.9650  219.1440 C   0  0  0  0  0  0  0  0  0  0  0  0
  141.4650   73.1390  217.9020 O   0  0  0  0  0  0  0  0  0  0  0  0
  142.5790   72.9250  219.9810 N   0  0  0  0  0  0  0  0  0  0  0  0
  143.1350   71.6230  220.4140 C   0  0  0  0  0  0  0  0  0  0  0  0
  144.6070   71.5590  220.0680 C   0  0  0  0  0  0  0  0  0  0  0  0
  145.3500   72.8330  220.2760 C   0  0  0  0  0  0  0  0  0  0  0  0
  144.6210   74.0720  219.7530 C   0  0  0  0  0  0  0  0  0  0  0  0
  143.2940   74.0810  220.4720 C   0  0  1  0  0  0  0  0  0  0  0  0
  142.5720   75.3430  220.4440 C   0  0  0  0  0  0  0  0  0  0  0  0
  141.5150   75.6150  221.2830 C   0  0  0  0  0  0  0  0  0  0  0  0
  140.8370   76.8080  221.2530 C   0  0  0  0  0  0  0  0  0  0  0  0
  141.1890   77.8080  220.3700 C   0  0  0  0  0  0  0  0  0  0  0  0
  142.2350   77.5660  219.5260 C   0  0  0  0  0  0  0  0  0  0  0  0
  142.9160   76.3670  219.5550 C   0  0  0  0  0  0  0  0  0  0  0  0
  139.9830   71.6240  223.3700 C   0  0  0  0  0  0  0  0  0  0  0  0
  139.5640   70.3090  223.3000 C   0  0  0  0  0  0  0  0  0  0  0  0
  139.6190   69.4660  224.4060 C   0  0  0  0  0  0  0  0  0  0  0  0
  140.1030   69.9530  225.5960 C   0  0  0  0  0  0  0  0  0  0  0  0
  140.2030   69.2110  226.7490 C   0  0  0  0  0  0  0  0  0  0  0  0
  139.6870   67.5410  226.7250 Cl  0  0  0  0  0  0  0  0  0  0  0  0
  140.6960   69.7360  227.9310 C   0  0  0  0  0  0  0  0  0  0  0  0
  141.1090   71.0570  227.9740 C   0  0  0  0  0  0  0  0  0  0  0  0
  141.0170   71.8250  226.8190 C   0  0  0  0  0  0  0  0  0  0  0  0
  140.5200   71.2660  225.6570 C   0  0  0  0  0  0  0  0  0  0  0  0
  140.4470   72.0420  224.5640 N   0  0  0  0  0  0  0  0  0  0  0  0
  140.3470   70.9240  220.7970 H   0  0  0  0  0  0  0  0  0  0  0  0
  139.4182   72.3379  219.0211 H   0  0  0  0  0  0  0  0  0  0  0  0
  139.7297   73.7793  220.0760 H   0  0  0  0  0  0  0  0  0  0  0  0
  143.0095   71.5149  221.5015 H   0  0  0  0  0  0  0  0  0  0  0  0
  142.6031   70.8094  219.8992 H   0  0  0  0  0  0  0  0  0  0  0  0
  145.0731   70.7841  220.6943 H   0  0  0  0  0  0  0  0  0  0  0  0
  144.6644   71.3373  218.9921 H   0  0  0  0  0  0  0  0  0  0  0  0
  145.5202   72.9618  221.3551 H   0  0  0  0  0  0  0  0  0  0  0  0
  146.2871   72.7512  219.7057 H   0  0  0  0  0  0  0  0  0  0  0  0
  145.1922   74.9829  219.9855 H   0  0  0  0  0  0  0  0  0  0  0  0
  144.4972   74.0464  218.6603 H   0  0  0  0  0  0  0  0  0  0  0  0
  143.4398   74.0003  221.5593 H   0  0  0  0  0  0  0  0  0  0  0  0
  141.2017   74.8467  222.0052 H   0  0  0  0  0  0  0  0  0  0  0  0
  139.9978   76.9698  221.9455 H   0  0  0  0  0  0  0  0  0  0  0  0
  140.6471   78.7649  220.3467 H   0  0  0  0  0  0  0  0  0  0  0  0
  142.5403   78.3424  218.8091 H   0  0  0  0  0  0  0  0  0  0  0  0
  143.7536   76.2114  218.8592 H   0  0  0  0  0  0  0  0  0  0  0  0
  139.1775   69.9190  222.3468 H   0  0  0  0  0  0  0  0  0  0  0  0
  139.2792   68.4227  224.3284 H   0  0  0  0  0  0  0  0  0  0  0  0
  140.7594   69.1072  228.8314 H   0  0  0  0  0  0  0  0  0  0  0  0
  141.5027   71.4907  228.9051 H   0  0  0  0  0  0  0  0  0  0  0  0
  141.3395   72.8766  226.8299 H   0  0  0  0  0  0  0  0  0  0  0  0
  1  2  2  0
  2  3  1  0
  3  4  1  0
  4  5  1  0
  5  6  2  0
  5  7  1  0
  7  8  1  0
  8  9  1  0
  9 10  1  0
 10 11  1  0
 11 12  1  0
 12 13  1  0
 13 14  2  0
 14 15  1  0
 15 16  2  0
 16 17  1  0
 17 18  2  0
  2 19  1  0
 19 20  2  0
 20 21  1  0
 21 22  2  0
 22 23  1  0
 23 24  1  0
 23 25  2  0
 25 26  1  0
 26 27  2  0
 27 28  1  0
 28 29  2  0
 12  7  1  0
 18 13  1  0
 29 19  1  0
 28 22  1  0
  3 30  1  0
  4 31  1  0
  4 32  1  0
  8 33  1  0
  8 34  1  0
  9 35  1  0
  9 36  1  0
 10 37  1  0
 10 38  1  0
 11 39  1  0
 11 40  1  0
 12 41  1  1
 14 42  1  0
 15 43  1  0
 16 44  1  0
 17 45  1  0
 18 46  1  0
 20 47  1  0
 21 48  1  0
 25 49  1  0
 26 50  1  0
 27 51  1  0
M  END
>  <smiles>  (24) 
O=C(NCC(=O)N1CCCC[C@H]1c1ccccc1)c1ccc2c(Cl)cccc2n1

>  <score_type>  (24) 
oracle

>  <origin>  (24) 
autodockgpu

>  <m_score__min__energy>  (24) 
-9.5199999999999996

>  <m_primary>  (24) 
energy

>  <rmsd>  (24) 
3.5682003906858872

>  <m_score__min__rmsd>  (24) 
3.5682003906858872

>  <meeko>  (24) 
{"free_energy": -8.43, "intermolecular_energy": -9.92, "internal_energy": -1.8, "cluster_size": 1, "cluster_id": 5, "rank_in_cluster": 1}

>  <energy>  (24) 
-8.64

>  <cluster_rmsd>  (24) 
0.45

>  <cluster>  (24) 
2

$$$$

     RDKit          3D

 51 54  0  0  0  0  0  0  0  0999 V2000
  140.6700   71.9440  221.0550 O   0  0  0  0  0  0  0  0  0  0  0  0
  140.2840   72.4200  222.1710 C   0  0  0  0  0  0  0  0  0  0  0  0
  139.8920   73.7730  222.3270 N   0  0  0  0  0  0  0  0  0  0  0  0
  139.9300   74.6420  221.1790 C   0  0  0  0  0  0  0  0  0  0  0  0
  140.4740   75.9880  221.5220 C   0  0  0  0  0  0  0  0  0  0  0  0
  139.9090   76.5920  222.4640 O   0  0  0  0  0  0  0  0  0  0  0  0
  141.5680   76.4840  220.7770 N   0  0  0  0  0  0  0  0  0  0  0  0
  142.4470   75.5490  220.0390 C   0  0  0  0  0  0  0  0  0  0  0  0
  142.5350   75.9730  218.5890 C   0  0  0  0  0  0  0  0  0  0  0  0
  142.6070   77.4450  218.3750 C   0  0  0  0  0  0  0  0  0  0  0  0
  141.6140   78.2460  219.2180 C   0  0  0  0  0  0  0  0  0  0  0  0
  141.9240   77.8790  220.6490 C   0  0  1  0  0  0  0  0  0  0  0  0
  141.3880   78.7750  221.6600 C   0  0  0  0  0  0  0  0  0  0  0  0
  140.1930   79.4420  221.5070 C   0  0  0  0  0  0  0  0  0  0  0  0
  139.6920   80.2880  222.4640 C   0  0  0  0  0  0  0  0  0  0  0  0
  140.3700   80.5130  223.6450 C   0  0  0  0  0  0  0  0  0  0  0  0
  141.5580   79.8640  223.8250 C   0  0  0  0  0  0  0  0  0  0  0  0
  142.0630   79.0150  222.8620 C   0  0  0  0  0  0  0  0  0  0  0  0
  140.2350   71.5570  223.3650 C   0  0  0  0  0  0  0  0  0  0  0  0
  139.7680   70.2580  223.3020 C   0  0  0  0  0  0  0  0  0  0  0  0
  139.7210   69.4430  224.4300 C   0  0  0  0  0  0  0  0  0  0  0  0
  140.1500   69.9440  225.6350 C   0  0  0  0  0  0  0  0  0  0  0  0
  140.1490   69.2310  226.8110 C   0  0  0  0  0  0  0  0  0  0  0  0
  139.5690   67.5820  226.7960 Cl  0  0  0  0  0  0  0  0  0  0  0  0
  140.5900   69.7690  228.0070 C   0  0  0  0  0  0  0  0  0  0  0  0
  141.0520   71.0730  228.0430 C   0  0  0  0  0  0  0  0  0  0  0  0
  141.0620   71.8120  226.8660 C   0  0  0  0  0  0  0  0  0  0  0  0
  140.6150   71.2410  225.6890 C   0  0  0  0  0  0  0  0  0  0  0  0
  140.6410   71.9890  224.5750 N   0  0  0  0  0  0  0  0  0  0  0  0
  139.5760   74.1630  223.2430 H   0  0  0  0  0  0  0  0  0  0  0  0
  140.5681   74.1858  220.4079 H   0  0  0  0  0  0  0  0  0  0  0  0
  138.9006   74.7718  220.8137 H   0  0  0  0  0  0  0  0  0  0  0  0
  143.4521   75.5616  220.4858 H   0  0  0  0  0  0  0  0  0  0  0  0
  142.0307   74.5325  220.0979 H   0  0  0  0  0  0  0  0  0  0  0  0
  143.4371   75.5188  218.1532 H   0  0  0  0  0  0  0  0  0  0  0  0
  141.6051   75.6341  218.1089 H   0  0  0  0  0  0  0  0  0  0  0  0
  143.6238   77.7815  218.6257 H   0  0  0  0  0  0  0  0  0  0  0  0
  142.3482   77.6261  217.3213 H   0  0  0  0  0  0  0  0  0  0  0  0
  141.7541   79.3252  219.0575 H   0  0  0  0  0  0  0  0  0  0  0  0
  140.5712   78.0187  218.9517 H   0  0  0  0  0  0  0  0  0  0  0  0
  142.9942   78.0166  220.8627 H   0  0  0  0  0  0  0  0  0  0  0  0
  139.6178   79.2907  220.5817 H   0  0  0  0  0  0  0  0  0  0  0  0
  138.7326   80.7961  222.2868 H   0  0  0  0  0  0  0  0  0  0  0  0
  139.9682   81.1902  224.4130 H   0  0  0  0  0  0  0  0  0  0  0  0
  142.1230   80.0212  224.7556 H   0  0  0  0  0  0  0  0  0  0  0  0
  143.0242   78.5121  223.0443 H   0  0  0  0  0  0  0  0  0  0  0  0
  139.4248   69.8578  222.3366 H   0  0  0  0  0  0  0  0  0  0  0  0
  139.3453   68.4117  224.3572 H   0  0  0  0  0  0  0  0  0  0  0  0
  140.5734   69.1631  228.9249 H   0  0  0  0  0  0  0  0  0  0  0  0
  141.4048   71.5164  228.9858 H   0  0  0  0  0  0  0  0  0  0  0  0
  141.4252   72.8503  226.8709 H   0  0  0  0  0  0  0  0  0  0  0  0
  1  2  2  0
  2  3  1  0
  3  4  1  0
  4  5  1  0
  5  6  2  0
  5  7  1  0
  7  8  1  0
  8  9  1  0
  9 10  1  0
 10 11  1  0
 11 12  1  0
 12 13  1  0
 13 14  2  0
 14 15  1  0
 15 16  2  0
 16 17  1  0
 17 18  2  0
  2 19  1  0
 19 20  2  0
 20 21  1  0
 21 22  2  0
 22 23  1  0
 23 24  1  0
 23 25  2  0
 25 26  1  0
 26 27  2  0
 27 28  1  0
 28 29  2  0
 12  7  1  0
 18 13  1  0
 29 19  1  0
 28 22  1  0
  3 30  1  0
  4 31  1  0
  4 32  1  0
  8 33  1  0
  8 34  1  0
  9 35  1  0
  9 36  1  0
 10 37  1  0
 10 38  1  0
 11 39  1  0
 11 40  1  0
 12 41  1  6
 14 42  1  0
 15 43  1  0
 16 44  1  0
 17 45  1  0
 18 46  1  0
 20 47  1  0
 21 48  1  0
 25 49  1  0
 26 50  1  0
 27 51  1  0
M  END
>  <smiles>  (25) 
O=C(NCC(=O)N1CCCC[C@H]1c1ccccc1)c1ccc2c(Cl)cccc2n1

>  <score_type>  (25) 
oracle

>  <origin>  (25) 
autodockgpu

>  <m_score__min__energy>  (25) 
-9.5199999999999996

>  <m_primary>  (25) 
energy

>  <rmsd>  (25) 
2.060068013005931

>  <m_score__min__rmsd>  (25) 
2.060068013005931

>  <meeko>  (25) 
{"free_energy": -9.37, "intermolecular_energy": -10.86, "internal_energy": -1.59, "cluster_size": 18, "cluster_id": 1, "rank_in_cluster": 8}

>  <energy>  (25) 
-8.56

>  <cluster_rmsd>  (25) 
0.43

>  <cluster>  (25) 
2

$$$$

     RDKit          3D

 51 54  0  0  0  0  0  0  0  0999 V2000
  136.8320   72.2430  223.0450 O   0  0  0  0  0  0  0  0  0  0  0  0
  136.0430   71.8640  223.9690 C   0  0  0  0  0  0  0  0  0  0  0  0
  135.9010   70.5030  224.3400 N   0  0  0  0  0  0  0  0  0  0  0  0
  136.6820   69.5120  223.6440 C   0  0  0  0  0  0  0  0  0  0  0  0
  137.9690   69.2300  224.3450 C   0  0  0  0  0  0  0  0  0  0  0  0
  137.8980   68.5100  225.3700 O   0  0  0  0  0  0  0  0  0  0  0  0
  139.1590   69.7810  223.8190 N   0  0  0  0  0  0  0  0  0  0  0  0
  139.3020   69.9790  222.3590 C   0  0  0  0  0  0  0  0  0  0  0  0
  139.6750   71.4190  222.0760 C   0  0  0  0  0  0  0  0  0  0  0  0
  140.6400   72.0120  223.0420 C   0  0  0  0  0  0  0  0  0  0  0  0
  140.3220   71.7080  224.5070 C   0  0  0  0  0  0  0  0  0  0  0  0
  140.2990   70.2020  224.6020 C   0  0  1  0  0  0  0  0  0  0  0  0
  140.3950   69.6540  225.9440 C   0  0  0  0  0  0  0  0  0  0  0  0
  140.8570   68.3820  226.1990 C   0  0  0  0  0  0  0  0  0  0  0  0
  140.9460   67.8690  227.4690 C   0  0  0  0  0  0  0  0  0  0  0  0
  140.5730   68.6150  228.5680 C   0  0  0  0  0  0  0  0  0  0  0  0
  140.1110   69.8810  228.3460 C   0  0  0  0  0  0  0  0  0  0  0  0
  140.0210   70.3970  227.0700 C   0  0  0  0  0  0  0  0  0  0  0  0
  135.2300   72.8540  224.6990 C   0  0  0  0  0  0  0  0  0  0  0  0
  135.4430   74.2120  224.5580 C   0  0  0  0  0  0  0  0  0  0  0  0
  134.6770   75.1470  225.2490 C   0  0  0  0  0  0  0  0  0  0  0  0
  133.6830   74.7070  226.0900 C   0  0  0  0  0  0  0  0  0  0  0  0
  132.8670   75.5390  226.8190 C   0  0  0  0  0  0  0  0  0  0  0  0
  133.0880   77.2680  226.6840 Cl  0  0  0  0  0  0  0  0  0  0  0  0
  131.8750   75.0600  227.6570 C   0  0  0  0  0  0  0  0  0  0  0  0
  131.6830   73.6950  227.7810 C   0  0  0  0  0  0  0  0  0  0  0  0
  132.4970   72.8360  227.0530 C   0  0  0  0  0  0  0  0  0  0  0  0
  133.4770   73.3500  226.2250 C   0  0  0  0  0  0  0  0  0  0  0  0
  134.2420   72.4870  225.5380 N   0  0  0  0  0  0  0  0  0  0  0  0
  135.2540   70.1930  225.0980 H   0  0  0  0  0  0  0  0  0  0  0  0
  136.1001   68.5808  223.5792 H   0  0  0  0  0  0  0  0  0  0  0  0
  136.9159   69.9018  222.6423 H   0  0  0  0  0  0  0  0  0  0  0  0
  140.0899   69.3144  221.9748 H   0  0  0  0  0  0  0  0  0  0  0  0
  138.3485   69.7444  221.8633 H   0  0  0  0  0  0  0  0  0  0  0  0
  140.1220   71.4664  221.0721 H   0  0  0  0  0  0  0  0  0  0  0  0
  138.7475   72.0037  222.1642 H   0  0  0  0  0  0  0  0  0  0  0  0
  141.6416   71.6171  222.8166 H   0  0  0  0  0  0  0  0  0  0  0  0
  140.5779   73.1038  222.9234 H   0  0  0  0  0  0  0  0  0  0  0  0
  141.0991   72.1243  225.1649 H   0  0  0  0  0  0  0  0  0  0  0  0
  139.3674   72.1547  224.8220 H   0  0  0  0  0  0  0  0  0  0  0  0
  141.2219   69.7721  224.1855 H   0  0  0  0  0  0  0  0  0  0  0  0
  141.1668   67.7525  225.3518 H   0  0  0  0  0  0  0  0  0  0  0  0
  141.3213   66.8451  227.6131 H   0  0  0  0  0  0  0  0  0  0  0  0
  140.6451   68.2050  229.5862 H   0  0  0  0  0  0  0  0  0  0  0  0
  139.8047   70.5011  229.2014 H   0  0  0  0  0  0  0  0  0  0  0  0
  139.6446   71.4215  226.9333 H   0  0  0  0  0  0  0  0  0  0  0  0
  136.2375   74.5630  223.8830 H   0  0  0  0  0  0  0  0  0  0  0  0
  134.8649   76.2236  225.1235 H   0  0  0  0  0  0  0  0  0  0  0  0
  131.2424   75.7607  228.2216 H   0  0  0  0  0  0  0  0  0  0  0  0
  130.9003   73.2975  228.4438 H   0  0  0  0  0  0  0  0  0  0  0  0
  132.3615   71.7475  227.1356 H   0  0  0  0  0  0  0  0  0  0  0  0
  1  2  2  0
  2  3  1  0
  3  4  1  0
  4  5  1  0
  5  6  2  0
  5  7  1  0
  7  8  1  0
  8  9  1  0
  9 10  1  0
 10 11  1  0
 11 12  1  0
 12 13  1  0
 13 14  2  0
 14 15  1  0
 15 16  2  0
 16 17  1  0
 17 18  2  0
  2 19  1  0
 19 20  2  0
 20 21  1  0
 21 22  2  0
 22 23  1  0
 23 24  1  0
 23 25  2  0
 25 26  1  0
 26 27  2  0
 27 28  1  0
 28 29  2  0
 12  7  1  0
 18 13  1  0
 29 19  1  0
 28 22  1  0
  3 30  1  0
  4 31  1  0
  4 32  1  0
  8 33  1  0
  8 34  1  0
  9 35  1  0
  9 36  1  0
 10 37  1  0
 10 38  1  0
 11 39  1  0
 11 40  1  0
 12 41  1  6
 14 42  1  0
 15 43  1  0
 16 44  1  0
 17 45  1  0
 18 46  1  0
 20 47  1  0
 21 48  1  0
 25 49  1  0
 26 50  1  0
 27 51  1  0
M  END
>  <smiles>  (26) 
O=C(NCC(=O)N1CCCC[C@H]1c1ccccc1)c1ccc2c(Cl)cccc2n1

>  <score_type>  (26) 
oracle

>  <origin>  (26) 
autodockgpu

>  <m_score__min__energy>  (26) 
-9.5199999999999996

>  <m_primary>  (26) 
energy

>  <rmsd>  (26) 
7.3536348770804905

>  <m_score__min__rmsd>  (26) 
7.3536348770804905

>  <meeko>  (26) 
{"free_energy": -7.93, "intermolecular_energy": -9.42, "internal_energy": -1.97, "cluster_size": 2, "cluster_id": 6, "rank_in_cluster": 1}

>  <energy>  (26) 
-8.52

>  <cluster_rmsd>  (26) 
0.48

>  <cluster>  (26) 
2

$$$$

     RDKit          3D

 51 54  0  0  0  0  0  0  0  0999 V2000
  138.8000   71.6680  220.9730 O   0  0  0  0  0  0  0  0  0  0  0  0
  139.4800   72.1160  221.9530 C   0  0  0  0  0  0  0  0  0  0  0  0
  140.1160   73.3810  221.9230 N   0  0  0  0  0  0  0  0  0  0  0  0
  139.9880   74.1930  220.7390 C   0  0  0  0  0  0  0  0  0  0  0  0
  141.1720   75.0810  220.5460 C   0  0  0  0  0  0  0  0  0  0  0  0
  141.7730   75.4380  221.5880 O   0  0  0  0  0  0  0  0  0  0  0  0
  141.5300   75.4530  219.2320 N   0  0  0  0  0  0  0  0  0  0  0  0
  140.5070   76.0000  218.3110 C   0  0  0  0  0  0  0  0  0  0  0  0
  140.9780   77.3290  217.7620 C   0  0  0  0  0  0  0  0  0  0  0  0
  142.4310   77.3890  217.4390 C   0  0  0  0  0  0  0  0  0  0  0  0
  143.3340   76.7840  218.5150 C   0  0  0  0  0  0  0  0  0  0  0  0
  142.8600   75.3590  218.6730 C   0  0  1  0  0  0  0  0  0  0  0  0
  143.7800   74.4610  219.3490 C   0  0  0  0  0  0  0  0  0  0  0  0
  144.6560   74.8860  220.3230 C   0  0  0  0  0  0  0  0  0  0  0  0
  145.5240   74.0330  220.9590 C   0  0  0  0  0  0  0  0  0  0  0  0
  145.5590   72.6890  220.6490 C   0  0  0  0  0  0  0  0  0  0  0  0
  144.7000   72.2380  219.6870 C   0  0  0  0  0  0  0  0  0  0  0  0
  143.8290   73.0950  219.0480 C   0  0  0  0  0  0  0  0  0  0  0  0
  139.6300   71.3090  223.1780 C   0  0  0  0  0  0  0  0  0  0  0  0
  139.2280   69.9880  223.2300 C   0  0  0  0  0  0  0  0  0  0  0  0
  139.3690   69.2270  224.3870 C   0  0  0  0  0  0  0  0  0  0  0  0
  139.9230   69.8050  225.5040 C   0  0  0  0  0  0  0  0  0  0  0  0
  140.1100   69.1490  226.6980 C   0  0  0  0  0  0  0  0  0  0  0  0
  139.6210   67.4750  226.8270 Cl  0  0  0  0  0  0  0  0  0  0  0  0
  140.6720   69.7630  227.8030 C   0  0  0  0  0  0  0  0  0  0  0  0
  141.0660   71.0880  227.7250 C   0  0  0  0  0  0  0  0  0  0  0  0
  140.8860   71.7700  226.5270 C   0  0  0  0  0  0  0  0  0  0  0  0
  140.3220   71.1230  225.4430 C   0  0  0  0  0  0  0  0  0  0  0  0
  140.1650   71.8170  224.3050 N   0  0  0  0  0  0  0  0  0  0  0  0
  140.6740   73.7480  222.7260 H   0  0  0  0  0  0  0  0  0  0  0  0
  139.8908   73.5338  219.8638 H   0  0  0  0  0  0  0  0  0  0  0  0
  139.0983   74.8294  220.8550 H   0  0  0  0  0  0  0  0  0  0  0  0
  140.3481   75.2963  217.4806 H   0  0  0  0  0  0  0  0  0  0  0  0
  139.5630   76.1439  218.8570 H   0  0  0  0  0  0  0  0  0  0  0  0
  140.4134   77.5391  216.8416 H   0  0  0  0  0  0  0  0  0  0  0  0
  140.8049   78.0717  218.5547 H   0  0  0  0  0  0  0  0  0  0  0  0
  142.5991   76.8425  216.4993 H   0  0  0  0  0  0  0  0  0  0  0  0
  142.6961   78.4539  217.3636 H   0  0  0  0  0  0  0  0  0  0  0  0
  144.3859   76.8075  218.1940 H   0  0  0  0  0  0  0  0  0  0  0  0
  143.2789   77.3432  219.4606 H   0  0  0  0  0  0  0  0  0  0  0  0
  142.8243   74.8499  217.6985 H   0  0  0  0  0  0  0  0  0  0  0  0
  144.6605   75.9500  220.6023 H   0  0  0  0  0  0  0  0  0  0  0  0
  146.2031   74.4280  221.7289 H   0  0  0  0  0  0  0  0  0  0  0  0
  146.2538   72.0049  221.1582 H   0  0  0  0  0  0  0  0  0  0  0  0
  144.7033   71.1716  219.4173 H   0  0  0  0  0  0  0  0  0  0  0  0
  143.1528   72.6932  218.2790 H   0  0  0  0  0  0  0  0  0  0  0  0
  138.7856   69.5263  222.3349 H   0  0  0  0  0  0  0  0  0  0  0  0
  139.0414   68.1771  224.4070 H   0  0  0  0  0  0  0  0  0  0  0  0
  140.8052   69.2011  228.7392 H   0  0  0  0  0  0  0  0  0  0  0  0
  141.5131   71.5917  228.5947 H   0  0  0  0  0  0  0  0  0  0  0  0
  141.1919   72.8231  226.4416 H   0  0  0  0  0  0  0  0  0  0  0  0
  1  2  2  0
  2  3  1  0
  3  4  1  0
  4  5  1  0
  5  6  2  0
  5  7  1  0
  7  8  1  0
  8  9  1  0
  9 10  1  0
 10 11  1  0
 11 12  1  0
 12 13  1  0
 13 14  2  0
 14 15  1  0
 15 16  2  0
 16 17  1  0
 17 18  2  0
  2 19  1  0
 19 20  2  0
 20 21  1  0
 21 22  2  0
 22 23  1  0
 23 24  1  0
 23 25  2  0
 25 26  1  0
 26 27  2  0
 27 28  1  0
 28 29  2  0
 12  7  1  0
 18 13  1  0
 29 19  1  0
 28 22  1  0
  3 30  1  0
  4 31  1  0
  4 32  1  0
  8 33  1  0
  8 34  1  0
  9 35  1  0
  9 36  1  0
 10 37  1  0
 10 38  1  0
 11 39  1  0
 11 40  1  0
 12 41  1  6
 14 42  1  0
 15 43  1  0
 16 44  1  0
 17 45  1  0
 18 46  1  0
 20 47  1  0
 21 48  1  0
 25 49  1  0
 26 50  1  0
 27 51  1  0
M  END
>  <smiles>  (27) 
O=C(NCC(=O)N1CCCC[C@H]1c1ccccc1)c1ccc2c(Cl)cccc2n1

>  <score_type>  (27) 
oracle

>  <origin>  (27) 
autodockgpu

>  <m_score__min__energy>  (27) 
-9.5199999999999996

>  <m_primary>  (27) 
energy

>  <rmsd>  (27) 
1.8505134651195998

>  <m_score__min__rmsd>  (27) 
1.8505134651195998

>  <meeko>  (27) 
{"free_energy": -7.75, "intermolecular_energy": -9.24, "internal_energy": -2.14, "cluster_size": 14, "cluster_id": 2, "rank_in_cluster": 14}

>  <energy>  (27) 
-8.46

>  <cluster_rmsd>  (27) 
0.54

>  <cluster>  (27) 
2

$$$$

     RDKit          3D

 51 54  0  0  0  0  0  0  0  0999 V2000
  135.0580   68.5470  224.8830 O   0  0  0  0  0  0  0  0  0  0  0  0
  135.5220   69.6810  224.5390 C   0  0  0  0  0  0  0  0  0  0  0  0
  136.6320   69.8190  223.6690 N   0  0  0  0  0  0  0  0  0  0  0  0
  137.2580   68.6280  223.1540 C   0  0  0  0  0  0  0  0  0  0  0  0
  138.6410   68.4540  223.6890 C   0  0  0  0  0  0  0  0  0  0  0  0
  138.8710   67.3800  224.2950 O   0  0  0  0  0  0  0  0  0  0  0  0
  139.5790   69.4900  223.4840 N   0  0  0  0  0  0  0  0  0  0  0  0
  139.9290   69.9110  222.1080 C   0  0  0  0  0  0  0  0  0  0  0  0
  139.7270   71.4040  221.9680 C   0  0  0  0  0  0  0  0  0  0  0  0
  140.1390   72.2010  223.1570 C   0  0  0  0  0  0  0  0  0  0  0  0
  139.6760   71.6140  224.4910 C   0  0  0  0  0  0  0  0  0  0  0  0
  140.2550   70.2210  224.5310 C   0  0  1  0  0  0  0  0  0  0  0  0
  140.2860   69.5900  225.8400 C   0  0  0  0  0  0  0  0  0  0  0  0
  139.5750   70.0700  226.9170 C   0  0  0  0  0  0  0  0  0  0  0  0
  139.6080   69.4710  228.1510 C   0  0  0  0  0  0  0  0  0  0  0  0
  140.3650   68.3380  228.3750 C   0  0  0  0  0  0  0  0  0  0  0  0
  141.0800   67.8380  227.3240 C   0  0  0  0  0  0  0  0  0  0  0  0
  141.0480   68.4420  226.0840 C   0  0  0  0  0  0  0  0  0  0  0  0
  134.9030   70.9180  225.0510 C   0  0  0  0  0  0  0  0  0  0  0  0
  133.8830   70.8870  225.9820 C   0  0  0  0  0  0  0  0  0  0  0  0
  133.2980   72.0550  226.4640 C   0  0  0  0  0  0  0  0  0  0  0  0
  133.7480   73.2680  226.0010 C   0  0  0  0  0  0  0  0  0  0  0  0
  133.2450   74.4820  226.4060 C   0  0  0  0  0  0  0  0  0  0  0  0
  131.9520   74.5090  227.5830 Cl  0  0  0  0  0  0  0  0  0  0  0  0
  133.7230   75.6850  225.9190 C   0  0  0  0  0  0  0  0  0  0  0  0
  134.7460   75.6890  224.9850 C   0  0  0  0  0  0  0  0  0  0  0  0
  135.2680   74.4730  224.5610 C   0  0  0  0  0  0  0  0  0  0  0  0
  134.7660   73.2900  225.0720 C   0  0  0  0  0  0  0  0  0  0  0  0
  135.2990   72.1370  224.6370 N   0  0  0  0  0  0  0  0  0  0  0  0
  137.0130   70.7500  223.3880 H   0  0  0  0  0  0  0  0  0  0  0  0
  136.6528   67.7552  223.4404 H   0  0  0  0  0  0  0  0  0  0  0  0
  137.3234   68.7214  222.0599 H   0  0  0  0  0  0  0  0  0  0  0  0
  140.9815   69.6633  221.9058 H   0  0  0  0  0  0  0  0  0  0  0  0
  139.2828   69.3856  221.3894 H   0  0  0  0  0  0  0  0  0  0  0  0
  140.3131   71.7497  221.1037 H   0  0  0  0  0  0  0  0  0  0  0  0
  138.6451   71.5616  221.8475 H   0  0  0  0  0  0  0  0  0  0  0  0
  141.2373   72.2620  223.1687 H   0  0  0  0  0  0  0  0  0  0  0  0
  139.6606   73.1868  223.0603 H   0  0  0  0  0  0  0  0  0  0  0  0
  140.0571   72.2146  225.3300 H   0  0  0  0  0  0  0  0  0  0  0  0
  138.5796   71.6068  224.5792 H   0  0  0  0  0  0  0  0  0  0  0  0
  141.3374   70.2432  224.3362 H   0  0  0  0  0  0  0  0  0  0  0  0
  138.9560   70.9693  226.7828 H   0  0  0  0  0  0  0  0  0  0  0  0
  139.0212   69.9008  228.9762 H   0  0  0  0  0  0  0  0  0  0  0  0
  140.3913   67.8559  229.3634 H   0  0  0  0  0  0  0  0  0  0  0  0
  141.6932   66.9363  227.4691 H   0  0  0  0  0  0  0  0  0  0  0  0
  141.6386   68.0086  225.2634 H   0  0  0  0  0  0  0  0  0  0  0  0
  133.5239   69.9153  226.3518 H   0  0  0  0  0  0  0  0  0  0  0  0
  132.4867   72.0074  227.2053 H   0  0  0  0  0  0  0  0  0  0  0  0
  133.2929   76.6340  226.2717 H   0  0  0  0  0  0  0  0  0  0  0  0
  135.1376   76.6366  224.5866 H   0  0  0  0  0  0  0  0  0  0  0  0
  136.0801   74.4514  223.8193 H   0  0  0  0  0  0  0  0  0  0  0  0
  1  2  2  0
  2  3  1  0
  3  4  1  0
  4  5  1  0
  5  6  2  0
  5  7  1  0
  7  8  1  0
  8  9  1  0
  9 10  1  0
 10 11  1  0
 11 12  1  0
 12 13  1  0
 13 14  2  0
 14 15  1  0
 15 16  2  0
 16 17  1  0
 17 18  2  0
  2 19  1  0
 19 20  2  0
 20 21  1  0
 21 22  2  0
 22 23  1  0
 23 24  1  0
 23 25  2  0
 25 26  1  0
 26 27  2  0
 27 28  1  0
 28 29  2  0
 12  7  1  0
 18 13  1  0
 29 19  1  0
 28 22  1  0
  3 30  1  0
  4 31  1  0
  4 32  1  0
  8 33  1  0
  8 34  1  0
  9 35  1  0
  9 36  1  0
 10 37  1  0
 10 38  1  0
 11 39  1  0
 11 40  1  0
 12 41  1  6
 14 42  1  0
 15 43  1  0
 16 44  1  0
 17 45  1  0
 18 46  1  0
 20 47  1  0
 21 48  1  0
 25 49  1  0
 26 50  1  0
 27 51  1  0
M  END
>  <smiles>  (28) 
O=C(NCC(=O)N1CCCC[C@H]1c1ccccc1)c1ccc2c(Cl)cccc2n1

>  <score_type>  (28) 
oracle

>  <origin>  (28) 
autodockgpu

>  <m_score__min__energy>  (28) 
-9.5199999999999996

>  <m_primary>  (28) 
energy

>  <rmsd>  (28) 
6.987782706312438

>  <m_score__min__rmsd>  (28) 
6.987782706312438

>  <meeko>  (28) 
{"free_energy": -7.87, "intermolecular_energy": -9.36, "internal_energy": -2.11, "cluster_size": 2, "cluster_id": 6, "rank_in_cluster": 2}

>  <energy>  (28) 
-8.39

>  <cluster_rmsd>  (28) 
0.56

>  <cluster>  (28) 
2

$$$$

     RDKit          3D

 51 54  0  0  0  0  0  0  0  0999 V2000
  139.0470   74.6510  221.3260 O   0  0  0  0  0  0  0  0  0  0  0  0
  140.0930   75.2830  221.6840 C   0  0  0  0  0  0  0  0  0  0  0  0
  141.3910   74.7220  221.5940 N   0  0  0  0  0  0  0  0  0  0  0  0
  141.5320   73.3840  221.0770 C   0  0  0  0  0  0  0  0  0  0  0  0
  141.4500   73.3570  219.5870 C   0  0  0  0  0  0  0  0  0  0  0  0
  141.0030   72.3030  219.0740 O   0  0  0  0  0  0  0  0  0  0  0  0
  141.8730   74.4960  218.8660 N   0  0  0  0  0  0  0  0  0  0  0  0
  140.9280   75.1980  217.9680 C   0  0  0  0  0  0  0  0  0  0  0  0
  140.8760   76.6660  218.3340 C   0  0  0  0  0  0  0  0  0  0  0  0
  142.1900   77.2610  218.7040 C   0  0  0  0  0  0  0  0  0  0  0  0
  143.0230   76.3940  219.6490 C   0  0  0  0  0  0  0  0  0  0  0  0
  143.1940   75.0780  218.9290 C   0  0  1  0  0  0  0  0  0  0  0  0
  144.2530   74.2190  219.4320 C   0  0  0  0  0  0  0  0  0  0  0  0
  144.5930   73.0270  218.8320 C   0  0  0  0  0  0  0  0  0  0  0  0
  145.5940   72.2180  219.3110 C   0  0  0  0  0  0  0  0  0  0  0  0
  146.3190   72.5680  220.4320 C   0  0  0  0  0  0  0  0  0  0  0  0
  146.0040   73.7450  221.0480 C   0  0  0  0  0  0  0  0  0  0  0  0
  144.9980   74.5570  220.5670 C   0  0  0  0  0  0  0  0  0  0  0  0
  139.9810   76.6530  222.2190 C   0  0  0  0  0  0  0  0  0  0  0  0
  138.7620   77.1890  222.5890 C   0  0  0  0  0  0  0  0  0  0  0  0
  138.6570   78.4830  223.0920 C   0  0  0  0  0  0  0  0  0  0  0  0
  139.7940   79.2440  223.2250 C   0  0  0  0  0  0  0  0  0  0  0  0
  139.8080   80.5300  223.7100 C   0  0  0  0  0  0  0  0  0  0  0  0
  138.2980   81.2660  224.1940 Cl  0  0  0  0  0  0  0  0  0  0  0  0
  140.9730   81.2670  223.8300 C   0  0  0  0  0  0  0  0  0  0  0  0
  142.1810   80.7060  223.4510 C   0  0  0  0  0  0  0  0  0  0  0  0
  142.1900   79.4060  222.9580 C   0  0  0  0  0  0  0  0  0  0  0  0
  141.0060   78.7000  222.8530 C   0  0  0  0  0  0  0  0  0  0  0  0
  141.0570   77.4480  222.3720 N   0  0  0  0  0  0  0  0  0  0  0  0
  142.2480   75.2400  221.8890 H   0  0  0  0  0  0  0  0  0  0  0  0
  142.5079   72.9827  221.3877 H   0  0  0  0  0  0  0  0  0  0  0  0
  140.7093   72.7731  221.4770 H   0  0  0  0  0  0  0  0  0  0  0  0
  141.2653   75.0920  216.9264 H   0  0  0  0  0  0  0  0  0  0  0  0
  139.9255   74.7584  218.0766 H   0  0  0  0  0  0  0  0  0  0  0  0
  140.4794   77.2207  217.4709 H   0  0  0  0  0  0  0  0  0  0  0  0
  140.2378   76.7416  219.2267 H   0  0  0  0  0  0  0  0  0  0  0  0
  142.7684   77.4217  217.7823 H   0  0  0  0  0  0  0  0  0  0  0  0
  141.9751   78.1978  219.2389 H   0  0  0  0  0  0  0  0  0  0  0  0
  144.0011   76.8600  219.8390 H   0  0  0  0  0  0  0  0  0  0  0  0
  142.5371   76.2677  220.6278 H   0  0  0  0  0  0  0  0  0  0  0  0
  143.5837   75.2373  217.9128 H   0  0  0  0  0  0  0  0  0  0  0  0
  144.0415   72.7107  217.9344 H   0  0  0  0  0  0  0  0  0  0  0  0
  145.8218   71.2750  218.7924 H   0  0  0  0  0  0  0  0  0  0  0  0
  147.1221   71.9216  220.8156 H   0  0  0  0  0  0  0  0  0  0  0  0
  146.5628   74.0515  221.9445 H   0  0  0  0  0  0  0  0  0  0  0  0
  144.7749   75.4980  221.0912 H   0  0  0  0  0  0  0  0  0  0  0  0
  137.8530   76.5786  222.4836 H   0  0  0  0  0  0  0  0  0  0  0  0
  137.6768   78.8912  223.3793 H   0  0  0  0  0  0  0  0  0  0  0  0
  140.9397   82.2933  224.2245 H   0  0  0  0  0  0  0  0  0  0  0  0
  143.1163   81.2784  223.5384 H   0  0  0  0  0  0  0  0  0  0  0  0
  143.1381   78.9398  222.6518 H   0  0  0  0  0  0  0  0  0  0  0  0
  1  2  2  0
  2  3  1  0
  3  4  1  0
  4  5  1  0
  5  6  2  0
  5  7  1  0
  7  8  1  0
  8  9  1  0
  9 10  1  0
 10 11  1  0
 11 12  1  0
 12 13  1  0
 13 14  2  0
 14 15  1  0
 15 16  2  0
 16 17  1  0
 17 18  2  0
  2 19  1  0
 19 20  2  0
 20 21  1  0
 21 22  2  0
 22 23  1  0
 23 24  1  0
 23 25  2  0
 25 26  1  0
 26 27  2  0
 27 28  1  0
 28 29  2  0
 12  7  1  0
 18 13  1  0
 29 19  1  0
 28 22  1  0
  3 30  1  0
  4 31  1  0
  4 32  1  0
  8 33  1  0
  8 34  1  0
  9 35  1  0
  9 36  1  0
 10 37  1  0
 10 38  1  0
 11 39  1  0
 11 40  1  0
 12 41  1  6
 14 42  1  0
 15 43  1  0
 16 44  1  0
 17 45  1  0
 18 46  1  0
 20 47  1  0
 21 48  1  0
 25 49  1  0
 26 50  1  0
 27 51  1  0
M  END
>  <smiles>  (29) 
O=C(NCC(=O)N1CCCC[C@H]1c1ccccc1)c1ccc2c(Cl)cccc2n1

>  <score_type>  (29) 
oracle

>  <origin>  (29) 
autodockgpu

>  <m_score__min__energy>  (29) 
-9.5199999999999996

>  <m_primary>  (29) 
energy

>  <rmsd>  (29) 
6.623400158375714

>  <m_score__min__rmsd>  (29) 
6.623400158375714

>  <meeko>  (29) 
{"free_energy": -7.55, "intermolecular_energy": -9.04, "internal_energy": -2.5, "cluster_size": 6, "cluster_id": 8, "rank_in_cluster": 1}

>  <energy>  (29) 
-8.36

>  <cluster_rmsd>  (29) 
0.56

>  <cluster>  (29) 
2

$$$$

     RDKit          3D

 51 54  0  0  0  0  0  0  0  0999 V2000
  140.0270   71.6220  220.9760 O   0  0  0  0  0  0  0  0  0  0  0  0
  139.8950   72.1950  222.1050 C   0  0  0  0  0  0  0  0  0  0  0  0
  139.6960   73.5920  222.2310 N   0  0  0  0  0  0  0  0  0  0  0  0
  139.6390   74.3940  221.0350 C   0  0  0  0  0  0  0  0  0  0  0  0
  140.6080   75.5290  221.0840 C   0  0  0  0  0  0  0  0  0  0  0  0
  140.9000   75.9610  222.2260 O   0  0  0  0  0  0  0  0  0  0  0  0
  141.1220   76.0310  219.8690 N   0  0  0  0  0  0  0  0  0  0  0  0
  140.3750   77.0680  219.1200 C   0  0  0  0  0  0  0  0  0  0  0  0
  141.2810   78.2510  218.8510 C   0  0  0  0  0  0  0  0  0  0  0  0
  142.6830   77.8930  218.5010 C   0  0  0  0  0  0  0  0  0  0  0  0
  143.2910   76.8100  219.3930 C   0  0  0  0  0  0  0  0  0  0  0  0
  142.3680   75.6230  219.2590 C   0  0  1  0  0  0  0  0  0  0  0  0
  142.9120   74.3490  219.6970 C   0  0  0  0  0  0  0  0  0  0  0  0
  142.3560   73.1400  219.3440 C   0  0  0  0  0  0  0  0  0  0  0  0
  142.8730   71.9390  219.7610 C   0  0  0  0  0  0  0  0  0  0  0  0
  143.9940   71.8850  220.5650 C   0  0  0  0  0  0  0  0  0  0  0  0
  144.5680   73.0690  220.9310 C   0  0  0  0  0  0  0  0  0  0  0  0
  144.0470   74.2760  220.5130 C   0  0  0  0  0  0  0  0  0  0  0  0
  139.9490   71.4020  223.3470 C   0  0  0  0  0  0  0  0  0  0  0  0
  139.5270   70.0870  223.3860 C   0  0  0  0  0  0  0  0  0  0  0  0
  139.5770   69.3390  224.5590 C   0  0  0  0  0  0  0  0  0  0  0  0
  140.0590   69.9240  225.7050 C   0  0  0  0  0  0  0  0  0  0  0  0
  140.1540   69.2810  226.9170 C   0  0  0  0  0  0  0  0  0  0  0  0
  139.6350   67.6150  227.0310 Cl  0  0  0  0  0  0  0  0  0  0  0  0
  140.6450   69.9020  228.0520 C   0  0  0  0  0  0  0  0  0  0  0  0
  141.0610   71.2210  227.9850 C   0  0  0  0  0  0  0  0  0  0  0  0
  140.9740   71.8900  226.7700 C   0  0  0  0  0  0  0  0  0  0  0  0
  140.4780   71.2360  225.6570 C   0  0  0  0  0  0  0  0  0  0  0  0
  140.4110   71.9180  224.5020 N   0  0  0  0  0  0  0  0  0  0  0  0
  139.5880   74.0620  223.1580 H   0  0  0  0  0  0  0  0  0  0  0  0
  139.8770   73.7594  220.1686 H   0  0  0  0  0  0  0  0  0  0  0  0
  138.6251   74.8123  220.9508 H   0  0  0  0  0  0  0  0  0  0  0  0
  140.0258   76.6495  218.1645 H   0  0  0  0  0  0  0  0  0  0  0  0
  139.5106   77.3974  219.7152 H   0  0  0  0  0  0  0  0  0  0  0  0
  140.8552   78.8258  218.0154 H   0  0  0  0  0  0  0  0  0  0  0  0
  141.3311   78.8239  219.7887 H   0  0  0  0  0  0  0  0  0  0  0  0
  142.6987   77.5337  217.4615 H   0  0  0  0  0  0  0  0  0  0  0  0
  143.2880   78.8002  218.6456 H   0  0  0  0  0  0  0  0  0  0  0  0
  144.3039   76.5517  219.0504 H   0  0  0  0  0  0  0  0  0  0  0  0
  143.3847   77.1422  220.4374 H   0  0  0  0  0  0  0  0  0  0  0  0
  142.2060   75.3732  218.2001 H   0  0  0  0  0  0  0  0  0  0  0  0
  141.4624   73.1365  218.7026 H   0  0  0  0  0  0  0  0  0  0  0  0
  142.3858   71.0033  219.4493 H   0  0  0  0  0  0  0  0  0  0  0  0
  144.4099   70.9229  220.8988 H   0  0  0  0  0  0  0  0  0  0  0  0
  145.4625   73.0600  221.5711 H   0  0  0  0  0  0  0  0  0  0  0  0
  144.5377   75.2080  220.8301 H   0  0  0  0  0  0  0  0  0  0  0  0
  139.1420   69.6196  222.4677 H   0  0  0  0  0  0  0  0  0  0  0  0
  139.2352   68.2935  224.5683 H   0  0  0  0  0  0  0  0  0  0  0  0
  140.7045   69.3509  229.0021 H   0  0  0  0  0  0  0  0  0  0  0  0
  141.4534   71.7302  228.8776 H   0  0  0  0  0  0  0  0  0  0  0  0
  141.2991   72.9381  226.6937 H   0  0  0  0  0  0  0  0  0  0  0  0
  1  2  2  0
  2  3  1  0
  3  4  1  0
  4  5  1  0
  5  6  2  0
  5  7  1  0
  7  8  1  0
  8  9  1  0
  9 10  1  0
 10 11  1  0
 11 12  1  0
 12 13  1  0
 13 14  2  0
 14 15  1  0
 15 16  2  0
 16 17  1  0
 17 18  2  0
  2 19  1  0
 19 20  2  0
 20 21  1  0
 21 22  2  0
 22 23  1  0
 23 24  1  0
 23 25  2  0
 25 26  1  0
 26 27  2  0
 27 28  1  0
 28 29  2  0
 12  7  1  0
 18 13  1  0
 29 19  1  0
 28 22  1  0
  3 30  1  0
  4 31  1  0
  4 32  1  0
  8 33  1  0
  8 34  1  0
  9 35  1  0
  9 36  1  0
 10 37  1  0
 10 38  1  0
 11 39  1  0
 11 40  1  0
 12 41  1  6
 14 42  1  0
 15 43  1  0
 16 44  1  0
 17 45  1  0
 18 46  1  0
 20 47  1  0
 21 48  1  0
 25 49  1  0
 26 50  1  0
 27 51  1  0
M  END
>  <smiles>  (30) 
O=C(NCC(=O)N1CCCC[C@H]1c1ccccc1)c1ccc2c(Cl)cccc2n1

>  <score_type>  (30) 
oracle

>  <origin>  (30) 
autodockgpu

>  <m_score__min__energy>  (30) 
-9.5199999999999996

>  <m_primary>  (30) 
energy

>  <rmsd>  (30) 
1.9989070520190741

>  <m_score__min__rmsd>  (30) 
1.9989070520190741

>  <meeko>  (30) 
{"free_energy": -8.39, "intermolecular_energy": -9.89, "internal_energy": -2.27, "cluster_size": 14, "cluster_id": 2, "rank_in_cluster": 10}

>  <energy>  (30) 
-8.11

>  <cluster_rmsd>  (30) 
0.85

>  <cluster>  (30) 
2

$$$$

     RDKit          3D

 51 54  0  0  0  0  0  0  0  0999 V2000
  139.9330   71.6720  220.9380 O   0  0  0  0  0  0  0  0  0  0  0  0
  139.8460   72.2170  222.0850 C   0  0  0  0  0  0  0  0  0  0  0  0
  139.6750   73.6130  222.2550 N   0  0  0  0  0  0  0  0  0  0  0  0
  139.5950   74.4480  221.0830 C   0  0  0  0  0  0  0  0  0  0  0  0
  140.6680   75.4860  221.0700 C   0  0  0  0  0  0  0  0  0  0  0  0
  141.0640   75.8890  222.1900 O   0  0  0  0  0  0  0  0  0  0  0  0
  141.1560   75.9360  219.8240 N   0  0  0  0  0  0  0  0  0  0  0  0
  140.3090   76.7890  218.9600 C   0  0  0  0  0  0  0  0  0  0  0  0
  141.0610   78.0520  218.5990 C   0  0  0  0  0  0  0  0  0  0  0  0
  142.5100   77.8540  218.3190 C   0  0  0  0  0  0  0  0  0  0  0  0
  143.2210   76.9500  219.3270 C   0  0  0  0  0  0  0  0  0  0  0  0
  142.4660   75.6440  219.2870 C   0  0  1  0  0  0  0  0  0  0  0  0
  143.1560   74.5000  219.8610 C   0  0  0  0  0  0  0  0  0  0  0  0
  144.4160   74.5870  220.4080 C   0  0  0  0  0  0  0  0  0  0  0  0
  145.0630   73.5040  220.9490 C   0  0  0  0  0  0  0  0  0  0  0  0
  144.4710   72.2570  220.9720 C   0  0  0  0  0  0  0  0  0  0  0  0
  143.2200   72.1410  220.4370 C   0  0  0  0  0  0  0  0  0  0  0  0
  142.5700   73.2290  219.8920 C   0  0  0  0  0  0  0  0  0  0  0  0
  139.9240   71.3900  223.3040 C   0  0  0  0  0  0  0  0  0  0  0  0
  139.5570   70.0570  223.3000 C   0  0  0  0  0  0  0  0  0  0  0  0
  139.6300   69.2770  224.4510 C   0  0  0  0  0  0  0  0  0  0  0  0
  140.0800   69.8470  225.6180 C   0  0  0  0  0  0  0  0  0  0  0  0
  140.1930   69.1720  226.8110 C   0  0  0  0  0  0  0  0  0  0  0  0
  139.7430   67.4840  226.8710 Cl  0  0  0  0  0  0  0  0  0  0  0  0
  140.6500   69.7790  227.9670 C   0  0  0  0  0  0  0  0  0  0  0  0
  141.0110   71.1150  227.9440 C   0  0  0  0  0  0  0  0  0  0  0  0
  140.9040   71.8160  226.7480 C   0  0  0  0  0  0  0  0  0  0  0  0
  140.4440   71.1770  225.6120 C   0  0  0  0  0  0  0  0  0  0  0  0
  140.3560   71.8890  224.4780 N   0  0  0  0  0  0  0  0  0  0  0  0
  139.6040   74.0600  223.1970 H   0  0  0  0  0  0  0  0  0  0  0  0
  139.6987   73.8169  220.1880 H   0  0  0  0  0  0  0  0  0  0  0  0
  138.6219   74.9609  221.0932 H   0  0  0  0  0  0  0  0  0  0  0  0
  140.0533   76.2401  218.0417 H   0  0  0  0  0  0  0  0  0  0  0  0
  139.3877   77.0542  219.4994 H   0  0  0  0  0  0  0  0  0  0  0  0
  140.5944   78.4841  217.7015 H   0  0  0  0  0  0  0  0  0  0  0  0
  141.0012   78.7114  219.4774 H   0  0  0  0  0  0  0  0  0  0  0  0
  142.6109   77.4045  217.3201 H   0  0  0  0  0  0  0  0  0  0  0  0
  142.9855   78.8435  218.3886 H   0  0  0  0  0  0  0  0  0  0  0  0
  144.2708   76.7980  219.0357 H   0  0  0  0  0  0  0  0  0  0  0  0
  143.2325   77.3879  220.3360 H   0  0  0  0  0  0  0  0  0  0  0  0
  142.3765   75.2781  218.2535 H   0  0  0  0  0  0  0  0  0  0  0  0
  144.9244   75.5625  220.4118 H   0  0  0  0  0  0  0  0  0  0  0  0
  146.0705   73.6319  221.3715 H   0  0  0  0  0  0  0  0  0  0  0  0
  144.9883   71.3884  221.4056 H   0  0  0  0  0  0  0  0  0  0  0  0
  142.7207   71.1608  220.4406 H   0  0  0  0  0  0  0  0  0  0  0  0
  141.5632   73.0940  219.4700 H   0  0  0  0  0  0  0  0  0  0  0  0
  139.1987   69.6017  222.3649 H   0  0  0  0  0  0  0  0  0  0  0  0
  139.3315   68.2186  224.4267 H   0  0  0  0  0  0  0  0  0  0  0  0
  140.7262   69.2023  228.9006 H   0  0  0  0  0  0  0  0  0  0  0  0
  141.3756   71.6127  228.8547 H   0  0  0  0  0  0  0  0  0  0  0  0
  141.1853   72.8786  226.7059 H   0  0  0  0  0  0  0  0  0  0  0  0
  1  2  2  0
  2  3  1  0
  3  4  1  0
  4  5  1  0
  5  6  2  0
  5  7  1  0
  7  8  1  0
  8  9  1  0
  9 10  1  0
 10 11  1  0
 11 12  1  0
 12 13  1  0
 13 14  2  0
 14 15  1  0
 15 16  2  0
 16 17  1  0
 17 18  2  0
  2 19  1  0
 19 20  2  0
 20 21  1  0
 21 22  2  0
 22 23  1  0
 23 24  1  0
 23 25  2  0
 25 26  1  0
 26 27  2  0
 27 28  1  0
 28 29  2  0
 12  7  1  0
 18 13  1  0
 29 19  1  0
 28 22  1  0
  3 30  1  0
  4 31  1  0
  4 32  1  0
  8 33  1  0
  8 34  1  0
  9 35  1  0
  9 36  1  0
 10 37  1  0
 10 38  1  0
 11 39  1  0
 11 40  1  0
 12 41  1  6
 14 42  1  0
 15 43  1  0
 16 44  1  0
 17 45  1  0
 18 46  1  0
 20 47  1  0
 21 48  1  0
 25 49  1  0
 26 50  1  0
 27 51  1  0
M  END
>  <smiles>  (31) 
O=C(NCC(=O)N1CCCC[C@H]1c1ccccc1)c1ccc2c(Cl)cccc2n1

>  <score_type>  (31) 
oracle

>  <origin>  (31) 
autodockgpu

>  <m_score__min__energy>  (31) 
-9.5199999999999996

>  <m_primary>  (31) 
energy

>  <rmsd>  (31) 
1.888687233437951

>  <m_score__min__rmsd>  (31) 
1.888687233437951

>  <meeko>  (31) 
{"free_energy": -8.64, "intermolecular_energy": -10.13, "internal_energy": -2.14, "cluster_size": 14, "cluster_id": 2, "rank_in_cluster": 6}

>  <energy>  (31) 
-7.96

>  <cluster_rmsd>  (31) 
0.8

>  <cluster>  (31) 
2

$$$$

     RDKit          3D

 51 54  0  0  0  0  0  0  0  0999 V2000
  139.6360   71.1150  221.1700 O   0  0  0  0  0  0  0  0  0  0  0  0
  140.1490   71.7870  222.1220 C   0  0  0  0  0  0  0  0  0  0  0  0
  140.6900   73.0830  221.9350 N   0  0  0  0  0  0  0  0  0  0  0  0
  140.6570   73.6630  220.6160 C   0  0  0  0  0  0  0  0  0  0  0  0
  141.0960   75.0890  220.6280 C   0  0  0  0  0  0  0  0  0  0  0  0
  141.1120   75.6560  221.7480 O   0  0  0  0  0  0  0  0  0  0  0  0
  141.4560   75.6950  219.4050 N   0  0  0  0  0  0  0  0  0  0  0  0
  140.4450   76.4380  218.6190 C   0  0  0  0  0  0  0  0  0  0  0  0
  140.9530   77.8330  218.3270 C   0  0  0  0  0  0  0  0  0  0  0  0
  142.4050   77.9110  218.0030 C   0  0  0  0  0  0  0  0  0  0  0  0
  143.2960   77.0850  218.9320 C   0  0  0  0  0  0  0  0  0  0  0  0
  142.7790   75.6720  218.8210 C   0  0  1  0  0  0  0  0  0  0  0  0
  143.6760   74.6340  219.3020 C   0  0  0  0  0  0  0  0  0  0  0  0
  144.4710   74.7930  220.4140 C   0  0  0  0  0  0  0  0  0  0  0  0
  145.3170   73.8090  220.8640 C   0  0  0  0  0  0  0  0  0  0  0  0
  145.4100   72.5950  220.2140 C   0  0  0  0  0  0  0  0  0  0  0  0
  144.6310   72.4090  219.1070 C   0  0  0  0  0  0  0  0  0  0  0  0
  143.7820   73.3980  218.6540 C   0  0  0  0  0  0  0  0  0  0  0  0
  140.1990   71.2210  223.4830 C   0  0  0  0  0  0  0  0  0  0  0  0
  139.7540   69.9400  223.7520 C   0  0  0  0  0  0  0  0  0  0  0  0
  139.8000   69.4060  225.0370 C   0  0  0  0  0  0  0  0  0  0  0  0
  140.3010   70.1730  226.0620 C   0  0  0  0  0  0  0  0  0  0  0  0
  140.3940   69.7480  227.3660 C   0  0  0  0  0  0  0  0  0  0  0  0
  139.8470   68.1380  227.7700 Cl  0  0  0  0  0  0  0  0  0  0  0  0
  140.9040   70.5480  228.3740 C   0  0  0  0  0  0  0  0  0  0  0  0
  141.3430   71.8270  228.0770 C   0  0  0  0  0  0  0  0  0  0  0  0
  141.2580   72.2760  226.7650 C   0  0  0  0  0  0  0  0  0  0  0  0
  140.7430   71.4490  225.7840 C   0  0  0  0  0  0  0  0  0  0  0  0
  140.6780   71.9210  224.5290 N   0  0  0  0  0  0  0  0  0  0  0  0
  141.1120   73.6340  222.7160 H   0  0  0  0  0  0  0  0  0  0  0  0
  141.3264   73.0897  219.9578 H   0  0  0  0  0  0  0  0  0  0  0  0
  139.6196   73.6271  220.2519 H   0  0  0  0  0  0  0  0  0  0  0  0
  140.2581   75.9109  217.6718 H   0  0  0  0  0  0  0  0  0  0  0  0
  139.5103   76.5031  219.1952 H   0  0  0  0  0  0  0  0  0  0  0  0
  140.3889   78.2309  217.4706 H   0  0  0  0  0  0  0  0  0  0  0  0
  140.8083   78.4159  219.2486 H   0  0  0  0  0  0  0  0  0  0  0  0
  142.5495   77.5498  216.9741 H   0  0  0  0  0  0  0  0  0  0  0  0
  142.7027   78.9624  218.1291 H   0  0  0  0  0  0  0  0  0  0  0  0
  144.3458   77.1384  218.6080 H   0  0  0  0  0  0  0  0  0  0  0  0
  143.2651   77.4544  219.9677 H   0  0  0  0  0  0  0  0  0  0  0  0
  142.7204   75.3612  217.7675 H   0  0  0  0  0  0  0  0  0  0  0  0
  144.4272   75.7448  220.9636 H   0  0  0  0  0  0  0  0  0  0  0  0
  145.9312   73.9917  221.7581 H   0  0  0  0  0  0  0  0  0  0  0  0
  146.0866   71.8060  220.5741 H   0  0  0  0  0  0  0  0  0  0  0  0
  144.6816   71.4523  218.5664 H   0  0  0  0  0  0  0  0  0  0  0  0
  143.1715   73.2097  217.7586 H   0  0  0  0  0  0  0  0  0  0  0  0
  139.3537   69.3276  222.9306 H   0  0  0  0  0  0  0  0  0  0  0  0
  139.4404   68.3844  225.2294 H   0  0  0  0  0  0  0  0  0  0  0  0
  140.9602   70.1696  229.4053 H   0  0  0  0  0  0  0  0  0  0  0  0
  141.7517   72.4760  228.8655 H   0  0  0  0  0  0  0  0  0  0  0  0
  141.6003   73.2890  226.5068 H   0  0  0  0  0  0  0  0  0  0  0  0
  1  2  2  0
  2  3  1  0
  3  4  1  0
  4  5  1  0
  5  6  2  0
  5  7  1  0
  7  8  1  0
  8  9  1  0
  9 10  1  0
 10 11  1  0
 11 12  1  0
 12 13  1  0
 13 14  2  0
 14 15  1  0
 15 16  2  0
 16 17  1  0
 17 18  2  0
  2 19  1  0
 19 20  2  0
 20 21  1  0
 21 22  2  0
 22 23  1  0
 23 24  1  0
 23 25  2  0
 25 26  1  0
 26 27  2  0
 27 28  1  0
 28 29  2  0
 12  7  1  0
 18 13  1  0
 29 19  1  0
 28 22  1  0
  3 30  1  0
  4 31  1  0
  4 32  1  0
  8 33  1  0
  8 34  1  0
  9 35  1  0
  9 36  1  0
 10 37  1  0
 10 38  1  0
 11 39  1  0
 11 40  1  0
 12 41  1  6
 14 42  1  0
 15 43  1  0
 16 44  1  0
 17 45  1  0
 18 46  1  0
 20 47  1  0
 21 48  1  0
 25 49  1  0
 26 50  1  0
 27 51  1  0
M  END
>  <smiles>  (32) 
O=C(NCC(=O)N1CCCC[C@H]1c1ccccc1)c1ccc2c(Cl)cccc2n1

>  <score_type>  (32) 
oracle

>  <origin>  (32) 
autodockgpu

>  <m_score__min__energy>  (32) 
-9.5199999999999996

>  <m_primary>  (32) 
energy

>  <rmsd>  (32) 
2.126354420952981

>  <m_score__min__rmsd>  (32) 
2.126354420952981

>  <meeko>  (32) 
{"free_energy": -8.11, "intermolecular_energy": -9.6, "internal_energy": -2.28, "cluster_size": 14, "cluster_id": 2, "rank_in_cluster": 12}

>  <energy>  (32) 
-7.75

>  <cluster_rmsd>  (32) 
0.76

>  <cluster>  (32) 
2

$$$$

     RDKit          3D

 51 54  0  0  0  0  0  0  0  0999 V2000
  139.0190   73.5030  222.3110 O   0  0  0  0  0  0  0  0  0  0  0  0
  140.0610   72.7990  222.5150 C   0  0  0  0  0  0  0  0  0  0  0  0
  141.2400   72.9430  221.7430 N   0  0  0  0  0  0  0  0  0  0  0  0
  141.2620   73.9230  220.6870 C   0  0  0  0  0  0  0  0  0  0  0  0
  141.4140   75.3080  221.2220 C   0  0  0  0  0  0  0  0  0  0  0  0
  140.8390   75.5490  222.3110 O   0  0  0  0  0  0  0  0  0  0  0  0
  142.1790   76.2370  220.4840 N   0  0  0  0  0  0  0  0  0  0  0  0
  143.2710   75.7640  219.6020 C   0  0  0  0  0  0  0  0  0  0  0  0
  143.0680   76.3120  218.2050 C   0  0  0  0  0  0  0  0  0  0  0  0
  142.5770   77.7170  218.1540 C   0  0  0  0  0  0  0  0  0  0  0  0
  141.4380   78.0150  219.1300 C   0  0  0  0  0  0  0  0  0  0  0  0
  141.9870   77.6700  220.4940 C   0  0  1  0  0  0  0  0  0  0  0  0
  141.2520   78.2120  221.6240 C   0  0  0  0  0  0  0  0  0  0  0  0
  141.8730   78.6990  222.7520 C   0  0  0  0  0  0  0  0  0  0  0  0
  141.1740   79.2100  223.8170 C   0  0  0  0  0  0  0  0  0  0  0  0
  139.7950   79.2640  223.8070 C   0  0  0  0  0  0  0  0  0  0  0  0
  139.1520   78.7890  222.7000 C   0  0  0  0  0  0  0  0  0  0  0  0
  139.8540   78.2740  221.6300 C   0  0  0  0  0  0  0  0  0  0  0  0
  140.0700   71.7870  223.5870 C   0  0  0  0  0  0  0  0  0  0  0  0
  139.6190   70.4980  223.3710 C   0  0  0  0  0  0  0  0  0  0  0  0
  139.6260   69.5430  224.3840 C   0  0  0  0  0  0  0  0  0  0  0  0
  140.0940   69.8920  225.6280 C   0  0  0  0  0  0  0  0  0  0  0  0
  140.1480   69.0320  226.7000 C   0  0  0  0  0  0  0  0  0  0  0  0
  139.5910   67.3880  226.4900 Cl  0  0  0  0  0  0  0  0  0  0  0  0
  140.6260   69.4170  227.9400 C   0  0  0  0  0  0  0  0  0  0  0  0
  141.0720   70.7140  228.1290 C   0  0  0  0  0  0  0  0  0  0  0  0
  141.0260   71.6000  227.0590 C   0  0  0  0  0  0  0  0  0  0  0  0
  140.5420   71.1790  225.8350 C   0  0  0  0  0  0  0  0  0  0  0  0
  140.5150   72.0660  224.8270 N   0  0  0  0  0  0  0  0  0  0  0  0
  142.0940   72.3650  221.9100 H   0  0  0  0  0  0  0  0  0  0  0  0
  142.1062   73.7053  220.0162 H   0  0  0  0  0  0  0  0  0  0  0  0
  140.3051   73.8670  220.1474 H   0  0  0  0  0  0  0  0  0  0  0  0
  144.2370   76.1133  219.9956 H   0  0  0  0  0  0  0  0  0  0  0  0
  143.2634   74.6645  219.5682 H   0  0  0  0  0  0  0  0  0  0  0  0
  144.0310   76.2659  217.6754 H   0  0  0  0  0  0  0  0  0  0  0  0
  142.2879   75.6927  217.7382 H   0  0  0  0  0  0  0  0  0  0  0  0
  143.4179   78.3858  218.3896 H   0  0  0  0  0  0  0  0  0  0  0  0
  142.1780   77.8776  217.1416 H   0  0  0  0  0  0  0  0  0  0  0  0
  141.1584   79.0779  219.0840 H   0  0  0  0  0  0  0  0  0  0  0  0
  140.5315   77.4387  218.8932 H   0  0  0  0  0  0  0  0  0  0  0  0
  142.9473   78.1780  220.6665 H   0  0  0  0  0  0  0  0  0  0  0  0
  142.9717   78.6778  222.8017 H   0  0  0  0  0  0  0  0  0  0  0  0
  141.7228   79.5832  224.6942 H   0  0  0  0  0  0  0  0  0  0  0  0
  139.2343   79.6747  224.6597 H   0  0  0  0  0  0  0  0  0  0  0  0
  138.0531   78.8176  222.6607 H   0  0  0  0  0  0  0  0  0  0  0  0
  139.2990   77.9014  220.7565 H   0  0  0  0  0  0  0  0  0  0  0  0
  139.2455   70.2202  222.3743 H   0  0  0  0  0  0  0  0  0  0  0  0
  139.2619   68.5231  224.1912 H   0  0  0  0  0  0  0  0  0  0  0  0
  140.6515   68.6967  228.7710 H   0  0  0  0  0  0  0  0  0  0  0  0
  141.4557   71.0373  229.1079 H   0  0  0  0  0  0  0  0  0  0  0  0
  141.3746   72.6355  227.1864 H   0  0  0  0  0  0  0  0  0  0  0  0
  1  2  2  0
  2  3  1  0
  3  4  1  0
  4  5  1  0
  5  6  2  0
  5  7  1  0
  7  8  1  0
  8  9  1  0
  9 10  1  0
 10 11  1  0
 11 12  1  0
 12 13  1  0
 13 14  2  0
 14 15  1  0
 15 16  2  0
 16 17  1  0
 17 18  2  0
  2 19  1  0
 19 20  2  0
 20 21  1  0
 21 22  2  0
 22 23  1  0
 23 24  1  0
 23 25  2  0
 25 26  1  0
 26 27  2  0
 27 28  1  0
 28 29  2  0
 12  7  1  0
 18 13  1  0
 29 19  1  0
 28 22  1  0
  3 30  1  0
  4 31  1  0
  4 32  1  0
  8 33  1  0
  8 34  1  0
  9 35  1  0
  9 36  1  0
 10 37  1  0
 10 38  1  0
 11 39  1  0
 11 40  1  0
 12 41  1  6
 14 42  1  0
 15 43  1  0
 16 44  1  0
 17 45  1  0
 18 46  1  0
 20 47  1  0
 21 48  1  0
 25 49  1  0
 26 50  1  0
 27 51  1  0
M  END
>  <smiles>  (33) 
O=C(NCC(=O)N1CCCC[C@H]1c1ccccc1)c1ccc2c(Cl)cccc2n1

>  <score_type>  (33) 
oracle

>  <origin>  (33) 
autodockgpu

>  <m_score__min__energy>  (33) 
-9.5199999999999996

>  <m_primary>  (33) 
energy

>  <rmsd>  (33) 
2.4581084080130133

>  <m_score__min__rmsd>  (33) 
2.4581084080130133

>  <meeko>  (33) 
{"free_energy": -9.0, "intermolecular_energy": -10.49, "internal_energy": -1.26, "cluster_size": 18, "cluster_id": 1, "rank_in_cluster": 13}

>  <energy>  (33) 
-8.69

>  <cluster_rmsd>  (33) 
0.0

>  <cluster>  (33) 
3

$$$$

     RDKit          3D

 51 54  0  0  0  0  0  0  0  0999 V2000
  140.2850   74.0130  222.0860 O   0  0  0  0  0  0  0  0  0  0  0  0
  140.0950   75.0360  221.3520 C   0  0  0  0  0  0  0  0  0  0  0  0
  139.9760   74.9510  219.9430 N   0  0  0  0  0  0  0  0  0  0  0  0
  140.0730   73.6560  219.3170 C   0  0  0  0  0  0  0  0  0  0  0  0
  141.4630   73.3690  218.8540 C   0  0  0  0  0  0  0  0  0  0  0  0
  141.5920   73.0530  217.6470 O   0  0  0  0  0  0  0  0  0  0  0  0
  142.5190   73.4690  219.7870 N   0  0  0  0  0  0  0  0  0  0  0  0
  142.6580   72.4600  220.8610 C   0  0  0  0  0  0  0  0  0  0  0  0
  144.0530   71.8740  220.8300 C   0  0  0  0  0  0  0  0  0  0  0  0
  145.1330   72.8570  220.5380 C   0  0  0  0  0  0  0  0  0  0  0  0
  144.8130   73.8120  219.3870 C   0  0  0  0  0  0  0  0  0  0  0  0
  143.5320   74.5010  219.7900 C   0  0  1  0  0  0  0  0  0  0  0  0
  143.2140   75.7170  219.0610 C   0  0  0  0  0  0  0  0  0  0  0  0
  143.4410   75.8570  217.7100 C   0  0  0  0  0  0  0  0  0  0  0  0
  143.1400   77.0080  217.0260 C   0  0  0  0  0  0  0  0  0  0  0  0
  142.5840   78.0960  217.6680 C   0  0  0  0  0  0  0  0  0  0  0  0
  142.3460   77.9850  219.0090 C   0  0  0  0  0  0  0  0  0  0  0  0
  142.6500   76.8290  219.6970 C   0  0  0  0  0  0  0  0  0  0  0  0
  139.9920   76.3740  221.9620 C   0  0  0  0  0  0  0  0  0  0  0  0
  138.7750   76.9010  222.3540 C   0  0  0  0  0  0  0  0  0  0  0  0
  138.6790   78.1650  222.9290 C   0  0  0  0  0  0  0  0  0  0  0  0
  139.8220   78.9060  223.1120 C   0  0  0  0  0  0  0  0  0  0  0  0
  139.8440   80.1630  223.6690 C   0  0  0  0  0  0  0  0  0  0  0  0
  138.3370   80.8840  224.1840 Cl  0  0  0  0  0  0  0  0  0  0  0  0
  141.0150   80.8810  223.8380 C   0  0  0  0  0  0  0  0  0  0  0  0
  142.2200   80.3300  223.4360 C   0  0  0  0  0  0  0  0  0  0  0  0
  142.2200   79.0610  222.8700 C   0  0  0  0  0  0  0  0  0  0  0  0
  141.0310   78.3730  222.7180 C   0  0  0  0  0  0  0  0  0  0  0  0
  141.0740   77.1490  222.1670 N   0  0  0  0  0  0  0  0  0  0  0  0
  139.8200   75.7900  219.3410 H   0  0  0  0  0  0  0  0  0  0  0  0
  139.7729   72.8859  220.0428 H   0  0  0  0  0  0  0  0  0  0  0  0
  139.4109   73.6494  218.4386 H   0  0  0  0  0  0  0  0  0  0  0  0
  142.4831   72.9373  221.8365 H   0  0  0  0  0  0  0  0  0  0  0  0
  141.9214   71.6579  220.7060 H   0  0  0  0  0  0  0  0  0  0  0  0
  144.2570   71.4220  221.8119 H   0  0  0  0  0  0  0  0  0  0  0  0
  144.0658   71.1439  220.0073 H   0  0  0  0  0  0  0  0  0  0  0  0
  145.3101   73.4550  221.4441 H   0  0  0  0  0  0  0  0  0  0  0  0
  146.0163   72.2768  220.2328 H   0  0  0  0  0  0  0  0  0  0  0  0
  145.6221   74.5461  219.2584 H   0  0  0  0  0  0  0  0  0  0  0  0
  144.7111   73.2817  218.4286 H   0  0  0  0  0  0  0  0  0  0  0  0
  143.6242   74.9360  220.7961 H   0  0  0  0  0  0  0  0  0  0  0  0
  143.8807   75.0135  217.1576 H   0  0  0  0  0  0  0  0  0  0  0  0
  143.3455   77.0645  215.9468 H   0  0  0  0  0  0  0  0  0  0  0  0
  142.3414   79.0186  217.1203 H   0  0  0  0  0  0  0  0  0  0  0  0
  141.9033   78.8342  219.5503 H   0  0  0  0  0  0  0  0  0  0  0  0
  142.4433   76.7795  220.7763 H   0  0  0  0  0  0  0  0  0  0  0  0
  137.8608   76.3070  222.2079 H   0  0  0  0  0  0  0  0  0  0  0  0
  137.7008   78.5657  223.2331 H   0  0  0  0  0  0  0  0  0  0  0  0
  140.9886   81.8839  224.2892 H   0  0  0  0  0  0  0  0  0  0  0  0
  143.1602   80.8868  223.5624 H   0  0  0  0  0  0  0  0  0  0  0  0
  143.1658   78.6042  222.5431 H   0  0  0  0  0  0  0  0  0  0  0  0
  1  2  2  0
  2  3  1  0
  3  4  1  0
  4  5  1  0
  5  6  2  0
  5  7  1  0
  7  8  1  0
  8  9  1  0
  9 10  1  0
 10 11  1  0
 11 12  1  0
 12 13  1  0
 13 14  2  0
 14 15  1  0
 15 16  2  0
 16 17  1  0
 17 18  2  0
  2 19  1  0
 19 20  2  0
 20 21  1  0
 21 22  2  0
 22 23  1  0
 23 24  1  0
 23 25  2  0
 25 26  1  0
 26 27  2  0
 27 28  1  0
 28 29  2  0
 12  7  1  0
 18 13  1  0
 29 19  1  0
 28 22  1  0
  3 30  1  0
  4 31  1  0
  4 32  1  0
  8 33  1  0
  8 34  1  0
  9 35  1  0
  9 36  1  0
 10 37  1  0
 10 38  1  0
 11 39  1  0
 11 40  1  0
 12 41  1  1
 14 42  1  0
 15 43  1  0
 16 44  1  0
 17 45  1  0
 18 46  1  0
 20 47  1  0
 21 48  1  0
 25 49  1  0
 26 50  1  0
 27 51  1  0
M  END
>  <smiles>  (34) 
O=C(NCC(=O)N1CCCC[C@H]1c1ccccc1)c1ccc2c(Cl)cccc2n1

>  <score_type>  (34) 
oracle

>  <origin>  (34) 
autodockgpu

>  <m_score__min__energy>  (34) 
-9.5199999999999996

>  <m_primary>  (34) 
energy

>  <rmsd>  (34) 
6.935110092994215

>  <m_score__min__rmsd>  (34) 
6.935110092994215

>  <meeko>  (34) 
{"free_energy": -7.48, "intermolecular_energy": -8.97, "internal_energy": -2.38, "cluster_size": 4, "cluster_id": 9, "rank_in_cluster": 2}

>  <energy>  (34) 
-8.53

>  <cluster_rmsd>  (34) 
0.0

>  <cluster>  (34) 
4

$$$$

     RDKit          3D

 51 54  0  0  0  0  0  0  0  0999 V2000
  141.0920   72.0090  221.3220 O   0  0  0  0  0  0  0  0  0  0  0  0
  140.4330   72.4360  222.3250 C   0  0  0  0  0  0  0  0  0  0  0  0
  139.7620   73.6830  222.3200 N   0  0  0  0  0  0  0  0  0  0  0  0
  139.8280   74.5000  221.1350 C   0  0  0  0  0  0  0  0  0  0  0  0
  140.2750   75.8900  221.4460 C   0  0  0  0  0  0  0  0  0  0  0  0
  139.5850   76.5210  222.2820 O   0  0  0  0  0  0  0  0  0  0  0  0
  141.4200   76.3930  220.7910 N   0  0  0  0  0  0  0  0  0  0  0  0
  142.3030   75.4780  220.0330 C   0  0  0  0  0  0  0  0  0  0  0  0
  142.4780   75.9950  218.6210 C   0  0  0  0  0  0  0  0  0  0  0  0
  142.6110   77.4740  218.5130 C   0  0  0  0  0  0  0  0  0  0  0  0
  141.6050   78.2540  219.3610 C   0  0  0  0  0  0  0  0  0  0  0  0
  141.8300   77.7790  220.7770 C   0  0  1  0  0  0  0  0  0  0  0  0
  141.2750   78.6250  221.8200 C   0  0  0  0  0  0  0  0  0  0  0  0
  140.2070   79.4670  221.6080 C   0  0  0  0  0  0  0  0  0  0  0  0
  139.6860   80.2640  222.5960 C   0  0  0  0  0  0  0  0  0  0  0  0
  140.2160   80.2590  223.8710 C   0  0  0  0  0  0  0  0  0  0  0  0
  141.2770   79.4330  224.1110 C   0  0  0  0  0  0  0  0  0  0  0  0
  141.8000   78.6320  223.1170 C   0  0  0  0  0  0  0  0  0  0  0  0
  140.3480   71.6230  223.5520 C   0  0  0  0  0  0  0  0  0  0  0  0
  139.8830   70.3220  223.5300 C   0  0  0  0  0  0  0  0  0  0  0  0
  139.8020   69.5560  224.6890 C   0  0  0  0  0  0  0  0  0  0  0  0
  140.1950   70.1080  225.8850 C   0  0  0  0  0  0  0  0  0  0  0  0
  140.1570   69.4450  227.0890 C   0  0  0  0  0  0  0  0  0  0  0  0
  139.5790   67.7960  227.1260 Cl  0  0  0  0  0  0  0  0  0  0  0  0
  140.5610   70.0330  228.2750 C   0  0  0  0  0  0  0  0  0  0  0  0
  141.0220   71.3390  228.2690 C   0  0  0  0  0  0  0  0  0  0  0  0
  141.0680   72.0280  227.0630 C   0  0  0  0  0  0  0  0  0  0  0  0
  140.6570   71.4070  225.8980 C   0  0  0  0  0  0  0  0  0  0  0  0
  140.7170   72.1070  224.7540 N   0  0  0  0  0  0  0  0  0  0  0  0
  139.2220   74.0330  223.1430 H   0  0  0  0  0  0  0  0  0  0  0  0
  140.5391   74.0466  220.4287 H   0  0  0  0  0  0  0  0  0  0  0  0
  138.8194   74.5539  220.6994 H   0  0  0  0  0  0  0  0  0  0  0  0
  143.2843   75.4234  220.5271 H   0  0  0  0  0  0  0  0  0  0  0  0
  141.8502   74.4760  220.0017 H   0  0  0  0  0  0  0  0  0  0  0  0
  143.3847   75.5375  218.1983 H   0  0  0  0  0  0  0  0  0  0  0  0
  141.5623   75.7243  218.0749 H   0  0  0  0  0  0  0  0  0  0  0  0
  143.6249   77.7543  218.8346 H   0  0  0  0  0  0  0  0  0  0  0  0
  142.4115   77.7351  217.4632 H   0  0  0  0  0  0  0  0  0  0  0  0
  141.7906   79.3354  219.2826 H   0  0  0  0  0  0  0  0  0  0  0  0
  140.5696   78.0856  219.0300 H   0  0  0  0  0  0  0  0  0  0  0  0
  142.8923   77.8601  221.0509 H   0  0  0  0  0  0  0  0  0  0  0  0
  139.7531   79.5024  220.6067 H   0  0  0  0  0  0  0  0  0  0  0  0
  138.8314   80.9181  222.3684 H   0  0  0  0  0  0  0  0  0  0  0  0
  139.7991   80.8968  224.6643 H   0  0  0  0  0  0  0  0  0  0  0  0
  141.7230   79.4059  225.1162 H   0  0  0  0  0  0  0  0  0  0  0  0
  142.6545   77.9800  223.3508 H   0  0  0  0  0  0  0  0  0  0  0  0
  139.5690   69.8808  222.5725 H   0  0  0  0  0  0  0  0  0  0  0  0
  139.4283   68.5222  224.6486 H   0  0  0  0  0  0  0  0  0  0  0  0
  140.5162   69.4664  229.2168 H   0  0  0  0  0  0  0  0  0  0  0  0
  141.3461   71.8224  229.2024 H   0  0  0  0  0  0  0  0  0  0  0  0
  141.4309   73.0660  227.0353 H   0  0  0  0  0  0  0  0  0  0  0  0
  1  2  2  0
  2  3  1  0
  3  4  1  0
  4  5  1  0
  5  6  2  0
  5  7  1  0
  7  8  1  0
  8  9  1  0
  9 10  1  0
 10 11  1  0
 11 12  1  0
 12 13  1  0
 13 14  2  0
 14 15  1  0
 15 16  2  0
 16 17  1  0
 17 18  2  0
  2 19  1  0
 19 20  2  0
 20 21  1  0
 21 22  2  0
 22 23  1  0
 23 24  1  0
 23 25  2  0
 25 26  1  0
 26 27  2  0
 27 28  1  0
 28 29  2  0
 12  7  1  0
 18 13  1  0
 29 19  1  0
 28 22  1  0
  3 30  1  0
  4 31  1  0
  4 32  1  0
  8 33  1  0
  8 34  1  0
  9 35  1  0
  9 36  1  0
 10 37  1  0
 10 38  1  0
 11 39  1  0
 11 40  1  0
 12 41  1  1
 14 42  1  0
 15 43  1  0
 16 44  1  0
 17 45  1  0
 18 46  1  0
 20 47  1  0
 21 48  1  0
 25 49  1  0
 26 50  1  0
 27 51  1  0
M  END
>  <smiles>  (35) 
O=C(NCC(=O)N1CCCC[C@H]1c1ccccc1)c1ccc2c(Cl)cccc2n1

>  <score_type>  (35) 
oracle

>  <origin>  (35) 
autodockgpu

>  <m_score__min__energy>  (35) 
-9.5199999999999996

>  <m_primary>  (35) 
energy

>  <rmsd>  (35) 
2.068643394192211

>  <m_score__min__rmsd>  (35) 
2.068643394192211

>  <meeko>  (35) 
{"free_energy": -9.36, "intermolecular_energy": -10.85, "internal_energy": -1.5, "cluster_size": 18, "cluster_id": 1, "rank_in_cluster": 9}

>  <energy>  (35) 
-8.43

>  <cluster_rmsd>  (35) 
0.0

>  <cluster>  (35) 
5

$$$$

     RDKit          3D

 51 54  0  0  0  0  0  0  0  0999 V2000
  138.6770   71.3600  220.9550 O   0  0  0  0  0  0  0  0  0  0  0  0
  138.9990   71.9720  222.0250 C   0  0  0  0  0  0  0  0  0  0  0  0
  139.0170   73.3860  222.1180 N   0  0  0  0  0  0  0  0  0  0  0  0
  138.6560   74.1600  220.9570 C   0  0  0  0  0  0  0  0  0  0  0  0
  139.8220   74.3720  220.0500 C   0  0  0  0  0  0  0  0  0  0  0  0
  139.5550   74.7280  218.8770 O   0  0  0  0  0  0  0  0  0  0  0  0
  141.1220   74.1620  220.5600 N   0  0  0  0  0  0  0  0  0  0  0  0
  141.6550   72.7870  220.6870 C   0  0  0  0  0  0  0  0  0  0  0  0
  142.9860   72.6900  219.9730 C   0  0  0  0  0  0  0  0  0  0  0  0
  143.8620   73.8840  220.1270 C   0  0  0  0  0  0  0  0  0  0  0  0
  143.1350   75.2180  219.9500 C   0  0  0  0  0  0  0  0  0  0  0  0
  142.0310   75.2050  220.9790 C   0  0  1  0  0  0  0  0  0  0  0  0
  141.4340   76.4960  221.2790 C   0  0  0  0  0  0  0  0  0  0  0  0
  140.6030   76.7010  222.3570 C   0  0  0  0  0  0  0  0  0  0  0  0
  140.0420   77.9220  222.6360 C   0  0  0  0  0  0  0  0  0  0  0  0
  140.2900   79.0200  221.8380 C   0  0  0  0  0  0  0  0  0  0  0  0
  141.1120   78.8470  220.7620 C   0  0  0  0  0  0  0  0  0  0  0  0
  141.6750   77.6200  220.4800 C   0  0  0  0  0  0  0  0  0  0  0  0
  139.3740   71.2070  223.2290 C   0  0  0  0  0  0  0  0  0  0  0  0
  139.2170   69.8360  223.2950 C   0  0  0  0  0  0  0  0  0  0  0  0
  139.5700   69.1150  224.4320 C   0  0  0  0  0  0  0  0  0  0  0  0
  140.0880   69.7850  225.5150 C   0  0  0  0  0  0  0  0  0  0  0  0
  140.4700   69.1750  226.6870 C   0  0  0  0  0  0  0  0  0  0  0  0
  140.2960   67.4420  226.8320 Cl  0  0  0  0  0  0  0  0  0  0  0  0
  140.9890   69.8820  227.7570 C   0  0  0  0  0  0  0  0  0  0  0  0
  141.1350   71.2560  227.6650 C   0  0  0  0  0  0  0  0  0  0  0  0
  140.7550   71.8920  226.4890 C   0  0  0  0  0  0  0  0  0  0  0  0
  140.2410   71.1530  225.4400 C   0  0  0  0  0  0  0  0  0  0  0  0
  139.8860   71.8050  224.3220 N   0  0  0  0  0  0  0  0  0  0  0  0
  139.2810   73.8870  222.9950 H   0  0  0  0  0  0  0  0  0  0  0  0
  137.8673   73.6278  220.4050 H   0  0  0  0  0  0  0  0  0  0  0  0
  138.3033   75.1447  221.2977 H   0  0  0  0  0  0  0  0  0  0  0  0
  141.7920   72.5444  221.7511 H   0  0  0  0  0  0  0  0  0  0  0  0
  140.9460   72.0774  220.2356 H   0  0  0  0  0  0  0  0  0  0  0  0
  143.5245   71.8164  220.3689 H   0  0  0  0  0  0  0  0  0  0  0  0
  142.7582   72.6076  218.9000 H   0  0  0  0  0  0  0  0  0  0  0  0
  144.3027   73.8616  221.1346 H   0  0  0  0  0  0  0  0  0  0  0  0
  144.6192   73.8270  219.3312 H   0  0  0  0  0  0  0  0  0  0  0  0
  143.8212   76.0585  220.1307 H   0  0  0  0  0  0  0  0  0  0  0  0
  142.7447   75.3419  218.9290 H   0  0  0  0  0  0  0  0  0  0  0  0
  142.4328   74.9765  221.9772 H   0  0  0  0  0  0  0  0  0  0  0  0
  140.3798   75.8528  223.0209 H   0  0  0  0  0  0  0  0  0  0  0  0
  139.3834   78.0271  223.5108 H   0  0  0  0  0  0  0  0  0  0  0  0
  139.8415   79.9994  222.0608 H   0  0  0  0  0  0  0  0  0  0  0  0
  141.3297   79.7033  220.1068 H   0  0  0  0  0  0  0  0  0  0  0  0
  142.3316   77.5218  219.6029 H   0  0  0  0  0  0  0  0  0  0  0  0
  138.8028   69.3011  222.4276 H   0  0  0  0  0  0  0  0  0  0  0  0
  139.4363   68.0236  224.4637 H   0  0  0  0  0  0  0  0  0  0  0  0
  141.2843   69.3552  228.6764 H   0  0  0  0  0  0  0  0  0  0  0  0
  141.5442   71.8334  228.5071 H   0  0  0  0  0  0  0  0  0  0  0  0
  140.8632   72.9825  226.3932 H   0  0  0  0  0  0  0  0  0  0  0  0
  1  2  2  0
  2  3  1  0
  3  4  1  0
  4  5  1  0
  5  6  2  0
  5  7  1  0
  7  8  1  0
  8  9  1  0
  9 10  1  0
 10 11  1  0
 11 12  1  0
 12 13  1  0
 13 14  2  0
 14 15  1  0
 15 16  2  0
 16 17  1  0
 17 18  2  0
  2 19  1  0
 19 20  2  0
 20 21  1  0
 21 22  2  0
 22 23  1  0
 23 24  1  0
 23 25  2  0
 25 26  1  0
 26 27  2  0
 27 28  1  0
 28 29  2  0
 12  7  1  0
 18 13  1  0
 29 19  1  0
 28 22  1  0
  3 30  1  0
  4 31  1  0
  4 32  1  0
  8 33  1  0
  8 34  1  0
  9 35  1  0
  9 36  1  0
 10 37  1  0
 10 38  1  0
 11 39  1  0
 11 40  1  0
 12 41  1  1
 14 42  1  0
 15 43  1  0
 16 44  1  0
 17 45  1  0
 18 46  1  0
 20 47  1  0
 21 48  1  0
 25 49  1  0
 26 50  1  0
 27 51  1  0
M  END
>  <smiles>  (36) 
O=C(NCC(=O)N1CCCC[C@H]1c1ccccc1)c1ccc2c(Cl)cccc2n1

>  <score_type>  (36) 
oracle

>  <origin>  (36) 
autodockgpu

>  <m_score__min__energy>  (36) 
-9.5199999999999996

>  <m_primary>  (36) 
energy

>  <rmsd>  (36) 
2.4491637832024744

>  <m_score__min__rmsd>  (36) 
2.4491637832024744

>  <meeko>  (36) 
{"free_energy": -7.86, "intermolecular_energy": -9.36, "internal_energy": -1.99, "cluster_size": 18, "cluster_id": 1, "rank_in_cluster": 18}

>  <energy>  (36) 
-7.93

>  <cluster_rmsd>  (36) 
0.0

>  <cluster>  (36) 
6

$$$$

     RDKit          3D

 51 54  0  0  0  0  0  0  0  0999 V2000
  140.1260   71.7770  220.9870 O   0  0  0  0  0  0  0  0  0  0  0  0
  139.9240   72.2810  222.1380 C   0  0  0  0  0  0  0  0  0  0  0  0
  139.6390   73.6560  222.3290 N   0  0  0  0  0  0  0  0  0  0  0  0
  139.5730   74.5150  221.1740 C   0  0  0  0  0  0  0  0  0  0  0  0
  140.8390   75.2840  220.9840 C   0  0  0  0  0  0  0  0  0  0  0  0
  141.4630   75.5910  222.0280 O   0  0  0  0  0  0  0  0  0  0  0  0
  141.2410   75.6090  219.6700 N   0  0  0  0  0  0  0  0  0  0  0  0
  140.2700   76.2000  218.7220 C   0  0  0  0  0  0  0  0  0  0  0  0
  140.8310   77.4870  218.1570 C   0  0  0  0  0  0  0  0  0  0  0  0
  142.2900   77.4520  217.8600 C   0  0  0  0  0  0  0  0  0  0  0  0
  143.1350   76.8130  218.9620 C   0  0  0  0  0  0  0  0  0  0  0  0
  142.5720   75.4230  219.1370 C   0  0  1  0  0  0  0  0  0  0  0  0
  143.4240   74.4830  219.8450 C   0  0  0  0  0  0  0  0  0  0  0  0
  144.6760   74.8160  220.3100 C   0  0  0  0  0  0  0  0  0  0  0  0
  145.4770   73.9240  220.9790 C   0  0  0  0  0  0  0  0  0  0  0  0
  145.0580   72.6320  221.2220 C   0  0  0  0  0  0  0  0  0  0  0  0
  143.8200   72.2730  220.7730 C   0  0  0  0  0  0  0  0  0  0  0  0
  143.0150   73.1690  220.1010 C   0  0  0  0  0  0  0  0  0  0  0  0
  139.9850   71.4280  223.3390 C   0  0  0  0  0  0  0  0  0  0  0  0
  139.5750   70.1080  223.3130 C   0  0  0  0  0  0  0  0  0  0  0  0
  139.6320   69.3040  224.4480 C   0  0  0  0  0  0  0  0  0  0  0  0
  140.1080   69.8360  225.6220 C   0  0  0  0  0  0  0  0  0  0  0  0
  140.2080   69.1340  226.8000 C   0  0  0  0  0  0  0  0  0  0  0  0
  139.7050   67.4600  226.8310 Cl  0  0  0  0  0  0  0  0  0  0  0  0
  140.6930   69.7030  227.9650 C   0  0  0  0  0  0  0  0  0  0  0  0
  141.0970   71.0270  227.9640 C   0  0  0  0  0  0  0  0  0  0  0  0
  141.0040   71.7550  226.7840 C   0  0  0  0  0  0  0  0  0  0  0  0
  140.5150   71.1530  225.6390 C   0  0  0  0  0  0  0  0  0  0  0  0
  140.4410   71.8900  224.5200 N   0  0  0  0  0  0  0  0  0  0  0  0
  139.4740   74.0700  223.2740 H   0  0  0  0  0  0  0  0  0  0  0  0
  139.3931   73.8984  220.2810 H   0  0  0  0  0  0  0  0  0  0  0  0
  138.7550   75.2341  221.3280 H   0  0  0  0  0  0  0  0  0  0  0  0
  140.0816   75.4916  217.9018 H   0  0  0  0  0  0  0  0  0  0  0  0
  139.3280   76.4124  219.2489 H   0  0  0  0  0  0  0  0  0  0  0  0
  140.2964   77.7128  217.2226 H   0  0  0  0  0  0  0  0  0  0  0  0
  140.6899   78.2544  218.9324 H   0  0  0  0  0  0  0  0  0  0  0  0
  142.4404   76.8792  216.9331 H   0  0  0  0  0  0  0  0  0  0  0  0
  142.6213   78.4972  217.7713 H   0  0  0  0  0  0  0  0  0  0  0  0
  144.1916   76.7660  218.6596 H   0  0  0  0  0  0  0  0  0  0  0  0
  143.0980   77.3922  219.8965 H   0  0  0  0  0  0  0  0  0  0  0  0
  142.5215   74.8982  218.1715 H   0  0  0  0  0  0  0  0  0  0  0  0
  145.0493   75.8365  220.1389 H   0  0  0  0  0  0  0  0  0  0  0  0
  146.4699   74.2448  221.3273 H   0  0  0  0  0  0  0  0  0  0  0  0
  145.6988   71.9168  221.7585 H   0  0  0  0  0  0  0  0  0  0  0  0
  143.4575   71.2497  220.9504 H   0  0  0  0  0  0  0  0  0  0  0  0
  142.0230   72.8416  219.7563 H   0  0  0  0  0  0  0  0  0  0  0  0
  139.1945   69.6827  222.3726 H   0  0  0  0  0  0  0  0  0  0  0  0
  139.3002   68.2561  224.4055 H   0  0  0  0  0  0  0  0  0  0  0  0
  140.7570   69.1061  228.8868 H   0  0  0  0  0  0  0  0  0  0  0  0
  141.4848   71.4946  228.8811 H   0  0  0  0  0  0  0  0  0  0  0  0
  141.3189   72.8087  226.7607 H   0  0  0  0  0  0  0  0  0  0  0  0
  1  2  2  0
  2  3  1  0
  3  4  1  0
  4  5  1  0
  5  6  2  0
  5  7  1  0
  7  8  1  0
  8  9  1  0
  9 10  1  0
 10 11  1  0
 11 12  1  0
 12 13  1  0
 13 14  2  0
 14 15  1  0
 15 16  2  0
 16 17  1  0
 17 18  2  0
  2 19  1  0
 19 20  2  0
 20 21  1  0
 21 22  2  0
 22 23  1  0
 23 24  1  0
 23 25  2  0
 25 26  1  0
 26 27  2  0
 27 28  1  0
 28 29  2  0
 12  7  1  0
 18 13  1  0
 29 19  1  0
 28 22  1  0
  3 30  1  0
  4 31  1  0
  4 32  1  0
  8 33  1  0
  8 34  1  0
  9 35  1  0
  9 36  1  0
 10 37  1  0
 10 38  1  0
 11 39  1  0
 11 40  1  0
 12 41  1  6
 14 42  1  0
 15 43  1  0
 16 44  1  0
 17 45  1  0
 18 46  1  0
 20 47  1  0
 21 48  1  0
 25 49  1  0
 26 50  1  0
 27 51  1  0
M  END
>  <smiles>  (37) 
O=C(NCC(=O)N1CCCC[C@H]1c1ccccc1)c1ccc2c(Cl)cccc2n1

>  <score_type>  (37) 
oracle

>  <origin>  (37) 
autodockgpu

>  <m_score__min__energy>  (37) 
-9.5199999999999996

>  <m_primary>  (37) 
energy

>  <rmsd>  (37) 
1.7635817371599387

>  <m_score__min__rmsd>  (37) 
1.7635817371599387

>  <meeko>  (37) 
{"free_energy": -8.75, "intermolecular_energy": -10.24, "internal_energy": -1.94, "cluster_size": 14, "cluster_id": 2, "rank_in_cluster": 5}

>  <energy>  (37) 
-7.87

>  <cluster_rmsd>  (37) 
1.33

>  <cluster>  (37) 
6

$$$$

     RDKit          3D

 51 54  0  0  0  0  0  0  0  0999 V2000
  140.5000   72.4090  220.9730 O   0  0  0  0  0  0  0  0  0  0  0  0
  140.0830   72.8000  222.1110 C   0  0  0  0  0  0  0  0  0  0  0  0
  139.6030   74.1140  222.3360 N   0  0  0  0  0  0  0  0  0  0  0  0
  139.5860   75.0430  221.2340 C   0  0  0  0  0  0  0  0  0  0  0  0
  140.3140   76.3030  221.5630 C   0  0  0  0  0  0  0  0  0  0  0  0
  139.8460   76.9850  222.5060 O   0  0  0  0  0  0  0  0  0  0  0  0
  141.4580   76.6390  220.8060 N   0  0  0  0  0  0  0  0  0  0  0  0
  142.2150   75.5810  220.0980 C   0  0  0  0  0  0  0  0  0  0  0  0
  142.3510   75.9470  218.6350 C   0  0  0  0  0  0  0  0  0  0  0  0
  142.6020   77.3920  218.3770 C   0  0  0  0  0  0  0  0  0  0  0  0
  141.7160   78.3340  219.1940 C   0  0  0  0  0  0  0  0  0  0  0  0
  141.9820   77.9750  220.6360 C   0  0  1  0  0  0  0  0  0  0  0  0
  141.5620   78.9610  221.6180 C   0  0  0  0  0  0  0  0  0  0  0  0
  140.5180   79.8310  221.4000 C   0  0  0  0  0  0  0  0  0  0  0  0
  140.1250   80.7610  222.3310 C   0  0  0  0  0  0  0  0  0  0  0  0
  140.7670   80.8670  223.5480 C   0  0  0  0  0  0  0  0  0  0  0  0
  141.8060   80.0150  223.7920 C   0  0  0  0  0  0  0  0  0  0  0  0
  142.2020   79.0820  222.8570 C   0  0  0  0  0  0  0  0  0  0  0  0
  140.0890   71.8730  223.2580 C   0  0  0  0  0  0  0  0  0  0  0  0
  139.6480   70.5690  223.1380 C   0  0  0  0  0  0  0  0  0  0  0  0
  139.6520   69.6950  224.2220 C   0  0  0  0  0  0  0  0  0  0  0  0
  140.1070   70.1410  225.4390 C   0  0  0  0  0  0  0  0  0  0  0  0
  140.1570   69.3670  226.5740 C   0  0  0  0  0  0  0  0  0  0  0  0
  139.6130   67.7070  226.4880 Cl  0  0  0  0  0  0  0  0  0  0  0  0
  140.6220   69.8500  227.7850 C   0  0  0  0  0  0  0  0  0  0  0  0
  141.0570   71.1610  227.8770 C   0  0  0  0  0  0  0  0  0  0  0  0
  141.0150   71.9620  226.7420 C   0  0  0  0  0  0  0  0  0  0  0  0
  140.5450   71.4440  225.5490 C   0  0  0  0  0  0  0  0  0  0  0  0
  140.5220   72.2500  224.4760 N   0  0  0  0  0  0  0  0  0  0  0  0
  139.2610   74.4340  223.2700 H   0  0  0  0  0  0  0  0  0  0  0  0
  140.0649   74.5717  220.3630 H   0  0  0  0  0  0  0  0  0  0  0  0
  138.5383   75.2989  221.0175 H   0  0  0  0  0  0  0  0  0  0  0  0
  143.2151   75.4843  220.5458 H   0  0  0  0  0  0  0  0  0  0  0  0
  141.6779   74.6252  220.1873 H   0  0  0  0  0  0  0  0  0  0  0  0
  143.1898   75.3729  218.2145 H   0  0  0  0  0  0  0  0  0  0  0  0
  141.3857   75.7098  218.1638 H   0  0  0  0  0  0  0  0  0  0  0  0
  143.6528   77.6090  218.6192 H   0  0  0  0  0  0  0  0  0  0  0  0
  142.3650   77.5716  217.3179 H   0  0  0  0  0  0  0  0  0  0  0  0
  141.9868   79.3826  219.0011 H   0  0  0  0  0  0  0  0  0  0  0  0
  140.6526   78.2283  218.9331 H   0  0  0  0  0  0  0  0  0  0  0  0
  143.0615   77.9859  220.8473 H   0  0  0  0  0  0  0  0  0  0  0  0
  139.9776   79.7794  220.4433 H   0  0  0  0  0  0  0  0  0  0  0  0
  139.2843   81.4327  222.1028 H   0  0  0  0  0  0  0  0  0  0  0  0
  140.4531   81.6111  224.2948 H   0  0  0  0  0  0  0  0  0  0  0  0
  142.3375   80.0741  224.7533 H   0  0  0  0  0  0  0  0  0  0  0  0
  143.0442   78.4143  223.0913 H   0  0  0  0  0  0  0  0  0  0  0  0
  139.2850   70.2128  222.1626 H   0  0  0  0  0  0  0  0  0  0  0  0
  139.2955   68.6609  224.1053 H   0  0  0  0  0  0  0  0  0  0  0  0
  140.6457   69.1959  228.6691 H   0  0  0  0  0  0  0  0  0  0  0  0
  141.4293   71.5616  228.8314 H   0  0  0  0  0  0  0  0  0  0  0  0
  141.3552   73.0068  226.7926 H   0  0  0  0  0  0  0  0  0  0  0  0
  1  2  2  0
  2  3  1  0
  3  4  1  0
  4  5  1  0
  5  6  2  0
  5  7  1  0
  7  8  1  0
  8  9  1  0
  9 10  1  0
 10 11  1  0
 11 12  1  0
 12 13  1  0
 13 14  2  0
 14 15  1  0
 15 16  2  0
 16 17  1  0
 17 18  2  0
  2 19  1  0
 19 20  2  0
 20 21  1  0
 21 22  2  0
 22 23  1  0
 23 24  1  0
 23 25  2  0
 25 26  1  0
 26 27  2  0
 27 28  1  0
 28 29  2  0
 12  7  1  0
 18 13  1  0
 29 19  1  0
 28 22  1  0
  3 30  1  0
  4 31  1  0
  4 32  1  0
  8 33  1  0
  8 34  1  0
  9 35  1  0
  9 36  1  0
 10 37  1  0
 10 38  1  0
 11 39  1  0
 11 40  1  0
 12 41  1  6
 14 42  1  0
 15 43  1  0
 16 44  1  0
 17 45  1  0
 18 46  1  0
 20 47  1  0
 21 48  1  0
 25 49  1  0
 26 50  1  0
 27 51  1  0
M  END
>  <smiles>  (38) 
O=C(NCC(=O)N1CCCC[C@H]1c1ccccc1)c1ccc2c(Cl)cccc2n1

>  <score_type>  (38) 
oracle

>  <origin>  (38) 
autodockgpu

>  <m_score__min__energy>  (38) 
-9.5199999999999996

>  <m_primary>  (38) 
energy

>  <rmsd>  (38) 
2.0705122247240837

>  <m_score__min__rmsd>  (38) 
2.0705122247240837

>  <meeko>  (38) 
{"free_energy": -9.32, "intermolecular_energy": -10.81, "internal_energy": -1.54, "cluster_size": 18, "cluster_id": 1, "rank_in_cluster": 12}

>  <energy>  (38) 
-7.77

>  <cluster_rmsd>  (38) 
0.0

>  <cluster>  (38) 
7

$$$$

     RDKit          3D

 51 54  0  0  0  0  0  0  0  0999 V2000
  140.3270   74.0130  222.0810 O   0  0  0  0  0  0  0  0  0  0  0  0
  140.1080   75.0280  221.3450 C   0  0  0  0  0  0  0  0  0  0  0  0
  139.9660   74.9330  219.9390 N   0  0  0  0  0  0  0  0  0  0  0  0
  140.0740   73.6370  219.3180 C   0  0  0  0  0  0  0  0  0  0  0  0
  141.4680   73.3560  218.8630 C   0  0  0  0  0  0  0  0  0  0  0  0
  141.6050   73.0420  217.6560 O   0  0  0  0  0  0  0  0  0  0  0  0
  142.5180   73.4610  219.8010 N   0  0  0  0  0  0  0  0  0  0  0  0
  142.6610   72.4470  220.8710 C   0  0  0  0  0  0  0  0  0  0  0  0
  144.0610   71.8740  220.8430 C   0  0  0  0  0  0  0  0  0  0  0  0
  145.1340   72.8660  220.5610 C   0  0  0  0  0  0  0  0  0  0  0  0
  144.8110   73.8240  219.4130 C   0  0  0  0  0  0  0  0  0  0  0  0
  143.5230   74.5000  219.8140 C   0  0  1  0  0  0  0  0  0  0  0  0
  143.1990   75.7170  219.0890 C   0  0  0  0  0  0  0  0  0  0  0  0
  142.6530   76.8250  219.6980 C   0  0  0  0  0  0  0  0  0  0  0  0
  142.3490   77.9720  219.0080 C   0  0  0  0  0  0  0  0  0  0  0  0
  142.5800   78.0720  217.6510 C   0  0  0  0  0  0  0  0  0  0  0  0
  143.1220   76.9890  217.0210 C   0  0  0  0  0  0  0  0  0  0  0  0
  143.4270   75.8360  217.7130 C   0  0  0  0  0  0  0  0  0  0  0  0
  139.9930   76.3680  221.9500 C   0  0  0  0  0  0  0  0  0  0  0  0
  138.7690   76.8980  222.3130 C   0  0  0  0  0  0  0  0  0  0  0  0
  138.6610   78.1630  222.8830 C   0  0  0  0  0  0  0  0  0  0  0  0
  139.8010   78.9030  223.0890 C   0  0  0  0  0  0  0  0  0  0  0  0
  139.8130   80.1610  223.6440 C   0  0  0  0  0  0  0  0  0  0  0  0
  138.2960   80.8860  224.1230 Cl  0  0  0  0  0  0  0  0  0  0  0  0
  140.9810   80.8770  223.8380 C   0  0  0  0  0  0  0  0  0  0  0  0
  142.1940   80.3240  223.4650 C   0  0  0  0  0  0  0  0  0  0  0  0
  142.2050   79.0530  222.9020 C   0  0  0  0  0  0  0  0  0  0  0  0
  141.0180   78.3670  222.7240 C   0  0  0  0  0  0  0  0  0  0  0  0
  141.0720   77.1420  222.1780 N   0  0  0  0  0  0  0  0  0  0  0  0
  139.7870   75.7660  219.3350 H   0  0  0  0  0  0  0  0  0  0  0  0
  139.7745   72.8676  220.0448 H   0  0  0  0  0  0  0  0  0  0  0  0
  139.4167   73.6240  218.4361 H   0  0  0  0  0  0  0  0  0  0  0  0
  142.4774   72.9175  221.8482 H   0  0  0  0  0  0  0  0  0  0  0  0
  141.9322   71.6392  220.7087 H   0  0  0  0  0  0  0  0  0  0  0  0
  144.2645   71.4188  221.8235 H   0  0  0  0  0  0  0  0  0  0  0  0
  144.0833   71.1491  220.0160 H   0  0  0  0  0  0  0  0  0  0  0  0
  145.3025   73.4610  221.4707 H   0  0  0  0  0  0  0  0  0  0  0  0
  146.0234   72.2944  220.2572 H   0  0  0  0  0  0  0  0  0  0  0  0
  145.6144   74.5654  219.2914 H   0  0  0  0  0  0  0  0  0  0  0  0
  144.7177   73.2977  218.4516 H   0  0  0  0  0  0  0  0  0  0  0  0
  143.6072   74.9295  220.8232 H   0  0  0  0  0  0  0  0  0  0  0  0
  142.4528   76.7894  220.7790 H   0  0  0  0  0  0  0  0  0  0  0  0
  141.9135   78.8268  219.5462 H   0  0  0  0  0  0  0  0  0  0  0  0
  142.3363   78.9907  217.0974 H   0  0  0  0  0  0  0  0  0  0  0  0
  143.3193   77.0371  215.9399 H   0  0  0  0  0  0  0  0  0  0  0  0
  143.8620   74.9852  217.1681 H   0  0  0  0  0  0  0  0  0  0  0  0
  137.8575   76.3050  222.1472 H   0  0  0  0  0  0  0  0  0  0  0  0
  137.6767   78.5653  223.1648 H   0  0  0  0  0  0  0  0  0  0  0  0
  140.9459   81.8808  224.2865 H   0  0  0  0  0  0  0  0  0  0  0  0
  143.1318   80.8800  223.6114 H   0  0  0  0  0  0  0  0  0  0  0  0
  143.1572   78.5936  222.5984 H   0  0  0  0  0  0  0  0  0  0  0  0
  1  2  2  0
  2  3  1  0
  3  4  1  0
  4  5  1  0
  5  6  2  0
  5  7  1  0
  7  8  1  0
  8  9  1  0
  9 10  1  0
 10 11  1  0
 11 12  1  0
 12 13  1  0
 13 14  2  0
 14 15  1  0
 15 16  2  0
 16 17  1  0
 17 18  2  0
  2 19  1  0
 19 20  2  0
 20 21  1  0
 21 22  2  0
 22 23  1  0
 23 24  1  0
 23 25  2  0
 25 26  1  0
 26 27  2  0
 27 28  1  0
 28 29  2  0
 12  7  1  0
 18 13  1  0
 29 19  1  0
 28 22  1  0
  3 30  1  0
  4 31  1  0
  4 32  1  0
  8 33  1  0
  8 34  1  0
  9 35  1  0
  9 36  1  0
 10 37  1  0
 10 38  1  0
 11 39  1  0
 11 40  1  0
 12 41  1  1
 14 42  1  0
 15 43  1  0
 16 44  1  0
 17 45  1  0
 18 46  1  0
 20 47  1  0
 21 48  1  0
 25 49  1  0
 26 50  1  0
 27 51  1  0
M  END
>  <smiles>  (39) 
O=C(NCC(=O)N1CCCC[C@H]1c1ccccc1)c1ccc2c(Cl)cccc2n1

>  <score_type>  (39) 
oracle

>  <origin>  (39) 
autodockgpu

>  <m_score__min__energy>  (39) 
-9.5199999999999996

>  <m_primary>  (39) 
energy

>  <rmsd>  (39) 
6.931615339992969

>  <m_score__min__rmsd>  (39) 
6.931615339992969

>  <meeko>  (39) 
{"free_energy": -7.47, "intermolecular_energy": -8.97, "internal_energy": -2.39, "cluster_size": 4, "cluster_id": 9, "rank_in_cluster": 3}

>  <energy>  (39) 
-7.76

>  <cluster_rmsd>  (39) 
0.29

>  <cluster>  (39) 
7

$$$$

     RDKit          3D

 51 54  0  0  0  0  0  0  0  0999 V2000
  141.3210   72.4670  221.5070 O   0  0  0  0  0  0  0  0  0  0  0  0
  140.3990   72.6010  222.3760 C   0  0  0  0  0  0  0  0  0  0  0  0
  139.4660   73.6670  222.3390 N   0  0  0  0  0  0  0  0  0  0  0  0
  139.5640   74.6360  221.2770 C   0  0  0  0  0  0  0  0  0  0  0  0
  140.6270   75.6470  221.5480 C   0  0  0  0  0  0  0  0  0  0  0  0
  141.7650   75.1970  221.8260 O   0  0  0  0  0  0  0  0  0  0  0  0
  140.2910   77.0170  221.4750 N   0  0  0  0  0  0  0  0  0  0  0  0
  139.1910   77.5550  222.3080 C   0  0  0  0  0  0  0  0  0  0  0  0
  139.6950   78.7340  223.1130 C   0  0  0  0  0  0  0  0  0  0  0  0
  140.6310   79.6310  222.3830 C   0  0  0  0  0  0  0  0  0  0  0  0
  141.7080   78.8930  221.5850 C   0  0  0  0  0  0  0  0  0  0  0  0
  140.9500   77.9940  220.6380 C   0  0  1  0  0  0  0  0  0  0  0  0
  141.7160   77.4700  219.5190 C   0  0  0  0  0  0  0  0  0  0  0  0
  141.3320   77.6420  218.2080 C   0  0  0  0  0  0  0  0  0  0  0  0
  142.0590   77.1460  217.1550 C   0  0  0  0  0  0  0  0  0  0  0  0
  143.2270   76.4420  217.3630 C   0  0  0  0  0  0  0  0  0  0  0  0
  143.6330   76.2560  218.6530 C   0  0  0  0  0  0  0  0  0  0  0  0
  142.9030   76.7540  219.7120 C   0  0  0  0  0  0  0  0  0  0  0  0
  140.2740   71.6260  223.4760 C   0  0  0  0  0  0  0  0  0  0  0  0
  139.7050   70.3820  223.2800 C   0  0  0  0  0  0  0  0  0  0  0  0
  139.5850   69.4630  224.3190 C   0  0  0  0  0  0  0  0  0  0  0  0
  140.0460   69.8030  225.5690 C   0  0  0  0  0  0  0  0  0  0  0  0
  139.9800   68.9750  226.6650 C   0  0  0  0  0  0  0  0  0  0  0  0
  139.2700   67.3880  226.4820 Cl  0  0  0  0  0  0  0  0  0  0  0  0
  140.4540   69.3500  227.9090 C   0  0  0  0  0  0  0  0  0  0  0  0
  141.0190   70.6030  228.0780 C   0  0  0  0  0  0  0  0  0  0  0  0
  141.0950   71.4560  226.9830 C   0  0  0  0  0  0  0  0  0  0  0  0
  140.6120   71.0460  225.7550 C   0  0  0  0  0  0  0  0  0  0  0  0
  140.7050   71.8990  224.7220 N   0  0  0  0  0  0  0  0  0  0  0  0
  138.7110   73.7760  223.0520 H   0  0  0  0  0  0  0  0  0  0  0  0
  139.8003   74.1133  220.3384 H   0  0  0  0  0  0  0  0  0  0  0  0
  138.6010   75.1626  221.2037 H   0  0  0  0  0  0  0  0  0  0  0  0
  138.3654   77.8811  221.6584 H   0  0  0  0  0  0  0  0  0  0  0  0
  138.8331   76.7713  222.9919 H   0  0  0  0  0  0  0  0  0  0  0  0
  138.8259   79.3297  223.4289 H   0  0  0  0  0  0  0  0  0  0  0  0
  140.2620   78.3142  223.9570 H   0  0  0  0  0  0  0  0  0  0  0  0
  140.0453   80.2473  221.6851 H   0  0  0  0  0  0  0  0  0  0  0  0
  141.1537   80.2305  223.1428 H   0  0  0  0  0  0  0  0  0  0  0  0
  142.3305   79.6064  221.0250 H   0  0  0  0  0  0  0  0  0  0  0  0
  142.3872   78.3247  222.2375 H   0  0  0  0  0  0  0  0  0  0  0  0
  140.2037   78.5682  220.0694 H   0  0  0  0  0  0  0  0  0  0  0  0
  140.4069   78.1984  217.9965 H   0  0  0  0  0  0  0  0  0  0  0  0
  141.7042   77.3127  216.1272 H   0  0  0  0  0  0  0  0  0  0  0  0
  143.8104   76.0447  216.5194 H   0  0  0  0  0  0  0  0  0  0  0  0
  144.5601   75.6983  218.8517 H   0  0  0  0  0  0  0  0  0  0  0  0
  143.2639   76.5836  220.7371 H   0  0  0  0  0  0  0  0  0  0  0  0
  139.3380   70.1113  222.2790 H   0  0  0  0  0  0  0  0  0  0  0  0
  139.1276   68.4783  224.1423 H   0  0  0  0  0  0  0  0  0  0  0  0
  140.3826   68.6565  228.7598 H   0  0  0  0  0  0  0  0  0  0  0  0
  141.4006   70.9175  229.0606 H   0  0  0  0  0  0  0  0  0  0  0  0
  141.5391   72.4562  227.0940 H   0  0  0  0  0  0  0  0  0  0  0  0
  1  2  2  0
  2  3  1  0
  3  4  1  0
  4  5  1  0
  5  6  2  0
  5  7  1  0
  7  8  1  0
  8  9  1  0
  9 10  1  0
 10 11  1  0
 11 12  1  0
 12 13  1  0
 13 14  2  0
 14 15  1  0
 15 16  2  0
 16 17  1  0
 17 18  2  0
  2 19  1  0
 19 20  2  0
 20 21  1  0
 21 22  2  0
 22 23  1  0
 23 24  1  0
 23 25  2  0
 25 26  1  0
 26 27  2  0
 27 28  1  0
 28 29  2  0
 12  7  1  0
 18 13  1  0
 29 19  1  0
 28 22  1  0
  3 30  1  0
  4 31  1  0
  4 32  1  0
  8 33  1  0
  8 34  1  0
  9 35  1  0
  9 36  1  0
 10 37  1  0
 10 38  1  0
 11 39  1  0
 11 40  1  0
 12 41  1  6
 14 42  1  0
 15 43  1  0
 16 44  1  0
 17 45  1  0
 18 46  1  0
 20 47  1  0
 21 48  1  0
 25 49  1  0
 26 50  1  0
 27 51  1  0
M  END
>  <smiles>  (40) 
O=C(NCC(=O)N1CCCC[C@H]1c1ccccc1)c1ccc2c(Cl)cccc2n1

>  <score_type>  (40) 
oracle

>  <origin>  (40) 
autodockgpu

>  <m_score__min__energy>  (40) 
-9.5199999999999996

>  <m_primary>  (40) 
energy

>  <rmsd>  (40) 
3.00530047295032

>  <m_score__min__rmsd>  (40) 
3.00530047295032

>  <meeko>  (40) 
{"free_energy": -8.69, "intermolecular_energy": -10.19, "internal_energy": -1.27, "cluster_size": 1, "cluster_id": 3, "rank_in_cluster": 1}

>  <energy>  (40) 
-7.75

>  <cluster_rmsd>  (40) 
0.29

>  <cluster>  (40) 
7

$$$$

     RDKit          3D

 51 54  0  0  0  0  0  0  0  0999 V2000
  140.0910   70.9810  221.0500 O   0  0  0  0  0  0  0  0  0  0  0  0
  140.3450   71.7330  222.0460 C   0  0  0  0  0  0  0  0  0  0  0  0
  140.6830   73.1020  221.9010 N   0  0  0  0  0  0  0  0  0  0  0  0
  140.7400   73.6630  220.5750 C   0  0  0  0  0  0  0  0  0  0  0  0
  140.9890   75.1350  220.6080 C   0  0  0  0  0  0  0  0  0  0  0  0
  140.7990   75.7050  221.7090 O   0  0  0  0  0  0  0  0  0  0  0  0
  141.4120   75.7750  219.4220 N   0  0  0  0  0  0  0  0  0  0  0  0
  140.4520   76.5770  218.6300 C   0  0  0  0  0  0  0  0  0  0  0  0
  141.0110   77.9660  218.4110 C   0  0  0  0  0  0  0  0  0  0  0  0
  142.4750   78.0120  218.1420 C   0  0  0  0  0  0  0  0  0  0  0  0
  143.3070   77.1250  219.0700 C   0  0  0  0  0  0  0  0  0  0  0  0
  142.7540   75.7330  218.8860 C   0  0  1  0  0  0  0  0  0  0  0  0
  143.6010   74.6510  219.3580 C   0  0  0  0  0  0  0  0  0  0  0  0
  143.6140   73.4040  218.7730 C   0  0  0  0  0  0  0  0  0  0  0  0
  144.4160   72.3860  219.2230 C   0  0  0  0  0  0  0  0  0  0  0  0
  145.2630   72.5650  220.2970 C   0  0  0  0  0  0  0  0  0  0  0  0
  145.2730   73.7920  220.8970 C   0  0  0  0  0  0  0  0  0  0  0  0
  144.4660   74.8160  220.4460 C   0  0  0  0  0  0  0  0  0  0  0  0
  140.2960   71.1880  223.4150 C   0  0  0  0  0  0  0  0  0  0  0  0
  139.8260   69.9140  223.6710 C   0  0  0  0  0  0  0  0  0  0  0  0
  139.7780   69.4000  224.9640 C   0  0  0  0  0  0  0  0  0  0  0  0
  140.2110   70.1790  226.0100 C   0  0  0  0  0  0  0  0  0  0  0  0
  140.2100   69.7750  227.3240 C   0  0  0  0  0  0  0  0  0  0  0  0
  139.6260   68.1730  227.7130 Cl  0  0  0  0  0  0  0  0  0  0  0  0
  140.6540   70.5870  228.3530 C   0  0  0  0  0  0  0  0  0  0  0  0
  141.1200   71.8590  228.0690 C   0  0  0  0  0  0  0  0  0  0  0  0
  141.1290   72.2890  226.7470 C   0  0  0  0  0  0  0  0  0  0  0  0
  140.6790   71.4490  225.7450 C   0  0  0  0  0  0  0  0  0  0  0  0
  140.7050   71.9010  224.4820 N   0  0  0  0  0  0  0  0  0  0  0  0
  140.8920   73.7180  222.7170 H   0  0  0  0  0  0  0  0  0  0  0  0
  141.5534   73.1764  220.0168 H   0  0  0  0  0  0  0  0  0  0  0  0
  139.7690   73.4904  220.0878 H   0  0  0  0  0  0  0  0  0  0  0  0
  140.2848   76.0920  217.6570 H   0  0  0  0  0  0  0  0  0  0  0  0
  139.4988   76.6483  219.1743 H   0  0  0  0  0  0  0  0  0  0  0  0
  140.4904   78.4133  217.5514 H   0  0  0  0  0  0  0  0  0  0  0  0
  140.8499   78.5174  219.3491 H   0  0  0  0  0  0  0  0  0  0  0  0
  142.6466   77.6852  217.1058 H   0  0  0  0  0  0  0  0  0  0  0  0
  142.7983   79.0485  218.3187 H   0  0  0  0  0  0  0  0  0  0  0  0
  144.3692   77.1589  218.7862 H   0  0  0  0  0  0  0  0  0  0  0  0
  143.2483   77.4560  220.1174 H   0  0  0  0  0  0  0  0  0  0  0  0
  142.7264   75.4634  217.8199 H   0  0  0  0  0  0  0  0  0  0  0  0
  142.9558   73.2172  217.9116 H   0  0  0  0  0  0  0  0  0  0  0  0
  144.3831   71.4092  218.7182 H   0  0  0  0  0  0  0  0  0  0  0  0
  145.9070   71.7492  220.6571 H   0  0  0  0  0  0  0  0  0  0  0  0
  145.9372   73.9670  221.7562 H   0  0  0  0  0  0  0  0  0  0  0  0
  144.5034   75.7899  220.9560 H   0  0  0  0  0  0  0  0  0  0  0  0
  139.4814   69.2907  222.8327 H   0  0  0  0  0  0  0  0  0  0  0  0
  139.3985   68.3837  225.1459 H   0  0  0  0  0  0  0  0  0  0  0  0
  140.6367   70.2234  229.3910 H   0  0  0  0  0  0  0  0  0  0  0  0
  141.4767   72.5176  228.8746 H   0  0  0  0  0  0  0  0  0  0  0  0
  141.4938   73.2965  226.4983 H   0  0  0  0  0  0  0  0  0  0  0  0
  1  2  2  0
  2  3  1  0
  3  4  1  0
  4  5  1  0
  5  6  2  0
  5  7  1  0
  7  8  1  0
  8  9  1  0
  9 10  1  0
 10 11  1  0
 11 12  1  0
 12 13  1  0
 13 14  2  0
 14 15  1  0
 15 16  2  0
 16 17  1  0
 17 18  2  0
  2 19  1  0
 19 20  2  0
 20 21  1  0
 21 22  2  0
 22 23  1  0
 23 24  1  0
 23 25  2  0
 25 26  1  0
 26 27  2  0
 27 28  1  0
 28 29  2  0
 12  7  1  0
 18 13  1  0
 29 19  1  0
 28 22  1  0
  3 30  1  0
  4 31  1  0
  4 32  1  0
  8 33  1  0
  8 34  1  0
  9 35  1  0
  9 36  1  0
 10 37  1  0
 10 38  1  0
 11 39  1  0
 11 40  1  0
 12 41  1  6
 14 42  1  0
 15 43  1  0
 16 44  1  0
 17 45  1  0
 18 46  1  0
 20 47  1  0
 21 48  1  0
 25 49  1  0
 26 50  1  0
 27 51  1  0
M  END
>  <smiles>  (41) 
O=C(NCC(=O)N1CCCC[C@H]1c1ccccc1)c1ccc2c(Cl)cccc2n1

>  <score_type>  (41) 
oracle

>  <origin>  (41) 
autodockgpu

>  <m_score__min__energy>  (41) 
-9.5199999999999996

>  <m_primary>  (41) 
energy

>  <rmsd>  (41) 
2.162161438942488

>  <m_score__min__rmsd>  (41) 
2.162161438942488

>  <meeko>  (41) 
{"free_energy": -7.96, "intermolecular_energy": -9.46, "internal_energy": -2.32, "cluster_size": 14, "cluster_id": 2, "rank_in_cluster": 13}

>  <energy>  (41) 
-7.55

>  <cluster_rmsd>  (41) 
0.0

>  <cluster>  (41) 
8

$$$$

     RDKit          3D

 51 54  0  0  0  0  0  0  0  0999 V2000
  136.6280   77.0990  222.0220 O   0  0  0  0  0  0  0  0  0  0  0  0
  136.9510   76.0030  222.5840 C   0  0  0  0  0  0  0  0  0  0  0  0
  138.1750   75.3410  222.3170 N   0  0  0  0  0  0  0  0  0  0  0  0
  139.0900   75.9330  221.3740 C   0  0  0  0  0  0  0  0  0  0  0  0
  140.4790   75.4190  221.5560 C   0  0  0  0  0  0  0  0  0  0  0  0
  140.6120   74.4360  222.3240 O   0  0  0  0  0  0  0  0  0  0  0  0
  141.5320   76.0610  220.8660 N   0  0  0  0  0  0  0  0  0  0  0  0
  142.5240   75.2580  220.1150 C   0  0  0  0  0  0  0  0  0  0  0  0
  142.6020   75.7540  218.6870 C   0  0  0  0  0  0  0  0  0  0  0  0
  142.5220   77.2340  218.5380 C   0  0  0  0  0  0  0  0  0  0  0  0
  141.4290   77.8870  219.3850 C   0  0  0  0  0  0  0  0  0  0  0  0
  141.7410   77.4900  220.8080 C   0  0  1  0  0  0  0  0  0  0  0  0
  141.0870   78.2780  221.8390 C   0  0  0  0  0  0  0  0  0  0  0  0
  139.8990   78.9410  221.6300 C   0  0  0  0  0  0  0  0  0  0  0  0
  139.2860   79.6840  222.6070 C   0  0  0  0  0  0  0  0  0  0  0  0
  139.8390   79.8030  223.8660 C   0  0  0  0  0  0  0  0  0  0  0  0
  141.0170   79.1560  224.1030 C   0  0  0  0  0  0  0  0  0  0  0  0
  141.6340   78.4090  223.1210 C   0  0  0  0  0  0  0  0  0  0  0  0
  136.0350   75.3720  223.5520 C   0  0  0  0  0  0  0  0  0  0  0  0
  135.8270   74.0060  223.5690 C   0  0  0  0  0  0  0  0  0  0  0  0
  134.9610   73.4110  224.4830 C   0  0  0  0  0  0  0  0  0  0  0  0
  134.2980   74.2030  225.3900 C   0  0  0  0  0  0  0  0  0  0  0  0
  133.4220   73.7250  226.3360 C   0  0  0  0  0  0  0  0  0  0  0  0
  133.1170   72.0050  226.4080 Cl  0  0  0  0  0  0  0  0  0  0  0  0
  132.7720   74.5520  227.2340 C   0  0  0  0  0  0  0  0  0  0  0  0
  132.9990   75.9180  227.1950 C   0  0  0  0  0  0  0  0  0  0  0  0
  133.8800   76.4230  226.2460 C   0  0  0  0  0  0  0  0  0  0  0  0
  134.5120   75.5650  225.3660 C   0  0  0  0  0  0  0  0  0  0  0  0
  135.3560   76.0930  224.4650 N   0  0  0  0  0  0  0  0  0  0  0  0
  138.4390   74.4420  222.7770 H   0  0  0  0  0  0  0  0  0  0  0  0
  138.7532   75.6966  220.3539 H   0  0  0  0  0  0  0  0  0  0  0  0
  139.1015   77.0198  221.5432 H   0  0  0  0  0  0  0  0  0  0  0  0
  143.5107   75.3564  220.5912 H   0  0  0  0  0  0  0  0  0  0  0  0
  142.2172   74.2017  220.1187 H   0  0  0  0  0  0  0  0  0  0  0  0
  143.5578   75.4175  218.2589 H   0  0  0  0  0  0  0  0  0  0  0  0
  141.7258   75.3410  218.1658 H   0  0  0  0  0  0  0  0  0  0  0  0
  143.4907   77.6640  218.8324 H   0  0  0  0  0  0  0  0  0  0  0  0
  142.2713   77.4345  217.4859 H   0  0  0  0  0  0  0  0  0  0  0  0
  141.4574   78.9811  219.2747 H   0  0  0  0  0  0  0  0  0  0  0  0
  140.4232   77.5635  219.0789 H   0  0  0  0  0  0  0  0  0  0  0  0
  142.7849   77.7290  221.0592 H   0  0  0  0  0  0  0  0  0  0  0  0
  139.4224   78.8725  220.6410 H   0  0  0  0  0  0  0  0  0  0  0  0
  138.3373   80.1937  222.3830 H   0  0  0  0  0  0  0  0  0  0  0  0
  139.3479   80.3979  224.6501 H   0  0  0  0  0  0  0  0  0  0  0  0
  141.4835   79.2316  225.0963 H   0  0  0  0  0  0  0  0  0  0  0  0
  142.5825   77.9020  223.3518 H   0  0  0  0  0  0  0  0  0  0  0  0
  136.3584   73.3732  222.8429 H   0  0  0  0  0  0  0  0  0  0  0  0
  134.8095   72.3215  224.4792 H   0  0  0  0  0  0  0  0  0  0  0  0
  132.0787   74.1275  227.9750 H   0  0  0  0  0  0  0  0  0  0  0  0
  132.4914   76.5906  227.9021 H   0  0  0  0  0  0  0  0  0  0  0  0
  134.0741   77.5046  226.1954 H   0  0  0  0  0  0  0  0  0  0  0  0
  1  2  2  0
  2  3  1  0
  3  4  1  0
  4  5  1  0
  5  6  2  0
  5  7  1  0
  7  8  1  0
  8  9  1  0
  9 10  1  0
 10 11  1  0
 11 12  1  0
 12 13  1  0
 13 14  2  0
 14 15  1  0
 15 16  2  0
 16 17  1  0
 17 18  2  0
  2 19  1  0
 19 20  2  0
 20 21  1  0
 21 22  2  0
 22 23  1  0
 23 24  1  0
 23 25  2  0
 25 26  1  0
 26 27  2  0
 27 28  1  0
 28 29  2  0
 12  7  1  0
 18 13  1  0
 29 19  1  0
 28 22  1  0
  3 30  1  0
  4 31  1  0
  4 32  1  0
  8 33  1  0
  8 34  1  0
  9 35  1  0
  9 36  1  0
 10 37  1  0
 10 38  1  0
 11 39  1  0
 11 40  1  0
 12 41  1  1
 14 42  1  0
 15 43  1  0
 16 44  1  0
 17 45  1  0
 18 46  1  0
 20 47  1  0
 21 48  1  0
 25 49  1  0
 26 50  1  0
 27 51  1  0
M  END
>  <smiles>  (42) 
O=C(NCC(=O)N1CCCC[C@H]1c1ccccc1)c1ccc2c(Cl)cccc2n1

>  <score_type>  (42) 
oracle

>  <origin>  (42) 
autodockgpu

>  <m_score__min__energy>  (42) 
-9.5199999999999996

>  <m_primary>  (42) 
energy

>  <rmsd>  (42) 
5.390758405258093

>  <m_score__min__rmsd>  (42) 
5.390758405258093

>  <meeko>  (42) 
{"free_energy": -7.75, "intermolecular_energy": -9.24, "internal_energy": -2.05, "cluster_size": 3, "cluster_id": 7, "rank_in_cluster": 3}

>  <energy>  (42) 
-7.54

>  <cluster_rmsd>  (42) 
0.13

>  <cluster>  (42) 
8

$$$$

     RDKit          3D

 51 54  0  0  0  0  0  0  0  0999 V2000
  139.5350   71.2340  221.1630 O   0  0  0  0  0  0  0  0  0  0  0  0
  139.6080   71.9440  222.2180 C   0  0  0  0  0  0  0  0  0  0  0  0
  139.4770   73.3550  222.1970 N   0  0  0  0  0  0  0  0  0  0  0  0
  139.2520   74.0100  220.9330 C   0  0  0  0  0  0  0  0  0  0  0  0
  140.3680   73.7590  219.9740 C   0  0  0  0  0  0  0  0  0  0  0  0
  140.0400   73.5790  218.7760 O   0  0  0  0  0  0  0  0  0  0  0  0
  141.6910   73.7400  220.4670 N   0  0  0  0  0  0  0  0  0  0  0  0
  142.3660   72.4480  220.7280 C   0  0  0  0  0  0  0  0  0  0  0  0
  143.6880   72.4080  219.9910 C   0  0  0  0  0  0  0  0  0  0  0  0
  144.4380   73.6950  219.9890 C   0  0  0  0  0  0  0  0  0  0  0  0
  143.5730   74.9200  219.6880 C   0  0  0  0  0  0  0  0  0  0  0  0
  142.4940   74.9100  220.7440 C   0  0  1  0  0  0  0  0  0  0  0  0
  141.7720   76.1590  220.9180 C   0  0  0  0  0  0  0  0  0  0  0  0
  141.0290   76.4400  222.0430 C   0  0  0  0  0  0  0  0  0  0  0  0
  140.3490   77.6210  222.2030 C   0  0  0  0  0  0  0  0  0  0  0  0
  140.3790   78.6000  221.2300 C   0  0  0  0  0  0  0  0  0  0  0  0
  141.1080   78.3490  220.1030 C   0  0  0  0  0  0  0  0  0  0  0  0
  141.7910   77.1610  219.9420 C   0  0  0  0  0  0  0  0  0  0  0  0
  139.8380   71.3030  223.5250 C   0  0  0  0  0  0  0  0  0  0  0  0
  139.5710   69.9630  223.7330 C   0  0  0  0  0  0  0  0  0  0  0  0
  139.7870   69.3580  224.9680 C   0  0  0  0  0  0  0  0  0  0  0  0
  140.2800   70.1140  226.0060 C   0  0  0  0  0  0  0  0  0  0  0  0
  140.5310   69.6220  227.2650 C   0  0  0  0  0  0  0  0  0  0  0  0
  140.2130   67.9340  227.5900 Cl  0  0  0  0  0  0  0  0  0  0  0  0
  141.0280   70.4130  228.2860 C   0  0  0  0  0  0  0  0  0  0  0  0
  141.2870   71.7520  228.0520 C   0  0  0  0  0  0  0  0  0  0  0  0
  141.0390   72.2700  226.7860 C   0  0  0  0  0  0  0  0  0  0  0  0
  140.5440   71.4500  225.7890 C   0  0  0  0  0  0  0  0  0  0  0  0
  140.3180   71.9880  224.5810 N   0  0  0  0  0  0  0  0  0  0  0  0
  139.5380   73.9370  223.0620 H   0  0  0  0  0  0  0  0  0  0  0  0
  138.3157   73.6314  220.4971 H   0  0  0  0  0  0  0  0  0  0  0  0
  139.1931   75.0934  221.1142 H   0  0  0  0  0  0  0  0  0  0  0  0
  142.5454   72.3402  221.8079 H   0  0  0  0  0  0  0  0  0  0  0  0
  141.7269   71.6243  220.3771 H   0  0  0  0  0  0  0  0  0  0  0  0
  144.3212   71.6430  220.4642 H   0  0  0  0  0  0  0  0  0  0  0  0
  143.4516   72.1842  218.9403 H   0  0  0  0  0  0  0  0  0  0  0  0
  144.8955   73.8300  220.9802 H   0  0  0  0  0  0  0  0  0  0  0  0
  145.1838   73.6269  219.1833 H   0  0  0  0  0  0  0  0  0  0  0  0
  144.1709   75.8408  219.7558 H   0  0  0  0  0  0  0  0  0  0  0  0
  143.1543   74.8886  218.6713 H   0  0  0  0  0  0  0  0  0  0  0  0
  142.9341   74.8358  221.7494 H   0  0  0  0  0  0  0  0  0  0  0  0
  140.9787   75.6884  222.8446 H   0  0  0  0  0  0  0  0  0  0  0  0
  139.7698   77.7907  223.1226 H   0  0  0  0  0  0  0  0  0  0  0  0
  139.8354   79.5477  221.3580 H   0  0  0  0  0  0  0  0  0  0  0  0
  141.1516   79.1084  219.3084 H   0  0  0  0  0  0  0  0  0  0  0  0
  142.3672   76.9970  219.0194 H   0  0  0  0  0  0  0  0  0  0  0  0
  139.1779   69.3593  222.9017 H   0  0  0  0  0  0  0  0  0  0  0  0
  139.5664   68.2900  225.1118 H   0  0  0  0  0  0  0  0  0  0  0  0
  141.2163   69.9792  229.2792 H   0  0  0  0  0  0  0  0  0  0  0  0
  141.6818   72.3946  228.8528 H   0  0  0  0  0  0  0  0  0  0  0  0
  141.2365   73.3319  226.5776 H   0  0  0  0  0  0  0  0  0  0  0  0
  1  2  2  0
  2  3  1  0
  3  4  1  0
  4  5  1  0
  5  6  2  0
  5  7  1  0
  7  8  1  0
  8  9  1  0
  9 10  1  0
 10 11  1  0
 11 12  1  0
 12 13  1  0
 13 14  2  0
 14 15  1  0
 15 16  2  0
 16 17  1  0
 17 18  2  0
  2 19  1  0
 19 20  2  0
 20 21  1  0
 21 22  2  0
 22 23  1  0
 23 24  1  0
 23 25  2  0
 25 26  1  0
 26 27  2  0
 27 28  1  0
 28 29  2  0
 12  7  1  0
 18 13  1  0
 29 19  1  0
 28 22  1  0
  3 30  1  0
  4 31  1  0
  4 32  1  0
  8 33  1  0
  8 34  1  0
  9 35  1  0
  9 36  1  0
 10 37  1  0
 10 38  1  0
 11 39  1  0
 11 40  1  0
 12 41  1  1
 14 42  1  0
 15 43  1  0
 16 44  1  0
 17 45  1  0
 18 46  1  0
 20 47  1  0
 21 48  1  0
 25 49  1  0
 26 50  1  0
 27 51  1  0
M  END
>  <smiles>  (43) 
O=C(NCC(=O)N1CCCC[C@H]1c1ccccc1)c1ccc2c(Cl)cccc2n1

>  <score_type>  (43) 
oracle

>  <origin>  (43) 
autodockgpu

>  <m_score__min__energy>  (43) 
-9.5199999999999996

>  <m_primary>  (43) 
energy

>  <rmsd>  (43) 
2.822789830837949

>  <m_score__min__rmsd>  (43) 
2.822789830837949

>  <meeko>  (43) 
{"free_energy": -8.13, "intermolecular_energy": -9.62, "internal_energy": -1.93, "cluster_size": 18, "cluster_id": 1, "rank_in_cluster": 17}

>  <energy>  (43) 
-7.53

>  <cluster_rmsd>  (43) 
0.06

>  <cluster>  (43) 
8

$$$$

     RDKit          3D

 51 54  0  0  0  0  0  0  0  0999 V2000
  139.0710   74.4980  221.5640 O   0  0  0  0  0  0  0  0  0  0  0  0
  140.1200   75.1790  221.8070 C   0  0  0  0  0  0  0  0  0  0  0  0
  141.4250   74.6620  221.6160 N   0  0  0  0  0  0  0  0  0  0  0  0
  141.5710   73.3140  221.1290 C   0  0  0  0  0  0  0  0  0  0  0  0
  141.4350   73.2450  219.6440 C   0  0  0  0  0  0  0  0  0  0  0  0
  140.9740   72.1760  219.1770 O   0  0  0  0  0  0  0  0  0  0  0  0
  141.8280   74.3640  218.8780 N   0  0  0  0  0  0  0  0  0  0  0  0
  140.8630   75.0100  217.9600 C   0  0  0  0  0  0  0  0  0  0  0  0
  140.7790   76.4890  218.2690 C   0  0  0  0  0  0  0  0  0  0  0  0
  142.0810   77.1280  218.6080 C   0  0  0  0  0  0  0  0  0  0  0  0
  142.9390   76.3170  219.5800 C   0  0  0  0  0  0  0  0  0  0  0  0
  143.1360   74.9790  218.9110 C   0  0  1  0  0  0  0  0  0  0  0  0
  144.2170   74.1640  219.4400 C   0  0  0  0  0  0  0  0  0  0  0  0
  144.6040   72.9740  218.8650 C   0  0  0  0  0  0  0  0  0  0  0  0
  145.6250   72.2070  219.3680 C   0  0  0  0  0  0  0  0  0  0  0  0
  146.3250   72.5990  220.4910 C   0  0  0  0  0  0  0  0  0  0  0  0
  145.9640   73.7760  221.0820 C   0  0  0  0  0  0  0  0  0  0  0  0
  144.9370   74.5460  220.5770 C   0  0  0  0  0  0  0  0  0  0  0  0
  140.0030   76.5610  222.3070 C   0  0  0  0  0  0  0  0  0  0  0  0
  138.7770   77.1190  222.6170 C   0  0  0  0  0  0  0  0  0  0  0  0
  138.6680   78.4250  223.0880 C   0  0  0  0  0  0  0  0  0  0  0  0
  139.8080   79.1750  223.2500 C   0  0  0  0  0  0  0  0  0  0  0  0
  139.8180   80.4720  223.7080 C   0  0  0  0  0  0  0  0  0  0  0  0
  138.2990   81.2340  224.1160 Cl  0  0  0  0  0  0  0  0  0  0  0  0
  140.9860   81.1980  223.8580 C   0  0  0  0  0  0  0  0  0  0  0  0
  142.2010   80.6150  223.5410 C   0  0  0  0  0  0  0  0  0  0  0  0
  142.2140   79.3050  223.0760 C   0  0  0  0  0  0  0  0  0  0  0  0
  141.0270   78.6100  222.9390 C   0  0  0  0  0  0  0  0  0  0  0  0
  141.0820   77.3470  222.4870 N   0  0  0  0  0  0  0  0  0  0  0  0
  142.2850   75.2200  221.8160 H   0  0  0  0  0  0  0  0  0  0  0  0
  142.5647   72.9379  221.4137 H   0  0  0  0  0  0  0  0  0  0  0  0
  140.7743   72.7004  221.5749 H   0  0  0  0  0  0  0  0  0  0  0  0
  141.1973   74.8716  216.9212 H   0  0  0  0  0  0  0  0  0  0  0  0
  139.8713   74.5527  218.0922 H   0  0  0  0  0  0  0  0  0  0  0  0
  140.3654   77.0005  217.3873 H   0  0  0  0  0  0  0  0  0  0  0  0
  140.1437   76.5847  219.1619 H   0  0  0  0  0  0  0  0  0  0  0  0
  142.6506   77.2669  217.6773 H   0  0  0  0  0  0  0  0  0  0  0  0
  141.8472   78.0793  219.1083 H   0  0  0  0  0  0  0  0  0  0  0  0
  143.9073   76.8120  219.7454 H   0  0  0  0  0  0  0  0  0  0  0  0
  142.4615   76.2177  220.5659 H   0  0  0  0  0  0  0  0  0  0  0  0
  143.5165   75.1086  217.8871 H   0  0  0  0  0  0  0  0  0  0  0  0
  144.0738   72.6243  217.9669 H   0  0  0  0  0  0  0  0  0  0  0  0
  145.8899   71.2639  218.8676 H   0  0  0  0  0  0  0  0  0  0  0  0
  147.1438   71.9857  220.8953 H   0  0  0  0  0  0  0  0  0  0  0  0
  146.5028   74.1167  221.9784 H   0  0  0  0  0  0  0  0  0  0  0  0
  144.6767   75.4875  221.0828 H   0  0  0  0  0  0  0  0  0  0  0  0
  137.8654   76.5169  222.4886 H   0  0  0  0  0  0  0  0  0  0  0  0
  137.6823   78.8506  223.3272 H   0  0  0  0  0  0  0  0  0  0  0  0
  140.9495   82.2335  224.2274 H   0  0  0  0  0  0  0  0  0  0  0  0
  143.1390   81.1781  223.6550 H   0  0  0  0  0  0  0  0  0  0  0  0
  143.1678   78.8220  222.8174 H   0  0  0  0  0  0  0  0  0  0  0  0
  1  2  2  0
  2  3  1  0
  3  4  1  0
  4  5  1  0
  5  6  2  0
  5  7  1  0
  7  8  1  0
  8  9  1  0
  9 10  1  0
 10 11  1  0
 11 12  1  0
 12 13  1  0
 13 14  2  0
 14 15  1  0
 15 16  2  0
 16 17  1  0
 17 18  2  0
  2 19  1  0
 19 20  2  0
 20 21  1  0
 21 22  2  0
 22 23  1  0
 23 24  1  0
 23 25  2  0
 25 26  1  0
 26 27  2  0
 27 28  1  0
 28 29  2  0
 12  7  1  0
 18 13  1  0
 29 19  1  0
 28 22  1  0
  3 30  1  0
  4 31  1  0
  4 32  1  0
  8 33  1  0
  8 34  1  0
  9 35  1  0
  9 36  1  0
 10 37  1  0
 10 38  1  0
 11 39  1  0
 11 40  1  0
 12 41  1  6
 14 42  1  0
 15 43  1  0
 16 44  1  0
 17 45  1  0
 18 46  1  0
 20 47  1  0
 21 48  1  0
 25 49  1  0
 26 50  1  0
 27 51  1  0
M  END
>  <smiles>  (44) 
O=C(NCC(=O)N1CCCC[C@H]1c1ccccc1)c1ccc2c(Cl)cccc2n1

>  <score_type>  (44) 
oracle

>  <origin>  (44) 
autodockgpu

>  <m_score__min__energy>  (44) 
-9.5199999999999996

>  <m_primary>  (44) 
energy

>  <rmsd>  (44) 
6.56366312516952

>  <m_score__min__rmsd>  (44) 
6.56366312516952

>  <meeko>  (44) 
{"free_energy": -7.54, "intermolecular_energy": -9.03, "internal_energy": -2.47, "cluster_size": 6, "cluster_id": 8, "rank_in_cluster": 2}

>  <energy>  (44) 
-7.46

>  <cluster_rmsd>  (44) 
0.15

>  <cluster>  (44) 
8

$$$$

     RDKit          3D

 51 54  0  0  0  0  0  0  0  0999 V2000
  140.8270   71.9380  221.1060 O   0  0  0  0  0  0  0  0  0  0  0  0
  140.2410   72.3500  222.1590 C   0  0  0  0  0  0  0  0  0  0  0  0
  139.6190   73.6200  222.2370 N   0  0  0  0  0  0  0  0  0  0  0  0
  139.6490   74.4780  221.0800 C   0  0  0  0  0  0  0  0  0  0  0  0
  140.9890   75.1090  220.8950 C   0  0  0  0  0  0  0  0  0  0  0  0
  141.6710   75.2790  221.9340 O   0  0  0  0  0  0  0  0  0  0  0  0
  141.3930   75.4660  219.5890 N   0  0  0  0  0  0  0  0  0  0  0  0
  140.4100   76.0370  218.6400 C   0  0  0  0  0  0  0  0  0  0  0  0
  140.9320   77.3500  218.0990 C   0  0  0  0  0  0  0  0  0  0  0  0
  142.3930   77.3700  217.8150 C   0  0  0  0  0  0  0  0  0  0  0  0
  143.2500   76.7450  218.9170 C   0  0  0  0  0  0  0  0  0  0  0  0
  142.7340   75.3350  219.0670 C   0  0  1  0  0  0  0  0  0  0  0  0
  143.6110   74.4150  219.7710 C   0  0  0  0  0  0  0  0  0  0  0  0
  143.3900   73.0560  219.8120 C   0  0  0  0  0  0  0  0  0  0  0  0
  144.2210   72.1920  220.4780 C   0  0  0  0  0  0  0  0  0  0  0  0
  145.3380   72.6490  221.1480 C   0  0  0  0  0  0  0  0  0  0  0  0
  145.5840   73.9920  221.1250 C   0  0  0  0  0  0  0  0  0  0  0  0
  144.7480   74.8610  220.4560 C   0  0  0  0  0  0  0  0  0  0  0  0
  140.1940   71.4950  223.3600 C   0  0  0  0  0  0  0  0  0  0  0  0
  139.7240   70.1960  223.3080 C   0  0  0  0  0  0  0  0  0  0  0  0
  139.6780   69.3910  224.4420 C   0  0  0  0  0  0  0  0  0  0  0  0
  140.1120   69.9010  225.6430 C   0  0  0  0  0  0  0  0  0  0  0  0
  140.1120   69.1960  226.8240 C   0  0  0  0  0  0  0  0  0  0  0  0
  139.5290   67.5480  226.8220 Cl  0  0  0  0  0  0  0  0  0  0  0  0
  140.5560   69.7420  228.0150 C   0  0  0  0  0  0  0  0  0  0  0  0
  141.0210   71.0460  228.0400 C   0  0  0  0  0  0  0  0  0  0  0  0
  141.0290   71.7760  226.8570 C   0  0  0  0  0  0  0  0  0  0  0  0
  140.5780   71.1970  225.6860 C   0  0  0  0  0  0  0  0  0  0  0  0
  140.6030   71.9360  224.5650 N   0  0  0  0  0  0  0  0  0  0  0  0
  139.1390   73.9580  223.1010 H   0  0  0  0  0  0  0  0  0  0  0  0
  139.4097   73.8813  220.1874 H   0  0  0  0  0  0  0  0  0  0  0  0
  138.9102   75.2794  221.2282 H   0  0  0  0  0  0  0  0  0  0  0  0
  140.2532   75.3345  217.8082 H   0  0  0  0  0  0  0  0  0  0  0  0
  139.4564   76.2092  219.1606 H   0  0  0  0  0  0  0  0  0  0  0  0
  140.3982   77.5712  217.1630 H   0  0  0  0  0  0  0  0  0  0  0  0
  140.7584   78.1002  218.8846 H   0  0  0  0  0  0  0  0  0  0  0  0
  142.5715   76.8157  216.8818 H   0  0  0  0  0  0  0  0  0  0  0  0
  142.6886   78.4271  217.7432 H   0  0  0  0  0  0  0  0  0  0  0  0
  144.3103   76.7387  218.6244 H   0  0  0  0  0  0  0  0  0  0  0  0
  143.1845   77.3094  219.8589 H   0  0  0  0  0  0  0  0  0  0  0  0
  142.7112   74.8237  218.0933 H   0  0  0  0  0  0  0  0  0  0  0  0
  142.5122   72.6476  219.2898 H   0  0  0  0  0  0  0  0  0  0  0  0
  143.9934   71.1158  220.4783 H   0  0  0  0  0  0  0  0  0  0  0  0
  146.0058   71.9564  221.6812 H   0  0  0  0  0  0  0  0  0  0  0  0
  146.4657   74.3881  221.6501 H   0  0  0  0  0  0  0  0  0  0  0  0
  144.9811   75.9360  220.4606 H   0  0  0  0  0  0  0  0  0  0  0  0
  139.3779   69.7888  222.3466 H   0  0  0  0  0  0  0  0  0  0  0  0
  139.2994   68.3601  224.3786 H   0  0  0  0  0  0  0  0  0  0  0  0
  140.5397   69.1432  228.9376 H   0  0  0  0  0  0  0  0  0  0  0  0
  141.3774   71.4959  228.9784 H   0  0  0  0  0  0  0  0  0  0  0  0
  141.3940   72.8137  226.8530 H   0  0  0  0  0  0  0  0  0  0  0  0
  1  2  2  0
  2  3  1  0
  3  4  1  0
  4  5  1  0
  5  6  2  0
  5  7  1  0
  7  8  1  0
  8  9  1  0
  9 10  1  0
 10 11  1  0
 11 12  1  0
 12 13  1  0
 13 14  2  0
 14 15  1  0
 15 16  2  0
 16 17  1  0
 17 18  2  0
  2 19  1  0
 19 20  2  0
 20 21  1  0
 21 22  2  0
 22 23  1  0
 23 24  1  0
 23 25  2  0
 25 26  1  0
 26 27  2  0
 27 28  1  0
 28 29  2  0
 12  7  1  0
 18 13  1  0
 29 19  1  0
 28 22  1  0
  3 30  1  0
  4 31  1  0
  4 32  1  0
  8 33  1  0
  8 34  1  0
  9 35  1  0
  9 36  1  0
 10 37  1  0
 10 38  1  0
 11 39  1  0
 11 40  1  0
 12 41  1  6
 14 42  1  0
 15 43  1  0
 16 44  1  0
 17 45  1  0
 18 46  1  0
 20 47  1  0
 21 48  1  0
 25 49  1  0
 26 50  1  0
 27 51  1  0
M  END
>  <smiles>  (45) 
O=C(NCC(=O)N1CCCC[C@H]1c1ccccc1)c1ccc2c(Cl)cccc2n1

>  <score_type>  (45) 
oracle

>  <origin>  (45) 
autodockgpu

>  <m_score__min__energy>  (45) 
-9.5199999999999996

>  <m_primary>  (45) 
energy

>  <rmsd>  (45) 
1.8394963125949155

>  <m_score__min__rmsd>  (45) 
1.8394963125949155

>  <meeko>  (45) 
{"free_energy": -8.84, "intermolecular_energy": -10.33, "internal_energy": -1.85, "cluster_size": 14, "cluster_id": 2, "rank_in_cluster": 4}

>  <energy>  (45) 
-7.46

>  <cluster_rmsd>  (45) 
0.15

>  <cluster>  (45) 
8

$$$$

     RDKit          3D

 51 54  0  0  0  0  0  0  0  0999 V2000
  139.9200   71.9870  220.8790 O   0  0  0  0  0  0  0  0  0  0  0  0
  139.8120   72.4510  222.0600 C   0  0  0  0  0  0  0  0  0  0  0  0
  139.6140   73.8290  222.3220 N   0  0  0  0  0  0  0  0  0  0  0  0
  139.5290   74.7400  221.2080 C   0  0  0  0  0  0  0  0  0  0  0  0
  140.7940   75.5120  221.0290 C   0  0  0  0  0  0  0  0  0  0  0  0
  141.4210   75.8010  222.0770 O   0  0  0  0  0  0  0  0  0  0  0  0
  141.1930   75.8600  219.7200 N   0  0  0  0  0  0  0  0  0  0  0  0
  140.2860   76.6460  218.8530 C   0  0  0  0  0  0  0  0  0  0  0  0
  141.0100   77.8730  218.3410 C   0  0  0  0  0  0  0  0  0  0  0  0
  142.4360   77.6460  217.9770 C   0  0  0  0  0  0  0  0  0  0  0  0
  143.2170   76.8220  219.0010 C   0  0  0  0  0  0  0  0  0  0  0  0
  142.4620   75.5200  219.1180 C   0  0  1  0  0  0  0  0  0  0  0  0
  143.1910   74.4220  219.7300 C   0  0  0  0  0  0  0  0  0  0  0  0
  144.4540   74.5690  220.2600 C   0  0  0  0  0  0  0  0  0  0  0  0
  145.1380   73.5290  220.8380 C   0  0  0  0  0  0  0  0  0  0  0  0
  144.5840   72.2670  220.9180 C   0  0  0  0  0  0  0  0  0  0  0  0
  143.3330   72.0920  220.4020 C   0  0  0  0  0  0  0  0  0  0  0  0
  142.6450   73.1370  219.8210 C   0  0  0  0  0  0  0  0  0  0  0  0
  139.8950   71.5440  223.2200 C   0  0  0  0  0  0  0  0  0  0  0  0
  139.4900   70.2250  223.1390 C   0  0  0  0  0  0  0  0  0  0  0  0
  139.5670   69.3700  224.2350 C   0  0  0  0  0  0  0  0  0  0  0  0
  140.0590   69.8500  225.4250 C   0  0  0  0  0  0  0  0  0  0  0  0
  140.1800   69.0970  226.5690 C   0  0  0  0  0  0  0  0  0  0  0  0
  139.6840   67.4210  226.5320 Cl  0  0  0  0  0  0  0  0  0  0  0  0
  140.6810   69.6140  227.7510 C   0  0  0  0  0  0  0  0  0  0  0  0
  141.0790   70.9390  227.8040 C   0  0  0  0  0  0  0  0  0  0  0  0
  140.9650   71.7190  226.6590 C   0  0  0  0  0  0  0  0  0  0  0  0
  140.4610   71.1670  225.4960 C   0  0  0  0  0  0  0  0  0  0  0  0
  140.3670   71.9540  224.4120 N   0  0  0  0  0  0  0  0  0  0  0  0
  139.5260   74.2090  223.2900 H   0  0  0  0  0  0  0  0  0  0  0  0
  139.3294   74.1651  220.2917 H   0  0  0  0  0  0  0  0  0  0  0  0
  138.7169   75.4540  221.4098 H   0  0  0  0  0  0  0  0  0  0  0  0
  139.9664   76.0275  218.0013 H   0  0  0  0  0  0  0  0  0  0  0  0
  139.4048   76.9573  219.4331 H   0  0  0  0  0  0  0  0  0  0  0  0
  140.4813   78.2349  217.4468 H   0  0  0  0  0  0  0  0  0  0  0  0
  141.0114   78.6004  219.1661 H   0  0  0  0  0  0  0  0  0  0  0  0
  142.4667   77.1179  217.0126 H   0  0  0  0  0  0  0  0  0  0  0  0
  142.9143   78.6356  217.9343 H   0  0  0  0  0  0  0  0  0  0  0  0
  144.2438   76.6425  218.6497 H   0  0  0  0  0  0  0  0  0  0  0  0
  143.2992   77.3386  219.9687 H   0  0  0  0  0  0  0  0  0  0  0  0
  142.3006   75.0734  218.1258 H   0  0  0  0  0  0  0  0  0  0  0  0
  144.9329   75.5584  220.2183 H   0  0  0  0  0  0  0  0  0  0  0  0
  146.1450   73.7040  221.2445 H   0  0  0  0  0  0  0  0  0  0  0  0
  145.1313   71.4327  221.3810 H   0  0  0  0  0  0  0  0  0  0  0  0
  142.8639   71.0982  220.4503 H   0  0  0  0  0  0  0  0  0  0  0  0
  141.6380   72.9548  219.4176 H   0  0  0  0  0  0  0  0  0  0  0  0
  139.0974   69.8416  222.1857 H   0  0  0  0  0  0  0  0  0  0  0  0
  139.2383   68.3238  224.1496 H   0  0  0  0  0  0  0  0  0  0  0  0
  140.7625   68.9758  228.6433 H   0  0  0  0  0  0  0  0  0  0  0  0
  141.4782   71.3668  228.7354 H   0  0  0  0  0  0  0  0  0  0  0  0
  141.2754   72.7741  226.6783 H   0  0  0  0  0  0  0  0  0  0  0  0
  1  2  2  0
  2  3  1  0
  3  4  1  0
  4  5  1  0
  5  6  2  0
  5  7  1  0
  7  8  1  0
  8  9  1  0
  9 10  1  0
 10 11  1  0
 11 12  1  0
 12 13  1  0
 13 14  2  0
 14 15  1  0
 15 16  2  0
 16 17  1  0
 17 18  2  0
  2 19  1  0
 19 20  2  0
 20 21  1  0
 21 22  2  0
 22 23  1  0
 23 24  1  0
 23 25  2  0
 25 26  1  0
 26 27  2  0
 27 28  1  0
 28 29  2  0
 12  7  1  0
 18 13  1  0
 29 19  1  0
 28 22  1  0
  3 30  1  0
  4 31  1  0
  4 32  1  0
  8 33  1  0
  8 34  1  0
  9 35  1  0
  9 36  1  0
 10 37  1  0
 10 38  1  0
 11 39  1  0
 11 40  1  0
 12 41  1  6
 14 42  1  0
 15 43  1  0
 16 44  1  0
 17 45  1  0
 18 46  1  0
 20 47  1  0
 21 48  1  0
 25 49  1  0
 26 50  1  0
 27 51  1  0
M  END
>  <smiles>  (46) 
O=C(NCC(=O)N1CCCC[C@H]1c1ccccc1)c1ccc2c(Cl)cccc2n1

>  <score_type>  (46) 
oracle

>  <origin>  (46) 
autodockgpu

>  <m_score__min__energy>  (46) 
-9.5199999999999996

>  <m_primary>  (46) 
energy

>  <rmsd>  (46) 
1.8665541558692416

>  <m_score__min__rmsd>  (46) 
1.8665541558692416

>  <meeko>  (46) 
{"free_energy": -8.56, "intermolecular_energy": -10.05, "internal_energy": -2.06, "cluster_size": 14, "cluster_id": 2, "rank_in_cluster": 7}

>  <energy>  (46) 
-7.4

>  <cluster_rmsd>  (46) 
1.06

>  <cluster>  (46) 
8

$$$$

     RDKit          3D

 51 54  0  0  0  0  0  0  0  0999 V2000
  140.2730   74.0110  222.1110 O   0  0  0  0  0  0  0  0  0  0  0  0
  140.0860   75.0300  221.3710 C   0  0  0  0  0  0  0  0  0  0  0  0
  139.9750   74.9390  219.9610 N   0  0  0  0  0  0  0  0  0  0  0  0
  140.0760   73.6420  219.3420 C   0  0  0  0  0  0  0  0  0  0  0  0
  141.4650   73.3590  218.8740 C   0  0  0  0  0  0  0  0  0  0  0  0
  141.5920   73.0530  217.6640 O   0  0  0  0  0  0  0  0  0  0  0  0
  142.5230   73.4540  219.8040 N   0  0  0  0  0  0  0  0  0  0  0  0
  142.6630   72.4400  220.8740 C   0  0  0  0  0  0  0  0  0  0  0  0
  144.0570   71.8510  220.8370 C   0  0  0  0  0  0  0  0  0  0  0  0
  145.1390   72.8330  220.5460 C   0  0  0  0  0  0  0  0  0  0  0  0
  144.8170   73.7930  219.4000 C   0  0  0  0  0  0  0  0  0  0  0  0
  143.5390   74.4830  219.8090 C   0  0  1  0  0  0  0  0  0  0  0  0
  143.2220   75.7030  219.0860 C   0  0  0  0  0  0  0  0  0  0  0  0
  143.4560   75.8520  217.7370 C   0  0  0  0  0  0  0  0  0  0  0  0
  143.1550   77.0060  217.0580 C   0  0  0  0  0  0  0  0  0  0  0  0
  142.5930   78.0880  217.7040 C   0  0  0  0  0  0  0  0  0  0  0  0
  142.3490   77.9690  219.0420 C   0  0  0  0  0  0  0  0  0  0  0  0
  142.6520   76.8100  219.7250 C   0  0  0  0  0  0  0  0  0  0  0  0
  139.9800   76.3720  221.9750 C   0  0  0  0  0  0  0  0  0  0  0  0
  138.7610   76.9000  222.3570 C   0  0  0  0  0  0  0  0  0  0  0  0
  138.6610   78.1660  222.9250 C   0  0  0  0  0  0  0  0  0  0  0  0
  139.8020   78.9080  223.1120 C   0  0  0  0  0  0  0  0  0  0  0  0
  139.8210   80.1680  223.6630 C   0  0  0  0  0  0  0  0  0  0  0  0
  138.3110   80.8910  224.1660 Cl  0  0  0  0  0  0  0  0  0  0  0  0
  140.9910   80.8860  223.8360 C   0  0  0  0  0  0  0  0  0  0  0  0
  142.1990   80.3340  223.4440 C   0  0  0  0  0  0  0  0  0  0  0  0
  142.2020   79.0620  222.8840 C   0  0  0  0  0  0  0  0  0  0  0  0
  141.0140   78.3740  222.7280 C   0  0  0  0  0  0  0  0  0  0  0  0
  141.0610   77.1480  222.1830 N   0  0  0  0  0  0  0  0  0  0  0  0
  139.8220   75.7750  219.3550 H   0  0  0  0  0  0  0  0  0  0  0  0
  139.7832   72.8744  220.0734 H   0  0  0  0  0  0  0  0  0  0  0  0
  139.4101   73.6276  218.4666 H   0  0  0  0  0  0  0  0  0  0  0  0
  142.4917   72.9138  221.8519 H   0  0  0  0  0  0  0  0  0  0  0  0
  141.9244   71.6400  220.7177 H   0  0  0  0  0  0  0  0  0  0  0  0
  144.2625   71.3947  221.8166 H   0  0  0  0  0  0  0  0  0  0  0  0
  144.0660   71.1243  220.0113 H   0  0  0  0  0  0  0  0  0  0  0  0
  145.3203   73.4269  221.4540 H   0  0  0  0  0  0  0  0  0  0  0  0
  146.0204   72.2524  220.2362 H   0  0  0  0  0  0  0  0  0  0  0  0
  145.6271   74.5260  219.2717 H   0  0  0  0  0  0  0  0  0  0  0  0
  144.7108   73.2663  218.4401 H   0  0  0  0  0  0  0  0  0  0  0  0
  143.6353   74.9129  220.8169 H   0  0  0  0  0  0  0  0  0  0  0  0
  143.9016   75.0132  217.1821 H   0  0  0  0  0  0  0  0  0  0  0  0
  143.3654   77.0695  215.9802 H   0  0  0  0  0  0  0  0  0  0  0  0
  142.3503   79.0131  217.1606 H   0  0  0  0  0  0  0  0  0  0  0  0
  141.9020   78.8142  219.5859 H   0  0  0  0  0  0  0  0  0  0  0  0
  142.4396   76.7539  220.8029 H   0  0  0  0  0  0  0  0  0  0  0  0
  137.8480   76.3048  222.2083 H   0  0  0  0  0  0  0  0  0  0  0  0
  137.6807   78.5679  223.2207 H   0  0  0  0  0  0  0  0  0  0  0  0
  140.9617   81.8907  224.2829 H   0  0  0  0  0  0  0  0  0  0  0  0
  143.1383   80.8916  223.5734 H   0  0  0  0  0  0  0  0  0  0  0  0
  143.1496   78.6033  222.5652 H   0  0  0  0  0  0  0  0  0  0  0  0
  1  2  2  0
  2  3  1  0
  3  4  1  0
  4  5  1  0
  5  6  2  0
  5  7  1  0
  7  8  1  0
  8  9  1  0
  9 10  1  0
 10 11  1  0
 11 12  1  0
 12 13  1  0
 13 14  2  0
 14 15  1  0
 15 16  2  0
 16 17  1  0
 17 18  2  0
  2 19  1  0
 19 20  2  0
 20 21  1  0
 21 22  2  0
 22 23  1  0
 23 24  1  0
 23 25  2  0
 25 26  1  0
 26 27  2  0
 27 28  1  0
 28 29  2  0
 12  7  1  0
 18 13  1  0
 29 19  1  0
 28 22  1  0
  3 30  1  0
  4 31  1  0
  4 32  1  0
  8 33  1  0
  8 34  1  0
  9 35  1  0
  9 36  1  0
 10 37  1  0
 10 38  1  0
 11 39  1  0
 11 40  1  0
 12 41  1  1
 14 42  1  0
 15 43  1  0
 16 44  1  0
 17 45  1  0
 18 46  1  0
 20 47  1  0
 21 48  1  0
 25 49  1  0
 26 50  1  0
 27 51  1  0
M  END
>  <smiles>  (47) 
O=C(NCC(=O)N1CCCC[C@H]1c1ccccc1)c1ccc2c(Cl)cccc2n1

>  <score_type>  (47) 
oracle

>  <origin>  (47) 
autodockgpu

>  <m_score__min__energy>  (47) 
-9.5199999999999996

>  <m_primary>  (47) 
energy

>  <rmsd>  (47) 
6.937411771110164

>  <m_score__min__rmsd>  (47) 
6.937411771110164

>  <meeko>  (47) 
{"free_energy": -7.48, "intermolecular_energy": -8.97, "internal_energy": -2.38, "cluster_size": 4, "cluster_id": 9, "rank_in_cluster": 1}

>  <energy>  (47) 
-7.48

>  <cluster_rmsd>  (47) 
0.0

>  <cluster>  (47) 
9

$$$$

     RDKit          3D

 51 54  0  0  0  0  0  0  0  0999 V2000
  136.7050   77.4580  222.4470 O   0  0  0  0  0  0  0  0  0  0  0  0
  136.9070   76.2650  222.8450 C   0  0  0  0  0  0  0  0  0  0  0  0
  138.0210   75.4980  222.4220 N   0  0  0  0  0  0  0  0  0  0  0  0
  138.9610   76.0920  221.5060 C   0  0  0  0  0  0  0  0  0  0  0  0
  140.2990   75.4350  221.5840 C   0  0  0  0  0  0  0  0  0  0  0  0
  140.3690   74.3990  222.2880 O   0  0  0  0  0  0  0  0  0  0  0  0
  141.3770   76.0110  220.8760 N   0  0  0  0  0  0  0  0  0  0  0  0
  142.3070   75.1490  220.1110 C   0  0  0  0  0  0  0  0  0  0  0  0
  142.3920   75.6370  218.6810 C   0  0  0  0  0  0  0  0  0  0  0  0
  142.3980   77.1180  218.5290 C   0  0  0  0  0  0  0  0  0  0  0  0
  141.3590   77.8370  219.3910 C   0  0  0  0  0  0  0  0  0  0  0  0
  141.6690   77.4250  220.8090 C   0  0  1  0  0  0  0  0  0  0  0  0
  141.0810   78.2530  221.8490 C   0  0  0  0  0  0  0  0  0  0  0  0
  141.5560   78.2780  223.1410 C   0  0  0  0  0  0  0  0  0  0  0  0
  140.9970   79.0620  224.1190 C   0  0  0  0  0  0  0  0  0  0  0  0
  139.9160   79.8760  223.8500 C   0  0  0  0  0  0  0  0  0  0  0  0
  139.4230   79.8730  222.5760 C   0  0  0  0  0  0  0  0  0  0  0  0
  139.9840   79.0850  221.5930 C   0  0  0  0  0  0  0  0  0  0  0  0
  135.9620   75.6290  223.7820 C   0  0  0  0  0  0  0  0  0  0  0  0
  135.8200   74.2560  223.8490 C   0  0  0  0  0  0  0  0  0  0  0  0
  134.9270   73.6570  224.7320 C   0  0  0  0  0  0  0  0  0  0  0  0
  134.1680   74.4510  225.5580 C   0  0  0  0  0  0  0  0  0  0  0  0
  133.2570   73.9680  226.4670 C   0  0  0  0  0  0  0  0  0  0  0  0
  133.0320   72.2390  226.5990 Cl  0  0  0  0  0  0  0  0  0  0  0  0
  132.5100   74.7990  227.2840 C   0  0  0  0  0  0  0  0  0  0  0  0
  132.6710   76.1710  227.1970 C   0  0  0  0  0  0  0  0  0  0  0  0
  133.5870   76.6810  226.2840 C   0  0  0  0  0  0  0  0  0  0  0  0
  134.3160   75.8200  225.4850 C   0  0  0  0  0  0  0  0  0  0  0  0
  135.1910   76.3520  224.6170 N   0  0  0  0  0  0  0  0  0  0  0  0
  138.1850   74.5200  222.7480 H   0  0  0  0  0  0  0  0  0  0  0  0
  138.5732   75.9904  220.4816 H   0  0  0  0  0  0  0  0  0  0  0  0
  139.0827   77.1508  221.7785 H   0  0  0  0  0  0  0  0  0  0  0  0
  143.3053   75.1888  220.5712 H   0  0  0  0  0  0  0  0  0  0  0  0
  141.9373   74.1131  220.1219 H   0  0  0  0  0  0  0  0  0  0  0  0
  143.3192   75.2433  218.2390 H   0  0  0  0  0  0  0  0  0  0  0  0
  141.4845   75.2762  218.1748 H   0  0  0  0  0  0  0  0  0  0  0  0
  143.3951   77.4900  218.8071 H   0  0  0  0  0  0  0  0  0  0  0  0
  142.1432   77.3309  217.4803 H   0  0  0  0  0  0  0  0  0  0  0  0
  141.4509   78.9272  219.2771 H   0  0  0  0  0  0  0  0  0  0  0  0
  140.3310   77.5737  219.1015 H   0  0  0  0  0  0  0  0  0  0  0  0
  142.7295   77.6021  221.0414 H   0  0  0  0  0  0  0  0  0  0  0  0
  142.4174   77.6447  223.3996 H   0  0  0  0  0  0  0  0  0  0  0  0
  141.4181   79.0410  225.1350 H   0  0  0  0  0  0  0  0  0  0  0  0
  139.4673   80.5047  224.6332 H   0  0  0  0  0  0  0  0  0  0  0  0
  138.5619   80.5115  222.3294 H   0  0  0  0  0  0  0  0  0  0  0  0
  139.5578   79.1107  220.5793 H   0  0  0  0  0  0  0  0  0  0  0  0
  136.4280   73.6210  223.1879 H   0  0  0  0  0  0  0  0  0  0  0  0
  134.8297   72.5619  224.7685 H   0  0  0  0  0  0  0  0  0  0  0  0
  131.7919   74.3711  227.9989 H   0  0  0  0  0  0  0  0  0  0  0  0
  132.0849   76.8455  227.8385 H   0  0  0  0  0  0  0  0  0  0  0  0
  133.7315   77.7680  226.1975 H   0  0  0  0  0  0  0  0  0  0  0  0
  1  2  2  0
  2  3  1  0
  3  4  1  0
  4  5  1  0
  5  6  2  0
  5  7  1  0
  7  8  1  0
  8  9  1  0
  9 10  1  0
 10 11  1  0
 11 12  1  0
 12 13  1  0
 13 14  2  0
 14 15  1  0
 15 16  2  0
 16 17  1  0
 17 18  2  0
  2 19  1  0
 19 20  2  0
 20 21  1  0
 21 22  2  0
 22 23  1  0
 23 24  1  0
 23 25  2  0
 25 26  1  0
 26 27  2  0
 27 28  1  0
 28 29  2  0
 12  7  1  0
 18 13  1  0
 29 19  1  0
 28 22  1  0
  3 30  1  0
  4 31  1  0
  4 32  1  0
  8 33  1  0
  8 34  1  0
  9 35  1  0
  9 36  1  0
 10 37  1  0
 10 38  1  0
 11 39  1  0
 11 40  1  0
 12 41  1  6
 14 42  1  0
 15 43  1  0
 16 44  1  0
 17 45  1  0
 18 46  1  0
 20 47  1  0
 21 48  1  0
 25 49  1  0
 26 50  1  0
 27 51  1  0
M  END
>  <smiles>  (48) 
O=C(NCC(=O)N1CCCC[C@H]1c1ccccc1)c1ccc2c(Cl)cccc2n1

>  <score_type>  (48) 
oracle

>  <origin>  (48) 
autodockgpu

>  <m_score__min__energy>  (48) 
-9.5199999999999996

>  <m_primary>  (48) 
energy

>  <rmsd>  (48) 
5.577371066675464

>  <m_score__min__rmsd>  (48) 
5.577371066675464

>  <meeko>  (48) 
{"free_energy": -7.77, "intermolecular_energy": -9.26, "internal_energy": -2.03, "cluster_size": 3, "cluster_id": 7, "rank_in_cluster": 1}

>  <energy>  (48) 
-7.48

>  <cluster_rmsd>  (48) 
0.03

>  <cluster>  (48) 
9

$$$$

     RDKit          3D

 51 54  0  0  0  0  0  0  0  0999 V2000
  140.6590   71.9370  221.0580 O   0  0  0  0  0  0  0  0  0  0  0  0
  140.2780   72.4160  222.1740 C   0  0  0  0  0  0  0  0  0  0  0  0
  139.8850   73.7690  222.3280 N   0  0  0  0  0  0  0  0  0  0  0  0
  139.9180   74.6340  221.1770 C   0  0  0  0  0  0  0  0  0  0  0  0
  139.3410   75.9780  221.4780 C   0  0  0  0  0  0  0  0  0  0  0  0
  138.9920   76.1780  222.6660 O   0  0  0  0  0  0  0  0  0  0  0  0
  139.2280   76.9150  220.4280 N   0  0  0  0  0  0  0  0  0  0  0  0
  138.7480   76.4820  219.0960 C   0  0  0  0  0  0  0  0  0  0  0  0
  137.5790   77.3450  218.6720 C   0  0  0  0  0  0  0  0  0  0  0  0
  137.7110   78.7860  219.0240 C   0  0  0  0  0  0  0  0  0  0  0  0
  138.2110   79.0370  220.4470 C   0  0  0  0  0  0  0  0  0  0  0  0
  139.5380   78.3230  220.5310 C   0  0  1  0  0  0  0  0  0  0  0  0
  140.3940   78.7140  221.6380 C   0  0  0  0  0  0  0  0  0  0  0  0
  141.7660   78.7820  221.5330 C   0  0  0  0  0  0  0  0  0  0  0  0
  142.5700   79.1510  222.5820 C   0  0  0  0  0  0  0  0  0  0  0  0
  142.0350   79.4790  223.8110 C   0  0  0  0  0  0  0  0  0  0  0  0
  140.6770   79.4220  223.9450 C   0  0  0  0  0  0  0  0  0  0  0  0
  139.8680   79.0500  222.8910 C   0  0  0  0  0  0  0  0  0  0  0  0
  140.2340   71.5560  223.3710 C   0  0  0  0  0  0  0  0  0  0  0  0
  139.7710   70.2550  223.3130 C   0  0  0  0  0  0  0  0  0  0  0  0
  139.7290   69.4440  224.4430 C   0  0  0  0  0  0  0  0  0  0  0  0
  140.1590   69.9500  225.6460 C   0  0  0  0  0  0  0  0  0  0  0  0
  140.1620   69.2410  226.8240 C   0  0  0  0  0  0  0  0  0  0  0  0
  139.5880   67.5890  226.8150 Cl  0  0  0  0  0  0  0  0  0  0  0  0
  140.6020   69.7830  228.0180 C   0  0  0  0  0  0  0  0  0  0  0  0
  141.0600   71.0890  228.0500 C   0  0  0  0  0  0  0  0  0  0  0  0
  141.0650   71.8250  226.8700 C   0  0  0  0  0  0  0  0  0  0  0  0
  140.6180   71.2490  225.6960 C   0  0  0  0  0  0  0  0  0  0  0  0
  140.6400   71.9930  224.5790 N   0  0  0  0  0  0  0  0  0  0  0  0
  139.5720   74.1620  223.2440 H   0  0  0  0  0  0  0  0  0  0  0  0
  140.9624   74.7587  220.8549 H   0  0  0  0  0  0  0  0  0  0  0  0
  139.3127   74.1714  220.3836 H   0  0  0  0  0  0  0  0  0  0  0  0
  139.5621   76.5826  218.3631 H   0  0  0  0  0  0  0  0  0  0  0  0
  138.4265   75.4313  219.1475 H   0  0  0  0  0  0  0  0  0  0  0  0
  137.4736   77.2671  217.5798 H   0  0  0  0  0  0  0  0  0  0  0  0
  136.7011   76.9702  219.2186 H   0  0  0  0  0  0  0  0  0  0  0  0
  138.4195   79.2498  218.3219 H   0  0  0  0  0  0  0  0  0  0  0  0
  136.7032   79.2221  218.9600 H   0  0  0  0  0  0  0  0  0  0  0  0
  138.3406   80.1146  220.6260 H   0  0  0  0  0  0  0  0  0  0  0  0
  137.4996   78.6735  221.2032 H   0  0  0  0  0  0  0  0  0  0  0  0
  140.1960   78.6254  219.7030 H   0  0  0  0  0  0  0  0  0  0  0  0
  142.2354   78.5306  220.5705 H   0  0  0  0  0  0  0  0  0  0  0  0
  143.6603   79.1860  222.4407 H   0  0  0  0  0  0  0  0  0  0  0  0
  142.6788   79.7756  224.6521 H   0  0  0  0  0  0  0  0  0  0  0  0
  140.2193   79.6776  224.9121 H   0  0  0  0  0  0  0  0  0  0  0  0
  138.7786   79.0165  223.0396 H   0  0  0  0  0  0  0  0  0  0  0  0
  139.4271   69.8506  222.3496 H   0  0  0  0  0  0  0  0  0  0  0  0
  139.3564   68.4113  224.3741 H   0  0  0  0  0  0  0  0  0  0  0  0
  140.5881   69.1794  228.9375 H   0  0  0  0  0  0  0  0  0  0  0  0
  141.4133   71.5361  228.9909 H   0  0  0  0  0  0  0  0  0  0  0  0
  141.4244   72.8646  226.8711 H   0  0  0  0  0  0  0  0  0  0  0  0
  1  2  2  0
  2  3  1  0
  3  4  1  0
  4  5  1  0
  5  6  2  0
  5  7  1  0
  7  8  1  0
  8  9  1  0
  9 10  1  0
 10 11  1  0
 11 12  1  0
 12 13  1  0
 13 14  2  0
 14 15  1  0
 15 16  2  0
 16 17  1  0
 17 18  2  0
  2 19  1  0
 19 20  2  0
 20 21  1  0
 21 22  2  0
 22 23  1  0
 23 24  1  0
 23 25  2  0
 25 26  1  0
 26 27  2  0
 27 28  1  0
 28 29  2  0
 12  7  1  0
 18 13  1  0
 29 19  1  0
 28 22  1  0
  3 30  1  0
  4 31  1  0
  4 32  1  0
  8 33  1  0
  8 34  1  0
  9 35  1  0
  9 36  1  0
 10 37  1  0
 10 38  1  0
 11 39  1  0
 11 40  1  0
 12 41  1  6
 14 42  1  0
 15 43  1  0
 16 44  1  0
 17 45  1  0
 18 46  1  0
 20 47  1  0
 21 48  1  0
 25 49  1  0
 26 50  1  0
 27 51  1  0
M  END
>  <smiles>  (49) 
O=C(NCC(=O)N1CCCC[C@H]1c1ccccc1)c1ccc2c(Cl)cccc2n1

>  <score_type>  (49) 
oracle

>  <origin>  (49) 
autodockgpu

>  <m_score__min__energy>  (49) 
-9.5199999999999996

>  <m_primary>  (49) 
energy

>  <rmsd>  (49) 
2.2707716260320314

>  <m_score__min__rmsd>  (49) 
2.2707716260320314

>  <meeko>  (49) 
{"free_energy": -8.26, "intermolecular_energy": -9.75, "internal_energy": -2.02, "cluster_size": 18, "cluster_id": 1, "rank_in_cluster": 15}

>  <energy>  (49) 
-7.47

>  <cluster_rmsd>  (49) 
0.03

>  <cluster>  (49) 
9

$$$$

     RDKit          3D

 51 54  0  0  0  0  0  0  0  0999 V2000
  136.6100   77.0950  222.0480 O   0  0  0  0  0  0  0  0  0  0  0  0
  136.9380   75.9980  222.6040 C   0  0  0  0  0  0  0  0  0  0  0  0
  138.1650   75.3430  222.3340 N   0  0  0  0  0  0  0  0  0  0  0  0
  139.0770   75.9440  221.3930 C   0  0  0  0  0  0  0  0  0  0  0  0
  140.4630   75.4140  221.5520 C   0  0  0  0  0  0  0  0  0  0  0  0
  140.5940   74.4170  222.3030 O   0  0  0  0  0  0  0  0  0  0  0  0
  141.5150   76.0560  220.8610 N   0  0  0  0  0  0  0  0  0  0  0  0
  142.5020   75.2540  220.1030 C   0  0  0  0  0  0  0  0  0  0  0  0
  142.5760   75.7570  218.6770 C   0  0  0  0  0  0  0  0  0  0  0  0
  142.4990   77.2370  218.5350 C   0  0  0  0  0  0  0  0  0  0  0  0
  141.4100   77.8890  219.3890 C   0  0  0  0  0  0  0  0  0  0  0  0
  141.7270   77.4850  220.8080 C   0  0  1  0  0  0  0  0  0  0  0  0
  141.0790   78.2700  221.8460 C   0  0  0  0  0  0  0  0  0  0  0  0
  141.5800   78.3740  223.1240 C   0  0  0  0  0  0  0  0  0  0  0  0
  140.9650   79.1170  224.1000 C   0  0  0  0  0  0  0  0  0  0  0  0
  139.7980   79.8070  223.8430 C   0  0  0  0  0  0  0  0  0  0  0  0
  139.2780   79.7240  222.5830 C   0  0  0  0  0  0  0  0  0  0  0  0
  139.8960   78.9760  221.6020 C   0  0  0  0  0  0  0  0  0  0  0  0
  136.0260   75.3570  223.5700 C   0  0  0  0  0  0  0  0  0  0  0  0
  135.8260   73.9900  223.5820 C   0  0  0  0  0  0  0  0  0  0  0  0
  134.9630   73.3870  224.4930 C   0  0  0  0  0  0  0  0  0  0  0  0
  134.2960   74.1710  225.4030 C   0  0  0  0  0  0  0  0  0  0  0  0
  133.4220   73.6830  226.3460 C   0  0  0  0  0  0  0  0  0  0  0  0
  133.1270   71.9610  226.4120 Cl  0  0  0  0  0  0  0  0  0  0  0  0
  132.7660   74.5040  227.2470 C   0  0  0  0  0  0  0  0  0  0  0  0
  132.9840   75.8700  227.2130 C   0  0  0  0  0  0  0  0  0  0  0  0
  133.8630   76.3850  226.2670 C   0  0  0  0  0  0  0  0  0  0  0  0
  134.5010   75.5340  225.3830 C   0  0  0  0  0  0  0  0  0  0  0  0
  135.3420   76.0710  224.4850 N   0  0  0  0  0  0  0  0  0  0  0  0
  138.4340   74.4430  222.7890 H   0  0  0  0  0  0  0  0  0  0  0  0
  138.7283   75.7296  220.3720 H   0  0  0  0  0  0  0  0  0  0  0  0
  139.1004   77.0273  221.5823 H   0  0  0  0  0  0  0  0  0  0  0  0
  143.4907   75.3475  220.5761 H   0  0  0  0  0  0  0  0  0  0  0  0
  142.1927   74.1984  220.1028 H   0  0  0  0  0  0  0  0  0  0  0  0
  143.5294   75.4203  218.2439 H   0  0  0  0  0  0  0  0  0  0  0  0
  141.6967   75.3487  218.1573 H   0  0  0  0  0  0  0  0  0  0  0  0
  143.4697   77.6634  218.8280 H   0  0  0  0  0  0  0  0  0  0  0  0
  142.2451   77.4428  217.4847 H   0  0  0  0  0  0  0  0  0  0  0  0
  141.4403   78.9835  219.2834 H   0  0  0  0  0  0  0  0  0  0  0  0
  140.4022   77.5694  219.0854 H   0  0  0  0  0  0  0  0  0  0  0  0
  142.7727   77.7206  221.0552 H   0  0  0  0  0  0  0  0  0  0  0  0
  142.5095   77.8408  223.3724 H   0  0  0  0  0  0  0  0  0  0  0  0
  141.4101   79.1634  225.1049 H   0  0  0  0  0  0  0  0  0  0  0  0
  139.3043   80.4026  224.6250 H   0  0  0  0  0  0  0  0  0  0  0  0
  138.3492   80.2635  222.3457 H   0  0  0  0  0  0  0  0  0  0  0  0
  139.4457   78.9335  220.5993 H   0  0  0  0  0  0  0  0  0  0  0  0
  136.3616   73.3628  222.8541 H   0  0  0  0  0  0  0  0  0  0  0  0
  134.8170   72.2968  224.4843 H   0  0  0  0  0  0  0  0  0  0  0  0
  132.0750   74.0727  227.9862 H   0  0  0  0  0  0  0  0  0  0  0  0
  132.4709   76.5366  227.9218 H   0  0  0  0  0  0  0  0  0  0  0  0
  134.0508   77.4679  226.2217 H   0  0  0  0  0  0  0  0  0  0  0  0
  1  2  2  0
  2  3  1  0
  3  4  1  0
  4  5  1  0
  5  6  2  0
  5  7  1  0
  7  8  1  0
  8  9  1  0
  9 10  1  0
 10 11  1  0
 11 12  1  0
 12 13  1  0
 13 14  2  0
 14 15  1  0
 15 16  2  0
 16 17  1  0
 17 18  2  0
  2 19  1  0
 19 20  2  0
 20 21  1  0
 21 22  2  0
 22 23  1  0
 23 24  1  0
 23 25  2  0
 25 26  1  0
 26 27  2  0
 27 28  1  0
 28 29  2  0
 12  7  1  0
 18 13  1  0
 29 19  1  0
 28 22  1  0
  3 30  1  0
  4 31  1  0
  4 32  1  0
  8 33  1  0
  8 34  1  0
  9 35  1  0
  9 36  1  0
 10 37  1  0
 10 38  1  0
 11 39  1  0
 11 40  1  0
 12 41  1  1
 14 42  1  0
 15 43  1  0
 16 44  1  0
 17 45  1  0
 18 46  1  0
 20 47  1  0
 21 48  1  0
 25 49  1  0
 26 50  1  0
 27 51  1  0
M  END
>  <smiles>  (50) 
O=C(NCC(=O)N1CCCC[C@H]1c1ccccc1)c1ccc2c(Cl)cccc2n1

>  <score_type>  (50) 
oracle

>  <origin>  (50) 
autodockgpu

>  <m_score__min__energy>  (50) 
-9.5199999999999996

>  <m_primary>  (50) 
energy

>  <rmsd>  (50) 
5.380464636458143

>  <m_score__min__rmsd>  (50) 
5.380464636458143

>  <meeko>  (50) 
{"free_energy": -7.76, "intermolecular_energy": -9.25, "internal_energy": -2.06, "cluster_size": 3, "cluster_id": 7, "rank_in_cluster": 2}

>  <energy>  (50) 
-7.47

>  <cluster_rmsd>  (50) 
0.04

>  <cluster>  (50) 
9

$$$$
