
     RDKit          3D

 60 62  0  0  0  0  0  0  0  0999 V2000
  144.3850   72.6330  220.8500 C   0  0  0  0  0  0  0  0  0  0  0  0
  145.0250   73.6110  219.8180 C   0  0  0  0  0  0  0  0  0  0  0  0
  145.5500   72.6550  218.7400 C   0  0  0  0  0  0  0  0  0  0  0  0
  143.9670   74.4610  219.2350 C   0  0  0  0  0  0  0  0  0  0  0  0
  143.0550   75.2390  220.0890 C   0  0  2  0  0  0  0  0  0  0  0  0
  141.7840   74.4550  220.0840 N   0  0  0  0  0  0  0  0  0  0  0  0
  140.8100   74.6600  221.0980 C   0  0  0  0  0  0  0  0  0  0  0  0
  141.0330   75.5240  222.0110 O   0  0  0  0  0  0  0  0  0  0  0  0
  139.5460   73.8790  221.0940 C   0  0  0  0  0  0  0  0  0  0  0  0
  139.3630   73.1560  222.3370 N   0  0  0  0  0  0  0  0  0  0  0  0
  140.2170   72.0110  222.5240 C   0  0  0  0  0  0  0  0  0  0  0  0
  141.0450   71.7380  221.5900 O   0  0  0  0  0  0  0  0  0  0  0  0
  140.1490   71.1880  223.7250 C   0  0  0  0  0  0  0  0  0  0  0  0
  139.5570   69.9370  223.6170 C   0  0  0  0  0  0  0  0  0  0  0  0
  139.4540   69.0950  224.7050 C   0  0  0  0  0  0  0  0  0  0  0  0
  139.9610   69.5380  225.9090 C   0  0  0  0  0  0  0  0  0  0  0  0
  139.8470   68.6730  226.9910 C   0  0  0  0  0  0  0  0  0  0  0  0
  140.3610   69.1210  228.2120 C   0  0  0  0  0  0  0  0  0  0  0  0
  140.9540   70.3630  228.3350 C   0  0  0  0  0  0  0  0  0  0  0  0
  141.0510   71.2070  227.2300 C   0  0  0  0  0  0  0  0  0  0  0  0
  140.5510   70.7840  226.0170 C   0  0  0  0  0  0  0  0  0  0  0  0
  140.6280   71.5750  224.9200 N   0  0  0  0  0  0  0  0  0  0  0  0
  142.6740   76.5900  219.7280 C   0  0  0  0  0  0  0  0  0  0  0  0
  142.7490   77.0050  218.5430 O   0  0  0  0  0  0  0  0  0  0  0  0
  142.1890   77.5470  220.6820 N   0  0  0  0  0  0  0  0  0  0  0  0
  141.8070   78.8960  220.3390 C   0  0  0  0  0  0  0  0  0  0  0  0
  141.8490   79.8100  221.5020 C   0  0  0  0  0  0  0  0  0  0  0  0
  141.4410   81.1210  221.4820 C   0  0  0  0  0  0  0  0  0  0  0  0
  141.5380   81.8790  222.6310 C   0  0  0  0  0  0  0  0  0  0  0  0
  142.0440   81.3300  223.8040 C   0  0  0  0  0  0  0  0  0  0  0  0
  142.4600   80.0090  223.8450 C   0  0  0  0  0  0  0  0  0  0  0  0
  142.3560   79.2660  222.6870 C   0  0  0  0  0  0  0  0  0  0  0  0
  144.6104   72.9774  221.8701 H   0  0  0  0  0  0  0  0  0  0  0  0
  143.2950   72.6076  220.7040 H   0  0  0  0  0  0  0  0  0  0  0  0
  144.7981   71.6240  220.7040 H   0  0  0  0  0  0  0  0  0  0  0  0
  145.7933   74.2724  220.2449 H   0  0  0  0  0  0  0  0  0  0  0  0
  146.0265   71.7874  219.2199 H   0  0  0  0  0  0  0  0  0  0  0  0
  144.7128   72.3136  218.1134 H   0  0  0  0  0  0  0  0  0  0  0  0
  146.2873   73.1783  218.1134 H   0  0  0  0  0  0  0  0  0  0  0  0
  144.4745   75.1850  218.5806 H   0  0  0  0  0  0  0  0  0  0  0  0
  143.2931   73.7226  218.7761 H   0  0  0  0  0  0  0  0  0  0  0  0
  143.6122   75.3759  221.0275 H   0  0  0  0  0  0  0  0  0  0  0  0
  141.6060   73.7470  219.3390 H   0  0  0  0  0  0  0  0  0  0  0  0
  138.7005   74.5685  220.9540 H   0  0  0  0  0  0  0  0  0  0  0  0
  139.5955   73.1475  220.2739 H   0  0  0  0  0  0  0  0  0  0  0  0
  138.6670   73.4210  223.0690 H   0  0  0  0  0  0  0  0  0  0  0  0
  139.1619   69.6103  222.6438 H   0  0  0  0  0  0  0  0  0  0  0  0
  138.9838   68.1046  224.6155 H   0  0  0  0  0  0  0  0  0  0  0  0
  139.3754   67.6842  226.8917 H   0  0  0  0  0  0  0  0  0  0  0  0
  140.2916   68.4692  229.0954 H   0  0  0  0  0  0  0  0  0  0  0  0
  141.3509   70.6868  229.3085 H   0  0  0  0  0  0  0  0  0  0  0  0
  141.5203   72.1974  227.3246 H   0  0  0  0  0  0  0  0  0  0  0  0
  142.0950   77.2860  221.6960 H   0  0  0  0  0  0  0  0  0  0  0  0
  142.4964   79.2729  219.5691 H   0  0  0  0  0  0  0  0  0  0  0  0
  140.7697   78.8671  219.9740 H   0  0  0  0  0  0  0  0  0  0  0  0
  141.0403   81.5632  220.5579 H   0  0  0  0  0  0  0  0  0  0  0  0
  141.2114   82.9293  222.6188 H   0  0  0  0  0  0  0  0  0  0  0  0
  142.1148   81.9511  224.7091 H   0  0  0  0  0  0  0  0  0  0  0  0
  142.8598   79.5674  224.7697 H   0  0  0  0  0  0  0  0  0  0  0  0
  142.6812   78.2152  222.6958 H   0  0  0  0  0  0  0  0  0  0  0  0
  1  2  1  0
  2  3  1  0
  2  4  1  0
  4  5  1  0
  5  6  1  0
  6  7  1  0
  7  8  2  0
  7  9  1  0
  9 10  1  0
 10 11  1  0
 11 12  2  0
 11 13  1  0
 13 14  2  0
 14 15  1  0
 15 16  2  0
 16 17  1  0
 17 18  2  0
 18 19  1  0
 19 20  2  0
 20 21  1  0
 21 22  2  0
  5 23  1  0
 23 24  2  0
 23 25  1  0
 25 26  1  0
 26 27  1  0
 27 28  2  0
 28 29  1  0
 29 30  2  0
 30 31  1  0
 31 32  2  0
 22 13  1  0
 32 27  1  0
 21 16  1  0
  1 33  1  0
  1 34  1  0
  1 35  1  0
  2 36  1  0
  3 37  1  0
  3 38  1  0
  3 39  1  0
  4 40  1  0
  4 41  1  0
  5 42  1  1
  6 43  1  0
  9 44  1  0
  9 45  1  0
 10 46  1  0
 14 47  1  0
 15 48  1  0
 17 49  1  0
 18 50  1  0
 19 51  1  0
 20 52  1  0
 25 53  1  0
 26 54  1  0
 26 55  1  0
 28 56  1  0
 29 57  1  0
 30 58  1  0
 31 59  1  0
 32 60  1  0
M  END
>  <smiles>  (1) 
CC(C)C[C@H](NC(=O)CNC(=O)c1ccc2ccccc2n1)C(=O)NCc1ccccc1

>  <score_type>  (1) 
oracle

>  <origin>  (1) 
autodockgpu

>  <m_score__min__energy>  (1) 
-10.23

>  <m_primary>  (1) 
energy

>  <rmsd>  (1) 
3.22908082832323

>  <m_score__min__rmsd>  (1) 
3.22908082832323

>  <meeko>  (1) 
{"free_energy": -9.93, "intermolecular_energy": -12.62, "internal_energy": -2.36, "cluster_size": 19, "cluster_id": 1, "rank_in_cluster": 8}

>  <energy>  (1) 
-10.23

>  <cluster_rmsd>  (1) 
0.0

>  <cluster>  (1) 
1

$$$$

     RDKit          3D

 60 62  0  0  0  0  0  0  0  0999 V2000
  145.3880   73.5400  220.8370 C   0  0  0  0  0  0  0  0  0  0  0  0
  144.3360   72.8570  219.9080 C   0  0  0  0  0  0  0  0  0  0  0  0
  143.7080   71.8110  220.8360 C   0  0  0  0  0  0  0  0  0  0  0  0
  143.3080   73.8480  219.5310 C   0  0  0  0  0  0  0  0  0  0  0  0
  142.8780   74.8980  220.4690 C   0  0  2  0  0  0  0  0  0  0  0  0
  141.5880   74.3920  221.0250 N   0  0  0  0  0  0  0  0  0  0  0  0
  140.5030   74.0890  220.1590 C   0  0  0  0  0  0  0  0  0  0  0  0
  140.6460   74.2530  218.9000 O   0  0  0  0  0  0  0  0  0  0  0  0
  139.2190   73.5860  220.7110 C   0  0  0  0  0  0  0  0  0  0  0  0
  139.3620   73.1620  222.0890 N   0  0  0  0  0  0  0  0  0  0  0  0
  139.7770   71.7950  222.2810 C   0  0  0  0  0  0  0  0  0  0  0  0
  139.9750   71.0890  221.2350 O   0  0  0  0  0  0  0  0  0  0  0  0
  139.9650   71.2270  223.6110 C   0  0  0  0  0  0  0  0  0  0  0  0
  139.5810   69.9070  223.8090 C   0  0  0  0  0  0  0  0  0  0  0  0
  139.7270   69.2940  225.0350 C   0  0  0  0  0  0  0  0  0  0  0  0
  140.2690   70.0360  226.0640 C   0  0  0  0  0  0  0  0  0  0  0  0
  140.4070   69.3970  227.2910 C   0  0  0  0  0  0  0  0  0  0  0  0
  140.9580   70.1490  228.3330 C   0  0  0  0  0  0  0  0  0  0  0  0
  141.3460   71.4630  228.1510 C   0  0  0  0  0  0  0  0  0  0  0  0
  141.1930   72.0740  226.9090 C   0  0  0  0  0  0  0  0  0  0  0  0
  140.6520   71.3500  225.8670 C   0  0  0  0  0  0  0  0  0  0  0  0
  140.4880   71.9090  224.6440 N   0  0  0  0  0  0  0  0  0  0  0  0
  142.5930   76.2390  219.9980 C   0  0  0  0  0  0  0  0  0  0  0  0
  142.8210   76.5870  218.8110 O   0  0  0  0  0  0  0  0  0  0  0  0
  142.0370   77.2610  220.8390 N   0  0  0  0  0  0  0  0  0  0  0  0
  141.7480   78.6010  220.3860 C   0  0  0  0  0  0  0  0  0  0  0  0
  141.8320   79.5980  221.4770 C   0  0  0  0  0  0  0  0  0  0  0  0
  141.4970   80.9240  221.3520 C   0  0  0  0  0  0  0  0  0  0  0  0
  141.6280   81.7610  222.4410 C   0  0  0  0  0  0  0  0  0  0  0  0
  142.0920   81.2760  223.6580 C   0  0  0  0  0  0  0  0  0  0  0  0
  142.4340   79.9420  223.8050 C   0  0  0  0  0  0  0  0  0  0  0  0
  142.2980   79.1190  222.7060 C   0  0  0  0  0  0  0  0  0  0  0  0
  145.1174   73.3643  221.8886 H   0  0  0  0  0  0  0  0  0  0  0  0
  146.3831   73.1152  220.6385 H   0  0  0  0  0  0  0  0  0  0  0  0
  145.4049   74.6218  220.6385 H   0  0  0  0  0  0  0  0  0  0  0  0
  144.7588   72.4396  218.9823 H   0  0  0  0  0  0  0  0  0  0  0  0
  143.8810   72.0991  221.8834 H   0  0  0  0  0  0  0  0  0  0  0  0
  142.6262   71.7540  220.6453 H   0  0  0  0  0  0  0  0  0  0  0  0
  144.1662   70.8293  220.6453 H   0  0  0  0  0  0  0  0  0  0  0  0
  143.6870   74.3651  218.6372 H   0  0  0  0  0  0  0  0  0  0  0  0
  142.4037   73.2291  219.4345 H   0  0  0  0  0  0  0  0  0  0  0  0
  143.7433   75.0411  221.1329 H   0  0  0  0  0  0  0  0  0  0  0  0
  141.4740   74.2620  222.0530 H   0  0  0  0  0  0  0  0  0  0  0  0
  138.4693   74.3894  220.6604 H   0  0  0  0  0  0  0  0  0  0  0  0
  138.9039   72.7174  220.1141 H   0  0  0  0  0  0  0  0  0  0  0  0
  139.1840   73.7790  222.9120 H   0  0  0  0  0  0  0  0  0  0  0  0
  139.1516   69.3392  222.9704 H   0  0  0  0  0  0  0  0  0  0  0  0
  139.4216   68.2483  225.1877 H   0  0  0  0  0  0  0  0  0  0  0  0
  140.0979   68.3512  227.4349 H   0  0  0  0  0  0  0  0  0  0  0  0
  141.0858   69.6836  229.3215 H   0  0  0  0  0  0  0  0  0  0  0  0
  141.7773   72.0283  228.9903 H   0  0  0  0  0  0  0  0  0  0  0  0
  141.4995   73.1200  226.7609 H   0  0  0  0  0  0  0  0  0  0  0  0
  141.8150   77.0580  221.8470 H   0  0  0  0  0  0  0  0  0  0  0  0
  142.4715   78.8726  219.6033 H   0  0  0  0  0  0  0  0  0  0  0  0
  140.7167   78.6097  220.0036 H   0  0  0  0  0  0  0  0  0  0  0  0
  141.1276   81.3151  220.3925 H   0  0  0  0  0  0  0  0  0  0  0  0
  141.3622   82.8241  222.3449 H   0  0  0  0  0  0  0  0  0  0  0  0
  142.1887   81.9596  224.5144 H   0  0  0  0  0  0  0  0  0  0  0  0
  142.8017   79.5518  224.7655 H   0  0  0  0  0  0  0  0  0  0  0  0
  142.5636   78.0556  222.7988 H   0  0  0  0  0  0  0  0  0  0  0  0
  1  2  1  0
  2  3  1  0
  2  4  1  0
  4  5  1  0
  5  6  1  0
  6  7  1  0
  7  8  2  0
  7  9  1  0
  9 10  1  0
 10 11  1  0
 11 12  2  0
 11 13  1  0
 13 14  2  0
 14 15  1  0
 15 16  2  0
 16 17  1  0
 17 18  2  0
 18 19  1  0
 19 20  2  0
 20 21  1  0
 21 22  2  0
  5 23  1  0
 23 24  2  0
 23 25  1  0
 25 26  1  0
 26 27  1  0
 27 28  2  0
 28 29  1  0
 29 30  2  0
 30 31  1  0
 31 32  2  0
 22 13  1  0
 32 27  1  0
 21 16  1  0
  1 33  1  0
  1 34  1  0
  1 35  1  0
  2 36  1  0
  3 37  1  0
  3 38  1  0
  3 39  1  0
  4 40  1  0
  4 41  1  0
  5 42  1  1
  6 43  1  0
  9 44  1  0
  9 45  1  0
 10 46  1  0
 14 47  1  0
 15 48  1  0
 17 49  1  0
 18 50  1  0
 19 51  1  0
 20 52  1  0
 25 53  1  0
 26 54  1  0
 26 55  1  0
 28 56  1  0
 29 57  1  0
 30 58  1  0
 31 59  1  0
 32 60  1  0
M  END
>  <smiles>  (2) 
CC(C)C[C@H](NC(=O)CNC(=O)c1ccc2ccccc2n1)C(=O)NCc1ccccc1

>  <score_type>  (2) 
oracle

>  <origin>  (2) 
autodockgpu

>  <m_score__min__energy>  (2) 
-10.23

>  <m_primary>  (2) 
energy

>  <rmsd>  (2) 
3.418830411816745

>  <m_score__min__rmsd>  (2) 
3.418830411816745

>  <meeko>  (2) 
{"free_energy": -9.32, "intermolecular_energy": -12.0, "internal_energy": -1.9, "cluster_size": 19, "cluster_id": 1, "rank_in_cluster": 11}

>  <energy>  (2) 
-10.19

>  <cluster_rmsd>  (2) 
0.46

>  <cluster>  (2) 
1

$$$$

     RDKit          3D

 60 62  0  0  0  0  0  0  0  0999 V2000
  145.7030   73.9360  220.9290 C   0  0  0  0  0  0  0  0  0  0  0  0
  144.9680   73.3750  219.6720 C   0  0  0  0  0  0  0  0  0  0  0  0
  144.1370   72.2290  220.2610 C   0  0  0  0  0  0  0  0  0  0  0  0
  144.0570   74.4100  219.1420 C   0  0  0  0  0  0  0  0  0  0  0  0
  143.1700   75.1760  220.0320 C   0  0  2  0  0  0  0  0  0  0  0  0
  141.8830   74.4180  220.0120 N   0  0  0  0  0  0  0  0  0  0  0  0
  140.9620   74.5400  221.0880 C   0  0  0  0  0  0  0  0  0  0  0  0
  141.2470   75.3070  222.0690 O   0  0  0  0  0  0  0  0  0  0  0  0
  139.6830   73.7860  221.0700 C   0  0  0  0  0  0  0  0  0  0  0  0
  139.4540   73.0940  222.3230 N   0  0  0  0  0  0  0  0  0  0  0  0
  140.2270   71.8940  222.5220 C   0  0  0  0  0  0  0  0  0  0  0  0
  141.0290   71.5510  221.5900 O   0  0  0  0  0  0  0  0  0  0  0  0
  140.1070   71.0940  223.7350 C   0  0  0  0  0  0  0  0  0  0  0  0
  139.4430   69.8780  223.6430 C   0  0  0  0  0  0  0  0  0  0  0  0
  139.2870   69.0600  224.7410 C   0  0  0  0  0  0  0  0  0  0  0  0
  139.8150   69.4890  225.9410 C   0  0  0  0  0  0  0  0  0  0  0  0
  139.6460   68.6480  227.0350 C   0  0  0  0  0  0  0  0  0  0  0  0
  140.1810   69.0830  228.2520 C   0  0  0  0  0  0  0  0  0  0  0  0
  140.8450   70.2900  228.3600 C   0  0  0  0  0  0  0  0  0  0  0  0
  140.9960   71.1110  227.2440 C   0  0  0  0  0  0  0  0  0  0  0  0
  140.4760   70.7000  226.0340 C   0  0  0  0  0  0  0  0  0  0  0  0
  140.6030   71.4700  224.9260 N   0  0  0  0  0  0  0  0  0  0  0  0
  142.8140   76.5460  219.7220 C   0  0  0  0  0  0  0  0  0  0  0  0
  143.0540   77.0550  218.5970 O   0  0  0  0  0  0  0  0  0  0  0  0
  142.1680   77.4170  220.6620 N   0  0  0  0  0  0  0  0  0  0  0  0
  141.8070   78.7850  220.3700 C   0  0  0  0  0  0  0  0  0  0  0  0
  141.8880   79.6590  221.5610 C   0  0  0  0  0  0  0  0  0  0  0  0
  142.2750   79.2430  222.8110 C   0  0  0  0  0  0  0  0  0  0  0  0
  142.3010   80.1510  223.8500 C   0  0  0  0  0  0  0  0  0  0  0  0
  141.9400   81.4780  223.6430 C   0  0  0  0  0  0  0  0  0  0  0  0
  141.5470   81.9170  222.3890 C   0  0  0  0  0  0  0  0  0  0  0  0
  141.5260   80.9960  221.3630 C   0  0  0  0  0  0  0  0  0  0  0  0
  145.2116   73.5609  221.8389 H   0  0  0  0  0  0  0  0  0  0  0  0
  146.7527   73.6073  220.9171 H   0  0  0  0  0  0  0  0  0  0  0  0
  145.6628   75.0352  220.9171 H   0  0  0  0  0  0  0  0  0  0  0  0
  145.6416   73.0687  218.8581 H   0  0  0  0  0  0  0  0  0  0  0  0
  144.1721   72.2775  221.3594 H   0  0  0  0  0  0  0  0  0  0  0  0
  143.0942   72.3209  219.9231 H   0  0  0  0  0  0  0  0  0  0  0  0
  144.5484   71.2664  219.9231 H   0  0  0  0  0  0  0  0  0  0  0  0
  144.6896   75.1460  218.6243 H   0  0  0  0  0  0  0  0  0  0  0  0
  143.3453   73.8193  218.5465 H   0  0  0  0  0  0  0  0  0  0  0  0
  143.7383   75.2689  220.9692 H   0  0  0  0  0  0  0  0  0  0  0  0
  141.6550   73.7900  219.2120 H   0  0  0  0  0  0  0  0  0  0  0  0
  138.8561   74.4899  220.8946 H   0  0  0  0  0  0  0  0  0  0  0  0
  139.7371   73.0357  220.2674 H   0  0  0  0  0  0  0  0  0  0  0  0
  138.7830   73.4170  223.0540 H   0  0  0  0  0  0  0  0  0  0  0  0
  139.0327   69.5608  222.6729 H   0  0  0  0  0  0  0  0  0  0  0  0
  138.7595   68.0979  224.6632 H   0  0  0  0  0  0  0  0  0  0  0  0
  139.1173   67.6873  226.9478 H   0  0  0  0  0  0  0  0  0  0  0  0
  140.0705   68.4492  229.1442 H   0  0  0  0  0  0  0  0  0  0  0  0
  141.2561   70.6041  229.3308 H   0  0  0  0  0  0  0  0  0  0  0  0
  141.5225   72.0733  227.3267 H   0  0  0  0  0  0  0  0  0  0  0  0
  141.9300   77.0760  221.6280 H   0  0  0  0  0  0  0  0  0  0  0  0
  142.4901   79.1735  219.6003 H   0  0  0  0  0  0  0  0  0  0  0  0
  140.7631   78.7884  220.0233 H   0  0  0  0  0  0  0  0  0  0  0  0
  142.5618   78.1950  222.9828 H   0  0  0  0  0  0  0  0  0  0  0  0
  142.6106   79.8215  224.8528 H   0  0  0  0  0  0  0  0  0  0  0  0
  141.9668   82.1867  224.4839 H   0  0  0  0  0  0  0  0  0  0  0  0
  141.2613   82.9653  222.2176 H   0  0  0  0  0  0  0  0  0  0  0  0
  141.2155   81.3220  220.3593 H   0  0  0  0  0  0  0  0  0  0  0  0
  1  2  1  0
  2  3  1  0
  2  4  1  0
  4  5  1  0
  5  6  1  0
  6  7  1  0
  7  8  2  0
  7  9  1  0
  9 10  1  0
 10 11  1  0
 11 12  2  0
 11 13  1  0
 13 14  2  0
 14 15  1  0
 15 16  2  0
 16 17  1  0
 17 18  2  0
 18 19  1  0
 19 20  2  0
 20 21  1  0
 21 22  2  0
  5 23  1  0
 23 24  2  0
 23 25  1  0
 25 26  1  0
 26 27  1  0
 27 28  2  0
 28 29  1  0
 29 30  2  0
 30 31  1  0
 31 32  2  0
 22 13  1  0
 32 27  1  0
 21 16  1  0
  1 33  1  0
  1 34  1  0
  1 35  1  0
  2 36  1  0
  3 37  1  0
  3 38  1  0
  3 39  1  0
  4 40  1  0
  4 41  1  0
  5 42  1  1
  6 43  1  0
  9 44  1  0
  9 45  1  0
 10 46  1  0
 14 47  1  0
 15 48  1  0
 17 49  1  0
 18 50  1  0
 19 51  1  0
 20 52  1  0
 25 53  1  0
 26 54  1  0
 26 55  1  0
 28 56  1  0
 29 57  1  0
 30 58  1  0
 31 59  1  0
 32 60  1  0
M  END
>  <smiles>  (3) 
CC(C)C[C@H](NC(=O)CNC(=O)c1ccc2ccccc2n1)C(=O)NCc1ccccc1

>  <score_type>  (3) 
oracle

>  <origin>  (3) 
autodockgpu

>  <m_score__min__energy>  (3) 
-10.23

>  <m_primary>  (3) 
energy

>  <rmsd>  (3) 
3.3197323897699667

>  <m_score__min__rmsd>  (3) 
3.3197323897699667

>  <meeko>  (3) 
{"free_energy": -10.1, "intermolecular_energy": -12.78, "internal_energy": -2.43, "cluster_size": 19, "cluster_id": 1, "rank_in_cluster": 5}

>  <energy>  (3) 
-10.12

>  <cluster_rmsd>  (3) 
0.12

>  <cluster>  (3) 
1

$$$$

     RDKit          3D

 60 62  0  0  0  0  0  0  0  0999 V2000
  145.7630   74.1010  220.8430 C   0  0  0  0  0  0  0  0  0  0  0  0
  144.9490   73.4000  219.7120 C   0  0  0  0  0  0  0  0  0  0  0  0
  144.2340   72.2760  220.4710 C   0  0  0  0  0  0  0  0  0  0  0  0
  143.9430   74.3440  219.1840 C   0  0  0  0  0  0  0  0  0  0  0  0
  143.0280   75.0680  220.0820 C   0  0  2  0  0  0  0  0  0  0  0  0
  141.7980   74.2220  220.1180 N   0  0  0  0  0  0  0  0  0  0  0  0
  140.8400   74.3930  221.1530 C   0  0  0  0  0  0  0  0  0  0  0  0
  141.0420   75.2800  222.0500 O   0  0  0  0  0  0  0  0  0  0  0  0
  139.6170   73.5510  221.1900 C   0  0  0  0  0  0  0  0  0  0  0  0
  139.4550   72.9020  222.4760 N   0  0  0  0  0  0  0  0  0  0  0  0
  140.4970   71.9740  222.8410 C   0  0  0  0  0  0  0  0  0  0  0  0
  141.4520   71.8080  222.0100 O   0  0  0  0  0  0  0  0  0  0  0  0
  140.4720   71.2490  224.1050 C   0  0  0  0  0  0  0  0  0  0  0  0
  141.0180   71.8740  225.2190 C   0  0  0  0  0  0  0  0  0  0  0  0
  141.0330   71.2580  226.4520 C   0  0  0  0  0  0  0  0  0  0  0  0
  140.4860   69.9950  226.5460 C   0  0  0  0  0  0  0  0  0  0  0  0
  140.5130   69.3940  227.7990 C   0  0  0  0  0  0  0  0  0  0  0  0
  139.9580   68.1140  227.8940 C   0  0  0  0  0  0  0  0  0  0  0  0
  139.4100   67.4790  226.7960 C   0  0  0  0  0  0  0  0  0  0  0  0
  139.4010   68.1090  225.5530 C   0  0  0  0  0  0  0  0  0  0  0  0
  139.9430   69.3720  225.4380 C   0  0  0  0  0  0  0  0  0  0  0  0
  139.9520   70.0180  224.2460 N   0  0  0  0  0  0  0  0  0  0  0  0
  142.5680   76.4020  219.7510 C   0  0  0  0  0  0  0  0  0  0  0  0
  142.5150   76.8080  218.5620 O   0  0  0  0  0  0  0  0  0  0  0  0
  142.1430   77.3500  220.7410 N   0  0  0  0  0  0  0  0  0  0  0  0
  141.6820   78.6820  220.4290 C   0  0  0  0  0  0  0  0  0  0  0  0
  141.8040   79.6070  221.5770 C   0  0  0  0  0  0  0  0  0  0  0  0
  142.6830   79.4480  222.6200 C   0  0  0  0  0  0  0  0  0  0  0  0
  142.6970   80.3740  223.6430 C   0  0  0  0  0  0  0  0  0  0  0  0
  141.8330   81.4640  223.6260 C   0  0  0  0  0  0  0  0  0  0  0  0
  140.9400   81.6430  222.5830 C   0  0  0  0  0  0  0  0  0  0  0  0
  140.9390   80.7070  221.5700 C   0  0  0  0  0  0  0  0  0  0  0  0
  145.3845   73.7751  221.8231 H   0  0  0  0  0  0  0  0  0  0  0  0
  146.8253   73.8306  220.7518 H   0  0  0  0  0  0  0  0  0  0  0  0
  145.6532   75.1917  220.7518 H   0  0  0  0  0  0  0  0  0  0  0  0
  145.5616   73.0520  218.8672 H   0  0  0  0  0  0  0  0  0  0  0  0
  144.3386   72.4404  221.5536 H   0  0  0  0  0  0  0  0  0  0  0  0
  143.1674   72.2727  220.2020 H   0  0  0  0  0  0  0  0  0  0  0  0
  144.6830   71.3085  220.2020 H   0  0  0  0  0  0  0  0  0  0  0  0
  144.4988   75.1095  218.6228 H   0  0  0  0  0  0  0  0  0  0  0  0
  143.2605   73.6812  218.6317 H   0  0  0  0  0  0  0  0  0  0  0  0
  143.6138   75.2235  220.9999 H   0  0  0  0  0  0  0  0  0  0  0  0
  141.6380   73.4960  219.3860 H   0  0  0  0  0  0  0  0  0  0  0  0
  138.7400   74.1866  220.9979 H   0  0  0  0  0  0  0  0  0  0  0  0
  139.7128   72.7709  220.4204 H   0  0  0  0  0  0  0  0  0  0  0  0
  138.6510   73.0720  223.1190 H   0  0  0  0  0  0  0  0  0  0  0  0
  141.4473   72.8814  225.1150 H   0  0  0  0  0  0  0  0  0  0  0  0
  141.4665   71.7567  227.3314 H   0  0  0  0  0  0  0  0  0  0  0  0
  140.9494   69.9002  228.6727 H   0  0  0  0  0  0  0  0  0  0  0  0
  139.9577   67.6001  228.8666 H   0  0  0  0  0  0  0  0  0  0  0  0
  138.9793   66.4725  226.9034 H   0  0  0  0  0  0  0  0  0  0  0  0
  138.9677   67.6060  224.6759 H   0  0  0  0  0  0  0  0  0  0  0  0
  142.1550   77.0950  221.7620 H   0  0  0  0  0  0  0  0  0  0  0  0
  142.2798   79.0756  219.5937 H   0  0  0  0  0  0  0  0  0  0  0  0
  140.6160   78.6138  220.1665 H   0  0  0  0  0  0  0  0  0  0  0  0
  143.3704   78.5894  222.6398 H   0  0  0  0  0  0  0  0  0  0  0  0
  143.3988   80.2489  224.4807 H   0  0  0  0  0  0  0  0  0  0  0  0
  141.8594   82.1919  224.4503 H   0  0  0  0  0  0  0  0  0  0  0  0
  140.2544   82.5029  222.5630 H   0  0  0  0  0  0  0  0  0  0  0  0
  140.2374   80.8288  220.7316 H   0  0  0  0  0  0  0  0  0  0  0  0
  1  2  1  0
  2  3  1  0
  2  4  1  0
  4  5  1  0
  5  6  1  0
  6  7  1  0
  7  8  2  0
  7  9  1  0
  9 10  1  0
 10 11  1  0
 11 12  2  0
 11 13  1  0
 13 14  2  0
 14 15  1  0
 15 16  2  0
 16 17  1  0
 17 18  2  0
 18 19  1  0
 19 20  2  0
 20 21  1  0
 21 22  2  0
  5 23  1  0
 23 24  2  0
 23 25  1  0
 25 26  1  0
 26 27  1  0
 27 28  2  0
 28 29  1  0
 29 30  2  0
 30 31  1  0
 31 32  2  0
 22 13  1  0
 32 27  1  0
 21 16  1  0
  1 33  1  0
  1 34  1  0
  1 35  1  0
  2 36  1  0
  3 37  1  0
  3 38  1  0
  3 39  1  0
  4 40  1  0
  4 41  1  0
  5 42  1  1
  6 43  1  0
  9 44  1  0
  9 45  1  0
 10 46  1  0
 14 47  1  0
 15 48  1  0
 17 49  1  0
 18 50  1  0
 19 51  1  0
 20 52  1  0
 25 53  1  0
 26 54  1  0
 26 55  1  0
 28 56  1  0
 29 57  1  0
 30 58  1  0
 31 59  1  0
 32 60  1  0
M  END
>  <smiles>  (4) 
CC(C)C[C@H](NC(=O)CNC(=O)c1ccc2ccccc2n1)C(=O)NCc1ccccc1

>  <score_type>  (4) 
oracle

>  <origin>  (4) 
autodockgpu

>  <m_score__min__energy>  (4) 
-10.23

>  <m_primary>  (4) 
energy

>  <rmsd>  (4) 
3.866476902878592

>  <m_score__min__rmsd>  (4) 
3.866476902878592

>  <meeko>  (4) 
{"free_energy": -10.03, "intermolecular_energy": -12.71, "internal_energy": -2.36, "cluster_size": 19, "cluster_id": 1, "rank_in_cluster": 6}

>  <energy>  (4) 
-10.1

>  <cluster_rmsd>  (4) 
0.29

>  <cluster>  (4) 
1

$$$$

     RDKit          3D

 60 62  0  0  0  0  0  0  0  0999 V2000
  145.3410   73.4980  220.8110 C   0  0  0  0  0  0  0  0  0  0  0  0
  144.2450   72.8690  219.8970 C   0  0  0  0  0  0  0  0  0  0  0  0
  143.5800   71.8520  220.8320 C   0  0  0  0  0  0  0  0  0  0  0  0
  143.2600   73.9090  219.5360 C   0  0  0  0  0  0  0  0  0  0  0  0
  142.9040   74.9840  220.4760 C   0  0  2  0  0  0  0  0  0  0  0  0
  141.6430   74.5100  221.1200 N   0  0  0  0  0  0  0  0  0  0  0  0
  140.4810   74.2780  220.3350 C   0  0  0  0  0  0  0  0  0  0  0  0
  140.5300   74.4760  219.0740 O   0  0  0  0  0  0  0  0  0  0  0  0
  139.2250   73.8080  220.9750 C   0  0  0  0  0  0  0  0  0  0  0  0
  139.4630   73.3110  222.3150 N   0  0  0  0  0  0  0  0  0  0  0  0
  139.5900   71.8800  222.4360 C   0  0  0  0  0  0  0  0  0  0  0  0
  139.4800   71.1890  221.3680 O   0  0  0  0  0  0  0  0  0  0  0  0
  139.8340   71.2350  223.7210 C   0  0  0  0  0  0  0  0  0  0  0  0
  139.5690   69.8760  223.8210 C   0  0  0  0  0  0  0  0  0  0  0  0
  139.7740   69.1890  224.9980 C   0  0  0  0  0  0  0  0  0  0  0  0
  140.2530   69.8990  226.0800 C   0  0  0  0  0  0  0  0  0  0  0  0
  140.4520   69.1860  227.2570 C   0  0  0  0  0  0  0  0  0  0  0  0
  140.9390   69.9050  228.3530 C   0  0  0  0  0  0  0  0  0  0  0  0
  141.2070   71.2580  228.2700 C   0  0  0  0  0  0  0  0  0  0  0  0
  140.9960   71.9430  227.0750 C   0  0  0  0  0  0  0  0  0  0  0  0
  140.5170   71.2520  225.9820 C   0  0  0  0  0  0  0  0  0  0  0  0
  140.2990   71.8840  224.8020 N   0  0  0  0  0  0  0  0  0  0  0  0
  142.6130   76.3200  219.9960 C   0  0  0  0  0  0  0  0  0  0  0  0
  142.8240   76.6570  218.8030 O   0  0  0  0  0  0  0  0  0  0  0  0
  142.0660   77.3500  220.8340 N   0  0  0  0  0  0  0  0  0  0  0  0
  141.7710   78.6860  220.3730 C   0  0  0  0  0  0  0  0  0  0  0  0
  141.8090   79.6840  221.4640 C   0  0  0  0  0  0  0  0  0  0  0  0
  141.3850   80.9850  221.3490 C   0  0  0  0  0  0  0  0  0  0  0  0
  141.4800   81.8280  222.4380 C   0  0  0  0  0  0  0  0  0  0  0  0
  141.9980   81.3730  223.6450 C   0  0  0  0  0  0  0  0  0  0  0  0
  142.4300   80.0640  223.7820 C   0  0  0  0  0  0  0  0  0  0  0  0
  142.3280   79.2350  222.6840 C   0  0  0  0  0  0  0  0  0  0  0  0
  145.0715   73.3433  221.8662 H   0  0  0  0  0  0  0  0  0  0  0  0
  146.3093   73.0182  220.6057 H   0  0  0  0  0  0  0  0  0  0  0  0
  145.4152   74.5761  220.6057 H   0  0  0  0  0  0  0  0  0  0  0  0
  144.6347   72.4340  218.9648 H   0  0  0  0  0  0  0  0  0  0  0  0
  143.7671   72.1381  221.8775 H   0  0  0  0  0  0  0  0  0  0  0  0
  142.4962   71.8356  220.6446 H   0  0  0  0  0  0  0  0  0  0  0  0
  143.9996   70.8526  220.6446 H   0  0  0  0  0  0  0  0  0  0  0  0
  143.6450   74.4017  218.6310 H   0  0  0  0  0  0  0  0  0  0  0  0
  142.3238   73.3360  219.4631 H   0  0  0  0  0  0  0  0  0  0  0  0
  143.8100   75.1260  221.0834 H   0  0  0  0  0  0  0  0  0  0  0  0
  141.6050   74.3530  222.1500 H   0  0  0  0  0  0  0  0  0  0  0  0
  138.5149   74.6465  221.0261 H   0  0  0  0  0  0  0  0  0  0  0  0
  138.8176   72.9847  220.3699 H   0  0  0  0  0  0  0  0  0  0  0  0
  139.5430   73.9210  223.1580 H   0  0  0  0  0  0  0  0  0  0  0  0
  139.1872   69.3359  222.9420 H   0  0  0  0  0  0  0  0  0  0  0  0
  139.5631   68.1120  225.0724 H   0  0  0  0  0  0  0  0  0  0  0  0
  140.2369   68.1092  227.3228 H   0  0  0  0  0  0  0  0  0  0  0  0
  141.1130   69.3808  229.3043 H   0  0  0  0  0  0  0  0  0  0  0  0
  141.5882   71.7962  229.1503 H   0  0  0  0  0  0  0  0  0  0  0  0
  141.2086   73.0200  227.0045 H   0  0  0  0  0  0  0  0  0  0  0  0
  141.8580   77.1570  221.8470 H   0  0  0  0  0  0  0  0  0  0  0  0
  142.5128   78.9679  219.6112 H   0  0  0  0  0  0  0  0  0  0  0  0
  140.7507   78.6796  219.9619 H   0  0  0  0  0  0  0  0  0  0  0  0
  140.9732   81.3522  220.3974 H   0  0  0  0  0  0  0  0  0  0  0  0
  141.1421   82.8711  222.3497 H   0  0  0  0  0  0  0  0  0  0  0  0
  142.0657   82.0603  224.5012 H   0  0  0  0  0  0  0  0  0  0  0  0
  142.8407   79.6978  224.7345 H   0  0  0  0  0  0  0  0  0  0  0  0
  142.6642   78.1911  222.7697 H   0  0  0  0  0  0  0  0  0  0  0  0
  1  2  1  0
  2  3  1  0
  2  4  1  0
  4  5  1  0
  5  6  1  0
  6  7  1  0
  7  8  2  0
  7  9  1  0
  9 10  1  0
 10 11  1  0
 11 12  2  0
 11 13  1  0
 13 14  2  0
 14 15  1  0
 15 16  2  0
 16 17  1  0
 17 18  2  0
 18 19  1  0
 19 20  2  0
 20 21  1  0
 21 22  2  0
  5 23  1  0
 23 24  2  0
 23 25  1  0
 25 26  1  0
 26 27  1  0
 27 28  2  0
 28 29  1  0
 29 30  2  0
 30 31  1  0
 31 32  2  0
 22 13  1  0
 32 27  1  0
 21 16  1  0
  1 33  1  0
  1 34  1  0
  1 35  1  0
  2 36  1  0
  3 37  1  0
  3 38  1  0
  3 39  1  0
  4 40  1  0
  4 41  1  0
  5 42  1  1
  6 43  1  0
  9 44  1  0
  9 45  1  0
 10 46  1  0
 14 47  1  0
 15 48  1  0
 17 49  1  0
 18 50  1  0
 19 51  1  0
 20 52  1  0
 25 53  1  0
 26 54  1  0
 26 55  1  0
 28 56  1  0
 29 57  1  0
 30 58  1  0
 31 59  1  0
 32 60  1  0
M  END
>  <smiles>  (5) 
CC(C)C[C@H](NC(=O)CNC(=O)c1ccc2ccccc2n1)C(=O)NCc1ccccc1

>  <score_type>  (5) 
oracle

>  <origin>  (5) 
autodockgpu

>  <m_score__min__energy>  (5) 
-10.23

>  <m_primary>  (5) 
energy

>  <rmsd>  (5) 
3.3613340311048794

>  <m_score__min__rmsd>  (5) 
3.3613340311048794

>  <meeko>  (5) 
{"free_energy": -9.25, "intermolecular_energy": -11.94, "internal_energy": -1.92, "cluster_size": 19, "cluster_id": 1, "rank_in_cluster": 12}

>  <energy>  (5) 
-10.1

>  <cluster_rmsd>  (5) 
0.19

>  <cluster>  (5) 
1

$$$$

     RDKit          3D

 60 62  0  0  0  0  0  0  0  0999 V2000
  141.6210   78.1150  219.0700 C   0  0  0  0  0  0  0  0  0  0  0  0
  141.8950   76.6260  218.6920 C   0  0  0  0  0  0  0  0  0  0  0  0
  143.3310   76.4200  219.1880 C   0  0  0  0  0  0  0  0  0  0  0  0
  140.9860   75.7560  219.4660 C   0  0  0  0  0  0  0  0  0  0  0  0
  141.2310   75.4690  220.8890 C   0  0  2  0  0  0  0  0  0  0  0  0
  140.4360   74.2330  221.1590 N   0  0  0  0  0  0  0  0  0  0  0  0
  139.0210   74.2480  221.0310 C   0  0  0  0  0  0  0  0  0  0  0  0
  138.4380   75.3290  220.6810 O   0  0  0  0  0  0  0  0  0  0  0  0
  138.2300   73.0200  221.3000 C   0  0  0  0  0  0  0  0  0  0  0  0
  138.4210   72.5500  222.6580 N   0  0  0  0  0  0  0  0  0  0  0  0
  139.5560   71.6860  222.8650 C   0  0  0  0  0  0  0  0  0  0  0  0
  140.2790   71.4140  221.8480 O   0  0  0  0  0  0  0  0  0  0  0  0
  139.8760   71.1370  224.1770 C   0  0  0  0  0  0  0  0  0  0  0  0
  140.6950   71.8900  225.0080 C   0  0  0  0  0  0  0  0  0  0  0  0
  141.0440   71.4450  226.2650 C   0  0  0  0  0  0  0  0  0  0  0  0
  140.5530   70.2230  226.6740 C   0  0  0  0  0  0  0  0  0  0  0  0
  140.9180   69.7950  227.9450 C   0  0  0  0  0  0  0  0  0  0  0  0
  140.4190   68.5560  228.3590 C   0  0  0  0  0  0  0  0  0  0  0  0
  139.6030   67.7950  227.5430 C   0  0  0  0  0  0  0  0  0  0  0  0
  139.2570   68.2530  226.2740 C   0  0  0  0  0  0  0  0  0  0  0  0
  139.7380   69.4730  225.8460 C   0  0  0  0  0  0  0  0  0  0  0  0
  139.4220   69.9520  224.6190 N   0  0  0  0  0  0  0  0  0  0  0  0
  140.8320   76.4130  221.9140 C   0  0  0  0  0  0  0  0  0  0  0  0
  141.4170   76.4710  223.0250 O   0  0  0  0  0  0  0  0  0  0  0  0
  139.7520   77.3430  221.7410 N   0  0  0  0  0  0  0  0  0  0  0  0
  139.3410   78.2900  222.7510 C   0  0  0  0  0  0  0  0  0  0  0  0
  140.3730   79.3170  223.0180 C   0  0  0  0  0  0  0  0  0  0  0  0
  141.4380   79.1530  223.8690 C   0  0  0  0  0  0  0  0  0  0  0  0
  142.3310   80.1890  224.0450 C   0  0  0  0  0  0  0  0  0  0  0  0
  142.1640   81.3940  223.3700 C   0  0  0  0  0  0  0  0  0  0  0  0
  141.0970   81.5790  222.5070 C   0  0  0  0  0  0  0  0  0  0  0  0
  140.2130   80.5320  222.3430 C   0  0  0  0  0  0  0  0  0  0  0  0
  141.6021   78.2178  220.1650 H   0  0  0  0  0  0  0  0  0  0  0  0
  142.4172   78.7510  218.6557 H   0  0  0  0  0  0  0  0  0  0  0  0
  140.6506   78.4259  218.6557 H   0  0  0  0  0  0  0  0  0  0  0  0
  141.7523   76.3999  217.6250 H   0  0  0  0  0  0  0  0  0  0  0  0
  143.3423   76.4184  220.2879 H   0  0  0  0  0  0  0  0  0  0  0  0
  143.7129   75.4579  218.8160 H   0  0  0  0  0  0  0  0  0  0  0  0
  143.9680   77.2360  218.8160 H   0  0  0  0  0  0  0  0  0  0  0  0
  139.9891   76.2174  219.4084 H   0  0  0  0  0  0  0  0  0  0  0  0
  141.1363   74.7736  218.9946 H   0  0  0  0  0  0  0  0  0  0  0  0
  142.3272   75.4476  220.9777 H   0  0  0  0  0  0  0  0  0  0  0  0
  140.9150   73.3530  221.4470 H   0  0  0  0  0  0  0  0  0  0  0  0
  137.1636   73.2410  221.1453 H   0  0  0  0  0  0  0  0  0  0  0  0
  138.5714   72.2327  220.6118 H   0  0  0  0  0  0  0  0  0  0  0  0
  137.7960   72.8010  223.4550 H   0  0  0  0  0  0  0  0  0  0  0  0
  141.0729   72.8612  224.6560 H   0  0  0  0  0  0  0  0  0  0  0  0
  141.6928   72.0448  226.9202 H   0  0  0  0  0  0  0  0  0  0  0  0
  141.5676   70.4012  228.5935 H   0  0  0  0  0  0  0  0  0  0  0  0
  140.6821   68.1779  229.3579 H   0  0  0  0  0  0  0  0  0  0  0  0
  139.2256   66.8243  227.8971 H   0  0  0  0  0  0  0  0  0  0  0  0
  138.6086   67.6497  225.6216 H   0  0  0  0  0  0  0  0  0  0  0  0
  139.2070   77.3640  220.8420 H   0  0  0  0  0  0  0  0  0  0  0  0
  138.4231   78.7921  222.4113 H   0  0  0  0  0  0  0  0  0  0  0  0
  139.1748   77.7323  223.6845 H   0  0  0  0  0  0  0  0  0  0  0  0
  141.5777   78.2031  224.4059 H   0  0  0  0  0  0  0  0  0  0  0  0
  143.1848   80.0612  224.7267 H   0  0  0  0  0  0  0  0  0  0  0  0
  142.8873   82.2084  223.5235 H   0  0  0  0  0  0  0  0  0  0  0  0
  140.9586   82.5290  221.9700 H   0  0  0  0  0  0  0  0  0  0  0  0
  139.3581   80.6563  221.6621 H   0  0  0  0  0  0  0  0  0  0  0  0
  1  2  1  0
  2  3  1  0
  2  4  1  0
  4  5  1  0
  5  6  1  0
  6  7  1  0
  7  8  2  0
  7  9  1  0
  9 10  1  0
 10 11  1  0
 11 12  2  0
 11 13  1  0
 13 14  2  0
 14 15  1  0
 15 16  2  0
 16 17  1  0
 17 18  2  0
 18 19  1  0
 19 20  2  0
 20 21  1  0
 21 22  2  0
  5 23  1  0
 23 24  2  0
 23 25  1  0
 25 26  1  0
 26 27  1  0
 27 28  2  0
 28 29  1  0
 29 30  2  0
 30 31  1  0
 31 32  2  0
 22 13  1  0
 32 27  1  0
 21 16  1  0
  1 33  1  0
  1 34  1  0
  1 35  1  0
  2 36  1  0
  3 37  1  0
  3 38  1  0
  3 39  1  0
  4 40  1  0
  4 41  1  0
  5 42  1  6
  6 43  1  0
  9 44  1  0
  9 45  1  0
 10 46  1  0
 14 47  1  0
 15 48  1  0
 17 49  1  0
 18 50  1  0
 19 51  1  0
 20 52  1  0
 25 53  1  0
 26 54  1  0
 26 55  1  0
 28 56  1  0
 29 57  1  0
 30 58  1  0
 31 59  1  0
 32 60  1  0
M  END
>  <smiles>  (6) 
CC(C)C[C@H](NC(=O)CNC(=O)c1ccc2ccccc2n1)C(=O)NCc1ccccc1

>  <score_type>  (6) 
oracle

>  <origin>  (6) 
autodockgpu

>  <m_score__min__energy>  (6) 
-10.23

>  <m_primary>  (6) 
energy

>  <rmsd>  (6) 
3.0966788551452624

>  <m_score__min__rmsd>  (6) 
3.0966788551452624

>  <meeko>  (6) 
{"free_energy": -8.06, "intermolecular_energy": -10.75, "internal_energy": -3.14, "cluster_size": 19, "cluster_id": 1, "rank_in_cluster": 19}

>  <energy>  (6) 
-10.03

>  <cluster_rmsd>  (6) 
0.64

>  <cluster>  (6) 
1

$$$$

     RDKit          3D

 60 62  0  0  0  0  0  0  0  0999 V2000
  135.0080   72.2220  224.5840 C   0  0  0  0  0  0  0  0  0  0  0  0
  134.3950   73.6450  224.4040 C   0  0  0  0  0  0  0  0  0  0  0  0
  133.6680   73.8610  225.7370 C   0  0  0  0  0  0  0  0  0  0  0  0
  135.4880   74.6310  224.2860 C   0  0  0  0  0  0  0  0  0  0  0  0
  136.1080   74.9330  222.9850 C   0  0  2  0  0  0  0  0  0  0  0  0
  136.9160   73.7170  222.6690 N   0  0  0  0  0  0  0  0  0  0  0  0
  136.7820   73.0740  221.4090 C   0  0  0  0  0  0  0  0  0  0  0  0
  135.9640   73.5500  220.5500 O   0  0  0  0  0  0  0  0  0  0  0  0
  137.5830   71.8640  221.0950 C   0  0  0  0  0  0  0  0  0  0  0  0
  137.9900   71.1670  222.2990 N   0  0  0  0  0  0  0  0  0  0  0  0
  139.0590   71.7830  223.0450 C   0  0  0  0  0  0  0  0  0  0  0  0
  139.5460   72.8690  222.5830 O   0  0  0  0  0  0  0  0  0  0  0  0
  139.5730   71.1990  224.2780 C   0  0  0  0  0  0  0  0  0  0  0  0
  140.5600   71.8980  224.9600 C   0  0  0  0  0  0  0  0  0  0  0  0
  141.0980   71.4170  226.1350 C   0  0  0  0  0  0  0  0  0  0  0  0
  140.6230   70.2130  226.6130 C   0  0  0  0  0  0  0  0  0  0  0  0
  141.1800   69.7480  227.7980 C   0  0  0  0  0  0  0  0  0  0  0  0
  140.6980   68.5280  228.2830 C   0  0  0  0  0  0  0  0  0  0  0  0
  139.7170   67.8210  227.6160 C   0  0  0  0  0  0  0  0  0  0  0  0
  139.1800   68.3150  226.4290 C   0  0  0  0  0  0  0  0  0  0  0  0
  139.6410   69.5160  225.9340 C   0  0  0  0  0  0  0  0  0  0  0  0
  139.1430   70.0300  224.7820 N   0  0  0  0  0  0  0  0  0  0  0  0
  137.0210   76.0490  222.8420 C   0  0  0  0  0  0  0  0  0  0  0  0
  136.6150   77.2390  222.8170 O   0  0  0  0  0  0  0  0  0  0  0  0
  138.4420   75.8850  222.7180 N   0  0  0  0  0  0  0  0  0  0  0  0
  139.3650   76.9860  222.5740 C   0  0  0  0  0  0  0  0  0  0  0  0
  140.4960   76.6630  221.6750 C   0  0  0  0  0  0  0  0  0  0  0  0
  141.1710   77.5800  220.9070 C   0  0  0  0  0  0  0  0  0  0  0  0
  142.2050   77.1560  220.0980 C   0  0  0  0  0  0  0  0  0  0  0  0
  142.5680   75.8150  220.0540 C   0  0  0  0  0  0  0  0  0  0  0  0
  141.9010   74.8750  220.8210 C   0  0  0  0  0  0  0  0  0  0  0  0
  140.8700   75.3160  221.6240 C   0  0  0  0  0  0  0  0  0  0  0  0
  135.1047   71.9974  225.6565 H   0  0  0  0  0  0  0  0  0  0  0  0
  134.3509   71.4772  224.1112 H   0  0  0  0  0  0  0  0  0  0  0  0
  136.0006   72.1879  224.1112 H   0  0  0  0  0  0  0  0  0  0  0  0
  133.7500   73.7465  223.5187 H   0  0  0  0  0  0  0  0  0  0  0  0
  134.3583   73.6559  226.5686 H   0  0  0  0  0  0  0  0  0  0  0  0
  133.3179   74.9020  225.7993 H   0  0  0  0  0  0  0  0  0  0  0  0
  132.8063   73.1801  225.7993 H   0  0  0  0  0  0  0  0  0  0  0  0
  135.0919   75.5824  224.6705 H   0  0  0  0  0  0  0  0  0  0  0  0
  136.3084   74.1450  224.8344 H   0  0  0  0  0  0  0  0  0  0  0  0
  135.2630   75.2135  222.3390 H   0  0  0  0  0  0  0  0  0  0  0  0
  137.5790   73.3290  223.3740 H   0  0  0  0  0  0  0  0  0  0  0  0
  136.9771   71.1851  220.4769 H   0  0  0  0  0  0  0  0  0  0  0  0
  138.4890   72.1807  220.5576 H   0  0  0  0  0  0  0  0  0  0  0  0
  137.5590   70.2760  222.6320 H   0  0  0  0  0  0  0  0  0  0  0  0
  140.9201   72.8551  224.5547 H   0  0  0  0  0  0  0  0  0  0  0  0
  141.8792   71.9741  226.6729 H   0  0  0  0  0  0  0  0  0  0  0  0
  141.9615   70.3117  228.3285 H   0  0  0  0  0  0  0  0  0  0  0  0
  141.1103   68.1217  229.2184 H   0  0  0  0  0  0  0  0  0  0  0  0
  139.3582   66.8643  228.0233 H   0  0  0  0  0  0  0  0  0  0  0  0
  138.3990   67.7544  225.8944 H   0  0  0  0  0  0  0  0  0  0  0  0
  138.8700   74.9250  222.7270 H   0  0  0  0  0  0  0  0  0  0  0  0
  138.8225   77.8498  222.1622 H   0  0  0  0  0  0  0  0  0  0  0  0
  139.7805   77.2064  223.5684 H   0  0  0  0  0  0  0  0  0  0  0  0
  140.8897   78.6430  220.9367 H   0  0  0  0  0  0  0  0  0  0  0  0
  142.7480   77.8871  219.4811 H   0  0  0  0  0  0  0  0  0  0  0  0
  143.3949   75.4969  219.4021 H   0  0  0  0  0  0  0  0  0  0  0  0
  142.1838   73.8124  220.7910 H   0  0  0  0  0  0  0  0  0  0  0  0
  140.3258   74.5871  222.2425 H   0  0  0  0  0  0  0  0  0  0  0  0
  1  2  1  0
  2  3  1  0
  2  4  1  0
  4  5  1  0
  5  6  1  0
  6  7  1  0
  7  8  2  0
  7  9  1  0
  9 10  1  0
 10 11  1  0
 11 12  2  0
 11 13  1  0
 13 14  2  0
 14 15  1  0
 15 16  2  0
 16 17  1  0
 17 18  2  0
 18 19  1  0
 19 20  2  0
 20 21  1  0
 21 22  2  0
  5 23  1  0
 23 24  2  0
 23 25  1  0
 25 26  1  0
 26 27  1  0
 27 28  2  0
 28 29  1  0
 29 30  2  0
 30 31  1  0
 31 32  2  0
 22 13  1  0
 32 27  1  0
 21 16  1  0
  1 33  1  0
  1 34  1  0
  1 35  1  0
  2 36  1  0
  3 37  1  0
  3 38  1  0
  3 39  1  0
  4 40  1  0
  4 41  1  0
  5 42  1  6
  6 43  1  0
  9 44  1  0
  9 45  1  0
 10 46  1  0
 14 47  1  0
 15 48  1  0
 17 49  1  0
 18 50  1  0
 19 51  1  0
 20 52  1  0
 25 53  1  0
 26 54  1  0
 26 55  1  0
 28 56  1  0
 29 57  1  0
 30 58  1  0
 31 59  1  0
 32 60  1  0
M  END
>  <smiles>  (7) 
CC(C)C[C@H](NC(=O)CNC(=O)c1ccc2ccccc2n1)C(=O)NCc1ccccc1

>  <score_type>  (7) 
oracle

>  <origin>  (7) 
autodockgpu

>  <m_score__min__energy>  (7) 
-10.23

>  <m_primary>  (7) 
energy

>  <rmsd>  (7) 
5.597425018749265

>  <m_score__min__rmsd>  (7) 
5.597425018749265

>  <meeko>  (7) 
{"free_energy": -7.54, "intermolecular_energy": -10.23, "internal_energy": -3.62, "cluster_size": 4, "cluster_id": 4, "rank_in_cluster": 4}

>  <energy>  (7) 
-9.97

>  <cluster_rmsd>  (7) 
0.38

>  <cluster>  (7) 
1

$$$$

     RDKit          3D

 60 62  0  0  0  0  0  0  0  0999 V2000
  142.1820   77.7200  218.8810 C   0  0  0  0  0  0  0  0  0  0  0  0
  142.4960   76.1990  218.7330 C   0  0  0  0  0  0  0  0  0  0  0  0
  143.6870   76.0150  219.6810 C   0  0  0  0  0  0  0  0  0  0  0  0
  141.3510   75.4160  219.2400 C   0  0  0  0  0  0  0  0  0  0  0  0
  141.3020   74.9470  220.6340 C   0  0  2  0  0  0  0  0  0  0  0  0
  140.3810   73.7720  220.5970 N   0  0  0  0  0  0  0  0  0  0  0  0
  140.8460   72.5110  220.1350 C   0  0  0  0  0  0  0  0  0  0  0  0
  142.0600   72.3950  219.7540 O   0  0  0  0  0  0  0  0  0  0  0  0
  139.9300   71.3420  220.0960 C   0  0  0  0  0  0  0  0  0  0  0  0
  140.0600   70.5240  221.2850 N   0  0  0  0  0  0  0  0  0  0  0  0
  139.6790   71.1570  222.5220 C   0  0  0  0  0  0  0  0  0  0  0  0
  139.2700   72.3660  222.4610 O   0  0  0  0  0  0  0  0  0  0  0  0
  139.7520   70.4580  223.7990 C   0  0  0  0  0  0  0  0  0  0  0  0
  139.1790   69.1960  223.8780 C   0  0  0  0  0  0  0  0  0  0  0  0
  139.2060   68.4670  225.0470 C   0  0  0  0  0  0  0  0  0  0  0  0
  139.8240   69.0330  226.1430 C   0  0  0  0  0  0  0  0  0  0  0  0
  139.8400   68.2800  227.3110 C   0  0  0  0  0  0  0  0  0  0  0  0
  140.4670   68.8540  228.4210 C   0  0  0  0  0  0  0  0  0  0  0  0
  141.0420   70.1090  228.3590 C   0  0  0  0  0  0  0  0  0  0  0  0
  141.0080   70.8390  227.1730 C   0  0  0  0  0  0  0  0  0  0  0  0
  140.3950   70.2900  226.0660 C   0  0  0  0  0  0  0  0  0  0  0  0
  140.3420   70.9690  224.8930 N   0  0  0  0  0  0  0  0  0  0  0  0
  140.7910   75.8030  221.6860 C   0  0  0  0  0  0  0  0  0  0  0  0
  139.7660   75.5000  222.3480 O   0  0  0  0  0  0  0  0  0  0  0  0
  141.4070   77.0480  222.0480 N   0  0  0  0  0  0  0  0  0  0  0  0
  140.9100   77.9140  223.0920 C   0  0  0  0  0  0  0  0  0  0  0  0
  141.2610   79.3330  222.8650 C   0  0  0  0  0  0  0  0  0  0  0  0
  141.8070   80.1640  223.8120 C   0  0  0  0  0  0  0  0  0  0  0  0
  142.0830   81.4760  223.4850 C   0  0  0  0  0  0  0  0  0  0  0  0
  141.8130   81.9620  222.2100 C   0  0  0  0  0  0  0  0  0  0  0  0
  141.2620   81.1400  221.2410 C   0  0  0  0  0  0  0  0  0  0  0  0
  140.9930   79.8320  221.5860 C   0  0  0  0  0  0  0  0  0  0  0  0
  142.1281   77.9811  219.9482 H   0  0  0  0  0  0  0  0  0  0  0  0
  142.9779   78.3072  218.3996 H   0  0  0  0  0  0  0  0  0  0  0  0
  141.2187   77.9441  218.3996 H   0  0  0  0  0  0  0  0  0  0  0  0
  142.6917   75.8809  217.6983 H   0  0  0  0  0  0  0  0  0  0  0  0
  143.3381   76.0689  220.7228 H   0  0  0  0  0  0  0  0  0  0  0  0
  144.1515   75.0344  219.5001 H   0  0  0  0  0  0  0  0  0  0  0  0
  144.4258   76.8097  219.5001 H   0  0  0  0  0  0  0  0  0  0  0  0
  140.4570   76.0391  219.0898 H   0  0  0  0  0  0  0  0  0  0  0  0
  141.4364   74.4759  218.6752 H   0  0  0  0  0  0  0  0  0  0  0  0
  142.3574   74.8088  220.9116 H   0  0  0  0  0  0  0  0  0  0  0  0
  139.3900   73.8710  220.9040 H   0  0  0  0  0  0  0  0  0  0  0  0
  138.8934   71.7027  220.0222 H   0  0  0  0  0  0  0  0  0  0  0  0
  140.1941   70.7263  219.2236 H   0  0  0  0  0  0  0  0  0  0  0  0
  140.4020   69.5380  221.2810 H   0  0  0  0  0  0  0  0  0  0  0  0
  138.6930   68.7689  222.9884 H   0  0  0  0  0  0  0  0  0  0  0  0
  138.7502   67.4675  225.1044 H   0  0  0  0  0  0  0  0  0  0  0  0
  139.3817   67.2812  227.3598 H   0  0  0  0  0  0  0  0  0  0  0  0
  140.5035   68.2930  229.3665 H   0  0  0  0  0  0  0  0  0  0  0  0
  141.5285   70.5333  229.2497 H   0  0  0  0  0  0  0  0  0  0  0  0
  141.4634   71.8389  227.1201 H   0  0  0  0  0  0  0  0  0  0  0  0
  142.2690   77.3820  221.5460 H   0  0  0  0  0  0  0  0  0  0  0  0
  139.8145   77.8238  223.1336 H   0  0  0  0  0  0  0  0  0  0  0  0
  141.3775   77.6008  224.0372 H   0  0  0  0  0  0  0  0  0  0  0  0
  142.0226   79.7871  224.8227 H   0  0  0  0  0  0  0  0  0  0  0  0
  142.5212   82.1445  224.2407 H   0  0  0  0  0  0  0  0  0  0  0  0
  142.0397   83.0110  221.9686 H   0  0  0  0  0  0  0  0  0  0  0  0
  141.0462   81.5175  220.2306 H   0  0  0  0  0  0  0  0  0  0  0  0
  140.5545   79.1610  220.8327 H   0  0  0  0  0  0  0  0  0  0  0  0
  1  2  1  0
  2  3  1  0
  2  4  1  0
  4  5  1  0
  5  6  1  0
  6  7  1  0
  7  8  2  0
  7  9  1  0
  9 10  1  0
 10 11  1  0
 11 12  2  0
 11 13  1  0
 13 14  2  0
 14 15  1  0
 15 16  2  0
 16 17  1  0
 17 18  2  0
 18 19  1  0
 19 20  2  0
 20 21  1  0
 21 22  2  0
  5 23  1  0
 23 24  2  0
 23 25  1  0
 25 26  1  0
 26 27  1  0
 27 28  2  0
 28 29  1  0
 29 30  2  0
 30 31  1  0
 31 32  2  0
 22 13  1  0
 32 27  1  0
 21 16  1  0
  1 33  1  0
  1 34  1  0
  1 35  1  0
  2 36  1  0
  3 37  1  0
  3 38  1  0
  3 39  1  0
  4 40  1  0
  4 41  1  0
  5 42  1  1
  6 43  1  0
  9 44  1  0
  9 45  1  0
 10 46  1  0
 14 47  1  0
 15 48  1  0
 17 49  1  0
 18 50  1  0
 19 51  1  0
 20 52  1  0
 25 53  1  0
 26 54  1  0
 26 55  1  0
 28 56  1  0
 29 57  1  0
 30 58  1  0
 31 59  1  0
 32 60  1  0
M  END
>  <smiles>  (8) 
CC(C)C[C@H](NC(=O)CNC(=O)c1ccc2ccccc2n1)C(=O)NCc1ccccc1

>  <score_type>  (8) 
oracle

>  <origin>  (8) 
autodockgpu

>  <m_score__min__energy>  (8) 
-10.23

>  <m_primary>  (8) 
energy

>  <rmsd>  (8) 
2.53741859690208

>  <m_score__min__rmsd>  (8) 
2.53741859690208

>  <meeko>  (8) 
{"free_energy": -8.34, "intermolecular_energy": -11.03, "internal_energy": -2.99, "cluster_size": 19, "cluster_id": 1, "rank_in_cluster": 17}

>  <energy>  (8) 
-9.93

>  <cluster_rmsd>  (8) 
0.29

>  <cluster>  (8) 
1

$$$$

     RDKit          3D

 60 62  0  0  0  0  0  0  0  0999 V2000
  134.5550   73.2050  224.9480 C   0  0  0  0  0  0  0  0  0  0  0  0
  135.8220   73.1560  224.0380 C   0  0  0  0  0  0  0  0  0  0  0  0
  136.0300   71.6490  223.8470 C   0  0  0  0  0  0  0  0  0  0  0  0
  135.5040   73.7690  222.7330 C   0  0  0  0  0  0  0  0  0  0  0  0
  136.4080   74.7490  222.1080 C   0  0  2  0  0  0  0  0  0  0  0  0
  137.7370   74.0690  222.0930 N   0  0  0  0  0  0  0  0  0  0  0  0
  138.6650   74.3330  221.0490 C   0  0  0  0  0  0  0  0  0  0  0  0
  138.3490   75.1590  220.1270 O   0  0  0  0  0  0  0  0  0  0  0  0
  139.9870   73.6560  221.0310 C   0  0  0  0  0  0  0  0  0  0  0  0
  140.2750   73.0160  222.2990 N   0  0  0  0  0  0  0  0  0  0  0  0
  139.4700   71.8630  222.6130 C   0  0  0  0  0  0  0  0  0  0  0  0
  138.5850   71.5150  221.7600 O   0  0  0  0  0  0  0  0  0  0  0  0
  139.6470   71.1140  223.8520 C   0  0  0  0  0  0  0  0  0  0  0  0
  139.1480   69.8190  223.9000 C   0  0  0  0  0  0  0  0  0  0  0  0
  139.2760   69.0430  225.0320 C   0  0  0  0  0  0  0  0  0  0  0  0
  139.9170   69.5960  226.1210 C   0  0  0  0  0  0  0  0  0  0  0  0
  140.0340   68.7950  227.2510 C   0  0  0  0  0  0  0  0  0  0  0  0
  140.6840   69.3550  228.3540 C   0  0  0  0  0  0  0  0  0  0  0  0
  141.1860   70.6420  228.3220 C   0  0  0  0  0  0  0  0  0  0  0  0
  141.0510   71.4190  227.1740 C   0  0  0  0  0  0  0  0  0  0  0  0
  140.4130   70.8850  226.0740 C   0  0  0  0  0  0  0  0  0  0  0  0
  140.2630   71.6100  224.9380 N   0  0  0  0  0  0  0  0  0  0  0  0
  136.6420   76.0380  222.7280 C   0  0  0  0  0  0  0  0  0  0  0  0
  136.1330   76.3440  223.8360 O   0  0  0  0  0  0  0  0  0  0  0  0
  137.4650   77.0530  222.1320 N   0  0  0  0  0  0  0  0  0  0  0  0
  137.7080   78.3430  222.7350 C   0  0  0  0  0  0  0  0  0  0  0  0
  139.1470   78.5920  222.9760 C   0  0  0  0  0  0  0  0  0  0  0  0
  140.1520   77.6960  222.7070 C   0  0  0  0  0  0  0  0  0  0  0  0
  141.4590   78.0390  222.9850 C   0  0  0  0  0  0  0  0  0  0  0  0
  141.7660   79.2800  223.5320 C   0  0  0  0  0  0  0  0  0  0  0  0
  140.7670   80.1990  223.8090 C   0  0  0  0  0  0  0  0  0  0  0  0
  139.4660   79.8390  223.5260 C   0  0  0  0  0  0  0  0  0  0  0  0
  134.8616   73.1931  226.0043 H   0  0  0  0  0  0  0  0  0  0  0  0
  133.9899   74.1257  224.7405 H   0  0  0  0  0  0  0  0  0  0  0  0
  133.9205   72.3307  224.7405 H   0  0  0  0  0  0  0  0  0  0  0  0
  136.6945   73.6808  224.4543 H   0  0  0  0  0  0  0  0  0  0  0  0
  136.0974   71.1606  224.8303 H   0  0  0  0  0  0  0  0  0  0  0  0
  135.1812   71.2298  223.2868 H   0  0  0  0  0  0  0  0  0  0  0  0
  136.9606   71.4754  223.2868 H   0  0  0  0  0  0  0  0  0  0  0  0
  135.3999   72.9405  222.0169 H   0  0  0  0  0  0  0  0  0  0  0  0
  134.6166   74.3764  222.9644 H   0  0  0  0  0  0  0  0  0  0  0  0
  135.9152   75.0098  221.1598 H   0  0  0  0  0  0  0  0  0  0  0  0
  137.9900   73.3920  222.8440 H   0  0  0  0  0  0  0  0  0  0  0  0
  139.9871   72.8937  220.2380 H   0  0  0  0  0  0  0  0  0  0  0  0
  140.7605   74.4157  220.8451 H   0  0  0  0  0  0  0  0  0  0  0  0
  141.0100   73.3430  222.9640 H   0  0  0  0  0  0  0  0  0  0  0  0
  138.6403   69.4041  223.0168 H   0  0  0  0  0  0  0  0  0  0  0  0
  138.8803   68.0172  225.0658 H   0  0  0  0  0  0  0  0  0  0  0  0
  139.6344   67.7704  227.2758 H   0  0  0  0  0  0  0  0  0  0  0  0
  140.7988   68.7568  229.2699 H   0  0  0  0  0  0  0  0  0  0  0  0
  141.6940   71.0543  229.2063 H   0  0  0  0  0  0  0  0  0  0  0  0
  141.4478   72.4445  227.1450 H   0  0  0  0  0  0  0  0  0  0  0  0
  137.9310   76.8840  221.2040 H   0  0  0  0  0  0  0  0  0  0  0  0
  137.3219   79.1247  222.0643 H   0  0  0  0  0  0  0  0  0  0  0  0
  137.1975   78.3590  223.7092 H   0  0  0  0  0  0  0  0  0  0  0  0
  139.9169   76.7128  222.2734 H   0  0  0  0  0  0  0  0  0  0  0  0
  142.2667   77.3233  222.7717 H   0  0  0  0  0  0  0  0  0  0  0  0
  142.8142   79.5350  223.7473 H   0  0  0  0  0  0  0  0  0  0  0  0
  141.0035   81.1829  224.2402 H   0  0  0  0  0  0  0  0  0  0  0  0
  138.6560   80.5522  223.7386 H   0  0  0  0  0  0  0  0  0  0  0  0
  1  2  1  0
  2  3  1  0
  2  4  1  0
  4  5  1  0
  5  6  1  0
  6  7  1  0
  7  8  2  0
  7  9  1  0
  9 10  1  0
 10 11  1  0
 11 12  2  0
 11 13  1  0
 13 14  2  0
 14 15  1  0
 15 16  2  0
 16 17  1  0
 17 18  2  0
 18 19  1  0
 19 20  2  0
 20 21  1  0
 21 22  2  0
  5 23  1  0
 23 24  2  0
 23 25  1  0
 25 26  1  0
 26 27  1  0
 27 28  2  0
 28 29  1  0
 29 30  2  0
 30 31  1  0
 31 32  2  0
 22 13  1  0
 32 27  1  0
 21 16  1  0
  1 33  1  0
  1 34  1  0
  1 35  1  0
  2 36  1  0
  3 37  1  0
  3 38  1  0
  3 39  1  0
  4 40  1  0
  4 41  1  0
  5 42  1  6
  6 43  1  0
  9 44  1  0
  9 45  1  0
 10 46  1  0
 14 47  1  0
 15 48  1  0
 17 49  1  0
 18 50  1  0
 19 51  1  0
 20 52  1  0
 25 53  1  0
 26 54  1  0
 26 55  1  0
 28 56  1  0
 29 57  1  0
 30 58  1  0
 31 59  1  0
 32 60  1  0
M  END
>  <smiles>  (9) 
CC(C)C[C@H](NC(=O)CNC(=O)c1ccc2ccccc2n1)C(=O)NCc1ccccc1

>  <score_type>  (9) 
oracle

>  <origin>  (9) 
autodockgpu

>  <m_score__min__energy>  (9) 
-10.23

>  <m_primary>  (9) 
energy

>  <rmsd>  (9) 
4.591067693387111

>  <m_score__min__rmsd>  (9) 
4.591067693387111

>  <meeko>  (9) 
{"free_energy": -7.51, "intermolecular_energy": -10.19, "internal_energy": -3.53, "cluster_size": 5, "cluster_id": 3, "rank_in_cluster": 5}

>  <energy>  (9) 
-9.84

>  <cluster_rmsd>  (9) 
0.35

>  <cluster>  (9) 
1

$$$$

     RDKit          3D

 60 62  0  0  0  0  0  0  0  0999 V2000
  144.8360   74.0740  220.4830 C   0  0  0  0  0  0  0  0  0  0  0  0
  143.8160   74.9360  219.6770 C   0  0  0  0  0  0  0  0  0  0  0  0
  144.0430   74.4560  218.2390 C   0  0  0  0  0  0  0  0  0  0  0  0
  142.4450   74.5800  220.0950 C   0  0  0  0  0  0  0  0  0  0  0  0
  141.7920   75.2500  221.2310 C   0  0  2  0  0  0  0  0  0  0  0  0
  140.6220   74.3800  221.5530 N   0  0  0  0  0  0  0  0  0  0  0  0
  139.5350   74.2760  220.6440 C   0  0  0  0  0  0  0  0  0  0  0  0
  139.5720   74.9340  219.5490 O   0  0  0  0  0  0  0  0  0  0  0  0
  138.3700   73.4120  220.9630 C   0  0  0  0  0  0  0  0  0  0  0  0
  138.4810   72.8350  222.2880 N   0  0  0  0  0  0  0  0  0  0  0  0
  139.5650   71.9030  222.4730 C   0  0  0  0  0  0  0  0  0  0  0  0
  140.3160   71.6700  221.4670 O   0  0  0  0  0  0  0  0  0  0  0  0
  139.8040   71.2450  223.7520 C   0  0  0  0  0  0  0  0  0  0  0  0
  139.4730   69.9000  223.8570 C   0  0  0  0  0  0  0  0  0  0  0  0
  139.6700   69.2030  225.0300 C   0  0  0  0  0  0  0  0  0  0  0  0
  140.2070   69.8860  226.1010 C   0  0  0  0  0  0  0  0  0  0  0  0
  140.3960   69.1630  227.2730 C   0  0  0  0  0  0  0  0  0  0  0  0
  140.9420   69.8550  228.3580 C   0  0  0  0  0  0  0  0  0  0  0  0
  141.2770   71.1930  228.2690 C   0  0  0  0  0  0  0  0  0  0  0  0
  141.0730   71.8890  227.0790 C   0  0  0  0  0  0  0  0  0  0  0  0
  140.5360   71.2250  225.9970 C   0  0  0  0  0  0  0  0  0  0  0  0
  140.3240   71.8680  224.8220 N   0  0  0  0  0  0  0  0  0  0  0  0
  141.2500   76.5870  221.0900 C   0  0  0  0  0  0  0  0  0  0  0  0
  140.0860   76.8740  221.4690 O   0  0  0  0  0  0  0  0  0  0  0  0
  141.9910   77.6730  220.5130 N   0  0  0  0  0  0  0  0  0  0  0  0
  141.4660   79.0100  220.3630 C   0  0  0  0  0  0  0  0  0  0  0  0
  141.7340   79.8590  221.5450 C   0  0  0  0  0  0  0  0  0  0  0  0
  141.5120   81.2130  221.6010 C   0  0  0  0  0  0  0  0  0  0  0  0
  141.8120   81.9020  222.7590 C   0  0  0  0  0  0  0  0  0  0  0  0
  142.3340   81.2400  223.8640 C   0  0  0  0  0  0  0  0  0  0  0  0
  142.5640   79.8740  223.8280 C   0  0  0  0  0  0  0  0  0  0  0  0
  142.2590   79.2020  222.6630 C   0  0  0  0  0  0  0  0  0  0  0  0
  144.6665   74.2173  221.5604 H   0  0  0  0  0  0  0  0  0  0  0  0
  144.7007   73.0124  220.2285 H   0  0  0  0  0  0  0  0  0  0  0  0
  145.8601   74.3844  220.2285 H   0  0  0  0  0  0  0  0  0  0  0  0
  143.9398   76.0206  219.8126 H   0  0  0  0  0  0  0  0  0  0  0  0
  144.5132   73.4617  218.2543 H   0  0  0  0  0  0  0  0  0  0  0  0
  143.0774   74.3969  217.7154 H   0  0  0  0  0  0  0  0  0  0  0  0
  144.7013   75.1649  217.7154 H   0  0  0  0  0  0  0  0  0  0  0  0
  141.7994   74.7501  219.2208 H   0  0  0  0  0  0  0  0  0  0  0  0
  142.5687   73.5514  220.4647 H   0  0  0  0  0  0  0  0  0  0  0  0
  142.5976   75.3804  221.9686 H   0  0  0  0  0  0  0  0  0  0  0  0
  140.5940   73.8470  222.4480 H   0  0  0  0  0  0  0  0  0  0  0  0
  137.4526   74.0168  220.9127 H   0  0  0  0  0  0  0  0  0  0  0  0
  138.3398   72.5910  220.2315 H   0  0  0  0  0  0  0  0  0  0  0  0
  137.8360   73.0580  223.0780 H   0  0  0  0  0  0  0  0  0  0  0  0
  139.0452   69.3807  222.9868 H   0  0  0  0  0  0  0  0  0  0  0  0
  139.4076   68.1377  225.1091 H   0  0  0  0  0  0  0  0  0  0  0  0
  140.1289   68.0982  227.3433 H   0  0  0  0  0  0  0  0  0  0  0  0
  141.1091   69.3218  229.3055 H   0  0  0  0  0  0  0  0  0  0  0  0
  141.7059   71.7100  229.1400 H   0  0  0  0  0  0  0  0  0  0  0  0
  141.3370   72.9542  227.0042 H   0  0  0  0  0  0  0  0  0  0  0  0
  142.9730   77.5240  220.1670 H   0  0  0  0  0  0  0  0  0  0  0  0
  141.9315   79.4751  219.4815 H   0  0  0  0  0  0  0  0  0  0  0  0
  140.3749   78.9302  220.2488 H   0  0  0  0  0  0  0  0  0  0  0  0
  141.0987   81.7439  220.7308 H   0  0  0  0  0  0  0  0  0  0  0  0
  141.6360   82.9867  222.8077 H   0  0  0  0  0  0  0  0  0  0  0  0
  142.5672   81.8068  224.7774 H   0  0  0  0  0  0  0  0  0  0  0  0
  142.9759   79.3436  224.6992 H   0  0  0  0  0  0  0  0  0  0  0  0
  142.4337   78.1172  222.6113 H   0  0  0  0  0  0  0  0  0  0  0  0
  1  2  1  0
  2  3  1  0
  2  4  1  0
  4  5  1  0
  5  6  1  0
  6  7  1  0
  7  8  2  0
  7  9  1  0
  9 10  1  0
 10 11  1  0
 11 12  2  0
 11 13  1  0
 13 14  2  0
 14 15  1  0
 15 16  2  0
 16 17  1  0
 17 18  2  0
 18 19  1  0
 19 20  2  0
 20 21  1  0
 21 22  2  0
  5 23  1  0
 23 24  2  0
 23 25  1  0
 25 26  1  0
 26 27  1  0
 27 28  2  0
 28 29  1  0
 29 30  2  0
 30 31  1  0
 31 32  2  0
 22 13  1  0
 32 27  1  0
 21 16  1  0
  1 33  1  0
  1 34  1  0
  1 35  1  0
  2 36  1  0
  3 37  1  0
  3 38  1  0
  3 39  1  0
  4 40  1  0
  4 41  1  0
  5 42  1  1
  6 43  1  0
  9 44  1  0
  9 45  1  0
 10 46  1  0
 14 47  1  0
 15 48  1  0
 17 49  1  0
 18 50  1  0
 19 51  1  0
 20 52  1  0
 25 53  1  0
 26 54  1  0
 26 55  1  0
 28 56  1  0
 29 57  1  0
 30 58  1  0
 31 59  1  0
 32 60  1  0
M  END
>  <smiles>  (10) 
CC(C)C[C@H](NC(=O)CNC(=O)c1ccc2ccccc2n1)C(=O)NCc1ccccc1

>  <score_type>  (10) 
oracle

>  <origin>  (10) 
autodockgpu

>  <m_score__min__energy>  (10) 
-10.23

>  <m_primary>  (10) 
energy

>  <rmsd>  (10) 
2.9778305519128825

>  <m_score__min__rmsd>  (10) 
2.9778305519128825

>  <meeko>  (10) 
{"free_energy": -9.1, "intermolecular_energy": -11.78, "internal_energy": -1.96, "cluster_size": 19, "cluster_id": 1, "rank_in_cluster": 13}

>  <energy>  (10) 
-9.69

>  <cluster_rmsd>  (10) 
0.66

>  <cluster>  (10) 
1

$$$$

     RDKit          3D

 60 62  0  0  0  0  0  0  0  0999 V2000
  141.5280   79.5810  221.2920 C   0  0  0  0  0  0  0  0  0  0  0  0
  141.0780   78.3610  222.1530 C   0  0  0  0  0  0  0  0  0  0  0  0
  140.6220   79.0280  223.4560 C   0  0  0  0  0  0  0  0  0  0  0  0
  139.9170   77.7150  221.5080 C   0  0  0  0  0  0  0  0  0  0  0  0
  140.0170   77.1330  220.1600 C   0  0  2  0  0  0  0  0  0  0  0  0
  139.3520   75.8010  220.2820 N   0  0  0  0  0  0  0  0  0  0  0  0
  139.7330   74.9010  221.3140 C   0  0  0  0  0  0  0  0  0  0  0  0
  140.6480   75.2460  222.1360 O   0  0  0  0  0  0  0  0  0  0  0  0
  139.0740   73.5760  221.4360 C   0  0  0  0  0  0  0  0  0  0  0  0
  139.4270   72.9170  222.6780 N   0  0  0  0  0  0  0  0  0  0  0  0
  139.0830   71.5200  222.7620 C   0  0  0  0  0  0  0  0  0  0  0  0
  138.5030   70.9970  221.7510 O   0  0  0  0  0  0  0  0  0  0  0  0
  139.3780   70.7240  223.9470 C   0  0  0  0  0  0  0  0  0  0  0  0
  139.0240   69.3820  223.9280 C   0  0  0  0  0  0  0  0  0  0  0  0
  139.2700   68.5600  225.0070 C   0  0  0  0  0  0  0  0  0  0  0  0
  139.8820   69.1150  226.1110 C   0  0  0  0  0  0  0  0  0  0  0  0
  140.1200   68.2660  227.1870 C   0  0  0  0  0  0  0  0  0  0  0  0
  140.7420   68.8290  228.3050 C   0  0  0  0  0  0  0  0  0  0  0  0
  141.1010   70.1630  228.3400 C   0  0  0  0  0  0  0  0  0  0  0  0
  140.8470   70.9860  227.2450 C   0  0  0  0  0  0  0  0  0  0  0  0
  140.2350   70.4510  226.1310 C   0  0  0  0  0  0  0  0  0  0  0  0
  139.9720   71.2200  225.0460 N   0  0  0  0  0  0  0  0  0  0  0  0
  141.3110   76.8630  219.5640 C   0  0  0  0  0  0  0  0  0  0  0  0
  141.5520   77.1230  218.3580 O   0  0  0  0  0  0  0  0  0  0  0  0
  142.4030   76.2870  220.2970 N   0  0  0  0  0  0  0  0  0  0  0  0
  143.6970   76.0110  219.7190 C   0  0  0  0  0  0  0  0  0  0  0  0
  144.1580   74.6320  219.9940 C   0  0  0  0  0  0  0  0  0  0  0  0
  145.4030   74.3050  220.4740 C   0  0  0  0  0  0  0  0  0  0  0  0
  145.7220   72.9790  220.6820 C   0  0  0  0  0  0  0  0  0  0  0  0
  144.7990   71.9750  220.4120 C   0  0  0  0  0  0  0  0  0  0  0  0
  143.5380   72.2840  219.9290 C   0  0  0  0  0  0  0  0  0  0  0  0
  143.2360   73.6150  219.7260 C   0  0  0  0  0  0  0  0  0  0  0  0
  141.8319   80.4050  221.9543 H   0  0  0  0  0  0  0  0  0  0  0  0
  142.3774   79.2884  220.6572 H   0  0  0  0  0  0  0  0  0  0  0  0
  140.6921   79.9101  220.6572 H   0  0  0  0  0  0  0  0  0  0  0  0
  141.8572   77.5966  222.2892 H   0  0  0  0  0  0  0  0  0  0  0  0
  141.0104   78.4599  224.3142 H   0  0  0  0  0  0  0  0  0  0  0  0
  141.0056   80.0582  223.4943 H   0  0  0  0  0  0  0  0  0  0  0  0
  139.5228   79.0444  223.4943 H   0  0  0  0  0  0  0  0  0  0  0  0
  139.6033   76.8997  222.1765 H   0  0  0  0  0  0  0  0  0  0  0  0
  139.2298   78.5597  221.3527 H   0  0  0  0  0  0  0  0  0  0  0  0
  139.5898   77.9017  219.4993 H   0  0  0  0  0  0  0  0  0  0  0  0
  138.6080   75.5210  219.6080 H   0  0  0  0  0  0  0  0  0  0  0  0
  137.9834   73.7153  221.4032 H   0  0  0  0  0  0  0  0  0  0  0  0
  139.4145   72.9442  220.6024 H   0  0  0  0  0  0  0  0  0  0  0  0
  139.9000   73.3930  223.4770 H   0  0  0  0  0  0  0  0  0  0  0  0
  138.5372   68.9659  223.0336 H   0  0  0  0  0  0  0  0  0  0  0  0
  138.9876   67.4970  224.9879 H   0  0  0  0  0  0  0  0  0  0  0  0
  139.8330   67.2045  227.1594 H   0  0  0  0  0  0  0  0  0  0  0  0
  140.9510   68.1943  229.1788 H   0  0  0  0  0  0  0  0  0  0  0  0
  141.5888   70.5763  229.2351 H   0  0  0  0  0  0  0  0  0  0  0  0
  141.1308   72.0485  227.2687 H   0  0  0  0  0  0  0  0  0  0  0  0
  142.2900   76.0370  221.3120 H   0  0  0  0  0  0  0  0  0  0  0  0
  143.6340   76.1513  218.6298 H   0  0  0  0  0  0  0  0  0  0  0  0
  144.4210   76.7026  220.1746 H   0  0  0  0  0  0  0  0  0  0  0  0
  146.1389   75.0934  220.6905 H   0  0  0  0  0  0  0  0  0  0  0  0
  146.7180   72.7131  221.0659 H   0  0  0  0  0  0  0  0  0  0  0  0
  145.0731   70.9236  220.5838 H   0  0  0  0  0  0  0  0  0  0  0  0
  142.8022   71.4949  219.7145 H   0  0  0  0  0  0  0  0  0  0  0  0
  142.2409   73.8841  219.3421 H   0  0  0  0  0  0  0  0  0  0  0  0
  1  2  1  0
  2  3  1  0
  2  4  1  0
  4  5  1  0
  5  6  1  0
  6  7  1  0
  7  8  2  0
  7  9  1  0
  9 10  1  0
 10 11  1  0
 11 12  2  0
 11 13  1  0
 13 14  2  0
 14 15  1  0
 15 16  2  0
 16 17  1  0
 17 18  2  0
 18 19  1  0
 19 20  2  0
 20 21  1  0
 21 22  2  0
  5 23  1  0
 23 24  2  0
 23 25  1  0
 25 26  1  0
 26 27  1  0
 27 28  2  0
 28 29  1  0
 29 30  2  0
 30 31  1  0
 31 32  2  0
 22 13  1  0
 32 27  1  0
 21 16  1  0
  1 33  1  0
  1 34  1  0
  1 35  1  0
  2 36  1  0
  3 37  1  0
  3 38  1  0
  3 39  1  0
  4 40  1  0
  4 41  1  0
  5 42  1  6
  6 43  1  0
  9 44  1  0
  9 45  1  0
 10 46  1  0
 14 47  1  0
 15 48  1  0
 17 49  1  0
 18 50  1  0
 19 51  1  0
 20 52  1  0
 25 53  1  0
 26 54  1  0
 26 55  1  0
 28 56  1  0
 29 57  1  0
 30 58  1  0
 31 59  1  0
 32 60  1  0
M  END
>  <smiles>  (11) 
CC(C)C[C@H](NC(=O)CNC(=O)c1ccc2ccccc2n1)C(=O)NCc1ccccc1

>  <score_type>  (11) 
oracle

>  <origin>  (11) 
autodockgpu

>  <m_score__min__energy>  (11) 
-10.23

>  <m_primary>  (11) 
energy

>  <rmsd>  (11) 
5.2273852581717914

>  <m_score__min__rmsd>  (11) 
5.2273852581717914

>  <meeko>  (11) 
{"free_energy": -8.82, "intermolecular_energy": -11.51, "internal_energy": -2.88, "cluster_size": 17, "cluster_id": 2, "rank_in_cluster": 14}

>  <energy>  (11) 
-9.32

>  <cluster_rmsd>  (11) 
0.96

>  <cluster>  (11) 
1

$$$$

     RDKit          3D

 60 62  0  0  0  0  0  0  0  0999 V2000
  139.5080   79.3720  223.5510 C   0  0  0  0  0  0  0  0  0  0  0  0
  140.5840   78.7340  222.6180 C   0  0  0  0  0  0  0  0  0  0  0  0
  141.7740   78.5490  223.5670 C   0  0  0  0  0  0  0  0  0  0  0  0
  140.1120   77.4080  222.1700 C   0  0  0  0  0  0  0  0  0  0  0  0
  139.9920   77.0820  220.7400 C   0  0  2  0  0  0  0  0  0  0  0  0
  139.2380   75.7930  220.7160 N   0  0  0  0  0  0  0  0  0  0  0  0
  139.7650   74.6420  221.3640 C   0  0  0  0  0  0  0  0  0  0  0  0
  140.8880   74.7250  221.9670 O   0  0  0  0  0  0  0  0  0  0  0  0
  139.0170   73.3590  221.3400 C   0  0  0  0  0  0  0  0  0  0  0  0
  139.0100   72.7220  222.6420 N   0  0  0  0  0  0  0  0  0  0  0  0
  140.1690   71.9230  222.9510 C   0  0  0  0  0  0  0  0  0  0  0  0
  141.0840   71.8480  222.0630 O   0  0  0  0  0  0  0  0  0  0  0  0
  140.3050   71.2250  224.2240 C   0  0  0  0  0  0  0  0  0  0  0  0
  140.9390   71.8940  225.2620 C   0  0  0  0  0  0  0  0  0  0  0  0
  141.1070   71.3050  226.4970 C   0  0  0  0  0  0  0  0  0  0  0  0
  140.6230   70.0260  226.6710 C   0  0  0  0  0  0  0  0  0  0  0  0
  140.8030   69.4530  227.9240 C   0  0  0  0  0  0  0  0  0  0  0  0
  140.3110   68.1560  228.1000 C   0  0  0  0  0  0  0  0  0  0  0  0
  139.6780   67.4770  227.0760 C   0  0  0  0  0  0  0  0  0  0  0  0
  139.5140   68.0800  225.8310 C   0  0  0  0  0  0  0  0  0  0  0  0
  139.9910   69.3590  225.6370 C   0  0  0  0  0  0  0  0  0  0  0  0
  139.8510   69.9790  224.4400 N   0  0  0  0  0  0  0  0  0  0  0  0
  141.1730   76.8510  219.9320 C   0  0  0  0  0  0  0  0  0  0  0  0
  141.2030   77.1290  218.7070 O   0  0  0  0  0  0  0  0  0  0  0  0
  142.3860   76.2950  220.4630 N   0  0  0  0  0  0  0  0  0  0  0  0
  143.5710   76.0580  219.6730 C   0  0  0  0  0  0  0  0  0  0  0  0
  144.1070   74.6910  219.8510 C   0  0  0  0  0  0  0  0  0  0  0  0
  143.5620   73.5590  219.2960 C   0  0  0  0  0  0  0  0  0  0  0  0
  144.1460   72.3340  219.5430 C   0  0  0  0  0  0  0  0  0  0  0  0
  145.2780   72.2350  220.3450 C   0  0  0  0  0  0  0  0  0  0  0  0
  145.8440   73.3650  220.9130 C   0  0  0  0  0  0  0  0  0  0  0  0
  145.2460   74.5810  220.6560 C   0  0  0  0  0  0  0  0  0  0  0  0
  139.7885   79.2057  224.6015 H   0  0  0  0  0  0  0  0  0  0  0  0
  139.4466   80.4526  223.3545 H   0  0  0  0  0  0  0  0  0  0  0  0
  138.5304   78.9075  223.3545 H   0  0  0  0  0  0  0  0  0  0  0  0
  140.8122   79.3313  221.7229 H   0  0  0  0  0  0  0  0  0  0  0  0
  141.4243   78.6034  224.6085 H   0  0  0  0  0  0  0  0  0  0  0  0
  142.2378   77.5680  223.3867 H   0  0  0  0  0  0  0  0  0  0  0  0
  142.5137   79.3429  223.3867 H   0  0  0  0  0  0  0  0  0  0  0  0
  140.8042   76.6694  222.6006 H   0  0  0  0  0  0  0  0  0  0  0  0
  139.0642   77.4022  222.5047 H   0  0  0  0  0  0  0  0  0  0  0  0
  139.5510   77.9843  220.2914 H   0  0  0  0  0  0  0  0  0  0  0  0
  138.3240   75.7270  220.2200 H   0  0  0  0  0  0  0  0  0  0  0  0
  137.9792   73.5563  221.0334 H   0  0  0  0  0  0  0  0  0  0  0  0
  139.5146   72.6834  220.6287 H   0  0  0  0  0  0  0  0  0  0  0  0
  138.2330   72.8150  223.3330 H   0  0  0  0  0  0  0  0  0  0  0  0
  141.3148   72.9144  225.0958 H   0  0  0  0  0  0  0  0  0  0  0  0
  141.6107   71.8381  227.3168 H   0  0  0  0  0  0  0  0  0  0  0  0
  141.3081   69.9935  228.7381 H   0  0  0  0  0  0  0  0  0  0  0  0
  140.4306   67.6644  229.0767 H   0  0  0  0  0  0  0  0  0  0  0  0
  139.3024   66.4570  227.2447 H   0  0  0  0  0  0  0  0  0  0  0  0
  139.0107   67.5429  225.0136 H   0  0  0  0  0  0  0  0  0  0  0  0
  142.4510   76.0320  221.4790 H   0  0  0  0  0  0  0  0  0  0  0  0
  143.3222   76.2038  218.6115 H   0  0  0  0  0  0  0  0  0  0  0  0
  144.3432   76.7659  220.0086 H   0  0  0  0  0  0  0  0  0  0  0  0
  142.6673   73.6287  218.6599 H   0  0  0  0  0  0  0  0  0  0  0  0
  143.7116   71.4253  219.1008 H   0  0  0  0  0  0  0  0  0  0  0  0
  145.7288   71.2489  220.5304 H   0  0  0  0  0  0  0  0  0  0  0  0
  146.7399   73.2947  221.5474 H   0  0  0  0  0  0  0  0  0  0  0  0
  145.6775   75.4916  221.0972 H   0  0  0  0  0  0  0  0  0  0  0  0
  1  2  1  0
  2  3  1  0
  2  4  1  0
  4  5  1  0
  5  6  1  0
  6  7  1  0
  7  8  2  0
  7  9  1  0
  9 10  1  0
 10 11  1  0
 11 12  2  0
 11 13  1  0
 13 14  2  0
 14 15  1  0
 15 16  2  0
 16 17  1  0
 17 18  2  0
 18 19  1  0
 19 20  2  0
 20 21  1  0
 21 22  2  0
  5 23  1  0
 23 24  2  0
 23 25  1  0
 25 26  1  0
 26 27  1  0
 27 28  2  0
 28 29  1  0
 29 30  2  0
 30 31  1  0
 31 32  2  0
 22 13  1  0
 32 27  1  0
 21 16  1  0
  1 33  1  0
  1 34  1  0
  1 35  1  0
  2 36  1  0
  3 37  1  0
  3 38  1  0
  3 39  1  0
  4 40  1  0
  4 41  1  0
  5 42  1  6
  6 43  1  0
  9 44  1  0
  9 45  1  0
 10 46  1  0
 14 47  1  0
 15 48  1  0
 17 49  1  0
 18 50  1  0
 19 51  1  0
 20 52  1  0
 25 53  1  0
 26 54  1  0
 26 55  1  0
 28 56  1  0
 29 57  1  0
 30 58  1  0
 31 59  1  0
 32 60  1  0
M  END
>  <smiles>  (12) 
CC(C)C[C@H](NC(=O)CNC(=O)c1ccc2ccccc2n1)C(=O)NCc1ccccc1

>  <score_type>  (12) 
oracle

>  <origin>  (12) 
autodockgpu

>  <m_score__min__energy>  (12) 
-10.23

>  <m_primary>  (12) 
energy

>  <rmsd>  (12) 
5.629091615964036

>  <m_score__min__rmsd>  (12) 
5.629091615964036

>  <meeko>  (12) 
{"free_energy": -9.39, "intermolecular_energy": -12.07, "internal_energy": -2.56, "cluster_size": 17, "cluster_id": 2, "rank_in_cluster": 6}

>  <energy>  (12) 
-9.25

>  <cluster_rmsd>  (12) 
0.96

>  <cluster>  (12) 
1

$$$$

     RDKit          3D

 60 62  0  0  0  0  0  0  0  0999 V2000
  141.6630   79.7670  221.4260 C   0  0  0  0  0  0  0  0  0  0  0  0
  141.1230   78.5020  222.1630 C   0  0  0  0  0  0  0  0  0  0  0  0
  140.6660   79.0760  223.5090 C   0  0  0  0  0  0  0  0  0  0  0  0
  139.9470   77.9830  221.4350 C   0  0  0  0  0  0  0  0  0  0  0  0
  140.0740   77.4140  220.0830 C   0  0  2  0  0  0  0  0  0  0  0  0
  139.3690   76.1000  220.1670 N   0  0  0  0  0  0  0  0  0  0  0  0
  139.7200   75.1610  221.1750 C   0  0  0  0  0  0  0  0  0  0  0  0
  140.6420   75.4560  222.0080 O   0  0  0  0  0  0  0  0  0  0  0  0
  139.0200   73.8540  221.2580 C   0  0  0  0  0  0  0  0  0  0  0  0
  139.3000   73.1780  222.5100 N   0  0  0  0  0  0  0  0  0  0  0  0
  139.1610   71.7440  222.4890 C   0  0  0  0  0  0  0  0  0  0  0  0
  138.8060   71.2050  221.3860 O   0  0  0  0  0  0  0  0  0  0  0  0
  139.4120   70.9290  223.6710 C   0  0  0  0  0  0  0  0  0  0  0  0
  139.0250   69.5960  223.6300 C   0  0  0  0  0  0  0  0  0  0  0  0
  139.2280   68.7570  224.7040 C   0  0  0  0  0  0  0  0  0  0  0  0
  139.8300   69.2850  225.8270 C   0  0  0  0  0  0  0  0  0  0  0  0
  140.0250   68.4200  226.8980 C   0  0  0  0  0  0  0  0  0  0  0  0
  140.6360   68.9550  228.0360 C   0  0  0  0  0  0  0  0  0  0  0  0
  141.0280   70.2790  228.0920 C   0  0  0  0  0  0  0  0  0  0  0  0
  140.8170   71.1200  227.0010 C   0  0  0  0  0  0  0  0  0  0  0  0
  140.2160   70.6120  225.8690 C   0  0  0  0  0  0  0  0  0  0  0  0
  139.9950   71.3980  224.7870 N   0  0  0  0  0  0  0  0  0  0  0  0
  141.3780   77.1160  219.5260 C   0  0  0  0  0  0  0  0  0  0  0  0
  141.7020   77.4800  218.3660 O   0  0  0  0  0  0  0  0  0  0  0  0
  142.3880   76.3920  220.2440 N   0  0  0  0  0  0  0  0  0  0  0  0
  143.6920   76.0860  219.7040 C   0  0  0  0  0  0  0  0  0  0  0  0
  144.1190   74.7020  220.0040 C   0  0  0  0  0  0  0  0  0  0  0  0
  145.3500   74.3540  220.5020 C   0  0  0  0  0  0  0  0  0  0  0  0
  145.6380   73.0250  220.7330 C   0  0  0  0  0  0  0  0  0  0  0  0
  144.6950   72.0380  220.4670 C   0  0  0  0  0  0  0  0  0  0  0  0
  143.4470   72.3680  219.9650 C   0  0  0  0  0  0  0  0  0  0  0  0
  143.1770   73.7010  219.7400 C   0  0  0  0  0  0  0  0  0  0  0  0
  141.9822   80.5147  222.1670 H   0  0  0  0  0  0  0  0  0  0  0  0
  142.5198   79.4864  220.7958 H   0  0  0  0  0  0  0  0  0  0  0  0
  140.8677   80.1916  220.7958 H   0  0  0  0  0  0  0  0  0  0  0  0
  141.8554   77.6857  222.2482 H   0  0  0  0  0  0  0  0  0  0  0  0
  141.1239   78.5009  224.3273 H   0  0  0  0  0  0  0  0  0  0  0  0
  140.9757   80.1289  223.5828 H   0  0  0  0  0  0  0  0  0  0  0  0
  139.5705   79.0101  223.5828 H   0  0  0  0  0  0  0  0  0  0  0  0
  139.5143   77.1927  222.0659 H   0  0  0  0  0  0  0  0  0  0  0  0
  139.3563   78.8935  221.2561 H   0  0  0  0  0  0  0  0  0  0  0  0
  139.6891   78.2014  219.4183 H   0  0  0  0  0  0  0  0  0  0  0  0
  138.6200   75.8610  219.4830 H   0  0  0  0  0  0  0  0  0  0  0  0
  137.9361   74.0237  221.1784 H   0  0  0  0  0  0  0  0  0  0  0  0
  139.3791   73.2181  220.4354 H   0  0  0  0  0  0  0  0  0  0  0  0
  139.5850   73.6680  223.3860 H   0  0  0  0  0  0  0  0  0  0  0  0
  138.5465   69.2017  222.7214 H   0  0  0  0  0  0  0  0  0  0  0  0
  138.9203   67.7016  224.6670 H   0  0  0  0  0  0  0  0  0  0  0  0
  139.7137   67.3660  226.8521 H   0  0  0  0  0  0  0  0  0  0  0  0
  140.8088   68.3066  228.9076 H   0  0  0  0  0  0  0  0  0  0  0  0
  141.5083   70.6704  229.0009 H   0  0  0  0  0  0  0  0  0  0  0  0
  141.1258   72.1749  227.0425 H   0  0  0  0  0  0  0  0  0  0  0  0
  142.2040   76.0490  221.2210 H   0  0  0  0  0  0  0  0  0  0  0  0
  143.6612   76.2168  218.6122 H   0  0  0  0  0  0  0  0  0  0  0  0
  144.4163   76.7682  220.1729 H   0  0  0  0  0  0  0  0  0  0  0  0
  146.1009   75.1290  220.7152 H   0  0  0  0  0  0  0  0  0  0  0  0
  146.6236   72.7429  221.1317 H   0  0  0  0  0  0  0  0  0  0  0  0
  144.9431   70.9834  220.6574 H   0  0  0  0  0  0  0  0  0  0  0  0
  142.6964   71.5924  219.7529 H   0  0  0  0  0  0  0  0  0  0  0  0
  142.1923   73.9863  219.3413 H   0  0  0  0  0  0  0  0  0  0  0  0
  1  2  1  0
  2  3  1  0
  2  4  1  0
  4  5  1  0
  5  6  1  0
  6  7  1  0
  7  8  2  0
  7  9  1  0
  9 10  1  0
 10 11  1  0
 11 12  2  0
 11 13  1  0
 13 14  2  0
 14 15  1  0
 15 16  2  0
 16 17  1  0
 17 18  2  0
 18 19  1  0
 19 20  2  0
 20 21  1  0
 21 22  2  0
  5 23  1  0
 23 24  2  0
 23 25  1  0
 25 26  1  0
 26 27  1  0
 27 28  2  0
 28 29  1  0
 29 30  2  0
 30 31  1  0
 31 32  2  0
 22 13  1  0
 32 27  1  0
 21 16  1  0
  1 33  1  0
  1 34  1  0
  1 35  1  0
  2 36  1  0
  3 37  1  0
  3 38  1  0
  3 39  1  0
  4 40  1  0
  4 41  1  0
  5 42  1  6
  6 43  1  0
  9 44  1  0
  9 45  1  0
 10 46  1  0
 14 47  1  0
 15 48  1  0
 17 49  1  0
 18 50  1  0
 19 51  1  0
 20 52  1  0
 25 53  1  0
 26 54  1  0
 26 55  1  0
 28 56  1  0
 29 57  1  0
 30 58  1  0
 31 59  1  0
 32 60  1  0
M  END
>  <smiles>  (13) 
CC(C)C[C@H](NC(=O)CNC(=O)c1ccc2ccccc2n1)C(=O)NCc1ccccc1

>  <score_type>  (13) 
oracle

>  <origin>  (13) 
autodockgpu

>  <m_score__min__energy>  (13) 
-10.23

>  <m_primary>  (13) 
energy

>  <rmsd>  (13) 
5.203000281258282

>  <m_score__min__rmsd>  (13) 
5.203000281258282

>  <meeko>  (13) 
{"free_energy": -8.73, "intermolecular_energy": -11.42, "internal_energy": -2.85, "cluster_size": 17, "cluster_id": 2, "rank_in_cluster": 15}

>  <energy>  (13) 
-9.1

>  <cluster_rmsd>  (13) 
1.08

>  <cluster>  (13) 
1

$$$$

     RDKit          3D

 60 62  0  0  0  0  0  0  0  0999 V2000
  141.0390   71.3640  227.9800 C   0  0  0  0  0  0  0  0  0  0  0  0
  140.9830   70.6260  226.6060 C   0  0  0  0  0  0  0  0  0  0  0  0
  140.0640   69.4370  226.9090 C   0  0  0  0  0  0  0  0  0  0  0  0
  140.3290   71.5010  225.6130 C   0  0  0  0  0  0  0  0  0  0  0  0
  139.7970   70.9620  224.3510 C   0  0  2  0  0  0  0  0  0  0  0  0
  140.3250   71.8840  223.3020 N   0  0  0  0  0  0  0  0  0  0  0  0
  140.4150   71.4560  221.9500 C   0  0  0  0  0  0  0  0  0  0  0  0
  140.0380   70.2750  221.6430 O   0  0  0  0  0  0  0  0  0  0  0  0
  140.9420   72.3730  220.9060 C   0  0  0  0  0  0  0  0  0  0  0  0
  141.0210   73.7380  221.3860 N   0  0  0  0  0  0  0  0  0  0  0  0
  139.7570   74.4060  221.5760 C   0  0  0  0  0  0  0  0  0  0  0  0
  138.6980   73.7450  221.3060 O   0  0  0  0  0  0  0  0  0  0  0  0
  139.6780   75.7800  222.0570 C   0  0  0  0  0  0  0  0  0  0  0  0
  138.4160   76.3100  222.2890 C   0  0  0  0  0  0  0  0  0  0  0  0
  138.2530   77.6000  222.7460 C   0  0  0  0  0  0  0  0  0  0  0  0
  139.3880   78.3520  222.9670 C   0  0  0  0  0  0  0  0  0  0  0  0
  139.1990   79.6500  223.4270 C   0  0  0  0  0  0  0  0  0  0  0  0
  140.3500   80.4110  223.6520 C   0  0  0  0  0  0  0  0  0  0  0  0
  141.6130   79.8980  223.4260 C   0  0  0  0  0  0  0  0  0  0  0  0
  141.7680   78.5930  222.9630 C   0  0  0  0  0  0  0  0  0  0  0  0
  140.6450   77.8250  222.7360 C   0  0  0  0  0  0  0  0  0  0  0  0
  140.7550   76.5510  222.2860 N   0  0  0  0  0  0  0  0  0  0  0  0
  138.3680   70.8940  224.1200 C   0  0  0  0  0  0  0  0  0  0  0  0
  137.6830   69.9050  224.4850 O   0  0  0  0  0  0  0  0  0  0  0  0
  137.6320   71.9380  223.4640 N   0  0  0  0  0  0  0  0  0  0  0  0
  136.2090   71.8870  223.2250 C   0  0  0  0  0  0  0  0  0  0  0  0
  135.4450   72.7360  224.1670 C   0  0  0  0  0  0  0  0  0  0  0  0
  135.4710   74.1090  224.1800 C   0  0  0  0  0  0  0  0  0  0  0  0
  134.7220   74.7920  225.1150 C   0  0  0  0  0  0  0  0  0  0  0  0
  133.9440   74.1060  226.0410 C   0  0  0  0  0  0  0  0  0  0  0  0
  133.9040   72.7220  226.0450 C   0  0  0  0  0  0  0  0  0  0  0  0
  134.6600   72.0550  225.1030 C   0  0  0  0  0  0  0  0  0  0  0  0
  140.9831   70.6270  228.7946 H   0  0  0  0  0  0  0  0  0  0  0  0
  141.9823   71.9246  228.0569 H   0  0  0  0  0  0  0  0  0  0  0  0
  140.1911   72.0606  228.0569 H   0  0  0  0  0  0  0  0  0  0  0  0
  141.9688   70.3420  226.2090 H   0  0  0  0  0  0  0  0  0  0  0  0
  139.9695   69.3148  227.9981 H   0  0  0  0  0  0  0  0  0  0  0  0
  139.0709   69.6208  226.4732 H   0  0  0  0  0  0  0  0  0  0  0  0
  140.4921   68.5223  226.4732 H   0  0  0  0  0  0  0  0  0  0  0  0
  139.4828   71.9787  226.1286 H   0  0  0  0  0  0  0  0  0  0  0  0
  141.1599   72.1349  225.2700 H   0  0  0  0  0  0  0  0  0  0  0  0
  140.1027   69.9053  224.3561 H   0  0  0  0  0  0  0  0  0  0  0  0
  140.6350   72.8460  223.5560 H   0  0  0  0  0  0  0  0  0  0  0  0
  141.9481   72.0390  220.6123 H   0  0  0  0  0  0  0  0  0  0  0  0
  140.2542   72.3491  220.0479 H   0  0  0  0  0  0  0  0  0  0  0  0
  141.9160   74.2340  221.5900 H   0  0  0  0  0  0  0  0  0  0  0  0
  137.5280   75.6876  222.1043 H   0  0  0  0  0  0  0  0  0  0  0  0
  137.2512   78.0160  222.9284 H   0  0  0  0  0  0  0  0  0  0  0  0
  138.1933   80.0583  223.6052 H   0  0  0  0  0  0  0  0  0  0  0  0
  140.2477   81.4433  224.0178 H   0  0  0  0  0  0  0  0  0  0  0  0
  142.4994   80.5222  223.6123 H   0  0  0  0  0  0  0  0  0  0  0  0
  142.7716   78.1811  222.7811 H   0  0  0  0  0  0  0  0  0  0  0  0
  138.1240   72.8040  223.1240 H   0  0  0  0  0  0  0  0  0  0  0  0
  136.0110   72.2317  222.1994 H   0  0  0  0  0  0  0  0  0  0  0  0
  135.8825   70.8470  223.3723 H   0  0  0  0  0  0  0  0  0  0  0  0
  136.0839   74.6592  223.4509 H   0  0  0  0  0  0  0  0  0  0  0  0
  134.7402   75.8918  225.1284 H   0  0  0  0  0  0  0  0  0  0  0  0
  133.3536   74.6692  226.7787 H   0  0  0  0  0  0  0  0  0  0  0  0
  133.2904   72.1729  226.7744 H   0  0  0  0  0  0  0  0  0  0  0  0
  134.6449   70.9552  225.0877 H   0  0  0  0  0  0  0  0  0  0  0  0
  1  2  1  0
  2  3  1  0
  2  4  1  0
  4  5  1  0
  5  6  1  0
  6  7  1  0
  7  8  2  0
  7  9  1  0
  9 10  1  0
 10 11  1  0
 11 12  2  0
 11 13  1  0
 13 14  2  0
 14 15  1  0
 15 16  2  0
 16 17  1  0
 17 18  2  0
 18 19  1  0
 19 20  2  0
 20 21  1  0
 21 22  2  0
  5 23  1  0
 23 24  2  0
 23 25  1  0
 25 26  1  0
 26 27  1  0
 27 28  2  0
 28 29  1  0
 29 30  2  0
 30 31  1  0
 31 32  2  0
 22 13  1  0
 32 27  1  0
 21 16  1  0
  1 33  1  0
  1 34  1  0
  1 35  1  0
  2 36  1  0
  3 37  1  0
  3 38  1  0
  3 39  1  0
  4 40  1  0
  4 41  1  0
  5 42  1  6
  6 43  1  0
  9 44  1  0
  9 45  1  0
 10 46  1  0
 14 47  1  0
 15 48  1  0
 17 49  1  0
 18 50  1  0
 19 51  1  0
 20 52  1  0
 25 53  1  0
 26 54  1  0
 26 55  1  0
 28 56  1  0
 29 57  1  0
 30 58  1  0
 31 59  1  0
 32 60  1  0
M  END
>  <smiles>  (14) 
CC(C)C[C@H](NC(=O)CNC(=O)c1ccc2ccccc2n1)C(=O)NCc1ccccc1

>  <score_type>  (14) 
oracle

>  <origin>  (14) 
autodockgpu

>  <m_score__min__energy>  (14) 
-10.23

>  <m_primary>  (14) 
energy

>  <rmsd>  (14) 
8.927170500759223

>  <m_score__min__rmsd>  (14) 
8.927170500759223

>  <meeko>  (14) 
{"free_energy": -7.59, "intermolecular_energy": -10.27, "internal_energy": -3.13, "cluster_size": 3, "cluster_id": 5, "rank_in_cluster": 3}

>  <energy>  (14) 
-9.03

>  <cluster_rmsd>  (14) 
1.59

>  <cluster>  (14) 
1

$$$$

     RDKit          3D

 60 62  0  0  0  0  0  0  0  0999 V2000
  135.9060   77.5000  223.0950 C   0  0  0  0  0  0  0  0  0  0  0  0
  136.7340   76.1810  223.1790 C   0  0  0  0  0  0  0  0  0  0  0  0
  135.8080   75.2620  223.9850 C   0  0  0  0  0  0  0  0  0  0  0  0
  136.9000   75.6270  221.8190 C   0  0  0  0  0  0  0  0  0  0  0  0
  138.1320   74.9260  221.4240 C   0  0  2  0  0  0  0  0  0  0  0  0
  137.9160   73.5170  221.8710 N   0  0  0  0  0  0  0  0  0  0  0  0
  136.8980   72.7240  221.2750 C   0  0  0  0  0  0  0  0  0  0  0  0
  136.1730   73.2300  220.3520 O   0  0  0  0  0  0  0  0  0  0  0  0
  136.6810   71.3240  221.7190 C   0  0  0  0  0  0  0  0  0  0  0  0
  137.2220   71.0950  223.0440 N   0  0  0  0  0  0  0  0  0  0  0  0
  138.6570   70.9950  223.1240 C   0  0  0  0  0  0  0  0  0  0  0  0
  139.3140   71.1120  222.0350 O   0  0  0  0  0  0  0  0  0  0  0  0
  139.3440   70.7690  224.3890 C   0  0  0  0  0  0  0  0  0  0  0  0
  140.2260   71.7480  224.8290 C   0  0  0  0  0  0  0  0  0  0  0  0
  140.9140   71.6130  226.0150 C   0  0  0  0  0  0  0  0  0  0  0  0
  140.6990   70.4700  226.7560 C   0  0  0  0  0  0  0  0  0  0  0  0
  141.4040   70.3560  227.9490 C   0  0  0  0  0  0  0  0  0  0  0  0
  141.1850   69.1970  228.7010 C   0  0  0  0  0  0  0  0  0  0  0  0
  140.3110   68.2140  228.2780 C   0  0  0  0  0  0  0  0  0  0  0  0
  139.6210   68.3590  227.0760 C   0  0  0  0  0  0  0  0  0  0  0  0
  139.8220   69.4940  226.3200 C   0  0  0  0  0  0  0  0  0  0  0  0
  139.1680   69.6720  225.1450 N   0  0  0  0  0  0  0  0  0  0  0  0
  139.4140   75.3130  221.9790 C   0  0  0  0  0  0  0  0  0  0  0  0
  140.2690   74.4610  222.3310 O   0  0  0  0  0  0  0  0  0  0  0  0
  139.8020   76.6820  222.1680 N   0  0  0  0  0  0  0  0  0  0  0  0
  141.0740   77.0850  222.7200 C   0  0  0  0  0  0  0  0  0  0  0  0
  141.1310   78.5350  223.0110 C   0  0  0  0  0  0  0  0  0  0  0  0
  140.0340   79.3360  223.2120 C   0  0  0  0  0  0  0  0  0  0  0  0
  140.2140   80.6800  223.4670 C   0  0  0  0  0  0  0  0  0  0  0  0
  141.4900   81.2290  223.5210 C   0  0  0  0  0  0  0  0  0  0  0  0
  142.6100   80.4380  223.3210 C   0  0  0  0  0  0  0  0  0  0  0  0
  142.4120   79.0960  223.0670 C   0  0  0  0  0  0  0  0  0  0  0  0
  135.6816   77.8574  224.1108 H   0  0  0  0  0  0  0  0  0  0  0  0
  136.4869   78.2640  222.5575 H   0  0  0  0  0  0  0  0  0  0  0  0
  134.9655   77.3089  222.5575 H   0  0  0  0  0  0  0  0  0  0  0  0
  137.7347   76.3067  223.6180 H   0  0  0  0  0  0  0  0  0  0  0  0
  135.9735   75.4262  225.0600 H   0  0  0  0  0  0  0  0  0  0  0  0
  134.7605   75.4878  223.7366 H   0  0  0  0  0  0  0  0  0  0  0  0
  136.0258   74.2128  223.7366 H   0  0  0  0  0  0  0  0  0  0  0  0
  136.0752   74.9145  221.6703 H   0  0  0  0  0  0  0  0  0  0  0  0
  136.9301   76.5322  221.1948 H   0  0  0  0  0  0  0  0  0  0  0  0
  138.2418   75.1512  220.3529 H   0  0  0  0  0  0  0  0  0  0  0  0
  138.5070   73.1090  222.6260 H   0  0  0  0  0  0  0  0  0  0  0  0
  135.6007   71.1175  221.7338 H   0  0  0  0  0  0  0  0  0  0  0  0
  137.1989   70.6555  221.0155 H   0  0  0  0  0  0  0  0  0  0  0  0
  136.6380   71.0040  223.9050 H   0  0  0  0  0  0  0  0  0  0  0  0
  140.3782   72.6498  224.2177 H   0  0  0  0  0  0  0  0  0  0  0  0
  141.6114   72.3909  226.3593 H   0  0  0  0  0  0  0  0  0  0  0  0
  142.0999   71.1389  228.2850 H   0  0  0  0  0  0  0  0  0  0  0  0
  141.7216   69.0650  229.6521 H   0  0  0  0  0  0  0  0  0  0  0  0
  140.1594   67.3140  228.8920 H   0  0  0  0  0  0  0  0  0  0  0  0
  138.9252   67.5782  226.7350 H   0  0  0  0  0  0  0  0  0  0  0  0
  139.1480   77.4620  221.9020 H   0  0  0  0  0  0  0  0  0  0  0  0
  141.2447   76.5305  223.6546 H   0  0  0  0  0  0  0  0  0  0  0  0
  141.8489   76.8633  221.9714 H   0  0  0  0  0  0  0  0  0  0  0  0
  139.0207   78.9100  223.1701 H   0  0  0  0  0  0  0  0  0  0  0  0
  139.3376   81.3246  223.6294 H   0  0  0  0  0  0  0  0  0  0  0  0
  141.6119   82.3031  223.7247 H   0  0  0  0  0  0  0  0  0  0  0  0
  143.6227   80.8653  223.3633 H   0  0  0  0  0  0  0  0  0  0  0  0
  143.2862   78.4486  222.9039 H   0  0  0  0  0  0  0  0  0  0  0  0
  1  2  1  0
  2  3  1  0
  2  4  1  0
  4  5  1  0
  5  6  1  0
  6  7  1  0
  7  8  2  0
  7  9  1  0
  9 10  1  0
 10 11  1  0
 11 12  2  0
 11 13  1  0
 13 14  2  0
 14 15  1  0
 15 16  2  0
 16 17  1  0
 17 18  2  0
 18 19  1  0
 19 20  2  0
 20 21  1  0
 21 22  2  0
  5 23  1  0
 23 24  2  0
 23 25  1  0
 25 26  1  0
 26 27  1  0
 27 28  2  0
 28 29  1  0
 29 30  2  0
 30 31  1  0
 31 32  2  0
 22 13  1  0
 32 27  1  0
 21 16  1  0
  1 33  1  0
  1 34  1  0
  1 35  1  0
  2 36  1  0
  3 37  1  0
  3 38  1  0
  3 39  1  0
  4 40  1  0
  4 41  1  0
  5 42  1  6
  6 43  1  0
  9 44  1  0
  9 45  1  0
 10 46  1  0
 14 47  1  0
 15 48  1  0
 17 49  1  0
 18 50  1  0
 19 51  1  0
 20 52  1  0
 25 53  1  0
 26 54  1  0
 26 55  1  0
 28 56  1  0
 29 57  1  0
 30 58  1  0
 31 59  1  0
 32 60  1  0
M  END
>  <smiles>  (15) 
CC(C)C[C@H](NC(=O)CNC(=O)c1ccc2ccccc2n1)C(=O)NCc1ccccc1

>  <score_type>  (15) 
oracle

>  <origin>  (15) 
autodockgpu

>  <m_score__min__energy>  (15) 
-10.23

>  <m_primary>  (15) 
energy

>  <rmsd>  (15) 
4.168335318118428

>  <m_score__min__rmsd>  (15) 
4.168335318118428

>  <meeko>  (15) 
{"free_energy": -8.37, "intermolecular_energy": -11.06, "internal_energy": -3.1, "cluster_size": 5, "cluster_id": 3, "rank_in_cluster": 2}

>  <energy>  (15) 
-8.8

>  <cluster_rmsd>  (15) 
1.49

>  <cluster>  (15) 
1

$$$$

     RDKit          3D

 60 62  0  0  0  0  0  0  0  0999 V2000
  142.1100   79.1750  222.2720 C   0  0  0  0  0  0  0  0  0  0  0  0
  140.9930   78.5010  223.1290 C   0  0  0  0  0  0  0  0  0  0  0  0
  139.8130   79.4620  222.9450 C   0  0  0  0  0  0  0  0  0  0  0  0
  140.6500   77.1940  222.5340 C   0  0  0  0  0  0  0  0  0  0  0  0
  140.2850   77.0720  221.1130 C   0  0  2  0  0  0  0  0  0  0  0  0
  139.4040   75.8680  221.0590 N   0  0  0  0  0  0  0  0  0  0  0  0
  139.9020   74.5970  221.4540 C   0  0  0  0  0  0  0  0  0  0  0  0
  141.1100   74.4980  221.8580 O   0  0  0  0  0  0  0  0  0  0  0  0
  139.0270   73.3980  221.4000 C   0  0  0  0  0  0  0  0  0  0  0  0
  138.9920   72.7050  222.6720 N   0  0  0  0  0  0  0  0  0  0  0  0
  140.2020   72.0130  223.0380 C   0  0  0  0  0  0  0  0  0  0  0  0
  141.1810   72.0700  222.2200 O   0  0  0  0  0  0  0  0  0  0  0  0
  140.3180   71.2750  224.2900 C   0  0  0  0  0  0  0  0  0  0  0  0
  140.9920   71.8850  225.3390 C   0  0  0  0  0  0  0  0  0  0  0  0
  141.1440   71.2570  226.5570 C   0  0  0  0  0  0  0  0  0  0  0  0
  140.6030   69.9960  226.7010 C   0  0  0  0  0  0  0  0  0  0  0  0
  140.7690   69.3810  227.9370 C   0  0  0  0  0  0  0  0  0  0  0  0
  140.2200   68.1040  228.0820 C   0  0  0  0  0  0  0  0  0  0  0  0
  139.5460   67.4830  227.0480 C   0  0  0  0  0  0  0  0  0  0  0  0
  139.3980   68.1260  225.8210 C   0  0  0  0  0  0  0  0  0  0  0  0
  139.9320   69.3870  225.6560 C   0  0  0  0  0  0  0  0  0  0  0  0
  139.8090   70.0450  224.4780 N   0  0  0  0  0  0  0  0  0  0  0  0
  141.3020   76.8510  220.1050 C   0  0  0  0  0  0  0  0  0  0  0  0
  141.1890   77.3070  218.9380 O   0  0  0  0  0  0  0  0  0  0  0  0
  142.5010   76.1030  220.3560 N   0  0  0  0  0  0  0  0  0  0  0  0
  143.5240   75.8720  219.3630 C   0  0  0  0  0  0  0  0  0  0  0  0
  144.2540   74.6040  219.5860 C   0  0  0  0  0  0  0  0  0  0  0  0
  144.2330   73.5290  218.7320 C   0  0  0  0  0  0  0  0  0  0  0  0
  144.9480   72.3940  219.0530 C   0  0  0  0  0  0  0  0  0  0  0  0
  145.6870   72.3290  220.2290 C   0  0  0  0  0  0  0  0  0  0  0  0
  145.7230   73.4030  221.1030 C   0  0  0  0  0  0  0  0  0  0  0  0
  145.0010   74.5290  220.7660 C   0  0  0  0  0  0  0  0  0  0  0  0
  142.8599   79.6275  222.9375 H   0  0  0  0  0  0  0  0  0  0  0  0
  142.5926   78.4172  221.6373 H   0  0  0  0  0  0  0  0  0  0  0  0
  141.6646   79.9552  221.6373 H   0  0  0  0  0  0  0  0  0  0  0  0
  141.2736   78.3311  224.1790 H   0  0  0  0  0  0  0  0  0  0  0  0
  139.4342   79.7705  223.9306 H   0  0  0  0  0  0  0  0  0  0  0  0
  140.1462   80.3490  222.3862 H   0  0  0  0  0  0  0  0  0  0  0  0
  139.0118   78.9562  222.3862 H   0  0  0  0  0  0  0  0  0  0  0  0
  141.5234   76.5432  222.6879 H   0  0  0  0  0  0  0  0  0  0  0  0
  139.7094   76.9393  223.0443 H   0  0  0  0  0  0  0  0  0  0  0  0
  139.8794   78.0600  220.8499 H   0  0  0  0  0  0  0  0  0  0  0  0
  138.4200   75.9510  220.7250 H   0  0  0  0  0  0  0  0  0  0  0  0
  138.0063   73.7126  221.1368 H   0  0  0  0  0  0  0  0  0  0  0  0
  139.4333   72.7095  220.6444 H   0  0  0  0  0  0  0  0  0  0  0  0
  138.1620   72.6880  223.3050 H   0  0  0  0  0  0  0  0  0  0  0  0
  141.4138   72.8907  225.1955 H   0  0  0  0  0  0  0  0  0  0  0  0
  141.6783   71.7447  227.3856 H   0  0  0  0  0  0  0  0  0  0  0  0
  141.3059   69.8752  228.7601 H   0  0  0  0  0  0  0  0  0  0  0  0
  140.3272   67.5802  229.0433 H   0  0  0  0  0  0  0  0  0  0  0  0
  139.1248   66.4774  227.1941 H   0  0  0  0  0  0  0  0  0  0  0  0
  138.8626   67.6348  224.9951 H   0  0  0  0  0  0  0  0  0  0  0  0
  142.6780   75.6840  221.3040 H   0  0  0  0  0  0  0  0  0  0  0  0
  143.0508   75.8369  218.3706 H   0  0  0  0  0  0  0  0  0  0  0  0
  144.2516   76.6938  219.4352 H   0  0  0  0  0  0  0  0  0  0  0  0
  143.6509   73.5726  217.7997 H   0  0  0  0  0  0  0  0  0  0  0  0
  144.9334   71.5309  218.3712 H   0  0  0  0  0  0  0  0  0  0  0  0
  146.2494   71.4143  220.4680 H   0  0  0  0  0  0  0  0  0  0  0  0
  146.3074   73.3595  222.0339 H   0  0  0  0  0  0  0  0  0  0  0  0
  145.0131   75.3938  221.4457 H   0  0  0  0  0  0  0  0  0  0  0  0
  1  2  1  0
  2  3  1  0
  2  4  1  0
  4  5  1  0
  5  6  1  0
  6  7  1  0
  7  8  2  0
  7  9  1  0
  9 10  1  0
 10 11  1  0
 11 12  2  0
 11 13  1  0
 13 14  2  0
 14 15  1  0
 15 16  2  0
 16 17  1  0
 17 18  2  0
 18 19  1  0
 19 20  2  0
 20 21  1  0
 21 22  2  0
  5 23  1  0
 23 24  2  0
 23 25  1  0
 25 26  1  0
 26 27  1  0
 27 28  2  0
 28 29  1  0
 29 30  2  0
 30 31  1  0
 31 32  2  0
 22 13  1  0
 32 27  1  0
 21 16  1  0
  1 33  1  0
  1 34  1  0
  1 35  1  0
  2 36  1  0
  3 37  1  0
  3 38  1  0
  3 39  1  0
  4 40  1  0
  4 41  1  0
  5 42  1  6
  6 43  1  0
  9 44  1  0
  9 45  1  0
 10 46  1  0
 14 47  1  0
 15 48  1  0
 17 49  1  0
 18 50  1  0
 19 51  1  0
 20 52  1  0
 25 53  1  0
 26 54  1  0
 26 55  1  0
 28 56  1  0
 29 57  1  0
 30 58  1  0
 31 59  1  0
 32 60  1  0
M  END
>  <smiles>  (16) 
CC(C)C[C@H](NC(=O)CNC(=O)c1ccc2ccccc2n1)C(=O)NCc1ccccc1

>  <score_type>  (16) 
oracle

>  <origin>  (16) 
autodockgpu

>  <m_score__min__energy>  (16) 
-10.23

>  <m_primary>  (16) 
energy

>  <rmsd>  (16) 
5.744266406835981

>  <m_score__min__rmsd>  (16) 
5.744266406835981

>  <meeko>  (16) 
{"free_energy": -9.34, "intermolecular_energy": -12.03, "internal_energy": -2.3, "cluster_size": 17, "cluster_id": 2, "rank_in_cluster": 8}

>  <energy>  (16) 
-8.73

>  <cluster_rmsd>  (16) 
1.44

>  <cluster>  (16) 
1

$$$$

     RDKit          3D

 60 62  0  0  0  0  0  0  0  0999 V2000
  142.7240   77.7300  217.9190 C   0  0  0  0  0  0  0  0  0  0  0  0
  142.7150   76.1910  218.1760 C   0  0  0  0  0  0  0  0  0  0  0  0
  143.6970   76.0480  219.3440 C   0  0  0  0  0  0  0  0  0  0  0  0
  141.3680   75.7830  218.6230 C   0  0  0  0  0  0  0  0  0  0  0  0
  141.0020   75.7880  220.0490 C   0  0  2  0  0  0  0  0  0  0  0  0
  139.8530   74.8380  220.1380 N   0  0  0  0  0  0  0  0  0  0  0  0
  139.6090   74.1180  221.3390 C   0  0  0  0  0  0  0  0  0  0  0  0
  140.3830   74.2950  222.3400 O   0  0  0  0  0  0  0  0  0  0  0  0
  138.4670   73.1720  221.4290 C   0  0  0  0  0  0  0  0  0  0  0  0
  138.4940   72.4210  222.6680 N   0  0  0  0  0  0  0  0  0  0  0  0
  139.4830   71.3750  222.7420 C   0  0  0  0  0  0  0  0  0  0  0  0
  140.2340   71.2050  221.7230 O   0  0  0  0  0  0  0  0  0  0  0  0
  139.6300   70.5370  223.9260 C   0  0  0  0  0  0  0  0  0  0  0  0
  139.1050   69.2530  223.8770 C   0  0  0  0  0  0  0  0  0  0  0  0
  139.2040   68.3960  224.9520 C   0  0  0  0  0  0  0  0  0  0  0  0
  139.8440   68.8570  226.0840 C   0  0  0  0  0  0  0  0  0  0  0  0
  139.9310   67.9760  227.1560 C   0  0  0  0  0  0  0  0  0  0  0  0
  140.5800   68.4430  228.3020 C   0  0  0  0  0  0  0  0  0  0  0  0
  141.1080   69.7180  228.3670 C   0  0  0  0  0  0  0  0  0  0  0  0
  141.0020   70.5770  227.2750 C   0  0  0  0  0  0  0  0  0  0  0  0
  140.3660   70.1360  226.1340 C   0  0  0  0  0  0  0  0  0  0  0  0
  140.2440   70.9420  225.0510 N   0  0  0  0  0  0  0  0  0  0  0  0
  140.5470   77.0040  220.6920 C   0  0  0  0  0  0  0  0  0  0  0  0
  140.2610   78.0360  220.0320 O   0  0  0  0  0  0  0  0  0  0  0  0
  140.3890   77.1240  222.1130 N   0  0  0  0  0  0  0  0  0  0  0  0
  139.9370   78.3280  222.7700 C   0  0  0  0  0  0  0  0  0  0  0  0
  141.0500   79.2490  223.0920 C   0  0  0  0  0  0  0  0  0  0  0  0
  142.3580   79.0540  222.7230 C   0  0  0  0  0  0  0  0  0  0  0  0
  143.3120   79.9810  223.0910 C   0  0  0  0  0  0  0  0  0  0  0  0
  142.9620   81.1060  223.8290 C   0  0  0  0  0  0  0  0  0  0  0  0
  141.6480   81.3220  224.2100 C   0  0  0  0  0  0  0  0  0  0  0  0
  140.7070   80.3850  223.8340 C   0  0  0  0  0  0  0  0  0  0  0  0
  142.7271   78.2625  218.8815 H   0  0  0  0  0  0  0  0  0  0  0  0
  143.6237   78.0010  217.3472 H   0  0  0  0  0  0  0  0  0  0  0  0
  141.8275   78.0115  217.3472 H   0  0  0  0  0  0  0  0  0  0  0  0
  142.9752   75.5869  217.2943 H   0  0  0  0  0  0  0  0  0  0  0  0
  143.1498   76.1277  220.2949 H   0  0  0  0  0  0  0  0  0  0  0  0
  144.1936   75.0681  219.2877 H   0  0  0  0  0  0  0  0  0  0  0  0
  144.4524   76.8456  219.2877 H   0  0  0  0  0  0  0  0  0  0  0  0
  140.6560   76.4512  218.1164 H   0  0  0  0  0  0  0  0  0  0  0  0
  141.3483   74.7115  218.3750 H   0  0  0  0  0  0  0  0  0  0  0  0
  141.9425   75.5629  220.5731 H   0  0  0  0  0  0  0  0  0  0  0  0
  139.2250   74.6930  219.3180 H   0  0  0  0  0  0  0  0  0  0  0  0
  137.5270   73.7409  221.3766 H   0  0  0  0  0  0  0  0  0  0  0  0
  138.5422   72.4607  220.5933 H   0  0  0  0  0  0  0  0  0  0  0  0
  137.8540   72.6000  223.4730 H   0  0  0  0  0  0  0  0  0  0  0  0
  138.5995   68.9123  222.9613 H   0  0  0  0  0  0  0  0  0  0  0  0
  138.7869   67.3791  224.9088 H   0  0  0  0  0  0  0  0  0  0  0  0
  139.5097   66.9612  227.1046 H   0  0  0  0  0  0  0  0  0  0  0  0
  140.6728   67.7790  229.1740 H   0  0  0  0  0  0  0  0  0  0  0  0
  141.6136   70.0561  229.2836 H   0  0  0  0  0  0  0  0  0  0  0  0
  141.4201   71.5933  227.3226 H   0  0  0  0  0  0  0  0  0  0  0  0
  140.6050   76.3100  222.7440 H   0  0  0  0  0  0  0  0  0  0  0  0
  139.2296   78.8475  222.1070 H   0  0  0  0  0  0  0  0  0  0  0  0
  139.4614   78.0339  223.7172 H   0  0  0  0  0  0  0  0  0  0  0  0
  142.6432   78.1665  222.1391 H   0  0  0  0  0  0  0  0  0  0  0  0
  144.3609   79.8280  222.7971 H   0  0  0  0  0  0  0  0  0  0  0  0
  143.7373   81.8327  224.1135 H   0  0  0  0  0  0  0  0  0  0  0  0
  141.3639   82.2106  224.7928 H   0  0  0  0  0  0  0  0  0  0  0  0
  139.6572   80.5354  224.1259 H   0  0  0  0  0  0  0  0  0  0  0  0
  1  2  1  0
  2  3  1  0
  2  4  1  0
  4  5  1  0
  5  6  1  0
  6  7  1  0
  7  8  2  0
  7  9  1  0
  9 10  1  0
 10 11  1  0
 11 12  2  0
 11 13  1  0
 13 14  2  0
 14 15  1  0
 15 16  2  0
 16 17  1  0
 17 18  2  0
 18 19  1  0
 19 20  2  0
 20 21  1  0
 21 22  2  0
  5 23  1  0
 23 24  2  0
 23 25  1  0
 25 26  1  0
 26 27  1  0
 27 28  2  0
 28 29  1  0
 29 30  2  0
 30 31  1  0
 31 32  2  0
 22 13  1  0
 32 27  1  0
 21 16  1  0
  1 33  1  0
  1 34  1  0
  1 35  1  0
  2 36  1  0
  3 37  1  0
  3 38  1  0
  3 39  1  0
  4 40  1  0
  4 41  1  0
  5 42  1  1
  6 43  1  0
  9 44  1  0
  9 45  1  0
 10 46  1  0
 14 47  1  0
 15 48  1  0
 17 49  1  0
 18 50  1  0
 19 51  1  0
 20 52  1  0
 25 53  1  0
 26 54  1  0
 26 55  1  0
 28 56  1  0
 29 57  1  0
 30 58  1  0
 31 59  1  0
 32 60  1  0
M  END
>  <smiles>  (17) 
CC(C)C[C@H](NC(=O)CNC(=O)c1ccc2ccccc2n1)C(=O)NCc1ccccc1

>  <score_type>  (17) 
oracle

>  <origin>  (17) 
autodockgpu

>  <m_score__min__energy>  (17) 
-10.23

>  <m_primary>  (17) 
energy

>  <rmsd>  (17) 
2.764281358412954

>  <m_score__min__rmsd>  (17) 
2.764281358412954

>  <meeko>  (17) 
{"free_energy": -8.8, "intermolecular_energy": -11.49, "internal_energy": -2.42, "cluster_size": 19, "cluster_id": 1, "rank_in_cluster": 15}

>  <energy>  (17) 
-8.34

>  <cluster_rmsd>  (17) 
1.59

>  <cluster>  (17) 
1

$$$$

     RDKit          3D

 60 62  0  0  0  0  0  0  0  0999 V2000
  134.3820   75.2030  225.7430 C   0  0  0  0  0  0  0  0  0  0  0  0
  134.6030   75.2860  224.2010 C   0  0  0  0  0  0  0  0  0  0  0  0
  134.7890   76.7920  223.9770 C   0  0  0  0  0  0  0  0  0  0  0  0
  135.8570   74.5880  223.8540 C   0  0  0  0  0  0  0  0  0  0  0  0
  136.5130   74.7950  222.5520 C   0  0  2  0  0  0  0  0  0  0  0  0
  137.2800   73.5350  222.3190 N   0  0  0  0  0  0  0  0  0  0  0  0
  137.3960   72.9990  221.0080 C   0  0  0  0  0  0  0  0  0  0  0  0
  136.8400   73.6090  220.0330 O   0  0  0  0  0  0  0  0  0  0  0  0
  138.1570   71.7440  220.7750 C   0  0  0  0  0  0  0  0  0  0  0  0
  138.4560   71.0640  222.0190 N   0  0  0  0  0  0  0  0  0  0  0  0
  139.4030   71.7270  222.8800 C   0  0  0  0  0  0  0  0  0  0  0  0
  139.8880   72.8360  222.4740 O   0  0  0  0  0  0  0  0  0  0  0  0
  139.8010   71.1650  224.1650 C   0  0  0  0  0  0  0  0  0  0  0  0
  140.6650   71.9100  224.9560 C   0  0  0  0  0  0  0  0  0  0  0  0
  141.0870   71.4520  226.1860 C   0  0  0  0  0  0  0  0  0  0  0  0
  140.6230   70.2240  226.6080 C   0  0  0  0  0  0  0  0  0  0  0  0
  141.0630   69.7820  227.8500 C   0  0  0  0  0  0  0  0  0  0  0  0
  140.5910   68.5370  228.2780 C   0  0  0  0  0  0  0  0  0  0  0  0
  139.7310   67.7830  227.5030 C   0  0  0  0  0  0  0  0  0  0  0  0
  139.3110   68.2550  226.2610 C   0  0  0  0  0  0  0  0  0  0  0  0
  139.7630   69.4800  225.8200 C   0  0  0  0  0  0  0  0  0  0  0  0
  139.3760   69.9730  224.6180 N   0  0  0  0  0  0  0  0  0  0  0  0
  137.4710   75.8670  222.3690 C   0  0  0  0  0  0  0  0  0  0  0  0
  137.1280   76.9960  221.9340 O   0  0  0  0  0  0  0  0  0  0  0  0
  138.8680   75.7250  222.6660 N   0  0  0  0  0  0  0  0  0  0  0  0
  139.8370   76.7820  222.4890 C   0  0  0  0  0  0  0  0  0  0  0  0
  140.8900   76.4280  221.5130 C   0  0  0  0  0  0  0  0  0  0  0  0
  141.3890   75.1620  221.3260 C   0  0  0  0  0  0  0  0  0  0  0  0
  142.3810   74.9560  220.3900 C   0  0  0  0  0  0  0  0  0  0  0  0
  142.8780   76.0140  219.6360 C   0  0  0  0  0  0  0  0  0  0  0  0
  142.3880   77.2970  219.8090 C   0  0  0  0  0  0  0  0  0  0  0  0
  141.3970   77.4850  220.7500 C   0  0  0  0  0  0  0  0  0  0  0  0
  135.2898   75.5439  226.2624 H   0  0  0  0  0  0  0  0  0  0  0  0
  133.5344   75.8441  226.0270 H   0  0  0  0  0  0  0  0  0  0  0  0
  134.1660   74.1625  226.0270 H   0  0  0  0  0  0  0  0  0  0  0  0
  133.7920   74.8399  223.6066 H   0  0  0  0  0  0  0  0  0  0  0  0
  134.8520   77.3023  224.9494 H   0  0  0  0  0  0  0  0  0  0  0  0
  135.7156   76.9668  223.4105 H   0  0  0  0  0  0  0  0  0  0  0  0
  133.9328   77.1869  223.4105 H   0  0  0  0  0  0  0  0  0  0  0  0
  136.5928   74.8699  224.6215 H   0  0  0  0  0  0  0  0  0  0  0  0
  135.5367   73.5373  223.7953 H   0  0  0  0  0  0  0  0  0  0  0  0
  135.6917   75.0705  221.8741 H   0  0  0  0  0  0  0  0  0  0  0  0
  137.7290   73.0370  223.1180 H   0  0  0  0  0  0  0  0  0  0  0  0
  137.5584   71.0763  220.1379 H   0  0  0  0  0  0  0  0  0  0  0  0
  139.1081   72.0034  220.2869 H   0  0  0  0  0  0  0  0  0  0  0  0
  138.0320   70.1530  222.3040 H   0  0  0  0  0  0  0  0  0  0  0  0
  141.0203   72.8860  224.5939 H   0  0  0  0  0  0  0  0  0  0  0  0
  141.7709   72.0463  226.8098 H   0  0  0  0  0  0  0  0  0  0  0  0
  141.7489   70.3819  228.4662 H   0  0  0  0  0  0  0  0  0  0  0  0
  140.9124   68.1486  229.2557 H   0  0  0  0  0  0  0  0  0  0  0  0
  139.3769   66.8074  227.8674 H   0  0  0  0  0  0  0  0  0  0  0  0
  138.6272   67.6573  225.6403 H   0  0  0  0  0  0  0  0  0  0  0  0
  139.2450   74.8150  223.0340 H   0  0  0  0  0  0  0  0  0  0  0  0
  139.3153   77.6829  222.1337 H   0  0  0  0  0  0  0  0  0  0  0  0
  140.3253   76.9534  223.4597 H   0  0  0  0  0  0  0  0  0  0  0  0
  141.0009   74.3197  221.9176 H   0  0  0  0  0  0  0  0  0  0  0  0
  142.7836   73.9437  220.2381 H   0  0  0  0  0  0  0  0  0  0  0  0
  143.6690   75.8291  218.8943 H   0  0  0  0  0  0  0  0  0  0  0  0
  142.7758   78.1384  219.2160 H   0  0  0  0  0  0  0  0  0  0  0  0
  140.9934   78.4965  220.9050 H   0  0  0  0  0  0  0  0  0  0  0  0
  1  2  1  0
  2  3  1  0
  2  4  1  0
  4  5  1  0
  5  6  1  0
  6  7  1  0
  7  8  2  0
  7  9  1  0
  9 10  1  0
 10 11  1  0
 11 12  2  0
 11 13  1  0
 13 14  2  0
 14 15  1  0
 15 16  2  0
 16 17  1  0
 17 18  2  0
 18 19  1  0
 19 20  2  0
 20 21  1  0
 21 22  2  0
  5 23  1  0
 23 24  2  0
 23 25  1  0
 25 26  1  0
 26 27  1  0
 27 28  2  0
 28 29  1  0
 29 30  2  0
 30 31  1  0
 31 32  2  0
 22 13  1  0
 32 27  1  0
 21 16  1  0
  1 33  1  0
  1 34  1  0
  1 35  1  0
  2 36  1  0
  3 37  1  0
  3 38  1  0
  3 39  1  0
  4 40  1  0
  4 41  1  0
  5 42  1  6
  6 43  1  0
  9 44  1  0
  9 45  1  0
 10 46  1  0
 14 47  1  0
 15 48  1  0
 17 49  1  0
 18 50  1  0
 19 51  1  0
 20 52  1  0
 25 53  1  0
 26 54  1  0
 26 55  1  0
 28 56  1  0
 29 57  1  0
 30 58  1  0
 31 59  1  0
 32 60  1  0
M  END
>  <smiles>  (18) 
CC(C)C[C@H](NC(=O)CNC(=O)c1ccc2ccccc2n1)C(=O)NCc1ccccc1

>  <score_type>  (18) 
oracle

>  <origin>  (18) 
autodockgpu

>  <m_score__min__energy>  (18) 
-10.23

>  <m_primary>  (18) 
energy

>  <rmsd>  (18) 
5.398296484505976

>  <m_score__min__rmsd>  (18) 
5.398296484505976

>  <meeko>  (18) 
{"free_energy": -7.79, "intermolecular_energy": -10.48, "internal_energy": -3.35, "cluster_size": 4, "cluster_id": 4, "rank_in_cluster": 2}

>  <energy>  (18) 
-8.11

>  <cluster_rmsd>  (18) 
1.52

>  <cluster>  (18) 
1

$$$$

     RDKit          3D

 60 62  0  0  0  0  0  0  0  0999 V2000
  145.5860   72.9750  218.0190 C   0  0  0  0  0  0  0  0  0  0  0  0
  144.5700   73.1410  219.1920 C   0  0  0  0  0  0  0  0  0  0  0  0
  145.4870   73.4550  220.3800 C   0  0  0  0  0  0  0  0  0  0  0  0
  143.7090   74.3120  218.9240 C   0  0  0  0  0  0  0  0  0  0  0  0
  143.5560   75.3910  219.9130 C   0  0  2  0  0  0  0  0  0  0  0  0
  142.5480   74.8640  220.8810 N   0  0  0  0  0  0  0  0  0  0  0  0
  141.3170   74.3290  220.4140 C   0  0  0  0  0  0  0  0  0  0  0  0
  141.0850   74.3020  219.1580 O   0  0  0  0  0  0  0  0  0  0  0  0
  140.3130   73.8070  221.3760 C   0  0  0  0  0  0  0  0  0  0  0  0
  139.2940   74.7940  221.6720 N   0  0  0  0  0  0  0  0  0  0  0  0
  139.7670   76.0200  222.2650 C   0  0  0  0  0  0  0  0  0  0  0  0
  141.0220   76.1230  222.4770 O   0  0  0  0  0  0  0  0  0  0  0  0
  138.8600   77.1060  222.6150 C   0  0  0  0  0  0  0  0  0  0  0  0
  137.4990   76.8900  222.4450 C   0  0  0  0  0  0  0  0  0  0  0  0
  136.5740   77.8640  222.7540 C   0  0  0  0  0  0  0  0  0  0  0  0
  137.0440   79.0650  223.2400 C   0  0  0  0  0  0  0  0  0  0  0  0
  136.0930   80.0330  223.5450 C   0  0  0  0  0  0  0  0  0  0  0  0
  136.5710   81.2510  224.0390 C   0  0  0  0  0  0  0  0  0  0  0  0
  137.9220   81.4810  224.2140 C   0  0  0  0  0  0  0  0  0  0  0  0
  138.8490   80.4900  223.8980 C   0  0  0  0  0  0  0  0  0  0  0  0
  138.3990   79.2810  223.4100 C   0  0  0  0  0  0  0  0  0  0  0  0
  139.2710   78.2930  223.0920 N   0  0  0  0  0  0  0  0  0  0  0  0
  143.0630   76.6940  219.5160 C   0  0  0  0  0  0  0  0  0  0  0  0
  143.2540   77.1510  218.3600 O   0  0  0  0  0  0  0  0  0  0  0  0
  142.3290   77.5540  220.4000 N   0  0  0  0  0  0  0  0  0  0  0  0
  141.8310   78.8560  220.0200 C   0  0  0  0  0  0  0  0  0  0  0  0
  141.8490   79.8190  221.1440 C   0  0  0  0  0  0  0  0  0  0  0  0
  141.3780   81.1070  221.0780 C   0  0  0  0  0  0  0  0  0  0  0  0
  141.4580   81.9160  222.1920 C   0  0  0  0  0  0  0  0  0  0  0  0
  142.0080   81.4410  223.3770 C   0  0  0  0  0  0  0  0  0  0  0  0
  142.4870   80.1450  223.4650 C   0  0  0  0  0  0  0  0  0  0  0  0
  142.4000   79.3500  222.3420 C   0  0  0  0  0  0  0  0  0  0  0  0
  146.5940   72.8103  218.4275 H   0  0  0  0  0  0  0  0  0  0  0  0
  145.2952   72.1125  217.4014 H   0  0  0  0  0  0  0  0  0  0  0  0
  145.5849   73.8852  217.4014 H   0  0  0  0  0  0  0  0  0  0  0  0
  143.9175   72.2690  219.3468 H   0  0  0  0  0  0  0  0  0  0  0  0
  144.9461   73.2698  221.3197 H   0  0  0  0  0  0  0  0  0  0  0  0
  146.3774   72.8105  220.3363 H   0  0  0  0  0  0  0  0  0  0  0  0
  145.7954   74.5100  220.3363 H   0  0  0  0  0  0  0  0  0  0  0  0
  144.0984   74.7817  218.0087 H   0  0  0  0  0  0  0  0  0  0  0  0
  142.7031   73.8676  218.8983 H   0  0  0  0  0  0  0  0  0  0  0  0
  144.5823   75.6011  220.2486 H   0  0  0  0  0  0  0  0  0  0  0  0
  142.7390   74.8920  221.9060 H   0  0  0  0  0  0  0  0  0  0  0  0
  139.8329   72.9170  220.9431 H   0  0  0  0  0  0  0  0  0  0  0  0
  140.8321   73.5568  222.3130 H   0  0  0  0  0  0  0  0  0  0  0  0
  138.2770   74.6590  221.4810 H   0  0  0  0  0  0  0  0  0  0  0  0
  137.1518   75.9216  222.0557 H   0  0  0  0  0  0  0  0  0  0  0  0
  135.4967   77.6886  222.6173 H   0  0  0  0  0  0  0  0  0  0  0  0
  135.0175   79.8496  223.4045 H   0  0  0  0  0  0  0  0  0  0  0  0
  135.8539   82.0451  224.2944 H   0  0  0  0  0  0  0  0  0  0  0  0
  138.2670   82.4499  224.6042 H   0  0  0  0  0  0  0  0  0  0  0  0
  139.9255   80.6695  224.0359 H   0  0  0  0  0  0  0  0  0  0  0  0
  142.1230   77.2540  221.3860 H   0  0  0  0  0  0  0  0  0  0  0  0
  142.4585   79.2505  219.2072 H   0  0  0  0  0  0  0  0  0  0  0  0
  140.7855   78.7342  219.7004 H   0  0  0  0  0  0  0  0  0  0  0  0
  140.9405   81.4904  220.1444 H   0  0  0  0  0  0  0  0  0  0  0  0
  141.0824   82.9487  222.1423 H   0  0  0  0  0  0  0  0  0  0  0  0
  142.0633   82.1021  224.2544 H   0  0  0  0  0  0  0  0  0  0  0  0
  142.9225   79.7623  224.3998 H   0  0  0  0  0  0  0  0  0  0  0  0
  142.7746   78.3168  222.3889 H   0  0  0  0  0  0  0  0  0  0  0  0
  1  2  1  0
  2  3  1  0
  2  4  1  0
  4  5  1  0
  5  6  1  0
  6  7  1  0
  7  8  2  0
  7  9  1  0
  9 10  1  0
 10 11  1  0
 11 12  2  0
 11 13  1  0
 13 14  2  0
 14 15  1  0
 15 16  2  0
 16 17  1  0
 17 18  2  0
 18 19  1  0
 19 20  2  0
 20 21  1  0
 21 22  2  0
  5 23  1  0
 23 24  2  0
 23 25  1  0
 25 26  1  0
 26 27  1  0
 27 28  2  0
 28 29  1  0
 29 30  2  0
 30 31  1  0
 31 32  2  0
 22 13  1  0
 32 27  1  0
 21 16  1  0
  1 33  1  0
  1 34  1  0
  1 35  1  0
  2 36  1  0
  3 37  1  0
  3 38  1  0
  3 39  1  0
  4 40  1  0
  4 41  1  0
  5 42  1  1
  6 43  1  0
  9 44  1  0
  9 45  1  0
 10 46  1  0
 14 47  1  0
 15 48  1  0
 17 49  1  0
 18 50  1  0
 19 51  1  0
 20 52  1  0
 25 53  1  0
 26 54  1  0
 26 55  1  0
 28 56  1  0
 29 57  1  0
 30 58  1  0
 31 59  1  0
 32 60  1  0
M  END
>  <smiles>  (19) 
CC(C)C[C@H](NC(=O)CNC(=O)c1ccc2ccccc2n1)C(=O)NCc1ccccc1

>  <score_type>  (19) 
oracle

>  <origin>  (19) 
autodockgpu

>  <m_score__min__energy>  (19) 
-10.23

>  <m_primary>  (19) 
energy

>  <rmsd>  (19) 
6.624325614550829

>  <m_score__min__rmsd>  (19) 
6.624325614550829

>  <meeko>  (19) 
{"free_energy": -6.88, "intermolecular_energy": -9.56, "internal_energy": -3.88, "cluster_size": 1, "cluster_id": 7, "rank_in_cluster": 1}

>  <energy>  (19) 
-8.06

>  <cluster_rmsd>  (19) 
1.57

>  <cluster>  (19) 
1

$$$$

     RDKit          3D

 60 62  0  0  0  0  0  0  0  0999 V2000
  141.7850   78.8720  223.9280 C   0  0  0  0  0  0  0  0  0  0  0  0
  140.7640   79.0640  222.7650 C   0  0  0  0  0  0  0  0  0  0  0  0
  141.5920   79.8250  221.7230 C   0  0  0  0  0  0  0  0  0  0  0  0
  140.3970   77.7420  222.2190 C   0  0  0  0  0  0  0  0  0  0  0  0
  140.2740   77.5200  220.7690 C   0  0  2  0  0  0  0  0  0  0  0  0
  139.3550   76.3490  220.6510 N   0  0  0  0  0  0  0  0  0  0  0  0
  139.7010   75.1030  221.2410 C   0  0  0  0  0  0  0  0  0  0  0  0
  140.8060   74.9980  221.8740 O   0  0  0  0  0  0  0  0  0  0  0  0
  138.7880   73.9370  221.1220 C   0  0  0  0  0  0  0  0  0  0  0  0
  138.7410   73.1700  222.3510 N   0  0  0  0  0  0  0  0  0  0  0  0
  139.8520   72.2790  222.5730 C   0  0  0  0  0  0  0  0  0  0  0  0
  140.7620   72.2420  221.6780 O   0  0  0  0  0  0  0  0  0  0  0  0
  139.9440   71.4460  223.7650 C   0  0  0  0  0  0  0  0  0  0  0  0
  139.5060   70.1310  223.6700 C   0  0  0  0  0  0  0  0  0  0  0  0
  139.5610   69.2760  224.7500 C   0  0  0  0  0  0  0  0  0  0  0  0
  140.0670   69.7700  225.9340 C   0  0  0  0  0  0  0  0  0  0  0  0
  140.1120   68.8900  227.0100 C   0  0  0  0  0  0  0  0  0  0  0  0
  140.6260   69.3900  228.2100 C   0  0  0  0  0  0  0  0  0  0  0  0
  141.0660   70.6950  228.3210 C   0  0  0  0  0  0  0  0  0  0  0  0
  141.0050   71.5520  227.2240 C   0  0  0  0  0  0  0  0  0  0  0  0
  140.5030   71.0790  226.0310 C   0  0  0  0  0  0  0  0  0  0  0  0
  140.4280   71.8810  224.9410 N   0  0  0  0  0  0  0  0  0  0  0  0
  141.4350   77.1800  219.9710 C   0  0  0  0  0  0  0  0  0  0  0  0
  141.5680   77.5850  218.7880 O   0  0  0  0  0  0  0  0  0  0  0  0
  142.5090   76.3640  220.4630 N   0  0  0  0  0  0  0  0  0  0  0  0
  143.6720   76.0150  219.6820 C   0  0  0  0  0  0  0  0  0  0  0  0
  144.1510   74.6430  219.9600 C   0  0  0  0  0  0  0  0  0  0  0  0
  145.3530   74.3390  220.5510 C   0  0  0  0  0  0  0  0  0  0  0  0
  145.6950   73.0180  220.7510 C   0  0  0  0  0  0  0  0  0  0  0  0
  144.8370   71.9950  220.3610 C   0  0  0  0  0  0  0  0  0  0  0  0
  143.6200   72.2800  219.7640 C   0  0  0  0  0  0  0  0  0  0  0  0
  143.2950   73.6070  219.5720 C   0  0  0  0  0  0  0  0  0  0  0  0
  141.2649   78.9698  224.8923 H   0  0  0  0  0  0  0  0  0  0  0  0
  142.2391   77.8727  223.8560 H   0  0  0  0  0  0  0  0  0  0  0  0
  142.5711   79.6381  223.8560 H   0  0  0  0  0  0  0  0  0  0  0  0
  139.8368   79.5755  223.0625 H   0  0  0  0  0  0  0  0  0  0  0  0
  142.3090   80.4840  222.2345 H   0  0  0  0  0  0  0  0  0  0  0  0
  142.1383   79.1072  221.0934 H   0  0  0  0  0  0  0  0  0  0  0  0
  140.9228   80.4298  221.0934 H   0  0  0  0  0  0  0  0  0  0  0  0
  141.1587   77.0345  222.5786 H   0  0  0  0  0  0  0  0  0  0  0  0
  139.3609   77.6196  222.5675 H   0  0  0  0  0  0  0  0  0  0  0  0
  139.9705   78.4985  220.3684 H   0  0  0  0  0  0  0  0  0  0  0  0
  138.4560   76.4370  220.1300 H   0  0  0  0  0  0  0  0  0  0  0  0
  137.7758   74.2983  220.8875 H   0  0  0  0  0  0  0  0  0  0  0  0
  139.1662   73.2834  220.3222 H   0  0  0  0  0  0  0  0  0  0  0  0
  137.9700   73.2360  223.0510 H   0  0  0  0  0  0  0  0  0  0  0  0
  139.1069   69.7643  222.7128 H   0  0  0  0  0  0  0  0  0  0  0  0
  139.2132   68.2355  224.6701 H   0  0  0  0  0  0  0  0  0  0  0  0
  139.7604   67.8515  226.9211 H   0  0  0  0  0  0  0  0  0  0  0  0
  140.6815   68.7285  229.0871 H   0  0  0  0  0  0  0  0  0  0  0  0
  141.4659   71.0588  229.2790 H   0  0  0  0  0  0  0  0  0  0  0  0
  141.3529   72.5921  227.3091 H   0  0  0  0  0  0  0  0  0  0  0  0
  142.4810   75.9810  221.4420 H   0  0  0  0  0  0  0  0  0  0  0  0
  143.4156   76.0896  218.6149 H   0  0  0  0  0  0  0  0  0  0  0  0
  144.4784   76.7119  219.9541 H   0  0  0  0  0  0  0  0  0  0  0  0
  146.0370   75.1423  220.8621 H   0  0  0  0  0  0  0  0  0  0  0  0
  146.6568   72.7707  221.2241 H   0  0  0  0  0  0  0  0  0  0  0  0
  145.1283   70.9476  220.5286 H   0  0  0  0  0  0  0  0  0  0  0  0
  142.9363   71.4761  219.4537 H   0  0  0  0  0  0  0  0  0  0  0  0
  142.3338   73.8579  219.0996 H   0  0  0  0  0  0  0  0  0  0  0  0
  1  2  1  0
  2  3  1  0
  2  4  1  0
  4  5  1  0
  5  6  1  0
  6  7  1  0
  7  8  2  0
  7  9  1  0
  9 10  1  0
 10 11  1  0
 11 12  2  0
 11 13  1  0
 13 14  2  0
 14 15  1  0
 15 16  2  0
 16 17  1  0
 17 18  2  0
 18 19  1  0
 19 20  2  0
 20 21  1  0
 21 22  2  0
  5 23  1  0
 23 24  2  0
 23 25  1  0
 25 26  1  0
 26 27  1  0
 27 28  2  0
 28 29  1  0
 29 30  2  0
 30 31  1  0
 31 32  2  0
 22 13  1  0
 32 27  1  0
 21 16  1  0
  1 33  1  0
  1 34  1  0
  1 35  1  0
  2 36  1  0
  3 37  1  0
  3 38  1  0
  3 39  1  0
  4 40  1  0
  4 41  1  0
  5 42  1  6
  6 43  1  0
  9 44  1  0
  9 45  1  0
 10 46  1  0
 14 47  1  0
 15 48  1  0
 17 49  1  0
 18 50  1  0
 19 51  1  0
 20 52  1  0
 25 53  1  0
 26 54  1  0
 26 55  1  0
 28 56  1  0
 29 57  1  0
 30 58  1  0
 31 59  1  0
 32 60  1  0
M  END
>  <smiles>  (20) 
CC(C)C[C@H](NC(=O)CNC(=O)c1ccc2ccccc2n1)C(=O)NCc1ccccc1

>  <score_type>  (20) 
oracle

>  <origin>  (20) 
autodockgpu

>  <m_score__min__energy>  (20) 
-10.23

>  <m_primary>  (20) 
energy

>  <rmsd>  (20) 
5.356314325127758

>  <m_score__min__rmsd>  (20) 
5.356314325127758

>  <meeko>  (20) 
{"free_energy": -9.49, "intermolecular_energy": -12.18, "internal_energy": -2.55, "cluster_size": 17, "cluster_id": 2, "rank_in_cluster": 5}

>  <energy>  (20) 
-9.64

>  <cluster_rmsd>  (20) 
0.0

>  <cluster>  (20) 
2

$$$$

     RDKit          3D

 60 62  0  0  0  0  0  0  0  0999 V2000
  137.0640   78.4860  222.7590 C   0  0  0  0  0  0  0  0  0  0  0  0
  136.1330   77.2970  222.3650 C   0  0  0  0  0  0  0  0  0  0  0  0
  136.0830   77.4120  220.8370 C   0  0  0  0  0  0  0  0  0  0  0  0
  136.7900   76.0270  222.7340 C   0  0  0  0  0  0  0  0  0  0  0  0
  137.7940   75.4030  221.8570 C   0  0  2  0  0  0  0  0  0  0  0  0
  137.6440   73.9380  222.1060 N   0  0  0  0  0  0  0  0  0  0  0  0
  136.6230   73.2000  221.4480 C   0  0  0  0  0  0  0  0  0  0  0  0
  135.8400   73.8030  220.6390 O   0  0  0  0  0  0  0  0  0  0  0  0
  136.4720   71.7430  221.6960 C   0  0  0  0  0  0  0  0  0  0  0  0
  137.0470   71.3560  222.9690 N   0  0  0  0  0  0  0  0  0  0  0  0
  138.4870   71.3110  223.0140 C   0  0  0  0  0  0  0  0  0  0  0  0
  139.1170   71.6090  221.9440 O   0  0  0  0  0  0  0  0  0  0  0  0
  139.2070   70.9420  224.2270 C   0  0  0  0  0  0  0  0  0  0  0  0
  140.2560   71.7600  224.6280 C   0  0  0  0  0  0  0  0  0  0  0  0
  140.9870   71.4830  225.7630 C   0  0  0  0  0  0  0  0  0  0  0  0
  140.6430   70.3640  226.4920 C   0  0  0  0  0  0  0  0  0  0  0  0
  141.3940   70.1050  227.6330 C   0  0  0  0  0  0  0  0  0  0  0  0
  141.0440   68.9710  228.3720 C   0  0  0  0  0  0  0  0  0  0  0  0
  140.0030   68.1480  227.9870 C   0  0  0  0  0  0  0  0  0  0  0  0
  139.2710   68.4350  226.8370 C   0  0  0  0  0  0  0  0  0  0  0  0
  139.5990   69.5500  226.0930 C   0  0  0  0  0  0  0  0  0  0  0  0
  138.9100   69.8630  224.9690 N   0  0  0  0  0  0  0  0  0  0  0  0
  139.2060   75.6800  222.0340 C   0  0  0  0  0  0  0  0  0  0  0  0
  140.0330   74.7680  222.2880 O   0  0  0  0  0  0  0  0  0  0  0  0
  139.7610   77.0000  221.9340 N   0  0  0  0  0  0  0  0  0  0  0  0
  141.1640   77.2940  222.1090 C   0  0  0  0  0  0  0  0  0  0  0  0
  141.4080   78.7150  222.4410 C   0  0  0  0  0  0  0  0  0  0  0  0
  141.8490   79.1680  223.6600 C   0  0  0  0  0  0  0  0  0  0  0  0
  142.0310   80.5220  223.8540 C   0  0  0  0  0  0  0  0  0  0  0  0
  141.7720   81.4280  222.8310 C   0  0  0  0  0  0  0  0  0  0  0  0
  141.3280   80.9910  221.5950 C   0  0  0  0  0  0  0  0  0  0  0  0
  141.1510   79.6340  221.4180 C   0  0  0  0  0  0  0  0  0  0  0  0
  137.1213   78.5592  223.8551 H   0  0  0  0  0  0  0  0  0  0  0  0
  138.0706   78.3147  222.3498 H   0  0  0  0  0  0  0  0  0  0  0  0
  136.6563   79.4221  222.3498 H   0  0  0  0  0  0  0  0  0  0  0  0
  135.1454   77.3197  222.8489 H   0  0  0  0  0  0  0  0  0  0  0  0
  135.6589   78.3874  220.5564 H   0  0  0  0  0  0  0  0  0  0  0  0
  137.1008   77.3237  220.4292 H   0  0  0  0  0  0  0  0  0  0  0  0
  135.4534   76.6074  220.4292 H   0  0  0  0  0  0  0  0  0  0  0  0
  137.2862   76.2023  223.7000 H   0  0  0  0  0  0  0  0  0  0  0  0
  135.9586   75.3078  222.6948 H   0  0  0  0  0  0  0  0  0  0  0  0
  137.5783   75.8152  220.8602 H   0  0  0  0  0  0  0  0  0  0  0  0
  138.2820   73.4490  222.7700 H   0  0  0  0  0  0  0  0  0  0  0  0
  135.4015   71.4900  221.6962 H   0  0  0  0  0  0  0  0  0  0  0  0
  137.0035   71.2015  220.8996 H   0  0  0  0  0  0  0  0  0  0  0  0
  136.4840   71.1200  223.8160 H   0  0  0  0  0  0  0  0  0  0  0  0
  140.5081   72.6465  224.0275 H   0  0  0  0  0  0  0  0  0  0  0  0
  141.8172   72.1328  226.0770 H   0  0  0  0  0  0  0  0  0  0  0  0
  142.2228   70.7601  227.9393 H   0  0  0  0  0  0  0  0  0  0  0  0
  141.6114   68.7279  229.2825 H   0  0  0  0  0  0  0  0  0  0  0  0
  139.7515   67.2634  228.5905 H   0  0  0  0  0  0  0  0  0  0  0  0
  138.4425   67.7815  226.5261 H   0  0  0  0  0  0  0  0  0  0  0  0
  139.1410   77.8240  221.7250 H   0  0  0  0  0  0  0  0  0  0  0  0
  141.5564   76.6688  222.9246 H   0  0  0  0  0  0  0  0  0  0  0  0
  141.6714   77.0814  221.1564 H   0  0  0  0  0  0  0  0  0  0  0  0
  142.0553   78.4580  224.4744 H   0  0  0  0  0  0  0  0  0  0  0  0
  142.3849   80.8890  224.8287 H   0  0  0  0  0  0  0  0  0  0  0  0
  141.9217   82.5036  223.0061 H   0  0  0  0  0  0  0  0  0  0  0  0
  141.1231   81.7018  220.7809 H   0  0  0  0  0  0  0  0  0  0  0  0
  140.7975   79.2641  220.4442 H   0  0  0  0  0  0  0  0  0  0  0  0
  1  2  1  0
  2  3  1  0
  2  4  1  0
  4  5  1  0
  5  6  1  0
  6  7  1  0
  7  8  2  0
  7  9  1  0
  9 10  1  0
 10 11  1  0
 11 12  2  0
 11 13  1  0
 13 14  2  0
 14 15  1  0
 15 16  2  0
 16 17  1  0
 17 18  2  0
 18 19  1  0
 19 20  2  0
 20 21  1  0
 21 22  2  0
  5 23  1  0
 23 24  2  0
 23 25  1  0
 25 26  1  0
 26 27  1  0
 27 28  2  0
 28 29  1  0
 29 30  2  0
 30 31  1  0
 31 32  2  0
 22 13  1  0
 32 27  1  0
 21 16  1  0
  1 33  1  0
  1 34  1  0
  1 35  1  0
  2 36  1  0
  3 37  1  0
  3 38  1  0
  3 39  1  0
  4 40  1  0
  4 41  1  0
  5 42  1  6
  6 43  1  0
  9 44  1  0
  9 45  1  0
 10 46  1  0
 14 47  1  0
 15 48  1  0
 17 49  1  0
 18 50  1  0
 19 51  1  0
 20 52  1  0
 25 53  1  0
 26 54  1  0
 26 55  1  0
 28 56  1  0
 29 57  1  0
 30 58  1  0
 31 59  1  0
 32 60  1  0
M  END
>  <smiles>  (21) 
CC(C)C[C@H](NC(=O)CNC(=O)c1ccc2ccccc2n1)C(=O)NCc1ccccc1

>  <score_type>  (21) 
oracle

>  <origin>  (21) 
autodockgpu

>  <m_score__min__energy>  (21) 
-10.23

>  <m_primary>  (21) 
energy

>  <rmsd>  (21) 
4.075323574895096

>  <m_score__min__rmsd>  (21) 
4.075323574895096

>  <meeko>  (21) 
{"free_energy": -7.95, "intermolecular_energy": -10.64, "internal_energy": -3.12, "cluster_size": 5, "cluster_id": 3, "rank_in_cluster": 3}

>  <energy>  (21) 
-9.64

>  <cluster_rmsd>  (21) 
0.28

>  <cluster>  (21) 
2

$$$$

     RDKit          3D

 60 62  0  0  0  0  0  0  0  0999 V2000
  145.6190   74.1790  220.8540 C   0  0  0  0  0  0  0  0  0  0  0  0
  144.7330   73.3340  219.8870 C   0  0  0  0  0  0  0  0  0  0  0  0
  144.0430   72.3540  220.8430 C   0  0  0  0  0  0  0  0  0  0  0  0
  143.7140   74.2100  219.2750 C   0  0  0  0  0  0  0  0  0  0  0  0
  142.8460   75.0670  220.1000 C   0  0  2  0  0  0  0  0  0  0  0  0
  141.5630   74.3090  220.1970 N   0  0  0  0  0  0  0  0  0  0  0  0
  140.4880   74.8170  220.9760 C   0  0  0  0  0  0  0  0  0  0  0  0
  140.6320   75.9280  221.5890 O   0  0  0  0  0  0  0  0  0  0  0  0
  139.2110   74.0640  221.0740 C   0  0  0  0  0  0  0  0  0  0  0  0
  139.1180   73.3340  222.3230 N   0  0  0  0  0  0  0  0  0  0  0  0
  140.0720   72.2680  222.4960 C   0  0  0  0  0  0  0  0  0  0  0  0
  140.8990   72.0620  221.5450 O   0  0  0  0  0  0  0  0  0  0  0  0
  140.1010   71.4490  223.7010 C   0  0  0  0  0  0  0  0  0  0  0  0
  139.6260   70.1470  223.6080 C   0  0  0  0  0  0  0  0  0  0  0  0
  139.6210   69.3060  224.7000 C   0  0  0  0  0  0  0  0  0  0  0  0
  140.1040   69.8000  225.8940 C   0  0  0  0  0  0  0  0  0  0  0  0
  140.0890   68.9340  226.9820 C   0  0  0  0  0  0  0  0  0  0  0  0
  140.5800   69.4350  228.1910 C   0  0  0  0  0  0  0  0  0  0  0  0
  141.0570   70.7270  228.3000 C   0  0  0  0  0  0  0  0  0  0  0  0
  141.0570   71.5700  227.1900 C   0  0  0  0  0  0  0  0  0  0  0  0
  140.5770   71.0960  225.9870 C   0  0  0  0  0  0  0  0  0  0  0  0
  140.5620   71.8850  224.8860 N   0  0  0  0  0  0  0  0  0  0  0  0
  142.4770   76.3950  219.6530 C   0  0  0  0  0  0  0  0  0  0  0  0
  142.3650   76.6760  218.4330 O   0  0  0  0  0  0  0  0  0  0  0  0
  142.2120   77.4780  220.5570 N   0  0  0  0  0  0  0  0  0  0  0  0
  141.8430   78.8070  220.1290 C   0  0  0  0  0  0  0  0  0  0  0  0
  141.8130   79.7750  221.2480 C   0  0  0  0  0  0  0  0  0  0  0  0
  141.3320   81.0580  221.1590 C   0  0  0  0  0  0  0  0  0  0  0  0
  141.3650   81.8730  222.2720 C   0  0  0  0  0  0  0  0  0  0  0  0
  141.8790   81.4080  223.4780 C   0  0  0  0  0  0  0  0  0  0  0  0
  142.3670   80.1170  223.5880 C   0  0  0  0  0  0  0  0  0  0  0  0
  142.3270   79.3160  222.4660 C   0  0  0  0  0  0  0  0  0  0  0  0
  145.3621   73.9340  221.8951 H   0  0  0  0  0  0  0  0  0  0  0  0
  146.6797   73.9495  220.6743 H   0  0  0  0  0  0  0  0  0  0  0  0
  145.4399   75.2494  220.6743 H   0  0  0  0  0  0  0  0  0  0  0  0
  145.2938   72.8483  219.0748 H   0  0  0  0  0  0  0  0  0  0  0  0
  144.2503   72.6484  221.8824 H   0  0  0  0  0  0  0  0  0  0  0  0
  142.9574   72.3723  220.6663 H   0  0  0  0  0  0  0  0  0  0  0  0
  144.4262   71.3382  220.6663 H   0  0  0  0  0  0  0  0  0  0  0  0
  144.2518   74.8807  218.5887 H   0  0  0  0  0  0  0  0  0  0  0  0
  143.0016   73.4870  218.8511 H   0  0  0  0  0  0  0  0  0  0  0  0
  143.4375   75.2622  221.0067 H   0  0  0  0  0  0  0  0  0  0  0  0
  141.4500   73.4010  219.6990 H   0  0  0  0  0  0  0  0  0  0  0  0
  138.3724   74.7731  221.0114 H   0  0  0  0  0  0  0  0  0  0  0  0
  139.1740   73.3391  220.2475 H   0  0  0  0  0  0  0  0  0  0  0  0
  138.4180   73.5420  223.0700 H   0  0  0  0  0  0  0  0  0  0  0  0
  139.2461   69.7797  222.6432 H   0  0  0  0  0  0  0  0  0  0  0  0
  139.2445   68.2754  224.6220 H   0  0  0  0  0  0  0  0  0  0  0  0
  139.7094   67.9052  226.8954 H   0  0  0  0  0  0  0  0  0  0  0  0
  140.5868   68.7843  229.0779 H   0  0  0  0  0  0  0  0  0  0  0  0
  141.4379   71.0914  229.2655 H   0  0  0  0  0  0  0  0  0  0  0  0
  141.4349   72.5998  227.2724 H   0  0  0  0  0  0  0  0  0  0  0  0
  142.2820   77.3330  221.5970 H   0  0  0  0  0  0  0  0  0  0  0  0
  142.5736   79.1529  219.3829 H   0  0  0  0  0  0  0  0  0  0  0  0
  140.8287   78.7526  219.7069 H   0  0  0  0  0  0  0  0  0  0  0  0
  140.9239   81.4329  220.2088 H   0  0  0  0  0  0  0  0  0  0  0  0
  140.9807   82.9015  222.2048 H   0  0  0  0  0  0  0  0  0  0  0  0
  141.8980   82.0732  224.3539 H   0  0  0  0  0  0  0  0  0  0  0  0
  142.7733   79.7424  224.5391 H   0  0  0  0  0  0  0  0  0  0  0  0
  142.7101   78.2869  222.5303 H   0  0  0  0  0  0  0  0  0  0  0  0
  1  2  1  0
  2  3  1  0
  2  4  1  0
  4  5  1  0
  5  6  1  0
  6  7  1  0
  7  8  2  0
  7  9  1  0
  9 10  1  0
 10 11  1  0
 11 12  2  0
 11 13  1  0
 13 14  2  0
 14 15  1  0
 15 16  2  0
 16 17  1  0
 17 18  2  0
 18 19  1  0
 19 20  2  0
 20 21  1  0
 21 22  2  0
  5 23  1  0
 23 24  2  0
 23 25  1  0
 25 26  1  0
 26 27  1  0
 27 28  2  0
 28 29  1  0
 29 30  2  0
 30 31  1  0
 31 32  2  0
 22 13  1  0
 32 27  1  0
 21 16  1  0
  1 33  1  0
  1 34  1  0
  1 35  1  0
  2 36  1  0
  3 37  1  0
  3 38  1  0
  3 39  1  0
  4 40  1  0
  4 41  1  0
  5 42  1  1
  6 43  1  0
  9 44  1  0
  9 45  1  0
 10 46  1  0
 14 47  1  0
 15 48  1  0
 17 49  1  0
 18 50  1  0
 19 51  1  0
 20 52  1  0
 25 53  1  0
 26 54  1  0
 26 55  1  0
 28 56  1  0
 29 57  1  0
 30 58  1  0
 31 59  1  0
 32 60  1  0
M  END
>  <smiles>  (22) 
CC(C)C[C@H](NC(=O)CNC(=O)c1ccc2ccccc2n1)C(=O)NCc1ccccc1

>  <score_type>  (22) 
oracle

>  <origin>  (22) 
autodockgpu

>  <m_score__min__energy>  (22) 
-10.23

>  <m_primary>  (22) 
energy

>  <rmsd>  (22) 
3.3429228673804685

>  <m_score__min__rmsd>  (22) 
3.3429228673804685

>  <meeko>  (22) 
{"free_energy": -9.84, "intermolecular_energy": -12.52, "internal_energy": -2.46, "cluster_size": 19, "cluster_id": 1, "rank_in_cluster": 9}

>  <energy>  (22) 
-9.51

>  <cluster_rmsd>  (22) 
0.41

>  <cluster>  (22) 
2

$$$$

     RDKit          3D

 60 62  0  0  0  0  0  0  0  0999 V2000
  143.3530   76.8060  216.8450 C   0  0  0  0  0  0  0  0  0  0  0  0
  142.9480   77.0860  218.3260 C   0  0  0  0  0  0  0  0  0  0  0  0
  142.5770   78.5730  218.2900 C   0  0  0  0  0  0  0  0  0  0  0  0
  141.7460   76.2950  218.6560 C   0  0  0  0  0  0  0  0  0  0  0  0
  141.3350   76.0740  220.0520 C   0  0  2  0  0  0  0  0  0  0  0  0
  140.3640   74.9420  219.9770 N   0  0  0  0  0  0  0  0  0  0  0  0
  140.0140   74.2190  221.1500 C   0  0  0  0  0  0  0  0  0  0  0  0
  140.5370   74.5500  222.2670 O   0  0  0  0  0  0  0  0  0  0  0  0
  139.0490   73.0910  221.0760 C   0  0  0  0  0  0  0  0  0  0  0  0
  138.9310   72.4080  222.3490 N   0  0  0  0  0  0  0  0  0  0  0  0
  139.8660   71.3330  222.5690 C   0  0  0  0  0  0  0  0  0  0  0  0
  140.7010   71.0820  221.6360 O   0  0  0  0  0  0  0  0  0  0  0  0
  139.8690   70.5570  223.8020 C   0  0  0  0  0  0  0  0  0  0  0  0
  139.2180   69.3310  223.7940 C   0  0  0  0  0  0  0  0  0  0  0  0
  139.1760   68.5330  224.9180 C   0  0  0  0  0  0  0  0  0  0  0  0
  139.8050   68.9930  226.0560 C   0  0  0  0  0  0  0  0  0  0  0  0
  139.7490   68.1720  227.1770 C   0  0  0  0  0  0  0  0  0  0  0  0
  140.3880   68.6390  228.3300 C   0  0  0  0  0  0  0  0  0  0  0  0
  141.0400   69.8570  228.3540 C   0  0  0  0  0  0  0  0  0  0  0  0
  141.0760   70.6560  227.2140 C   0  0  0  0  0  0  0  0  0  0  0  0
  140.4530   70.2140  226.0650 C   0  0  0  0  0  0  0  0  0  0  0  0
  140.4670   70.9630  224.9350 N   0  0  0  0  0  0  0  0  0  0  0  0
  140.6560   77.1150  220.7970 C   0  0  0  0  0  0  0  0  0  0  0  0
  139.9740   78.0030  220.2250 O   0  0  0  0  0  0  0  0  0  0  0  0
  140.7070   77.2110  222.2290 N   0  0  0  0  0  0  0  0  0  0  0  0
  140.0370   78.2420  222.9870 C   0  0  0  0  0  0  0  0  0  0  0  0
  140.8650   79.4580  223.1440 C   0  0  0  0  0  0  0  0  0  0  0  0
  140.5890   80.6720  222.5630 C   0  0  0  0  0  0  0  0  0  0  0  0
  141.4430   81.7340  222.7750 C   0  0  0  0  0  0  0  0  0  0  0  0
  142.5760   81.5880  223.5690 C   0  0  0  0  0  0  0  0  0  0  0  0
  142.8710   80.3730  224.1640 C   0  0  0  0  0  0  0  0  0  0  0  0
  142.0070   79.3210  223.9410 C   0  0  0  0  0  0  0  0  0  0  0  0
  144.2576   76.1806  216.8242 H   0  0  0  0  0  0  0  0  0  0  0  0
  142.5326   76.2813  216.3335 H   0  0  0  0  0  0  0  0  0  0  0  0
  143.5542   77.7588  216.3335 H   0  0  0  0  0  0  0  0  0  0  0  0
  143.7286   76.8364  219.0597 H   0  0  0  0  0  0  0  0  0  0  0  0
  142.4824   78.9523  219.3182 H   0  0  0  0  0  0  0  0  0  0  0  0
  143.3626   79.1343  217.7630 H   0  0  0  0  0  0  0  0  0  0  0  0
  141.6198   78.6994  217.7630 H   0  0  0  0  0  0  0  0  0  0  0  0
  140.9003   76.7913  218.1575 H   0  0  0  0  0  0  0  0  0  0  0  0
  142.0285   75.2838  218.3277 H   0  0  0  0  0  0  0  0  0  0  0  0
  142.2816   75.9494  220.5983 H   0  0  0  0  0  0  0  0  0  0  0  0
  139.9420   74.6710  219.0640 H   0  0  0  0  0  0  0  0  0  0  0  0
  138.0624   73.4831  220.7880 H   0  0  0  0  0  0  0  0  0  0  0  0
  139.4171   72.3705  220.3308 H   0  0  0  0  0  0  0  0  0  0  0  0
  138.2260   72.6520  223.0790 H   0  0  0  0  0  0  0  0  0  0  0  0
  138.7254   68.9889  222.8719 H   0  0  0  0  0  0  0  0  0  0  0  0
  138.6584   67.5625  224.9073 H   0  0  0  0  0  0  0  0  0  0  0  0
  139.2280   67.2034  227.1578 H   0  0  0  0  0  0  0  0  0  0  0  0
  140.3711   68.0215  229.2402 H   0  0  0  0  0  0  0  0  0  0  0  0
  141.5324   70.1968  229.2771 H   0  0  0  0  0  0  0  0  0  0  0  0
  141.5941   71.6262  227.2294 H   0  0  0  0  0  0  0  0  0  0  0  0
  141.2550   76.5110  222.7900 H   0  0  0  0  0  0  0  0  0  0  0  0
  139.1063   78.5136  222.4673 H   0  0  0  0  0  0  0  0  0  0  0  0
  139.8369   77.8417  223.9918 H   0  0  0  0  0  0  0  0  0  0  0  0
  139.6949   80.7958  221.9344 H   0  0  0  0  0  0  0  0  0  0  0  0
  141.2258   82.7074  222.3110 H   0  0  0  0  0  0  0  0  0  0  0  0
  143.2448   82.4471  223.7258 H   0  0  0  0  0  0  0  0  0  0  0  0
  143.7647   80.2507  224.7936 H   0  0  0  0  0  0  0  0  0  0  0  0
  142.2220   78.3462  224.4031 H   0  0  0  0  0  0  0  0  0  0  0  0
  1  2  1  0
  2  3  1  0
  2  4  1  0
  4  5  1  0
  5  6  1  0
  6  7  1  0
  7  8  2  0
  7  9  1  0
  9 10  1  0
 10 11  1  0
 11 12  2  0
 11 13  1  0
 13 14  2  0
 14 15  1  0
 15 16  2  0
 16 17  1  0
 17 18  2  0
 18 19  1  0
 19 20  2  0
 20 21  1  0
 21 22  2  0
  5 23  1  0
 23 24  2  0
 23 25  1  0
 25 26  1  0
 26 27  1  0
 27 28  2  0
 28 29  1  0
 29 30  2  0
 30 31  1  0
 31 32  2  0
 22 13  1  0
 32 27  1  0
 21 16  1  0
  1 33  1  0
  1 34  1  0
  1 35  1  0
  2 36  1  0
  3 37  1  0
  3 38  1  0
  3 39  1  0
  4 40  1  0
  4 41  1  0
  5 42  1  1
  6 43  1  0
  9 44  1  0
  9 45  1  0
 10 46  1  0
 14 47  1  0
 15 48  1  0
 17 49  1  0
 18 50  1  0
 19 51  1  0
 20 52  1  0
 25 53  1  0
 26 54  1  0
 26 55  1  0
 28 56  1  0
 29 57  1  0
 30 58  1  0
 31 59  1  0
 32 60  1  0
M  END
>  <smiles>  (23) 
CC(C)C[C@H](NC(=O)CNC(=O)c1ccc2ccccc2n1)C(=O)NCc1ccccc1

>  <score_type>  (23) 
oracle

>  <origin>  (23) 
autodockgpu

>  <m_score__min__energy>  (23) 
-10.23

>  <m_primary>  (23) 
energy

>  <rmsd>  (23) 
2.592710880043665

>  <m_score__min__rmsd>  (23) 
2.592710880043665

>  <meeko>  (23) 
{"free_energy": -8.73, "intermolecular_energy": -11.42, "internal_energy": -2.28, "cluster_size": 19, "cluster_id": 1, "rank_in_cluster": 16}

>  <energy>  (23) 
-9.51

>  <cluster_rmsd>  (23) 
0.43

>  <cluster>  (23) 
2

$$$$

     RDKit          3D

 60 62  0  0  0  0  0  0  0  0999 V2000
  141.7950   78.9220  223.8860 C   0  0  0  0  0  0  0  0  0  0  0  0
  140.6060   79.0890  222.8900 C   0  0  0  0  0  0  0  0  0  0  0  0
  141.2050   80.0020  221.8140 C   0  0  0  0  0  0  0  0  0  0  0  0
  140.2890   77.7770  222.2910 C   0  0  0  0  0  0  0  0  0  0  0  0
  140.2320   77.5980  220.8310 C   0  0  2  0  0  0  0  0  0  0  0  0
  139.3740   76.3900  220.6400 N   0  0  0  0  0  0  0  0  0  0  0  0
  139.7010   75.1690  221.2900 C   0  0  0  0  0  0  0  0  0  0  0  0
  140.7340   75.1180  222.0390 O   0  0  0  0  0  0  0  0  0  0  0  0
  138.8500   73.9670  221.1000 C   0  0  0  0  0  0  0  0  0  0  0  0
  138.7370   73.1950  222.3210 N   0  0  0  0  0  0  0  0  0  0  0  0
  139.8520   72.3310  222.6180 C   0  0  0  0  0  0  0  0  0  0  0  0
  140.8240   72.3220  221.7890 O   0  0  0  0  0  0  0  0  0  0  0  0
  139.8830   71.4970  223.8130 C   0  0  0  0  0  0  0  0  0  0  0  0
  139.2740   70.2510  223.7460 C   0  0  0  0  0  0  0  0  0  0  0  0
  139.2600   69.4000  224.8300 C   0  0  0  0  0  0  0  0  0  0  0  0
  139.8720   69.8270  225.9900 C   0  0  0  0  0  0  0  0  0  0  0  0
  139.8450   68.9520  227.0700 C   0  0  0  0  0  0  0  0  0  0  0  0
  140.4670   69.3840  228.2450 C   0  0  0  0  0  0  0  0  0  0  0  0
  141.0770   70.6210  228.3280 C   0  0  0  0  0  0  0  0  0  0  0  0
  141.0850   71.4750  227.2270 C   0  0  0  0  0  0  0  0  0  0  0  0
  140.4780   71.0670  226.0580 C   0  0  0  0  0  0  0  0  0  0  0  0
  140.4660   71.8690  224.9650 N   0  0  0  0  0  0  0  0  0  0  0  0
  141.4370   77.3380  220.0700 C   0  0  0  0  0  0  0  0  0  0  0  0
  141.7030   77.9660  219.0130 O   0  0  0  0  0  0  0  0  0  0  0  0
  142.4090   76.3550  220.4580 N   0  0  0  0  0  0  0  0  0  0  0  0
  143.6150   76.0830  219.7110 C   0  0  0  0  0  0  0  0  0  0  0  0
  144.0800   74.6880  219.8750 C   0  0  0  0  0  0  0  0  0  0  0  0
  143.4190   73.5820  219.4000 C   0  0  0  0  0  0  0  0  0  0  0  0
  143.9480   72.3270  219.6240 C   0  0  0  0  0  0  0  0  0  0  0  0
  145.1390   72.1730  220.3240 C   0  0  0  0  0  0  0  0  0  0  0  0
  145.8220   73.2760  220.8110 C   0  0  0  0  0  0  0  0  0  0  0  0
  145.2790   74.5220  220.5780 C   0  0  0  0  0  0  0  0  0  0  0  0
  141.4188   78.9748  224.9183 H   0  0  0  0  0  0  0  0  0  0  0  0
  142.2774   77.9473  223.7210 H   0  0  0  0  0  0  0  0  0  0  0  0
  142.5272   79.7261  223.7210 H   0  0  0  0  0  0  0  0  0  0  0  0
  139.6867   79.4809  223.3496 H   0  0  0  0  0  0  0  0  0  0  0  0
  141.7476   80.8290  222.2954 H   0  0  0  0  0  0  0  0  0  0  0  0
  141.8996   79.4234  221.1873 H   0  0  0  0  0  0  0  0  0  0  0  0
  140.3977   80.4087  221.1873 H   0  0  0  0  0  0  0  0  0  0  0  0
  141.0490   77.0735  222.6617 H   0  0  0  0  0  0  0  0  0  0  0  0
  139.2422   77.6233  222.5919 H   0  0  0  0  0  0  0  0  0  0  0  0
  139.8983   78.5742  220.4494 H   0  0  0  0  0  0  0  0  0  0  0  0
  138.5340   76.4340  220.0240 H   0  0  0  0  0  0  0  0  0  0  0  0
  137.8456   74.2868  220.7856 H   0  0  0  0  0  0  0  0  0  0  0  0
  139.3179   73.3318  220.3334 H   0  0  0  0  0  0  0  0  0  0  0  0
  137.9170   73.2380  222.9650 H   0  0  0  0  0  0  0  0  0  0  0  0
  138.7927   69.9365  222.8082 H   0  0  0  0  0  0  0  0  0  0  0  0
  138.7770   68.4134  224.7720 H   0  0  0  0  0  0  0  0  0  0  0  0
  139.3580   67.9679  227.0032 H   0  0  0  0  0  0  0  0  0  0  0  0
  140.4709   68.7234  229.1245 H   0  0  0  0  0  0  0  0  0  0  0  0
  141.5581   70.9328  229.2668 H   0  0  0  0  0  0  0  0  0  0  0  0
  141.5688   72.4609  227.2895 H   0  0  0  0  0  0  0  0  0  0  0  0
  142.2690   75.7820  221.3280 H   0  0  0  0  0  0  0  0  0  0  0  0
  143.4183   76.2663  218.6444 H   0  0  0  0  0  0  0  0  0  0  0  0
  144.4037   76.7459  220.0963 H   0  0  0  0  0  0  0  0  0  0  0  0
  142.4757   73.6953  218.8456 H   0  0  0  0  0  0  0  0  0  0  0  0
  143.4214   71.4390  219.2444 H   0  0  0  0  0  0  0  0  0  0  0  0
  145.5439   71.1643  220.4933 H   0  0  0  0  0  0  0  0  0  0  0  0
  146.7655   73.1615  221.3648 H   0  0  0  0  0  0  0  0  0  0  0  0
  145.8037   75.4119  220.9558 H   0  0  0  0  0  0  0  0  0  0  0  0
  1  2  1  0
  2  3  1  0
  2  4  1  0
  4  5  1  0
  5  6  1  0
  6  7  1  0
  7  8  2  0
  7  9  1  0
  9 10  1  0
 10 11  1  0
 11 12  2  0
 11 13  1  0
 13 14  2  0
 14 15  1  0
 15 16  2  0
 16 17  1  0
 17 18  2  0
 18 19  1  0
 19 20  2  0
 20 21  1  0
 21 22  2  0
  5 23  1  0
 23 24  2  0
 23 25  1  0
 25 26  1  0
 26 27  1  0
 27 28  2  0
 28 29  1  0
 29 30  2  0
 30 31  1  0
 31 32  2  0
 22 13  1  0
 32 27  1  0
 21 16  1  0
  1 33  1  0
  1 34  1  0
  1 35  1  0
  2 36  1  0
  3 37  1  0
  3 38  1  0
  3 39  1  0
  4 40  1  0
  4 41  1  0
  5 42  1  6
  6 43  1  0
  9 44  1  0
  9 45  1  0
 10 46  1  0
 14 47  1  0
 15 48  1  0
 17 49  1  0
 18 50  1  0
 19 51  1  0
 20 52  1  0
 25 53  1  0
 26 54  1  0
 26 55  1  0
 28 56  1  0
 29 57  1  0
 30 58  1  0
 31 59  1  0
 32 60  1  0
M  END
>  <smiles>  (24) 
CC(C)C[C@H](NC(=O)CNC(=O)c1ccc2ccccc2n1)C(=O)NCc1ccccc1

>  <score_type>  (24) 
oracle

>  <origin>  (24) 
autodockgpu

>  <m_score__min__energy>  (24) 
-10.23

>  <m_primary>  (24) 
energy

>  <rmsd>  (24) 
5.3336246919137995

>  <m_score__min__rmsd>  (24) 
5.3336246919137995

>  <meeko>  (24) 
{"free_energy": -9.51, "intermolecular_energy": -12.2, "internal_energy": -2.46, "cluster_size": 17, "cluster_id": 2, "rank_in_cluster": 3}

>  <energy>  (24) 
-9.49

>  <cluster_rmsd>  (24) 
0.47

>  <cluster>  (24) 
2

$$$$

     RDKit          3D

 60 62  0  0  0  0  0  0  0  0999 V2000
  140.7490   71.1350  227.5980 C   0  0  0  0  0  0  0  0  0  0  0  0
  140.7250   70.5590  226.1490 C   0  0  0  0  0  0  0  0  0  0  0  0
  139.8370   69.3190  226.3020 C   0  0  0  0  0  0  0  0  0  0  0  0
  140.0560   71.5260  225.2550 C   0  0  0  0  0  0  0  0  0  0  0  0
  139.2600   71.0760  224.1010 C   0  0  2  0  0  0  0  0  0  0  0  0
  139.6320   72.0190  223.0050 N   0  0  0  0  0  0  0  0  0  0  0  0
  140.1460   71.5230  221.7760 C   0  0  0  0  0  0  0  0  0  0  0  0
  140.2840   70.2630  221.6210 O   0  0  0  0  0  0  0  0  0  0  0  0
  140.5190   72.4610  220.6860 C   0  0  0  0  0  0  0  0  0  0  0  0
  140.6930   73.8120  221.1810 N   0  0  0  0  0  0  0  0  0  0  0  0
  139.4840   74.4980  221.5620 C   0  0  0  0  0  0  0  0  0  0  0  0
  138.3840   73.8640  221.4280 O   0  0  0  0  0  0  0  0  0  0  0  0
  139.5030   75.8600  222.0800 C   0  0  0  0  0  0  0  0  0  0  0  0
  138.2840   76.4520  222.3830 C   0  0  0  0  0  0  0  0  0  0  0  0
  138.2130   77.7360  222.8790 C   0  0  0  0  0  0  0  0  0  0  0  0
  139.3980   78.4180  223.0660 C   0  0  0  0  0  0  0  0  0  0  0  0
  139.3020   79.7120  223.5670 C   0  0  0  0  0  0  0  0  0  0  0  0
  140.5020   80.4030  223.7560 C   0  0  0  0  0  0  0  0  0  0  0  0
  141.7230   79.8280  223.4600 C   0  0  0  0  0  0  0  0  0  0  0  0
  141.7840   78.5300  222.9570 C   0  0  0  0  0  0  0  0  0  0  0  0
  140.6120   77.8300  222.7630 C   0  0  0  0  0  0  0  0  0  0  0  0
  140.6300   76.5650  222.2770 N   0  0  0  0  0  0  0  0  0  0  0  0
  137.8110   71.0950  224.1490 C   0  0  0  0  0  0  0  0  0  0  0  0
  137.1530   70.1500  224.6550 O   0  0  0  0  0  0  0  0  0  0  0  0
  137.0270   72.1790  223.6300 N   0  0  0  0  0  0  0  0  0  0  0  0
  135.5830   72.2130  223.6690 C   0  0  0  0  0  0  0  0  0  0  0  0
  135.0650   73.3390  224.4770 C   0  0  0  0  0  0  0  0  0  0  0  0
  135.5000   74.6380  224.3770 C   0  0  0  0  0  0  0  0  0  0  0  0
  134.9460   75.6030  225.1930 C   0  0  0  0  0  0  0  0  0  0  0  0
  133.9560   75.2740  226.1120 C   0  0  0  0  0  0  0  0  0  0  0  0
  133.5030   73.9700  226.2280 C   0  0  0  0  0  0  0  0  0  0  0  0
  134.0680   73.0180  225.4050 C   0  0  0  0  0  0  0  0  0  0  0  0
  140.7145   70.3076  228.3221 H   0  0  0  0  0  0  0  0  0  0  0  0
  141.6720   71.7145  227.7470 H   0  0  0  0  0  0  0  0  0  0  0  0
  139.8773   71.7892  227.7470 H   0  0  0  0  0  0  0  0  0  0  0  0
  141.7216   70.3482  225.7337 H   0  0  0  0  0  0  0  0  0  0  0  0
  139.6849   69.1065  227.3705 H   0  0  0  0  0  0  0  0  0  0  0  0
  138.8642   69.5032  225.8226 H   0  0  0  0  0  0  0  0  0  0  0  0
  140.3247   68.4574  225.8226 H   0  0  0  0  0  0  0  0  0  0  0  0
  139.3792   72.1187  225.8880 H   0  0  0  0  0  0  0  0  0  0  0  0
  140.9051   72.0351  224.7756 H   0  0  0  0  0  0  0  0  0  0  0  0
  139.4960   70.0057  224.0078 H   0  0  0  0  0  0  0  0  0  0  0  0
  139.5220   73.0480  223.1360 H   0  0  0  0  0  0  0  0  0  0  0  0
  141.4620   72.1232  220.2314 H   0  0  0  0  0  0  0  0  0  0  0  0
  139.7061   72.4681  219.9450 H   0  0  0  0  0  0  0  0  0  0  0  0
  141.6190   74.2860  221.2680 H   0  0  0  0  0  0  0  0  0  0  0  0
  137.3554   75.8842  222.2238 H   0  0  0  0  0  0  0  0  0  0  0  0
  137.2451   78.2011  223.1176 H   0  0  0  0  0  0  0  0  0  0  0  0
  138.3296   80.1689  223.8028 H   0  0  0  0  0  0  0  0  0  0  0  0
  140.4737   81.4296  224.1500 H   0  0  0  0  0  0  0  0  0  0  0  0
  142.6503   80.3970  223.6221 H   0  0  0  0  0  0  0  0  0  0  0  0
  142.7541   78.0699  222.7179 H   0  0  0  0  0  0  0  0  0  0  0  0
  137.4940   73.0110  223.1890 H   0  0  0  0  0  0  0  0  0  0  0  0
  135.2045   72.3129  222.6410 H   0  0  0  0  0  0  0  0  0  0  0  0
  135.2389   71.2791  224.1374 H   0  0  0  0  0  0  0  0  0  0  0  0
  136.2831   74.9067  223.6528 H   0  0  0  0  0  0  0  0  0  0  0  0
  135.2916   76.6444  225.1155 H   0  0  0  0  0  0  0  0  0  0  0  0
  133.5277   76.0578  226.7541 H   0  0  0  0  0  0  0  0  0  0  0  0
  132.7192   73.7027  226.9520 H   0  0  0  0  0  0  0  0  0  0  0  0
  133.7247   71.9757  225.4804 H   0  0  0  0  0  0  0  0  0  0  0  0
  1  2  1  0
  2  3  1  0
  2  4  1  0
  4  5  1  0
  5  6  1  0
  6  7  1  0
  7  8  2  0
  7  9  1  0
  9 10  1  0
 10 11  1  0
 11 12  2  0
 11 13  1  0
 13 14  2  0
 14 15  1  0
 15 16  2  0
 16 17  1  0
 17 18  2  0
 18 19  1  0
 19 20  2  0
 20 21  1  0
 21 22  2  0
  5 23  1  0
 23 24  2  0
 23 25  1  0
 25 26  1  0
 26 27  1  0
 27 28  2  0
 28 29  1  0
 29 30  2  0
 30 31  1  0
 31 32  2  0
 22 13  1  0
 32 27  1  0
 21 16  1  0
  1 33  1  0
  1 34  1  0
  1 35  1  0
  2 36  1  0
  3 37  1  0
  3 38  1  0
  3 39  1  0
  4 40  1  0
  4 41  1  0
  5 42  1  6
  6 43  1  0
  9 44  1  0
  9 45  1  0
 10 46  1  0
 14 47  1  0
 15 48  1  0
 17 49  1  0
 18 50  1  0
 19 51  1  0
 20 52  1  0
 25 53  1  0
 26 54  1  0
 26 55  1  0
 28 56  1  0
 29 57  1  0
 30 58  1  0
 31 59  1  0
 32 60  1  0
M  END
>  <smiles>  (25) 
CC(C)C[C@H](NC(=O)CNC(=O)c1ccc2ccccc2n1)C(=O)NCc1ccccc1

>  <score_type>  (25) 
oracle

>  <origin>  (25) 
autodockgpu

>  <m_score__min__energy>  (25) 
-10.23

>  <m_primary>  (25) 
energy

>  <rmsd>  (25) 
8.757709595344895

>  <m_score__min__rmsd>  (25) 
8.757709595344895

>  <meeko>  (25) 
{"free_energy": -7.65, "intermolecular_energy": -10.34, "internal_energy": -3.48, "cluster_size": 3, "cluster_id": 5, "rank_in_cluster": 1}

>  <energy>  (25) 
-9.39

>  <cluster_rmsd>  (25) 
0.85

>  <cluster>  (25) 
2

$$$$

     RDKit          3D

 60 62  0  0  0  0  0  0  0  0999 V2000
  141.8430   78.7670  222.5010 C   0  0  0  0  0  0  0  0  0  0  0  0
  140.4030   78.9580  221.9320 C   0  0  0  0  0  0  0  0  0  0  0  0
  140.6630   79.7240  220.6300 C   0  0  0  0  0  0  0  0  0  0  0  0
  139.8310   77.6350  221.6090 C   0  0  0  0  0  0  0  0  0  0  0  0
  139.9170   77.0770  220.2490 C   0  0  2  0  0  0  0  0  0  0  0  0
  139.2680   75.7360  220.3580 N   0  0  0  0  0  0  0  0  0  0  0  0
  139.7110   74.8020  221.3340 C   0  0  0  0  0  0  0  0  0  0  0  0
  140.6680   75.1250  222.1170 O   0  0  0  0  0  0  0  0  0  0  0  0
  139.0680   73.4680  221.4430 C   0  0  0  0  0  0  0  0  0  0  0  0
  139.4170   72.8070  222.6840 N   0  0  0  0  0  0  0  0  0  0  0  0
  139.0790   71.4080  222.7630 C   0  0  0  0  0  0  0  0  0  0  0  0
  138.5070   70.8850  221.7480 O   0  0  0  0  0  0  0  0  0  0  0  0
  139.3710   70.6110  223.9480 C   0  0  0  0  0  0  0  0  0  0  0  0
  139.0010   69.2730  223.9330 C   0  0  0  0  0  0  0  0  0  0  0  0
  139.2430   68.4490  225.0110 C   0  0  0  0  0  0  0  0  0  0  0  0
  139.8670   68.9990  226.1120 C   0  0  0  0  0  0  0  0  0  0  0  0
  140.1010   68.1500  227.1870 C   0  0  0  0  0  0  0  0  0  0  0  0
  140.7350   68.7060  228.3020 C   0  0  0  0  0  0  0  0  0  0  0  0
  141.1100   70.0360  228.3330 C   0  0  0  0  0  0  0  0  0  0  0  0
  140.8600   70.8610  227.2380 C   0  0  0  0  0  0  0  0  0  0  0  0
  140.2360   70.3310  226.1280 C   0  0  0  0  0  0  0  0  0  0  0  0
  139.9760   71.1010  225.0430 N   0  0  0  0  0  0  0  0  0  0  0  0
  141.2040   76.8320  219.6300 C   0  0  0  0  0  0  0  0  0  0  0  0
  141.4030   77.0470  218.4070 O   0  0  0  0  0  0  0  0  0  0  0  0
  142.3370   76.3310  220.3550 N   0  0  0  0  0  0  0  0  0  0  0  0
  143.6260   76.0810  219.7530 C   0  0  0  0  0  0  0  0  0  0  0  0
  144.1270   74.7170  220.0350 C   0  0  0  0  0  0  0  0  0  0  0  0
  145.3870   74.4280  220.4980 C   0  0  0  0  0  0  0  0  0  0  0  0
  145.7440   73.1130  220.7150 C   0  0  0  0  0  0  0  0  0  0  0  0
  144.8440   72.0820  220.4680 C   0  0  0  0  0  0  0  0  0  0  0  0
  143.5680   72.3530  220.0010 C   0  0  0  0  0  0  0  0  0  0  0  0
  143.2280   73.6730  219.7900 C   0  0  0  0  0  0  0  0  0  0  0  0
  141.8065   78.7718  223.6004 H   0  0  0  0  0  0  0  0  0  0  0  0
  142.2508   77.8069  222.1519 H   0  0  0  0  0  0  0  0  0  0  0  0
  142.4870   79.5876  222.1519 H   0  0  0  0  0  0  0  0  0  0  0  0
  139.7120   79.4658  222.6210 H   0  0  0  0  0  0  0  0  0  0  0  0
  141.0083   80.7414  220.8659 H   0  0  0  0  0  0  0  0  0  0  0  0
  141.4341   79.2015  220.0449 H   0  0  0  0  0  0  0  0  0  0  0  0
  139.7331   79.7788  220.0449 H   0  0  0  0  0  0  0  0  0  0  0  0
  140.3245   76.9114  222.2744 H   0  0  0  0  0  0  0  0  0  0  0  0
  138.7510   77.8054  221.7297 H   0  0  0  0  0  0  0  0  0  0  0  0
  139.4717   77.8518  219.6077 H   0  0  0  0  0  0  0  0  0  0  0  0
  138.4900   75.4740  219.7160 H   0  0  0  0  0  0  0  0  0  0  0  0
  137.9760   73.5936  221.4004 H   0  0  0  0  0  0  0  0  0  0  0  0
  139.4249   72.8452  220.6095 H   0  0  0  0  0  0  0  0  0  0  0  0
  139.8840   73.2830  223.4880 H   0  0  0  0  0  0  0  0  0  0  0  0
  138.5042   68.8618  223.0419 H   0  0  0  0  0  0  0  0  0  0  0  0
  138.9488   67.3892  224.9943 H   0  0  0  0  0  0  0  0  0  0  0  0
  139.8018   67.0918  227.1618 H   0  0  0  0  0  0  0  0  0  0  0  0
  140.9403   68.0698  229.1756 H   0  0  0  0  0  0  0  0  0  0  0  0
  141.6074   70.4446  229.2249 H   0  0  0  0  0  0  0  0  0  0  0  0
  141.1562   71.9202  227.2587 H   0  0  0  0  0  0  0  0  0  0  0  0
  142.2620   76.1220  221.3830 H   0  0  0  0  0  0  0  0  0  0  0  0
  143.5372   76.2062  218.6638 H   0  0  0  0  0  0  0  0  0  0  0  0
  144.3415   76.7963  220.1847 H   0  0  0  0  0  0  0  0  0  0  0  0
  146.1053   75.2376  220.6942 H   0  0  0  0  0  0  0  0  0  0  0  0
  146.7518   72.8775  221.0875 H   0  0  0  0  0  0  0  0  0  0  0  0
  145.1485   71.0400  220.6453 H   0  0  0  0  0  0  0  0  0  0  0  0
  142.8503   71.5427  219.8051 H   0  0  0  0  0  0  0  0  0  0  0  0
  142.2207   73.9120  219.4182 H   0  0  0  0  0  0  0  0  0  0  0  0
  1  2  1  0
  2  3  1  0
  2  4  1  0
  4  5  1  0
  5  6  1  0
  6  7  1  0
  7  8  2  0
  7  9  1  0
  9 10  1  0
 10 11  1  0
 11 12  2  0
 11 13  1  0
 13 14  2  0
 14 15  1  0
 15 16  2  0
 16 17  1  0
 17 18  2  0
 18 19  1  0
 19 20  2  0
 20 21  1  0
 21 22  2  0
  5 23  1  0
 23 24  2  0
 23 25  1  0
 25 26  1  0
 26 27  1  0
 27 28  2  0
 28 29  1  0
 29 30  2  0
 30 31  1  0
 31 32  2  0
 22 13  1  0
 32 27  1  0
 21 16  1  0
  1 33  1  0
  1 34  1  0
  1 35  1  0
  2 36  1  0
  3 37  1  0
  3 38  1  0
  3 39  1  0
  4 40  1  0
  4 41  1  0
  5 42  1  6
  6 43  1  0
  9 44  1  0
  9 45  1  0
 10 46  1  0
 14 47  1  0
 15 48  1  0
 17 49  1  0
 18 50  1  0
 19 51  1  0
 20 52  1  0
 25 53  1  0
 26 54  1  0
 26 55  1  0
 28 56  1  0
 29 57  1  0
 30 58  1  0
 31 59  1  0
 32 60  1  0
M  END
>  <smiles>  (26) 
CC(C)C[C@H](NC(=O)CNC(=O)c1ccc2ccccc2n1)C(=O)NCc1ccccc1

>  <score_type>  (26) 
oracle

>  <origin>  (26) 
autodockgpu

>  <m_score__min__energy>  (26) 
-10.23

>  <m_primary>  (26) 
energy

>  <rmsd>  (26) 
5.173173418359806

>  <m_score__min__rmsd>  (26) 
5.173173418359806

>  <meeko>  (26) 
{"free_energy": -8.58, "intermolecular_energy": -11.27, "internal_energy": -2.9, "cluster_size": 17, "cluster_id": 2, "rank_in_cluster": 16}

>  <energy>  (26) 
-9.38

>  <cluster_rmsd>  (26) 
0.5

>  <cluster>  (26) 
2

$$$$

     RDKit          3D

 60 62  0  0  0  0  0  0  0  0999 V2000
  141.6910   79.9080  221.3810 C   0  0  0  0  0  0  0  0  0  0  0  0
  141.4330   78.4610  221.9010 C   0  0  0  0  0  0  0  0  0  0  0  0
  141.0330   78.7030  223.3620 C   0  0  0  0  0  0  0  0  0  0  0  0
  140.2840   77.8830  221.1750 C   0  0  0  0  0  0  0  0  0  0  0  0
  140.4620   77.1910  219.8890 C   0  0  2  0  0  0  0  0  0  0  0  0
  139.6890   75.9210  220.0410 N   0  0  0  0  0  0  0  0  0  0  0  0
  139.9520   75.0500  221.1330 C   0  0  0  0  0  0  0  0  0  0  0  0
  140.8530   75.3660  221.9810 O   0  0  0  0  0  0  0  0  0  0  0  0
  139.1850   73.7860  221.2850 C   0  0  0  0  0  0  0  0  0  0  0  0
  139.4150   73.1760  222.5790 N   0  0  0  0  0  0  0  0  0  0  0  0
  139.4190   71.7350  222.5970 C   0  0  0  0  0  0  0  0  0  0  0  0
  139.2190   71.1340  221.4880 O   0  0  0  0  0  0  0  0  0  0  0  0
  139.6400   70.9810  223.8260 C   0  0  0  0  0  0  0  0  0  0  0  0
  139.3010   69.6350  223.8260 C   0  0  0  0  0  0  0  0  0  0  0  0
  139.4810   68.8500  224.9450 C   0  0  0  0  0  0  0  0  0  0  0  0
  140.0090   69.4480  226.0700 C   0  0  0  0  0  0  0  0  0  0  0  0
  140.1810   68.6370  227.1870 C   0  0  0  0  0  0  0  0  0  0  0  0
  140.7170   69.2430  228.3270 C   0  0  0  0  0  0  0  0  0  0  0  0
  141.0590   70.5810  228.3430 C   0  0  0  0  0  0  0  0  0  0  0  0
  140.8730   71.3660  227.2070 C   0  0  0  0  0  0  0  0  0  0  0  0
  140.3460   70.7880  226.0710 C   0  0  0  0  0  0  0  0  0  0  0  0
  140.1510   71.5190  224.9460 N   0  0  0  0  0  0  0  0  0  0  0  0
  141.7800   76.7870  219.4420 C   0  0  0  0  0  0  0  0  0  0  0  0
  142.1860   77.0240  218.2750 O   0  0  0  0  0  0  0  0  0  0  0  0
  142.7130   76.0950  220.2850 N   0  0  0  0  0  0  0  0  0  0  0  0
  144.0300   75.6860  219.8570 C   0  0  0  0  0  0  0  0  0  0  0  0
  144.2130   74.2190  219.9150 C   0  0  0  0  0  0  0  0  0  0  0  0
  143.1960   73.2990  219.8390 C   0  0  0  0  0  0  0  0  0  0  0  0
  143.4910   71.9540  219.9160 C   0  0  0  0  0  0  0  0  0  0  0  0
  144.8040   71.5220  220.0690 C   0  0  0  0  0  0  0  0  0  0  0  0
  145.8440   72.4330  220.1470 C   0  0  0  0  0  0  0  0  0  0  0  0
  145.5310   73.7740  220.0690 C   0  0  0  0  0  0  0  0  0  0  0  0
  141.8124   80.5888  222.2364 H   0  0  0  0  0  0  0  0  0  0  0  0
  142.6055   79.9204  220.7698 H   0  0  0  0  0  0  0  0  0  0  0  0
  140.8371   80.2357  220.7698 H   0  0  0  0  0  0  0  0  0  0  0  0
  142.2884   77.7807  221.7763 H   0  0  0  0  0  0  0  0  0  0  0  0
  141.7825   78.2495  224.0273 H   0  0  0  0  0  0  0  0  0  0  0  0
  140.9798   79.7850  223.5532 H   0  0  0  0  0  0  0  0  0  0  0  0
  140.0499   78.2481  223.5532 H   0  0  0  0  0  0  0  0  0  0  0  0
  139.8181   77.1568  221.8573 H   0  0  0  0  0  0  0  0  0  0  0  0
  139.7096   78.7761  220.8878 H   0  0  0  0  0  0  0  0  0  0  0  0
  140.1562   77.9330  219.1367 H   0  0  0  0  0  0  0  0  0  0  0  0
  138.9570   75.6650  219.3450 H   0  0  0  0  0  0  0  0  0  0  0  0
  138.1121   74.0043  221.1787 H   0  0  0  0  0  0  0  0  0  0  0  0
  139.5213   73.0834  220.5083 H   0  0  0  0  0  0  0  0  0  0  0  0
  139.5710   73.7160  223.4590 H   0  0  0  0  0  0  0  0  0  0  0  0
  138.8801   69.1854  222.9146 H   0  0  0  0  0  0  0  0  0  0  0  0
  139.2127   67.7832  224.9407 H   0  0  0  0  0  0  0  0  0  0  0  0
  139.9087   67.5713  227.1739 H   0  0  0  0  0  0  0  0  0  0  0  0
  140.8702   68.6393  229.2337 H   0  0  0  0  0  0  0  0  0  0  0  0
  141.4796   71.0284  229.2556 H   0  0  0  0  0  0  0  0  0  0  0  0
  141.1428   72.4324  227.2160 H   0  0  0  0  0  0  0  0  0  0  0  0
  142.4580   75.8560  221.2770 H   0  0  0  0  0  0  0  0  0  0  0  0
  144.1840   76.0202  218.8204 H   0  0  0  0  0  0  0  0  0  0  0  0
  144.7610   76.1419  220.5410 H   0  0  0  0  0  0  0  0  0  0  0  0
  142.1547   73.6322  219.7177 H   0  0  0  0  0  0  0  0  0  0  0  0
  142.6787   71.2147  219.8557 H   0  0  0  0  0  0  0  0  0  0  0  0
  145.0188   70.4448  220.1287 H   0  0  0  0  0  0  0  0  0  0  0  0
  146.8849   72.0983  220.2672 H   0  0  0  0  0  0  0  0  0  0  0  0
  146.3411   74.5156  220.1296 H   0  0  0  0  0  0  0  0  0  0  0  0
  1  2  1  0
  2  3  1  0
  2  4  1  0
  4  5  1  0
  5  6  1  0
  6  7  1  0
  7  8  2  0
  7  9  1  0
  9 10  1  0
 10 11  1  0
 11 12  2  0
 11 13  1  0
 13 14  2  0
 14 15  1  0
 15 16  2  0
 16 17  1  0
 17 18  2  0
 18 19  1  0
 19 20  2  0
 20 21  1  0
 21 22  2  0
  5 23  1  0
 23 24  2  0
 23 25  1  0
 25 26  1  0
 26 27  1  0
 27 28  2  0
 28 29  1  0
 29 30  2  0
 30 31  1  0
 31 32  2  0
 22 13  1  0
 32 27  1  0
 21 16  1  0
  1 33  1  0
  1 34  1  0
  1 35  1  0
  2 36  1  0
  3 37  1  0
  3 38  1  0
  3 39  1  0
  4 40  1  0
  4 41  1  0
  5 42  1  6
  6 43  1  0
  9 44  1  0
  9 45  1  0
 10 46  1  0
 14 47  1  0
 15 48  1  0
 17 49  1  0
 18 50  1  0
 19 51  1  0
 20 52  1  0
 25 53  1  0
 26 54  1  0
 26 55  1  0
 28 56  1  0
 29 57  1  0
 30 58  1  0
 31 59  1  0
 32 60  1  0
M  END
>  <smiles>  (27) 
CC(C)C[C@H](NC(=O)CNC(=O)c1ccc2ccccc2n1)C(=O)NCc1ccccc1

>  <score_type>  (27) 
oracle

>  <origin>  (27) 
autodockgpu

>  <m_score__min__energy>  (27) 
-10.23

>  <m_primary>  (27) 
energy

>  <rmsd>  (27) 
5.339867947192051

>  <m_score__min__rmsd>  (27) 
5.339867947192051

>  <meeko>  (27) 
{"free_energy": -8.51, "intermolecular_energy": -11.2, "internal_energy": -2.84, "cluster_size": 17, "cluster_id": 2, "rank_in_cluster": 17}

>  <energy>  (27) 
-9.34

>  <cluster_rmsd>  (27) 
0.8

>  <cluster>  (27) 
2

$$$$

     RDKit          3D

 60 62  0  0  0  0  0  0  0  0999 V2000
  142.2010   79.4440  222.4270 C   0  0  0  0  0  0  0  0  0  0  0  0
  141.1850   78.6860  223.3370 C   0  0  0  0  0  0  0  0  0  0  0  0
  140.0150   79.6730  223.4180 C   0  0  0  0  0  0  0  0  0  0  0  0
  140.7370   77.4610  222.6450 C   0  0  0  0  0  0  0  0  0  0  0  0
  140.4770   77.4520  221.1960 C   0  0  2  0  0  0  0  0  0  0  0  0
  139.5250   76.3180  220.9970 N   0  0  0  0  0  0  0  0  0  0  0  0
  139.8720   75.0080  221.4250 C   0  0  0  0  0  0  0  0  0  0  0  0
  141.0050   74.8130  221.9820 O   0  0  0  0  0  0  0  0  0  0  0  0
  138.9280   73.8790  221.2260 C   0  0  0  0  0  0  0  0  0  0  0  0
  138.8300   73.0510  222.4120 N   0  0  0  0  0  0  0  0  0  0  0  0
  139.9290   72.1440  222.6310 C   0  0  0  0  0  0  0  0  0  0  0  0
  140.8740   72.1490  221.7710 O   0  0  0  0  0  0  0  0  0  0  0  0
  139.9720   71.2510  223.7820 C   0  0  0  0  0  0  0  0  0  0  0  0
  139.4800   69.9630  223.6180 C   0  0  0  0  0  0  0  0  0  0  0  0
  139.4850   69.0550  224.6550 C   0  0  0  0  0  0  0  0  0  0  0  0
  139.9980   69.4690  225.8680 C   0  0  0  0  0  0  0  0  0  0  0  0
  139.9930   68.5370  226.8990 C   0  0  0  0  0  0  0  0  0  0  0  0
  140.5130   68.9560  228.1280 C   0  0  0  0  0  0  0  0  0  0  0  0
  141.0060   70.2340  228.3070 C   0  0  0  0  0  0  0  0  0  0  0  0
  140.9950   71.1440  227.2520 C   0  0  0  0  0  0  0  0  0  0  0  0
  140.4870   70.7510  226.0320 C   0  0  0  0  0  0  0  0  0  0  0  0
  140.4600   71.6080  224.9820 N   0  0  0  0  0  0  0  0  0  0  0  0
  141.5520   77.2220  220.2520 C   0  0  0  0  0  0  0  0  0  0  0  0
  141.6560   77.8860  219.1900 O   0  0  0  0  0  0  0  0  0  0  0  0
  142.5700   76.2300  220.4550 N   0  0  0  0  0  0  0  0  0  0  0  0
  143.6480   75.9870  219.5260 C   0  0  0  0  0  0  0  0  0  0  0  0
  144.2310   74.6350  219.6750 C   0  0  0  0  0  0  0  0  0  0  0  0
  143.8540   73.5360  218.9440 C   0  0  0  0  0  0  0  0  0  0  0  0
  144.4650   72.3210  219.1810 C   0  0  0  0  0  0  0  0  0  0  0  0
  145.4550   72.2010  220.1490 C   0  0  0  0  0  0  0  0  0  0  0  0
  145.8510   73.2980  220.8970 C   0  0  0  0  0  0  0  0  0  0  0  0
  145.2290   74.5040  220.6470 C   0  0  0  0  0  0  0  0  0  0  0  0
  142.9245   79.9838  223.0557 H   0  0  0  0  0  0  0  0  0  0  0  0
  142.7344   78.7214  221.7919 H   0  0  0  0  0  0  0  0  0  0  0  0
  141.6603   80.1612  221.7919 H   0  0  0  0  0  0  0  0  0  0  0  0
  141.5921   78.3921  224.3157 H   0  0  0  0  0  0  0  0  0  0  0  0
  139.7770   79.8738  224.4730 H   0  0  0  0  0  0  0  0  0  0  0  0
  140.2933   80.6133  222.9196 H   0  0  0  0  0  0  0  0  0  0  0  0
  139.1351   79.2403  222.9196 H   0  0  0  0  0  0  0  0  0  0  0  0
  141.5104   76.7003  222.8271 H   0  0  0  0  0  0  0  0  0  0  0  0
  139.7342   77.3016  223.0680 H   0  0  0  0  0  0  0  0  0  0  0  0
  140.1596   78.4809  220.9708 H   0  0  0  0  0  0  0  0  0  0  0  0
  138.6030   76.4800  220.5380 H   0  0  0  0  0  0  0  0  0  0  0  0
  137.9327   74.2832  220.9894 H   0  0  0  0  0  0  0  0  0  0  0  0
  139.3048   73.2562  220.4013 H   0  0  0  0  0  0  0  0  0  0  0  0
  138.0320   73.0850  223.0830 H   0  0  0  0  0  0  0  0  0  0  0  0
  139.0777   69.6608  222.6398 H   0  0  0  0  0  0  0  0  0  0  0  0
  139.0938   68.0357  224.5207 H   0  0  0  0  0  0  0  0  0  0  0  0
  139.5994   67.5199  226.7555 H   0  0  0  0  0  0  0  0  0  0  0  0
  140.5298   68.2510  228.9722 H   0  0  0  0  0  0  0  0  0  0  0  0
  141.4086   70.5342  229.2857 H   0  0  0  0  0  0  0  0  0  0  0  0
  141.3865   72.1626  227.3906 H   0  0  0  0  0  0  0  0  0  0  0  0
  142.5620   75.6270  221.3170 H   0  0  0  0  0  0  0  0  0  0  0  0
  143.2616   76.0935  218.5016 H   0  0  0  0  0  0  0  0  0  0  0  0
  144.4421   76.7184  219.7370 H   0  0  0  0  0  0  0  0  0  0  0  0
  143.0715   73.6228  218.1757 H   0  0  0  0  0  0  0  0  0  0  0  0
  144.1650   71.4382  218.5973 H   0  0  0  0  0  0  0  0  0  0  0  0
  145.9296   71.2240  220.3233 H   0  0  0  0  0  0  0  0  0  0  0  0
  146.6346   73.2104  221.6640 H   0  0  0  0  0  0  0  0  0  0  0  0
  145.5265   75.3887  221.2291 H   0  0  0  0  0  0  0  0  0  0  0  0
  1  2  1  0
  2  3  1  0
  2  4  1  0
  4  5  1  0
  5  6  1  0
  6  7  1  0
  7  8  2  0
  7  9  1  0
  9 10  1  0
 10 11  1  0
 11 12  2  0
 11 13  1  0
 13 14  2  0
 14 15  1  0
 15 16  2  0
 16 17  1  0
 17 18  2  0
 18 19  1  0
 19 20  2  0
 20 21  1  0
 21 22  2  0
  5 23  1  0
 23 24  2  0
 23 25  1  0
 25 26  1  0
 26 27  1  0
 27 28  2  0
 28 29  1  0
 29 30  2  0
 30 31  1  0
 31 32  2  0
 22 13  1  0
 32 27  1  0
 21 16  1  0
  1 33  1  0
  1 34  1  0
  1 35  1  0
  2 36  1  0
  3 37  1  0
  3 38  1  0
  3 39  1  0
  4 40  1  0
  4 41  1  0
  5 42  1  6
  6 43  1  0
  9 44  1  0
  9 45  1  0
 10 46  1  0
 14 47  1  0
 15 48  1  0
 17 49  1  0
 18 50  1  0
 19 51  1  0
 20 52  1  0
 25 53  1  0
 26 54  1  0
 26 55  1  0
 28 56  1  0
 29 57  1  0
 30 58  1  0
 31 59  1  0
 32 60  1  0
M  END
>  <smiles>  (28) 
CC(C)C[C@H](NC(=O)CNC(=O)c1ccc2ccccc2n1)C(=O)NCc1ccccc1

>  <score_type>  (28) 
oracle

>  <origin>  (28) 
autodockgpu

>  <m_score__min__energy>  (28) 
-10.23

>  <m_primary>  (28) 
energy

>  <rmsd>  (28) 
5.433632748987933

>  <m_score__min__rmsd>  (28) 
5.433632748987933

>  <meeko>  (28) 
{"free_energy": -9.64, "intermolecular_energy": -12.32, "internal_energy": -2.33, "cluster_size": 17, "cluster_id": 2, "rank_in_cluster": 2}

>  <energy>  (28) 
-9.33

>  <cluster_rmsd>  (28) 
0.55

>  <cluster>  (28) 
2

$$$$

     RDKit          3D

 60 62  0  0  0  0  0  0  0  0999 V2000
  141.7720   78.8390  223.8630 C   0  0  0  0  0  0  0  0  0  0  0  0
  140.7990   79.0570  222.6630 C   0  0  0  0  0  0  0  0  0  0  0  0
  141.7000   79.7460  221.6310 C   0  0  0  0  0  0  0  0  0  0  0  0
  140.3770   77.7430  222.1370 C   0  0  0  0  0  0  0  0  0  0  0  0
  140.2990   77.4890  220.6890 C   0  0  2  0  0  0  0  0  0  0  0  0
  139.3770   76.3200  220.5690 N   0  0  0  0  0  0  0  0  0  0  0  0
  139.6470   75.1180  221.2790 C   0  0  0  0  0  0  0  0  0  0  0  0
  140.6840   75.0520  222.0210 O   0  0  0  0  0  0  0  0  0  0  0  0
  138.7320   73.9540  221.1590 C   0  0  0  0  0  0  0  0  0  0  0  0
  138.7000   73.1730  222.3790 N   0  0  0  0  0  0  0  0  0  0  0  0
  139.8270   72.3000  222.5900 C   0  0  0  0  0  0  0  0  0  0  0  0
  140.7370   72.2900  221.6940 O   0  0  0  0  0  0  0  0  0  0  0  0
  139.9360   71.4550  223.7740 C   0  0  0  0  0  0  0  0  0  0  0  0
  139.5220   70.1350  223.6640 C   0  0  0  0  0  0  0  0  0  0  0  0
  139.5930   69.2690  224.7340 C   0  0  0  0  0  0  0  0  0  0  0  0
  140.0910   69.7590  225.9240 C   0  0  0  0  0  0  0  0  0  0  0  0
  140.1530   68.8680  226.9900 C   0  0  0  0  0  0  0  0  0  0  0  0
  140.6590   69.3650  228.1950 C   0  0  0  0  0  0  0  0  0  0  0  0
  141.0750   70.6760  228.3200 C   0  0  0  0  0  0  0  0  0  0  0  0
  140.9980   71.5440  227.2330 C   0  0  0  0  0  0  0  0  0  0  0  0
  140.5030   71.0740  226.0340 C   0  0  0  0  0  0  0  0  0  0  0  0
  140.4130   71.8870  224.9530 N   0  0  0  0  0  0  0  0  0  0  0  0
  141.4820   77.1250  219.9360 C   0  0  0  0  0  0  0  0  0  0  0  0
  141.6640   77.5170  218.7560 O   0  0  0  0  0  0  0  0  0  0  0  0
  142.5260   76.2990  220.4740 N   0  0  0  0  0  0  0  0  0  0  0  0
  143.7110   75.9250  219.7380 C   0  0  0  0  0  0  0  0  0  0  0  0
  144.0360   74.4890  219.8770 C   0  0  0  0  0  0  0  0  0  0  0  0
  143.1940   73.4600  219.5330 C   0  0  0  0  0  0  0  0  0  0  0  0
  143.6050   72.1560  219.7190 C   0  0  0  0  0  0  0  0  0  0  0  0
  144.8600   71.8760  220.2490 C   0  0  0  0  0  0  0  0  0  0  0  0
  145.7240   72.8990  220.6020 C   0  0  0  0  0  0  0  0  0  0  0  0
  145.2960   74.1960  220.4100 C   0  0  0  0  0  0  0  0  0  0  0  0
  141.2223   78.9622  224.8078 H   0  0  0  0  0  0  0  0  0  0  0  0
  142.1935   77.8242  223.8136 H   0  0  0  0  0  0  0  0  0  0  0  0
  142.5862   79.5770  223.8136 H   0  0  0  0  0  0  0  0  0  0  0  0
  139.8923   79.6253  222.9177 H   0  0  0  0  0  0  0  0  0  0  0  0
  142.4698   80.3347  222.1513 H   0  0  0  0  0  0  0  0  0  0  0  0
  142.1838   78.9853  221.0007 H   0  0  0  0  0  0  0  0  0  0  0  0
  141.0926   80.4122  221.0007 H   0  0  0  0  0  0  0  0  0  0  0  0
  141.0812   77.0032  222.5455 H   0  0  0  0  0  0  0  0  0  0  0  0
  139.3227   77.6891  222.4463 H   0  0  0  0  0  0  0  0  0  0  0  0
  140.0147   78.4598  220.2568 H   0  0  0  0  0  0  0  0  0  0  0  0
  138.5330   76.3760  219.9590 H   0  0  0  0  0  0  0  0  0  0  0  0
  137.7172   74.3186  220.9417 H   0  0  0  0  0  0  0  0  0  0  0  0
  139.0999   73.3093  220.3472 H   0  0  0  0  0  0  0  0  0  0  0  0
  137.9280   73.2170  223.0800 H   0  0  0  0  0  0  0  0  0  0  0  0
  139.1290   69.7722  222.7028 H   0  0  0  0  0  0  0  0  0  0  0  0
  139.2640   68.2233  224.6425 H   0  0  0  0  0  0  0  0  0  0  0  0
  139.8205   67.8242  226.8902 H   0  0  0  0  0  0  0  0  0  0  0  0
  140.7274   68.6953  229.0649 H   0  0  0  0  0  0  0  0  0  0  0  0
  141.4688   71.0363  229.2818 H   0  0  0  0  0  0  0  0  0  0  0  0
  141.3272   72.5892  227.3293 H   0  0  0  0  0  0  0  0  0  0  0  0
  142.4580   75.9250  221.4540 H   0  0  0  0  0  0  0  0  0  0  0  0
  143.5497   76.1484  218.6731 H   0  0  0  0  0  0  0  0  0  0  0  0
  144.5543   76.4992  220.1493 H   0  0  0  0  0  0  0  0  0  0  0  0
  142.2002   73.6736  219.1127 H   0  0  0  0  0  0  0  0  0  0  0  0
  142.9330   71.3293  219.4452 H   0  0  0  0  0  0  0  0  0  0  0  0
  145.1698   70.8299  220.3894 H   0  0  0  0  0  0  0  0  0  0  0  0
  146.7180   72.6845  221.0214 H   0  0  0  0  0  0  0  0  0  0  0  0
  145.9653   75.0248  220.6841 H   0  0  0  0  0  0  0  0  0  0  0  0
  1  2  1  0
  2  3  1  0
  2  4  1  0
  4  5  1  0
  5  6  1  0
  6  7  1  0
  7  8  2  0
  7  9  1  0
  9 10  1  0
 10 11  1  0
 11 12  2  0
 11 13  1  0
 13 14  2  0
 14 15  1  0
 15 16  2  0
 16 17  1  0
 17 18  2  0
 18 19  1  0
 19 20  2  0
 20 21  1  0
 21 22  2  0
  5 23  1  0
 23 24  2  0
 23 25  1  0
 25 26  1  0
 26 27  1  0
 27 28  2  0
 28 29  1  0
 29 30  2  0
 30 31  1  0
 31 32  2  0
 22 13  1  0
 32 27  1  0
 21 16  1  0
  1 33  1  0
  1 34  1  0
  1 35  1  0
  2 36  1  0
  3 37  1  0
  3 38  1  0
  3 39  1  0
  4 40  1  0
  4 41  1  0
  5 42  1  6
  6 43  1  0
  9 44  1  0
  9 45  1  0
 10 46  1  0
 14 47  1  0
 15 48  1  0
 17 49  1  0
 18 50  1  0
 19 51  1  0
 20 52  1  0
 25 53  1  0
 26 54  1  0
 26 55  1  0
 28 56  1  0
 29 57  1  0
 30 58  1  0
 31 59  1  0
 32 60  1  0
M  END
>  <smiles>  (29) 
CC(C)C[C@H](NC(=O)CNC(=O)c1ccc2ccccc2n1)C(=O)NCc1ccccc1

>  <score_type>  (29) 
oracle

>  <origin>  (29) 
autodockgpu

>  <m_score__min__energy>  (29) 
-10.23

>  <m_primary>  (29) 
energy

>  <rmsd>  (29) 
5.340617740584516

>  <m_score__min__rmsd>  (29) 
5.340617740584516

>  <meeko>  (29) 
{"free_energy": -9.38, "intermolecular_energy": -12.06, "internal_energy": -2.54, "cluster_size": 17, "cluster_id": 2, "rank_in_cluster": 7}

>  <energy>  (29) 
-9.32

>  <cluster_rmsd>  (29) 
0.56

>  <cluster>  (29) 
2

$$$$

     RDKit          3D

 60 62  0  0  0  0  0  0  0  0999 V2000
  145.5960   74.0720  220.8490 C   0  0  0  0  0  0  0  0  0  0  0  0
  144.8570   73.4400  219.6290 C   0  0  0  0  0  0  0  0  0  0  0  0
  144.1050   72.2680  220.2700 C   0  0  0  0  0  0  0  0  0  0  0  0
  143.8770   74.4110  219.1000 C   0  0  0  0  0  0  0  0  0  0  0  0
  143.0110   75.1910  220.0000 C   0  0  2  0  0  0  0  0  0  0  0  0
  141.7080   74.4620  219.9820 N   0  0  0  0  0  0  0  0  0  0  0  0
  140.8270   74.5410  221.0940 C   0  0  0  0  0  0  0  0  0  0  0  0
  141.1620   75.2440  222.1070 O   0  0  0  0  0  0  0  0  0  0  0  0
  139.5310   73.8150  221.0780 C   0  0  0  0  0  0  0  0  0  0  0  0
  139.3070   73.0960  222.3160 N   0  0  0  0  0  0  0  0  0  0  0  0
  140.1720   71.9660  222.5450 C   0  0  0  0  0  0  0  0  0  0  0  0
  141.0430   71.7020  221.6490 O   0  0  0  0  0  0  0  0  0  0  0  0
  140.0680   71.1480  223.7480 C   0  0  0  0  0  0  0  0  0  0  0  0
  139.4140   69.9280  223.6430 C   0  0  0  0  0  0  0  0  0  0  0  0
  139.2730   69.0930  224.7310 C   0  0  0  0  0  0  0  0  0  0  0  0
  139.8060   69.5100  225.9330 C   0  0  0  0  0  0  0  0  0  0  0  0
  139.6530   68.6530  227.0170 C   0  0  0  0  0  0  0  0  0  0  0  0
  140.1930   69.0750  228.2350 C   0  0  0  0  0  0  0  0  0  0  0  0
  140.8480   70.2860  228.3550 C   0  0  0  0  0  0  0  0  0  0  0  0
  140.9830   71.1230  227.2500 C   0  0  0  0  0  0  0  0  0  0  0  0
  140.4570   70.7250  226.0380 C   0  0  0  0  0  0  0  0  0  0  0  0
  140.5700   71.5110  224.9400 N   0  0  0  0  0  0  0  0  0  0  0  0
  142.6850   76.5700  219.7010 C   0  0  0  0  0  0  0  0  0  0  0  0
  142.8490   77.0560  218.5530 O   0  0  0  0  0  0  0  0  0  0  0  0
  142.1550   77.4770  220.6800 N   0  0  0  0  0  0  0  0  0  0  0  0
  141.8250   78.8550  220.3990 C   0  0  0  0  0  0  0  0  0  0  0  0
  141.9420   79.7200  221.5940 C   0  0  0  0  0  0  0  0  0  0  0  0
  142.4690   79.3240  222.7980 C   0  0  0  0  0  0  0  0  0  0  0  0
  142.5160   80.2200  223.8460 C   0  0  0  0  0  0  0  0  0  0  0  0
  142.0360   81.5160  223.6940 C   0  0  0  0  0  0  0  0  0  0  0  0
  141.5010   81.9360  222.4870 C   0  0  0  0  0  0  0  0  0  0  0  0
  141.4620   81.0270  221.4510 C   0  0  0  0  0  0  0  0  0  0  0  0
  145.1533   73.6934  221.7821 H   0  0  0  0  0  0  0  0  0  0  0  0
  146.6616   73.8015  220.8125 H   0  0  0  0  0  0  0  0  0  0  0  0
  145.4941   75.1667  220.8125 H   0  0  0  0  0  0  0  0  0  0  0  0
  145.5234   73.1483  218.8039 H   0  0  0  0  0  0  0  0  0  0  0  0
  144.1593   72.3527  221.3654 H   0  0  0  0  0  0  0  0  0  0  0  0
  143.0521   72.2902  219.9523 H   0  0  0  0  0  0  0  0  0  0  0  0
  144.5640   71.3201  219.9523 H   0  0  0  0  0  0  0  0  0  0  0  0
  144.4498   75.1409  218.5091 H   0  0  0  0  0  0  0  0  0  0  0  0
  143.1572   73.7634  218.5781 H   0  0  0  0  0  0  0  0  0  0  0  0
  143.5854   75.2651  220.9352 H   0  0  0  0  0  0  0  0  0  0  0  0
  141.4390   73.8860  219.1560 H   0  0  0  0  0  0  0  0  0  0  0  0
  138.7170   74.5408  220.9344 H   0  0  0  0  0  0  0  0  0  0  0  0
  139.5559   73.0848  220.2557 H   0  0  0  0  0  0  0  0  0  0  0  0
  138.5780   73.3520  223.0170 H   0  0  0  0  0  0  0  0  0  0  0  0
  138.9996   69.6211  222.6714 H   0  0  0  0  0  0  0  0  0  0  0  0
  138.7533   68.1275  224.6435 H   0  0  0  0  0  0  0  0  0  0  0  0
  139.1319   67.6891  226.9206 H   0  0  0  0  0  0  0  0  0  0  0  0
  140.0943   68.4279  229.1191 H   0  0  0  0  0  0  0  0  0  0  0  0
  141.2643   70.5899  229.3268 H   0  0  0  0  0  0  0  0  0  0  0  0
  141.5020   72.0885  227.3422 H   0  0  0  0  0  0  0  0  0  0  0  0
  141.9860   77.1570  221.6670 H   0  0  0  0  0  0  0  0  0  0  0  0
  142.5086   79.2305  219.6233 H   0  0  0  0  0  0  0  0  0  0  0  0
  140.7776   78.8867  220.0643 H   0  0  0  0  0  0  0  0  0  0  0  0
  142.8508   78.3004  222.9262 H   0  0  0  0  0  0  0  0  0  0  0  0
  142.9377   79.9057  224.8121 H   0  0  0  0  0  0  0  0  0  0  0  0
  142.0815   82.2157  224.5416 H   0  0  0  0  0  0  0  0  0  0  0  0
  141.1202   82.9601  222.3595 H   0  0  0  0  0  0  0  0  0  0  0  0
  141.0412   81.3382  220.4835 H   0  0  0  0  0  0  0  0  0  0  0  0
  1  2  1  0
  2  3  1  0
  2  4  1  0
  4  5  1  0
  5  6  1  0
  6  7  1  0
  7  8  2  0
  7  9  1  0
  9 10  1  0
 10 11  1  0
 11 12  2  0
 11 13  1  0
 13 14  2  0
 14 15  1  0
 15 16  2  0
 16 17  1  0
 17 18  2  0
 18 19  1  0
 19 20  2  0
 20 21  1  0
 21 22  2  0
  5 23  1  0
 23 24  2  0
 23 25  1  0
 25 26  1  0
 26 27  1  0
 27 28  2  0
 28 29  1  0
 29 30  2  0
 30 31  1  0
 31 32  2  0
 22 13  1  0
 32 27  1  0
 21 16  1  0
  1 33  1  0
  1 34  1  0
  1 35  1  0
  2 36  1  0
  3 37  1  0
  3 38  1  0
  3 39  1  0
  4 40  1  0
  4 41  1  0
  5 42  1  1
  6 43  1  0
  9 44  1  0
  9 45  1  0
 10 46  1  0
 14 47  1  0
 15 48  1  0
 17 49  1  0
 18 50  1  0
 19 51  1  0
 20 52  1  0
 25 53  1  0
 26 54  1  0
 26 55  1  0
 28 56  1  0
 29 57  1  0
 30 58  1  0
 31 59  1  0
 32 60  1  0
M  END
>  <smiles>  (30) 
CC(C)C[C@H](NC(=O)CNC(=O)c1ccc2ccccc2n1)C(=O)NCc1ccccc1

>  <score_type>  (30) 
oracle

>  <origin>  (30) 
autodockgpu

>  <m_score__min__energy>  (30) 
-10.23

>  <m_primary>  (30) 
energy

>  <rmsd>  (30) 
3.283720642434027

>  <m_score__min__rmsd>  (30) 
3.283720642434027

>  <meeko>  (30) 
{"free_energy": -10.12, "intermolecular_energy": -12.8, "internal_energy": -2.43, "cluster_size": 19, "cluster_id": 1, "rank_in_cluster": 3}

>  <energy>  (30) 
-9.29

>  <cluster_rmsd>  (30) 
0.95

>  <cluster>  (30) 
2

$$$$

     RDKit          3D

 60 62  0  0  0  0  0  0  0  0999 V2000
  142.4520   79.4600  222.7540 C   0  0  0  0  0  0  0  0  0  0  0  0
  141.0690   78.9660  223.2810 C   0  0  0  0  0  0  0  0  0  0  0  0
  140.1240   80.0810  222.8190 C   0  0  0  0  0  0  0  0  0  0  0  0
  140.7090   77.7110  222.5910 C   0  0  0  0  0  0  0  0  0  0  0  0
  140.5250   77.6660  221.1310 C   0  0  2  0  0  0  0  0  0  0  0  0
  139.5880   76.5240  220.9110 N   0  0  0  0  0  0  0  0  0  0  0  0
  139.9130   75.2270  221.3920 C   0  0  0  0  0  0  0  0  0  0  0  0
  141.0140   75.0510  222.0150 O   0  0  0  0  0  0  0  0  0  0  0  0
  138.9830   74.0900  221.1720 C   0  0  0  0  0  0  0  0  0  0  0  0
  138.8530   73.2710  222.3600 N   0  0  0  0  0  0  0  0  0  0  0  0
  139.9700   72.4050  222.6450 C   0  0  0  0  0  0  0  0  0  0  0  0
  140.9570   72.4350  221.8360 O   0  0  0  0  0  0  0  0  0  0  0  0
  139.9840   71.5250  223.8080 C   0  0  0  0  0  0  0  0  0  0  0  0
  139.4420   70.2550  223.6620 C   0  0  0  0  0  0  0  0  0  0  0  0
  139.4180   69.3600  224.7110 C   0  0  0  0  0  0  0  0  0  0  0  0
  139.9530   69.7680  225.9150 C   0  0  0  0  0  0  0  0  0  0  0  0
  139.9180   68.8500  226.9580 C   0  0  0  0  0  0  0  0  0  0  0  0
  140.4600   69.2630  228.1790 C   0  0  0  0  0  0  0  0  0  0  0  0
  141.0040   70.5230  228.3390 C   0  0  0  0  0  0  0  0  0  0  0  0
  141.0220   71.4210  227.2740 C   0  0  0  0  0  0  0  0  0  0  0  0
  140.4920   71.0330  226.0610 C   0  0  0  0  0  0  0  0  0  0  0  0
  140.4930   71.8770  225.0010 N   0  0  0  0  0  0  0  0  0  0  0  0
  141.6490   77.4160  220.2510 C   0  0  0  0  0  0  0  0  0  0  0  0
  141.8800   78.1400  219.2490 O   0  0  0  0  0  0  0  0  0  0  0  0
  142.5740   76.3380  220.4530 N   0  0  0  0  0  0  0  0  0  0  0  0
  143.6990   76.0740  219.5850 C   0  0  0  0  0  0  0  0  0  0  0  0
  144.3150   74.7540  219.8430 C   0  0  0  0  0  0  0  0  0  0  0  0
  145.2910   74.5150  220.7790 C   0  0  0  0  0  0  0  0  0  0  0  0
  145.7980   73.2400  220.9210 C   0  0  0  0  0  0  0  0  0  0  0  0
  145.3300   72.1980  220.1270 C   0  0  0  0  0  0  0  0  0  0  0  0
  144.3460   72.4170  219.1780 C   0  0  0  0  0  0  0  0  0  0  0  0
  143.8510   73.6980  219.0490 C   0  0  0  0  0  0  0  0  0  0  0  0
  143.1069   79.6939  223.6063 H   0  0  0  0  0  0  0  0  0  0  0  0
  142.9142   78.6714  222.1421 H   0  0  0  0  0  0  0  0  0  0  0  0
  142.3099   80.3630  222.1421 H   0  0  0  0  0  0  0  0  0  0  0  0
  141.0434   78.7759  224.3642 H   0  0  0  0  0  0  0  0  0  0  0  0
  139.6958   80.5862  223.6974 H   0  0  0  0  0  0  0  0  0  0  0  0
  140.6842   80.8092  222.2141 H   0  0  0  0  0  0  0  0  0  0  0  0
  139.3138   79.6478  222.2141 H   0  0  0  0  0  0  0  0  0  0  0  0
  141.5031   76.9873  222.8270 H   0  0  0  0  0  0  0  0  0  0  0  0
  139.6932   77.5160  222.9654 H   0  0  0  0  0  0  0  0  0  0  0  0
  140.2171   78.6877  220.8637 H   0  0  0  0  0  0  0  0  0  0  0  0
  138.6920   76.6710  220.3990 H   0  0  0  0  0  0  0  0  0  0  0  0
  137.9931   74.4856  220.9008 H   0  0  0  0  0  0  0  0  0  0  0  0
  139.3898   73.4635  220.3645 H   0  0  0  0  0  0  0  0  0  0  0  0
  138.0210   73.2820  222.9900 H   0  0  0  0  0  0  0  0  0  0  0  0
  139.0231   69.9566  222.6896 H   0  0  0  0  0  0  0  0  0  0  0  0
  138.9869   68.3551  224.5915 H   0  0  0  0  0  0  0  0  0  0  0  0
  139.4849   67.8471  226.8291 H   0  0  0  0  0  0  0  0  0  0  0  0
  140.4532   68.5686  229.0321 H   0  0  0  0  0  0  0  0  0  0  0  0
  141.4247   70.8184  229.3115 H   0  0  0  0  0  0  0  0  0  0  0  0
  141.4528   72.4254  227.3987 H   0  0  0  0  0  0  0  0  0  0  0  0
  142.4580   75.6810  221.2660 H   0  0  0  0  0  0  0  0  0  0  0  0
  143.3540   76.1045  218.5410 H   0  0  0  0  0  0  0  0  0  0  0  0
  144.4608   76.8429  219.7814 H   0  0  0  0  0  0  0  0  0  0  0  0
  145.6656   75.3340  221.4107 H   0  0  0  0  0  0  0  0  0  0  0  0
  146.5802   73.0453  221.6695 H   0  0  0  0  0  0  0  0  0  0  0  0
  145.7467   71.1880  220.2547 H   0  0  0  0  0  0  0  0  0  0  0  0
  143.9714   71.5968  218.5479 H   0  0  0  0  0  0  0  0  0  0  0  0
  143.0692   73.8957  218.3008 H   0  0  0  0  0  0  0  0  0  0  0  0
  1  2  1  0
  2  3  1  0
  2  4  1  0
  4  5  1  0
  5  6  1  0
  6  7  1  0
  7  8  2  0
  7  9  1  0
  9 10  1  0
 10 11  1  0
 11 12  2  0
 11 13  1  0
 13 14  2  0
 14 15  1  0
 15 16  2  0
 16 17  1  0
 17 18  2  0
 18 19  1  0
 19 20  2  0
 20 21  1  0
 21 22  2  0
  5 23  1  0
 23 24  2  0
 23 25  1  0
 25 26  1  0
 26 27  1  0
 27 28  2  0
 28 29  1  0
 29 30  2  0
 30 31  1  0
 31 32  2  0
 22 13  1  0
 32 27  1  0
 21 16  1  0
  1 33  1  0
  1 34  1  0
  1 35  1  0
  2 36  1  0
  3 37  1  0
  3 38  1  0
  3 39  1  0
  4 40  1  0
  4 41  1  0
  5 42  1  6
  6 43  1  0
  9 44  1  0
  9 45  1  0
 10 46  1  0
 14 47  1  0
 15 48  1  0
 17 49  1  0
 18 50  1  0
 19 51  1  0
 20 52  1  0
 25 53  1  0
 26 54  1  0
 26 55  1  0
 28 56  1  0
 29 57  1  0
 30 58  1  0
 31 59  1  0
 32 60  1  0
M  END
>  <smiles>  (31) 
CC(C)C[C@H](NC(=O)CNC(=O)c1ccc2ccccc2n1)C(=O)NCc1ccccc1

>  <score_type>  (31) 
oracle

>  <origin>  (31) 
autodockgpu

>  <m_score__min__energy>  (31) 
-10.23

>  <m_primary>  (31) 
energy

>  <rmsd>  (31) 
5.444478217510951

>  <m_score__min__rmsd>  (31) 
5.444478217510951

>  <meeko>  (31) 
{"free_energy": -9.64, "intermolecular_energy": -12.33, "internal_energy": -2.35, "cluster_size": 17, "cluster_id": 2, "rank_in_cluster": 1}

>  <energy>  (31) 
-9.11

>  <cluster_rmsd>  (31) 
0.53

>  <cluster>  (31) 
2

$$$$

     RDKit          3D

 60 62  0  0  0  0  0  0  0  0999 V2000
  142.9280   78.2190  217.8290 C   0  0  0  0  0  0  0  0  0  0  0  0
  142.6750   76.6870  217.6770 C   0  0  0  0  0  0  0  0  0  0  0  0
  143.4290   76.3560  216.3830 C   0  0  0  0  0  0  0  0  0  0  0  0
  143.3140   75.9770  218.8030 C   0  0  0  0  0  0  0  0  0  0  0  0
  142.5800   75.7030  220.0500 C   0  0  2  0  0  0  0  0  0  0  0  0
  141.8530   74.4270  219.7780 N   0  0  0  0  0  0  0  0  0  0  0  0
  141.1250   73.7820  220.8150 C   0  0  0  0  0  0  0  0  0  0  0  0
  141.0980   74.3080  221.9790 O   0  0  0  0  0  0  0  0  0  0  0  0
  140.4040   72.5120  220.5470 C   0  0  0  0  0  0  0  0  0  0  0  0
  140.5940   71.5540  221.6180 N   0  0  0  0  0  0  0  0  0  0  0  0
  139.7210   71.7080  222.7540 C   0  0  0  0  0  0  0  0  0  0  0  0
  138.8720   72.6610  222.7160 O   0  0  0  0  0  0  0  0  0  0  0  0
  139.7930   70.8170  223.9060 C   0  0  0  0  0  0  0  0  0  0  0  0
  139.2170   69.5600  223.7860 C   0  0  0  0  0  0  0  0  0  0  0  0
  139.2440   68.6560  224.8280 C   0  0  0  0  0  0  0  0  0  0  0  0
  139.8620   69.0440  225.9980 C   0  0  0  0  0  0  0  0  0  0  0  0
  139.8760   68.1170  227.0340 C   0  0  0  0  0  0  0  0  0  0  0  0
  140.5040   68.5090  228.2200 C   0  0  0  0  0  0  0  0  0  0  0  0
  141.0820   69.7570  228.3550 C   0  0  0  0  0  0  0  0  0  0  0  0
  141.0490   70.6640  227.2970 C   0  0  0  0  0  0  0  0  0  0  0  0
  140.4350   70.2960  226.1180 C   0  0  0  0  0  0  0  0  0  0  0  0
  140.3840   71.1500  225.0670 N   0  0  0  0  0  0  0  0  0  0  0  0
  141.5700   76.6250  220.5310 C   0  0  0  0  0  0  0  0  0  0  0  0
  140.8780   77.3200  219.7450 O   0  0  0  0  0  0  0  0  0  0  0  0
  141.2860   76.8140  221.9260 N   0  0  0  0  0  0  0  0  0  0  0  0
  140.2850   77.7280  222.4230 C   0  0  0  0  0  0  0  0  0  0  0  0
  140.8700   78.9940  222.9180 C   0  0  0  0  0  0  0  0  0  0  0  0
  140.1420   80.0840  223.3280 C   0  0  0  0  0  0  0  0  0  0  0  0
  140.8020   81.2160  223.7610 C   0  0  0  0  0  0  0  0  0  0  0  0
  142.1910   81.2630  223.7860 C   0  0  0  0  0  0  0  0  0  0  0  0
  142.9440   80.1740  223.3770 C   0  0  0  0  0  0  0  0  0  0  0  0
  142.2680   79.0510  222.9460 C   0  0  0  0  0  0  0  0  0  0  0  0
  142.9710   78.4794  218.8969 H   0  0  0  0  0  0  0  0  0  0  0  0
  143.8818   78.4826  217.3486 H   0  0  0  0  0  0  0  0  0  0  0  0
  142.1095   78.7752  217.3486 H   0  0  0  0  0  0  0  0  0  0  0  0
  141.6112   76.4077  217.6610 H   0  0  0  0  0  0  0  0  0  0  0  0
  144.4104   75.9252  216.6304 H   0  0  0  0  0  0  0  0  0  0  0  0
  142.8477   75.6303  215.7953 H   0  0  0  0  0  0  0  0  0  0  0  0
  143.5697   77.2751  215.7953 H   0  0  0  0  0  0  0  0  0  0  0  0
  143.6384   75.0014  218.4119 H   0  0  0  0  0  0  0  0  0  0  0  0
  144.0826   76.6924  219.1308 H   0  0  0  0  0  0  0  0  0  0  0  0
  143.3506   75.7393  220.8341 H   0  0  0  0  0  0  0  0  0  0  0  0
  141.8810   73.9980  218.8290 H   0  0  0  0  0  0  0  0  0  0  0  0
  139.3298   72.7259  220.4459 H   0  0  0  0  0  0  0  0  0  0  0  0
  140.8069   72.0767  219.6206 H   0  0  0  0  0  0  0  0  0  0  0  0
  141.3070   70.7920  221.6000 H   0  0  0  0  0  0  0  0  0  0  0  0
  138.7291   69.2788  222.8411 H   0  0  0  0  0  0  0  0  0  0  0  0
  138.7881   67.6598  224.7288 H   0  0  0  0  0  0  0  0  0  0  0  0
  139.4156   67.1239  226.9259 H   0  0  0  0  0  0  0  0  0  0  0  0
  140.5389   67.8070  229.0662 H   0  0  0  0  0  0  0  0  0  0  0  0
  141.5699   70.0356  229.3007 H   0  0  0  0  0  0  0  0  0  0  0  0
  141.5061   71.6591  227.4009 H   0  0  0  0  0  0  0  0  0  0  0  0
  141.8180   76.2740  222.6550 H   0  0  0  0  0  0  0  0  0  0  0  0
  139.5824   77.9586  221.6087 H   0  0  0  0  0  0  0  0  0  0  0  0
  139.7777   77.2408  223.2688 H   0  0  0  0  0  0  0  0  0  0  0  0
  139.0425   80.0550  223.3114 H   0  0  0  0  0  0  0  0  0  0  0  0
  140.2223   82.0910  224.0901 H   0  0  0  0  0  0  0  0  0  0  0  0
  142.6981   82.1749  224.1343 H   0  0  0  0  0  0  0  0  0  0  0  0
  144.0434   80.2038  223.3953 H   0  0  0  0  0  0  0  0  0  0  0  0
  142.8448   78.1749  222.6147 H   0  0  0  0  0  0  0  0  0  0  0  0
  1  2  1  0
  2  3  1  0
  2  4  1  0
  4  5  1  0
  5  6  1  0
  6  7  1  0
  7  8  2  0
  7  9  1  0
  9 10  1  0
 10 11  1  0
 11 12  2  0
 11 13  1  0
 13 14  2  0
 14 15  1  0
 15 16  2  0
 16 17  1  0
 17 18  2  0
 18 19  1  0
 19 20  2  0
 20 21  1  0
 21 22  2  0
  5 23  1  0
 23 24  2  0
 23 25  1  0
 25 26  1  0
 26 27  1  0
 27 28  2  0
 28 29  1  0
 29 30  2  0
 30 31  1  0
 31 32  2  0
 22 13  1  0
 32 27  1  0
 21 16  1  0
  1 33  1  0
  1 34  1  0
  1 35  1  0
  2 36  1  0
  3 37  1  0
  3 38  1  0
  3 39  1  0
  4 40  1  0
  4 41  1  0
  5 42  1  1
  6 43  1  0
  9 44  1  0
  9 45  1  0
 10 46  1  0
 14 47  1  0
 15 48  1  0
 17 49  1  0
 18 50  1  0
 19 51  1  0
 20 52  1  0
 25 53  1  0
 26 54  1  0
 26 55  1  0
 28 56  1  0
 29 57  1  0
 30 58  1  0
 31 59  1  0
 32 60  1  0
M  END
>  <smiles>  (32) 
CC(C)C[C@H](NC(=O)CNC(=O)c1ccc2ccccc2n1)C(=O)NCc1ccccc1

>  <score_type>  (32) 
oracle

>  <origin>  (32) 
autodockgpu

>  <m_score__min__energy>  (32) 
-10.23

>  <m_primary>  (32) 
energy

>  <rmsd>  (32) 
2.778501501125117

>  <m_score__min__rmsd>  (32) 
2.778501501125117

>  <meeko>  (32) 
{"free_energy": -9.03, "intermolecular_energy": -11.72, "internal_energy": -1.93, "cluster_size": 19, "cluster_id": 1, "rank_in_cluster": 14}

>  <energy>  (32) 
-8.93

>  <cluster_rmsd>  (32) 
0.91

>  <cluster>  (32) 
2

$$$$

     RDKit          3D

 60 62  0  0  0  0  0  0  0  0999 V2000
  135.5050   72.1050  224.2570 C   0  0  0  0  0  0  0  0  0  0  0  0
  134.8210   73.4960  224.0800 C   0  0  0  0  0  0  0  0  0  0  0  0
  134.1430   73.7040  225.4390 C   0  0  0  0  0  0  0  0  0  0  0  0
  135.8630   74.5270  223.8960 C   0  0  0  0  0  0  0  0  0  0  0  0
  136.5040   74.7430  222.5880 C   0  0  2  0  0  0  0  0  0  0  0  0
  137.2960   73.4980  222.3550 N   0  0  0  0  0  0  0  0  0  0  0  0
  137.4340   72.9720  221.0430 C   0  0  0  0  0  0  0  0  0  0  0  0
  136.8750   73.5760  220.0660 O   0  0  0  0  0  0  0  0  0  0  0  0
  138.2210   71.7330  220.8100 C   0  0  0  0  0  0  0  0  0  0  0  0
  138.5160   71.0480  222.0530 N   0  0  0  0  0  0  0  0  0  0  0  0
  139.4370   71.7230  222.9330 C   0  0  0  0  0  0  0  0  0  0  0  0
  139.9040   72.8460  222.5440 O   0  0  0  0  0  0  0  0  0  0  0  0
  139.8270   71.1580  224.2190 C   0  0  0  0  0  0  0  0  0  0  0  0
  140.6900   71.8990  225.0140 C   0  0  0  0  0  0  0  0  0  0  0  0
  141.1060   71.4380  226.2450 C   0  0  0  0  0  0  0  0  0  0  0  0
  140.6360   70.2110  226.6630 C   0  0  0  0  0  0  0  0  0  0  0  0
  141.0690   69.7660  227.9070 C   0  0  0  0  0  0  0  0  0  0  0  0
  140.5910   68.5220  228.3320 C   0  0  0  0  0  0  0  0  0  0  0  0
  139.7310   67.7730  227.5520 C   0  0  0  0  0  0  0  0  0  0  0  0
  139.3170   68.2470  226.3090 C   0  0  0  0  0  0  0  0  0  0  0  0
  139.7760   69.4720  225.8720 C   0  0  0  0  0  0  0  0  0  0  0  0
  139.3950   69.9670  224.6690 N   0  0  0  0  0  0  0  0  0  0  0  0
  137.4360   75.8350  222.3920 C   0  0  0  0  0  0  0  0  0  0  0  0
  137.0670   76.9480  221.9390 O   0  0  0  0  0  0  0  0  0  0  0  0
  138.8350   75.7320  222.6970 N   0  0  0  0  0  0  0  0  0  0  0  0
  139.7770   76.8090  222.5070 C   0  0  0  0  0  0  0  0  0  0  0  0
  140.8600   76.4550  221.5630 C   0  0  0  0  0  0  0  0  0  0  0  0
  141.3700   75.1910  221.3960 C   0  0  0  0  0  0  0  0  0  0  0  0
  142.3890   74.9850  220.4900 C   0  0  0  0  0  0  0  0  0  0  0  0
  142.9030   76.0420  219.7460 C   0  0  0  0  0  0  0  0  0  0  0  0
  142.4020   77.3240  219.8980 C   0  0  0  0  0  0  0  0  0  0  0  0
  141.3830   77.5120  220.8100 C   0  0  0  0  0  0  0  0  0  0  0  0
  135.6138   71.8837  225.3290 H   0  0  0  0  0  0  0  0  0  0  0  0
  134.8857   71.3290  223.7834 H   0  0  0  0  0  0  0  0  0  0  0  0
  136.4977   72.1216  223.7834 H   0  0  0  0  0  0  0  0  0  0  0  0
  134.1341   73.5528  223.2227 H   0  0  0  0  0  0  0  0  0  0  0  0
  134.8598   73.4841  226.2439 H   0  0  0  0  0  0  0  0  0  0  0  0
  133.8048   74.7472  225.5242 H   0  0  0  0  0  0  0  0  0  0  0  0
  133.2779   73.0299  225.5242 H   0  0  0  0  0  0  0  0  0  0  0  0
  135.4054   75.4860  224.1804 H   0  0  0  0  0  0  0  0  0  0  0  0
  136.6920   74.1395  224.5064 H   0  0  0  0  0  0  0  0  0  0  0  0
  135.6721   74.9982  221.9151 H   0  0  0  0  0  0  0  0  0  0  0  0
  137.7480   73.0060  223.1550 H   0  0  0  0  0  0  0  0  0  0  0  0
  137.6432   71.0599  220.1596 H   0  0  0  0  0  0  0  0  0  0  0  0
  139.1735   72.0137  220.3367 H   0  0  0  0  0  0  0  0  0  0  0  0
  138.1070   70.1270  222.3230 H   0  0  0  0  0  0  0  0  0  0  0  0
  141.0496   72.8744  224.6546 H   0  0  0  0  0  0  0  0  0  0  0  0
  141.7896   72.0290  226.8723 H   0  0  0  0  0  0  0  0  0  0  0  0
  141.7541   70.3631  228.5268 H   0  0  0  0  0  0  0  0  0  0  0  0
  140.9072   68.1308  229.3103 H   0  0  0  0  0  0  0  0  0  0  0  0
  139.3717   66.7984  227.9139 H   0  0  0  0  0  0  0  0  0  0  0  0
  138.6336   67.6525  225.6849 H   0  0  0  0  0  0  0  0  0  0  0  0
  139.2320   74.8360  223.0800 H   0  0  0  0  0  0  0  0  0  0  0  0
  139.2381   77.6836  222.1137 H   0  0  0  0  0  0  0  0  0  0  0  0
  140.2401   77.0237  223.4814 H   0  0  0  0  0  0  0  0  0  0  0  0
  140.9689   74.3496  221.9802 H   0  0  0  0  0  0  0  0  0  0  0  0
  142.7999   73.9737  220.3542 H   0  0  0  0  0  0  0  0  0  0  0  0
  143.7165   75.8574  219.0289 H   0  0  0  0  0  0  0  0  0  0  0  0
  142.8025   78.1642  219.3118 H   0  0  0  0  0  0  0  0  0  0  0  0
  140.9702   78.5221  220.9488 H   0  0  0  0  0  0  0  0  0  0  0  0
  1  2  1  0
  2  3  1  0
  2  4  1  0
  4  5  1  0
  5  6  1  0
  6  7  1  0
  7  8  2  0
  7  9  1  0
  9 10  1  0
 10 11  1  0
 11 12  2  0
 11 13  1  0
 13 14  2  0
 14 15  1  0
 15 16  2  0
 16 17  1  0
 17 18  2  0
 18 19  1  0
 19 20  2  0
 20 21  1  0
 21 22  2  0
  5 23  1  0
 23 24  2  0
 23 25  1  0
 25 26  1  0
 26 27  1  0
 27 28  2  0
 28 29  1  0
 29 30  2  0
 30 31  1  0
 31 32  2  0
 22 13  1  0
 32 27  1  0
 21 16  1  0
  1 33  1  0
  1 34  1  0
  1 35  1  0
  2 36  1  0
  3 37  1  0
  3 38  1  0
  3 39  1  0
  4 40  1  0
  4 41  1  0
  5 42  1  6
  6 43  1  0
  9 44  1  0
  9 45  1  0
 10 46  1  0
 14 47  1  0
 15 48  1  0
 17 49  1  0
 18 50  1  0
 19 51  1  0
 20 52  1  0
 25 53  1  0
 26 54  1  0
 26 55  1  0
 28 56  1  0
 29 57  1  0
 30 58  1  0
 31 59  1  0
 32 60  1  0
M  END
>  <smiles>  (33) 
CC(C)C[C@H](NC(=O)CNC(=O)c1ccc2ccccc2n1)C(=O)NCc1ccccc1

>  <score_type>  (33) 
oracle

>  <origin>  (33) 
autodockgpu

>  <m_score__min__energy>  (33) 
-10.23

>  <m_primary>  (33) 
energy

>  <rmsd>  (33) 
5.325410147270632

>  <m_score__min__rmsd>  (33) 
5.325410147270632

>  <meeko>  (33) 
{"free_energy": -7.7, "intermolecular_energy": -10.38, "internal_energy": -3.54, "cluster_size": 4, "cluster_id": 4, "rank_in_cluster": 3}

>  <energy>  (33) 
-8.82

>  <cluster_rmsd>  (33) 
0.99

>  <cluster>  (33) 
2

$$$$

     RDKit          3D

 60 62  0  0  0  0  0  0  0  0999 V2000
  145.7110   74.0590  220.8400 C   0  0  0  0  0  0  0  0  0  0  0  0
  144.8290   73.3720  219.7520 C   0  0  0  0  0  0  0  0  0  0  0  0
  144.0570   72.3270  220.5660 C   0  0  0  0  0  0  0  0  0  0  0  0
  143.8760   74.3600  219.2060 C   0  0  0  0  0  0  0  0  0  0  0  0
  142.9990   75.1460  220.0900 C   0  0  2  0  0  0  0  0  0  0  0  0
  141.7020   74.4070  220.0760 N   0  0  0  0  0  0  0  0  0  0  0  0
  140.7570   74.5970  221.1210 C   0  0  0  0  0  0  0  0  0  0  0  0
  141.0300   75.4090  222.0690 O   0  0  0  0  0  0  0  0  0  0  0  0
  139.4670   73.8620  221.1090 C   0  0  0  0  0  0  0  0  0  0  0  0
  139.2700   73.1110  222.3330 N   0  0  0  0  0  0  0  0  0  0  0  0
  140.2040   72.0370  222.5620 C   0  0  0  0  0  0  0  0  0  0  0  0
  141.1050   71.8440  221.6780 O   0  0  0  0  0  0  0  0  0  0  0  0
  140.1330   71.1960  223.7510 C   0  0  0  0  0  0  0  0  0  0  0  0
  139.5150   69.9590  223.6310 C   0  0  0  0  0  0  0  0  0  0  0  0
  139.4080   69.1030  224.7060 C   0  0  0  0  0  0  0  0  0  0  0  0
  139.9370   69.5160  225.9110 C   0  0  0  0  0  0  0  0  0  0  0  0
  139.8170   68.6360  226.9810 C   0  0  0  0  0  0  0  0  0  0  0  0
  140.3550   69.0540  228.2020 C   0  0  0  0  0  0  0  0  0  0  0  0
  140.9740   70.2820  228.3380 C   0  0  0  0  0  0  0  0  0  0  0  0
  141.0760   71.1410  227.2460 C   0  0  0  0  0  0  0  0  0  0  0  0
  140.5530   70.7470  226.0320 C   0  0  0  0  0  0  0  0  0  0  0  0
  140.6330   71.5550  224.9460 N   0  0  0  0  0  0  0  0  0  0  0  0
  142.6630   76.5190  219.7690 C   0  0  0  0  0  0  0  0  0  0  0  0
  142.8170   76.9850  218.6110 O   0  0  0  0  0  0  0  0  0  0  0  0
  142.1360   77.4410  220.7350 N   0  0  0  0  0  0  0  0  0  0  0  0
  141.7970   78.8110  220.4320 C   0  0  0  0  0  0  0  0  0  0  0  0
  141.9350   79.7020  221.6060 C   0  0  0  0  0  0  0  0  0  0  0  0
  142.5230   79.3440  222.7940 C   0  0  0  0  0  0  0  0  0  0  0  0
  142.5850   80.2600  223.8240 C   0  0  0  0  0  0  0  0  0  0  0  0
  142.0590   81.5380  223.6700 C   0  0  0  0  0  0  0  0  0  0  0  0
  141.4620   81.9190  222.4790 C   0  0  0  0  0  0  0  0  0  0  0  0
  141.4090   80.9900  221.4610 C   0  0  0  0  0  0  0  0  0  0  0  0
  145.3477   73.7760  221.8390 H   0  0  0  0  0  0  0  0  0  0  0  0
  146.7555   73.7341  220.7241 H   0  0  0  0  0  0  0  0  0  0  0  0
  145.6517   75.1513  220.7241 H   0  0  0  0  0  0  0  0  0  0  0  0
  145.4004   72.9531  218.9106 H   0  0  0  0  0  0  0  0  0  0  0  0
  144.1996   72.5200  221.6395 H   0  0  0  0  0  0  0  0  0  0  0  0
  142.9864   72.3893  220.3212 H   0  0  0  0  0  0  0  0  0  0  0  0
  144.4312   71.3220  220.3212 H   0  0  0  0  0  0  0  0  0  0  0  0
  144.4732   75.0858  218.6345 H   0  0  0  0  0  0  0  0  0  0  0  0
  143.1604   73.7261  218.6619 H   0  0  0  0  0  0  0  0  0  0  0  0
  143.5682   75.2380  221.0268 H   0  0  0  0  0  0  0  0  0  0  0  0
  141.4840   73.7420  219.3040 H   0  0  0  0  0  0  0  0  0  0  0  0
  138.6453   74.5847  220.9973 H   0  0  0  0  0  0  0  0  0  0  0  0
  139.4828   73.1525  220.2685 H   0  0  0  0  0  0  0  0  0  0  0  0
  138.5130   73.3080  223.0240 H   0  0  0  0  0  0  0  0  0  0  0  0
  139.1020   69.6555  222.6577 H   0  0  0  0  0  0  0  0  0  0  0  0
  138.9173   68.1236  224.6063 H   0  0  0  0  0  0  0  0  0  0  0  0
  139.3231   67.6591  226.8722 H   0  0  0  0  0  0  0  0  0  0  0  0
  140.2838   68.3892  229.0755 H   0  0  0  0  0  0  0  0  0  0  0  0
  141.3877   70.5823  229.3120 H   0  0  0  0  0  0  0  0  0  0  0  0
  141.5668   72.1199  227.3505 H   0  0  0  0  0  0  0  0  0  0  0  0
  141.9760   77.1360  221.7290 H   0  0  0  0  0  0  0  0  0  0  0  0
  142.4641   79.1715  219.6352 H   0  0  0  0  0  0  0  0  0  0  0  0
  140.7430   78.8329  220.1178 H   0  0  0  0  0  0  0  0  0  0  0  0
  142.9413   78.3349  222.9236 H   0  0  0  0  0  0  0  0  0  0  0  0
  143.0555   79.9763  224.7770 H   0  0  0  0  0  0  0  0  0  0  0  0
  142.1175   82.2543  224.5027 H   0  0  0  0  0  0  0  0  0  0  0  0
  141.0444   82.9284  222.3498 H   0  0  0  0  0  0  0  0  0  0  0  0
  140.9391   81.2702  220.5067 H   0  0  0  0  0  0  0  0  0  0  0  0
  1  2  1  0
  2  3  1  0
  2  4  1  0
  4  5  1  0
  5  6  1  0
  6  7  1  0
  7  8  2  0
  7  9  1  0
  9 10  1  0
 10 11  1  0
 11 12  2  0
 11 13  1  0
 13 14  2  0
 14 15  1  0
 15 16  2  0
 16 17  1  0
 17 18  2  0
 18 19  1  0
 19 20  2  0
 20 21  1  0
 21 22  2  0
  5 23  1  0
 23 24  2  0
 23 25  1  0
 25 26  1  0
 26 27  1  0
 27 28  2  0
 28 29  1  0
 29 30  2  0
 30 31  1  0
 31 32  2  0
 22 13  1  0
 32 27  1  0
 21 16  1  0
  1 33  1  0
  1 34  1  0
  1 35  1  0
  2 36  1  0
  3 37  1  0
  3 38  1  0
  3 39  1  0
  4 40  1  0
  4 41  1  0
  5 42  1  1
  6 43  1  0
  9 44  1  0
  9 45  1  0
 10 46  1  0
 14 47  1  0
 15 48  1  0
 17 49  1  0
 18 50  1  0
 19 51  1  0
 20 52  1  0
 25 53  1  0
 26 54  1  0
 26 55  1  0
 28 56  1  0
 29 57  1  0
 30 58  1  0
 31 59  1  0
 32 60  1  0
M  END
>  <smiles>  (34) 
CC(C)C[C@H](NC(=O)CNC(=O)c1ccc2ccccc2n1)C(=O)NCc1ccccc1

>  <score_type>  (34) 
oracle

>  <origin>  (34) 
autodockgpu

>  <m_score__min__energy>  (34) 
-10.23

>  <m_primary>  (34) 
energy

>  <rmsd>  (34) 
3.313266285775653

>  <m_score__min__rmsd>  (34) 
3.313266285775653

>  <meeko>  (34) 
{"free_energy": -10.23, "intermolecular_energy": -12.91, "internal_energy": -2.41, "cluster_size": 19, "cluster_id": 1, "rank_in_cluster": 1}

>  <energy>  (34) 
-8.73

>  <cluster_rmsd>  (34) 
0.88

>  <cluster>  (34) 
2

$$$$

     RDKit          3D

 60 62  0  0  0  0  0  0  0  0999 V2000
  141.0750   69.7300  226.5800 C   0  0  0  0  0  0  0  0  0  0  0  0
  140.3350   71.0950  226.4250 C   0  0  0  0  0  0  0  0  0  0  0  0
  141.1910   72.0320  227.2850 C   0  0  0  0  0  0  0  0  0  0  0  0
  140.4100   71.5290  225.0150 C   0  0  0  0  0  0  0  0  0  0  0  0
  139.4930   70.9870  223.9990 C   0  0  2  0  0  0  0  0  0  0  0  0
  139.5720   71.9640  222.8720 N   0  0  0  0  0  0  0  0  0  0  0  0
  139.8240   71.5120  221.5480 C   0  0  0  0  0  0  0  0  0  0  0  0
  139.9800   70.2630  221.3340 O   0  0  0  0  0  0  0  0  0  0  0  0
  139.9050   72.4830  220.4270 C   0  0  0  0  0  0  0  0  0  0  0  0
  140.2010   73.8210  220.9000 N   0  0  0  0  0  0  0  0  0  0  0  0
  139.1160   74.5040  221.5580 C   0  0  0  0  0  0  0  0  0  0  0  0
  138.0070   73.8800  221.6610 O   0  0  0  0  0  0  0  0  0  0  0  0
  139.2660   75.8530  222.0890 C   0  0  0  0  0  0  0  0  0  0  0  0
  138.1140   76.5280  222.4700 C   0  0  0  0  0  0  0  0  0  0  0  0
  138.1680   77.8060  222.9830 C   0  0  0  0  0  0  0  0  0  0  0  0
  139.4080   78.3970  223.1070 C   0  0  0  0  0  0  0  0  0  0  0  0
  139.4380   79.6860  223.6270 C   0  0  0  0  0  0  0  0  0  0  0  0
  140.6950   80.2840  223.7540 C   0  0  0  0  0  0  0  0  0  0  0  0
  141.8510   79.6260  223.3800 C   0  0  0  0  0  0  0  0  0  0  0  0
  141.7860   78.3340  222.8610 C   0  0  0  0  0  0  0  0  0  0  0  0
  140.5560   77.7260  222.7280 C   0  0  0  0  0  0  0  0  0  0  0  0
  140.4520   76.4700  222.2280 N   0  0  0  0  0  0  0  0  0  0  0  0
  138.0790   70.8390  224.2810 C   0  0  0  0  0  0  0  0  0  0  0  0
  137.6270   69.8390  224.8950 O   0  0  0  0  0  0  0  0  0  0  0  0
  137.0980   71.8100  223.8880 N   0  0  0  0  0  0  0  0  0  0  0  0
  135.6860   71.6780  224.1600 C   0  0  0  0  0  0  0  0  0  0  0  0
  135.1070   72.9030  224.7550 C   0  0  0  0  0  0  0  0  0  0  0  0
  135.4960   74.1830  224.4440 C   0  0  0  0  0  0  0  0  0  0  0  0
  134.8870   75.2480  225.0740 C   0  0  0  0  0  0  0  0  0  0  0  0
  133.8880   75.0390  226.0180 C   0  0  0  0  0  0  0  0  0  0  0  0
  133.4810   73.7560  226.3460 C   0  0  0  0  0  0  0  0  0  0  0  0
  134.1010   72.7030  225.7060 C   0  0  0  0  0  0  0  0  0  0  0  0
  141.1998   69.4998  227.6484 H   0  0  0  0  0  0  0  0  0  0  0  0
  140.4838   68.9359  226.1004 H   0  0  0  0  0  0  0  0  0  0  0  0
  142.0630   69.7920  226.1004 H   0  0  0  0  0  0  0  0  0  0  0  0
  139.2738   71.0654  226.7132 H   0  0  0  0  0  0  0  0  0  0  0  0
  141.0033   71.8266  228.3492 H   0  0  0  0  0  0  0  0  0  0  0  0
  142.2550   71.8651  227.0614 H   0  0  0  0  0  0  0  0  0  0  0  0
  140.9288   73.0766  227.0614 H   0  0  0  0  0  0  0  0  0  0  0  0
  140.2639   72.6193  225.0165 H   0  0  0  0  0  0  0  0  0  0  0  0
  141.3842   71.1315  224.6941 H   0  0  0  0  0  0  0  0  0  0  0  0
  139.8306   69.9504  223.8523 H   0  0  0  0  0  0  0  0  0  0  0  0
  139.4480   72.9830  223.0500 H   0  0  0  0  0  0  0  0  0  0  0  0
  140.6994   72.1648  219.7359 H   0  0  0  0  0  0  0  0  0  0  0  0
  138.9290   72.5054  219.9202 H   0  0  0  0  0  0  0  0  0  0  0  0
  141.1280   74.2870  220.7870 H   0  0  0  0  0  0  0  0  0  0  0  0
  137.1381   76.0325  222.3601 H   0  0  0  0  0  0  0  0  0  0  0  0
  137.2527   78.3370  223.2835 H   0  0  0  0  0  0  0  0  0  0  0  0
  138.5174   80.2097  223.9240 H   0  0  0  0  0  0  0  0  0  0  0  0
  140.7656   81.3032  224.1616 H   0  0  0  0  0  0  0  0  0  0  0  0
  142.8257   80.1234  223.4922 H   0  0  0  0  0  0  0  0  0  0  0  0
  142.7038   77.8067  222.5616 H   0  0  0  0  0  0  0  0  0  0  0  0
  137.3870   72.6780  223.3690 H   0  0  0  0  0  0  0  0  0  0  0  0
  135.1634   71.4632  223.2162 H   0  0  0  0  0  0  0  0  0  0  0  0
  135.5603   70.8617  224.8865 H   0  0  0  0  0  0  0  0  0  0  0  0
  136.2863   74.3572  223.6990 H   0  0  0  0  0  0  0  0  0  0  0  0
  135.1952   76.2746  224.8267 H   0  0  0  0  0  0  0  0  0  0  0  0
  133.4155   75.9019  226.5100 H   0  0  0  0  0  0  0  0  0  0  0  0
  132.6906   73.5829  227.0912 H   0  0  0  0  0  0  0  0  0  0  0  0
  133.7951   71.6752  225.9509 H   0  0  0  0  0  0  0  0  0  0  0  0
  1  2  1  0
  2  3  1  0
  2  4  1  0
  4  5  1  0
  5  6  1  0
  6  7  1  0
  7  8  2  0
  7  9  1  0
  9 10  1  0
 10 11  1  0
 11 12  2  0
 11 13  1  0
 13 14  2  0
 14 15  1  0
 15 16  2  0
 16 17  1  0
 17 18  2  0
 18 19  1  0
 19 20  2  0
 20 21  1  0
 21 22  2  0
  5 23  1  0
 23 24  2  0
 23 25  1  0
 25 26  1  0
 26 27  1  0
 27 28  2  0
 28 29  1  0
 29 30  2  0
 30 31  1  0
 31 32  2  0
 22 13  1  0
 32 27  1  0
 21 16  1  0
  1 33  1  0
  1 34  1  0
  1 35  1  0
  2 36  1  0
  3 37  1  0
  3 38  1  0
  3 39  1  0
  4 40  1  0
  4 41  1  0
  5 42  1  6
  6 43  1  0
  9 44  1  0
  9 45  1  0
 10 46  1  0
 14 47  1  0
 15 48  1  0
 17 49  1  0
 18 50  1  0
 19 51  1  0
 20 52  1  0
 25 53  1  0
 26 54  1  0
 26 55  1  0
 28 56  1  0
 29 57  1  0
 30 58  1  0
 31 59  1  0
 32 60  1  0
M  END
>  <smiles>  (35) 
CC(C)C[C@H](NC(=O)CNC(=O)c1ccc2ccccc2n1)C(=O)NCc1ccccc1

>  <score_type>  (35) 
oracle

>  <origin>  (35) 
autodockgpu

>  <m_score__min__energy>  (35) 
-10.23

>  <m_primary>  (35) 
energy

>  <rmsd>  (35) 
8.801613100512393

>  <m_score__min__rmsd>  (35) 
8.801613100512393

>  <meeko>  (35) 
{"free_energy": -7.61, "intermolecular_energy": -10.29, "internal_energy": -3.49, "cluster_size": 3, "cluster_id": 5, "rank_in_cluster": 2}

>  <energy>  (35) 
-8.58

>  <cluster_rmsd>  (35) 
1.07

>  <cluster>  (35) 
2

$$$$

     RDKit          3D

 60 62  0  0  0  0  0  0  0  0999 V2000
  145.7370   74.0060  220.9080 C   0  0  0  0  0  0  0  0  0  0  0  0
  145.0030   73.3510  219.6980 C   0  0  0  0  0  0  0  0  0  0  0  0
  144.2740   72.1720  220.3540 C   0  0  0  0  0  0  0  0  0  0  0  0
  144.0050   74.3000  219.1650 C   0  0  0  0  0  0  0  0  0  0  0  0
  143.1170   75.0590  220.0610 C   0  0  2  0  0  0  0  0  0  0  0  0
  141.8700   74.2390  220.1260 N   0  0  0  0  0  0  0  0  0  0  0  0
  140.9320   74.4420  221.1740 C   0  0  0  0  0  0  0  0  0  0  0  0
  141.1670   75.3350  222.0580 O   0  0  0  0  0  0  0  0  0  0  0  0
  139.6920   73.6270  221.2400 C   0  0  0  0  0  0  0  0  0  0  0  0
  139.5660   72.9500  222.5160 N   0  0  0  0  0  0  0  0  0  0  0  0
  139.9910   71.5730  222.5350 C   0  0  0  0  0  0  0  0  0  0  0  0
  140.4300   71.0790  221.4420 O   0  0  0  0  0  0  0  0  0  0  0  0
  139.9270   70.7650  223.7460 C   0  0  0  0  0  0  0  0  0  0  0  0
  139.2720   69.5420  223.6720 C   0  0  0  0  0  0  0  0  0  0  0  0
  139.1680   68.7160  224.7710 C   0  0  0  0  0  0  0  0  0  0  0  0
  139.7380   69.1440  225.9520 C   0  0  0  0  0  0  0  0  0  0  0  0
  139.6200   68.2950  227.0470 C   0  0  0  0  0  0  0  0  0  0  0  0
  140.1980   68.7290  228.2440 C   0  0  0  0  0  0  0  0  0  0  0  0
  140.8530   69.9420  228.3340 C   0  0  0  0  0  0  0  0  0  0  0  0
  140.9520   70.7700  227.2180 C   0  0  0  0  0  0  0  0  0  0  0  0
  140.3890   70.3610  226.0270 C   0  0  0  0  0  0  0  0  0  0  0  0
  140.4650   71.1390  224.9190 N   0  0  0  0  0  0  0  0  0  0  0  0
  142.6810   76.3960  219.7130 C   0  0  0  0  0  0  0  0  0  0  0  0
  142.7400   76.8260  218.5330 O   0  0  0  0  0  0  0  0  0  0  0  0
  142.1530   77.3210  220.6750 N   0  0  0  0  0  0  0  0  0  0  0  0
  141.7150   78.6570  220.3460 C   0  0  0  0  0  0  0  0  0  0  0  0
  141.7930   79.5800  221.5000 C   0  0  0  0  0  0  0  0  0  0  0  0
  142.1700   79.2150  222.7680 C   0  0  0  0  0  0  0  0  0  0  0  0
  142.1950   80.1660  223.7680 C   0  0  0  0  0  0  0  0  0  0  0  0
  141.8430   81.4840  223.5030 C   0  0  0  0  0  0  0  0  0  0  0  0
  141.4600   81.8730  222.2300 C   0  0  0  0  0  0  0  0  0  0  0  0
  141.4410   80.9100  221.2430 C   0  0  0  0  0  0  0  0  0  0  0  0
  145.3092   73.6242  221.8467 H   0  0  0  0  0  0  0  0  0  0  0  0
  146.8078   73.7578  220.8654 H   0  0  0  0  0  0  0  0  0  0  0  0
  145.6118   75.0980  220.8654 H   0  0  0  0  0  0  0  0  0  0  0  0
  145.6700   73.0630  218.8720 H   0  0  0  0  0  0  0  0  0  0  0  0
  144.3330   72.2674  221.4483 H   0  0  0  0  0  0  0  0  0  0  0  0
  143.2191   72.1738  220.0421 H   0  0  0  0  0  0  0  0  0  0  0  0
  144.7470   71.2291  220.0421 H   0  0  0  0  0  0  0  0  0  0  0  0
  144.5645   75.0434  218.5782 H   0  0  0  0  0  0  0  0  0  0  0  0
  143.3028   73.6372  218.6382 H   0  0  0  0  0  0  0  0  0  0  0  0
  143.7173   75.2186  220.9688 H   0  0  0  0  0  0  0  0  0  0  0  0
  141.6830   73.5090  219.4060 H   0  0  0  0  0  0  0  0  0  0  0  0
  138.8232   74.2867  221.0985 H   0  0  0  0  0  0  0  0  0  0  0  0
  139.7389   72.8643  220.4488 H   0  0  0  0  0  0  0  0  0  0  0  0
  139.1970   73.4010  223.3820 H   0  0  0  0  0  0  0  0  0  0  0  0
  138.8272   69.2262  222.7168 H   0  0  0  0  0  0  0  0  0  0  0  0
  138.6482   67.7486  224.7082 H   0  0  0  0  0  0  0  0  0  0  0  0
  139.0977   67.3296  226.9751 H   0  0  0  0  0  0  0  0  0  0  0  0
  140.1295   68.0888  229.1359 H   0  0  0  0  0  0  0  0  0  0  0  0
  141.2979   70.2551  229.2901 H   0  0  0  0  0  0  0  0  0  0  0  0
  141.4721   71.7369  227.2857 H   0  0  0  0  0  0  0  0  0  0  0  0
  142.0670   77.0460  221.6870 H   0  0  0  0  0  0  0  0  0  0  0  0
  142.3513   79.0478  219.5383 H   0  0  0  0  0  0  0  0  0  0  0  0
  140.6609   78.5963  220.0376 H   0  0  0  0  0  0  0  0  0  0  0  0
  142.4498   78.1737  222.9855 H   0  0  0  0  0  0  0  0  0  0  0  0
  142.4968   79.8776  224.7857 H   0  0  0  0  0  0  0  0  0  0  0  0
  141.8688   82.2270  224.3137 H   0  0  0  0  0  0  0  0  0  0  0  0
  141.1805   82.9147  222.0136 H   0  0  0  0  0  0  0  0  0  0  0  0
  141.1404   81.1955  220.2241 H   0  0  0  0  0  0  0  0  0  0  0  0
  1  2  1  0
  2  3  1  0
  2  4  1  0
  4  5  1  0
  5  6  1  0
  6  7  1  0
  7  8  2  0
  7  9  1  0
  9 10  1  0
 10 11  1  0
 11 12  2  0
 11 13  1  0
 13 14  2  0
 14 15  1  0
 15 16  2  0
 16 17  1  0
 17 18  2  0
 18 19  1  0
 19 20  2  0
 20 21  1  0
 21 22  2  0
  5 23  1  0
 23 24  2  0
 23 25  1  0
 25 26  1  0
 26 27  1  0
 27 28  2  0
 28 29  1  0
 29 30  2  0
 30 31  1  0
 31 32  2  0
 22 13  1  0
 32 27  1  0
 21 16  1  0
  1 33  1  0
  1 34  1  0
  1 35  1  0
  2 36  1  0
  3 37  1  0
  3 38  1  0
  3 39  1  0
  4 40  1  0
  4 41  1  0
  5 42  1  1
  6 43  1  0
  9 44  1  0
  9 45  1  0
 10 46  1  0
 14 47  1  0
 15 48  1  0
 17 49  1  0
 18 50  1  0
 19 51  1  0
 20 52  1  0
 25 53  1  0
 26 54  1  0
 26 55  1  0
 28 56  1  0
 29 57  1  0
 30 58  1  0
 31 59  1  0
 32 60  1  0
M  END
>  <smiles>  (36) 
CC(C)C[C@H](NC(=O)CNC(=O)c1ccc2ccccc2n1)C(=O)NCc1ccccc1

>  <score_type>  (36) 
oracle

>  <origin>  (36) 
autodockgpu

>  <m_score__min__energy>  (36) 
-10.23

>  <m_primary>  (36) 
energy

>  <rmsd>  (36) 
3.29644954295357

>  <m_score__min__rmsd>  (36) 
3.29644954295357

>  <meeko>  (36) 
{"free_energy": -9.97, "intermolecular_energy": -12.66, "internal_energy": -2.35, "cluster_size": 19, "cluster_id": 1, "rank_in_cluster": 7}

>  <energy>  (36) 
-8.51

>  <cluster_rmsd>  (36) 
0.92

>  <cluster>  (36) 
2

$$$$

     RDKit          3D

 60 62  0  0  0  0  0  0  0  0999 V2000
  139.6300   79.6180  223.5250 C   0  0  0  0  0  0  0  0  0  0  0  0
  140.6060   78.9790  222.4900 C   0  0  0  0  0  0  0  0  0  0  0  0
  141.8260   78.6390  223.3550 C   0  0  0  0  0  0  0  0  0  0  0  0
  140.0150   77.7280  221.9750 C   0  0  0  0  0  0  0  0  0  0  0  0
  140.0190   77.4160  220.5360 C   0  0  2  0  0  0  0  0  0  0  0  0
  139.1860   76.1810  220.4230 N   0  0  0  0  0  0  0  0  0  0  0  0
  139.4760   75.0450  221.2270 C   0  0  0  0  0  0  0  0  0  0  0  0
  140.4540   75.0940  222.0480 O   0  0  0  0  0  0  0  0  0  0  0  0
  138.6490   73.8160  221.1150 C   0  0  0  0  0  0  0  0  0  0  0  0
  138.6460   73.0610  222.3520 N   0  0  0  0  0  0  0  0  0  0  0  0
  139.7770   72.1900  222.5530 C   0  0  0  0  0  0  0  0  0  0  0  0
  140.6650   72.1600  221.6360 O   0  0  0  0  0  0  0  0  0  0  0  0
  139.9130   71.3700  223.7510 C   0  0  0  0  0  0  0  0  0  0  0  0
  139.5130   70.0430  223.6740 C   0  0  0  0  0  0  0  0  0  0  0  0
  139.6100   69.2000  224.7600 C   0  0  0  0  0  0  0  0  0  0  0  0
  140.1210   69.7180  225.9320 C   0  0  0  0  0  0  0  0  0  0  0  0
  140.2100   68.8500  227.0130 C   0  0  0  0  0  0  0  0  0  0  0  0
  140.7280   69.3750  228.2010 C   0  0  0  0  0  0  0  0  0  0  0  0
  141.1310   70.6940  228.2940 C   0  0  0  0  0  0  0  0  0  0  0  0
  141.0270   71.5380  227.1910 C   0  0  0  0  0  0  0  0  0  0  0  0
  140.5190   71.0400  226.0100 C   0  0  0  0  0  0  0  0  0  0  0  0
  140.4040   71.8300  224.9150 N   0  0  0  0  0  0  0  0  0  0  0  0
  141.2580   77.1080  219.8490 C   0  0  0  0  0  0  0  0  0  0  0  0
  141.4660   77.4720  218.6640 O   0  0  0  0  0  0  0  0  0  0  0  0
  142.3290   76.3740  220.4610 N   0  0  0  0  0  0  0  0  0  0  0  0
  143.5690   76.0590  219.7910 C   0  0  0  0  0  0  0  0  0  0  0  0
  143.9660   74.6450  219.9710 C   0  0  0  0  0  0  0  0  0  0  0  0
  143.1800   73.5650  219.6520 C   0  0  0  0  0  0  0  0  0  0  0  0
  143.6560   72.2900  219.8750 C   0  0  0  0  0  0  0  0  0  0  0  0
  144.9210   72.0890  220.4170 C   0  0  0  0  0  0  0  0  0  0  0  0
  145.7290   73.1640  220.7450 C   0  0  0  0  0  0  0  0  0  0  0  0
  145.2370   74.4320  220.5160 C   0  0  0  0  0  0  0  0  0  0  0  0
  139.9764   79.3912  224.5441 H   0  0  0  0  0  0  0  0  0  0  0  0
  139.6046   80.7082  223.3804 H   0  0  0  0  0  0  0  0  0  0  0  0
  138.6206   79.2053  223.3804 H   0  0  0  0  0  0  0  0  0  0  0  0
  140.8320   79.6250  221.6289 H   0  0  0  0  0  0  0  0  0  0  0  0
  141.5542   78.7147  224.4182 H   0  0  0  0  0  0  0  0  0  0  0  0
  142.1583   77.6140  223.1336 H   0  0  0  0  0  0  0  0  0  0  0  0
  142.6405   79.3444  223.1336 H   0  0  0  0  0  0  0  0  0  0  0  0
  140.5466   76.9042  222.4737 H   0  0  0  0  0  0  0  0  0  0  0  0
  138.9443   77.8651  222.1866 H   0  0  0  0  0  0  0  0  0  0  0  0
  139.6875   78.3477  220.0542 H   0  0  0  0  0  0  0  0  0  0  0  0
  138.3910   76.1430  219.7500 H   0  0  0  0  0  0  0  0  0  0  0  0
  137.6158   74.1021  220.8688 H   0  0  0  0  0  0  0  0  0  0  0  0
  139.0795   73.1821  220.3258 H   0  0  0  0  0  0  0  0  0  0  0  0
  137.8920   73.1210  223.0710 H   0  0  0  0  0  0  0  0  0  0  0  0
  139.1102   69.6562  222.7263 H   0  0  0  0  0  0  0  0  0  0  0  0
  139.2907   68.1494  224.6944 H   0  0  0  0  0  0  0  0  0  0  0  0
  139.8886   67.8007  226.9380 H   0  0  0  0  0  0  0  0  0  0  0  0
  140.8169   68.7229  229.0824 H   0  0  0  0  0  0  0  0  0  0  0  0
  141.5351   71.0782  229.2422 H   0  0  0  0  0  0  0  0  0  0  0  0
  141.3460   72.5884  227.2612 H   0  0  0  0  0  0  0  0  0  0  0  0
  142.2410   76.0300  221.4510 H   0  0  0  0  0  0  0  0  0  0  0  0
  143.4496   76.2579  218.7157 H   0  0  0  0  0  0  0  0  0  0  0  0
  144.3569   76.6866  220.2329 H   0  0  0  0  0  0  0  0  0  0  0  0
  142.1788   73.7157  219.2221 H   0  0  0  0  0  0  0  0  0  0  0  0
  143.0285   71.4228  219.6215 H   0  0  0  0  0  0  0  0  0  0  0  0
  145.2834   71.0644  220.5869 H   0  0  0  0  0  0  0  0  0  0  0  0
  146.7304   73.0120  221.1741 H   0  0  0  0  0  0  0  0  0  0  0  0
  145.8620   75.3011  220.7692 H   0  0  0  0  0  0  0  0  0  0  0  0
  1  2  1  0
  2  3  1  0
  2  4  1  0
  4  5  1  0
  5  6  1  0
  6  7  1  0
  7  8  2  0
  7  9  1  0
  9 10  1  0
 10 11  1  0
 11 12  2  0
 11 13  1  0
 13 14  2  0
 14 15  1  0
 15 16  2  0
 16 17  1  0
 17 18  2  0
 18 19  1  0
 19 20  2  0
 20 21  1  0
 21 22  2  0
  5 23  1  0
 23 24  2  0
 23 25  1  0
 25 26  1  0
 26 27  1  0
 27 28  2  0
 28 29  1  0
 29 30  2  0
 30 31  1  0
 31 32  2  0
 22 13  1  0
 32 27  1  0
 21 16  1  0
  1 33  1  0
  1 34  1  0
  1 35  1  0
  2 36  1  0
  3 37  1  0
  3 38  1  0
  3 39  1  0
  4 40  1  0
  4 41  1  0
  5 42  1  6
  6 43  1  0
  9 44  1  0
  9 45  1  0
 10 46  1  0
 14 47  1  0
 15 48  1  0
 17 49  1  0
 18 50  1  0
 19 51  1  0
 20 52  1  0
 25 53  1  0
 26 54  1  0
 26 55  1  0
 28 56  1  0
 29 57  1  0
 30 58  1  0
 31 59  1  0
 32 60  1  0
M  END
>  <smiles>  (37) 
CC(C)C[C@H](NC(=O)CNC(=O)c1ccc2ccccc2n1)C(=O)NCc1ccccc1

>  <score_type>  (37) 
oracle

>  <origin>  (37) 
autodockgpu

>  <m_score__min__energy>  (37) 
-10.23

>  <m_primary>  (37) 
energy

>  <rmsd>  (37) 
5.258409256190277

>  <m_score__min__rmsd>  (37) 
5.258409256190277

>  <meeko>  (37) 
{"free_energy": -9.32, "intermolecular_energy": -12.01, "internal_energy": -2.59, "cluster_size": 17, "cluster_id": 2, "rank_in_cluster": 10}

>  <energy>  (37) 
-8.71

>  <cluster_rmsd>  (37) 
0.0

>  <cluster>  (37) 
3

$$$$

     RDKit          3D

 60 62  0  0  0  0  0  0  0  0999 V2000
  139.6330   79.7740  223.8680 C   0  0  0  0  0  0  0  0  0  0  0  0
  140.6240   79.1790  222.8200 C   0  0  0  0  0  0  0  0  0  0  0  0
  141.7820   78.6950  223.7010 C   0  0  0  0  0  0  0  0  0  0  0  0
  139.9940   78.0140  222.1660 C   0  0  0  0  0  0  0  0  0  0  0  0
  140.2030   77.7340  220.7360 C   0  0  2  0  0  0  0  0  0  0  0  0
  139.4980   76.4380  220.5060 N   0  0  0  0  0  0  0  0  0  0  0  0
  139.7330   75.3310  221.3660 C   0  0  0  0  0  0  0  0  0  0  0  0
  140.5520   75.4590  222.3380 O   0  0  0  0  0  0  0  0  0  0  0  0
  139.0330   74.0410  221.1370 C   0  0  0  0  0  0  0  0  0  0  0  0
  138.9430   73.2600  222.3550 N   0  0  0  0  0  0  0  0  0  0  0  0
  140.0250   72.3370  222.5850 C   0  0  0  0  0  0  0  0  0  0  0  0
  140.9510   72.2870  221.7070 O   0  0  0  0  0  0  0  0  0  0  0  0
  140.0730   71.4860  223.7680 C   0  0  0  0  0  0  0  0  0  0  0  0
  139.6000   70.1870  223.6480 C   0  0  0  0  0  0  0  0  0  0  0  0
  139.6120   69.3170  224.7180 C   0  0  0  0  0  0  0  0  0  0  0  0
  140.1110   69.7810  225.9170 C   0  0  0  0  0  0  0  0  0  0  0  0
  140.1120   68.8870  226.9820 C   0  0  0  0  0  0  0  0  0  0  0  0
  140.6190   69.3570  228.1970 C   0  0  0  0  0  0  0  0  0  0  0  0
  141.0940   70.6480  228.3330 C   0  0  0  0  0  0  0  0  0  0  0  0
  141.0770   71.5190  227.2460 C   0  0  0  0  0  0  0  0  0  0  0  0
  140.5820   71.0750  226.0380 C   0  0  0  0  0  0  0  0  0  0  0  0
  140.5490   71.8930  224.9570 N   0  0  0  0  0  0  0  0  0  0  0  0
  141.5390   77.5440  220.2070 C   0  0  0  0  0  0  0  0  0  0  0  0
  142.1920   78.4920  219.7010 O   0  0  0  0  0  0  0  0  0  0  0  0
  142.2110   76.2760  220.2180 N   0  0  0  0  0  0  0  0  0  0  0  0
  143.5400   76.0690  219.6950 C   0  0  0  0  0  0  0  0  0  0  0  0
  144.0680   74.7220  220.0050 C   0  0  0  0  0  0  0  0  0  0  0  0
  145.3240   74.4690  220.5000 C   0  0  0  0  0  0  0  0  0  0  0  0
  145.7080   73.1650  220.7410 C   0  0  0  0  0  0  0  0  0  0  0  0
  144.8380   72.1100  220.4880 C   0  0  0  0  0  0  0  0  0  0  0  0
  143.5670   72.3440  219.9900 C   0  0  0  0  0  0  0  0  0  0  0  0
  143.2000   73.6530  219.7540 C   0  0  0  0  0  0  0  0  0  0  0  0
  139.9973   79.5553  224.8826 H   0  0  0  0  0  0  0  0  0  0  0  0
  139.5638   80.8631  223.7301 H   0  0  0  0  0  0  0  0  0  0  0  0
  138.6392   79.3231  223.7301 H   0  0  0  0  0  0  0  0  0  0  0  0
  140.9241   79.8869  222.0333 H   0  0  0  0  0  0  0  0  0  0  0  0
  141.5091   78.8090  224.7605 H   0  0  0  0  0  0  0  0  0  0  0  0
  141.9874   77.6357  223.4872 H   0  0  0  0  0  0  0  0  0  0  0  0
  142.6801   79.2931  223.4872 H   0  0  0  0  0  0  0  0  0  0  0  0
  140.3425   77.1246  222.7115 H   0  0  0  0  0  0  0  0  0  0  0  0
  138.9244   78.2677  222.2056 H   0  0  0  0  0  0  0  0  0  0  0  0
  139.8565   78.6451  220.2263 H   0  0  0  0  0  0  0  0  0  0  0  0
  138.8330   76.3350  219.7100 H   0  0  0  0  0  0  0  0  0  0  0  0
  138.0171   74.2464  220.7686 H   0  0  0  0  0  0  0  0  0  0  0  0
  139.6087   73.4630  220.3990 H   0  0  0  0  0  0  0  0  0  0  0  0
  138.1600   73.3380  223.0420 H   0  0  0  0  0  0  0  0  0  0  0  0
  139.2074   69.8441  222.6794 H   0  0  0  0  0  0  0  0  0  0  0  0
  139.2363   68.2879  224.6185 H   0  0  0  0  0  0  0  0  0  0  0  0
  139.7324   67.8602  226.8737 H   0  0  0  0  0  0  0  0  0  0  0  0
  140.6405   68.6830  229.0661 H   0  0  0  0  0  0  0  0  0  0  0  0
  141.4866   70.9886  229.3025 H   0  0  0  0  0  0  0  0  0  0  0  0
  141.4534   72.5473  227.3499 H   0  0  0  0  0  0  0  0  0  0  0  0
  141.7390   75.4270  220.6210 H   0  0  0  0  0  0  0  0  0  0  0  0
  143.5125   76.1942  218.6025 H   0  0  0  0  0  0  0  0  0  0  0  0
  144.2044   76.8057  220.1702 H   0  0  0  0  0  0  0  0  0  0  0  0
  146.0179   75.2981  220.7026 H   0  0  0  0  0  0  0  0  0  0  0  0
  146.7130   72.9583  221.1374 H   0  0  0  0  0  0  0  0  0  0  0  0
  145.1630   71.0779  220.6857 H   0  0  0  0  0  0  0  0  0  0  0  0
  142.8734   71.5142  219.7894 H   0  0  0  0  0  0  0  0  0  0  0  0
  142.1958   73.8626  219.3569 H   0  0  0  0  0  0  0  0  0  0  0  0
  1  2  1  0
  2  3  1  0
  2  4  1  0
  4  5  1  0
  5  6  1  0
  6  7  1  0
  7  8  2  0
  7  9  1  0
  9 10  1  0
 10 11  1  0
 11 12  2  0
 11 13  1  0
 13 14  2  0
 14 15  1  0
 15 16  2  0
 16 17  1  0
 17 18  2  0
 18 19  1  0
 19 20  2  0
 20 21  1  0
 21 22  2  0
  5 23  1  0
 23 24  2  0
 23 25  1  0
 25 26  1  0
 26 27  1  0
 27 28  2  0
 28 29  1  0
 29 30  2  0
 30 31  1  0
 31 32  2  0
 22 13  1  0
 32 27  1  0
 21 16  1  0
  1 33  1  0
  1 34  1  0
  1 35  1  0
  2 36  1  0
  3 37  1  0
  3 38  1  0
  3 39  1  0
  4 40  1  0
  4 41  1  0
  5 42  1  6
  6 43  1  0
  9 44  1  0
  9 45  1  0
 10 46  1  0
 14 47  1  0
 15 48  1  0
 17 49  1  0
 18 50  1  0
 19 51  1  0
 20 52  1  0
 25 53  1  0
 26 54  1  0
 26 55  1  0
 28 56  1  0
 29 57  1  0
 30 58  1  0
 31 59  1  0
 32 60  1  0
M  END
>  <smiles>  (38) 
CC(C)C[C@H](NC(=O)CNC(=O)c1ccc2ccccc2n1)C(=O)NCc1ccccc1

>  <score_type>  (38) 
oracle

>  <origin>  (38) 
autodockgpu

>  <m_score__min__energy>  (38) 
-10.23

>  <m_primary>  (38) 
energy

>  <rmsd>  (38) 
5.382608607032953

>  <m_score__min__rmsd>  (38) 
5.382608607032953

>  <meeko>  (38) 
{"free_energy": -9.11, "intermolecular_energy": -11.8, "internal_energy": -2.45, "cluster_size": 17, "cluster_id": 2, "rank_in_cluster": 12}

>  <energy>  (38) 
-8.37

>  <cluster_rmsd>  (38) 
1.08

>  <cluster>  (38) 
3

$$$$

     RDKit          3D

 60 62  0  0  0  0  0  0  0  0999 V2000
  134.1930   74.6020  225.8900 C   0  0  0  0  0  0  0  0  0  0  0  0
  134.4450   74.9550  224.3920 C   0  0  0  0  0  0  0  0  0  0  0  0
  134.4910   76.4870  224.4190 C   0  0  0  0  0  0  0  0  0  0  0  0
  135.7690   74.4380  223.9890 C   0  0  0  0  0  0  0  0  0  0  0  0
  136.3850   74.8290  222.7100 C   0  0  2  0  0  0  0  0  0  0  0  0
  137.2670   73.6760  222.3570 N   0  0  0  0  0  0  0  0  0  0  0  0
  137.5430   73.3740  220.9960 C   0  0  0  0  0  0  0  0  0  0  0  0
  137.0300   74.1020  220.0800 O   0  0  0  0  0  0  0  0  0  0  0  0
  138.4180   72.2270  220.6440 C   0  0  0  0  0  0  0  0  0  0  0  0
  138.6830   71.3860  221.7950 N   0  0  0  0  0  0  0  0  0  0  0  0
  139.4920   71.9810  222.8290 C   0  0  0  0  0  0  0  0  0  0  0  0
  139.8990   73.1770  222.6400 O   0  0  0  0  0  0  0  0  0  0  0  0
  139.8390   71.2580  224.0460 C   0  0  0  0  0  0  0  0  0  0  0  0
  140.6770   71.8900  224.9550 C   0  0  0  0  0  0  0  0  0  0  0  0
  141.0520   71.2770  226.1320 C   0  0  0  0  0  0  0  0  0  0  0  0
  140.5670   70.0100  226.3790 C   0  0  0  0  0  0  0  0  0  0  0  0
  140.9580   69.4110  227.5710 C   0  0  0  0  0  0  0  0  0  0  0  0
  140.4660   68.1270  227.8210 C   0  0  0  0  0  0  0  0  0  0  0  0
  139.6310   67.4850  226.9270 C   0  0  0  0  0  0  0  0  0  0  0  0
  139.2580   68.1120  225.7400 C   0  0  0  0  0  0  0  0  0  0  0  0
  139.7330   69.3800  225.4740 C   0  0  0  0  0  0  0  0  0  0  0  0
  139.3920   70.0230  224.3300 N   0  0  0  0  0  0  0  0  0  0  0  0
  137.2320   76.0010  222.6240 C   0  0  0  0  0  0  0  0  0  0  0  0
  136.7580   77.1470  222.4150 O   0  0  0  0  0  0  0  0  0  0  0  0
  138.6590   75.9460  222.7710 N   0  0  0  0  0  0  0  0  0  0  0  0
  139.5180   77.1040  222.6880 C   0  0  0  0  0  0  0  0  0  0  0  0
  140.6000   76.9370  221.6930 C   0  0  0  0  0  0  0  0  0  0  0  0
  141.1660   77.9600  220.9730 C   0  0  0  0  0  0  0  0  0  0  0  0
  142.1650   77.6780  220.0640 C   0  0  0  0  0  0  0  0  0  0  0  0
  142.6030   76.3720  219.8720 C   0  0  0  0  0  0  0  0  0  0  0  0
  142.0460   75.3260  220.5890 C   0  0  0  0  0  0  0  0  0  0  0  0
  141.0480   75.6260  221.4930 C   0  0  0  0  0  0  0  0  0  0  0  0
  134.7126   75.3298  226.5306 H   0  0  0  0  0  0  0  0  0  0  0  0
  133.1134   74.6355  226.0980 H   0  0  0  0  0  0  0  0  0  0  0  0
  134.5753   73.5918  226.0980 H   0  0  0  0  0  0  0  0  0  0  0  0
  133.6961   74.5406  223.7011 H   0  0  0  0  0  0  0  0  0  0  0  0
  134.5014   76.8352  225.4624 H   0  0  0  0  0  0  0  0  0  0  0  0
  135.4000   76.8356  223.9070 H   0  0  0  0  0  0  0  0  0  0  0  0
  133.6045   76.8895  223.9070 H   0  0  0  0  0  0  0  0  0  0  0  0
  136.4738   74.7375  224.7786 H   0  0  0  0  0  0  0  0  0  0  0  0
  135.5722   73.3658  223.8416 H   0  0  0  0  0  0  0  0  0  0  0  0
  135.5323   75.0862  222.0644 H   0  0  0  0  0  0  0  0  0  0  0  0
  137.6800   73.0820  223.1080 H   0  0  0  0  0  0  0  0  0  0  0  0
  137.9226   71.6248  219.8682 H   0  0  0  0  0  0  0  0  0  0  0  0
  139.3768   72.6243  220.2797 H   0  0  0  0  0  0  0  0  0  0  0  0
  138.3270   70.4110  221.8990 H   0  0  0  0  0  0  0  0  0  0  0  0
  141.0495   72.9006  224.7316 H   0  0  0  0  0  0  0  0  0  0  0  0
  141.7156   71.7817  226.8496 H   0  0  0  0  0  0  0  0  0  0  0  0
  141.6223   69.9228  228.2829 H   0  0  0  0  0  0  0  0  0  0  0  0
  140.7505   67.6151  228.7522 H   0  0  0  0  0  0  0  0  0  0  0  0
  139.2592   66.4748  227.1532 H   0  0  0  0  0  0  0  0  0  0  0  0
  138.5944   67.6035  225.0251 H   0  0  0  0  0  0  0  0  0  0  0  0
  139.1410   75.0290  222.9480 H   0  0  0  0  0  0  0  0  0  0  0  0
  138.9092   77.9751  222.4042 H   0  0  0  0  0  0  0  0  0  0  0  0
  139.9882   77.2425  223.6728 H   0  0  0  0  0  0  0  0  0  0  0  0
  140.8259   78.9958  221.1197 H   0  0  0  0  0  0  0  0  0  0  0  0
  142.6200   78.4950  219.4848 H   0  0  0  0  0  0  0  0  0  0  0  0
  143.4006   76.1675  219.1426 H   0  0  0  0  0  0  0  0  0  0  0  0
  142.3879   74.2908  220.4425 H   0  0  0  0  0  0  0  0  0  0  0  0
  140.5909   74.8112  222.0736 H   0  0  0  0  0  0  0  0  0  0  0  0
  1  2  1  0
  2  3  1  0
  2  4  1  0
  4  5  1  0
  5  6  1  0
  6  7  1  0
  7  8  2  0
  7  9  1  0
  9 10  1  0
 10 11  1  0
 11 12  2  0
 11 13  1  0
 13 14  2  0
 14 15  1  0
 15 16  2  0
 16 17  1  0
 17 18  2  0
 18 19  1  0
 19 20  2  0
 20 21  1  0
 21 22  2  0
  5 23  1  0
 23 24  2  0
 23 25  1  0
 25 26  1  0
 26 27  1  0
 27 28  2  0
 28 29  1  0
 29 30  2  0
 30 31  1  0
 31 32  2  0
 22 13  1  0
 32 27  1  0
 21 16  1  0
  1 33  1  0
  1 34  1  0
  1 35  1  0
  2 36  1  0
  3 37  1  0
  3 38  1  0
  3 39  1  0
  4 40  1  0
  4 41  1  0
  5 42  1  6
  6 43  1  0
  9 44  1  0
  9 45  1  0
 10 46  1  0
 14 47  1  0
 15 48  1  0
 17 49  1  0
 18 50  1  0
 19 51  1  0
 20 52  1  0
 25 53  1  0
 26 54  1  0
 26 55  1  0
 28 56  1  0
 29 57  1  0
 30 58  1  0
 31 59  1  0
 32 60  1  0
M  END
>  <smiles>  (39) 
CC(C)C[C@H](NC(=O)CNC(=O)c1ccc2ccccc2n1)C(=O)NCc1ccccc1

>  <score_type>  (39) 
oracle

>  <origin>  (39) 
autodockgpu

>  <m_score__min__energy>  (39) 
-10.23

>  <m_primary>  (39) 
energy

>  <rmsd>  (39) 
5.4779753305770456

>  <m_score__min__rmsd>  (39) 
5.4779753305770456

>  <meeko>  (39) 
{"free_energy": -7.84, "intermolecular_energy": -10.52, "internal_energy": -3.39, "cluster_size": 4, "cluster_id": 4, "rank_in_cluster": 1}

>  <energy>  (39) 
-7.95

>  <cluster_rmsd>  (39) 
1.1

>  <cluster>  (39) 
3

$$$$

     RDKit          3D

 60 62  0  0  0  0  0  0  0  0999 V2000
  141.4880   80.0870  221.4860 C   0  0  0  0  0  0  0  0  0  0  0  0
  141.7510   78.6150  221.9310 C   0  0  0  0  0  0  0  0  0  0  0  0
  141.5390   78.6870  223.4470 C   0  0  0  0  0  0  0  0  0  0  0  0
  140.7190   77.7390  221.3400 C   0  0  0  0  0  0  0  0  0  0  0  0
  140.8960   77.1400  220.0070 C   0  0  2  0  0  0  0  0  0  0  0  0
  139.9470   75.9870  219.9910 N   0  0  0  0  0  0  0  0  0  0  0  0
  139.9560   75.0360  221.0470 C   0  0  0  0  0  0  0  0  0  0  0  0
  140.7830   75.1810  222.0100 O   0  0  0  0  0  0  0  0  0  0  0  0
  139.0130   73.8880  221.0320 C   0  0  0  0  0  0  0  0  0  0  0  0
  138.9550   73.2290  222.3210 N   0  0  0  0  0  0  0  0  0  0  0  0
  139.8860   72.1450  222.5110 C   0  0  0  0  0  0  0  0  0  0  0  0
  140.6660   71.8650  221.5390 O   0  0  0  0  0  0  0  0  0  0  0  0
  139.9460   71.3910  223.7570 C   0  0  0  0  0  0  0  0  0  0  0  0
  139.4450   70.0960  223.7510 C   0  0  0  0  0  0  0  0  0  0  0  0
  139.4660   69.3140  224.8860 C   0  0  0  0  0  0  0  0  0  0  0  0
  140.0010   69.8610  226.0330 C   0  0  0  0  0  0  0  0  0  0  0  0
  140.0110   69.0540  227.1660 C   0  0  0  0  0  0  0  0  0  0  0  0
  140.5550   69.6090  228.3280 C   0  0  0  0  0  0  0  0  0  0  0  0
  141.0580   70.8960  228.3500 C   0  0  0  0  0  0  0  0  0  0  0  0
  141.0310   71.6790  227.1980 C   0  0  0  0  0  0  0  0  0  0  0  0
  140.5000   71.1510  226.0400 C   0  0  0  0  0  0  0  0  0  0  0  0
  140.4570   71.8810  224.8990 N   0  0  0  0  0  0  0  0  0  0  0  0
  142.1760   76.5900  219.6070 C   0  0  0  0  0  0  0  0  0  0  0  0
  142.6850   76.8430  218.4860 O   0  0  0  0  0  0  0  0  0  0  0  0
  142.9520   75.7250  220.4500 N   0  0  0  0  0  0  0  0  0  0  0  0
  144.2290   75.1680  220.0680 C   0  0  0  0  0  0  0  0  0  0  0  0
  144.2120   73.6890  220.0280 C   0  0  0  0  0  0  0  0  0  0  0  0
  143.1560   72.9070  220.4270 C   0  0  0  0  0  0  0  0  0  0  0  0
  143.2620   71.5340  220.3520 C   0  0  0  0  0  0  0  0  0  0  0  0
  144.4240   70.9360  219.8770 C   0  0  0  0  0  0  0  0  0  0  0  0
  145.5000   71.7060  219.4690 C   0  0  0  0  0  0  0  0  0  0  0  0
  145.3770   73.0780  219.5510 C   0  0  0  0  0  0  0  0  0  0  0  0
  141.3742   80.7242  222.3754 H   0  0  0  0  0  0  0  0  0  0  0  0
  142.3364   80.4453  220.8844 H   0  0  0  0  0  0  0  0  0  0  0  0
  140.5681   80.1294  220.8844 H   0  0  0  0  0  0  0  0  0  0  0  0
  142.7359   78.2258  221.6334 H   0  0  0  0  0  0  0  0  0  0  0  0
  142.4597   78.3743  223.9613 H   0  0  0  0  0  0  0  0  0  0  0  0
  141.2914   79.7196  223.7340 H   0  0  0  0  0  0  0  0  0  0  0  0
  140.7137   78.0187  223.7340 H   0  0  0  0  0  0  0  0  0  0  0  0
  140.5818   76.9027  222.0413 H   0  0  0  0  0  0  0  0  0  0  0  0
  139.8803   78.4326  221.1803 H   0  0  0  0  0  0  0  0  0  0  0  0
  140.7525   77.9788  219.3099 H   0  0  0  0  0  0  0  0  0  0  0  0
  139.2760   75.8690  219.2020 H   0  0  0  0  0  0  0  0  0  0  0  0
  138.0087   74.2543  220.7727 H   0  0  0  0  0  0  0  0  0  0  0  0
  139.3693   73.1596  220.2887 H   0  0  0  0  0  0  0  0  0  0  0  0
  138.2940   73.4970  223.0840 H   0  0  0  0  0  0  0  0  0  0  0  0
  139.0228   69.6858  222.8217 H   0  0  0  0  0  0  0  0  0  0  0  0
  139.0693   68.2881  224.8769 H   0  0  0  0  0  0  0  0  0  0  0  0
  139.6106   68.0296  227.1484 H   0  0  0  0  0  0  0  0  0  0  0  0
  140.5834   69.0063  229.2478 H   0  0  0  0  0  0  0  0  0  0  0  0
  141.4810   71.3035  229.2801 H   0  0  0  0  0  0  0  0  0  0  0  0
  141.4280   72.7048  227.2119 H   0  0  0  0  0  0  0  0  0  0  0  0
  142.6030   75.4590  221.4060 H   0  0  0  0  0  0  0  0  0  0  0  0
  144.4939   75.5450  219.0692 H   0  0  0  0  0  0  0  0  0  0  0  0
  144.9671   75.4738  220.8241 H   0  0  0  0  0  0  0  0  0  0  0  0
  142.2329   73.3720  220.8034 H   0  0  0  0  0  0  0  0  0  0  0  0
  142.4180   70.9050  220.6715 H   0  0  0  0  0  0  0  0  0  0  0  0
  144.4891   69.8392  219.8248 H   0  0  0  0  0  0  0  0  0  0  0  0
  146.4222   71.2396  219.0920 H   0  0  0  0  0  0  0  0  0  0  0  0
  146.2192   73.7097  219.2321 H   0  0  0  0  0  0  0  0  0  0  0  0
  1  2  1  0
  2  3  1  0
  2  4  1  0
  4  5  1  0
  5  6  1  0
  6  7  1  0
  7  8  2  0
  7  9  1  0
  9 10  1  0
 10 11  1  0
 11 12  2  0
 11 13  1  0
 13 14  2  0
 14 15  1  0
 15 16  2  0
 16 17  1  0
 17 18  2  0
 18 19  1  0
 19 20  2  0
 20 21  1  0
 21 22  2  0
  5 23  1  0
 23 24  2  0
 23 25  1  0
 25 26  1  0
 26 27  1  0
 27 28  2  0
 28 29  1  0
 29 30  2  0
 30 31  1  0
 31 32  2  0
 22 13  1  0
 32 27  1  0
 21 16  1  0
  1 33  1  0
  1 34  1  0
  1 35  1  0
  2 36  1  0
  3 37  1  0
  3 38  1  0
  3 39  1  0
  4 40  1  0
  4 41  1  0
  5 42  1  6
  6 43  1  0
  9 44  1  0
  9 45  1  0
 10 46  1  0
 14 47  1  0
 15 48  1  0
 17 49  1  0
 18 50  1  0
 19 51  1  0
 20 52  1  0
 25 53  1  0
 26 54  1  0
 26 55  1  0
 28 56  1  0
 29 57  1  0
 30 58  1  0
 31 59  1  0
 32 60  1  0
M  END
>  <smiles>  (40) 
CC(C)C[C@H](NC(=O)CNC(=O)c1ccc2ccccc2n1)C(=O)NCc1ccccc1

>  <score_type>  (40) 
oracle

>  <origin>  (40) 
autodockgpu

>  <m_score__min__energy>  (40) 
-10.23

>  <m_primary>  (40) 
energy

>  <rmsd>  (40) 
5.530657539456749

>  <m_score__min__rmsd>  (40) 
5.530657539456749

>  <meeko>  (40) 
{"free_energy": -8.93, "intermolecular_energy": -11.61, "internal_energy": -2.63, "cluster_size": 17, "cluster_id": 2, "rank_in_cluster": 13}

>  <energy>  (40) 
-7.92

>  <cluster_rmsd>  (40) 
1.78

>  <cluster>  (40) 
3

$$$$

     RDKit          3D

 60 62  0  0  0  0  0  0  0  0999 V2000
  145.7350   74.0110  220.8640 C   0  0  0  0  0  0  0  0  0  0  0  0
  144.8830   73.3830  219.7180 C   0  0  0  0  0  0  0  0  0  0  0  0
  144.1310   72.2620  220.4430 C   0  0  0  0  0  0  0  0  0  0  0  0
  143.9110   74.3840  219.2340 C   0  0  0  0  0  0  0  0  0  0  0  0
  143.0090   75.0850  220.1630 C   0  0  2  0  0  0  0  0  0  0  0  0
  141.7670   74.2560  220.1700 N   0  0  0  0  0  0  0  0  0  0  0  0
  140.8450   74.3550  221.2470 C   0  0  0  0  0  0  0  0  0  0  0  0
  141.0900   75.1620  222.2060 O   0  0  0  0  0  0  0  0  0  0  0  0
  139.6100   73.5290  221.2560 C   0  0  0  0  0  0  0  0  0  0  0  0
  139.4150   72.8760  222.5350 N   0  0  0  0  0  0  0  0  0  0  0  0
  140.4660   71.9780  222.9430 C   0  0  0  0  0  0  0  0  0  0  0  0
  141.4580   71.8370  222.1520 O   0  0  0  0  0  0  0  0  0  0  0  0
  140.4100   71.2520  224.2060 C   0  0  0  0  0  0  0  0  0  0  0  0
  140.9140   71.8830  225.3360 C   0  0  0  0  0  0  0  0  0  0  0  0
  140.8970   71.2670  226.5690 C   0  0  0  0  0  0  0  0  0  0  0  0
  140.3620   69.9980  226.6460 C   0  0  0  0  0  0  0  0  0  0  0  0
  140.3560   69.3970  227.9000 C   0  0  0  0  0  0  0  0  0  0  0  0
  139.8130   68.1110  227.9780 C   0  0  0  0  0  0  0  0  0  0  0  0
  139.3080   67.4700  226.8630 C   0  0  0  0  0  0  0  0  0  0  0  0
  139.3300   68.1000  225.6210 C   0  0  0  0  0  0  0  0  0  0  0  0
  139.8610   69.3690  225.5220 C   0  0  0  0  0  0  0  0  0  0  0  0
  139.9000   70.0150  224.3310 N   0  0  0  0  0  0  0  0  0  0  0  0
  142.5670   76.4370  219.8860 C   0  0  0  0  0  0  0  0  0  0  0  0
  142.9160   77.0480  218.8440 O   0  0  0  0  0  0  0  0  0  0  0  0
  141.7080   77.1740  220.7690 N   0  0  0  0  0  0  0  0  0  0  0  0
  141.2580   78.5220  220.5080 C   0  0  0  0  0  0  0  0  0  0  0  0
  141.6060   79.4560  221.6020 C   0  0  0  0  0  0  0  0  0  0  0  0
  142.0160   79.0740  222.8550 C   0  0  0  0  0  0  0  0  0  0  0  0
  142.3050   80.0400  223.7980 C   0  0  0  0  0  0  0  0  0  0  0  0
  142.1840   81.3910  223.4900 C   0  0  0  0  0  0  0  0  0  0  0  0
  141.7730   81.7960  222.2320 C   0  0  0  0  0  0  0  0  0  0  0  0
  141.4890   80.8180  221.3020 C   0  0  0  0  0  0  0  0  0  0  0  0
  145.3220   73.7066  221.8370 H   0  0  0  0  0  0  0  0  0  0  0  0
  146.7748   73.6617  220.7815 H   0  0  0  0  0  0  0  0  0  0  0  0
  145.7090   75.1076  220.7815 H   0  0  0  0  0  0  0  0  0  0  0  0
  145.4738   73.0412  218.8554 H   0  0  0  0  0  0  0  0  0  0  0  0
  144.2244   72.4013  221.5301 H   0  0  0  0  0  0  0  0  0  0  0  0
  143.0685   72.2903  220.1597 H   0  0  0  0  0  0  0  0  0  0  0  0
  144.5602   71.2896  220.1597 H   0  0  0  0  0  0  0  0  0  0  0  0
  144.4948   75.1620  218.7202 H   0  0  0  0  0  0  0  0  0  0  0  0
  143.2149   73.7734  218.6402 H   0  0  0  0  0  0  0  0  0  0  0  0
  143.5998   75.1958  221.0843 H   0  0  0  0  0  0  0  0  0  0  0  0
  141.5720   73.5950  219.3880 H   0  0  0  0  0  0  0  0  0  0  0  0
  138.7454   74.1772  221.0505 H   0  0  0  0  0  0  0  0  0  0  0  0
  139.7100   72.7516  220.4842 H   0  0  0  0  0  0  0  0  0  0  0  0
  138.5810   73.0240  223.1450 H   0  0  0  0  0  0  0  0  0  0  0  0
  141.3353   72.8950  225.2451 H   0  0  0  0  0  0  0  0  0  0  0  0
  141.2967   71.7705  227.4616 H   0  0  0  0  0  0  0  0  0  0  0  0
  140.7586   69.9082  228.7869 H   0  0  0  0  0  0  0  0  0  0  0  0
  139.7872   67.5972  228.9503 H   0  0  0  0  0  0  0  0  0  0  0  0
  138.8869   66.4581  226.9566 H   0  0  0  0  0  0  0  0  0  0  0  0
  138.9293   67.5923  224.7312 H   0  0  0  0  0  0  0  0  0  0  0  0
  141.3670   76.7410  221.6640 H   0  0  0  0  0  0  0  0  0  0  0  0
  141.7268   78.8769  219.5783 H   0  0  0  0  0  0  0  0  0  0  0  0
  140.1615   78.4986  220.4238 H   0  0  0  0  0  0  0  0  0  0  0  0
  142.1135   78.0074  223.1056 H   0  0  0  0  0  0  0  0  0  0  0  0
  142.6343   79.7382  224.8032 H   0  0  0  0  0  0  0  0  0  0  0  0
  142.4176   82.1461  224.2550 H   0  0  0  0  0  0  0  0  0  0  0  0
  141.6760   82.8628  221.9821 H   0  0  0  0  0  0  0  0  0  0  0  0
  141.1611   81.1170  220.2955 H   0  0  0  0  0  0  0  0  0  0  0  0
  1  2  1  0
  2  3  1  0
  2  4  1  0
  4  5  1  0
  5  6  1  0
  6  7  1  0
  7  8  2  0
  7  9  1  0
  9 10  1  0
 10 11  1  0
 11 12  2  0
 11 13  1  0
 13 14  2  0
 14 15  1  0
 15 16  2  0
 16 17  1  0
 17 18  2  0
 18 19  1  0
 19 20  2  0
 20 21  1  0
 21 22  2  0
  5 23  1  0
 23 24  2  0
 23 25  1  0
 25 26  1  0
 26 27  1  0
 27 28  2  0
 28 29  1  0
 29 30  2  0
 30 31  1  0
 31 32  2  0
 22 13  1  0
 32 27  1  0
 21 16  1  0
  1 33  1  0
  1 34  1  0
  1 35  1  0
  2 36  1  0
  3 37  1  0
  3 38  1  0
  3 39  1  0
  4 40  1  0
  4 41  1  0
  5 42  1  1
  6 43  1  0
  9 44  1  0
  9 45  1  0
 10 46  1  0
 14 47  1  0
 15 48  1  0
 17 49  1  0
 18 50  1  0
 19 51  1  0
 20 52  1  0
 25 53  1  0
 26 54  1  0
 26 55  1  0
 28 56  1  0
 29 57  1  0
 30 58  1  0
 31 59  1  0
 32 60  1  0
M  END
>  <smiles>  (41) 
CC(C)C[C@H](NC(=O)CNC(=O)c1ccc2ccccc2n1)C(=O)NCc1ccccc1

>  <score_type>  (41) 
oracle

>  <origin>  (41) 
autodockgpu

>  <m_score__min__energy>  (41) 
-10.23

>  <m_primary>  (41) 
energy

>  <rmsd>  (41) 
3.832157875348343

>  <m_score__min__rmsd>  (41) 
3.832157875348343

>  <meeko>  (41) 
{"free_energy": -9.69, "intermolecular_energy": -12.38, "internal_energy": -2.32, "cluster_size": 19, "cluster_id": 1, "rank_in_cluster": 10}

>  <energy>  (41) 
-7.51

>  <cluster_rmsd>  (41) 
1.79

>  <cluster>  (41) 
3

$$$$

     RDKit          3D

 60 62  0  0  0  0  0  0  0  0999 V2000
  145.3660   72.6020  219.4210 C   0  0  0  0  0  0  0  0  0  0  0  0
  144.8580   73.0490  220.8270 C   0  0  0  0  0  0  0  0  0  0  0  0
  146.1640   73.3770  221.5590 C   0  0  0  0  0  0  0  0  0  0  0  0
  144.0600   74.2830  220.6830 C   0  0  0  0  0  0  0  0  0  0  0  0
  142.6250   74.2340  220.3580 C   0  0  2  0  0  0  0  0  0  0  0  0
  142.5200   74.9320  219.0420 N   0  0  0  0  0  0  0  0  0  0  0  0
  143.1420   76.1950  218.8490 C   0  0  0  0  0  0  0  0  0  0  0  0
  143.7920   76.7240  219.8130 O   0  0  0  0  0  0  0  0  0  0  0  0
  143.0370   76.8910  217.5410 C   0  0  0  0  0  0  0  0  0  0  0  0
  142.9280   78.3270  217.7080 N   0  0  0  0  0  0  0  0  0  0  0  0
  141.8400   78.7760  218.5400 C   0  0  0  0  0  0  0  0  0  0  0  0
  141.0790   77.8830  219.0450 O   0  0  0  0  0  0  0  0  0  0  0  0
  141.6050   80.1910  218.8030 C   0  0  0  0  0  0  0  0  0  0  0  0
  142.1840   81.1120  217.9390 C   0  0  0  0  0  0  0  0  0  0  0  0
  142.0100   82.4680  218.1150 C   0  0  0  0  0  0  0  0  0  0  0  0
  141.2390   82.8830  219.1810 C   0  0  0  0  0  0  0  0  0  0  0  0
  141.0770   84.2550  219.3390 C   0  0  0  0  0  0  0  0  0  0  0  0
  140.2950   84.6760  220.4190 C   0  0  0  0  0  0  0  0  0  0  0  0
  139.7120   83.7730  221.2860 C   0  0  0  0  0  0  0  0  0  0  0  0
  139.8950   82.4040  221.1010 C   0  0  0  0  0  0  0  0  0  0  0  0
  140.6630   81.9670  220.0410 C   0  0  0  0  0  0  0  0  0  0  0  0
  140.8630   80.6440  219.8270 N   0  0  0  0  0  0  0  0  0  0  0  0
  141.6500   74.8780  221.2140 C   0  0  0  0  0  0  0  0  0  0  0  0
  140.8710   74.2160  221.9470 O   0  0  0  0  0  0  0  0  0  0  0  0
  141.4980   76.3030  221.2910 N   0  0  0  0  0  0  0  0  0  0  0  0
  140.5310   76.9620  222.1380 C   0  0  0  0  0  0  0  0  0  0  0  0
  140.9880   78.2940  222.5900 C   0  0  0  0  0  0  0  0  0  0  0  0
  140.3070   79.0970  223.4710 C   0  0  0  0  0  0  0  0  0  0  0  0
  140.8300   80.3280  223.8110 C   0  0  0  0  0  0  0  0  0  0  0  0
  142.0360   80.7610  223.2710 C   0  0  0  0  0  0  0  0  0  0  0  0
  142.7390   79.9660  222.3810 C   0  0  0  0  0  0  0  0  0  0  0  0
  142.2010   78.7390  222.0520 C   0  0  0  0  0  0  0  0  0  0  0  0
  146.1869   71.8796  219.5404 H   0  0  0  0  0  0  0  0  0  0  0  0
  144.5413   72.1314  218.8657 H   0  0  0  0  0  0  0  0  0  0  0  0
  145.7279   73.4799  218.8657 H   0  0  0  0  0  0  0  0  0  0  0  0
  144.2335   72.3011  221.3375 H   0  0  0  0  0  0  0  0  0  0  0  0
  145.9960   73.3348  222.6453 H   0  0  0  0  0  0  0  0  0  0  0  0
  146.9354   72.6447  221.2785 H   0  0  0  0  0  0  0  0  0  0  0  0
  146.4979   74.3869  221.2785 H   0  0  0  0  0  0  0  0  0  0  0  0
  144.1442   74.8211  221.6387 H   0  0  0  0  0  0  0  0  0  0  0  0
  144.4925   74.7421  219.7818 H   0  0  0  0  0  0  0  0  0  0  0  0
  142.3642   73.1682  220.4364 H   0  0  0  0  0  0  0  0  0  0  0  0
  141.9860   74.4990  218.2580 H   0  0  0  0  0  0  0  0  0  0  0  0
  143.9342   76.6680  216.9449 H   0  0  0  0  0  0  0  0  0  0  0  0
  142.1291   76.5337  217.0330 H   0  0  0  0  0  0  0  0  0  0  0  0
  143.5760   79.0170  217.2700 H   0  0  0  0  0  0  0  0  0  0  0  0
  142.7937   80.7518  217.0973 H   0  0  0  0  0  0  0  0  0  0  0  0
  142.4702   83.1943  217.4289 H   0  0  0  0  0  0  0  0  0  0  0  0
  141.5414   84.9740  218.6481 H   0  0  0  0  0  0  0  0  0  0  0  0
  140.1404   85.7528  220.5820 H   0  0  0  0  0  0  0  0  0  0  0  0
  139.1009   84.1357  222.1257 H   0  0  0  0  0  0  0  0  0  0  0  0
  139.4336   81.6816  221.7904 H   0  0  0  0  0  0  0  0  0  0  0  0
  142.1070   76.9350  220.7120 H   0  0  0  0  0  0  0  0  0  0  0  0
  139.5936   77.0830  221.5752 H   0  0  0  0  0  0  0  0  0  0  0  0
  140.3886   76.3367  223.0317 H   0  0  0  0  0  0  0  0  0  0  0  0
  139.3522   78.7619  223.9024 H   0  0  0  0  0  0  0  0  0  0  0  0
  140.2870   80.9737  224.5169 H   0  0  0  0  0  0  0  0  0  0  0  0
  142.4361   81.7458  223.5538 H   0  0  0  0  0  0  0  0  0  0  0  0
  143.6942   80.3017  221.9509 H   0  0  0  0  0  0  0  0  0  0  0  0
  142.7414   78.0913  221.3460 H   0  0  0  0  0  0  0  0  0  0  0  0
  1  2  1  0
  2  3  1  0
  2  4  1  0
  4  5  1  0
  5  6  1  0
  6  7  1  0
  7  8  2  0
  7  9  1  0
  9 10  1  0
 10 11  1  0
 11 12  2  0
 11 13  1  0
 13 14  2  0
 14 15  1  0
 15 16  2  0
 16 17  1  0
 17 18  2  0
 18 19  1  0
 19 20  2  0
 20 21  1  0
 21 22  2  0
  5 23  1  0
 23 24  2  0
 23 25  1  0
 25 26  1  0
 26 27  1  0
 27 28  2  0
 28 29  1  0
 29 30  2  0
 30 31  1  0
 31 32  2  0
 22 13  1  0
 32 27  1  0
 21 16  1  0
  1 33  1  0
  1 34  1  0
  1 35  1  0
  2 36  1  0
  3 37  1  0
  3 38  1  0
  3 39  1  0
  4 40  1  0
  4 41  1  0
  5 42  1  6
  6 43  1  0
  9 44  1  0
  9 45  1  0
 10 46  1  0
 14 47  1  0
 15 48  1  0
 17 49  1  0
 18 50  1  0
 19 51  1  0
 20 52  1  0
 25 53  1  0
 26 54  1  0
 26 55  1  0
 28 56  1  0
 29 57  1  0
 30 58  1  0
 31 59  1  0
 32 60  1  0
M  END
>  <smiles>  (42) 
CC(C)C[C@H](NC(=O)CNC(=O)c1ccc2ccccc2n1)C(=O)NCc1ccccc1

>  <score_type>  (42) 
oracle

>  <origin>  (42) 
autodockgpu

>  <m_score__min__energy>  (42) 
-10.23

>  <m_primary>  (42) 
energy

>  <rmsd>  (42) 
9.128337044035263

>  <m_score__min__rmsd>  (42) 
9.128337044035263

>  <meeko>  (42) 
{"free_energy": -7.6, "intermolecular_energy": -10.29, "internal_energy": -3.92, "cluster_size": 1, "cluster_id": 6, "rank_in_cluster": 1}

>  <energy>  (42) 
-7.84

>  <cluster_rmsd>  (42) 
0.0

>  <cluster>  (42) 
4

$$$$

     RDKit          3D

 60 62  0  0  0  0  0  0  0  0999 V2000
  143.6560   76.4500  219.3470 C   0  0  0  0  0  0  0  0  0  0  0  0
  142.9600   75.0550  219.2720 C   0  0  0  0  0  0  0  0  0  0  0  0
  143.8250   74.2060  220.2100 C   0  0  0  0  0  0  0  0  0  0  0  0
  141.5990   75.1630  219.8350 C   0  0  0  0  0  0  0  0  0  0  0  0
  141.3790   75.2880  221.2850 C   0  0  2  0  0  0  0  0  0  0  0  0
  140.4010   74.2060  221.6060 N   0  0  0  0  0  0  0  0  0  0  0  0
  139.1270   74.1820  220.9770 C   0  0  0  0  0  0  0  0  0  0  0  0
  138.8290   75.0940  220.1340 O   0  0  0  0  0  0  0  0  0  0  0  0
  138.1530   73.1060  221.2960 C   0  0  0  0  0  0  0  0  0  0  0  0
  138.3690   72.5690  222.6250 N   0  0  0  0  0  0  0  0  0  0  0  0
  139.5010   71.6880  222.7660 C   0  0  0  0  0  0  0  0  0  0  0  0
  140.2000   71.4610  221.7220 O   0  0  0  0  0  0  0  0  0  0  0  0
  139.8440   71.0740  224.0430 C   0  0  0  0  0  0  0  0  0  0  0  0
  140.6630   71.7920  224.9040 C   0  0  0  0  0  0  0  0  0  0  0  0
  141.0340   71.2850  226.1310 C   0  0  0  0  0  0  0  0  0  0  0  0
  140.5630   70.0360  226.4780 C   0  0  0  0  0  0  0  0  0  0  0  0
  140.9500   69.5450  227.7200 C   0  0  0  0  0  0  0  0  0  0  0  0
  140.4720   68.2790  228.0720 C   0  0  0  0  0  0  0  0  0  0  0  0
  139.6560   67.5520  227.2260 C   0  0  0  0  0  0  0  0  0  0  0  0
  139.2880   68.0730  225.9880 C   0  0  0  0  0  0  0  0  0  0  0  0
  139.7480   69.3200  225.6210 C   0  0  0  0  0  0  0  0  0  0  0  0
  139.4110   69.8610  224.4250 N   0  0  0  0  0  0  0  0  0  0  0  0
  140.8110   76.4980  221.8450 C   0  0  0  0  0  0  0  0  0  0  0  0
  141.0820   76.8790  223.0120 O   0  0  0  0  0  0  0  0  0  0  0  0
  139.9060   77.3450  221.1200 N   0  0  0  0  0  0  0  0  0  0  0  0
  139.3300   78.5530  221.6630 C   0  0  0  0  0  0  0  0  0  0  0  0
  140.3490   79.4550  222.2440 C   0  0  0  0  0  0  0  0  0  0  0  0
  140.1960   80.1580  223.4130 C   0  0  0  0  0  0  0  0  0  0  0  0
  141.2160   80.9780  223.8500 C   0  0  0  0  0  0  0  0  0  0  0  0
  142.3930   81.0980  223.1200 C   0  0  0  0  0  0  0  0  0  0  0  0
  142.5680   80.3960  221.9390 C   0  0  0  0  0  0  0  0  0  0  0  0
  141.5380   79.5810  221.5170 C   0  0  0  0  0  0  0  0  0  0  0  0
  143.7973   76.7331  220.4005 H   0  0  0  0  0  0  0  0  0  0  0  0
  144.6343   76.3990  218.8467 H   0  0  0  0  0  0  0  0  0  0  0  0
  143.0270   77.2010  218.8467 H   0  0  0  0  0  0  0  0  0  0  0  0
  142.8731   74.6508  218.2527 H   0  0  0  0  0  0  0  0  0  0  0  0
  143.5789   74.4475  221.2546 H   0  0  0  0  0  0  0  0  0  0  0  0
  143.6293   73.1396  220.0243 H   0  0  0  0  0  0  0  0  0  0  0  0
  144.8876   74.4216  220.0243 H   0  0  0  0  0  0  0  0  0  0  0  0
  141.1405   76.0497  219.3730 H   0  0  0  0  0  0  0  0  0  0  0  0
  141.1698   74.1749  219.6129 H   0  0  0  0  0  0  0  0  0  0  0  0
  142.3900   75.2593  221.7174 H   0  0  0  0  0  0  0  0  0  0  0  0
  140.6460   73.4650  222.2970 H   0  0  0  0  0  0  0  0  0  0  0  0
  137.1345   73.5175  221.2382 H   0  0  0  0  0  0  0  0  0  0  0  0
  138.2889   72.2917  220.5691 H   0  0  0  0  0  0  0  0  0  0  0  0
  137.7630   72.7860  223.4480 H   0  0  0  0  0  0  0  0  0  0  0  0
  141.0233   72.7861  224.6008 H   0  0  0  0  0  0  0  0  0  0  0  0
  141.6834   71.8570  226.8101 H   0  0  0  0  0  0  0  0  0  0  0  0
  141.6001   70.1239  228.3924 H   0  0  0  0  0  0  0  0  0  0  0  0
  140.7522   67.8513  229.0459 H   0  0  0  0  0  0  0  0  0  0  0  0
  139.2960   66.5585  227.5315 H   0  0  0  0  0  0  0  0  0  0  0  0
  138.6389   67.4973  225.3118 H   0  0  0  0  0  0  0  0  0  0  0  0
  139.6230   77.1030  220.1370 H   0  0  0  0  0  0  0  0  0  0  0  0
  138.8048   79.0866  220.8571 H   0  0  0  0  0  0  0  0  0  0  0  0
  138.6420   78.2617  222.4704 H   0  0  0  0  0  0  0  0  0  0  0  0
  139.2679   80.0684  223.9966 H   0  0  0  0  0  0  0  0  0  0  0  0
  141.0966   81.5429  224.7863 H   0  0  0  0  0  0  0  0  0  0  0  0
  143.1942   81.7578  223.4844 H   0  0  0  0  0  0  0  0  0  0  0  0
  143.4971   80.4853  221.3570 H   0  0  0  0  0  0  0  0  0  0  0  0
  141.6548   79.0137  220.5818 H   0  0  0  0  0  0  0  0  0  0  0  0
  1  2  1  0
  2  3  1  0
  2  4  1  0
  4  5  1  0
  5  6  1  0
  6  7  1  0
  7  8  2  0
  7  9  1  0
  9 10  1  0
 10 11  1  0
 11 12  2  0
 11 13  1  0
 13 14  2  0
 14 15  1  0
 15 16  2  0
 16 17  1  0
 17 18  2  0
 18 19  1  0
 19 20  2  0
 20 21  1  0
 21 22  2  0
  5 23  1  0
 23 24  2  0
 23 25  1  0
 25 26  1  0
 26 27  1  0
 27 28  2  0
 28 29  1  0
 29 30  2  0
 30 31  1  0
 31 32  2  0
 22 13  1  0
 32 27  1  0
 21 16  1  0
  1 33  1  0
  1 34  1  0
  1 35  1  0
  2 36  1  0
  3 37  1  0
  3 38  1  0
  3 39  1  0
  4 40  1  0
  4 41  1  0
  5 42  1  1
  6 43  1  0
  9 44  1  0
  9 45  1  0
 10 46  1  0
 14 47  1  0
 15 48  1  0
 17 49  1  0
 18 50  1  0
 19 51  1  0
 20 52  1  0
 25 53  1  0
 26 54  1  0
 26 55  1  0
 28 56  1  0
 29 57  1  0
 30 58  1  0
 31 59  1  0
 32 60  1  0
M  END
>  <smiles>  (43) 
CC(C)C[C@H](NC(=O)CNC(=O)c1ccc2ccccc2n1)C(=O)NCc1ccccc1

>  <score_type>  (43) 
oracle

>  <origin>  (43) 
autodockgpu

>  <m_score__min__energy>  (43) 
-10.23

>  <m_primary>  (43) 
energy

>  <rmsd>  (43) 
3.1643840844070343

>  <m_score__min__rmsd>  (43) 
3.1643840844070343

>  <meeko>  (43) 
{"free_energy": -8.11, "intermolecular_energy": -10.79, "internal_energy": -2.98, "cluster_size": 19, "cluster_id": 1, "rank_in_cluster": 18}

>  <energy>  (43) 
-7.79

>  <cluster_rmsd>  (43) 
0.45

>  <cluster>  (43) 
4

$$$$

     RDKit          3D

 60 62  0  0  0  0  0  0  0  0999 V2000
  145.5570   72.6540  218.7160 C   0  0  0  0  0  0  0  0  0  0  0  0
  144.6200   73.2440  219.8150 C   0  0  0  0  0  0  0  0  0  0  0  0
  145.6200   73.7490  220.8620 C   0  0  0  0  0  0  0  0  0  0  0  0
  143.8840   74.3960  219.2560 C   0  0  0  0  0  0  0  0  0  0  0  0
  142.9890   75.2110  220.0930 C   0  0  2  0  0  0  0  0  0  0  0  0
  141.6860   74.4820  220.0600 N   0  0  0  0  0  0  0  0  0  0  0  0
  140.7710   74.6000  221.1410 C   0  0  0  0  0  0  0  0  0  0  0  0
  141.0750   75.3390  222.1390 O   0  0  0  0  0  0  0  0  0  0  0  0
  139.4750   73.8750  221.1110 C   0  0  0  0  0  0  0  0  0  0  0  0
  139.2510   73.1320  222.3350 N   0  0  0  0  0  0  0  0  0  0  0  0
  140.1660   72.0450  222.5810 C   0  0  0  0  0  0  0  0  0  0  0  0
  141.0760   71.8350  221.7090 O   0  0  0  0  0  0  0  0  0  0  0  0
  140.0670   71.2100  223.7720 C   0  0  0  0  0  0  0  0  0  0  0  0
  139.3920   70.0020  223.6590 C   0  0  0  0  0  0  0  0  0  0  0  0
  139.2550   69.1530  224.7360 C   0  0  0  0  0  0  0  0  0  0  0  0
  139.8130   69.5430  225.9360 C   0  0  0  0  0  0  0  0  0  0  0  0
  139.6620   68.6710  227.0080 C   0  0  0  0  0  0  0  0  0  0  0  0
  140.2290   69.0660  228.2240 C   0  0  0  0  0  0  0  0  0  0  0  0
  140.9040   70.2650  228.3520 C   0  0  0  0  0  0  0  0  0  0  0  0
  141.0360   71.1170  227.2580 C   0  0  0  0  0  0  0  0  0  0  0  0
  140.4850   70.7460  226.0490 C   0  0  0  0  0  0  0  0  0  0  0  0
  140.5930   71.5470  224.9610 N   0  0  0  0  0  0  0  0  0  0  0  0
  142.6750   76.5780  219.7270 C   0  0  0  0  0  0  0  0  0  0  0  0
  142.8800   77.0170  218.5670 O   0  0  0  0  0  0  0  0  0  0  0  0
  142.1110   77.5230  220.6480 N   0  0  0  0  0  0  0  0  0  0  0  0
  141.7920   78.8880  220.3010 C   0  0  0  0  0  0  0  0  0  0  0  0
  141.8630   79.8000  221.4630 C   0  0  0  0  0  0  0  0  0  0  0  0
  141.5230   81.1310  221.4360 C   0  0  0  0  0  0  0  0  0  0  0  0
  141.6410   81.8850  222.5850 C   0  0  0  0  0  0  0  0  0  0  0  0
  142.0970   81.3120  223.7670 C   0  0  0  0  0  0  0  0  0  0  0  0
  142.4440   79.9720  223.8160 C   0  0  0  0  0  0  0  0  0  0  0  0
  142.3210   79.2330  222.6580 C   0  0  0  0  0  0  0  0  0  0  0  0
  146.3955   72.1261  219.1938 H   0  0  0  0  0  0  0  0  0  0  0  0
  144.9896   71.9499  218.0897 H   0  0  0  0  0  0  0  0  0  0  0  0
  145.9467   73.4700  218.0897 H   0  0  0  0  0  0  0  0  0  0  0  0
  143.8818   72.5286  220.2065 H   0  0  0  0  0  0  0  0  0  0  0  0
  145.2270   73.5505  221.8701 H   0  0  0  0  0  0  0  0  0  0  0  0
  146.5800   73.2276  220.7335 H   0  0  0  0  0  0  0  0  0  0  0  0
  145.7703   74.8311  220.7335 H   0  0  0  0  0  0  0  0  0  0  0  0
  144.6419   75.0826  218.8507 H   0  0  0  0  0  0  0  0  0  0  0  0
  143.1842   73.9152  218.5566 H   0  0  0  0  0  0  0  0  0  0  0  0
  143.5311   75.3225  221.0436 H   0  0  0  0  0  0  0  0  0  0  0  0
  141.4420   73.8780  219.2470 H   0  0  0  0  0  0  0  0  0  0  0  0
  138.6612   74.6037  220.9817 H   0  0  0  0  0  0  0  0  0  0  0  0
  139.4994   73.1610  220.2746 H   0  0  0  0  0  0  0  0  0  0  0  0
  138.4890   73.3430  223.0150 H   0  0  0  0  0  0  0  0  0  0  0  0
  138.9575   69.7166  222.6896 H   0  0  0  0  0  0  0  0  0  0  0  0
  138.7190   68.1970  224.6420 H   0  0  0  0  0  0  0  0  0  0  0  0
  139.1232   67.7175  226.9050 H   0  0  0  0  0  0  0  0  0  0  0  0
  140.1354   68.4065  229.0994 H   0  0  0  0  0  0  0  0  0  0  0  0
  141.3389   70.5478  229.3220 H   0  0  0  0  0  0  0  0  0  0  0  0
  141.5722   72.0724  227.3567 H   0  0  0  0  0  0  0  0  0  0  0  0
  141.9060   77.2420  221.6410 H   0  0  0  0  0  0  0  0  0  0  0  0
  142.5046   79.2335  219.5376 H   0  0  0  0  0  0  0  0  0  0  0  0
  140.7579   78.9043  219.9265 H   0  0  0  0  0  0  0  0  0  0  0  0
  141.1596   81.5916  220.5055 H   0  0  0  0  0  0  0  0  0  0  0  0
  141.3714   82.9513  222.5660 H   0  0  0  0  0  0  0  0  0  0  0  0
  142.1831   81.9297  224.6731 H   0  0  0  0  0  0  0  0  0  0  0  0
  142.8057   79.5124  224.7476 H   0  0  0  0  0  0  0  0  0  0  0  0
  142.5907   78.1667  222.6740 H   0  0  0  0  0  0  0  0  0  0  0  0
  1  2  1  0
  2  3  1  0
  2  4  1  0
  4  5  1  0
  5  6  1  0
  6  7  1  0
  7  8  2  0
  7  9  1  0
  9 10  1  0
 10 11  1  0
 11 12  2  0
 11 13  1  0
 13 14  2  0
 14 15  1  0
 15 16  2  0
 16 17  1  0
 17 18  2  0
 18 19  1  0
 19 20  2  0
 20 21  1  0
 21 22  2  0
  5 23  1  0
 23 24  2  0
 23 25  1  0
 25 26  1  0
 26 27  1  0
 27 28  2  0
 28 29  1  0
 29 30  2  0
 30 31  1  0
 31 32  2  0
 22 13  1  0
 32 27  1  0
 21 16  1  0
  1 33  1  0
  1 34  1  0
  1 35  1  0
  2 36  1  0
  3 37  1  0
  3 38  1  0
  3 39  1  0
  4 40  1  0
  4 41  1  0
  5 42  1  1
  6 43  1  0
  9 44  1  0
  9 45  1  0
 10 46  1  0
 14 47  1  0
 15 48  1  0
 17 49  1  0
 18 50  1  0
 19 51  1  0
 20 52  1  0
 25 53  1  0
 26 54  1  0
 26 55  1  0
 28 56  1  0
 29 57  1  0
 30 58  1  0
 31 59  1  0
 32 60  1  0
M  END
>  <smiles>  (44) 
CC(C)C[C@H](NC(=O)CNC(=O)c1ccc2ccccc2n1)C(=O)NCc1ccccc1

>  <score_type>  (44) 
oracle

>  <origin>  (44) 
autodockgpu

>  <m_score__min__energy>  (44) 
-10.23

>  <m_primary>  (44) 
energy

>  <rmsd>  (44) 
3.3397592669206

>  <m_score__min__rmsd>  (44) 
3.3397592669206

>  <meeko>  (44) 
{"free_energy": -10.1, "intermolecular_energy": -12.79, "internal_energy": -2.3, "cluster_size": 19, "cluster_id": 1, "rank_in_cluster": 4}

>  <energy>  (44) 
-7.7

>  <cluster_rmsd>  (44) 
0.64

>  <cluster>  (44) 
4

$$$$

     RDKit          3D

 60 62  0  0  0  0  0  0  0  0999 V2000
  139.3110   79.3080  223.4710 C   0  0  0  0  0  0  0  0  0  0  0  0
  140.3530   78.6700  222.5010 C   0  0  0  0  0  0  0  0  0  0  0  0
  141.5670   78.4620  223.4140 C   0  0  0  0  0  0  0  0  0  0  0  0
  139.8550   77.3530  222.0540 C   0  0  0  0  0  0  0  0  0  0  0  0
  139.7750   77.0110  220.6240 C   0  0  2  0  0  0  0  0  0  0  0  0
  139.0160   75.7260  220.5940 N   0  0  0  0  0  0  0  0  0  0  0  0
  139.4990   74.5900  221.2990 C   0  0  0  0  0  0  0  0  0  0  0  0
  140.5880   74.6840  221.9600 O   0  0  0  0  0  0  0  0  0  0  0  0
  138.7450   73.3110  221.2680 C   0  0  0  0  0  0  0  0  0  0  0  0
  138.7870   72.6360  222.5500 N   0  0  0  0  0  0  0  0  0  0  0  0
  140.0060   71.9250  222.8410 C   0  0  0  0  0  0  0  0  0  0  0  0
  140.9260   71.9500  221.9550 O   0  0  0  0  0  0  0  0  0  0  0  0
  140.1960   71.2020  224.0930 C   0  0  0  0  0  0  0  0  0  0  0  0
  140.8650   71.8540  225.1190 C   0  0  0  0  0  0  0  0  0  0  0  0
  141.0840   71.2420  226.3350 C   0  0  0  0  0  0  0  0  0  0  0  0
  140.6140   69.9560  226.5010 C   0  0  0  0  0  0  0  0  0  0  0  0
  140.8470   69.3590  227.7350 C   0  0  0  0  0  0  0  0  0  0  0  0
  140.3700   68.0560  227.9030 C   0  0  0  0  0  0  0  0  0  0  0  0
  139.7010   67.3940  226.8910 C   0  0  0  0  0  0  0  0  0  0  0  0
  139.4860   68.0200  225.6650 C   0  0  0  0  0  0  0  0  0  0  0  0
  139.9480   69.3060  225.4790 C   0  0  0  0  0  0  0  0  0  0  0  0
  139.7570   69.9490  224.3010 N   0  0  0  0  0  0  0  0  0  0  0  0
  140.9780   76.7660  219.8540 C   0  0  0  0  0  0  0  0  0  0  0  0
  141.0320   76.9960  218.6190 O   0  0  0  0  0  0  0  0  0  0  0  0
  142.1850   76.2500  220.4340 N   0  0  0  0  0  0  0  0  0  0  0  0
  143.3920   75.9990  219.6810 C   0  0  0  0  0  0  0  0  0  0  0  0
  143.9050   74.6250  219.8750 C   0  0  0  0  0  0  0  0  0  0  0  0
  143.2390   73.4820  219.5080 C   0  0  0  0  0  0  0  0  0  0  0  0
  143.8170   72.2530  219.7510 C   0  0  0  0  0  0  0  0  0  0  0  0
  145.0630   72.1620  220.3600 C   0  0  0  0  0  0  0  0  0  0  0  0
  145.7520   73.3030  220.7370 C   0  0  0  0  0  0  0  0  0  0  0  0
  145.1590   74.5230  220.4870 C   0  0  0  0  0  0  0  0  0  0  0  0
  139.6160   79.1212  224.5112 H   0  0  0  0  0  0  0  0  0  0  0  0
  139.2601   80.3923  223.2929 H   0  0  0  0  0  0  0  0  0  0  0  0
  138.3221   78.8603  223.2929 H   0  0  0  0  0  0  0  0  0  0  0  0
  140.5616   79.2748  221.6062 H   0  0  0  0  0  0  0  0  0  0  0  0
  141.2486   78.5165  224.4655 H   0  0  0  0  0  0  0  0  0  0  0  0
  142.0100   77.4749  223.2158 H   0  0  0  0  0  0  0  0  0  0  0  0
  142.3134   79.2454  223.2158 H   0  0  0  0  0  0  0  0  0  0  0  0
  140.5079   76.5992  222.5184 H   0  0  0  0  0  0  0  0  0  0  0  0
  138.7965   77.3844  222.3516 H   0  0  0  0  0  0  0  0  0  0  0  0
  139.3515   77.9094  220.1513 H   0  0  0  0  0  0  0  0  0  0  0  0
  138.1290   75.6520  220.0500 H   0  0  0  0  0  0  0  0  0  0  0  0
  137.6967   73.5207  221.0091 H   0  0  0  0  0  0  0  0  0  0  0  0
  139.2110   72.6548  220.5181 H   0  0  0  0  0  0  0  0  0  0  0  0
  138.0040   72.6450  223.2400 H   0  0  0  0  0  0  0  0  0  0  0  0
  141.2280   72.8800  224.9590 H   0  0  0  0  0  0  0  0  0  0  0  0
  141.6157   71.7620  227.1455 H   0  0  0  0  0  0  0  0  0  0  0  0
  141.3806   69.8863  228.5395 H   0  0  0  0  0  0  0  0  0  0  0  0
  140.5309   67.5452  228.8638 H   0  0  0  0  0  0  0  0  0  0  0  0
  139.3369   66.3689  227.0541 H   0  0  0  0  0  0  0  0  0  0  0  0
  138.9551   67.4958  224.8567 H   0  0  0  0  0  0  0  0  0  0  0  0
  142.2300   76.0290  221.4610 H   0  0  0  0  0  0  0  0  0  0  0  0
  143.1786   76.1483  218.6123 H   0  0  0  0  0  0  0  0  0  0  0  0
  144.1619   76.6973  220.0409 H   0  0  0  0  0  0  0  0  0  0  0  0
  142.2531   73.5455  219.0244 H   0  0  0  0  0  0  0  0  0  0  0  0
  143.2858   71.3349  219.4595 H   0  0  0  0  0  0  0  0  0  0  0  0
  145.5070   71.1727  220.5447 H   0  0  0  0  0  0  0  0  0  0  0  0
  146.7385   73.2384  221.2193 H   0  0  0  0  0  0  0  0  0  0  0  0
  145.6876   75.4429  220.7774 H   0  0  0  0  0  0  0  0  0  0  0  0
  1  2  1  0
  2  3  1  0
  2  4  1  0
  4  5  1  0
  5  6  1  0
  6  7  1  0
  7  8  2  0
  7  9  1  0
  9 10  1  0
 10 11  1  0
 11 12  2  0
 11 13  1  0
 13 14  2  0
 14 15  1  0
 15 16  2  0
 16 17  1  0
 17 18  2  0
 18 19  1  0
 19 20  2  0
 20 21  1  0
 21 22  2  0
  5 23  1  0
 23 24  2  0
 23 25  1  0
 25 26  1  0
 26 27  1  0
 27 28  2  0
 28 29  1  0
 29 30  2  0
 30 31  1  0
 31 32  2  0
 22 13  1  0
 32 27  1  0
 21 16  1  0
  1 33  1  0
  1 34  1  0
  1 35  1  0
  2 36  1  0
  3 37  1  0
  3 38  1  0
  3 39  1  0
  4 40  1  0
  4 41  1  0
  5 42  1  6
  6 43  1  0
  9 44  1  0
  9 45  1  0
 10 46  1  0
 14 47  1  0
 15 48  1  0
 17 49  1  0
 18 50  1  0
 19 51  1  0
 20 52  1  0
 25 53  1  0
 26 54  1  0
 26 55  1  0
 28 56  1  0
 29 57  1  0
 30 58  1  0
 31 59  1  0
 32 60  1  0
M  END
>  <smiles>  (45) 
CC(C)C[C@H](NC(=O)CNC(=O)c1ccc2ccccc2n1)C(=O)NCc1ccccc1

>  <score_type>  (45) 
oracle

>  <origin>  (45) 
autodockgpu

>  <m_score__min__energy>  (45) 
-10.23

>  <m_primary>  (45) 
energy

>  <rmsd>  (45) 
5.572966731366374

>  <m_score__min__rmsd>  (45) 
5.572966731366374

>  <meeko>  (45) 
{"free_energy": -9.29, "intermolecular_energy": -11.98, "internal_energy": -2.61, "cluster_size": 17, "cluster_id": 2, "rank_in_cluster": 11}

>  <energy>  (45) 
-7.54

>  <cluster_rmsd>  (45) 
0.75

>  <cluster>  (45) 
4

$$$$

     RDKit          3D

 60 62  0  0  0  0  0  0  0  0999 V2000
  141.7710   79.7170  221.6770 C   0  0  0  0  0  0  0  0  0  0  0  0
  141.3450   78.4800  222.5270 C   0  0  0  0  0  0  0  0  0  0  0  0
  140.9000   79.1240  223.8460 C   0  0  0  0  0  0  0  0  0  0  0  0
  140.1820   77.8310  221.8900 C   0  0  0  0  0  0  0  0  0  0  0  0
  140.1920   77.4760  220.4610 C   0  0  2  0  0  0  0  0  0  0  0  0
  139.3290   76.2600  220.3770 N   0  0  0  0  0  0  0  0  0  0  0  0
  139.6220   75.1160  221.1680 C   0  0  0  0  0  0  0  0  0  0  0  0
  140.6290   75.1420  221.9530 O   0  0  0  0  0  0  0  0  0  0  0  0
  138.7650   73.9060  221.0840 C   0  0  0  0  0  0  0  0  0  0  0  0
  138.7390   73.1820  222.3390 N   0  0  0  0  0  0  0  0  0  0  0  0
  139.7970   72.2210  222.5260 C   0  0  0  0  0  0  0  0  0  0  0  0
  140.6470   72.0930  221.5820 O   0  0  0  0  0  0  0  0  0  0  0  0
  139.9030   71.4200  223.7400 C   0  0  0  0  0  0  0  0  0  0  0  0
  139.4700   70.1020  223.6830 C   0  0  0  0  0  0  0  0  0  0  0  0
  139.5380   69.2770  224.7850 C   0  0  0  0  0  0  0  0  0  0  0  0
  140.0520   69.8040  225.9520 C   0  0  0  0  0  0  0  0  0  0  0  0
  140.1110   68.9530  227.0500 C   0  0  0  0  0  0  0  0  0  0  0  0
  140.6330   69.4870  228.2320 C   0  0  0  0  0  0  0  0  0  0  0  0
  141.0690   70.7960  228.3040 C   0  0  0  0  0  0  0  0  0  0  0  0
  140.9950   71.6230  227.1850 C   0  0  0  0  0  0  0  0  0  0  0  0
  140.4840   71.1160  226.0090 C   0  0  0  0  0  0  0  0  0  0  0  0
  140.3960   71.8890  224.8990 N   0  0  0  0  0  0  0  0  0  0  0  0
  141.4290   77.1160  219.7980 C   0  0  0  0  0  0  0  0  0  0  0  0
  141.6840   77.4880  218.6240 O   0  0  0  0  0  0  0  0  0  0  0  0
  142.4470   76.3180  220.4210 N   0  0  0  0  0  0  0  0  0  0  0  0
  143.6840   75.9500  219.7740 C   0  0  0  0  0  0  0  0  0  0  0  0
  144.0160   74.5190  219.9570 C   0  0  0  0  0  0  0  0  0  0  0  0
  143.1720   73.4770  219.6640 C   0  0  0  0  0  0  0  0  0  0  0  0
  143.5900   72.1810  219.8870 C   0  0  0  0  0  0  0  0  0  0  0  0
  144.8540   71.9230  220.4050 C   0  0  0  0  0  0  0  0  0  0  0  0
  145.7210   72.9600  220.7080 C   0  0  0  0  0  0  0  0  0  0  0  0
  145.2860   74.2490  220.4780 C   0  0  0  0  0  0  0  0  0  0  0  0
  142.0551   80.5419  222.3469 H   0  0  0  0  0  0  0  0  0  0  0  0
  142.6283   79.4482  221.0424 H   0  0  0  0  0  0  0  0  0  0  0  0
  140.9299   80.0331  221.0424 H   0  0  0  0  0  0  0  0  0  0  0  0
  142.1340   77.7221  222.6410 H   0  0  0  0  0  0  0  0  0  0  0  0
  141.3006   78.5442  224.6906 H   0  0  0  0  0  0  0  0  0  0  0  0
  141.2790   80.1554  223.8967 H   0  0  0  0  0  0  0  0  0  0  0  0
  139.8012   79.1342  223.8967 H   0  0  0  0  0  0  0  0  0  0  0  0
  140.0064   76.8958  222.4419 H   0  0  0  0  0  0  0  0  0  0  0  0
  139.4150   78.6182  221.9350 H   0  0  0  0  0  0  0  0  0  0  0  0
  139.8892   78.4003  219.9472 H   0  0  0  0  0  0  0  0  0  0  0  0
  138.5100   76.2400  219.7320 H   0  0  0  0  0  0  0  0  0  0  0  0
  137.7401   74.2117  220.8271 H   0  0  0  0  0  0  0  0  0  0  0  0
  139.1822   73.2420  220.3126 H   0  0  0  0  0  0  0  0  0  0  0  0
  138.0180   73.3240  223.0800 H   0  0  0  0  0  0  0  0  0  0  0  0
  139.0645   69.7083  222.7393 H   0  0  0  0  0  0  0  0  0  0  0  0
  139.1940   68.2333  224.7358 H   0  0  0  0  0  0  0  0  0  0  0  0
  139.7640   67.9108  226.9916 H   0  0  0  0  0  0  0  0  0  0  0  0
  140.6981   68.8496  229.1261 H   0  0  0  0  0  0  0  0  0  0  0  0
  141.4761   71.1868  229.2482 H   0  0  0  0  0  0  0  0  0  0  0  0
  141.3396   72.6662  227.2391 H   0  0  0  0  0  0  0  0  0  0  0  0
  142.3180   75.9620  221.4020 H   0  0  0  0  0  0  0  0  0  0  0  0
  143.5938   76.1562  218.6973 H   0  0  0  0  0  0  0  0  0  0  0  0
  144.4900   76.5413  220.2331 H   0  0  0  0  0  0  0  0  0  0  0  0
  142.1701   73.6735  219.2546 H   0  0  0  0  0  0  0  0  0  0  0  0
  142.9163   71.3436  219.6525 H   0  0  0  0  0  0  0  0  0  0  0  0
  145.1694   70.8832  220.5763 H   0  0  0  0  0  0  0  0  0  0  0  0
  146.7224   72.7625  221.1181 H   0  0  0  0  0  0  0  0  0  0  0  0
  145.9572   75.0887  220.7110 H   0  0  0  0  0  0  0  0  0  0  0  0
  1  2  1  0
  2  3  1  0
  2  4  1  0
  4  5  1  0
  5  6  1  0
  6  7  1  0
  7  8  2  0
  7  9  1  0
  9 10  1  0
 10 11  1  0
 11 12  2  0
 11 13  1  0
 13 14  2  0
 14 15  1  0
 15 16  2  0
 16 17  1  0
 17 18  2  0
 18 19  1  0
 19 20  2  0
 20 21  1  0
 21 22  2  0
  5 23  1  0
 23 24  2  0
 23 25  1  0
 25 26  1  0
 26 27  1  0
 27 28  2  0
 28 29  1  0
 29 30  2  0
 30 31  1  0
 31 32  2  0
 22 13  1  0
 32 27  1  0
 21 16  1  0
  1 33  1  0
  1 34  1  0
  1 35  1  0
  2 36  1  0
  3 37  1  0
  3 38  1  0
  3 39  1  0
  4 40  1  0
  4 41  1  0
  5 42  1  6
  6 43  1  0
  9 44  1  0
  9 45  1  0
 10 46  1  0
 14 47  1  0
 15 48  1  0
 17 49  1  0
 18 50  1  0
 19 51  1  0
 20 52  1  0
 25 53  1  0
 26 54  1  0
 26 55  1  0
 28 56  1  0
 29 57  1  0
 30 58  1  0
 31 59  1  0
 32 60  1  0
M  END
>  <smiles>  (46) 
CC(C)C[C@H](NC(=O)CNC(=O)c1ccc2ccccc2n1)C(=O)NCc1ccccc1

>  <score_type>  (46) 
oracle

>  <origin>  (46) 
autodockgpu

>  <m_score__min__energy>  (46) 
-10.23

>  <m_primary>  (46) 
energy

>  <rmsd>  (46) 
5.284836339257871

>  <m_score__min__rmsd>  (46) 
5.284836339257871

>  <meeko>  (46) 
{"free_energy": -9.33, "intermolecular_energy": -12.01, "internal_energy": -2.63, "cluster_size": 17, "cluster_id": 2, "rank_in_cluster": 9}

>  <energy>  (46) 
-7.65

>  <cluster_rmsd>  (46) 
0.0

>  <cluster>  (46) 
5

$$$$

     RDKit          3D

 60 62  0  0  0  0  0  0  0  0999 V2000
  145.4370   72.0740  219.4260 C   0  0  0  0  0  0  0  0  0  0  0  0
  144.7600   73.0290  220.4580 C   0  0  0  0  0  0  0  0  0  0  0  0
  145.9630   73.7560  221.0710 C   0  0  0  0  0  0  0  0  0  0  0  0
  143.9210   74.0060  219.7350 C   0  0  0  0  0  0  0  0  0  0  0  0
  142.9550   74.8590  220.4470 C   0  0  2  0  0  0  0  0  0  0  0  0
  141.6760   74.0910  220.3970 N   0  0  0  0  0  0  0  0  0  0  0  0
  140.6010   74.4300  221.2620 C   0  0  0  0  0  0  0  0  0  0  0  0
  140.7420   75.4000  222.0810 O   0  0  0  0  0  0  0  0  0  0  0  0
  139.3280   73.6660  221.2140 C   0  0  0  0  0  0  0  0  0  0  0  0
  139.1370   72.8740  222.4120 N   0  0  0  0  0  0  0  0  0  0  0  0
  140.1070   71.8310  222.6320 C   0  0  0  0  0  0  0  0  0  0  0  0
  141.0330   71.6980  221.7630 O   0  0  0  0  0  0  0  0  0  0  0  0
  140.0450   70.9550  223.7960 C   0  0  0  0  0  0  0  0  0  0  0  0
  139.3920   69.7380  223.6530 C   0  0  0  0  0  0  0  0  0  0  0  0
  139.2910   68.8510  224.7040 C   0  0  0  0  0  0  0  0  0  0  0  0
  139.8610   69.2120  225.9070 C   0  0  0  0  0  0  0  0  0  0  0  0
  139.7460   68.3020  226.9510 C   0  0  0  0  0  0  0  0  0  0  0  0
  140.3250   68.6680  228.1700 C   0  0  0  0  0  0  0  0  0  0  0  0
  140.9780   69.8750  228.3280 C   0  0  0  0  0  0  0  0  0  0  0  0
  141.0750   70.7650  227.2610 C   0  0  0  0  0  0  0  0  0  0  0  0
  140.5110   70.4240  226.0490 C   0  0  0  0  0  0  0  0  0  0  0  0
  140.5840   71.2630  224.9880 N   0  0  0  0  0  0  0  0  0  0  0  0
  142.6300   76.1820  219.9510 C   0  0  0  0  0  0  0  0  0  0  0  0
  142.8370   76.5110  218.7560 O   0  0  0  0  0  0  0  0  0  0  0  0
  142.0530   77.2050  220.7760 N   0  0  0  0  0  0  0  0  0  0  0  0
  141.7240   78.5280  220.2990 C   0  0  0  0  0  0  0  0  0  0  0  0
  141.7850   79.5480  221.3680 C   0  0  0  0  0  0  0  0  0  0  0  0
  141.5380   80.8860  221.1880 C   0  0  0  0  0  0  0  0  0  0  0  0
  141.6370   81.7460  222.2630 C   0  0  0  0  0  0  0  0  0  0  0  0
  141.9830   81.2700  223.5230 C   0  0  0  0  0  0  0  0  0  0  0  0
  142.2350   79.9230  223.7260 C   0  0  0  0  0  0  0  0  0  0  0  0
  142.1320   79.0790  222.6400 C   0  0  0  0  0  0  0  0  0  0  0  0
  145.9927   71.2901  219.9615 H   0  0  0  0  0  0  0  0  0  0  0  0
  144.6650   71.6099  218.7945 H   0  0  0  0  0  0  0  0  0  0  0  0
  146.1305   72.6488  218.7945 H   0  0  0  0  0  0  0  0  0  0  0  0
  144.1231   72.5161  221.1937 H   0  0  0  0  0  0  0  0  0  0  0  0
  145.8958   73.7154  222.1682 H   0  0  0  0  0  0  0  0  0  0  0  0
  146.8926   73.2684  220.7423 H   0  0  0  0  0  0  0  0  0  0  0  0
  145.9635   74.8057  220.7423 H   0  0  0  0  0  0  0  0  0  0  0  0
  144.6123   74.6855  219.2150 H   0  0  0  0  0  0  0  0  0  0  0  0
  143.2682   73.3591  219.1306 H   0  0  0  0  0  0  0  0  0  0  0  0
  143.4341   75.0635  221.4158 H   0  0  0  0  0  0  0  0  0  0  0  0
  141.5660   73.2970  219.7300 H   0  0  0  0  0  0  0  0  0  0  0  0
  138.4908   74.3727  221.1158 H   0  0  0  0  0  0  0  0  0  0  0  0
  139.3682   72.9833  220.3525 H   0  0  0  0  0  0  0  0  0  0  0  0
  138.3590   73.0220  223.0920 H   0  0  0  0  0  0  0  0  0  0  0  0
  138.9464   69.4762  222.6820 H   0  0  0  0  0  0  0  0  0  0  0  0
  138.7731   67.8876  224.5869 H   0  0  0  0  0  0  0  0  0  0  0  0
  139.2253   67.3413  226.8247 H   0  0  0  0  0  0  0  0  0  0  0  0
  140.2589   67.9779  229.0240 H   0  0  0  0  0  0  0  0  0  0  0  0
  141.4230   70.1342  229.3000 H   0  0  0  0  0  0  0  0  0  0  0  0
  141.5944   71.7269  227.3831 H   0  0  0  0  0  0  0  0  0  0  0  0
  141.8460   77.0180  221.7900 H   0  0  0  0  0  0  0  0  0  0  0  0
  142.4356   78.8043  219.5070 H   0  0  0  0  0  0  0  0  0  0  0  0
  140.6906   78.4999  219.9231 H   0  0  0  0  0  0  0  0  0  0  0  0
  141.2632   81.2701  220.1945 H   0  0  0  0  0  0  0  0  0  0  0  0
  141.4402   82.8190  222.1216 H   0  0  0  0  0  0  0  0  0  0  0  0
  142.0574   81.9707  224.3677 H   0  0  0  0  0  0  0  0  0  0  0  0
  142.5081   79.5394  224.7201 H   0  0  0  0  0  0  0  0  0  0  0  0
  142.3284   78.0055  222.7778 H   0  0  0  0  0  0  0  0  0  0  0  0
  1  2  1  0
  2  3  1  0
  2  4  1  0
  4  5  1  0
  5  6  1  0
  6  7  1  0
  7  8  2  0
  7  9  1  0
  9 10  1  0
 10 11  1  0
 11 12  2  0
 11 13  1  0
 13 14  2  0
 14 15  1  0
 15 16  2  0
 16 17  1  0
 17 18  2  0
 18 19  1  0
 19 20  2  0
 20 21  1  0
 21 22  2  0
  5 23  1  0
 23 24  2  0
 23 25  1  0
 25 26  1  0
 26 27  1  0
 27 28  2  0
 28 29  1  0
 29 30  2  0
 30 31  1  0
 31 32  2  0
 22 13  1  0
 32 27  1  0
 21 16  1  0
  1 33  1  0
  1 34  1  0
  1 35  1  0
  2 36  1  0
  3 37  1  0
  3 38  1  0
  3 39  1  0
  4 40  1  0
  4 41  1  0
  5 42  1  1
  6 43  1  0
  9 44  1  0
  9 45  1  0
 10 46  1  0
 14 47  1  0
 15 48  1  0
 17 49  1  0
 18 50  1  0
 19 51  1  0
 20 52  1  0
 25 53  1  0
 26 54  1  0
 26 55  1  0
 28 56  1  0
 29 57  1  0
 30 58  1  0
 31 59  1  0
 32 60  1  0
M  END
>  <smiles>  (47) 
CC(C)C[C@H](NC(=O)CNC(=O)c1ccc2ccccc2n1)C(=O)NCc1ccccc1

>  <score_type>  (47) 
oracle

>  <origin>  (47) 
autodockgpu

>  <m_score__min__energy>  (47) 
-10.23

>  <m_primary>  (47) 
energy

>  <rmsd>  (47) 
3.4286132934895974

>  <m_score__min__rmsd>  (47) 
3.4286132934895974

>  <meeko>  (47) 
{"free_energy": -10.19, "intermolecular_energy": -12.87, "internal_energy": -2.33, "cluster_size": 19, "cluster_id": 1, "rank_in_cluster": 2}

>  <energy>  (47) 
-7.61

>  <cluster_rmsd>  (47) 
0.46

>  <cluster>  (47) 
5

$$$$

     RDKit          3D

 60 62  0  0  0  0  0  0  0  0999 V2000
  136.4370   78.1080  221.3850 C   0  0  0  0  0  0  0  0  0  0  0  0
  136.1820   77.6490  222.8540 C   0  0  0  0  0  0  0  0  0  0  0  0
  134.6640   77.4340  222.8720 C   0  0  0  0  0  0  0  0  0  0  0  0
  136.8570   76.3550  223.0800 C   0  0  0  0  0  0  0  0  0  0  0  0
  137.7720   75.7840  222.0780 C   0  0  2  0  0  0  0  0  0  0  0  0
  137.6840   74.3090  222.2960 N   0  0  0  0  0  0  0  0  0  0  0  0
  136.4900   73.6080  221.9770 C   0  0  0  0  0  0  0  0  0  0  0  0
  135.4950   74.2530  221.5010 O   0  0  0  0  0  0  0  0  0  0  0  0
  136.4010   72.1410  222.1930 C   0  0  0  0  0  0  0  0  0  0  0  0
  137.1650   71.7260  223.3530 N   0  0  0  0  0  0  0  0  0  0  0  0
  137.7140   70.3950  223.2940 C   0  0  0  0  0  0  0  0  0  0  0  0
  137.4790   69.7090  222.2420 O   0  0  0  0  0  0  0  0  0  0  0  0
  138.5070   69.8400  224.3840 C   0  0  0  0  0  0  0  0  0  0  0  0
  138.6830   68.4630  224.4190 C   0  0  0  0  0  0  0  0  0  0  0  0
  139.4210   67.8590  225.4140 C   0  0  0  0  0  0  0  0  0  0  0  0
  139.9810   68.6690  226.3800 C   0  0  0  0  0  0  0  0  0  0  0  0
  140.7210   68.0370  227.3730 C   0  0  0  0  0  0  0  0  0  0  0  0
  141.2900   68.8590  228.3510 C   0  0  0  0  0  0  0  0  0  0  0  0
  141.1240   70.2300  228.3310 C   0  0  0  0  0  0  0  0  0  0  0  0
  140.3760   70.8320  227.3210 C   0  0  0  0  0  0  0  0  0  0  0  0
  139.8060   70.0400  226.3460 C   0  0  0  0  0  0  0  0  0  0  0  0
  139.0720   70.5880  225.3480 N   0  0  0  0  0  0  0  0  0  0  0  0
  139.1870   76.0930  222.1080 C   0  0  0  0  0  0  0  0  0  0  0  0
  140.0570   75.2030  222.2880 O   0  0  0  0  0  0  0  0  0  0  0  0
  139.7000   77.4230  221.9350 N   0  0  0  0  0  0  0  0  0  0  0  0
  141.1070   77.7490  221.9630 C   0  0  0  0  0  0  0  0  0  0  0  0
  141.3800   79.0220  222.6660 C   0  0  0  0  0  0  0  0  0  0  0  0
  140.4150   79.8640  223.1610 C   0  0  0  0  0  0  0  0  0  0  0  0
  140.7930   81.0320  223.7920 C   0  0  0  0  0  0  0  0  0  0  0  0
  142.1370   81.3610  223.9310 C   0  0  0  0  0  0  0  0  0  0  0  0
  143.1250   80.5240  223.4400 C   0  0  0  0  0  0  0  0  0  0  0  0
  142.7290   79.3620  222.8120 C   0  0  0  0  0  0  0  0  0  0  0  0
  136.9712   79.0696  221.3888 H   0  0  0  0  0  0  0  0  0  0  0  0
  137.0449   77.3529  220.8652 H   0  0  0  0  0  0  0  0  0  0  0  0
  135.4747   78.2252  220.8652 H   0  0  0  0  0  0  0  0  0  0  0  0
  136.5439   78.3562  223.6148 H   0  0  0  0  0  0  0  0  0  0  0  0
  134.3130   77.3843  223.9133 H   0  0  0  0  0  0  0  0  0  0  0  0
  134.1690   78.2710  222.3578 H   0  0  0  0  0  0  0  0  0  0  0  0
  134.4209   76.4925  222.3578 H   0  0  0  0  0  0  0  0  0  0  0  0
  137.4397   76.4656  224.0064 H   0  0  0  0  0  0  0  0  0  0  0  0
  136.0181   75.6435  223.0697 H   0  0  0  0  0  0  0  0  0  0  0  0
  137.4385   76.2189  221.1243 H   0  0  0  0  0  0  0  0  0  0  0  0
  138.4960   73.7860  222.6880 H   0  0  0  0  0  0  0  0  0  0  0  0
  135.3466   71.8653  222.3424 H   0  0  0  0  0  0  0  0  0  0  0  0
  136.8168   71.6367  221.3082 H   0  0  0  0  0  0  0  0  0  0  0  0
  137.3260   72.3260  224.1910 H   0  0  0  0  0  0  0  0  0  0  0  0
  138.2238   67.8413  223.6363 H   0  0  0  0  0  0  0  0  0  0  0  0
  139.5588   66.7679  225.4370 H   0  0  0  0  0  0  0  0  0  0  0  0
  140.8524   66.9450  227.3886 H   0  0  0  0  0  0  0  0  0  0  0  0
  141.8844   68.4023  229.1560 H   0  0  0  0  0  0  0  0  0  0  0  0
  141.5840   70.8491  229.1153 H   0  0  0  0  0  0  0  0  0  0  0  0
  140.2420   71.9236  227.3015 H   0  0  0  0  0  0  0  0  0  0  0  0
  139.0440   78.2310  221.7800 H   0  0  0  0  0  0  0  0  0  0  0  0
  141.6464   76.9396  222.4767 H   0  0  0  0  0  0  0  0  0  0  0  0
  141.4443   77.8630  220.9222 H   0  0  0  0  0  0  0  0  0  0  0  0
  139.3499   79.6100  223.0556 H   0  0  0  0  0  0  0  0  0  0  0  0
  140.0230   81.7097  224.1891 H   0  0  0  0  0  0  0  0  0  0  0  0
  142.4184   82.2965  224.4366 H   0  0  0  0  0  0  0  0  0  0  0  0
  144.1900   80.7776  223.5474 H   0  0  0  0  0  0  0  0  0  0  0  0
  143.4968   78.6822  222.4140 H   0  0  0  0  0  0  0  0  0  0  0  0
  1  2  1  0
  2  3  1  0
  2  4  1  0
  4  5  1  0
  5  6  1  0
  6  7  1  0
  7  8  2  0
  7  9  1  0
  9 10  1  0
 10 11  1  0
 11 12  2  0
 11 13  1  0
 13 14  2  0
 14 15  1  0
 15 16  2  0
 16 17  1  0
 17 18  2  0
 18 19  1  0
 19 20  2  0
 20 21  1  0
 21 22  2  0
  5 23  1  0
 23 24  2  0
 23 25  1  0
 25 26  1  0
 26 27  1  0
 27 28  2  0
 28 29  1  0
 29 30  2  0
 30 31  1  0
 31 32  2  0
 22 13  1  0
 32 27  1  0
 21 16  1  0
  1 33  1  0
  1 34  1  0
  1 35  1  0
  2 36  1  0
  3 37  1  0
  3 38  1  0
  3 39  1  0
  4 40  1  0
  4 41  1  0
  5 42  1  6
  6 43  1  0
  9 44  1  0
  9 45  1  0
 10 46  1  0
 14 47  1  0
 15 48  1  0
 17 49  1  0
 18 50  1  0
 19 51  1  0
 20 52  1  0
 25 53  1  0
 26 54  1  0
 26 55  1  0
 28 56  1  0
 29 57  1  0
 30 58  1  0
 31 59  1  0
 32 60  1  0
M  END
>  <smiles>  (48) 
CC(C)C[C@H](NC(=O)CNC(=O)c1ccc2ccccc2n1)C(=O)NCc1ccccc1

>  <score_type>  (48) 
oracle

>  <origin>  (48) 
autodockgpu

>  <m_score__min__energy>  (48) 
-10.23

>  <m_primary>  (48) 
energy

>  <rmsd>  (48) 
3.826160667471381

>  <m_score__min__rmsd>  (48) 
3.826160667471381

>  <meeko>  (48) 
{"free_energy": -8.71, "intermolecular_energy": -11.4, "internal_energy": -2.42, "cluster_size": 5, "cluster_id": 3, "rank_in_cluster": 1}

>  <energy>  (48) 
-7.59

>  <cluster_rmsd>  (48) 
0.56

>  <cluster>  (48) 
5

$$$$

     RDKit          3D

 60 62  0  0  0  0  0  0  0  0999 V2000
  139.6990   79.7590  223.5810 C   0  0  0  0  0  0  0  0  0  0  0  0
  140.7840   79.0190  222.7380 C   0  0  0  0  0  0  0  0  0  0  0  0
  141.8400   78.6720  223.7940 C   0  0  0  0  0  0  0  0  0  0  0  0
  140.2090   77.7690  222.2000 C   0  0  0  0  0  0  0  0  0  0  0  0
  140.1210   77.5290  220.7510 C   0  0  2  0  0  0  0  0  0  0  0  0
  139.2630   76.3130  220.6280 N   0  0  0  0  0  0  0  0  0  0  0  0
  139.6450   75.0990  221.2620 C   0  0  0  0  0  0  0  0  0  0  0  0
  140.7290   75.0630  221.9380 O   0  0  0  0  0  0  0  0  0  0  0  0
  138.7930   73.8890  221.1400 C   0  0  0  0  0  0  0  0  0  0  0  0
  138.7560   73.1360  222.3780 N   0  0  0  0  0  0  0  0  0  0  0  0
  139.8530   72.2260  222.5880 C   0  0  0  0  0  0  0  0  0  0  0  0
  140.7450   72.1620  221.6760 O   0  0  0  0  0  0  0  0  0  0  0  0
  139.9520   71.4040  223.7880 C   0  0  0  0  0  0  0  0  0  0  0  0
  139.5110   70.0900  223.7080 C   0  0  0  0  0  0  0  0  0  0  0  0
  139.5720   69.2460  224.7960 C   0  0  0  0  0  0  0  0  0  0  0  0
  140.0880   69.7500  225.9720 C   0  0  0  0  0  0  0  0  0  0  0  0
  140.1400   68.8800  227.0560 C   0  0  0  0  0  0  0  0  0  0  0  0
  140.6630   69.3910  228.2470 C   0  0  0  0  0  0  0  0  0  0  0  0
  141.1070   70.6960  228.3420 C   0  0  0  0  0  0  0  0  0  0  0  0
  141.0400   71.5420  227.2370 C   0  0  0  0  0  0  0  0  0  0  0  0
  140.5270   71.0580  226.0520 C   0  0  0  0  0  0  0  0  0  0  0  0
  140.4470   71.8500  224.9550 N   0  0  0  0  0  0  0  0  0  0  0  0
  141.3110   77.2400  219.9750 C   0  0  0  0  0  0  0  0  0  0  0  0
  141.4610   77.6760  218.8050 O   0  0  0  0  0  0  0  0  0  0  0  0
  142.3950   76.4450  220.4750 N   0  0  0  0  0  0  0  0  0  0  0  0
  143.5870   76.1470  219.7160 C   0  0  0  0  0  0  0  0  0  0  0  0
  144.0570   74.7590  219.9200 C   0  0  0  0  0  0  0  0  0  0  0  0
  143.4120   73.6380  219.4560 C   0  0  0  0  0  0  0  0  0  0  0  0
  143.9430   72.3920  219.7190 C   0  0  0  0  0  0  0  0  0  0  0  0
  145.1210   72.2610  220.4470 C   0  0  0  0  0  0  0  0  0  0  0  0
  145.7870   73.3780  220.9230 C   0  0  0  0  0  0  0  0  0  0  0  0
  145.2410   74.6160  220.6510 C   0  0  0  0  0  0  0  0  0  0  0  0
  139.9069   79.6172  224.6518 H   0  0  0  0  0  0  0  0  0  0  0  0
  139.7187   80.8327  223.3427 H   0  0  0  0  0  0  0  0  0  0  0  0
  138.7066   79.3487  223.3427 H   0  0  0  0  0  0  0  0  0  0  0  0
  141.1714   79.6047  221.8913 H   0  0  0  0  0  0  0  0  0  0  0  0
  141.4139   78.8120  224.7984 H   0  0  0  0  0  0  0  0  0  0  0  0
  142.1515   77.6243  223.6706 H   0  0  0  0  0  0  0  0  0  0  0  0
  142.7122   79.3308  223.6706 H   0  0  0  0  0  0  0  0  0  0  0  0
  140.8091   76.9462  222.6158 H   0  0  0  0  0  0  0  0  0  0  0  0
  139.1517   77.8475  222.4932 H   0  0  0  0  0  0  0  0  0  0  0  0
  139.7759   78.4879  220.3370 H   0  0  0  0  0  0  0  0  0  0  0  0
  138.3820   76.3450  220.0730 H   0  0  0  0  0  0  0  0  0  0  0  0
  137.7699   74.1975  220.8790 H   0  0  0  0  0  0  0  0  0  0  0  0
  139.2203   73.2445  220.3577 H   0  0  0  0  0  0  0  0  0  0  0  0
  137.9990   73.2250  223.0920 H   0  0  0  0  0  0  0  0  0  0  0  0
  139.1047   69.7149  222.7571 H   0  0  0  0  0  0  0  0  0  0  0  0
  139.2211   68.2056  224.7289 H   0  0  0  0  0  0  0  0  0  0  0  0
  139.7869   67.8410  226.9796 H   0  0  0  0  0  0  0  0  0  0  0  0
  140.7226   68.7383  229.1304 H   0  0  0  0  0  0  0  0  0  0  0  0
  141.5148   71.0683  229.2934 H   0  0  0  0  0  0  0  0  0  0  0  0
  141.3915   72.5818  227.3089 H   0  0  0  0  0  0  0  0  0  0  0  0
  142.3550   76.0380  221.4440 H   0  0  0  0  0  0  0  0  0  0  0  0
  143.3702   76.2925  218.6474 H   0  0  0  0  0  0  0  0  0  0  0  0
  144.3820   76.8233  220.0634 H   0  0  0  0  0  0  0  0  0  0  0  0
  142.4800   73.7332  218.8796 H   0  0  0  0  0  0  0  0  0  0  0  0
  143.4292   71.4925  219.3490 H   0  0  0  0  0  0  0  0  0  0  0  0
  145.5282   71.2589  220.6469 H   0  0  0  0  0  0  0  0  0  0  0  0
  146.7196   73.2818  221.4984 H   0  0  0  0  0  0  0  0  0  0  0  0
  145.7522   75.5173  221.0201 H   0  0  0  0  0  0  0  0  0  0  0  0
  1  2  1  0
  2  3  1  0
  2  4  1  0
  4  5  1  0
  5  6  1  0
  6  7  1  0
  7  8  2  0
  7  9  1  0
  9 10  1  0
 10 11  1  0
 11 12  2  0
 11 13  1  0
 13 14  2  0
 14 15  1  0
 15 16  2  0
 16 17  1  0
 17 18  2  0
 18 19  1  0
 19 20  2  0
 20 21  1  0
 21 22  2  0
  5 23  1  0
 23 24  2  0
 23 25  1  0
 25 26  1  0
 26 27  1  0
 27 28  2  0
 28 29  1  0
 29 30  2  0
 30 31  1  0
 31 32  2  0
 22 13  1  0
 32 27  1  0
 21 16  1  0
  1 33  1  0
  1 34  1  0
  1 35  1  0
  2 36  1  0
  3 37  1  0
  3 38  1  0
  3 39  1  0
  4 40  1  0
  4 41  1  0
  5 42  1  6
  6 43  1  0
  9 44  1  0
  9 45  1  0
 10 46  1  0
 14 47  1  0
 15 48  1  0
 17 49  1  0
 18 50  1  0
 19 51  1  0
 20 52  1  0
 25 53  1  0
 26 54  1  0
 26 55  1  0
 28 56  1  0
 29 57  1  0
 30 58  1  0
 31 59  1  0
 32 60  1  0
M  END
>  <smiles>  (49) 
CC(C)C[C@H](NC(=O)CNC(=O)c1ccc2ccccc2n1)C(=O)NCc1ccccc1

>  <score_type>  (49) 
oracle

>  <origin>  (49) 
autodockgpu

>  <m_score__min__energy>  (49) 
-10.23

>  <m_primary>  (49) 
energy

>  <rmsd>  (49) 
5.295286639816475

>  <m_score__min__rmsd>  (49) 
5.295286639816475

>  <meeko>  (49) 
{"free_energy": -9.51, "intermolecular_energy": -12.19, "internal_energy": -2.53, "cluster_size": 17, "cluster_id": 2, "rank_in_cluster": 4}

>  <energy>  (49) 
-7.6

>  <cluster_rmsd>  (49) 
0.0

>  <cluster>  (49) 
6

$$$$

     RDKit          3D

 60 62  0  0  0  0  0  0  0  0999 V2000
  135.7560   75.0500  224.2210 C   0  0  0  0  0  0  0  0  0  0  0  0
  136.2280   75.8440  222.9630 C   0  0  0  0  0  0  0  0  0  0  0  0
  135.4170   77.1400  223.0700 C   0  0  0  0  0  0  0  0  0  0  0  0
  137.6640   76.1590  223.1010 C   0  0  0  0  0  0  0  0  0  0  0  0
  138.5830   76.0550  221.9560 C   0  0  2  0  0  0  0  0  0  0  0  0
  138.8750   74.5940  221.8480 N   0  0  0  0  0  0  0  0  0  0  0  0
  139.4270   74.0600  220.6520 C   0  0  0  0  0  0  0  0  0  0  0  0
  139.6740   74.8440  219.6740 O   0  0  0  0  0  0  0  0  0  0  0  0
  139.7160   72.6070  220.5430 C   0  0  0  0  0  0  0  0  0  0  0  0
  140.2810   72.0820  221.7700 N   0  0  0  0  0  0  0  0  0  0  0  0
  139.3280   71.6890  222.7770 C   0  0  0  0  0  0  0  0  0  0  0  0
  138.0890   71.8400  222.5030 O   0  0  0  0  0  0  0  0  0  0  0  0
  139.7470   71.1410  224.0620 C   0  0  0  0  0  0  0  0  0  0  0  0
  140.6350   71.8890  224.8230 C   0  0  0  0  0  0  0  0  0  0  0  0
  141.0790   71.4440  226.0500 C   0  0  0  0  0  0  0  0  0  0  0  0
  140.6110   70.2270  226.4990 C   0  0  0  0  0  0  0  0  0  0  0  0
  141.0730   69.7980  227.7390 C   0  0  0  0  0  0  0  0  0  0  0  0
  140.5970   68.5650  228.1950 C   0  0  0  0  0  0  0  0  0  0  0  0
  139.7120   67.8090  227.4490 C   0  0  0  0  0  0  0  0  0  0  0  0
  139.2700   68.2670  226.2100 C   0  0  0  0  0  0  0  0  0  0  0  0
  139.7270   69.4820  225.7420 C   0  0  0  0  0  0  0  0  0  0  0  0
  139.3190   69.9610  224.5410 N   0  0  0  0  0  0  0  0  0  0  0  0
  139.8780   76.7040  221.9860 C   0  0  0  0  0  0  0  0  0  0  0  0
  140.4840   76.9270  223.0650 O   0  0  0  0  0  0  0  0  0  0  0  0
  140.5620   77.1380  220.8000 N   0  0  0  0  0  0  0  0  0  0  0  0
  141.8520   77.7880  220.8110 C   0  0  0  0  0  0  0  0  0  0  0  0
  141.8730   78.9910  221.6710 C   0  0  0  0  0  0  0  0  0  0  0  0
  142.5390   79.0860  222.8680 C   0  0  0  0  0  0  0  0  0  0  0  0
  142.4770   80.2610  223.5880 C   0  0  0  0  0  0  0  0  0  0  0  0
  141.7480   81.3460  223.1150 C   0  0  0  0  0  0  0  0  0  0  0  0
  141.0700   81.2720  221.9100 C   0  0  0  0  0  0  0  0  0  0  0  0
  141.1420   80.0890  221.2030 C   0  0  0  0  0  0  0  0  0  0  0  0
  136.0723   75.5820  225.1303 H   0  0  0  0  0  0  0  0  0  0  0  0
  134.6595   74.9631  224.2096 H   0  0  0  0  0  0  0  0  0  0  0  0
  136.2036   74.0452  224.2096 H   0  0  0  0  0  0  0  0  0  0  0  0
  136.0900   75.3053  222.0139 H   0  0  0  0  0  0  0  0  0  0  0  0
  135.2614   77.3887  224.1302 H   0  0  0  0  0  0  0  0  0  0  0  0
  135.9651   77.9572  222.5783 H   0  0  0  0  0  0  0  0  0  0  0  0
  134.4424   77.0043  222.5783 H   0  0  0  0  0  0  0  0  0  0  0  0
  137.7220   77.1994  223.4533 H   0  0  0  0  0  0  0  0  0  0  0  0
  138.0208   75.3594  223.7668 H   0  0  0  0  0  0  0  0  0  0  0  0
  138.0596   76.5722  221.1383 H   0  0  0  0  0  0  0  0  0  0  0  0
  138.6690   73.9560  222.6460 H   0  0  0  0  0  0  0  0  0  0  0  0
  138.7801   72.0723  220.3235 H   0  0  0  0  0  0  0  0  0  0  0  0
  140.4498   72.4617  219.7365 H   0  0  0  0  0  0  0  0  0  0  0  0
  141.3050   71.9810  221.9450 H   0  0  0  0  0  0  0  0  0  0  0  0
  140.9916   72.8563  224.4393 H   0  0  0  0  0  0  0  0  0  0  0  0
  141.7826   72.0394  226.6504 H   0  0  0  0  0  0  0  0  0  0  0  0
  141.7782   70.3993  228.3316 H   0  0  0  0  0  0  0  0  0  0  0  0
  140.9349   68.1872  229.1713 H   0  0  0  0  0  0  0  0  0  0  0  0
  139.3557   66.8426  227.8352 H   0  0  0  0  0  0  0  0  0  0  0  0
  138.5664   67.6684  225.6129 H   0  0  0  0  0  0  0  0  0  0  0  0
  140.1290   76.9940  219.8530 H   0  0  0  0  0  0  0  0  0  0  0  0
  142.6029   77.0754  221.1830 H   0  0  0  0  0  0  0  0  0  0  0  0
  142.0733   78.1088  219.7823 H   0  0  0  0  0  0  0  0  0  0  0  0
  143.1175   78.2318  223.2498 H   0  0  0  0  0  0  0  0  0  0  0  0
  143.0102   80.3403  224.5468 H   0  0  0  0  0  0  0  0  0  0  0  0
  141.7093   82.2738  223.7047 H   0  0  0  0  0  0  0  0  0  0  0  0
  140.4932   82.1276  221.5289 H   0  0  0  0  0  0  0  0  0  0  0  0
  140.6095   80.0066  220.2440 H   0  0  0  0  0  0  0  0  0  0  0  0
  1  2  1  0
  2  3  1  0
  2  4  1  0
  4  5  1  0
  5  6  1  0
  6  7  1  0
  7  8  2  0
  7  9  1  0
  9 10  1  0
 10 11  1  0
 11 12  2  0
 11 13  1  0
 13 14  2  0
 14 15  1  0
 15 16  2  0
 16 17  1  0
 17 18  2  0
 18 19  1  0
 19 20  2  0
 20 21  1  0
 21 22  2  0
  5 23  1  0
 23 24  2  0
 23 25  1  0
 25 26  1  0
 26 27  1  0
 27 28  2  0
 28 29  1  0
 29 30  2  0
 30 31  1  0
 31 32  2  0
 22 13  1  0
 32 27  1  0
 21 16  1  0
  1 33  1  0
  1 34  1  0
  1 35  1  0
  2 36  1  0
  3 37  1  0
  3 38  1  0
  3 39  1  0
  4 40  1  0
  4 41  1  0
  5 42  1  6
  6 43  1  0
  9 44  1  0
  9 45  1  0
 10 46  1  0
 14 47  1  0
 15 48  1  0
 17 49  1  0
 18 50  1  0
 19 51  1  0
 20 52  1  0
 25 53  1  0
 26 54  1  0
 26 55  1  0
 28 56  1  0
 29 57  1  0
 30 58  1  0
 31 59  1  0
 32 60  1  0
M  END
>  <smiles>  (50) 
CC(C)C[C@H](NC(=O)CNC(=O)c1ccc2ccccc2n1)C(=O)NCc1ccccc1

>  <score_type>  (50) 
oracle

>  <origin>  (50) 
autodockgpu

>  <m_score__min__energy>  (50) 
-10.23

>  <m_primary>  (50) 
energy

>  <rmsd>  (50) 
4.064899075974261

>  <m_score__min__rmsd>  (50) 
4.064899075974261

>  <meeko>  (50) 
{"free_energy": -7.92, "intermolecular_energy": -10.61, "internal_energy": -3.04, "cluster_size": 5, "cluster_id": 3, "rank_in_cluster": 4}

>  <energy>  (50) 
-6.88

>  <cluster_rmsd>  (50) 
0.0

>  <cluster>  (50) 
7

$$$$
