
     RDKit          3D

 54 57  0  0  0  0  0  0  0  0999 V2000
  145.9370   73.3880  217.7570 N   0  0  0  0  0  0  0  0  0  0  0  0
  145.7780   73.0500  219.4440 S   0  0  0  0  0  0  0  0  0  0  0  0
  146.8690   73.7590  220.1750 O   0  0  0  0  0  0  0  0  0  0  0  0
  145.9540   71.5730  219.7130 O   0  0  0  0  0  0  0  0  0  0  0  0
  144.2300   73.6010  220.0380 C   0  0  0  0  0  0  0  0  0  0  0  0
  143.9220   74.9300  219.9520 C   0  0  0  0  0  0  0  0  0  0  0  0
  142.7260   75.4010  220.4040 C   0  0  0  0  0  0  0  0  0  0  0  0
  141.7470   74.5770  220.9740 C   0  0  0  0  0  0  0  0  0  0  0  0
  140.4810   75.1230  221.4440 C   0  0  0  0  0  0  0  0  0  0  0  0
  140.2240   76.4050  221.5720 C   0  0  0  0  0  0  0  0  0  0  0  0
  138.9250   76.8370  222.0790 C   0  0  0  0  0  0  0  0  0  0  0  0
  138.0920   75.8800  222.5830 N   0  0  0  0  0  0  0  0  0  0  0  0
  136.8830   76.1280  223.0750 C   0  0  0  0  0  0  0  0  0  0  0  0
  136.0740   75.1190  223.5750 C   0  0  0  0  0  0  0  0  0  0  0  0
  134.8250   75.4150  224.0780 C   0  0  0  0  0  0  0  0  0  0  0  0
  134.4190   76.7260  224.0650 C   0  0  0  0  0  0  0  0  0  0  0  0
  133.1770   76.9840  224.5700 F   0  0  0  0  0  0  0  0  0  0  0  0
  135.2240   77.7530  223.5630 C   0  0  0  0  0  0  0  0  0  0  0  0
  136.4660   77.4600  223.0630 C   0  0  0  0  0  0  0  0  0  0  0  0
  137.3170   78.4180  222.5520 C   0  0  0  0  0  0  0  0  0  0  0  0
  136.8670   79.6130  222.5770 O   0  0  0  0  0  0  0  0  0  0  0  0
  138.5390   78.1390  222.0580 N   0  0  0  0  0  0  0  0  0  0  0  0
  139.4060   79.1460  221.5160 C   0  0  0  0  0  0  0  0  0  0  0  0
  140.0660   80.0200  222.5290 C   0  0  0  0  0  0  0  0  0  0  0  0
  140.5890   79.3530  223.7470 C   0  0  0  0  0  0  0  0  0  0  0  0
  141.9010   78.6370  223.5190 C   0  0  0  0  0  0  0  0  0  0  0  0
  142.9230   79.5780  223.0600 N   0  0  0  0  0  0  0  0  0  0  0  0
  142.4030   80.8800  222.7830 C   0  0  0  0  0  0  0  0  0  0  0  0
  141.1660   80.8740  221.9110 C   0  0  0  0  0  0  0  0  0  0  0  0
  142.0760   73.2410  221.0510 C   0  0  0  0  0  0  0  0  0  0  0  0
  143.2930   72.7520  220.5940 C   0  0  0  0  0  0  0  0  0  0  0  0
  146.0130   74.4280  217.6520 H   0  0  0  0  0  0  0  0  0  0  0  0
  145.0060   73.1380  217.3330 H   0  0  0  0  0  0  0  0  0  0  0  0
  144.6492   75.6284  219.5121 H   0  0  0  0  0  0  0  0  0  0  0  0
  142.5197   76.4780  220.3173 H   0  0  0  0  0  0  0  0  0  0  0  0
  139.6847   74.4124  221.7103 H   0  0  0  0  0  0  0  0  0  0  0  0
  140.9851   77.1504  221.2981 H   0  0  0  0  0  0  0  0  0  0  0  0
  136.4302   74.0783  223.5703 H   0  0  0  0  0  0  0  0  0  0  0  0
  134.1733   74.6241  224.4778 H   0  0  0  0  0  0  0  0  0  0  0  0
  134.8621   78.7917  223.5693 H   0  0  0  0  0  0  0  0  0  0  0  0
  140.1927   78.6425  220.9350 H   0  0  0  0  0  0  0  0  0  0  0  0
  138.7694   79.8057  220.9081 H   0  0  0  0  0  0  0  0  0  0  0  0
  139.2317   80.6467  222.8773 H   0  0  0  0  0  0  0  0  0  0  0  0
  140.7378   80.1152  224.5261 H   0  0  0  0  0  0  0  0  0  0  0  0
  139.8509   78.5941  224.0458 H   0  0  0  0  0  0  0  0  0  0  0  0
  142.2305   78.1755  224.4615 H   0  0  0  0  0  0  0  0  0  0  0  0
  141.7565   77.8642  222.7497 H   0  0  0  0  0  0  0  0  0  0  0  0
  143.5310   79.1710  222.3280 H   0  0  0  0  0  0  0  0  0  0  0  0
  142.1506   81.3626  223.7387 H   0  0  0  0  0  0  0  0  0  0  0  0
  143.1820   81.4233  222.2281 H   0  0  0  0  0  0  0  0  0  0  0  0
  140.8003   81.9053  221.7985 H   0  0  0  0  0  0  0  0  0  0  0  0
  141.4302   80.4496  220.9312 H   0  0  0  0  0  0  0  0  0  0  0  0
  141.3511   72.5389  221.4887 H   0  0  0  0  0  0  0  0  0  0  0  0
  143.5130   71.6773  220.6757 H   0  0  0  0  0  0  0  0  0  0  0  0
  1  2  1  0
  2  3  2  0
  2  4  2  0
  2  5  1  0
  5  6  2  0
  6  7  1  0
  7  8  2  0
  8  9  1  0
  9 10  2  0
 10 11  1  0
 11 12  2  0
 12 13  1  0
 13 14  2  0
 14 15  1  0
 15 16  2  0
 16 17  1  0
 16 18  1  0
 18 19  2  0
 19 20  1  0
 20 21  2  0
 20 22  1  0
 22 23  1  0
 23 24  1  0
 24 25  1  0
 25 26  1  0
 26 27  1  0
 27 28  1  0
 28 29  1  0
  8 30  1  0
 30 31  2  0
 31  5  1  0
 22 11  1  0
 29 24  1  0
 19 13  1  0
  1 32  1  0
  1 33  1  0
  6 34  1  0
  7 35  1  0
  9 36  1  0
 10 37  1  0
 14 38  1  0
 15 39  1  0
 18 40  1  0
 23 41  1  0
 23 42  1  0
 24 43  1  0
 25 44  1  0
 25 45  1  0
 26 46  1  0
 26 47  1  0
 27 48  1  0
 28 49  1  0
 28 50  1  0
 29 51  1  0
 29 52  1  0
 30 53  1  0
 31 54  1  0
M  END
>  <smiles>  (1) 
NS(=O)(=O)c1ccc(/C=C/c2nc3ccc(F)cc3c(=O)n2CC2CCNCC2)cc1

>  <score_type>  (1) 
oracle

>  <origin>  (1) 
autodockgpu

>  <m_score__min__energy>  (1) 
-10.24

>  <m_primary>  (1) 
energy

>  <rmsd>  (1) 
4.992108523807643

>  <m_score__min__rmsd>  (1) 
4.992108523807643

>  <meeko>  (1) 
{"free_energy": -8.23, "intermolecular_energy": -10.32, "internal_energy": -1.32, "cluster_size": 6, "cluster_id": 3, "rank_in_cluster": 5}

>  <energy>  (1) 
-10.24

>  <cluster_rmsd>  (1) 
0.0

>  <cluster>  (1) 
1

$$$$

     RDKit          3D

 54 57  0  0  0  0  0  0  0  0999 V2000
  132.4940   73.8410  227.6990 N   0  0  0  0  0  0  0  0  0  0  0  0
  133.3500   72.7260  226.6970 S   0  0  0  0  0  0  0  0  0  0  0  0
  132.3580   71.8690  225.9840 O   0  0  0  0  0  0  0  0  0  0  0  0
  134.2080   71.8040  227.5340 O   0  0  0  0  0  0  0  0  0  0  0  0
  134.3290   73.5770  225.5260 C   0  0  0  0  0  0  0  0  0  0  0  0
  134.5310   74.9190  225.6820 C   0  0  0  0  0  0  0  0  0  0  0  0
  135.2860   75.6210  224.7920 C   0  0  0  0  0  0  0  0  0  0  0  0
  135.8970   75.0320  223.6770 C   0  0  0  0  0  0  0  0  0  0  0  0
  136.6970   75.8200  222.7500 C   0  0  0  0  0  0  0  0  0  0  0  0
  137.7450   76.5350  223.0920 C   0  0  0  0  0  0  0  0  0  0  0  0
  138.9930   76.3940  222.3470 C   0  0  0  0  0  0  0  0  0  0  0  0
  139.5420   75.1470  222.2610 N   0  0  0  0  0  0  0  0  0  0  0  0
  140.6730   74.8740  221.6180 C   0  0  0  0  0  0  0  0  0  0  0  0
  141.1890   73.5880  221.5600 C   0  0  0  0  0  0  0  0  0  0  0  0
  142.3650   73.3430  220.8830 C   0  0  0  0  0  0  0  0  0  0  0  0
  142.9960   74.4030  220.2800 C   0  0  0  0  0  0  0  0  0  0  0  0
  144.1580   74.1250  219.6200 F   0  0  0  0  0  0  0  0  0  0  0  0
  142.4870   75.7040  220.3320 C   0  0  0  0  0  0  0  0  0  0  0  0
  141.3170   75.9490  221.0040 C   0  0  0  0  0  0  0  0  0  0  0  0
  140.7520   77.2040  221.0990 C   0  0  0  0  0  0  0  0  0  0  0  0
  141.3980   78.1360  220.5090 O   0  0  0  0  0  0  0  0  0  0  0  0
  139.6040   77.4540  221.7560 N   0  0  0  0  0  0  0  0  0  0  0  0
  139.0370   78.7690  221.8580 C   0  0  0  0  0  0  0  0  0  0  0  0
  139.8200   79.7290  222.6890 C   0  0  0  0  0  0  0  0  0  0  0  0
  140.5410   79.1670  223.8580 C   0  0  0  0  0  0  0  0  0  0  0  0
  141.8210   78.4560  223.4840 C   0  0  0  0  0  0  0  0  0  0  0  0
  142.7360   79.3730  222.8040 N   0  0  0  0  0  0  0  0  0  0  0  0
  142.1450   80.6420  222.5140 C   0  0  0  0  0  0  0  0  0  0  0  0
  140.7890   80.5490  221.8470 C   0  0  0  0  0  0  0  0  0  0  0  0
  135.6810   73.6780  223.5370 C   0  0  0  0  0  0  0  0  0  0  0  0
  134.9120   72.9550  224.4400 C   0  0  0  0  0  0  0  0  0  0  0  0
  133.1750   74.2180  228.4020 H   0  0  0  0  0  0  0  0  0  0  0  0
  131.8210   73.2550  228.2590 H   0  0  0  0  0  0  0  0  0  0  0  0
  134.0776   75.4398  226.5383 H   0  0  0  0  0  0  0  0  0  0  0  0
  135.4224   76.7001  224.9560 H   0  0  0  0  0  0  0  0  0  0  0  0
  136.4037   75.8165  221.6898 H   0  0  0  0  0  0  0  0  0  0  0  0
  137.6825   77.2372  223.9364 H   0  0  0  0  0  0  0  0  0  0  0  0
  140.6587   72.7613  222.0554 H   0  0  0  0  0  0  0  0  0  0  0  0
  142.7854   72.3280  220.8276 H   0  0  0  0  0  0  0  0  0  0  0  0
  143.0224   76.5272  219.8363 H   0  0  0  0  0  0  0  0  0  0  0  0
  138.9539   79.1847  220.8430 H   0  0  0  0  0  0  0  0  0  0  0  0
  138.0659   78.6476  222.3603 H   0  0  0  0  0  0  0  0  0  0  0  0
  139.0319   80.3678  223.1142 H   0  0  0  0  0  0  0  0  0  0  0  0
  140.7864   79.9897  224.5457 H   0  0  0  0  0  0  0  0  0  0  0  0
  139.8781   78.4226  224.3232 H   0  0  0  0  0  0  0  0  0  0  0  0
  142.3028   78.0739  224.3961 H   0  0  0  0  0  0  0  0  0  0  0  0
  141.5810   77.6242  222.8053 H   0  0  0  0  0  0  0  0  0  0  0  0
  143.2360   78.9190  222.0200 H   0  0  0  0  0  0  0  0  0  0  0  0
  142.0294   81.1941  223.4583 H   0  0  0  0  0  0  0  0  0  0  0  0
  142.8149   81.1519  221.8060 H   0  0  0  0  0  0  0  0  0  0  0  0
  140.3825   81.5627  221.7161 H   0  0  0  0  0  0  0  0  0  0  0  0
  140.9116   80.0535  220.8726 H   0  0  0  0  0  0  0  0  0  0  0  0
  136.1323   73.1528  222.6823 H   0  0  0  0  0  0  0  0  0  0  0  0
  134.7660   71.8754  224.2882 H   0  0  0  0  0  0  0  0  0  0  0  0
  1  2  1  0
  2  3  2  0
  2  4  2  0
  2  5  1  0
  5  6  2  0
  6  7  1  0
  7  8  2  0
  8  9  1  0
  9 10  2  0
 10 11  1  0
 11 12  2  0
 12 13  1  0
 13 14  2  0
 14 15  1  0
 15 16  2  0
 16 17  1  0
 16 18  1  0
 18 19  2  0
 19 20  1  0
 20 21  2  0
 20 22  1  0
 22 23  1  0
 23 24  1  0
 24 25  1  0
 25 26  1  0
 26 27  1  0
 27 28  1  0
 28 29  1  0
  8 30  1  0
 30 31  2  0
 31  5  1  0
 22 11  1  0
 29 24  1  0
 19 13  1  0
  1 32  1  0
  1 33  1  0
  6 34  1  0
  7 35  1  0
  9 36  1  0
 10 37  1  0
 14 38  1  0
 15 39  1  0
 18 40  1  0
 23 41  1  0
 23 42  1  0
 24 43  1  0
 25 44  1  0
 25 45  1  0
 26 46  1  0
 26 47  1  0
 27 48  1  0
 28 49  1  0
 28 50  1  0
 29 51  1  0
 29 52  1  0
 30 53  1  0
 31 54  1  0
M  END
>  <smiles>  (2) 
NS(=O)(=O)c1ccc(/C=C/c2nc3ccc(F)cc3c(=O)n2CC2CCNCC2)cc1

>  <score_type>  (2) 
oracle

>  <origin>  (2) 
autodockgpu

>  <m_score__min__energy>  (2) 
-10.24

>  <m_primary>  (2) 
energy

>  <rmsd>  (2) 
3.7480820179555576

>  <m_score__min__rmsd>  (2) 
3.7480820179555576

>  <meeko>  (2) 
{"free_energy": -8.34, "intermolecular_energy": -10.43, "internal_energy": -1.41, "cluster_size": 1, "cluster_id": 6, "rank_in_cluster": 1}

>  <energy>  (2) 
-10.06

>  <cluster_rmsd>  (2) 
0.68

>  <cluster>  (2) 
1

$$$$

     RDKit          3D

 54 57  0  0  0  0  0  0  0  0999 V2000
  139.9760   68.6160  228.1740 N   0  0  0  0  0  0  0  0  0  0  0  0
  140.2210   68.0660  226.5550 S   0  0  0  0  0  0  0  0  0  0  0  0
  139.1890   67.0340  226.2430 O   0  0  0  0  0  0  0  0  0  0  0  0
  141.5690   67.3970  226.4160 O   0  0  0  0  0  0  0  0  0  0  0  0
  140.0750   69.3920  225.4270 C   0  0  0  0  0  0  0  0  0  0  0  0
  139.1790   69.2930  224.4000 C   0  0  0  0  0  0  0  0  0  0  0  0
  139.0340   70.3030  223.4980 C   0  0  0  0  0  0  0  0  0  0  0  0
  139.7770   71.4900  223.5560 C   0  0  0  0  0  0  0  0  0  0  0  0
  139.5900   72.5460  222.5700 C   0  0  0  0  0  0  0  0  0  0  0  0
  140.4470   72.8360  221.6170 C   0  0  0  0  0  0  0  0  0  0  0  0
  140.8540   74.2210  221.4060 C   0  0  0  0  0  0  0  0  0  0  0  0
  140.1930   75.1900  222.1050 N   0  0  0  0  0  0  0  0  0  0  0  0
  140.4570   76.4890  222.0100 C   0  0  0  0  0  0  0  0  0  0  0  0
  139.7540   77.4340  222.7430 C   0  0  0  0  0  0  0  0  0  0  0  0
  140.0560   78.7730  222.6190 C   0  0  0  0  0  0  0  0  0  0  0  0
  141.0620   79.1300  221.7550 C   0  0  0  0  0  0  0  0  0  0  0  0
  141.3340   80.4650  221.6550 F   0  0  0  0  0  0  0  0  0  0  0  0
  141.7760   78.1890  221.0090 C   0  0  0  0  0  0  0  0  0  0  0  0
  141.4770   76.8560  221.1330 C   0  0  0  0  0  0  0  0  0  0  0  0
  142.1380   75.8690  220.4320 C   0  0  0  0  0  0  0  0  0  0  0  0
  143.0610   76.2820  219.6510 O   0  0  0  0  0  0  0  0  0  0  0  0
  141.8520   74.5580  220.5460 N   0  0  0  0  0  0  0  0  0  0  0  0
  142.5390   73.5440  219.7980 C   0  0  0  0  0  0  0  0  0  0  0  0
  143.7080   72.9330  220.4940 C   0  0  0  0  0  0  0  0  0  0  0  0
  144.3400   71.7620  219.8360 C   0  0  0  0  0  0  0  0  0  0  0  0
  145.2340   72.1400  218.6770 C   0  0  0  0  0  0  0  0  0  0  0  0
  146.3100   73.0230  219.1270 N   0  0  0  0  0  0  0  0  0  0  0  0
  146.1600   73.4420  220.4870 C   0  0  0  0  0  0  0  0  0  0  0  0
  144.7790   73.9670  220.8180 C   0  0  0  0  0  0  0  0  0  0  0  0
  140.6750   71.5700  224.5970 C   0  0  0  0  0  0  0  0  0  0  0  0
  140.8290   70.5450  225.5220 C   0  0  0  0  0  0  0  0  0  0  0  0
  140.9160   68.8670  228.5660 H   0  0  0  0  0  0  0  0  0  0  0  0
  139.6730   67.7650  228.7160 H   0  0  0  0  0  0  0  0  0  0  0  0
  138.5663   68.3849  224.3004 H   0  0  0  0  0  0  0  0  0  0  0  0
  138.3005   70.1817  222.6872 H   0  0  0  0  0  0  0  0  0  0  0  0
  138.6673   73.1420  222.6272 H   0  0  0  0  0  0  0  0  0  0  0  0
  140.8560   72.0374  220.9807 H   0  0  0  0  0  0  0  0  0  0  0  0
  138.9529   77.1136  223.4254 H   0  0  0  0  0  0  0  0  0  0  0  0
  139.5076   79.5330  223.1949 H   0  0  0  0  0  0  0  0  0  0  0  0
  142.5739   78.5154  220.3257 H   0  0  0  0  0  0  0  0  0  0  0  0
  141.8208   72.7429  219.5690 H   0  0  0  0  0  0  0  0  0  0  0  0
  142.9389   74.0401  218.9014 H   0  0  0  0  0  0  0  0  0  0  0  0
  143.2529   72.5377  221.4141 H   0  0  0  0  0  0  0  0  0  0  0  0
  144.9438   71.2253  220.5826 H   0  0  0  0  0  0  0  0  0  0  0  0
  143.5295   71.1370  219.4330 H   0  0  0  0  0  0  0  0  0  0  0  0
  145.6711   71.2279  218.2445 H   0  0  0  0  0  0  0  0  0  0  0  0
  144.6332   72.6675  217.9215 H   0  0  0  0  0  0  0  0  0  0  0  0
  146.5130   73.7750  218.4460 H   0  0  0  0  0  0  0  0  0  0  0  0
  146.3691   72.5816  221.1396 H   0  0  0  0  0  0  0  0  0  0  0  0
  146.8638   74.2725  220.6449 H   0  0  0  0  0  0  0  0  0  0  0  0
  144.7335   74.2078  221.8904 H   0  0  0  0  0  0  0  0  0  0  0  0
  144.5920   74.8659  220.2122 H   0  0  0  0  0  0  0  0  0  0  0  0
  141.2909   72.4757  224.6995 H   0  0  0  0  0  0  0  0  0  0  0  0
  141.5587   70.6529  226.3381 H   0  0  0  0  0  0  0  0  0  0  0  0
  1  2  1  0
  2  3  2  0
  2  4  2  0
  2  5  1  0
  5  6  2  0
  6  7  1  0
  7  8  2  0
  8  9  1  0
  9 10  2  0
 10 11  1  0
 11 12  2  0
 12 13  1  0
 13 14  2  0
 14 15  1  0
 15 16  2  0
 16 17  1  0
 16 18  1  0
 18 19  2  0
 19 20  1  0
 20 21  2  0
 20 22  1  0
 22 23  1  0
 23 24  1  0
 24 25  1  0
 25 26  1  0
 26 27  1  0
 27 28  1  0
 28 29  1  0
  8 30  1  0
 30 31  2  0
 31  5  1  0
 22 11  1  0
 29 24  1  0
 19 13  1  0
  1 32  1  0
  1 33  1  0
  6 34  1  0
  7 35  1  0
  9 36  1  0
 10 37  1  0
 14 38  1  0
 15 39  1  0
 18 40  1  0
 23 41  1  0
 23 42  1  0
 24 43  1  0
 25 44  1  0
 25 45  1  0
 26 46  1  0
 26 47  1  0
 27 48  1  0
 28 49  1  0
 28 50  1  0
 29 51  1  0
 29 52  1  0
 30 53  1  0
 31 54  1  0
M  END
>  <smiles>  (3) 
NS(=O)(=O)c1ccc(/C=C/c2nc3ccc(F)cc3c(=O)n2CC2CCNCC2)cc1

>  <score_type>  (3) 
oracle

>  <origin>  (3) 
autodockgpu

>  <m_score__min__energy>  (3) 
-10.24

>  <m_primary>  (3) 
energy

>  <rmsd>  (3) 
8.124380416148492

>  <m_score__min__rmsd>  (3) 
8.124380416148492

>  <meeko>  (3) 
{"free_energy": -9.93, "intermolecular_energy": -12.02, "internal_energy": -1.19, "cluster_size": 13, "cluster_id": 1, "rank_in_cluster": 5}

>  <energy>  (3) 
-10.03

>  <cluster_rmsd>  (3) 
0.57

>  <cluster>  (3) 
1

$$$$

     RDKit          3D

 54 57  0  0  0  0  0  0  0  0999 V2000
  142.6990   79.2670  222.4720 N   0  0  0  0  0  0  0  0  0  0  0  0
  141.1670   79.0160  221.7150 S   0  0  0  0  0  0  0  0  0  0  0  0
  141.2650   79.4450  220.2900 O   0  0  0  0  0  0  0  0  0  0  0  0
  140.1040   79.8760  222.3620 O   0  0  0  0  0  0  0  0  0  0  0  0
  140.7160   77.3300  221.7840 C   0  0  0  0  0  0  0  0  0  0  0  0
  139.5820   76.9730  222.4580 C   0  0  0  0  0  0  0  0  0  0  0  0
  139.1950   75.6700  222.5360 C   0  0  0  0  0  0  0  0  0  0  0  0
  139.9150   74.6230  221.9450 C   0  0  0  0  0  0  0  0  0  0  0  0
  139.4640   73.2420  222.0530 C   0  0  0  0  0  0  0  0  0  0  0  0
  140.2620   72.2070  222.1870 C   0  0  0  0  0  0  0  0  0  0  0  0
  140.1230   71.3310  223.3460 C   0  0  0  0  0  0  0  0  0  0  0  0
  140.6500   71.7590  224.5310 N   0  0  0  0  0  0  0  0  0  0  0  0
  140.5990   71.0650  225.6630 C   0  0  0  0  0  0  0  0  0  0  0  0
  141.1500   71.5460  226.8410 C   0  0  0  0  0  0  0  0  0  0  0  0
  141.0770   70.7980  227.9970 C   0  0  0  0  0  0  0  0  0  0  0  0
  140.4500   69.5790  227.9380 C   0  0  0  0  0  0  0  0  0  0  0  0
  140.3970   68.8640  229.1000 F   0  0  0  0  0  0  0  0  0  0  0  0
  139.8910   69.0820  226.7570 C   0  0  0  0  0  0  0  0  0  0  0  0
  139.9620   69.8250  225.6070 C   0  0  0  0  0  0  0  0  0  0  0  0
  139.4340   69.4040  224.4050 C   0  0  0  0  0  0  0  0  0  0  0  0
  138.8640   68.2600  224.4330 O   0  0  0  0  0  0  0  0  0  0  0  0
  139.4990   70.1260  223.2700 N   0  0  0  0  0  0  0  0  0  0  0  0
  138.9570   69.6660  222.0230 C   0  0  0  0  0  0  0  0  0  0  0  0
  137.5090   69.9580  221.8200 C   0  0  0  0  0  0  0  0  0  0  0  0
  136.6330   69.8540  223.0130 C   0  0  0  0  0  0  0  0  0  0  0  0
  136.7390   71.0460  223.9370 C   0  0  0  0  0  0  0  0  0  0  0  0
  136.3740   72.2740  223.2310 N   0  0  0  0  0  0  0  0  0  0  0  0
  136.1750   72.0770  221.8280 C   0  0  0  0  0  0  0  0  0  0  0  0
  137.2920   71.3110  221.1530 C   0  0  0  0  0  0  0  0  0  0  0  0
  141.0540   75.0030  221.2700 C   0  0  0  0  0  0  0  0  0  0  0  0
  141.4570   76.3290  221.1850 C   0  0  0  0  0  0  0  0  0  0  0  0
  143.3180   79.7480  221.7760 H   0  0  0  0  0  0  0  0  0  0  0  0
  143.1150   78.3060  222.5870 H   0  0  0  0  0  0  0  0  0  0  0  0
  138.9733   77.7494  222.9444 H   0  0  0  0  0  0  0  0  0  0  0  0
  138.2750   75.4280  223.0882 H   0  0  0  0  0  0  0  0  0  0  0  0
  138.3809   73.0528  222.0201 H   0  0  0  0  0  0  0  0  0  0  0  0
  141.0318   72.0015  221.4287 H   0  0  0  0  0  0  0  0  0  0  0  0
  141.6469   72.5273  226.8533 H   0  0  0  0  0  0  0  0  0  0  0  0
  141.5087   71.1677  228.9388 H   0  0  0  0  0  0  0  0  0  0  0  0
  139.3965   68.0994  226.7504 H   0  0  0  0  0  0  0  0  0  0  0  0
  139.5195   70.1459  221.2086 H   0  0  0  0  0  0  0  0  0  0  0  0
  139.0516   68.5701  222.0319 H   0  0  0  0  0  0  0  0  0  0  0  0
  137.1947   69.1381  221.1574 H   0  0  0  0  0  0  0  0  0  0  0  0
  135.5902   69.7663  222.6741 H   0  0  0  0  0  0  0  0  0  0  0  0
  136.9592   68.9705  223.5814 H   0  0  0  0  0  0  0  0  0  0  0  0
  136.0604   70.9038  224.7910 H   0  0  0  0  0  0  0  0  0  0  0  0
  137.7775   71.1327  224.2890 H   0  0  0  0  0  0  0  0  0  0  0  0
  136.9780   73.0720  223.4910 H   0  0  0  0  0  0  0  0  0  0  0  0
  135.2374   71.5196  221.6859 H   0  0  0  0  0  0  0  0  0  0  0  0
  136.1467   73.0748  221.3658 H   0  0  0  0  0  0  0  0  0  0  0  0
  137.0319   71.1531  220.0959 H   0  0  0  0  0  0  0  0  0  0  0  0
  138.2194   71.8963  221.2391 H   0  0  0  0  0  0  0  0  0  0  0  0
  141.6651   74.2296  220.7817 H   0  0  0  0  0  0  0  0  0  0  0  0
  142.3749   76.5852  220.6356 H   0  0  0  0  0  0  0  0  0  0  0  0
  1  2  1  0
  2  3  2  0
  2  4  2  0
  2  5  1  0
  5  6  2  0
  6  7  1  0
  7  8  2  0
  8  9  1  0
  9 10  2  0
 10 11  1  0
 11 12  2  0
 12 13  1  0
 13 14  2  0
 14 15  1  0
 15 16  2  0
 16 17  1  0
 16 18  1  0
 18 19  2  0
 19 20  1  0
 20 21  2  0
 20 22  1  0
 22 23  1  0
 23 24  1  0
 24 25  1  0
 25 26  1  0
 26 27  1  0
 27 28  1  0
 28 29  1  0
  8 30  1  0
 30 31  2  0
 31  5  1  0
 22 11  1  0
 29 24  1  0
 19 13  1  0
  1 32  1  0
  1 33  1  0
  6 34  1  0
  7 35  1  0
  9 36  1  0
 10 37  1  0
 14 38  1  0
 15 39  1  0
 18 40  1  0
 23 41  1  0
 23 42  1  0
 24 43  1  0
 25 44  1  0
 25 45  1  0
 26 46  1  0
 26 47  1  0
 27 48  1  0
 28 49  1  0
 28 50  1  0
 29 51  1  0
 29 52  1  0
 30 53  1  0
 31 54  1  0
M  END
>  <smiles>  (4) 
NS(=O)(=O)c1ccc(/C=C/c2nc3ccc(F)cc3c(=O)n2CC2CCNCC2)cc1

>  <score_type>  (4) 
oracle

>  <origin>  (4) 
autodockgpu

>  <m_score__min__energy>  (4) 
-10.24

>  <m_primary>  (4) 
energy

>  <rmsd>  (4) 
10.552971855930167

>  <m_score__min__rmsd>  (4) 
10.552971855930167

>  <meeko>  (4) 
{"free_energy": -8.43, "intermolecular_energy": -10.51, "internal_energy": -1.52, "cluster_size": 10, "cluster_id": 4, "rank_in_cluster": 2}

>  <energy>  (4) 
-10.01

>  <cluster_rmsd>  (4) 
0.94

>  <cluster>  (4) 
1

$$$$

     RDKit          3D

 54 57  0  0  0  0  0  0  0  0999 V2000
  145.9370   73.2570  218.7660 N   0  0  0  0  0  0  0  0  0  0  0  0
  145.1950   73.5060  220.3060 S   0  0  0  0  0  0  0  0  0  0  0  0
  146.2020   74.1090  221.2270 O   0  0  0  0  0  0  0  0  0  0  0  0
  144.7730   72.1880  220.9160 O   0  0  0  0  0  0  0  0  0  0  0  0
  143.8250   74.5800  220.1610 C   0  0  0  0  0  0  0  0  0  0  0  0
  144.0330   75.8680  219.7540 C   0  0  0  0  0  0  0  0  0  0  0  0
  142.9930   76.7390  219.6290 C   0  0  0  0  0  0  0  0  0  0  0  0
  141.6650   76.3850  219.9010 C   0  0  0  0  0  0  0  0  0  0  0  0
  140.5820   77.3480  219.7530 C   0  0  0  0  0  0  0  0  0  0  0  0
  140.3930   78.3840  220.5380 C   0  0  0  0  0  0  0  0  0  0  0  0
  140.7400   79.7220  220.0700 C   0  0  0  0  0  0  0  0  0  0  0  0
  141.4630   79.8220  218.9150 N   0  0  0  0  0  0  0  0  0  0  0  0
  141.8500   80.9720  218.3750 C   0  0  0  0  0  0  0  0  0  0  0  0
  142.5830   81.0190  217.1990 C   0  0  0  0  0  0  0  0  0  0  0  0
  142.9660   82.2320  216.6680 C   0  0  0  0  0  0  0  0  0  0  0  0
  142.6010   83.3740  217.3370 C   0  0  0  0  0  0  0  0  0  0  0  0
  142.9980   84.5570  216.7840 F   0  0  0  0  0  0  0  0  0  0  0  0
  141.8630   83.3410  218.5240 C   0  0  0  0  0  0  0  0  0  0  0  0
  141.4810   82.1350  219.0520 C   0  0  0  0  0  0  0  0  0  0  0  0
  140.7510   82.0210  220.2180 C   0  0  0  0  0  0  0  0  0  0  0  0
  140.4480   83.1290  220.7790 O   0  0  0  0  0  0  0  0  0  0  0  0
  140.3710   80.8420  220.7450 N   0  0  0  0  0  0  0  0  0  0  0  0
  139.6240   80.7410  221.9670 C   0  0  0  0  0  0  0  0  0  0  0  0
  140.4470   80.7620  223.2100 C   0  0  0  0  0  0  0  0  0  0  0  0
  140.7440   79.4500  223.8370 C   0  0  0  0  0  0  0  0  0  0  0  0
  141.8410   78.6860  223.1310 C   0  0  0  0  0  0  0  0  0  0  0  0
  143.0820   79.4610  223.1260 N   0  0  0  0  0  0  0  0  0  0  0  0
  142.9160   80.7900  223.6270 C   0  0  0  0  0  0  0  0  0  0  0  0
  141.7470   81.5330  223.0170 C   0  0  0  0  0  0  0  0  0  0  0  0
  141.4760   75.0830  220.3090 C   0  0  0  0  0  0  0  0  0  0  0  0
  142.5300   74.1890  220.4400 C   0  0  0  0  0  0  0  0  0  0  0  0
  146.4460   74.1400  218.5170 H   0  0  0  0  0  0  0  0  0  0  0  0
  145.1420   73.1980  218.0780 H   0  0  0  0  0  0  0  0  0  0  0  0
  145.0542   76.2060  219.5242 H   0  0  0  0  0  0  0  0  0  0  0  0
  143.2055   77.7668  219.2996 H   0  0  0  0  0  0  0  0  0  0  0  0
  139.8728   77.1969  218.9259 H   0  0  0  0  0  0  0  0  0  0  0  0
  139.9743   78.2435  221.5454 H   0  0  0  0  0  0  0  0  0  0  0  0
  142.8598   80.0851  216.6880 H   0  0  0  0  0  0  0  0  0  0  0  0
  143.5471   82.2835  215.7355 H   0  0  0  0  0  0  0  0  0  0  0  0
  141.5903   84.2780  219.0316 H   0  0  0  0  0  0  0  0  0  0  0  0
  138.9210   81.5860  222.0085 H   0  0  0  0  0  0  0  0  0  0  0  0
  139.1259   79.7605  221.9436 H   0  0  0  0  0  0  0  0  0  0  0  0
  139.7853   81.2796  223.9201 H   0  0  0  0  0  0  0  0  0  0  0  0
  141.0529   79.6224  224.8786 H   0  0  0  0  0  0  0  0  0  0  0  0
  139.8292   78.8426  223.7719 H   0  0  0  0  0  0  0  0  0  0  0  0
  142.0115   77.7324  223.6522 H   0  0  0  0  0  0  0  0  0  0  0  0
  141.5332   78.4995  222.0915 H   0  0  0  0  0  0  0  0  0  0  0  0
  143.5930   79.3790  222.2300 H   0  0  0  0  0  0  0  0  0  0  0  0
  142.7612   80.7335  224.7146 H   0  0  0  0  0  0  0  0  0  0  0  0
  143.8248   81.3486  223.3587 H   0  0  0  0  0  0  0  0  0  0  0  0
  141.6559   82.5175  223.4991 H   0  0  0  0  0  0  0  0  0  0  0  0
  141.9294   81.6465  221.9382 H   0  0  0  0  0  0  0  0  0  0  0  0
  140.4563   74.7403  220.5386 H   0  0  0  0  0  0  0  0  0  0  0  0
  142.3317   73.1584  220.7695 H   0  0  0  0  0  0  0  0  0  0  0  0
  1  2  1  0
  2  3  2  0
  2  4  2  0
  2  5  1  0
  5  6  2  0
  6  7  1  0
  7  8  2  0
  8  9  1  0
  9 10  2  0
 10 11  1  0
 11 12  2  0
 12 13  1  0
 13 14  2  0
 14 15  1  0
 15 16  2  0
 16 17  1  0
 16 18  1  0
 18 19  2  0
 19 20  1  0
 20 21  2  0
 20 22  1  0
 22 23  1  0
 23 24  1  0
 24 25  1  0
 25 26  1  0
 26 27  1  0
 27 28  1  0
 28 29  1  0
  8 30  1  0
 30 31  2  0
 31  5  1  0
 22 11  1  0
 29 24  1  0
 19 13  1  0
  1 32  1  0
  1 33  1  0
  6 34  1  0
  7 35  1  0
  9 36  1  0
 10 37  1  0
 14 38  1  0
 15 39  1  0
 18 40  1  0
 23 41  1  0
 23 42  1  0
 24 43  1  0
 25 44  1  0
 25 45  1  0
 26 46  1  0
 26 47  1  0
 27 48  1  0
 28 49  1  0
 28 50  1  0
 29 51  1  0
 29 52  1  0
 30 53  1  0
 31 54  1  0
M  END
>  <smiles>  (5) 
NS(=O)(=O)c1ccc(/C=C/c2nc3ccc(F)cc3c(=O)n2CC2CCNCC2)cc1

>  <score_type>  (5) 
oracle

>  <origin>  (5) 
autodockgpu

>  <m_score__min__energy>  (5) 
-10.24

>  <m_primary>  (5) 
energy

>  <rmsd>  (5) 
5.165050048812514

>  <m_score__min__rmsd>  (5) 
5.165050048812514

>  <meeko>  (5) 
{"free_energy": -8.37, "intermolecular_energy": -10.46, "internal_energy": -1.54, "cluster_size": 4, "cluster_id": 5, "rank_in_cluster": 1}

>  <energy>  (5) 
-9.93

>  <cluster_rmsd>  (5) 
1.14

>  <cluster>  (5) 
1

$$$$

     RDKit          3D

 54 57  0  0  0  0  0  0  0  0999 V2000
  145.9450   73.4370  218.1990 N   0  0  0  0  0  0  0  0  0  0  0  0
  145.7430   72.7030  219.7500 S   0  0  0  0  0  0  0  0  0  0  0  0
  146.7040   73.3330  220.7020 O   0  0  0  0  0  0  0  0  0  0  0  0
  146.0800   71.2300  219.6930 O   0  0  0  0  0  0  0  0  0  0  0  0
  144.1120   72.9370  220.3320 C   0  0  0  0  0  0  0  0  0  0  0  0
  143.4160   71.8590  220.8020 C   0  0  0  0  0  0  0  0  0  0  0  0
  142.1420   71.9970  221.2640 C   0  0  0  0  0  0  0  0  0  0  0  0
  141.4690   73.2250  221.2910 C   0  0  0  0  0  0  0  0  0  0  0  0
  140.1060   73.3280  221.7950 C   0  0  0  0  0  0  0  0  0  0  0  0
  139.2610   72.3240  221.8690 C   0  0  0  0  0  0  0  0  0  0  0  0
  139.3540   71.3790  222.9780 C   0  0  0  0  0  0  0  0  0  0  0  0
  140.0600   71.7640  224.0810 N   0  0  0  0  0  0  0  0  0  0  0  0
  140.2290   71.0070  225.1600 C   0  0  0  0  0  0  0  0  0  0  0  0
  140.9560   71.4460  226.2560 C   0  0  0  0  0  0  0  0  0  0  0  0
  141.1090   70.6320  227.3580 C   0  0  0  0  0  0  0  0  0  0  0  0
  140.5240   69.3900  227.3290 C   0  0  0  0  0  0  0  0  0  0  0  0
  140.6970   68.6090  228.4370 F   0  0  0  0  0  0  0  0  0  0  0  0
  139.7900   68.9350  226.2310 C   0  0  0  0  0  0  0  0  0  0  0  0
  139.6370   69.7440  225.1340 C   0  0  0  0  0  0  0  0  0  0  0  0
  138.9260   69.3660  224.0140 C   0  0  0  0  0  0  0  0  0  0  0  0
  138.4110   68.1980  224.0660 O   0  0  0  0  0  0  0  0  0  0  0  0
  138.7700   70.1530  222.9320 N   0  0  0  0  0  0  0  0  0  0  0  0
  138.0390   69.7390  221.7680 C   0  0  0  0  0  0  0  0  0  0  0  0
  138.8260   68.9430  220.7820 C   0  0  0  0  0  0  0  0  0  0  0  0
  138.4500   69.0880  219.3540 C   0  0  0  0  0  0  0  0  0  0  0  0
  138.9650   70.3630  218.7280 C   0  0  0  0  0  0  0  0  0  0  0  0
  140.4250   70.4160  218.8040 N   0  0  0  0  0  0  0  0  0  0  0  0
  140.9850   69.3560  219.5840 C   0  0  0  0  0  0  0  0  0  0  0  0
  140.3240   69.1740  220.9340 C   0  0  0  0  0  0  0  0  0  0  0  0
  142.1880   74.2990  220.8140 C   0  0  0  0  0  0  0  0  0  0  0  0
  143.4860   74.1680  220.3400 C   0  0  0  0  0  0  0  0  0  0  0  0
  146.8590   73.9520  218.2130 H   0  0  0  0  0  0  0  0  0  0  0  0
  145.2090   74.1880  218.1470 H   0  0  0  0  0  0  0  0  0  0  0  0
  143.8908   70.8668  220.8073 H   0  0  0  0  0  0  0  0  0  0  0  0
  141.6178   71.1030  221.6328 H   0  0  0  0  0  0  0  0  0  0  0  0
  139.7601   74.3145  222.1374 H   0  0  0  0  0  0  0  0  0  0  0  0
  138.4866   72.1962  221.0983 H   0  0  0  0  0  0  0  0  0  0  0  0
  141.4121   72.4469  226.2461 H   0  0  0  0  0  0  0  0  0  0  0  0
  141.6827   70.9675  228.2346 H   0  0  0  0  0  0  0  0  0  0  0  0
  139.3369   67.9328  226.2461 H   0  0  0  0  0  0  0  0  0  0  0  0
  137.1873   69.1268  222.0993 H   0  0  0  0  0  0  0  0  0  0  0  0
  137.7371   70.6609  221.2494 H   0  0  0  0  0  0  0  0  0  0  0  0
  138.5589   67.9096  221.0481 H   0  0  0  0  0  0  0  0  0  0  0  0
  138.8613   68.2339  218.7960 H   0  0  0  0  0  0  0  0  0  0  0  0
  137.3515   69.1223  219.3077 H   0  0  0  0  0  0  0  0  0  0  0  0
  138.6556   70.3993  217.6730 H   0  0  0  0  0  0  0  0  0  0  0  0
  138.5482   71.2219  219.2744 H   0  0  0  0  0  0  0  0  0  0  0  0
  140.7740   71.3660  219.0200 H   0  0  0  0  0  0  0  0  0  0  0  0
  140.8823   68.4181  219.0186 H   0  0  0  0  0  0  0  0  0  0  0  0
  142.0355   69.6202  219.7753 H   0  0  0  0  0  0  0  0  0  0  0  0
  140.7722   68.3061  221.4399 H   0  0  0  0  0  0  0  0  0  0  0  0
  140.4792   70.0879  221.5261 H   0  0  0  0  0  0  0  0  0  0  0  0
  141.7178   75.2934  220.8086 H   0  0  0  0  0  0  0  0  0  0  0  0
  144.0214   75.0535  219.9670 H   0  0  0  0  0  0  0  0  0  0  0  0
  1  2  1  0
  2  3  2  0
  2  4  2  0
  2  5  1  0
  5  6  2  0
  6  7  1  0
  7  8  2  0
  8  9  1  0
  9 10  2  0
 10 11  1  0
 11 12  2  0
 12 13  1  0
 13 14  2  0
 14 15  1  0
 15 16  2  0
 16 17  1  0
 16 18  1  0
 18 19  2  0
 19 20  1  0
 20 21  2  0
 20 22  1  0
 22 23  1  0
 23 24  1  0
 24 25  1  0
 25 26  1  0
 26 27  1  0
 27 28  1  0
 28 29  1  0
  8 30  1  0
 30 31  2  0
 31  5  1  0
 22 11  1  0
 29 24  1  0
 19 13  1  0
  1 32  1  0
  1 33  1  0
  6 34  1  0
  7 35  1  0
  9 36  1  0
 10 37  1  0
 14 38  1  0
 15 39  1  0
 18 40  1  0
 23 41  1  0
 23 42  1  0
 24 43  1  0
 25 44  1  0
 25 45  1  0
 26 46  1  0
 26 47  1  0
 27 48  1  0
 28 49  1  0
 28 50  1  0
 29 51  1  0
 29 52  1  0
 30 53  1  0
 31 54  1  0
M  END
>  <smiles>  (6) 
NS(=O)(=O)c1ccc(/C=C/c2nc3ccc(F)cc3c(=O)n2CC2CCNCC2)cc1

>  <score_type>  (6) 
oracle

>  <origin>  (6) 
autodockgpu

>  <m_score__min__energy>  (6) 
-10.24

>  <m_primary>  (6) 
energy

>  <rmsd>  (6) 
11.091476374245136

>  <m_score__min__rmsd>  (6) 
11.091476374245136

>  <meeko>  (6) 
{"free_energy": -7.9, "intermolecular_energy": -9.98, "internal_energy": -2.0, "cluster_size": 12, "cluster_id": 2, "rank_in_cluster": 11}

>  <energy>  (6) 
-9.93

>  <cluster_rmsd>  (6) 
1.04

>  <cluster>  (6) 
1

$$$$

     RDKit          3D

 54 57  0  0  0  0  0  0  0  0999 V2000
  146.5960   74.1250  220.5650 N   0  0  0  0  0  0  0  0  0  0  0  0
  145.8730   72.8060  219.7150 S   0  0  0  0  0  0  0  0  0  0  0  0
  146.6670   71.5730  219.9890 O   0  0  0  0  0  0  0  0  0  0  0  0
  145.9230   73.0400  218.2220 O   0  0  0  0  0  0  0  0  0  0  0  0
  144.2250   72.5650  220.2420 C   0  0  0  0  0  0  0  0  0  0  0  0
  143.6650   71.3250  220.1190 C   0  0  0  0  0  0  0  0  0  0  0  0
  142.3820   71.0940  220.5170 C   0  0  0  0  0  0  0  0  0  0  0  0
  141.5640   72.0880  221.0690 C   0  0  0  0  0  0  0  0  0  0  0  0
  140.1980   71.7970  221.4820 C   0  0  0  0  0  0  0  0  0  0  0  0
  139.7000   72.0820  222.6640 C   0  0  0  0  0  0  0  0  0  0  0  0
  139.7690   71.0960  223.7370 C   0  0  0  0  0  0  0  0  0  0  0  0
  140.3420   71.4800  224.9150 N   0  0  0  0  0  0  0  0  0  0  0  0
  140.4740   70.6870  225.9730 C   0  0  0  0  0  0  0  0  0  0  0  0
  141.0650   71.1260  227.1490 C   0  0  0  0  0  0  0  0  0  0  0  0
  141.1830   70.2750  228.2260 C   0  0  0  0  0  0  0  0  0  0  0  0
  140.7020   68.9960  228.0940 C   0  0  0  0  0  0  0  0  0  0  0  0
  140.8370   68.1790  229.1800 F   0  0  0  0  0  0  0  0  0  0  0  0
  140.1050   68.5400  226.9150 C   0  0  0  0  0  0  0  0  0  0  0  0
  139.9870   69.3860  225.8430 C   0  0  0  0  0  0  0  0  0  0  0  0
  139.4090   69.0100  224.6480 C   0  0  0  0  0  0  0  0  0  0  0  0
  138.9850   67.8050  224.6050 O   0  0  0  0  0  0  0  0  0  0  0  0
  139.2880   69.8330  223.5890 N   0  0  0  0  0  0  0  0  0  0  0  0
  138.6980   69.4210  222.3470 C   0  0  0  0  0  0  0  0  0  0  0  0
  137.2530   69.7560  222.1960 C   0  0  0  0  0  0  0  0  0  0  0  0
  136.4470   69.8170  223.4410 C   0  0  0  0  0  0  0  0  0  0  0  0
  136.6550   71.0920  224.2240 C   0  0  0  0  0  0  0  0  0  0  0  0
  136.2960   72.2550  223.4130 N   0  0  0  0  0  0  0  0  0  0  0  0
  136.0050   71.9220  222.0530 C   0  0  0  0  0  0  0  0  0  0  0  0
  137.0480   71.0400  221.4020 C   0  0  0  0  0  0  0  0  0  0  0  0
  142.1470   73.3300  221.1850 C   0  0  0  0  0  0  0  0  0  0  0  0
  143.4530   73.5750  220.7820 C   0  0  0  0  0  0  0  0  0  0  0  0
  147.0700   74.7340  219.8550 H   0  0  0  0  0  0  0  0  0  0  0  0
  147.3800   73.7000  221.1260 H   0  0  0  0  0  0  0  0  0  0  0  0
  144.2575   70.5019  219.6930 H   0  0  0  0  0  0  0  0  0  0  0  0
  141.9702   70.0808  220.3993 H   0  0  0  0  0  0  0  0  0  0  0  0
  139.5372   71.3043  220.7536 H   0  0  0  0  0  0  0  0  0  0  0  0
  139.2324   73.0613  222.8440 H   0  0  0  0  0  0  0  0  0  0  0  0
  141.4407   72.1573  227.2217 H   0  0  0  0  0  0  0  0  0  0  0  0
  141.6490   70.6105  229.1642 H   0  0  0  0  0  0  0  0  0  0  0  0
  139.7318   67.5074  226.8479 H   0  0  0  0  0  0  0  0  0  0  0  0
  139.2489   69.9082  221.5290 H   0  0  0  0  0  0  0  0  0  0  0  0
  138.7639   68.3232  222.3237 H   0  0  0  0  0  0  0  0  0  0  0  0
  136.8682   68.8862  221.6433 H   0  0  0  0  0  0  0  0  0  0  0  0
  135.3830   69.7416  223.1724 H   0  0  0  0  0  0  0  0  0  0  0  0
  136.7722   68.9839  224.0815 H   0  0  0  0  0  0  0  0  0  0  0  0
  136.0245   71.0704  225.1251 H   0  0  0  0  0  0  0  0  0  0  0  0
  137.7157   71.1679  224.5053 H   0  0  0  0  0  0  0  0  0  0  0  0
  136.9460   73.0480  223.5520 H   0  0  0  0  0  0  0  0  0  0  0  0
  135.0394   71.3959  222.0240 H   0  0  0  0  0  0  0  0  0  0  0  0
  135.9880   72.8664  221.4892 H   0  0  0  0  0  0  0  0  0  0  0  0
  136.7179   70.7843  220.3843 H   0  0  0  0  0  0  0  0  0  0  0  0
  138.0009   71.5888  221.3727 H   0  0  0  0  0  0  0  0  0  0  0  0
  141.5584   74.1558  221.6112 H   0  0  0  0  0  0  0  0  0  0  0  0
  143.8771   74.5838  220.8939 H   0  0  0  0  0  0  0  0  0  0  0  0
  1  2  1  0
  2  3  2  0
  2  4  2  0
  2  5  1  0
  5  6  2  0
  6  7  1  0
  7  8  2  0
  8  9  1  0
  9 10  2  0
 10 11  1  0
 11 12  2  0
 12 13  1  0
 13 14  2  0
 14 15  1  0
 15 16  2  0
 16 17  1  0
 16 18  1  0
 18 19  2  0
 19 20  1  0
 20 21  2  0
 20 22  1  0
 22 23  1  0
 23 24  1  0
 24 25  1  0
 25 26  1  0
 26 27  1  0
 27 28  1  0
 28 29  1  0
  8 30  1  0
 30 31  2  0
 31  5  1  0
 22 11  1  0
 29 24  1  0
 19 13  1  0
  1 32  1  0
  1 33  1  0
  6 34  1  0
  7 35  1  0
  9 36  1  0
 10 37  1  0
 14 38  1  0
 15 39  1  0
 18 40  1  0
 23 41  1  0
 23 42  1  0
 24 43  1  0
 25 44  1  0
 25 45  1  0
 26 46  1  0
 26 47  1  0
 27 48  1  0
 28 49  1  0
 28 50  1  0
 29 51  1  0
 29 52  1  0
 30 53  1  0
 31 54  1  0
M  END
>  <smiles>  (7) 
NS(=O)(=O)c1ccc(/C=C/c2nc3ccc(F)cc3c(=O)n2CC2CCNCC2)cc1

>  <score_type>  (7) 
oracle

>  <origin>  (7) 
autodockgpu

>  <m_score__min__energy>  (7) 
-10.24

>  <m_primary>  (7) 
energy

>  <rmsd>  (7) 
10.868227962114263

>  <m_score__min__rmsd>  (7) 
10.868227962114263

>  <meeko>  (7) 
{"free_energy": -8.69, "intermolecular_energy": -10.77, "internal_energy": -1.31, "cluster_size": 12, "cluster_id": 2, "rank_in_cluster": 7}

>  <energy>  (7) 
-9.88

>  <cluster_rmsd>  (7) 
0.9

>  <cluster>  (7) 
1

$$$$

     RDKit          3D

 54 57  0  0  0  0  0  0  0  0999 V2000
  146.1170   73.4290  218.7690 N   0  0  0  0  0  0  0  0  0  0  0  0
  145.1190   73.4390  220.1790 S   0  0  0  0  0  0  0  0  0  0  0  0
  145.9450   73.8770  221.3420 O   0  0  0  0  0  0  0  0  0  0  0  0
  144.6210   72.0460  220.4910 O   0  0  0  0  0  0  0  0  0  0  0  0
  143.7770   74.5380  219.9740 C   0  0  0  0  0  0  0  0  0  0  0  0
  142.7260   74.4710  220.8450 C   0  0  0  0  0  0  0  0  0  0  0  0
  141.6590   75.3090  220.7200 C   0  0  0  0  0  0  0  0  0  0  0  0
  141.5640   76.2780  219.7130 C   0  0  0  0  0  0  0  0  0  0  0  0
  140.4050   77.1550  219.6170 C   0  0  0  0  0  0  0  0  0  0  0  0
  140.1850   78.1880  220.3970 C   0  0  0  0  0  0  0  0  0  0  0  0
  140.6280   79.5160  219.9830 C   0  0  0  0  0  0  0  0  0  0  0  0
  141.3560   79.6120  218.8320 N   0  0  0  0  0  0  0  0  0  0  0  0
  141.8240   80.7530  218.3390 C   0  0  0  0  0  0  0  0  0  0  0  0
  142.5590   80.7950  217.1640 C   0  0  0  0  0  0  0  0  0  0  0  0
  143.0290   81.9990  216.6820 C   0  0  0  0  0  0  0  0  0  0  0  0
  142.7460   83.1350  217.3990 C   0  0  0  0  0  0  0  0  0  0  0  0
  143.2260   84.3090  216.8940 F   0  0  0  0  0  0  0  0  0  0  0  0
  142.0070   83.1060  218.5850 C   0  0  0  0  0  0  0  0  0  0  0  0
  141.5390   81.9100  219.0640 C   0  0  0  0  0  0  0  0  0  0  0  0
  140.8020   81.8010  220.2260 C   0  0  0  0  0  0  0  0  0  0  0  0
  140.5800   82.9040  220.8330 O   0  0  0  0  0  0  0  0  0  0  0  0
  140.3390   80.6310  220.7050 N   0  0  0  0  0  0  0  0  0  0  0  0
  139.5870   80.5330  221.9240 C   0  0  0  0  0  0  0  0  0  0  0  0
  140.4090   80.4400  223.1650 C   0  0  0  0  0  0  0  0  0  0  0  0
  140.9850   79.1110  223.4860 C   0  0  0  0  0  0  0  0  0  0  0  0
  142.2040   78.7730  222.6600 C   0  0  0  0  0  0  0  0  0  0  0  0
  143.2560   79.7690  222.8690 N   0  0  0  0  0  0  0  0  0  0  0  0
  142.8240   80.8840  223.6530 C   0  0  0  0  0  0  0  0  0  0  0  0
  141.5150   81.4880  223.1920 C   0  0  0  0  0  0  0  0  0  0  0  0
  142.6330   76.3300  218.8460 C   0  0  0  0  0  0  0  0  0  0  0  0
  143.7240   75.4800  218.9650 C   0  0  0  0  0  0  0  0  0  0  0  0
  146.9850   73.9720  218.9950 H   0  0  0  0  0  0  0  0  0  0  0  0
  145.6050   74.0160  218.0600 H   0  0  0  0  0  0  0  0  0  0  0  0
  142.7417   73.7304  221.6581 H   0  0  0  0  0  0  0  0  0  0  0  0
  140.8346   75.2206  221.4428 H   0  0  0  0  0  0  0  0  0  0  0  0
  139.6617   76.9365  218.8361 H   0  0  0  0  0  0  0  0  0  0  0  0
  139.6687   78.0533  221.3589 H   0  0  0  0  0  0  0  0  0  0  0  0
  142.7680   79.8653  216.6145 H   0  0  0  0  0  0  0  0  0  0  0  0
  143.6130   82.0474  215.7511 H   0  0  0  0  0  0  0  0  0  0  0  0
  141.8020   84.0384  219.1314 H   0  0  0  0  0  0  0  0  0  0  0  0
  138.9482   81.4249  222.0037 H   0  0  0  0  0  0  0  0  0  0  0  0
  139.0185   79.5934  221.8602 H   0  0  0  0  0  0  0  0  0  0  0  0
  139.6666   80.6322  223.9536 H   0  0  0  0  0  0  0  0  0  0  0  0
  141.2695   79.1011  224.5485 H   0  0  0  0  0  0  0  0  0  0  0  0
  140.2164   78.3585  223.2558 H   0  0  0  0  0  0  0  0  0  0  0  0
  142.5791   77.7824  222.9565 H   0  0  0  0  0  0  0  0  0  0  0  0
  141.9236   78.7690  221.5964 H   0  0  0  0  0  0  0  0  0  0  0  0
  143.7570   80.0020  221.9940 H   0  0  0  0  0  0  0  0  0  0  0  0
  142.7034   80.5494  224.6939 H   0  0  0  0  0  0  0  0  0  0  0  0
  143.5910   81.6653  223.5465 H   0  0  0  0  0  0  0  0  0  0  0  0
  141.2287   82.2953  223.8821 H   0  0  0  0  0  0  0  0  0  0  0  0
  141.6500   81.8811  222.1735 H   0  0  0  0  0  0  0  0  0  0  0  0
  142.6218   77.0698  218.0320 H   0  0  0  0  0  0  0  0  0  0  0  0
  144.5550   75.5574  218.2484 H   0  0  0  0  0  0  0  0  0  0  0  0
  1  2  1  0
  2  3  2  0
  2  4  2  0
  2  5  1  0
  5  6  2  0
  6  7  1  0
  7  8  2  0
  8  9  1  0
  9 10  2  0
 10 11  1  0
 11 12  2  0
 12 13  1  0
 13 14  2  0
 14 15  1  0
 15 16  2  0
 16 17  1  0
 16 18  1  0
 18 19  2  0
 19 20  1  0
 20 21  2  0
 20 22  1  0
 22 23  1  0
 23 24  1  0
 24 25  1  0
 25 26  1  0
 26 27  1  0
 27 28  1  0
 28 29  1  0
  8 30  1  0
 30 31  2  0
 31  5  1  0
 22 11  1  0
 29 24  1  0
 19 13  1  0
  1 32  1  0
  1 33  1  0
  6 34  1  0
  7 35  1  0
  9 36  1  0
 10 37  1  0
 14 38  1  0
 15 39  1  0
 18 40  1  0
 23 41  1  0
 23 42  1  0
 24 43  1  0
 25 44  1  0
 25 45  1  0
 26 46  1  0
 26 47  1  0
 27 48  1  0
 28 49  1  0
 28 50  1  0
 29 51  1  0
 29 52  1  0
 30 53  1  0
 31 54  1  0
M  END
>  <smiles>  (8) 
NS(=O)(=O)c1ccc(/C=C/c2nc3ccc(F)cc3c(=O)n2CC2CCNCC2)cc1

>  <score_type>  (8) 
oracle

>  <origin>  (8) 
autodockgpu

>  <m_score__min__energy>  (8) 
-10.24

>  <m_primary>  (8) 
energy

>  <rmsd>  (8) 
5.09583979243577

>  <m_score__min__rmsd>  (8) 
5.09583979243577

>  <meeko>  (8) 
{"free_energy": -8.28, "intermolecular_energy": -10.37, "internal_energy": -1.63, "cluster_size": 4, "cluster_id": 5, "rank_in_cluster": 2}

>  <energy>  (8) 
-9.86

>  <cluster_rmsd>  (8) 
1.0

>  <cluster>  (8) 
1

$$$$

     RDKit          3D

 54 57  0  0  0  0  0  0  0  0999 V2000
  145.1600   74.1170  217.4450 N   0  0  0  0  0  0  0  0  0  0  0  0
  145.3900   72.9880  218.7310 S   0  0  0  0  0  0  0  0  0  0  0  0
  146.5740   73.4160  219.5330 O   0  0  0  0  0  0  0  0  0  0  0  0
  145.7000   71.6120  218.1860 O   0  0  0  0  0  0  0  0  0  0  0  0
  143.9800   72.9350  219.7620 C   0  0  0  0  0  0  0  0  0  0  0  0
  143.3380   74.1020  220.0670 C   0  0  0  0  0  0  0  0  0  0  0  0
  142.2350   74.1050  220.8670 C   0  0  0  0  0  0  0  0  0  0  0  0
  141.6920   72.9390  221.4230 C   0  0  0  0  0  0  0  0  0  0  0  0
  140.5110   72.9880  222.2730 C   0  0  0  0  0  0  0  0  0  0  0  0
  139.6290   72.0200  222.3800 C   0  0  0  0  0  0  0  0  0  0  0  0
  139.6970   71.0990  223.5100 C   0  0  0  0  0  0  0  0  0  0  0  0
  140.3040   71.5390  224.6510 N   0  0  0  0  0  0  0  0  0  0  0  0
  140.4390   70.8080  225.7520 C   0  0  0  0  0  0  0  0  0  0  0  0
  141.0660   71.3030  226.8860 C   0  0  0  0  0  0  0  0  0  0  0  0
  141.1870   70.5150  228.0120 C   0  0  0  0  0  0  0  0  0  0  0  0
  140.6730   69.2430  227.9670 C   0  0  0  0  0  0  0  0  0  0  0  0
  140.8100   68.4910  229.0980 F   0  0  0  0  0  0  0  0  0  0  0  0
  140.0400   68.7320  226.8300 C   0  0  0  0  0  0  0  0  0  0  0  0
  139.9180   69.5150  225.7110 C   0  0  0  0  0  0  0  0  0  0  0  0
  139.3060   69.0820  224.5530 C   0  0  0  0  0  0  0  0  0  0  0  0
  138.8520   67.8880  224.5920 O   0  0  0  0  0  0  0  0  0  0  0  0
  139.1830   69.8420  223.4490 N   0  0  0  0  0  0  0  0  0  0  0  0
  138.5570   69.3710  222.2460 C   0  0  0  0  0  0  0  0  0  0  0  0
  137.1230   69.7520  222.0930 C   0  0  0  0  0  0  0  0  0  0  0  0
  136.3080   69.8010  223.3320 C   0  0  0  0  0  0  0  0  0  0  0  0
  136.5460   71.0460  224.1540 C   0  0  0  0  0  0  0  0  0  0  0  0
  136.2280   72.2420  223.3740 N   0  0  0  0  0  0  0  0  0  0  0  0
  135.9400   71.9570  222.0030 C   0  0  0  0  0  0  0  0  0  0  0  0
  136.9630   71.0640  221.3340 C   0  0  0  0  0  0  0  0  0  0  0  0
  142.3540   71.7740  221.1040 C   0  0  0  0  0  0  0  0  0  0  0  0
  143.4780   71.7610  220.2890 C   0  0  0  0  0  0  0  0  0  0  0  0
  146.1100   74.4290  217.1280 H   0  0  0  0  0  0  0  0  0  0  0  0
  144.7290   74.9680  217.8930 H   0  0  0  0  0  0  0  0  0  0  0  0
  143.7167   75.0517  219.6613 H   0  0  0  0  0  0  0  0  0  0  0  0
  141.7485   75.0669  221.0864 H   0  0  0  0  0  0  0  0  0  0  0  0
  140.3456   73.8989  222.8670 H   0  0  0  0  0  0  0  0  0  0  0  0
  138.8419   71.9042  221.6203 H   0  0  0  0  0  0  0  0  0  0  0  0
  141.4680   72.3269  226.8875 H   0  0  0  0  0  0  0  0  0  0  0  0
  141.6806   70.8947  228.9187 H   0  0  0  0  0  0  0  0  0  0  0  0
  139.6417   67.7067  226.8331 H   0  0  0  0  0  0  0  0  0  0  0  0
  139.1124   69.7801  221.3892 H   0  0  0  0  0  0  0  0  0  0  0  0
  138.5804   68.2724  222.2961 H   0  0  0  0  0  0  0  0  0  0  0  0
  136.7178   68.9097  221.5130 H   0  0  0  0  0  0  0  0  0  0  0  0
  135.2447   69.7651  223.0523 H   0  0  0  0  0  0  0  0  0  0  0  0
  136.6028   68.9405  223.9505 H   0  0  0  0  0  0  0  0  0  0  0  0
  135.9071   71.0168  225.0490 H   0  0  0  0  0  0  0  0  0  0  0  0
  137.6058   71.0827  224.4464 H   0  0  0  0  0  0  0  0  0  0  0  0
  136.8990   73.0110  223.5420 H   0  0  0  0  0  0  0  0  0  0  0  0
  134.9599   71.4603  221.9510 H   0  0  0  0  0  0  0  0  0  0  0  0
  135.9557   72.9175  221.4672 H   0  0  0  0  0  0  0  0  0  0  0  0
  136.6344   70.8475  220.3068 H   0  0  0  0  0  0  0  0  0  0  0  0
  137.9317   71.5851  221.3272 H   0  0  0  0  0  0  0  0  0  0  0  0
  141.9796   70.8220  221.5085 H   0  0  0  0  0  0  0  0  0  0  0  0
  143.9738   70.8060  220.0606 H   0  0  0  0  0  0  0  0  0  0  0  0
  1  2  1  0
  2  3  2  0
  2  4  2  0
  2  5  1  0
  5  6  2  0
  6  7  1  0
  7  8  2  0
  8  9  1  0
  9 10  2  0
 10 11  1  0
 11 12  2  0
 12 13  1  0
 13 14  2  0
 14 15  1  0
 15 16  2  0
 16 17  1  0
 16 18  1  0
 18 19  2  0
 19 20  1  0
 20 21  2  0
 20 22  1  0
 22 23  1  0
 23 24  1  0
 24 25  1  0
 25 26  1  0
 26 27  1  0
 27 28  1  0
 28 29  1  0
  8 30  1  0
 30 31  2  0
 31  5  1  0
 22 11  1  0
 29 24  1  0
 19 13  1  0
  1 32  1  0
  1 33  1  0
  6 34  1  0
  7 35  1  0
  9 36  1  0
 10 37  1  0
 14 38  1  0
 15 39  1  0
 18 40  1  0
 23 41  1  0
 23 42  1  0
 24 43  1  0
 25 44  1  0
 25 45  1  0
 26 46  1  0
 26 47  1  0
 27 48  1  0
 28 49  1  0
 28 50  1  0
 29 51  1  0
 29 52  1  0
 30 53  1  0
 31 54  1  0
M  END
>  <smiles>  (9) 
NS(=O)(=O)c1ccc(/C=C/c2nc3ccc(F)cc3c(=O)n2CC2CCNCC2)cc1

>  <score_type>  (9) 
oracle

>  <origin>  (9) 
autodockgpu

>  <m_score__min__energy>  (9) 
-10.24

>  <m_primary>  (9) 
energy

>  <rmsd>  (9) 
10.78931750191173

>  <m_score__min__rmsd>  (9) 
10.78931750191173

>  <meeko>  (9) 
{"free_energy": -8.98, "intermolecular_energy": -11.07, "internal_energy": -1.46, "cluster_size": 12, "cluster_id": 2, "rank_in_cluster": 2}

>  <energy>  (9) 
-9.61

>  <cluster_rmsd>  (9) 
0.82

>  <cluster>  (9) 
1

$$$$

     RDKit          3D

 54 57  0  0  0  0  0  0  0  0999 V2000
  146.0420   73.4580  218.2170 N   0  0  0  0  0  0  0  0  0  0  0  0
  145.8600   72.7040  219.7610 S   0  0  0  0  0  0  0  0  0  0  0  0
  146.6350   73.4890  220.7660 O   0  0  0  0  0  0  0  0  0  0  0  0
  146.4430   71.3090  219.7470 O   0  0  0  0  0  0  0  0  0  0  0  0
  144.1780   72.6620  220.2300 C   0  0  0  0  0  0  0  0  0  0  0  0
  143.6100   71.4610  220.5510 C   0  0  0  0  0  0  0  0  0  0  0  0
  142.3010   71.3830  220.9210 C   0  0  0  0  0  0  0  0  0  0  0  0
  141.4620   72.5030  220.9990 C   0  0  0  0  0  0  0  0  0  0  0  0
  140.0680   72.3740  221.4010 C   0  0  0  0  0  0  0  0  0  0  0  0
  139.6220   72.5760  222.6200 C   0  0  0  0  0  0  0  0  0  0  0  0
  139.6690   71.4930  223.5980 C   0  0  0  0  0  0  0  0  0  0  0  0
  140.2440   71.7570  224.8080 N   0  0  0  0  0  0  0  0  0  0  0  0
  140.3580   70.8680  225.7880 C   0  0  0  0  0  0  0  0  0  0  0  0
  140.9510   71.1870  227.0010 C   0  0  0  0  0  0  0  0  0  0  0  0
  141.0500   70.2380  227.9960 C   0  0  0  0  0  0  0  0  0  0  0  0
  140.5480   68.9850  227.7440 C   0  0  0  0  0  0  0  0  0  0  0  0
  140.6640   68.0690  228.7510 F   0  0  0  0  0  0  0  0  0  0  0  0
  139.9490   68.6500  226.5270 C   0  0  0  0  0  0  0  0  0  0  0  0
  139.8490   69.5930  225.5370 C   0  0  0  0  0  0  0  0  0  0  0  0
  139.2700   69.3390  224.3110 C   0  0  0  0  0  0  0  0  0  0  0  0
  138.8250   68.1510  224.1560 O   0  0  0  0  0  0  0  0  0  0  0  0
  139.1680   70.2590  223.3320 N   0  0  0  0  0  0  0  0  0  0  0  0
  138.5760   69.9730  222.0560 C   0  0  0  0  0  0  0  0  0  0  0  0
  137.1120   70.2450  221.9670 C   0  0  0  0  0  0  0  0  0  0  0  0
  136.3190   70.0460  223.2050 C   0  0  0  0  0  0  0  0  0  0  0  0
  136.4630   71.1790  224.1940 C   0  0  0  0  0  0  0  0  0  0  0  0
  136.0290   72.4410  223.5940 N   0  0  0  0  0  0  0  0  0  0  0  0
  135.7420   72.3270  222.1970 C   0  0  0  0  0  0  0  0  0  0  0  0
  136.8260   71.6310  221.4030 C   0  0  0  0  0  0  0  0  0  0  0  0
  142.0540   73.7030  220.6730 C   0  0  0  0  0  0  0  0  0  0  0  0
  143.3870   73.7920  220.2940 C   0  0  0  0  0  0  0  0  0  0  0  0
  146.9080   74.0470  218.2560 H   0  0  0  0  0  0  0  0  0  0  0  0
  145.2470   74.1450  218.1470 H   0  0  0  0  0  0  0  0  0  0  0  0
  144.2178   70.5451  220.5101 H   0  0  0  0  0  0  0  0  0  0  0  0
  141.8837   70.3961  221.1698 H   0  0  0  0  0  0  0  0  0  0  0  0
  139.3376   72.0874  220.6300 H   0  0  0  0  0  0  0  0  0  0  0  0
  139.2145   73.5578  222.9029 H   0  0  0  0  0  0  0  0  0  0  0  0
  141.3435   72.2007  227.1694 H   0  0  0  0  0  0  0  0  0  0  0  0
  141.5171   70.4773  228.9627 H   0  0  0  0  0  0  0  0  0  0  0  0
  139.5595   67.6343  226.3640 H   0  0  0  0  0  0  0  0  0  0  0  0
  139.0843   70.5874  221.2982 H   0  0  0  0  0  0  0  0  0  0  0  0
  138.6990   68.8919  221.8945 H   0  0  0  0  0  0  0  0  0  0  0  0
  136.7697   69.4614  221.2750 H   0  0  0  0  0  0  0  0  0  0  0  0
  135.2579   69.9555  222.9295 H   0  0  0  0  0  0  0  0  0  0  0  0
  136.6988   69.1364  223.6932 H   0  0  0  0  0  0  0  0  0  0  0  0
  135.8451   70.9676  225.0792 H   0  0  0  0  0  0  0  0  0  0  0  0
  137.5208   71.2673  224.4824 H   0  0  0  0  0  0  0  0  0  0  0  0
  136.6350   73.2350  223.8650 H   0  0  0  0  0  0  0  0  0  0  0  0
  134.8079   71.7579  222.0807 H   0  0  0  0  0  0  0  0  0  0  0  0
  135.6647   73.3509  221.8024 H   0  0  0  0  0  0  0  0  0  0  0  0
  136.4993   71.5333  220.3572 H   0  0  0  0  0  0  0  0  0  0  0  0
  137.7458   72.2311  221.4652 H   0  0  0  0  0  0  0  0  0  0  0  0
  141.4507   74.6219  220.7142 H   0  0  0  0  0  0  0  0  0  0  0  0
  143.8171   74.7726  220.0422 H   0  0  0  0  0  0  0  0  0  0  0  0
  1  2  1  0
  2  3  2  0
  2  4  2  0
  2  5  1  0
  5  6  2  0
  6  7  1  0
  7  8  2  0
  8  9  1  0
  9 10  2  0
 10 11  1  0
 11 12  2  0
 12 13  1  0
 13 14  2  0
 14 15  1  0
 15 16  2  0
 16 17  1  0
 16 18  1  0
 18 19  2  0
 19 20  1  0
 20 21  2  0
 20 22  1  0
 22 23  1  0
 23 24  1  0
 24 25  1  0
 25 26  1  0
 26 27  1  0
 27 28  1  0
 28 29  1  0
  8 30  1  0
 30 31  2  0
 31  5  1  0
 22 11  1  0
 29 24  1  0
 19 13  1  0
  1 32  1  0
  1 33  1  0
  6 34  1  0
  7 35  1  0
  9 36  1  0
 10 37  1  0
 14 38  1  0
 15 39  1  0
 18 40  1  0
 23 41  1  0
 23 42  1  0
 24 43  1  0
 25 44  1  0
 25 45  1  0
 26 46  1  0
 26 47  1  0
 27 48  1  0
 28 49  1  0
 28 50  1  0
 29 51  1  0
 29 52  1  0
 30 53  1  0
 31 54  1  0
M  END
>  <smiles>  (10) 
NS(=O)(=O)c1ccc(/C=C/c2nc3ccc(F)cc3c(=O)n2CC2CCNCC2)cc1

>  <score_type>  (10) 
oracle

>  <origin>  (10) 
autodockgpu

>  <m_score__min__energy>  (10) 
-10.24

>  <m_primary>  (10) 
energy

>  <rmsd>  (10) 
10.582145904649074

>  <m_score__min__rmsd>  (10) 
10.582145904649074

>  <meeko>  (10) 
{"free_energy": -9.01, "intermolecular_energy": -11.1, "internal_energy": -1.37, "cluster_size": 12, "cluster_id": 2, "rank_in_cluster": 1}

>  <energy>  (10) 
-9.49

>  <cluster_rmsd>  (10) 
1.08

>  <cluster>  (10) 
1

$$$$

     RDKit          3D

 54 57  0  0  0  0  0  0  0  0999 V2000
  142.5680   79.1880  222.1210 N   0  0  0  0  0  0  0  0  0  0  0  0
  141.4520   78.6140  220.9340 S   0  0  0  0  0  0  0  0  0  0  0  0
  142.1220   78.6400  219.6010 O   0  0  0  0  0  0  0  0  0  0  0  0
  140.2520   79.5300  220.8420 O   0  0  0  0  0  0  0  0  0  0  0  0
  140.9510   76.9810  221.3000 C   0  0  0  0  0  0  0  0  0  0  0  0
  139.8280   76.7860  222.0530 C   0  0  0  0  0  0  0  0  0  0  0  0
  139.4020   75.5300  222.3630 C   0  0  0  0  0  0  0  0  0  0  0  0
  140.0690   74.3730  221.9400 C   0  0  0  0  0  0  0  0  0  0  0  0
  139.5790   73.0470  222.2930 C   0  0  0  0  0  0  0  0  0  0  0  0
  140.3360   71.9790  222.4090 C   0  0  0  0  0  0  0  0  0  0  0  0
  140.1590   71.0870  223.5500 C   0  0  0  0  0  0  0  0  0  0  0  0
  140.6770   71.4820  224.7500 N   0  0  0  0  0  0  0  0  0  0  0  0
  140.5930   70.7710  225.8690 C   0  0  0  0  0  0  0  0  0  0  0  0
  141.1360   71.2190  227.0640 C   0  0  0  0  0  0  0  0  0  0  0  0
  141.0280   70.4530  228.2050 C   0  0  0  0  0  0  0  0  0  0  0  0
  140.3750   69.2490  228.1150 C   0  0  0  0  0  0  0  0  0  0  0  0
  140.2870   68.5150  229.2640 F   0  0  0  0  0  0  0  0  0  0  0  0
  139.8240   68.7850  226.9170 C   0  0  0  0  0  0  0  0  0  0  0  0
  139.9290   69.5460  225.7820 C   0  0  0  0  0  0  0  0  0  0  0  0
  139.4110   69.1570  224.5640 C   0  0  0  0  0  0  0  0  0  0  0  0
  138.8160   68.0260  224.5630 O   0  0  0  0  0  0  0  0  0  0  0  0
  139.5100   69.8980  223.4430 N   0  0  0  0  0  0  0  0  0  0  0  0
  138.9780   69.4710  222.1800 C   0  0  0  0  0  0  0  0  0  0  0  0
  137.5390   69.7970  221.9620 C   0  0  0  0  0  0  0  0  0  0  0  0
  136.6610   69.7810  223.1580 C   0  0  0  0  0  0  0  0  0  0  0  0
  136.8040   71.0150  224.0190 C   0  0  0  0  0  0  0  0  0  0  0  0
  136.4750   72.2160  223.2500 N   0  0  0  0  0  0  0  0  0  0  0  0
  136.2690   71.9520  221.8600 C   0  0  0  0  0  0  0  0  0  0  0  0
  137.3620   71.1190  221.2250 C   0  0  0  0  0  0  0  0  0  0  0  0
  141.1990   74.5900  221.1820 C   0  0  0  0  0  0  0  0  0  0  0  0
  141.6400   75.8680  220.8620 C   0  0  0  0  0  0  0  0  0  0  0  0
  143.2850   79.7690  221.6230 H   0  0  0  0  0  0  0  0  0  0  0  0
  143.0900   78.3340  222.4500 H   0  0  0  0  0  0  0  0  0  0  0  0
  139.2596   77.6558  222.4141 H   0  0  0  0  0  0  0  0  0  0  0  0
  138.4933   75.4191  222.9730 H   0  0  0  0  0  0  0  0  0  0  0  0
  138.5003   72.9318  222.4751 H   0  0  0  0  0  0  0  0  0  0  0  0
  141.1000   71.7584  221.6489 H   0  0  0  0  0  0  0  0  0  0  0  0
  141.6544   72.1885  227.1014 H   0  0  0  0  0  0  0  0  0  0  0  0
  141.4527   70.7966  229.1597 H   0  0  0  0  0  0  0  0  0  0  0  0
  139.3086   67.8137  226.8854 H   0  0  0  0  0  0  0  0  0  0  0  0
  139.5622   69.9534  221.3825 H   0  0  0  0  0  0  0  0  0  0  0  0
  139.0505   68.3734  222.1700 H   0  0  0  0  0  0  0  0  0  0  0  0
  137.1995   68.9536  221.3428 H   0  0  0  0  0  0  0  0  0  0  0  0
  135.6157   69.7076  222.8232 H   0  0  0  0  0  0  0  0  0  0  0  0
  136.9603   68.9183  223.7714 H   0  0  0  0  0  0  0  0  0  0  0  0
  136.1226   70.9376  224.8790 H   0  0  0  0  0  0  0  0  0  0  0  0
  137.8451   71.0884  224.3663 H   0  0  0  0  0  0  0  0  0  0  0  0
  137.1050   73.0080  223.4690 H   0  0  0  0  0  0  0  0  0  0  0  0
  135.3151   71.4159  221.7470 H   0  0  0  0  0  0  0  0  0  0  0  0
  136.2702   72.9249  221.3467 H   0  0  0  0  0  0  0  0  0  0  0  0
  137.0956   70.9141  220.1776 H   0  0  0  0  0  0  0  0  0  0  0  0
  138.3067   71.6799  221.2797 H   0  0  0  0  0  0  0  0  0  0  0  0
  141.7705   73.7233  220.8185 H   0  0  0  0  0  0  0  0  0  0  0  0
  142.5475   75.9942  220.2533 H   0  0  0  0  0  0  0  0  0  0  0  0
  1  2  1  0
  2  3  2  0
  2  4  2  0
  2  5  1  0
  5  6  2  0
  6  7  1  0
  7  8  2  0
  8  9  1  0
  9 10  2  0
 10 11  1  0
 11 12  2  0
 12 13  1  0
 13 14  2  0
 14 15  1  0
 15 16  2  0
 16 17  1  0
 16 18  1  0
 18 19  2  0
 19 20  1  0
 20 21  2  0
 20 22  1  0
 22 23  1  0
 23 24  1  0
 24 25  1  0
 25 26  1  0
 26 27  1  0
 27 28  1  0
 28 29  1  0
  8 30  1  0
 30 31  2  0
 31  5  1  0
 22 11  1  0
 29 24  1  0
 19 13  1  0
  1 32  1  0
  1 33  1  0
  6 34  1  0
  7 35  1  0
  9 36  1  0
 10 37  1  0
 14 38  1  0
 15 39  1  0
 18 40  1  0
 23 41  1  0
 23 42  1  0
 24 43  1  0
 25 44  1  0
 25 45  1  0
 26 46  1  0
 26 47  1  0
 27 48  1  0
 28 49  1  0
 28 50  1  0
 29 51  1  0
 29 52  1  0
 30 53  1  0
 31 54  1  0
M  END
>  <smiles>  (11) 
NS(=O)(=O)c1ccc(/C=C/c2nc3ccc(F)cc3c(=O)n2CC2CCNCC2)cc1

>  <score_type>  (11) 
oracle

>  <origin>  (11) 
autodockgpu

>  <m_score__min__energy>  (11) 
-10.24

>  <m_primary>  (11) 
energy

>  <rmsd>  (11) 
10.748469456167504

>  <m_score__min__rmsd>  (11) 
10.748469456167504

>  <meeko>  (11) 
{"free_energy": -8.36, "intermolecular_energy": -10.45, "internal_energy": -1.55, "cluster_size": 10, "cluster_id": 4, "rank_in_cluster": 6}

>  <energy>  (11) 
-9.44

>  <cluster_rmsd>  (11) 
0.99

>  <cluster>  (11) 
1

$$$$

     RDKit          3D

 54 57  0  0  0  0  0  0  0  0999 V2000
  142.5790   79.2280  222.3560 N   0  0  0  0  0  0  0  0  0  0  0  0
  140.8860   79.0620  222.0540 S   0  0  0  0  0  0  0  0  0  0  0  0
  140.5800   79.6630  220.7230 O   0  0  0  0  0  0  0  0  0  0  0  0
  140.0820   79.8280  223.0800 O   0  0  0  0  0  0  0  0  0  0  0  0
  140.4260   77.3760  222.0480 C   0  0  0  0  0  0  0  0  0  0  0  0
  141.3240   76.4460  221.6080 C   0  0  0  0  0  0  0  0  0  0  0  0
  141.0050   75.1210  221.5860 C   0  0  0  0  0  0  0  0  0  0  0  0
  139.7620   74.6290  222.0050 C   0  0  0  0  0  0  0  0  0  0  0  0
  139.4630   73.2040  221.9670 C   0  0  0  0  0  0  0  0  0  0  0  0
  140.3290   72.2530  222.2350 C   0  0  0  0  0  0  0  0  0  0  0  0
  140.1170   71.3840  223.3880 C   0  0  0  0  0  0  0  0  0  0  0  0
  140.6720   71.7610  224.5770 N   0  0  0  0  0  0  0  0  0  0  0  0
  140.5620   71.0670  225.7050 C   0  0  0  0  0  0  0  0  0  0  0  0
  141.1450   71.4960  226.8880 C   0  0  0  0  0  0  0  0  0  0  0  0
  141.0090   70.7490  228.0390 C   0  0  0  0  0  0  0  0  0  0  0  0
  140.2870   69.5840  227.9700 C   0  0  0  0  0  0  0  0  0  0  0  0
  140.1730   68.8680  229.1280 F   0  0  0  0  0  0  0  0  0  0  0  0
  139.6940   69.1400  226.7840 C   0  0  0  0  0  0  0  0  0  0  0  0
  139.8290   69.8820  225.6400 C   0  0  0  0  0  0  0  0  0  0  0  0
  139.2730   69.5110  224.4330 C   0  0  0  0  0  0  0  0  0  0  0  0
  138.6140   68.4160  224.4520 O   0  0  0  0  0  0  0  0  0  0  0  0
  139.3990   70.2330  223.3030 N   0  0  0  0  0  0  0  0  0  0  0  0
  138.8270   69.8250  222.0510 C   0  0  0  0  0  0  0  0  0  0  0  0
  137.3770   70.1360  221.8910 C   0  0  0  0  0  0  0  0  0  0  0  0
  136.5590   70.1620  223.1280 C   0  0  0  0  0  0  0  0  0  0  0  0
  136.7360   71.4280  223.9350 C   0  0  0  0  0  0  0  0  0  0  0  0
  136.3640   72.5980  223.1390 N   0  0  0  0  0  0  0  0  0  0  0  0
  136.0930   72.2820  221.7710 C   0  0  0  0  0  0  0  0  0  0  0  0
  137.1580   71.4290  221.1150 C   0  0  0  0  0  0  0  0  0  0  0  0
  138.8710   75.5820  222.4460 C   0  0  0  0  0  0  0  0  0  0  0  0
  139.1870   76.9340  222.4710 C   0  0  0  0  0  0  0  0  0  0  0  0
  142.9770   79.8210  221.5890 H   0  0  0  0  0  0  0  0  0  0  0  0
  142.9860   78.2700  222.2000 H   0  0  0  0  0  0  0  0  0  0  0  0
  142.3181   76.7705  221.2668 H   0  0  0  0  0  0  0  0  0  0  0  0
  141.7576   74.4056  221.2228 H   0  0  0  0  0  0  0  0  0  0  0  0
  138.4406   72.9030  221.6949 H   0  0  0  0  0  0  0  0  0  0  0  0
  141.2107   72.1123  221.5925 H   0  0  0  0  0  0  0  0  0  0  0  0
  141.7176   72.4350  226.9081 H   0  0  0  0  0  0  0  0  0  0  0  0
  141.4657   71.0771  228.9844 H   0  0  0  0  0  0  0  0  0  0  0  0
  139.1223   68.2003  226.7695 H   0  0  0  0  0  0  0  0  0  0  0  0
  139.3760   70.3314  221.2435 H   0  0  0  0  0  0  0  0  0  0  0  0
  138.9127   68.7289  222.0157 H   0  0  0  0  0  0  0  0  0  0  0  0
  137.0118   69.2688  221.3213 H   0  0  0  0  0  0  0  0  0  0  0  0
  135.4991   70.0718  222.8478 H   0  0  0  0  0  0  0  0  0  0  0  0
  136.8937   69.3245  223.7578 H   0  0  0  0  0  0  0  0  0  0  0  0
  136.0968   71.3800  224.8290 H   0  0  0  0  0  0  0  0  0  0  0  0
  137.7921   71.5183  224.2290 H   0  0  0  0  0  0  0  0  0  0  0  0
  136.9990   73.3990  223.2980 H   0  0  0  0  0  0  0  0  0  0  0  0
  135.1373   71.7395  221.7238 H   0  0  0  0  0  0  0  0  0  0  0  0
  136.0655   73.2353  221.2229 H   0  0  0  0  0  0  0  0  0  0  0  0
  136.8421   71.1843  220.0902 H   0  0  0  0  0  0  0  0  0  0  0  0
  138.1015   71.9944  221.1029 H   0  0  0  0  0  0  0  0  0  0  0  0
  137.8764   75.2617  222.7897 H   0  0  0  0  0  0  0  0  0  0  0  0
  138.4436   77.6604  222.8311 H   0  0  0  0  0  0  0  0  0  0  0  0
  1  2  1  0
  2  3  2  0
  2  4  2  0
  2  5  1  0
  5  6  2  0
  6  7  1  0
  7  8  2  0
  8  9  1  0
  9 10  2  0
 10 11  1  0
 11 12  2  0
 12 13  1  0
 13 14  2  0
 14 15  1  0
 15 16  2  0
 16 17  1  0
 16 18  1  0
 18 19  2  0
 19 20  1  0
 20 21  2  0
 20 22  1  0
 22 23  1  0
 23 24  1  0
 24 25  1  0
 25 26  1  0
 26 27  1  0
 27 28  1  0
 28 29  1  0
  8 30  1  0
 30 31  2  0
 31  5  1  0
 22 11  1  0
 29 24  1  0
 19 13  1  0
  1 32  1  0
  1 33  1  0
  6 34  1  0
  7 35  1  0
  9 36  1  0
 10 37  1  0
 14 38  1  0
 15 39  1  0
 18 40  1  0
 23 41  1  0
 23 42  1  0
 24 43  1  0
 25 44  1  0
 25 45  1  0
 26 46  1  0
 26 47  1  0
 27 48  1  0
 28 49  1  0
 28 50  1  0
 29 51  1  0
 29 52  1  0
 30 53  1  0
 31 54  1  0
M  END
>  <smiles>  (12) 
NS(=O)(=O)c1ccc(/C=C/c2nc3ccc(F)cc3c(=O)n2CC2CCNCC2)cc1

>  <score_type>  (12) 
oracle

>  <origin>  (12) 
autodockgpu

>  <m_score__min__energy>  (12) 
-10.24

>  <m_primary>  (12) 
energy

>  <rmsd>  (12) 
10.451464248533537

>  <m_score__min__rmsd>  (12) 
10.451464248533537

>  <meeko>  (12) 
{"free_energy": -8.28, "intermolecular_energy": -10.37, "internal_energy": -1.56, "cluster_size": 10, "cluster_id": 4, "rank_in_cluster": 10}

>  <energy>  (12) 
-9.02

>  <cluster_rmsd>  (12) 
1.18

>  <cluster>  (12) 
1

$$$$

     RDKit          3D

 54 57  0  0  0  0  0  0  0  0999 V2000
  146.1150   71.4930  220.0560 N   0  0  0  0  0  0  0  0  0  0  0  0
  145.8490   73.1660  219.7150 S   0  0  0  0  0  0  0  0  0  0  0  0
  146.0440   73.3900  218.2530 O   0  0  0  0  0  0  0  0  0  0  0  0
  146.8650   74.0260  220.4330 O   0  0  0  0  0  0  0  0  0  0  0  0
  144.2260   73.6330  220.1620 C   0  0  0  0  0  0  0  0  0  0  0  0
  143.8220   74.9190  219.9400 C   0  0  0  0  0  0  0  0  0  0  0  0
  142.5650   75.3260  220.2740 C   0  0  0  0  0  0  0  0  0  0  0  0
  141.6170   74.4730  220.8560 C   0  0  0  0  0  0  0  0  0  0  0  0
  140.2840   74.9490  221.1970 C   0  0  0  0  0  0  0  0  0  0  0  0
  139.7900   76.1100  220.8290 C   0  0  0  0  0  0  0  0  0  0  0  0
  140.0220   77.2910  221.6550 C   0  0  0  0  0  0  0  0  0  0  0  0
  141.2830   77.8140  221.6720 N   0  0  0  0  0  0  0  0  0  0  0  0
  141.6380   78.8820  222.3790 C   0  0  0  0  0  0  0  0  0  0  0  0
  142.9340   79.3740  222.3600 C   0  0  0  0  0  0  0  0  0  0  0  0
  143.2640   80.4850  223.1060 C   0  0  0  0  0  0  0  0  0  0  0  0
  142.2780   81.0760  223.8560 C   0  0  0  0  0  0  0  0  0  0  0  0
  142.6400   82.1740  224.5830 F   0  0  0  0  0  0  0  0  0  0  0  0
  140.9680   80.5900  223.8840 C   0  0  0  0  0  0  0  0  0  0  0  0
  140.6380   79.4850  223.1420 C   0  0  0  0  0  0  0  0  0  0  0  0
  139.3680   78.9470  223.1170 C   0  0  0  0  0  0  0  0  0  0  0  0
  138.5060   79.5550  223.8390 O   0  0  0  0  0  0  0  0  0  0  0  0
  139.0340   77.8620  222.3920 N   0  0  0  0  0  0  0  0  0  0  0  0
  137.7110   77.3060  222.3890 C   0  0  0  0  0  0  0  0  0  0  0  0
  136.6680   78.1680  221.7610 C   0  0  0  0  0  0  0  0  0  0  0  0
  135.5040   78.5320  222.6070 C   0  0  0  0  0  0  0  0  0  0  0  0
  135.8080   79.6310  223.5990 C   0  0  0  0  0  0  0  0  0  0  0  0
  136.2390   80.8430  222.9020 N   0  0  0  0  0  0  0  0  0  0  0  0
  136.4280   80.6460  221.4990 C   0  0  0  0  0  0  0  0  0  0  0  0
  137.2650   79.4320  221.1570 C   0  0  0  0  0  0  0  0  0  0  0  0
  142.0440   73.1810  221.0710 C   0  0  0  0  0  0  0  0  0  0  0  0
  143.3230   72.7580  220.7340 C   0  0  0  0  0  0  0  0  0  0  0  0
  145.2390   71.1190  220.4930 H   0  0  0  0  0  0  0  0  0  0  0  0
  146.8330   71.4760  220.8260 H   0  0  0  0  0  0  0  0  0  0  0  0
  144.5212   75.6361  219.4852 H   0  0  0  0  0  0  0  0  0  0  0  0
  142.2816   76.3707  220.0781 H   0  0  0  0  0  0  0  0  0  0  0  0
  139.6458   74.2910  221.8051 H   0  0  0  0  0  0  0  0  0  0  0  0
  139.2038   76.1915  219.9018 H   0  0  0  0  0  0  0  0  0  0  0  0
  143.7008   78.8765  221.7481 H   0  0  0  0  0  0  0  0  0  0  0  0
  144.2881   80.8865  223.1005 H   0  0  0  0  0  0  0  0  0  0  0  0
  140.2054   81.0913  224.4982 H   0  0  0  0  0  0  0  0  0  0  0  0
  137.7422   76.3531  221.8404 H   0  0  0  0  0  0  0  0  0  0  0  0
  137.4222   77.1922  223.4443 H   0  0  0  0  0  0  0  0  0  0  0  0
  136.2629   77.5116  220.9768 H   0  0  0  0  0  0  0  0  0  0  0  0
  134.6875   78.8690  221.9515 H   0  0  0  0  0  0  0  0  0  0  0  0
  135.2283   77.6377  223.1850 H   0  0  0  0  0  0  0  0  0  0  0  0
  134.9029   79.8518  224.1838 H   0  0  0  0  0  0  0  0  0  0  0  0
  136.6166   79.2962  224.2654 H   0  0  0  0  0  0  0  0  0  0  0  0
  137.0090   81.3270  223.3960 H   0  0  0  0  0  0  0  0  0  0  0  0
  135.4401   80.5289  221.0296 H   0  0  0  0  0  0  0  0  0  0  0  0
  136.9725   81.5250  221.1238 H   0  0  0  0  0  0  0  0  0  0  0  0
  137.3085   79.3219  220.0634 H   0  0  0  0  0  0  0  0  0  0  0  0
  138.2740   79.5748  221.5711 H   0  0  0  0  0  0  0  0  0  0  0  0
  141.3483   72.4600  221.5250 H   0  0  0  0  0  0  0  0  0  0  0  0
  143.6199   71.7161  220.9244 H   0  0  0  0  0  0  0  0  0  0  0  0
  1  2  1  0
  2  3  2  0
  2  4  2  0
  2  5  1  0
  5  6  2  0
  6  7  1  0
  7  8  2  0
  8  9  1  0
  9 10  2  0
 10 11  1  0
 11 12  2  0
 12 13  1  0
 13 14  2  0
 14 15  1  0
 15 16  2  0
 16 17  1  0
 16 18  1  0
 18 19  2  0
 19 20  1  0
 20 21  2  0
 20 22  1  0
 22 23  1  0
 23 24  1  0
 24 25  1  0
 25 26  1  0
 26 27  1  0
 27 28  1  0
 28 29  1  0
  8 30  1  0
 30 31  2  0
 31  5  1  0
 22 11  1  0
 29 24  1  0
 19 13  1  0
  1 32  1  0
  1 33  1  0
  6 34  1  0
  7 35  1  0
  9 36  1  0
 10 37  1  0
 14 38  1  0
 15 39  1  0
 18 40  1  0
 23 41  1  0
 23 42  1  0
 24 43  1  0
 25 44  1  0
 25 45  1  0
 26 46  1  0
 26 47  1  0
 27 48  1  0
 28 49  1  0
 28 50  1  0
 29 51  1  0
 29 52  1  0
 30 53  1  0
 31 54  1  0
M  END
>  <smiles>  (13) 
NS(=O)(=O)c1ccc(/C=C/c2nc3ccc(F)cc3c(=O)n2CC2CCNCC2)cc1

>  <score_type>  (13) 
oracle

>  <origin>  (13) 
autodockgpu

>  <m_score__min__energy>  (13) 
-10.24

>  <m_primary>  (13) 
energy

>  <rmsd>  (13) 
5.224116794903419

>  <m_score__min__rmsd>  (13) 
5.224116794903419

>  <meeko>  (13) 
{"free_energy": -7.61, "intermolecular_energy": -9.7, "internal_energy": -1.55, "cluster_size": 1, "cluster_id": 9, "rank_in_cluster": 1}

>  <energy>  (13) 
-8.41

>  <cluster_rmsd>  (13) 
1.43

>  <cluster>  (13) 
1

$$$$

     RDKit          3D

 54 57  0  0  0  0  0  0  0  0999 V2000
  145.8130   73.3870  217.9370 N   0  0  0  0  0  0  0  0  0  0  0  0
  145.8140   72.8900  219.5910 S   0  0  0  0  0  0  0  0  0  0  0  0
  146.7360   73.7810  220.3550 O   0  0  0  0  0  0  0  0  0  0  0  0
  146.3480   71.4820  219.7260 O   0  0  0  0  0  0  0  0  0  0  0  0
  144.2070   73.0030  220.2670 C   0  0  0  0  0  0  0  0  0  0  0  0
  143.5760   71.8610  220.6720 C   0  0  0  0  0  0  0  0  0  0  0  0
  142.3220   71.9040  221.2030 C   0  0  0  0  0  0  0  0  0  0  0  0
  141.6060   73.0960  221.3710 C   0  0  0  0  0  0  0  0  0  0  0  0
  140.2670   73.0980  221.9450 C   0  0  0  0  0  0  0  0  0  0  0  0
  139.5190   72.0280  222.0940 C   0  0  0  0  0  0  0  0  0  0  0  0
  139.6390   71.2220  223.3040 C   0  0  0  0  0  0  0  0  0  0  0  0
  140.2990   71.7680  224.3670 N   0  0  0  0  0  0  0  0  0  0  0  0
  140.4840   71.1490  225.5280 C   0  0  0  0  0  0  0  0  0  0  0  0
  141.1630   71.7500  226.5780 C   0  0  0  0  0  0  0  0  0  0  0  0
  141.3360   71.0760  227.7680 C   0  0  0  0  0  0  0  0  0  0  0  0
  140.8200   69.8080  227.8720 C   0  0  0  0  0  0  0  0  0  0  0  0
  141.0090   69.1690  229.0640 F   0  0  0  0  0  0  0  0  0  0  0  0
  140.1340   69.1910  226.8220 C   0  0  0  0  0  0  0  0  0  0  0  0
  139.9620   69.8600  225.6380 C   0  0  0  0  0  0  0  0  0  0  0  0
  139.2970   69.3190  224.5570 C   0  0  0  0  0  0  0  0  0  0  0  0
  138.8440   68.1360  224.7350 O   0  0  0  0  0  0  0  0  0  0  0  0
  139.1220   69.9680  223.3910 N   0  0  0  0  0  0  0  0  0  0  0  0
  138.4410   69.3840  222.2700 C   0  0  0  0  0  0  0  0  0  0  0  0
  136.9990   69.7480  222.1510 C   0  0  0  0  0  0  0  0  0  0  0  0
  136.2210   69.8140  223.4130 C   0  0  0  0  0  0  0  0  0  0  0  0
  136.4690   71.0780  224.2030 C   0  0  0  0  0  0  0  0  0  0  0  0
  136.1160   72.2550  223.4090 N   0  0  0  0  0  0  0  0  0  0  0  0
  135.7910   71.9390  222.0520 C   0  0  0  0  0  0  0  0  0  0  0  0
  136.8030   71.0420  221.3720 C   0  0  0  0  0  0  0  0  0  0  0  0
  142.2590   74.2370  220.9580 C   0  0  0  0  0  0  0  0  0  0  0  0
  143.5360   74.2020  220.4150 C   0  0  0  0  0  0  0  0  0  0  0  0
  145.8950   74.4330  217.9240 H   0  0  0  0  0  0  0  0  0  0  0  0
  144.8410   73.1860  217.5850 H   0  0  0  0  0  0  0  0  0  0  0  0
  144.0877   70.8928  220.5679 H   0  0  0  0  0  0  0  0  0  0  0  0
  141.8506   70.9600  221.5138 H   0  0  0  0  0  0  0  0  0  0  0  0
  139.8536   74.0619  222.2766 H   0  0  0  0  0  0  0  0  0  0  0  0
  138.8044   71.7408  221.3086 H   0  0  0  0  0  0  0  0  0  0  0  0
  141.5645   72.7674  226.4606 H   0  0  0  0  0  0  0  0  0  0  0  0
  141.8715   71.5403  228.6092 H   0  0  0  0  0  0  0  0  0  0  0  0
  139.7342   68.1737  226.9452 H   0  0  0  0  0  0  0  0  0  0  0  0
  138.9524   69.7097  221.3522 H   0  0  0  0  0  0  0  0  0  0  0  0
  138.4724   68.2952  222.4234 H   0  0  0  0  0  0  0  0  0  0  0  0
  136.5856   68.8910  221.5991 H   0  0  0  0  0  0  0  0  0  0  0  0
  135.1503   69.7610  223.1662 H   0  0  0  0  0  0  0  0  0  0  0  0
  136.5444   68.9697  224.0395 H   0  0  0  0  0  0  0  0  0  0  0  0
  135.8563   71.0603  225.1164 H   0  0  0  0  0  0  0  0  0  0  0  0
  137.5363   71.1314  224.4638 H   0  0  0  0  0  0  0  0  0  0  0  0
  136.7850   73.0340  223.5410 H   0  0  0  0  0  0  0  0  0  0  0  0
  134.8148   71.4322  222.0386 H   0  0  0  0  0  0  0  0  0  0  0  0
  135.7816   72.8884  221.4965 H   0  0  0  0  0  0  0  0  0  0  0  0
  136.4468   70.8014  220.3594 H   0  0  0  0  0  0  0  0  0  0  0  0
  137.7657   71.5723  221.3272 H   0  0  0  0  0  0  0  0  0  0  0  0
  141.7516   75.2074  221.0620 H   0  0  0  0  0  0  0  0  0  0  0  0
  144.0189   75.1385  220.0992 H   0  0  0  0  0  0  0  0  0  0  0  0
  1  2  1  0
  2  3  2  0
  2  4  2  0
  2  5  1  0
  5  6  2  0
  6  7  1  0
  7  8  2  0
  8  9  1  0
  9 10  2  0
 10 11  1  0
 11 12  2  0
 12 13  1  0
 13 14  2  0
 14 15  1  0
 15 16  2  0
 16 17  1  0
 16 18  1  0
 18 19  2  0
 19 20  1  0
 20 21  2  0
 20 22  1  0
 22 23  1  0
 23 24  1  0
 24 25  1  0
 25 26  1  0
 26 27  1  0
 27 28  1  0
 28 29  1  0
  8 30  1  0
 30 31  2  0
 31  5  1  0
 22 11  1  0
 29 24  1  0
 19 13  1  0
  1 32  1  0
  1 33  1  0
  6 34  1  0
  7 35  1  0
  9 36  1  0
 10 37  1  0
 14 38  1  0
 15 39  1  0
 18 40  1  0
 23 41  1  0
 23 42  1  0
 24 43  1  0
 25 44  1  0
 25 45  1  0
 26 46  1  0
 26 47  1  0
 27 48  1  0
 28 49  1  0
 28 50  1  0
 29 51  1  0
 29 52  1  0
 30 53  1  0
 31 54  1  0
M  END
>  <smiles>  (14) 
NS(=O)(=O)c1ccc(/C=C/c2nc3ccc(F)cc3c(=O)n2CC2CCNCC2)cc1

>  <score_type>  (14) 
oracle

>  <origin>  (14) 
autodockgpu

>  <m_score__min__energy>  (14) 
-10.24

>  <m_primary>  (14) 
energy

>  <rmsd>  (14) 
10.669410273882777

>  <m_score__min__rmsd>  (14) 
10.669410273882777

>  <meeko>  (14) 
{"free_energy": -8.85, "intermolecular_energy": -10.94, "internal_energy": -1.5, "cluster_size": 12, "cluster_id": 2, "rank_in_cluster": 4}

>  <energy>  (14) 
-9.01

>  <cluster_rmsd>  (14) 
0.0

>  <cluster>  (14) 
2

$$$$

     RDKit          3D

 54 57  0  0  0  0  0  0  0  0999 V2000
  146.6990   73.7080  219.5300 N   0  0  0  0  0  0  0  0  0  0  0  0
  145.3510   72.9910  218.7230 S   0  0  0  0  0  0  0  0  0  0  0  0
  145.7210   71.6040  218.3180 O   0  0  0  0  0  0  0  0  0  0  0  0
  145.0220   73.7470  217.4550 O   0  0  0  0  0  0  0  0  0  0  0  0
  143.9610   72.9350  219.7800 C   0  0  0  0  0  0  0  0  0  0  0  0
  143.2720   74.0880  220.0310 C   0  0  0  0  0  0  0  0  0  0  0  0
  142.1840   74.0890  220.8500 C   0  0  0  0  0  0  0  0  0  0  0  0
  141.7010   72.9340  221.4790 C   0  0  0  0  0  0  0  0  0  0  0  0
  140.5320   72.9800  222.3470 C   0  0  0  0  0  0  0  0  0  0  0  0
  139.6400   72.0210  222.4460 C   0  0  0  0  0  0  0  0  0  0  0  0
  139.6950   71.0930  223.5720 C   0  0  0  0  0  0  0  0  0  0  0  0
  140.2850   71.5280  224.7230 N   0  0  0  0  0  0  0  0  0  0  0  0
  140.4070   70.7910  225.8230 C   0  0  0  0  0  0  0  0  0  0  0  0
  141.0150   71.2810  226.9680 C   0  0  0  0  0  0  0  0  0  0  0  0
  141.1230   70.4870  228.0900 C   0  0  0  0  0  0  0  0  0  0  0  0
  140.6140   69.2140  228.0310 C   0  0  0  0  0  0  0  0  0  0  0  0
  140.7380   68.4550  229.1590 F   0  0  0  0  0  0  0  0  0  0  0  0
  139.9990   68.7070  226.8830 C   0  0  0  0  0  0  0  0  0  0  0  0
  139.8910   69.4960  225.7660 C   0  0  0  0  0  0  0  0  0  0  0  0
  139.2970   69.0680  224.5970 C   0  0  0  0  0  0  0  0  0  0  0  0
  138.8470   67.8720  224.6230 O   0  0  0  0  0  0  0  0  0  0  0  0
  139.1860   69.8350  223.4960 N   0  0  0  0  0  0  0  0  0  0  0  0
  138.5790   69.3690  222.2810 C   0  0  0  0  0  0  0  0  0  0  0  0
  137.1490   69.7550  222.1050 C   0  0  0  0  0  0  0  0  0  0  0  0
  136.3170   69.8140  223.3320 C   0  0  0  0  0  0  0  0  0  0  0  0
  136.5480   71.0630  224.1500 C   0  0  0  0  0  0  0  0  0  0  0  0
  136.2460   72.2560  223.3580 N   0  0  0  0  0  0  0  0  0  0  0  0
  135.9770   71.9640  221.9850 C   0  0  0  0  0  0  0  0  0  0  0  0
  137.0060   71.0630  221.3370 C   0  0  0  0  0  0  0  0  0  0  0  0
  142.4080   71.7820  221.2130 C   0  0  0  0  0  0  0  0  0  0  0  0
  143.5190   71.7720  220.3800 C   0  0  0  0  0  0  0  0  0  0  0  0
  146.3350   74.5120  220.0960 H   0  0  0  0  0  0  0  0  0  0  0  0
  147.2780   74.1500  218.7690 H   0  0  0  0  0  0  0  0  0  0  0  0
  143.6008   75.0286  219.5650 H   0  0  0  0  0  0  0  0  0  0  0  0
  141.6604   75.0403  221.0258 H   0  0  0  0  0  0  0  0  0  0  0  0
  140.3862   73.8802  222.9621 H   0  0  0  0  0  0  0  0  0  0  0  0
  138.8542   71.9173  221.6833 H   0  0  0  0  0  0  0  0  0  0  0  0
  141.4126   72.3065  226.9817 H   0  0  0  0  0  0  0  0  0  0  0  0
  141.6031   70.8629  229.0055 H   0  0  0  0  0  0  0  0  0  0  0  0
  139.6036   67.6806  226.8751 H   0  0  0  0  0  0  0  0  0  0  0  0
  139.1501   69.7786  221.4348 H   0  0  0  0  0  0  0  0  0  0  0  0
  138.5983   68.2702  222.3283 H   0  0  0  0  0  0  0  0  0  0  0  0
  136.7481   68.9117  221.5236 H   0  0  0  0  0  0  0  0  0  0  0  0
  135.2576   69.7801  223.0377 H   0  0  0  0  0  0  0  0  0  0  0  0
  136.5999   68.9561  223.9596 H   0  0  0  0  0  0  0  0  0  0  0  0
  135.8961   71.0416  225.0357 H   0  0  0  0  0  0  0  0  0  0  0  0
  137.6036   71.0973  224.4576 H   0  0  0  0  0  0  0  0  0  0  0  0
  136.9190   73.0230  223.5310 H   0  0  0  0  0  0  0  0  0  0  0  0
  134.9958   71.4709  221.9215 H   0  0  0  0  0  0  0  0  0  0  0  0
  136.0043   72.9211  221.4436 H   0  0  0  0  0  0  0  0  0  0  0  0
  136.6922   70.8422  220.3061 H   0  0  0  0  0  0  0  0  0  0  0  0
  137.9769   71.5800  221.3425 H   0  0  0  0  0  0  0  0  0  0  0  0
  142.0817   70.8389  221.6757 H   0  0  0  0  0  0  0  0  0  0  0  0
  144.0527   70.8279  220.1960 H   0  0  0  0  0  0  0  0  0  0  0  0
  1  2  1  0
  2  3  2  0
  2  4  2  0
  2  5  1  0
  5  6  2  0
  6  7  1  0
  7  8  2  0
  8  9  1  0
  9 10  2  0
 10 11  1  0
 11 12  2  0
 12 13  1  0
 13 14  2  0
 14 15  1  0
 15 16  2  0
 16 17  1  0
 16 18  1  0
 18 19  2  0
 19 20  1  0
 20 21  2  0
 20 22  1  0
 22 23  1  0
 23 24  1  0
 24 25  1  0
 25 26  1  0
 26 27  1  0
 27 28  1  0
 28 29  1  0
  8 30  1  0
 30 31  2  0
 31  5  1  0
 22 11  1  0
 29 24  1  0
 19 13  1  0
  1 32  1  0
  1 33  1  0
  6 34  1  0
  7 35  1  0
  9 36  1  0
 10 37  1  0
 14 38  1  0
 15 39  1  0
 18 40  1  0
 23 41  1  0
 23 42  1  0
 24 43  1  0
 25 44  1  0
 25 45  1  0
 26 46  1  0
 26 47  1  0
 27 48  1  0
 28 49  1  0
 28 50  1  0
 29 51  1  0
 29 52  1  0
 30 53  1  0
 31 54  1  0
M  END
>  <smiles>  (15) 
NS(=O)(=O)c1ccc(/C=C/c2nc3ccc(F)cc3c(=O)n2CC2CCNCC2)cc1

>  <score_type>  (15) 
oracle

>  <origin>  (15) 
autodockgpu

>  <m_score__min__energy>  (15) 
-10.24

>  <m_primary>  (15) 
energy

>  <rmsd>  (15) 
10.804871957300115

>  <m_score__min__rmsd>  (15) 
10.804871957300115

>  <meeko>  (15) 
{"free_energy": -8.78, "intermolecular_energy": -10.87, "internal_energy": -1.45, "cluster_size": 12, "cluster_id": 2, "rank_in_cluster": 5}

>  <energy>  (15) 
-8.98

>  <cluster_rmsd>  (15) 
0.7

>  <cluster>  (15) 
2

$$$$

     RDKit          3D

 54 57  0  0  0  0  0  0  0  0999 V2000
  139.8450   68.6730  228.0500 N   0  0  0  0  0  0  0  0  0  0  0  0
  140.1750   68.0710  226.4640 S   0  0  0  0  0  0  0  0  0  0  0  0
  139.1740   67.0130  226.1400 O   0  0  0  0  0  0  0  0  0  0  0  0
  141.5390   67.4200  226.4120 O   0  0  0  0  0  0  0  0  0  0  0  0
  140.0640   69.3550  225.2850 C   0  0  0  0  0  0  0  0  0  0  0  0
  140.8350   70.4710  225.4450 C   0  0  0  0  0  0  0  0  0  0  0  0
  140.7790   71.4960  224.5490 C   0  0  0  0  0  0  0  0  0  0  0  0
  139.9450   71.4800  223.4230 C   0  0  0  0  0  0  0  0  0  0  0  0
  139.9160   72.5970  222.4900 C   0  0  0  0  0  0  0  0  0  0  0  0
  140.8300   72.8270  221.5740 C   0  0  0  0  0  0  0  0  0  0  0  0
  141.1130   74.1980  221.1610 C   0  0  0  0  0  0  0  0  0  0  0  0
  140.8070   75.2000  222.0360 N   0  0  0  0  0  0  0  0  0  0  0  0
  141.0080   76.4900  221.7910 C   0  0  0  0  0  0  0  0  0  0  0  0
  140.6790   77.4700  222.7160 C   0  0  0  0  0  0  0  0  0  0  0  0
  140.9030   78.8000  222.4270 C   0  0  0  0  0  0  0  0  0  0  0  0
  141.4540   79.1110  221.2090 C   0  0  0  0  0  0  0  0  0  0  0  0
  141.6610   80.4370  220.9560 F   0  0  0  0  0  0  0  0  0  0  0  0
  141.7890   78.1340  220.2680 C   0  0  0  0  0  0  0  0  0  0  0  0
  141.5680   76.8110  220.5550 C   0  0  0  0  0  0  0  0  0  0  0  0
  141.8730   75.7900  219.6790 C   0  0  0  0  0  0  0  0  0  0  0  0
  142.3840   76.1620  218.5680 O   0  0  0  0  0  0  0  0  0  0  0  0
  141.6590   74.4890  219.9510 N   0  0  0  0  0  0  0  0  0  0  0  0
  141.9680   73.4390  219.0220 C   0  0  0  0  0  0  0  0  0  0  0  0
  143.4170   73.2910  218.7000 C   0  0  0  0  0  0  0  0  0  0  0  0
  144.3540   74.2050  219.4000 C   0  0  0  0  0  0  0  0  0  0  0  0
  144.6340   73.7930  220.8270 C   0  0  0  0  0  0  0  0  0  0  0  0
  145.2180   72.4520  220.8670 N   0  0  0  0  0  0  0  0  0  0  0  0
  145.2230   71.8050  219.5920 C   0  0  0  0  0  0  0  0  0  0  0  0
  143.8920   71.8540  218.8740 C   0  0  0  0  0  0  0  0  0  0  0  0
  139.1760   70.3460  223.2790 C   0  0  0  0  0  0  0  0  0  0  0  0
  139.2270   69.2970  224.1880 C   0  0  0  0  0  0  0  0  0  0  0  0
  140.7100   69.1620  228.3850 H   0  0  0  0  0  0  0  0  0  0  0  0
  139.7610   67.8190  228.6610 H   0  0  0  0  0  0  0  0  0  0  0  0
  141.5110   70.5434  226.3098 H   0  0  0  0  0  0  0  0  0  0  0  0
  141.4174   72.3759  224.7171 H   0  0  0  0  0  0  0  0  0  0  0  0
  139.0703   73.2973  222.5562 H   0  0  0  0  0  0  0  0  0  0  0  0
  141.3797   71.9892  221.1202 H   0  0  0  0  0  0  0  0  0  0  0  0
  140.2382   77.1856  223.6829 H   0  0  0  0  0  0  0  0  0  0  0  0
  140.6477   79.5878  223.1510 H   0  0  0  0  0  0  0  0  0  0  0  0
  142.2277   78.4243  219.3020 H   0  0  0  0  0  0  0  0  0  0  0  0
  141.6144   72.4893  219.4499 H   0  0  0  0  0  0  0  0  0  0  0  0
  141.4682   73.7048  218.0789 H   0  0  0  0  0  0  0  0  0  0  0  0
  143.4544   73.5921  217.6427 H   0  0  0  0  0  0  0  0  0  0  0  0
  145.3052   74.2205  218.8477 H   0  0  0  0  0  0  0  0  0  0  0  0
  143.8791   75.1966  219.4335 H   0  0  0  0  0  0  0  0  0  0  0  0
  145.3372   74.5079  221.2790 H   0  0  0  0  0  0  0  0  0  0  0  0
  143.6878   73.7863  221.3880 H   0  0  0  0  0  0  0  0  0  0  0  0
  144.8550   71.8890  221.6560 H   0  0  0  0  0  0  0  0  0  0  0  0
  145.9767   72.2949  218.9580 H   0  0  0  0  0  0  0  0  0  0  0  0
  145.4488   70.7438  219.7735 H   0  0  0  0  0  0  0  0  0  0  0  0
  144.0006   71.3888  217.8832 H   0  0  0  0  0  0  0  0  0  0  0  0
  143.1492   71.3103  219.4762 H   0  0  0  0  0  0  0  0  0  0  0  0
  138.4991   70.2688  222.4154 H   0  0  0  0  0  0  0  0  0  0  0  0
  138.5942   68.4108  224.0325 H   0  0  0  0  0  0  0  0  0  0  0  0
  1  2  1  0
  2  3  2  0
  2  4  2  0
  2  5  1  0
  5  6  2  0
  6  7  1  0
  7  8  2  0
  8  9  1  0
  9 10  2  0
 10 11  1  0
 11 12  2  0
 12 13  1  0
 13 14  2  0
 14 15  1  0
 15 16  2  0
 16 17  1  0
 16 18  1  0
 18 19  2  0
 19 20  1  0
 20 21  2  0
 20 22  1  0
 22 23  1  0
 23 24  1  0
 24 25  1  0
 25 26  1  0
 26 27  1  0
 27 28  1  0
 28 29  1  0
  8 30  1  0
 30 31  2  0
 31  5  1  0
 22 11  1  0
 29 24  1  0
 19 13  1  0
  1 32  1  0
  1 33  1  0
  6 34  1  0
  7 35  1  0
  9 36  1  0
 10 37  1  0
 14 38  1  0
 15 39  1  0
 18 40  1  0
 23 41  1  0
 23 42  1  0
 24 43  1  0
 25 44  1  0
 25 45  1  0
 26 46  1  0
 26 47  1  0
 27 48  1  0
 28 49  1  0
 28 50  1  0
 29 51  1  0
 29 52  1  0
 30 53  1  0
 31 54  1  0
M  END
>  <smiles>  (16) 
NS(=O)(=O)c1ccc(/C=C/c2nc3ccc(F)cc3c(=O)n2CC2CCNCC2)cc1

>  <score_type>  (16) 
oracle

>  <origin>  (16) 
autodockgpu

>  <m_score__min__energy>  (16) 
-10.24

>  <m_primary>  (16) 
energy

>  <rmsd>  (16) 
7.9238361038694585

>  <m_score__min__rmsd>  (16) 
7.9238361038694585

>  <meeko>  (16) 
{"free_energy": -8.41, "intermolecular_energy": -10.49, "internal_energy": -1.17, "cluster_size": 13, "cluster_id": 1, "rank_in_cluster": 13}

>  <energy>  (16) 
-8.85

>  <cluster_rmsd>  (16) 
0.36

>  <cluster>  (16) 
2

$$$$

     RDKit          3D

 54 57  0  0  0  0  0  0  0  0999 V2000
  145.8340   71.5290  220.0300 N   0  0  0  0  0  0  0  0  0  0  0  0
  145.7360   73.2110  219.6490 S   0  0  0  0  0  0  0  0  0  0  0  0
  145.9620   73.3800  218.1840 O   0  0  0  0  0  0  0  0  0  0  0  0
  146.8270   73.9840  220.3560 O   0  0  0  0  0  0  0  0  0  0  0  0
  144.1640   73.8460  220.0710 C   0  0  0  0  0  0  0  0  0  0  0  0
  143.8820   75.1550  219.7960 C   0  0  0  0  0  0  0  0  0  0  0  0
  142.6690   75.6900  220.1080 C   0  0  0  0  0  0  0  0  0  0  0  0
  141.6450   74.9540  220.7200 C   0  0  0  0  0  0  0  0  0  0  0  0
  140.3620   75.5660  221.0370 C   0  0  0  0  0  0  0  0  0  0  0  0
  140.1850   76.4980  221.9460 C   0  0  0  0  0  0  0  0  0  0  0  0
  138.8320   76.8870  222.3310 C   0  0  0  0  0  0  0  0  0  0  0  0
  137.9860   75.9040  222.7580 N   0  0  0  0  0  0  0  0  0  0  0  0
  136.7300   76.1130  223.1360 C   0  0  0  0  0  0  0  0  0  0  0  0
  135.9120   75.0780  223.5630 C   0  0  0  0  0  0  0  0  0  0  0  0
  134.6130   75.3340  223.9480 C   0  0  0  0  0  0  0  0  0  0  0  0
  134.1670   76.6310  223.8930 C   0  0  0  0  0  0  0  0  0  0  0  0
  132.8760   76.8490  224.2810 F   0  0  0  0  0  0  0  0  0  0  0  0
  134.9810   77.6830  223.4640 C   0  0  0  0  0  0  0  0  0  0  0  0
  136.2730   77.4300  223.0820 C   0  0  0  0  0  0  0  0  0  0  0  0
  137.1360   78.4150  222.6480 C   0  0  0  0  0  0  0  0  0  0  0  0
  136.6470   79.5960  222.6280 O   0  0  0  0  0  0  0  0  0  0  0  0
  138.4070   78.1760  222.2700 N   0  0  0  0  0  0  0  0  0  0  0  0
  139.2880   79.2110  221.8070 C   0  0  0  0  0  0  0  0  0  0  0  0
  139.9880   79.9690  222.8840 C   0  0  0  0  0  0  0  0  0  0  0  0
  140.8160   79.1790  223.8280 C   0  0  0  0  0  0  0  0  0  0  0  0
  142.1530   78.7720  223.2530 C   0  0  0  0  0  0  0  0  0  0  0  0
  142.9270   79.9540  222.8740 N   0  0  0  0  0  0  0  0  0  0  0  0
  142.1830   81.1700  222.9800 C   0  0  0  0  0  0  0  0  0  0  0  0
  140.8210   81.1140  222.3210 C   0  0  0  0  0  0  0  0  0  0  0  0
  141.9490   73.6380  220.9890 C   0  0  0  0  0  0  0  0  0  0  0  0
  143.1830   73.0840  220.6740 C   0  0  0  0  0  0  0  0  0  0  0  0
  145.0420   71.3090  220.6820 H   0  0  0  0  0  0  0  0  0  0  0  0
  146.7040   71.4250  220.6150 H   0  0  0  0  0  0  0  0  0  0  0  0
  144.6454   75.7850  219.3161 H   0  0  0  0  0  0  0  0  0  0  0  0
  142.4845   76.7477  219.8689 H   0  0  0  0  0  0  0  0  0  0  0  0
  139.4796   75.2241  220.4763 H   0  0  0  0  0  0  0  0  0  0  0  0
  141.0535   76.9834  222.4152 H   0  0  0  0  0  0  0  0  0  0  0  0
  136.3006   74.0494  223.5947 H   0  0  0  0  0  0  0  0  0  0  0  0
  133.9534   74.5226  224.2892 H   0  0  0  0  0  0  0  0  0  0  0  0
  134.5867   78.7094  223.4330 H   0  0  0  0  0  0  0  0  0  0  0  0
  140.0510   78.7478  221.1641 H   0  0  0  0  0  0  0  0  0  0  0  0
  138.6562   79.9397  221.2780 H   0  0  0  0  0  0  0  0  0  0  0  0
  139.1494   80.3508  223.4848 H   0  0  0  0  0  0  0  0  0  0  0  0
  140.9931   79.7850  224.7288 H   0  0  0  0  0  0  0  0  0  0  0  0
  140.2628   78.2552  224.0526 H   0  0  0  0  0  0  0  0  0  0  0  0
  142.7125   78.1991  224.0072 H   0  0  0  0  0  0  0  0  0  0  0  0
  141.9834   78.1550  222.3583 H   0  0  0  0  0  0  0  0  0  0  0  0
  143.4440   79.8180  221.9880 H   0  0  0  0  0  0  0  0  0  0  0  0
  142.0427   81.3986  224.0468 H   0  0  0  0  0  0  0  0  0  0  0  0
  142.7606   81.9451  222.4551 H   0  0  0  0  0  0  0  0  0  0  0  0
  140.2953   82.0634  222.5007 H   0  0  0  0  0  0  0  0  0  0  0  0
  140.9603   80.9484  221.2425 H   0  0  0  0  0  0  0  0  0  0  0  0
  141.1890   73.0044  221.4695 H   0  0  0  0  0  0  0  0  0  0  0  0
  143.3809   72.0274  220.9073 H   0  0  0  0  0  0  0  0  0  0  0  0
  1  2  1  0
  2  3  2  0
  2  4  2  0
  2  5  1  0
  5  6  2  0
  6  7  1  0
  7  8  2  0
  8  9  1  0
  9 10  2  0
 10 11  1  0
 11 12  2  0
 12 13  1  0
 13 14  2  0
 14 15  1  0
 15 16  2  0
 16 17  1  0
 16 18  1  0
 18 19  2  0
 19 20  1  0
 20 21  2  0
 20 22  1  0
 22 23  1  0
 23 24  1  0
 24 25  1  0
 25 26  1  0
 26 27  1  0
 27 28  1  0
 28 29  1  0
  8 30  1  0
 30 31  2  0
 31  5  1  0
 22 11  1  0
 29 24  1  0
 19 13  1  0
  1 32  1  0
  1 33  1  0
  6 34  1  0
  7 35  1  0
  9 36  1  0
 10 37  1  0
 14 38  1  0
 15 39  1  0
 18 40  1  0
 23 41  1  0
 23 42  1  0
 24 43  1  0
 25 44  1  0
 25 45  1  0
 26 46  1  0
 26 47  1  0
 27 48  1  0
 28 49  1  0
 28 50  1  0
 29 51  1  0
 29 52  1  0
 30 53  1  0
 31 54  1  0
M  END
>  <smiles>  (17) 
NS(=O)(=O)c1ccc(/C=C/c2nc3ccc(F)cc3c(=O)n2CC2CCNCC2)cc1

>  <score_type>  (17) 
oracle

>  <origin>  (17) 
autodockgpu

>  <m_score__min__energy>  (17) 
-10.24

>  <m_primary>  (17) 
energy

>  <rmsd>  (17) 
5.107147986124394

>  <m_score__min__rmsd>  (17) 
5.107147986124394

>  <meeko>  (17) 
{"free_energy": -8.27, "intermolecular_energy": -10.36, "internal_energy": -1.25, "cluster_size": 6, "cluster_id": 3, "rank_in_cluster": 3}

>  <energy>  (17) 
-8.85

>  <cluster_rmsd>  (17) 
0.59

>  <cluster>  (17) 
2

$$$$

     RDKit          3D

 54 57  0  0  0  0  0  0  0  0999 V2000
  139.3590   67.8200  227.4820 N   0  0  0  0  0  0  0  0  0  0  0  0
  140.7540   68.7320  227.0270 S   0  0  0  0  0  0  0  0  0  0  0  0
  141.8360   67.7820  226.6380 O   0  0  0  0  0  0  0  0  0  0  0  0
  141.2720   69.5360  228.1990 O   0  0  0  0  0  0  0  0  0  0  0  0
  140.3890   69.7800  225.6780 C   0  0  0  0  0  0  0  0  0  0  0  0
  139.5150   69.3490  224.7210 C   0  0  0  0  0  0  0  0  0  0  0  0
  139.2030   70.1350  223.6530 C   0  0  0  0  0  0  0  0  0  0  0  0
  139.7450   71.4120  223.4620 C   0  0  0  0  0  0  0  0  0  0  0  0
  139.3840   72.2200  222.3040 C   0  0  0  0  0  0  0  0  0  0  0  0
  140.2190   72.5740  221.3540 C   0  0  0  0  0  0  0  0  0  0  0  0
  140.6750   73.9580  221.2680 C   0  0  0  0  0  0  0  0  0  0  0  0
  139.9830   74.8980  221.9760 N   0  0  0  0  0  0  0  0  0  0  0  0
  140.2840   76.1920  221.9890 C   0  0  0  0  0  0  0  0  0  0  0  0
  139.5480   77.1080  222.7270 C   0  0  0  0  0  0  0  0  0  0  0  0
  139.8910   78.4430  222.7170 C   0  0  0  0  0  0  0  0  0  0  0  0
  140.9710   78.8260  221.9600 C   0  0  0  0  0  0  0  0  0  0  0  0
  141.2820   80.1560  221.9710 F   0  0  0  0  0  0  0  0  0  0  0  0
  141.7200   77.9140  221.2110 C   0  0  0  0  0  0  0  0  0  0  0  0
  141.3800   76.5860  221.2210 C   0  0  0  0  0  0  0  0  0  0  0  0
  142.0710   75.6270  220.5100 C   0  0  0  0  0  0  0  0  0  0  0  0
  143.0640   76.0630  219.8330 O   0  0  0  0  0  0  0  0  0  0  0  0
  141.7450   74.3200  220.5140 N   0  0  0  0  0  0  0  0  0  0  0  0
  142.4660   73.3370  219.7560 C   0  0  0  0  0  0  0  0  0  0  0  0
  143.6560   72.7600  220.4450 C   0  0  0  0  0  0  0  0  0  0  0  0
  144.3670   71.6620  219.7430 C   0  0  0  0  0  0  0  0  0  0  0  0
  145.2580   72.1490  218.6230 C   0  0  0  0  0  0  0  0  0  0  0  0
  146.2720   73.0680  219.1390 N   0  0  0  0  0  0  0  0  0  0  0  0
  146.0730   73.4080  220.5140 C   0  0  0  0  0  0  0  0  0  0  0  0
  144.6590   73.8360  220.8410 C   0  0  0  0  0  0  0  0  0  0  0  0
  140.6240   71.8290  224.4370 C   0  0  0  0  0  0  0  0  0  0  0  0
  140.9480   71.0350  225.5290 C   0  0  0  0  0  0  0  0  0  0  0  0
  139.6410   66.8100  227.5140 H   0  0  0  0  0  0  0  0  0  0  0  0
  138.6990   67.8920  226.6640 H   0  0  0  0  0  0  0  0  0  0  0  0
  139.0567   68.3534  224.8139 H   0  0  0  0  0  0  0  0  0  0  0  0
  138.4930   69.7490  222.9067 H   0  0  0  0  0  0  0  0  0  0  0  0
  138.3402   72.5566  222.2198 H   0  0  0  0  0  0  0  0  0  0  0  0
  140.5735   71.8299  220.6255 H   0  0  0  0  0  0  0  0  0  0  0  0
  138.6878   76.7676  223.3221 H   0  0  0  0  0  0  0  0  0  0  0  0
  139.3168   79.1797  223.2980 H   0  0  0  0  0  0  0  0  0  0  0  0
  142.5782   78.2603  220.6163 H   0  0  0  0  0  0  0  0  0  0  0  0
  141.7756   72.5138  219.5201 H   0  0  0  0  0  0  0  0  0  0  0  0
  142.8478   73.8551  218.8639 H   0  0  0  0  0  0  0  0  0  0  0  0
  143.2085   72.2936  221.3351 H   0  0  0  0  0  0  0  0  0  0  0  0
  144.9877   71.1237  220.4744 H   0  0  0  0  0  0  0  0  0  0  0  0
  143.6017   71.0127  219.2927 H   0  0  0  0  0  0  0  0  0  0  0  0
  145.7553   71.2867  218.1549 H   0  0  0  0  0  0  0  0  0  0  0  0
  144.6413   72.6788  217.8820 H   0  0  0  0  0  0  0  0  0  0  0  0
  146.4440   73.8640  218.5000 H   0  0  0  0  0  0  0  0  0  0  0  0
  146.3194   72.5288  221.1274 H   0  0  0  0  0  0  0  0  0  0  0  0
  146.7246   74.2680  220.7279 H   0  0  0  0  0  0  0  0  0  0  0  0
  144.5802   74.0202  221.9226 H   0  0  0  0  0  0  0  0  0  0  0  0
  144.4311   74.7517  220.2758 H   0  0  0  0  0  0  0  0  0  0  0  0
  141.0845   72.8239  224.3476 H   0  0  0  0  0  0  0  0  0  0  0  0
  141.6566   71.4086  226.2829 H   0  0  0  0  0  0  0  0  0  0  0  0
  1  2  1  0
  2  3  2  0
  2  4  2  0
  2  5  1  0
  5  6  2  0
  6  7  1  0
  7  8  2  0
  8  9  1  0
  9 10  2  0
 10 11  1  0
 11 12  2  0
 12 13  1  0
 13 14  2  0
 14 15  1  0
 15 16  2  0
 16 17  1  0
 16 18  1  0
 18 19  2  0
 19 20  1  0
 20 21  2  0
 20 22  1  0
 22 23  1  0
 23 24  1  0
 24 25  1  0
 25 26  1  0
 26 27  1  0
 27 28  1  0
 28 29  1  0
  8 30  1  0
 30 31  2  0
 31  5  1  0
 22 11  1  0
 29 24  1  0
 19 13  1  0
  1 32  1  0
  1 33  1  0
  6 34  1  0
  7 35  1  0
  9 36  1  0
 10 37  1  0
 14 38  1  0
 15 39  1  0
 18 40  1  0
 23 41  1  0
 23 42  1  0
 24 43  1  0
 25 44  1  0
 25 45  1  0
 26 46  1  0
 26 47  1  0
 27 48  1  0
 28 49  1  0
 28 50  1  0
 29 51  1  0
 29 52  1  0
 30 53  1  0
 31 54  1  0
M  END
>  <smiles>  (18) 
NS(=O)(=O)c1ccc(/C=C/c2nc3ccc(F)cc3c(=O)n2CC2CCNCC2)cc1

>  <score_type>  (18) 
oracle

>  <origin>  (18) 
autodockgpu

>  <m_score__min__energy>  (18) 
-10.24

>  <m_primary>  (18) 
energy

>  <rmsd>  (18) 
8.160112297548574

>  <m_score__min__rmsd>  (18) 
8.160112297548574

>  <meeko>  (18) 
{"free_energy": -9.61, "intermolecular_energy": -11.69, "internal_energy": -1.22, "cluster_size": 13, "cluster_id": 1, "rank_in_cluster": 9}

>  <energy>  (18) 
-8.78

>  <cluster_rmsd>  (18) 
0.94

>  <cluster>  (18) 
2

$$$$

     RDKit          3D

 54 57  0  0  0  0  0  0  0  0999 V2000
  142.7030   79.3360  222.4130 N   0  0  0  0  0  0  0  0  0  0  0  0
  141.0000   79.1350  222.2040 S   0  0  0  0  0  0  0  0  0  0  0  0
  140.5900   79.8240  220.9460 O   0  0  0  0  0  0  0  0  0  0  0  0
  140.2410   79.7930  223.3350 O   0  0  0  0  0  0  0  0  0  0  0  0
  140.5900   77.4390  222.0970 C   0  0  0  0  0  0  0  0  0  0  0  0
  139.4060   77.0090  222.6250 C   0  0  0  0  0  0  0  0  0  0  0  0
  139.0480   75.6960  222.5630 C   0  0  0  0  0  0  0  0  0  0  0  0
  139.8510   74.7140  221.9670 C   0  0  0  0  0  0  0  0  0  0  0  0
  139.4300   73.3200  221.9230 C   0  0  0  0  0  0  0  0  0  0  0  0
  140.2250   72.2950  222.1240 C   0  0  0  0  0  0  0  0  0  0  0  0
  140.0370   71.4500  223.3000 C   0  0  0  0  0  0  0  0  0  0  0  0
  140.6050   71.8590  224.4720 N   0  0  0  0  0  0  0  0  0  0  0  0
  140.5170   71.1900  225.6160 C   0  0  0  0  0  0  0  0  0  0  0  0
  141.1140   71.6500  226.7810 C   0  0  0  0  0  0  0  0  0  0  0  0
  141.0000   70.9290  227.9500 C   0  0  0  0  0  0  0  0  0  0  0  0
  140.2860   69.7570  227.9180 C   0  0  0  0  0  0  0  0  0  0  0  0
  140.1940   69.0670  229.0930 F   0  0  0  0  0  0  0  0  0  0  0  0
  139.6800   69.2820  226.7510 C   0  0  0  0  0  0  0  0  0  0  0  0
  139.7920   69.9990  225.5880 C   0  0  0  0  0  0  0  0  0  0  0  0
  139.2220   69.5960  224.3980 C   0  0  0  0  0  0  0  0  0  0  0  0
  138.5720   68.4960  224.4520 O   0  0  0  0  0  0  0  0  0  0  0  0
  139.3270   70.2920  223.2510 N   0  0  0  0  0  0  0  0  0  0  0  0
  138.7400   69.8510  222.0170 C   0  0  0  0  0  0  0  0  0  0  0  0
  137.2990   70.1960  221.8470 C   0  0  0  0  0  0  0  0  0  0  0  0
  136.4570   70.1700  223.0680 C   0  0  0  0  0  0  0  0  0  0  0  0
  136.6400   71.3870  223.9450 C   0  0  0  0  0  0  0  0  0  0  0  0
  136.3030   72.6040  223.2070 N   0  0  0  0  0  0  0  0  0  0  0  0
  136.0530   72.3670  221.8190 C   0  0  0  0  0  0  0  0  0  0  0  0
  137.1160   71.5330  221.1390 C   0  0  0  0  0  0  0  0  0  0  0  0
  141.0400   75.1680  221.4410 C   0  0  0  0  0  0  0  0  0  0  0  0
  141.4130   76.5040  221.5000 C   0  0  0  0  0  0  0  0  0  0  0  0
  143.0720   79.7970  221.5460 H   0  0  0  0  0  0  0  0  0  0  0  0
  143.1040   78.3620  222.3960 H   0  0  0  0  0  0  0  0  0  0  0  0
  138.7323   77.7328  223.1069 H   0  0  0  0  0  0  0  0  0  0  0  0
  138.0853   75.3929  223.0004 H   0  0  0  0  0  0  0  0  0  0  0  0
  138.3719   73.1118  221.7062 H   0  0  0  0  0  0  0  0  0  0  0  0
  141.0306   72.0732  221.4086 H   0  0  0  0  0  0  0  0  0  0  0  0
  141.6801   72.5931  226.7715 H   0  0  0  0  0  0  0  0  0  0  0  0
  141.4673   71.2822  228.8811 H   0  0  0  0  0  0  0  0  0  0  0  0
  139.1161   68.3376  226.7660 H   0  0  0  0  0  0  0  0  0  0  0  0
  139.3008   70.3094  221.1891 H   0  0  0  0  0  0  0  0  0  0  0  0
  138.7947   68.7524  222.0253 H   0  0  0  0  0  0  0  0  0  0  0  0
  136.9318   69.3672  221.2239 H   0  0  0  0  0  0  0  0  0  0  0  0
  135.4015   70.1145  222.7634 H   0  0  0  0  0  0  0  0  0  0  0  0
  136.7643   69.2937  223.6576 H   0  0  0  0  0  0  0  0  0  0  0  0
  135.9833   71.3025  224.8234 H   0  0  0  0  0  0  0  0  0  0  0  0
  137.6917   71.4425  224.2625 H   0  0  0  0  0  0  0  0  0  0  0  0
  136.9470   73.3850  223.4210 H   0  0  0  0  0  0  0  0  0  0  0  0
  135.0897   71.8443  221.7248 H   0  0  0  0  0  0  0  0  0  0  0  0
  136.0509   73.3486  221.3225 H   0  0  0  0  0  0  0  0  0  0  0  0
  136.8168   71.3497  220.0965 H   0  0  0  0  0  0  0  0  0  0  0  0
  138.0685   72.0820  221.1765 H   0  0  0  0  0  0  0  0  0  0  0  0
  141.7169   74.4480  220.9579 H   0  0  0  0  0  0  0  0  0  0  0  0
  142.3733   76.8210  221.0671 H   0  0  0  0  0  0  0  0  0  0  0  0
  1  2  1  0
  2  3  2  0
  2  4  2  0
  2  5  1  0
  5  6  2  0
  6  7  1  0
  7  8  2  0
  8  9  1  0
  9 10  2  0
 10 11  1  0
 11 12  2  0
 12 13  1  0
 13 14  2  0
 14 15  1  0
 15 16  2  0
 16 17  1  0
 16 18  1  0
 18 19  2  0
 19 20  1  0
 20 21  2  0
 20 22  1  0
 22 23  1  0
 23 24  1  0
 24 25  1  0
 25 26  1  0
 26 27  1  0
 27 28  1  0
 28 29  1  0
  8 30  1  0
 30 31  2  0
 31  5  1  0
 22 11  1  0
 29 24  1  0
 19 13  1  0
  1 32  1  0
  1 33  1  0
  6 34  1  0
  7 35  1  0
  9 36  1  0
 10 37  1  0
 14 38  1  0
 15 39  1  0
 18 40  1  0
 23 41  1  0
 23 42  1  0
 24 43  1  0
 25 44  1  0
 25 45  1  0
 26 46  1  0
 26 47  1  0
 27 48  1  0
 28 49  1  0
 28 50  1  0
 29 51  1  0
 29 52  1  0
 30 53  1  0
 31 54  1  0
M  END
>  <smiles>  (19) 
NS(=O)(=O)c1ccc(/C=C/c2nc3ccc(F)cc3c(=O)n2CC2CCNCC2)cc1

>  <score_type>  (19) 
oracle

>  <origin>  (19) 
autodockgpu

>  <m_score__min__energy>  (19) 
-10.24

>  <m_primary>  (19) 
energy

>  <rmsd>  (19) 
10.384484553355948

>  <m_score__min__rmsd>  (19) 
10.384484553355948

>  <meeko>  (19) 
{"free_energy": -8.33, "intermolecular_energy": -10.42, "internal_energy": -1.56, "cluster_size": 10, "cluster_id": 4, "rank_in_cluster": 7}

>  <energy>  (19) 
-8.74

>  <cluster_rmsd>  (19) 
0.78

>  <cluster>  (19) 
2

$$$$

     RDKit          3D

 54 57  0  0  0  0  0  0  0  0999 V2000
  139.1900   67.0160  226.5340 N   0  0  0  0  0  0  0  0  0  0  0  0
  140.2640   68.3370  226.8260 S   0  0  0  0  0  0  0  0  0  0  0  0
  141.6650   67.8250  226.7980 O   0  0  0  0  0  0  0  0  0  0  0  0
  140.0340   68.9190  228.2020 O   0  0  0  0  0  0  0  0  0  0  0  0
  140.0710   69.5680  225.6010 C   0  0  0  0  0  0  0  0  0  0  0  0
  140.8280   70.7030  225.6770 C   0  0  0  0  0  0  0  0  0  0  0  0
  140.7080   71.6870  224.7430 C   0  0  0  0  0  0  0  0  0  0  0  0
  139.8220   71.6090  223.6600 C   0  0  0  0  0  0  0  0  0  0  0  0
  139.7270   72.6850  222.6830 C   0  0  0  0  0  0  0  0  0  0  0  0
  140.5610   72.8600  221.6840 C   0  0  0  0  0  0  0  0  0  0  0  0
  140.9760   74.2090  221.3140 C   0  0  0  0  0  0  0  0  0  0  0  0
  140.3970   75.2540  221.9760 N   0  0  0  0  0  0  0  0  0  0  0  0
  140.6770   76.5320  221.7410 C   0  0  0  0  0  0  0  0  0  0  0  0
  140.0610   77.5570  222.4430 C   0  0  0  0  0  0  0  0  0  0  0  0
  140.3770   78.8710  222.1720 C   0  0  0  0  0  0  0  0  0  0  0  0
  141.3110   79.1220  221.1970 C   0  0  0  0  0  0  0  0  0  0  0  0
  141.6000   80.4340  220.9540 F   0  0  0  0  0  0  0  0  0  0  0  0
  141.9390   78.0990  220.4830 C   0  0  0  0  0  0  0  0  0  0  0  0
  141.6250   76.7910  220.7510 C   0  0  0  0  0  0  0  0  0  0  0  0
  142.2030   75.7270  220.0900 C   0  0  0  0  0  0  0  0  0  0  0  0
  143.0630   76.0440  219.1990 O   0  0  0  0  0  0  0  0  0  0  0  0
  141.9010   74.4400  220.3460 N   0  0  0  0  0  0  0  0  0  0  0  0
  142.5010   73.3450  219.6380 C   0  0  0  0  0  0  0  0  0  0  0  0
  143.6780   72.7270  220.3140 C   0  0  0  0  0  0  0  0  0  0  0  0
  144.4040   71.6740  219.5620 C   0  0  0  0  0  0  0  0  0  0  0  0
  145.3170   72.2270  218.4920 C   0  0  0  0  0  0  0  0  0  0  0  0
  146.3190   73.1150  219.0820 N   0  0  0  0  0  0  0  0  0  0  0  0
  146.0920   73.3710  220.4710 C   0  0  0  0  0  0  0  0  0  0  0  0
  144.6710   73.7780  220.7950 C   0  0  0  0  0  0  0  0  0  0  0  0
  139.0690   70.4570  223.6010 C   0  0  0  0  0  0  0  0  0  0  0  0
  139.1830   69.4480  224.5490 C   0  0  0  0  0  0  0  0  0  0  0  0
  138.2230   67.4110  226.4490 H   0  0  0  0  0  0  0  0  0  0  0  0
  139.1790   66.4620  227.4300 H   0  0  0  0  0  0  0  0  0  0  0  0
  141.5438   70.8236  226.5035 H   0  0  0  0  0  0  0  0  0  0  0  0
  141.3357   72.5847  224.8434 H   0  0  0  0  0  0  0  0  0  0  0  0
  138.8988   73.4010  222.7894 H   0  0  0  0  0  0  0  0  0  0  0  0
  140.9456   71.9924  221.1278 H   0  0  0  0  0  0  0  0  0  0  0  0
  139.3177   77.3207  223.2187 H   0  0  0  0  0  0  0  0  0  0  0  0
  139.8954   79.6940  222.7203 H   0  0  0  0  0  0  0  0  0  0  0  0
  142.6822   78.3412  219.7091 H   0  0  0  0  0  0  0  0  0  0  0  0
  141.7365   72.5656  219.5036 H   0  0  0  0  0  0  0  0  0  0  0  0
  142.8736   73.7593  218.6895 H   0  0  0  0  0  0  0  0  0  0  0  0
  143.2137   72.2065  221.1646 H   0  0  0  0  0  0  0  0  0  0  0  0
  145.0102   71.0925  220.2722 H   0  0  0  0  0  0  0  0  0  0  0  0
  143.6486   71.0535  219.0577 H   0  0  0  0  0  0  0  0  0  0  0  0
  145.8255   71.3942  217.9842 H   0  0  0  0  0  0  0  0  0  0  0  0
  144.7146   72.7995  217.7714 H   0  0  0  0  0  0  0  0  0  0  0  0
  146.5020   73.9470  218.4950 H   0  0  0  0  0  0  0  0  0  0  0  0
  146.3274   72.4563  221.0348 H   0  0  0  0  0  0  0  0  0  0  0  0
  146.7379   74.2167  220.7496 H   0  0  0  0  0  0  0  0  0  0  0  0
  144.5702   73.8962  221.8840 H   0  0  0  0  0  0  0  0  0  0  0  0
  144.4529   74.7264  220.2822 H   0  0  0  0  0  0  0  0  0  0  0  0
  138.3532   70.3318  222.7752 H   0  0  0  0  0  0  0  0  0  0  0  0
  138.5607   68.5452  224.4615 H   0  0  0  0  0  0  0  0  0  0  0  0
  1  2  1  0
  2  3  2  0
  2  4  2  0
  2  5  1  0
  5  6  2  0
  6  7  1  0
  7  8  2  0
  8  9  1  0
  9 10  2  0
 10 11  1  0
 11 12  2  0
 12 13  1  0
 13 14  2  0
 14 15  1  0
 15 16  2  0
 16 17  1  0
 16 18  1  0
 18 19  2  0
 19 20  1  0
 20 21  2  0
 20 22  1  0
 22 23  1  0
 23 24  1  0
 24 25  1  0
 25 26  1  0
 26 27  1  0
 27 28  1  0
 28 29  1  0
  8 30  1  0
 30 31  2  0
 31  5  1  0
 22 11  1  0
 29 24  1  0
 19 13  1  0
  1 32  1  0
  1 33  1  0
  6 34  1  0
  7 35  1  0
  9 36  1  0
 10 37  1  0
 14 38  1  0
 15 39  1  0
 18 40  1  0
 23 41  1  0
 23 42  1  0
 24 43  1  0
 25 44  1  0
 25 45  1  0
 26 46  1  0
 26 47  1  0
 27 48  1  0
 28 49  1  0
 28 50  1  0
 29 51  1  0
 29 52  1  0
 30 53  1  0
 31 54  1  0
M  END
>  <smiles>  (20) 
NS(=O)(=O)c1ccc(/C=C/c2nc3ccc(F)cc3c(=O)n2CC2CCNCC2)cc1

>  <score_type>  (20) 
oracle

>  <origin>  (20) 
autodockgpu

>  <m_score__min__energy>  (20) 
-10.24

>  <m_primary>  (20) 
energy

>  <rmsd>  (20) 
8.168586868970145

>  <m_score__min__rmsd>  (20) 
8.168586868970145

>  <meeko>  (20) 
{"free_energy": -10.03, "intermolecular_energy": -12.12, "internal_energy": -1.2, "cluster_size": 13, "cluster_id": 1, "rank_in_cluster": 3}

>  <energy>  (20) 
-8.69

>  <cluster_rmsd>  (20) 
0.93

>  <cluster>  (20) 
2

$$$$

     RDKit          3D

 54 57  0  0  0  0  0  0  0  0999 V2000
  145.9630   73.4300  218.2990 N   0  0  0  0  0  0  0  0  0  0  0  0
  145.7440   72.6300  219.8140 S   0  0  0  0  0  0  0  0  0  0  0  0
  146.6650   73.2460  220.8140 O   0  0  0  0  0  0  0  0  0  0  0  0
  146.1220   71.1700  219.7080 O   0  0  0  0  0  0  0  0  0  0  0  0
  144.0950   72.7970  220.3640 C   0  0  0  0  0  0  0  0  0  0  0  0
  143.4780   74.0110  220.2510 C   0  0  0  0  0  0  0  0  0  0  0  0
  142.1930   74.1850  220.6680 C   0  0  0  0  0  0  0  0  0  0  0  0
  141.4270   73.1550  221.2300 C   0  0  0  0  0  0  0  0  0  0  0  0
  140.0560   73.3850  221.6630 C   0  0  0  0  0  0  0  0  0  0  0  0
  139.1540   72.4410  221.8130 C   0  0  0  0  0  0  0  0  0  0  0  0
  139.2890   71.4750  222.8990 C   0  0  0  0  0  0  0  0  0  0  0  0
  139.9930   71.8580  224.0040 N   0  0  0  0  0  0  0  0  0  0  0  0
  140.1970   71.0830  225.0640 C   0  0  0  0  0  0  0  0  0  0  0  0
  140.9210   71.5210  226.1630 C   0  0  0  0  0  0  0  0  0  0  0  0
  141.1110   70.6880  227.2450 C   0  0  0  0  0  0  0  0  0  0  0  0
  140.5680   69.4280  227.1930 C   0  0  0  0  0  0  0  0  0  0  0  0
  140.7770   68.6300  228.2800 F   0  0  0  0  0  0  0  0  0  0  0  0
  139.8380   68.9740  226.0910 C   0  0  0  0  0  0  0  0  0  0  0  0
  139.6470   69.8020  225.0150 C   0  0  0  0  0  0  0  0  0  0  0  0
  138.9380   69.4260  223.8930 C   0  0  0  0  0  0  0  0  0  0  0  0
  138.4620   68.2400  223.9230 O   0  0  0  0  0  0  0  0  0  0  0  0
  138.7450   70.2320  222.8310 N   0  0  0  0  0  0  0  0  0  0  0  0
  138.0170   69.8200  221.6640 C   0  0  0  0  0  0  0  0  0  0  0  0
  138.7960   68.9970  220.6950 C   0  0  0  0  0  0  0  0  0  0  0  0
  138.4520   69.1510  219.2590 C   0  0  0  0  0  0  0  0  0  0  0  0
  139.0200   70.4080  218.6410 C   0  0  0  0  0  0  0  0  0  0  0  0
  140.4790   70.4140  218.7450 N   0  0  0  0  0  0  0  0  0  0  0  0
  140.9900   69.3390  219.5370 C   0  0  0  0  0  0  0  0  0  0  0  0
  140.2980   69.1810  220.8740 C   0  0  0  0  0  0  0  0  0  0  0  0
  142.0660   71.9390  221.3360 C   0  0  0  0  0  0  0  0  0  0  0  0
  143.3760   71.7530  220.9130 C   0  0  0  0  0  0  0  0  0  0  0  0
  146.8470   73.9910  218.3650 H   0  0  0  0  0  0  0  0  0  0  0  0
  145.1910   74.1440  218.2450 H   0  0  0  0  0  0  0  0  0  0  0  0
  144.0268   74.8598  219.8171 H   0  0  0  0  0  0  0  0  0  0  0  0
  141.7357   75.1795  220.5586 H   0  0  0  0  0  0  0  0  0  0  0  0
  139.7543   74.4204  221.8795 H   0  0  0  0  0  0  0  0  0  0  0  0
  138.3001   72.3790  221.1224 H   0  0  0  0  0  0  0  0  0  0  0  0
  141.3449   72.5360  226.1713 H   0  0  0  0  0  0  0  0  0  0  0  0
  141.6809   71.0230  228.1242 H   0  0  0  0  0  0  0  0  0  0  0  0
  139.4186   67.9571  226.0870 H   0  0  0  0  0  0  0  0  0  0  0  0
  137.1494   69.2295  221.9935 H   0  0  0  0  0  0  0  0  0  0  0  0
  137.7401   70.7422  221.1321 H   0  0  0  0  0  0  0  0  0  0  0  0
  138.4908   67.9736  220.9585 H   0  0  0  0  0  0  0  0  0  0  0  0
  138.8462   68.2830  218.7103 H   0  0  0  0  0  0  0  0  0  0  0  0
  137.3563   69.2205  219.1915 H   0  0  0  0  0  0  0  0  0  0  0  0
  138.7322   70.4521  217.5802 H   0  0  0  0  0  0  0  0  0  0  0  0
  138.6208   71.2810  219.1781 H   0  0  0  0  0  0  0  0  0  0  0  0
  140.8530   71.3530  218.9660 H   0  0  0  0  0  0  0  0  0  0  0  0
  140.8686   68.4035  218.9712 H   0  0  0  0  0  0  0  0  0  0  0  0
  142.0445   69.5703  219.7480 H   0  0  0  0  0  0  0  0  0  0  0  0
  140.7090   68.3005  221.3896 H   0  0  0  0  0  0  0  0  0  0  0  0
  140.4706   70.0913  221.4669 H   0  0  0  0  0  0  0  0  0  0  0  0
  141.5210   71.0876  221.7698 H   0  0  0  0  0  0  0  0  0  0  0  0
  143.8459   70.7638  221.0163 H   0  0  0  0  0  0  0  0  0  0  0  0
  1  2  1  0
  2  3  2  0
  2  4  2  0
  2  5  1  0
  5  6  2  0
  6  7  1  0
  7  8  2  0
  8  9  1  0
  9 10  2  0
 10 11  1  0
 11 12  2  0
 12 13  1  0
 13 14  2  0
 14 15  1  0
 15 16  2  0
 16 17  1  0
 16 18  1  0
 18 19  2  0
 19 20  1  0
 20 21  2  0
 20 22  1  0
 22 23  1  0
 23 24  1  0
 24 25  1  0
 25 26  1  0
 26 27  1  0
 27 28  1  0
 28 29  1  0
  8 30  1  0
 30 31  2  0
 31  5  1  0
 22 11  1  0
 29 24  1  0
 19 13  1  0
  1 32  1  0
  1 33  1  0
  6 34  1  0
  7 35  1  0
  9 36  1  0
 10 37  1  0
 14 38  1  0
 15 39  1  0
 18 40  1  0
 23 41  1  0
 23 42  1  0
 24 43  1  0
 25 44  1  0
 25 45  1  0
 26 46  1  0
 26 47  1  0
 27 48  1  0
 28 49  1  0
 28 50  1  0
 29 51  1  0
 29 52  1  0
 30 53  1  0
 31 54  1  0
M  END
>  <smiles>  (21) 
NS(=O)(=O)c1ccc(/C=C/c2nc3ccc(F)cc3c(=O)n2CC2CCNCC2)cc1

>  <score_type>  (21) 
oracle

>  <origin>  (21) 
autodockgpu

>  <m_score__min__energy>  (21) 
-10.24

>  <m_primary>  (21) 
energy

>  <rmsd>  (21) 
11.035850206814557

>  <m_score__min__rmsd>  (21) 
11.035850206814557

>  <meeko>  (21) 
{"free_energy": -7.77, "intermolecular_energy": -9.86, "internal_energy": -2.07, "cluster_size": 12, "cluster_id": 2, "rank_in_cluster": 12}

>  <energy>  (21) 
-8.59

>  <cluster_rmsd>  (21) 
1.23

>  <cluster>  (21) 
2

$$$$

     RDKit          3D

 54 57  0  0  0  0  0  0  0  0999 V2000
  142.5830   79.2740  222.3030 N   0  0  0  0  0  0  0  0  0  0  0  0
  141.0300   78.9860  221.6030 S   0  0  0  0  0  0  0  0  0  0  0  0
  141.0780   79.3730  220.1630 O   0  0  0  0  0  0  0  0  0  0  0  0
  139.9790   79.8540  222.2590 O   0  0  0  0  0  0  0  0  0  0  0  0
  140.6000   77.2980  221.7360 C   0  0  0  0  0  0  0  0  0  0  0  0
  139.3820   76.9630  222.2570 C   0  0  0  0  0  0  0  0  0  0  0  0
  139.0080   75.6590  222.3790 C   0  0  0  0  0  0  0  0  0  0  0  0
  139.8250   74.5910  221.9870 C   0  0  0  0  0  0  0  0  0  0  0  0
  139.3850   73.2100  222.1340 C   0  0  0  0  0  0  0  0  0  0  0  0
  140.1910   72.1790  222.2500 C   0  0  0  0  0  0  0  0  0  0  0  0
  140.0580   71.2800  223.3920 C   0  0  0  0  0  0  0  0  0  0  0  0
  140.5870   71.6850  224.5830 N   0  0  0  0  0  0  0  0  0  0  0  0
  140.5420   70.9690  225.7020 C   0  0  0  0  0  0  0  0  0  0  0  0
  141.0950   71.4280  226.8870 C   0  0  0  0  0  0  0  0  0  0  0  0
  141.0280   70.6560  228.0280 C   0  0  0  0  0  0  0  0  0  0  0  0
  140.4030   69.4370  227.9470 C   0  0  0  0  0  0  0  0  0  0  0  0
  140.3550   68.6990  229.0950 F   0  0  0  0  0  0  0  0  0  0  0  0
  139.8410   68.9630  226.7580 C   0  0  0  0  0  0  0  0  0  0  0  0
  139.9070   69.7290  225.6230 C   0  0  0  0  0  0  0  0  0  0  0  0
  139.3760   69.3300  224.4140 C   0  0  0  0  0  0  0  0  0  0  0  0
  138.8100   68.1840  224.4210 O   0  0  0  0  0  0  0  0  0  0  0  0
  139.4360   70.0750  223.2940 N   0  0  0  0  0  0  0  0  0  0  0  0
  138.8920   69.6390  222.0390 C   0  0  0  0  0  0  0  0  0  0  0  0
  137.4440   69.9380  221.8440 C   0  0  0  0  0  0  0  0  0  0  0  0
  136.5780   69.8610  223.0470 C   0  0  0  0  0  0  0  0  0  0  0  0
  136.7000   71.0690  223.9470 C   0  0  0  0  0  0  0  0  0  0  0  0
  136.3370   72.2860  223.2220 N   0  0  0  0  0  0  0  0  0  0  0  0
  136.1240   72.0650  221.8250 C   0  0  0  0  0  0  0  0  0  0  0  0
  137.2300   71.2790  221.1540 C   0  0  0  0  0  0  0  0  0  0  0  0
  141.0480   74.9490  221.4640 C   0  0  0  0  0  0  0  0  0  0  0  0
  141.4390   76.2750  221.3360 C   0  0  0  0  0  0  0  0  0  0  0  0
  143.1600   79.7800  221.5880 H   0  0  0  0  0  0  0  0  0  0  0  0
  143.0300   78.3240  222.3920 H   0  0  0  0  0  0  0  0  0  0  0  0
  138.6941   77.7573  222.5824 H   0  0  0  0  0  0  0  0  0  0  0  0
  138.0190   75.4343  222.8049 H   0  0  0  0  0  0  0  0  0  0  0  0
  138.3022   73.0170  222.1489 H   0  0  0  0  0  0  0  0  0  0  0  0
  140.9634   71.9940  221.4890 H   0  0  0  0  0  0  0  0  0  0  0  0
  141.5886   72.4105  226.9176 H   0  0  0  0  0  0  0  0  0  0  0  0
  141.4629   71.0072  228.9754 H   0  0  0  0  0  0  0  0  0  0  0  0
  139.3481   67.9799  226.7332 H   0  0  0  0  0  0  0  0  0  0  0  0
  139.4544   70.1329  221.2329 H   0  0  0  0  0  0  0  0  0  0  0  0
  138.9848   68.5430  222.0268 H   0  0  0  0  0  0  0  0  0  0  0  0
  137.1178   69.1087  221.1992 H   0  0  0  0  0  0  0  0  0  0  0  0
  135.5316   69.7734  222.7194 H   0  0  0  0  0  0  0  0  0  0  0  0
  136.9037   68.9860  223.6286 H   0  0  0  0  0  0  0  0  0  0  0  0
  136.0281   70.9473  224.8094 H   0  0  0  0  0  0  0  0  0  0  0  0
  137.7423   71.1552  224.2878 H   0  0  0  0  0  0  0  0  0  0  0  0
  136.9500   73.0850  223.4630 H   0  0  0  0  0  0  0  0  0  0  0  0
  135.1814   71.5116  221.7014 H   0  0  0  0  0  0  0  0  0  0  0  0
  136.0981   73.0544  221.3449 H   0  0  0  0  0  0  0  0  0  0  0  0
  136.9591   71.1031  220.1025 H   0  0  0  0  0  0  0  0  0  0  0  0
  138.1620   71.8595  221.2205 H   0  0  0  0  0  0  0  0  0  0  0  0
  141.7382   74.1575  221.1367 H   0  0  0  0  0  0  0  0  0  0  0  0
  142.4257   76.5137  220.9123 H   0  0  0  0  0  0  0  0  0  0  0  0
  1  2  1  0
  2  3  2  0
  2  4  2  0
  2  5  1  0
  5  6  2  0
  6  7  1  0
  7  8  2  0
  8  9  1  0
  9 10  2  0
 10 11  1  0
 11 12  2  0
 12 13  1  0
 13 14  2  0
 14 15  1  0
 15 16  2  0
 16 17  1  0
 16 18  1  0
 18 19  2  0
 19 20  1  0
 20 21  2  0
 20 22  1  0
 22 23  1  0
 23 24  1  0
 24 25  1  0
 25 26  1  0
 26 27  1  0
 27 28  1  0
 28 29  1  0
  8 30  1  0
 30 31  2  0
 31  5  1  0
 22 11  1  0
 29 24  1  0
 19 13  1  0
  1 32  1  0
  1 33  1  0
  6 34  1  0
  7 35  1  0
  9 36  1  0
 10 37  1  0
 14 38  1  0
 15 39  1  0
 18 40  1  0
 23 41  1  0
 23 42  1  0
 24 43  1  0
 25 44  1  0
 25 45  1  0
 26 46  1  0
 26 47  1  0
 27 48  1  0
 28 49  1  0
 28 50  1  0
 29 51  1  0
 29 52  1  0
 30 53  1  0
 31 54  1  0
M  END
>  <smiles>  (22) 
NS(=O)(=O)c1ccc(/C=C/c2nc3ccc(F)cc3c(=O)n2CC2CCNCC2)cc1

>  <score_type>  (22) 
oracle

>  <origin>  (22) 
autodockgpu

>  <m_score__min__energy>  (22) 
-10.24

>  <m_primary>  (22) 
energy

>  <rmsd>  (22) 
10.601119642336986

>  <m_score__min__rmsd>  (22) 
10.601119642336986

>  <meeko>  (22) 
{"free_energy": -8.4, "intermolecular_energy": -10.49, "internal_energy": -1.54, "cluster_size": 10, "cluster_id": 4, "rank_in_cluster": 4}

>  <energy>  (22) 
-8.55

>  <cluster_rmsd>  (22) 
0.71

>  <cluster>  (22) 
2

$$$$

     RDKit          3D

 54 57  0  0  0  0  0  0  0  0999 V2000
  146.2780   73.4770  218.1610 N   0  0  0  0  0  0  0  0  0  0  0  0
  145.7680   72.8500  219.6880 S   0  0  0  0  0  0  0  0  0  0  0  0
  146.6540   73.4070  220.7510 O   0  0  0  0  0  0  0  0  0  0  0  0
  145.9230   71.3460  219.7270 O   0  0  0  0  0  0  0  0  0  0  0  0
  144.1130   73.3030  220.0160 C   0  0  0  0  0  0  0  0  0  0  0  0
  143.3080   72.4310  220.6940 C   0  0  0  0  0  0  0  0  0  0  0  0
  142.0120   72.7450  220.9700 C   0  0  0  0  0  0  0  0  0  0  0  0
  141.4230   73.9580  220.5880 C   0  0  0  0  0  0  0  0  0  0  0  0
  140.0320   74.2530  220.9050 C   0  0  0  0  0  0  0  0  0  0  0  0
  139.6340   74.9210  221.9640 C   0  0  0  0  0  0  0  0  0  0  0  0
  139.7700   76.3730  221.9990 C   0  0  0  0  0  0  0  0  0  0  0  0
  140.8450   76.8940  222.6610 N   0  0  0  0  0  0  0  0  0  0  0  0
  141.0930   78.1940  222.7750 C   0  0  0  0  0  0  0  0  0  0  0  0
  142.2010   78.6710  223.4580 C   0  0  0  0  0  0  0  0  0  0  0  0
  142.4250   80.0280  223.5550 C   0  0  0  0  0  0  0  0  0  0  0  0
  141.5240   80.8750  222.9590 C   0  0  0  0  0  0  0  0  0  0  0  0
  141.7760   82.2120  223.0750 F   0  0  0  0  0  0  0  0  0  0  0  0
  140.4030   80.4070  222.2680 C   0  0  0  0  0  0  0  0  0  0  0  0
  140.1790   79.0580  222.1710 C   0  0  0  0  0  0  0  0  0  0  0  0
  139.0970   78.5210  221.5050 C   0  0  0  0  0  0  0  0  0  0  0  0
  138.3060   79.3750  220.9770 O   0  0  0  0  0  0  0  0  0  0  0  0
  138.8680   77.1980  221.4050 N   0  0  0  0  0  0  0  0  0  0  0  0
  137.7280   76.6550  220.7210 C   0  0  0  0  0  0  0  0  0  0  0  0
  136.4750   76.6060  221.5290 C   0  0  0  0  0  0  0  0  0  0  0  0
  135.5350   75.4960  221.2350 C   0  0  0  0  0  0  0  0  0  0  0  0
  135.9640   74.1760  221.8320 C   0  0  0  0  0  0  0  0  0  0  0  0
  136.0750   74.2840  223.2870 N   0  0  0  0  0  0  0  0  0  0  0  0
  135.9180   75.6230  223.7630 C   0  0  0  0  0  0  0  0  0  0  0  0
  136.7630   76.6390  223.0240 C   0  0  0  0  0  0  0  0  0  0  0  0
  142.2500   74.8230  219.9060 C   0  0  0  0  0  0  0  0  0  0  0  0
  143.5720   74.5110  219.6200 C   0  0  0  0  0  0  0  0  0  0  0  0
  147.1110   74.0890  218.3370 H   0  0  0  0  0  0  0  0  0  0  0  0
  145.5140   74.1360  217.8600 H   0  0  0  0  0  0  0  0  0  0  0  0
  143.7127   71.4619  221.0213 H   0  0  0  0  0  0  0  0  0  0  0  0
  141.3996   72.0134  221.5176 H   0  0  0  0  0  0  0  0  0  0  0  0
  139.2609   73.8911  220.2089 H   0  0  0  0  0  0  0  0  0  0  0  0
  139.1995   74.3869  222.8219 H   0  0  0  0  0  0  0  0  0  0  0  0
  142.9037   77.9646  223.9241 H   0  0  0  0  0  0  0  0  0  0  0  0
  143.2999   80.4203  224.0941 H   0  0  0  0  0  0  0  0  0  0  0  0
  139.7035   81.1179  221.8040 H   0  0  0  0  0  0  0  0  0  0  0  0
  137.5369   77.2732  219.8314 H   0  0  0  0  0  0  0  0  0  0  0  0
  137.9808   75.6118  220.4804 H   0  0  0  0  0  0  0  0  0  0  0  0
  135.9533   77.5204  221.2100 H   0  0  0  0  0  0  0  0  0  0  0  0
  134.5470   75.7583  221.6412 H   0  0  0  0  0  0  0  0  0  0  0  0
  135.5133   75.3680  220.1427 H   0  0  0  0  0  0  0  0  0  0  0  0
  135.2190   73.4063  221.5818 H   0  0  0  0  0  0  0  0  0  0  0  0
  136.9460   73.9012  221.4195 H   0  0  0  0  0  0  0  0  0  0  0  0
  136.8900   73.7670  223.6590 H   0  0  0  0  0  0  0  0  0  0  0  0
  134.8609   75.9074  223.6551 H   0  0  0  0  0  0  0  0  0  0  0  0
  136.2522   75.6310  224.8110 H   0  0  0  0  0  0  0  0  0  0  0  0
  136.5380   77.6436  223.4114 H   0  0  0  0  0  0  0  0  0  0  0  0
  137.8235   76.3932  223.1816 H   0  0  0  0  0  0  0  0  0  0  0  0
  141.8495   75.7933  219.5771 H   0  0  0  0  0  0  0  0  0  0  0  0
  144.1954   75.2331  219.0723 H   0  0  0  0  0  0  0  0  0  0  0  0
  1  2  1  0
  2  3  2  0
  2  4  2  0
  2  5  1  0
  5  6  2  0
  6  7  1  0
  7  8  2  0
  8  9  1  0
  9 10  2  0
 10 11  1  0
 11 12  2  0
 12 13  1  0
 13 14  2  0
 14 15  1  0
 15 16  2  0
 16 17  1  0
 16 18  1  0
 18 19  2  0
 19 20  1  0
 20 21  2  0
 20 22  1  0
 22 23  1  0
 23 24  1  0
 24 25  1  0
 25 26  1  0
 26 27  1  0
 27 28  1  0
 28 29  1  0
  8 30  1  0
 30 31  2  0
 31  5  1  0
 22 11  1  0
 29 24  1  0
 19 13  1  0
  1 32  1  0
  1 33  1  0
  6 34  1  0
  7 35  1  0
  9 36  1  0
 10 37  1  0
 14 38  1  0
 15 39  1  0
 18 40  1  0
 23 41  1  0
 23 42  1  0
 24 43  1  0
 25 44  1  0
 25 45  1  0
 26 46  1  0
 26 47  1  0
 27 48  1  0
 28 49  1  0
 28 50  1  0
 29 51  1  0
 29 52  1  0
 30 53  1  0
 31 54  1  0
M  END
>  <smiles>  (23) 
NS(=O)(=O)c1ccc(/C=C/c2nc3ccc(F)cc3c(=O)n2CC2CCNCC2)cc1

>  <score_type>  (23) 
oracle

>  <origin>  (23) 
autodockgpu

>  <m_score__min__energy>  (23) 
-10.24

>  <m_primary>  (23) 
energy

>  <rmsd>  (23) 
6.737260801843004

>  <m_score__min__rmsd>  (23) 
6.737260801843004

>  <meeko>  (23) 
{"free_energy": -8.0, "intermolecular_energy": -10.09, "internal_energy": -1.54, "cluster_size": 1, "cluster_id": 8, "rank_in_cluster": 1}

>  <energy>  (23) 
-8.47

>  <cluster_rmsd>  (23) 
1.41

>  <cluster>  (23) 
2

$$$$

     RDKit          3D

 54 57  0  0  0  0  0  0  0  0999 V2000
  146.2890   73.4160  218.3440 N   0  0  0  0  0  0  0  0  0  0  0  0
  145.6230   72.7940  219.8120 S   0  0  0  0  0  0  0  0  0  0  0  0
  146.5920   73.0480  220.9180 O   0  0  0  0  0  0  0  0  0  0  0  0
  145.4390   71.2960  219.7230 O   0  0  0  0  0  0  0  0  0  0  0  0
  144.1050   73.5770  220.1780 C   0  0  0  0  0  0  0  0  0  0  0  0
  143.9480   74.8970  219.8630 C   0  0  0  0  0  0  0  0  0  0  0  0
  142.7810   75.5460  220.1320 C   0  0  0  0  0  0  0  0  0  0  0  0
  141.6820   74.9220  220.7370 C   0  0  0  0  0  0  0  0  0  0  0  0
  140.4520   75.6540  221.0070 C   0  0  0  0  0  0  0  0  0  0  0  0
  140.2560   76.4220  222.0540 C   0  0  0  0  0  0  0  0  0  0  0  0
  138.9110   76.8980  222.3630 C   0  0  0  0  0  0  0  0  0  0  0  0
  138.0290   76.0030  222.8970 N   0  0  0  0  0  0  0  0  0  0  0  0
  136.7750   76.2970  223.2230 C   0  0  0  0  0  0  0  0  0  0  0  0
  135.9180   75.3500  223.7640 C   0  0  0  0  0  0  0  0  0  0  0  0
  134.6230   75.6930  224.0910 C   0  0  0  0  0  0  0  0  0  0  0  0
  134.2200   76.9850  223.8630 C   0  0  0  0  0  0  0  0  0  0  0  0
  132.9320   77.2900  224.1970 F   0  0  0  0  0  0  0  0  0  0  0  0
  135.0730   77.9490  223.3180 C   0  0  0  0  0  0  0  0  0  0  0  0
  136.3610   77.6100  222.9930 C   0  0  0  0  0  0  0  0  0  0  0  0
  137.2620   78.5050  222.4530 C   0  0  0  0  0  0  0  0  0  0  0  0
  136.8110   79.6870  222.2740 O   0  0  0  0  0  0  0  0  0  0  0  0
  138.5290   78.1810  222.1310 N   0  0  0  0  0  0  0  0  0  0  0  0
  139.4490   79.1210  221.5550 C   0  0  0  0  0  0  0  0  0  0  0  0
  140.1230   80.0220  222.5340 C   0  0  0  0  0  0  0  0  0  0  0  0
  140.6450   79.3920  223.7720 C   0  0  0  0  0  0  0  0  0  0  0  0
  141.9470   78.6540  223.5630 C   0  0  0  0  0  0  0  0  0  0  0  0
  142.9770   79.5670  223.0670 N   0  0  0  0  0  0  0  0  0  0  0  0
  142.4700   80.8650  222.7470 C   0  0  0  0  0  0  0  0  0  0  0  0
  141.2290   80.8420  221.8820 C   0  0  0  0  0  0  0  0  0  0  0  0
  141.8610   73.5920  221.0480 C   0  0  0  0  0  0  0  0  0  0  0  0
  143.0470   72.9220  220.7770 C   0  0  0  0  0  0  0  0  0  0  0  0
  147.1220   74.0000  218.6010 H   0  0  0  0  0  0  0  0  0  0  0  0
  145.5770   74.1020  217.9830 H   0  0  0  0  0  0  0  0  0  0  0  0
  144.7751   75.4431  219.3858 H   0  0  0  0  0  0  0  0  0  0  0  0
  142.6975   76.6090  219.8618 H   0  0  0  0  0  0  0  0  0  0  0  0
  139.6295   75.5566  220.2831 H   0  0  0  0  0  0  0  0  0  0  0  0
  141.1027   76.7058  222.6963 H   0  0  0  0  0  0  0  0  0  0  0  0
  136.2724   74.3224  223.9327 H   0  0  0  0  0  0  0  0  0  0  0  0
  133.9330   74.9526  224.5220 H   0  0  0  0  0  0  0  0  0  0  0  0
  134.7125   78.9747  223.1507 H   0  0  0  0  0  0  0  0  0  0  0  0
  140.2262   78.5547  221.0208 H   0  0  0  0  0  0  0  0  0  0  0  0
  138.8536   79.7712  220.8972 H   0  0  0  0  0  0  0  0  0  0  0  0
  139.2970   80.6692  222.8641 H   0  0  0  0  0  0  0  0  0  0  0  0
  140.8064   80.1792  224.5232 H   0  0  0  0  0  0  0  0  0  0  0  0
  139.9000   78.6524  224.1007 H   0  0  0  0  0  0  0  0  0  0  0  0
  142.2761   78.2216  224.5194 H   0  0  0  0  0  0  0  0  0  0  0  0
  141.7901   77.8566  222.8217 H   0  0  0  0  0  0  0  0  0  0  0  0
  143.5780   79.1290  222.3470 H   0  0  0  0  0  0  0  0  0  0  0  0
  142.2279   81.3836  223.6864 H   0  0  0  0  0  0  0  0  0  0  0  0
  143.2521   81.3800  222.1699 H   0  0  0  0  0  0  0  0  0  0  0  0
  140.8737   81.8727  221.7355 H   0  0  0  0  0  0  0  0  0  0  0  0
  141.4839   80.3808  220.9164 H   0  0  0  0  0  0  0  0  0  0  0  0
  141.0372   73.0424  221.5269 H   0  0  0  0  0  0  0  0  0  0  0  0
  143.1446   71.8589  221.0421 H   0  0  0  0  0  0  0  0  0  0  0  0
  1  2  1  0
  2  3  2  0
  2  4  2  0
  2  5  1  0
  5  6  2  0
  6  7  1  0
  7  8  2  0
  8  9  1  0
  9 10  2  0
 10 11  1  0
 11 12  2  0
 12 13  1  0
 13 14  2  0
 14 15  1  0
 15 16  2  0
 16 17  1  0
 16 18  1  0
 18 19  2  0
 19 20  1  0
 20 21  2  0
 20 22  1  0
 22 23  1  0
 23 24  1  0
 24 25  1  0
 25 26  1  0
 26 27  1  0
 27 28  1  0
 28 29  1  0
  8 30  1  0
 30 31  2  0
 31  5  1  0
 22 11  1  0
 29 24  1  0
 19 13  1  0
  1 32  1  0
  1 33  1  0
  6 34  1  0
  7 35  1  0
  9 36  1  0
 10 37  1  0
 14 38  1  0
 15 39  1  0
 18 40  1  0
 23 41  1  0
 23 42  1  0
 24 43  1  0
 25 44  1  0
 25 45  1  0
 26 46  1  0
 26 47  1  0
 27 48  1  0
 28 49  1  0
 28 50  1  0
 29 51  1  0
 29 52  1  0
 30 53  1  0
 31 54  1  0
M  END
>  <smiles>  (24) 
NS(=O)(=O)c1ccc(/C=C/c2nc3ccc(F)cc3c(=O)n2CC2CCNCC2)cc1

>  <score_type>  (24) 
oracle

>  <origin>  (24) 
autodockgpu

>  <m_score__min__energy>  (24) 
-10.24

>  <m_primary>  (24) 
energy

>  <rmsd>  (24) 
5.081320500623772

>  <m_score__min__rmsd>  (24) 
5.081320500623772

>  <meeko>  (24) 
{"free_energy": -8.47, "intermolecular_energy": -10.55, "internal_energy": -1.28, "cluster_size": 6, "cluster_id": 3, "rank_in_cluster": 2}

>  <energy>  (24) 
-7.9

>  <cluster_rmsd>  (24) 
1.84

>  <cluster>  (24) 
2

$$$$

     RDKit          3D

 54 57  0  0  0  0  0  0  0  0999 V2000
  145.8130   72.8680  221.6200 N   0  0  0  0  0  0  0  0  0  0  0  0
  145.0330   72.8300  220.0790 S   0  0  0  0  0  0  0  0  0  0  0  0
  144.2590   71.5590  219.9700 O   0  0  0  0  0  0  0  0  0  0  0  0
  146.0520   72.8230  218.9630 O   0  0  0  0  0  0  0  0  0  0  0  0
  143.9460   74.1870  219.9070 C   0  0  0  0  0  0  0  0  0  0  0  0
  144.0550   74.9880  218.8060 C   0  0  0  0  0  0  0  0  0  0  0  0
  143.2280   76.0570  218.6330 C   0  0  0  0  0  0  0  0  0  0  0  0
  142.2280   76.4040  219.5520 C   0  0  0  0  0  0  0  0  0  0  0  0
  141.3650   77.5560  219.3280 C   0  0  0  0  0  0  0  0  0  0  0  0
  141.1780   78.5270  220.1930 C   0  0  0  0  0  0  0  0  0  0  0  0
  141.2870   79.9160  219.7580 C   0  0  0  0  0  0  0  0  0  0  0  0
  142.1210   80.1890  218.7130 N   0  0  0  0  0  0  0  0  0  0  0  0
  142.3190   81.4060  218.2150 C   0  0  0  0  0  0  0  0  0  0  0  0
  143.1780   81.6300  217.1500 C   0  0  0  0  0  0  0  0  0  0  0  0
  143.3570   82.9060  216.6600 C   0  0  0  0  0  0  0  0  0  0  0  0
  142.6650   83.9300  217.2580 C   0  0  0  0  0  0  0  0  0  0  0  0
  142.8660   85.1810  216.7480 F   0  0  0  0  0  0  0  0  0  0  0  0
  141.7960   83.7180  218.3320 C   0  0  0  0  0  0  0  0  0  0  0  0
  141.6170   82.4490  218.8200 C   0  0  0  0  0  0  0  0  0  0  0  0
  140.7770   82.1600  219.8760 C   0  0  0  0  0  0  0  0  0  0  0  0
  140.1680   83.1660  220.3760 O   0  0  0  0  0  0  0  0  0  0  0  0
  140.5950   80.9170  220.3620 N   0  0  0  0  0  0  0  0  0  0  0  0
  139.7290   80.6360  221.4710 C   0  0  0  0  0  0  0  0  0  0  0  0
  140.3590   80.7830  222.8150 C   0  0  0  0  0  0  0  0  0  0  0  0
  140.2850   79.6090  223.7190 C   0  0  0  0  0  0  0  0  0  0  0  0
  141.2830   78.5270  223.3760 C   0  0  0  0  0  0  0  0  0  0  0  0
  142.6480   79.0490  223.4450 N   0  0  0  0  0  0  0  0  0  0  0  0
  142.6970   80.4630  223.6500 C   0  0  0  0  0  0  0  0  0  0  0  0
  141.8060   81.2500  222.7140 C   0  0  0  0  0  0  0  0  0  0  0  0
  142.1340   75.5840  220.6550 C   0  0  0  0  0  0  0  0  0  0  0  0
  142.9730   74.4930  220.8390 C   0  0  0  0  0  0  0  0  0  0  0  0
  146.7060   72.3250  221.5320 H   0  0  0  0  0  0  0  0  0  0  0  0
  145.2050   72.2900  222.2560 H   0  0  0  0  0  0  0  0  0  0  0  0
  144.8212   74.7670  218.0483 H   0  0  0  0  0  0  0  0  0  0  0  0
  143.3506   76.6755  217.7317 H   0  0  0  0  0  0  0  0  0  0  0  0
  140.8326   77.6172  218.3674 H   0  0  0  0  0  0  0  0  0  0  0  0
  140.9401   78.2940  221.2414 H   0  0  0  0  0  0  0  0  0  0  0  0
  143.7183   80.7870  216.6946 H   0  0  0  0  0  0  0  0  0  0  0  0
  144.0343   83.0981  215.8148 H   0  0  0  0  0  0  0  0  0  0  0  0
  141.2584   84.5648  218.7835 H   0  0  0  0  0  0  0  0  0  0  0  0
  138.8726   81.3243  221.4183 H   0  0  0  0  0  0  0  0  0  0  0  0
  139.4444   79.5775  221.3787 H   0  0  0  0  0  0  0  0  0  0  0  0
  139.7298   81.5520  223.2869 H   0  0  0  0  0  0  0  0  0  0  0  0
  140.4770   79.9478  224.7478 H   0  0  0  0  0  0  0  0  0  0  0  0
  139.2810   79.1739  223.6067 H   0  0  0  0  0  0  0  0  0  0  0  0
  141.1764   77.6967  224.0896 H   0  0  0  0  0  0  0  0  0  0  0  0
  141.0881   78.1744  222.3524 H   0  0  0  0  0  0  0  0  0  0  0  0
  143.2480   78.6840  222.6860 H   0  0  0  0  0  0  0  0  0  0  0  0
  142.3855   80.6740  224.6836 H   0  0  0  0  0  0  0  0  0  0  0  0
  143.7309   80.7791  223.4473 H   0  0  0  0  0  0  0  0  0  0  0  0
  141.8590   82.3163  222.9788 H   0  0  0  0  0  0  0  0  0  0  0  0
  142.1541   81.0909  221.6827 H   0  0  0  0  0  0  0  0  0  0  0  0
  141.3690   75.8007  221.4151 H   0  0  0  0  0  0  0  0  0  0  0  0
  142.8619   73.8659  221.7359 H   0  0  0  0  0  0  0  0  0  0  0  0
  1  2  1  0
  2  3  2  0
  2  4  2  0
  2  5  1  0
  5  6  2  0
  6  7  1  0
  7  8  2  0
  8  9  1  0
  9 10  2  0
 10 11  1  0
 11 12  2  0
 12 13  1  0
 13 14  2  0
 14 15  1  0
 15 16  2  0
 16 17  1  0
 16 18  1  0
 18 19  2  0
 19 20  1  0
 20 21  2  0
 20 22  1  0
 22 23  1  0
 23 24  1  0
 24 25  1  0
 25 26  1  0
 26 27  1  0
 27 28  1  0
 28 29  1  0
  8 30  1  0
 30 31  2  0
 31  5  1  0
 22 11  1  0
 29 24  1  0
 19 13  1  0
  1 32  1  0
  1 33  1  0
  6 34  1  0
  7 35  1  0
  9 36  1  0
 10 37  1  0
 14 38  1  0
 15 39  1  0
 18 40  1  0
 23 41  1  0
 23 42  1  0
 24 43  1  0
 25 44  1  0
 25 45  1  0
 26 46  1  0
 26 47  1  0
 27 48  1  0
 28 49  1  0
 28 50  1  0
 29 51  1  0
 29 52  1  0
 30 53  1  0
 31 54  1  0
M  END
>  <smiles>  (25) 
NS(=O)(=O)c1ccc(/C=C/c2nc3ccc(F)cc3c(=O)n2CC2CCNCC2)cc1

>  <score_type>  (25) 
oracle

>  <origin>  (25) 
autodockgpu

>  <m_score__min__energy>  (25) 
-10.24

>  <m_primary>  (25) 
energy

>  <rmsd>  (25) 
5.411523086580347

>  <m_score__min__rmsd>  (25) 
5.411523086580347

>  <meeko>  (25) 
{"free_energy": -8.23, "intermolecular_energy": -10.32, "internal_energy": -1.48, "cluster_size": 4, "cluster_id": 5, "rank_in_cluster": 3}

>  <energy>  (25) 
-7.77

>  <cluster_rmsd>  (25) 
1.86

>  <cluster>  (25) 
2

$$$$

     RDKit          3D

 54 57  0  0  0  0  0  0  0  0999 V2000
  139.1700   67.0760  226.4820 N   0  0  0  0  0  0  0  0  0  0  0  0
  139.8930   68.5640  226.9800 S   0  0  0  0  0  0  0  0  0  0  0  0
  141.3140   68.3010  227.3520 O   0  0  0  0  0  0  0  0  0  0  0  0
  139.2070   69.1050  228.2140 O   0  0  0  0  0  0  0  0  0  0  0  0
  139.8400   69.7360  225.6860 C   0  0  0  0  0  0  0  0  0  0  0  0
  138.7640   69.7450  224.8440 C   0  0  0  0  0  0  0  0  0  0  0  0
  138.6840   70.6420  223.8210 C   0  0  0  0  0  0  0  0  0  0  0  0
  139.6750   71.5980  223.5650 C   0  0  0  0  0  0  0  0  0  0  0  0
  139.5480   72.5390  222.4600 C   0  0  0  0  0  0  0  0  0  0  0  0
  140.5080   72.8230  221.6090 C   0  0  0  0  0  0  0  0  0  0  0  0
  140.8650   74.2160  221.3570 C   0  0  0  0  0  0  0  0  0  0  0  0
  140.2080   75.1770  222.0700 N   0  0  0  0  0  0  0  0  0  0  0  0
  140.4280   76.4810  221.9420 C   0  0  0  0  0  0  0  0  0  0  0  0
  139.7330   77.4180  222.6920 C   0  0  0  0  0  0  0  0  0  0  0  0
  139.9900   78.7630  222.5320 C   0  0  0  0  0  0  0  0  0  0  0  0
  140.9430   79.1340  221.6160 C   0  0  0  0  0  0  0  0  0  0  0  0
  141.1710   80.4730  221.4830 F   0  0  0  0  0  0  0  0  0  0  0  0
  141.6510   78.2000  220.8540 C   0  0  0  0  0  0  0  0  0  0  0  0
  141.3970   76.8620  221.0130 C   0  0  0  0  0  0  0  0  0  0  0  0
  142.0540   75.8810  220.2990 C   0  0  0  0  0  0  0  0  0  0  0  0
  142.9280   76.3070  219.4690 O   0  0  0  0  0  0  0  0  0  0  0  0
  141.8110   74.5650  220.4470 N   0  0  0  0  0  0  0  0  0  0  0  0
  142.4930   73.5580  219.6850 C   0  0  0  0  0  0  0  0  0  0  0  0
  143.6370   72.9060  220.3850 C   0  0  0  0  0  0  0  0  0  0  0  0
  144.2820   71.7640  219.6910 C   0  0  0  0  0  0  0  0  0  0  0  0
  145.2130   72.1910  218.5800 C   0  0  0  0  0  0  0  0  0  0  0  0
  146.2800   73.0430  219.1050 N   0  0  0  0  0  0  0  0  0  0  0  0
  146.0900   73.3960  220.4780 C   0  0  0  0  0  0  0  0  0  0  0  0
  144.7030   73.9150  220.7920 C   0  0  0  0  0  0  0  0  0  0  0  0
  140.7510   71.5730  224.4240 C   0  0  0  0  0  0  0  0  0  0  0  0
  140.8420   70.6620  225.4690 C   0  0  0  0  0  0  0  0  0  0  0  0
  139.7220   66.2980  226.9190 H   0  0  0  0  0  0  0  0  0  0  0  0
  139.3660   67.0020  225.4500 H   0  0  0  0  0  0  0  0  0  0  0  0
  137.9516   69.0187  224.9937 H   0  0  0  0  0  0  0  0  0  0  0  0
  137.8005   70.6138  223.1663 H   0  0  0  0  0  0  0  0  0  0  0  0
  138.5812   73.0471  222.3291 H   0  0  0  0  0  0  0  0  0  0  0  0
  141.0409   72.0139  221.0881 H   0  0  0  0  0  0  0  0  0  0  0  0
  138.9745   77.0870  223.4167 H   0  0  0  0  0  0  0  0  0  0  0  0
  139.4473   79.5170  223.1211 H   0  0  0  0  0  0  0  0  0  0  0  0
  142.4081   78.5368  220.1305 H   0  0  0  0  0  0  0  0  0  0  0  0
  141.7643   72.7773  219.4215 H   0  0  0  0  0  0  0  0  0  0  0  0
  142.9192   74.0703  218.8098 H   0  0  0  0  0  0  0  0  0  0  0  0
  143.1514   72.4698  221.2704 H   0  0  0  0  0  0  0  0  0  0  0  0
  144.8595   71.1876  220.4288 H   0  0  0  0  0  0  0  0  0  0  0  0
  143.4808   71.1649  219.2337 H   0  0  0  0  0  0  0  0  0  0  0  0
  145.6577   71.2978  218.1170 H   0  0  0  0  0  0  0  0  0  0  0  0
  144.6389   72.7592  217.8333 H   0  0  0  0  0  0  0  0  0  0  0  0
  146.5090   73.8250  218.4670 H   0  0  0  0  0  0  0  0  0  0  0  0
  146.2732   72.5030  221.0937 H   0  0  0  0  0  0  0  0  0  0  0  0
  146.7936   74.2124  220.6979 H   0  0  0  0  0  0  0  0  0  0  0  0
  144.6257   74.1035  221.8730 H   0  0  0  0  0  0  0  0  0  0  0  0
  144.5402   74.8440  220.2260 H   0  0  0  0  0  0  0  0  0  0  0  0
  141.5652   72.2981  224.2780 H   0  0  0  0  0  0  0  0  0  0  0  0
  141.7208   70.6782  226.1303 H   0  0  0  0  0  0  0  0  0  0  0  0
  1  2  1  0
  2  3  2  0
  2  4  2  0
  2  5  1  0
  5  6  2  0
  6  7  1  0
  7  8  2  0
  8  9  1  0
  9 10  2  0
 10 11  1  0
 11 12  2  0
 12 13  1  0
 13 14  2  0
 14 15  1  0
 15 16  2  0
 16 17  1  0
 16 18  1  0
 18 19  2  0
 19 20  1  0
 20 21  2  0
 20 22  1  0
 22 23  1  0
 23 24  1  0
 24 25  1  0
 25 26  1  0
 26 27  1  0
 27 28  1  0
 28 29  1  0
  8 30  1  0
 30 31  2  0
 31  5  1  0
 22 11  1  0
 29 24  1  0
 19 13  1  0
  1 32  1  0
  1 33  1  0
  6 34  1  0
  7 35  1  0
  9 36  1  0
 10 37  1  0
 14 38  1  0
 15 39  1  0
 18 40  1  0
 23 41  1  0
 23 42  1  0
 24 43  1  0
 25 44  1  0
 25 45  1  0
 26 46  1  0
 26 47  1  0
 27 48  1  0
 28 49  1  0
 28 50  1  0
 29 51  1  0
 29 52  1  0
 30 53  1  0
 31 54  1  0
M  END
>  <smiles>  (26) 
NS(=O)(=O)c1ccc(/C=C/c2nc3ccc(F)cc3c(=O)n2CC2CCNCC2)cc1

>  <score_type>  (26) 
oracle

>  <origin>  (26) 
autodockgpu

>  <m_score__min__energy>  (26) 
-10.24

>  <m_primary>  (26) 
energy

>  <rmsd>  (26) 
8.114165904350918

>  <m_score__min__rmsd>  (26) 
8.114165904350918

>  <meeko>  (26) 
{"free_energy": -10.06, "intermolecular_energy": -12.14, "internal_energy": -1.2, "cluster_size": 13, "cluster_id": 1, "rank_in_cluster": 2}

>  <energy>  (26) 
-8.58

>  <cluster_rmsd>  (26) 
0.0

>  <cluster>  (26) 
3

$$$$

     RDKit          3D

 54 57  0  0  0  0  0  0  0  0999 V2000
  139.2620   66.9810  226.8430 N   0  0  0  0  0  0  0  0  0  0  0  0
  140.0540   68.4310  227.3480 S   0  0  0  0  0  0  0  0  0  0  0  0
  141.4720   68.1060  227.6810 O   0  0  0  0  0  0  0  0  0  0  0  0
  139.4190   68.9770  228.6080 O   0  0  0  0  0  0  0  0  0  0  0  0
  140.0160   69.6270  226.0750 C   0  0  0  0  0  0  0  0  0  0  0  0
  139.1280   69.4750  225.0490 C   0  0  0  0  0  0  0  0  0  0  0  0
  139.0660   70.3830  224.0360 C   0  0  0  0  0  0  0  0  0  0  0  0
  139.8890   71.5150  223.9750 C   0  0  0  0  0  0  0  0  0  0  0  0
  139.7900   72.4620  222.8730 C   0  0  0  0  0  0  0  0  0  0  0  0
  140.6200   72.5140  221.8570 C   0  0  0  0  0  0  0  0  0  0  0  0
  141.0780   73.8080  221.3600 C   0  0  0  0  0  0  0  0  0  0  0  0
  140.5920   74.9290  221.9680 N   0  0  0  0  0  0  0  0  0  0  0  0
  140.9190   76.1680  221.6190 C   0  0  0  0  0  0  0  0  0  0  0  0
  140.3970   77.2750  222.2710 C   0  0  0  0  0  0  0  0  0  0  0  0
  140.7600   78.5460  221.8800 C   0  0  0  0  0  0  0  0  0  0  0  0
  141.6450   78.6730  220.8380 C   0  0  0  0  0  0  0  0  0  0  0  0
  141.9820   79.9450  220.4770 F   0  0  0  0  0  0  0  0  0  0  0  0
  142.1780   77.5660  220.1720 C   0  0  0  0  0  0  0  0  0  0  0  0
  141.8180   76.3010  220.5600 C   0  0  0  0  0  0  0  0  0  0  0  0
  142.3020   75.1610  219.9520 C   0  0  0  0  0  0  0  0  0  0  0  0
  143.1210   75.3630  218.9920 O   0  0  0  0  0  0  0  0  0  0  0  0
  141.9540   73.9150  220.3260 N   0  0  0  0  0  0  0  0  0  0  0  0
  142.4550   72.7390  219.6730 C   0  0  0  0  0  0  0  0  0  0  0  0
  143.7240   72.1970  220.2410 C   0  0  0  0  0  0  0  0  0  0  0  0
  144.5850   71.4130  219.3220 C   0  0  0  0  0  0  0  0  0  0  0  0
  145.3850   72.2750  218.3730 C   0  0  0  0  0  0  0  0  0  0  0  0
  146.2540   73.1860  219.1180 N   0  0  0  0  0  0  0  0  0  0  0  0
  146.0170   73.1590  220.5280 C   0  0  0  0  0  0  0  0  0  0  0  0
  144.5570   73.2850  220.9070 C   0  0  0  0  0  0  0  0  0  0  0  0
  140.7780   71.6510  225.0190 C   0  0  0  0  0  0  0  0  0  0  0  0
  140.8490   70.7290  226.0550 C   0  0  0  0  0  0  0  0  0  0  0  0
  138.6110   66.6950  227.6140 H   0  0  0  0  0  0  0  0  0  0  0  0
  140.0130   66.2420  226.8320 H   0  0  0  0  0  0  0  0  0  0  0  0
  138.4529   68.6065  225.0406 H   0  0  0  0  0  0  0  0  0  0  0  0
  138.3365   70.2202  223.2289 H   0  0  0  0  0  0  0  0  0  0  0  0
  138.9611   73.1849  222.8933 H   0  0  0  0  0  0  0  0  0  0  0  0
  140.9692   71.5854  221.3818 H   0  0  0  0  0  0  0  0  0  0  0  0
  139.6907   77.1384  223.1032 H   0  0  0  0  0  0  0  0  0  0  0  0
  140.3526   79.4326  222.3879 H   0  0  0  0  0  0  0  0  0  0  0  0
  142.8833   77.7088  219.3401 H   0  0  0  0  0  0  0  0  0  0  0  0
  141.6866   71.9551  219.7442 H   0  0  0  0  0  0  0  0  0  0  0  0
  142.6817   73.0340  218.6378 H   0  0  0  0  0  0  0  0  0  0  0  0
  143.3588   71.4727  220.9840 H   0  0  0  0  0  0  0  0  0  0  0  0
  145.2844   70.8143  219.9241 H   0  0  0  0  0  0  0  0  0  0  0  0
  143.9216   70.7837  218.7106 H   0  0  0  0  0  0  0  0  0  0  0  0
  146.0024   71.6297  217.7308 H   0  0  0  0  0  0  0  0  0  0  0  0
  144.6907   72.8676  217.7592 H   0  0  0  0  0  0  0  0  0  0  0  0
  146.3000   74.1260  218.6880 H   0  0  0  0  0  0  0  0  0  0  0  0
  146.3968   72.2060  220.9249 H   0  0  0  0  0  0  0  0  0  0  0  0
  146.5342   74.0306  220.9555 H   0  0  0  0  0  0  0  0  0  0  0  0
  144.4598   73.1947  221.9990 H   0  0  0  0  0  0  0  0  0  0  0  0
  144.1901   74.2647  220.5670 H   0  0  0  0  0  0  0  0  0  0  0  0
  141.4539   72.5187  225.0322 H   0  0  0  0  0  0  0  0  0  0  0  0
  141.5755   70.8775  226.8675 H   0  0  0  0  0  0  0  0  0  0  0  0
  1  2  1  0
  2  3  2  0
  2  4  2  0
  2  5  1  0
  5  6  2  0
  6  7  1  0
  7  8  2  0
  8  9  1  0
  9 10  2  0
 10 11  1  0
 11 12  2  0
 12 13  1  0
 13 14  2  0
 14 15  1  0
 15 16  2  0
 16 17  1  0
 16 18  1  0
 18 19  2  0
 19 20  1  0
 20 21  2  0
 20 22  1  0
 22 23  1  0
 23 24  1  0
 24 25  1  0
 25 26  1  0
 26 27  1  0
 27 28  1  0
 28 29  1  0
  8 30  1  0
 30 31  2  0
 31  5  1  0
 22 11  1  0
 29 24  1  0
 19 13  1  0
  1 32  1  0
  1 33  1  0
  6 34  1  0
  7 35  1  0
  9 36  1  0
 10 37  1  0
 14 38  1  0
 15 39  1  0
 18 40  1  0
 23 41  1  0
 23 42  1  0
 24 43  1  0
 25 44  1  0
 25 45  1  0
 26 46  1  0
 26 47  1  0
 27 48  1  0
 28 49  1  0
 28 50  1  0
 29 51  1  0
 29 52  1  0
 30 53  1  0
 31 54  1  0
M  END
>  <smiles>  (27) 
NS(=O)(=O)c1ccc(/C=C/c2nc3ccc(F)cc3c(=O)n2CC2CCNCC2)cc1

>  <score_type>  (27) 
oracle

>  <origin>  (27) 
autodockgpu

>  <m_score__min__energy>  (27) 
-10.24

>  <m_primary>  (27) 
energy

>  <rmsd>  (27) 
8.345758705368146

>  <m_score__min__rmsd>  (27) 
8.345758705368146

>  <meeko>  (27) 
{"free_energy": -10.24, "intermolecular_energy": -12.33, "internal_energy": -1.24, "cluster_size": 13, "cluster_id": 1, "rank_in_cluster": 1}

>  <energy>  (27) 
-8.47

>  <cluster_rmsd>  (27) 
0.25

>  <cluster>  (27) 
3

$$$$

     RDKit          3D

 54 57  0  0  0  0  0  0  0  0999 V2000
  146.7440   73.7630  219.5790 N   0  0  0  0  0  0  0  0  0  0  0  0
  145.6540   72.4740  219.2130 S   0  0  0  0  0  0  0  0  0  0  0  0
  146.2620   71.1920  219.6750 O   0  0  0  0  0  0  0  0  0  0  0  0
  145.4520   72.3520  217.7190 O   0  0  0  0  0  0  0  0  0  0  0  0
  144.1240   72.7150  220.0200 C   0  0  0  0  0  0  0  0  0  0  0  0
  143.3410   71.6290  220.2950 C   0  0  0  0  0  0  0  0  0  0  0  0
  142.1410   71.7730  220.9230 C   0  0  0  0  0  0  0  0  0  0  0  0
  141.6330   73.0150  221.3240 C   0  0  0  0  0  0  0  0  0  0  0  0
  140.3450   73.1240  221.9930 C   0  0  0  0  0  0  0  0  0  0  0  0
  139.5050   72.1270  222.1610 C   0  0  0  0  0  0  0  0  0  0  0  0
  139.6170   71.2750  223.3410 C   0  0  0  0  0  0  0  0  0  0  0  0
  140.2610   71.7850  224.4320 N   0  0  0  0  0  0  0  0  0  0  0  0
  140.4380   71.1230  225.5700 C   0  0  0  0  0  0  0  0  0  0  0  0
  141.1000   71.6880  226.6500 C   0  0  0  0  0  0  0  0  0  0  0  0
  141.2630   70.9700  227.8150 C   0  0  0  0  0  0  0  0  0  0  0  0
  140.7560   69.6950  227.8650 C   0  0  0  0  0  0  0  0  0  0  0  0
  140.9360   69.0130  229.0340 F   0  0  0  0  0  0  0  0  0  0  0  0
  140.0870   69.1140  226.7840 C   0  0  0  0  0  0  0  0  0  0  0  0
  139.9230   69.8280  225.6250 C   0  0  0  0  0  0  0  0  0  0  0  0
  139.2750   69.3230  224.5160 C   0  0  0  0  0  0  0  0  0  0  0  0
  138.8290   68.1320  224.6430 O   0  0  0  0  0  0  0  0  0  0  0  0
  139.1090   70.0160  223.3730 N   0  0  0  0  0  0  0  0  0  0  0  0
  138.4450   69.4710  222.2230 C   0  0  0  0  0  0  0  0  0  0  0  0
  136.9990   69.8180  222.1080 C   0  0  0  0  0  0  0  0  0  0  0  0
  136.2090   69.8140  223.3650 C   0  0  0  0  0  0  0  0  0  0  0  0
  136.4320   71.0450  224.2130 C   0  0  0  0  0  0  0  0  0  0  0  0
  136.0670   72.2510  223.4700 N   0  0  0  0  0  0  0  0  0  0  0  0
  135.7580   71.9930  222.0980 C   0  0  0  0  0  0  0  0  0  0  0  0
  136.7900   71.1430  221.3870 C   0  0  0  0  0  0  0  0  0  0  0  0
  142.4370   74.0970  221.0380 C   0  0  0  0  0  0  0  0  0  0  0  0
  143.6620   73.9600  220.3980 C   0  0  0  0  0  0  0  0  0  0  0  0
  146.1890   74.5190  220.0460 H   0  0  0  0  0  0  0  0  0  0  0  0
  147.0240   74.1660  218.6470 H   0  0  0  0  0  0  0  0  0  0  0  0
  143.6846   70.6250  220.0052 H   0  0  0  0  0  0  0  0  0  0  0  0
  141.5431   70.8720  221.1246 H   0  0  0  0  0  0  0  0  0  0  0  0
  140.0542   74.1096  222.3854 H   0  0  0  0  0  0  0  0  0  0  0  0
  138.7200   71.9353  221.4146 H   0  0  0  0  0  0  0  0  0  0  0  0
  141.4959   72.7117  226.5764 H   0  0  0  0  0  0  0  0  0  0  0  0
  141.7843   71.4059  228.6800 H   0  0  0  0  0  0  0  0  0  0  0  0
  139.6942   68.0895  226.8627 H   0  0  0  0  0  0  0  0  0  0  0  0
  138.9581   69.8435  221.3241 H   0  0  0  0  0  0  0  0  0  0  0  0
  138.4916   68.3772  222.3301 H   0  0  0  0  0  0  0  0  0  0  0  0
  136.6032   68.9810  221.5141 H   0  0  0  0  0  0  0  0  0  0  0  0
  135.1413   69.7563  223.1066 H   0  0  0  0  0  0  0  0  0  0  0  0
  136.5390   68.9465  223.9554 H   0  0  0  0  0  0  0  0  0  0  0  0
  135.8130   70.9771  225.1198 H   0  0  0  0  0  0  0  0  0  0  0  0
  137.4965   71.1024  224.4843 H   0  0  0  0  0  0  0  0  0  0  0  0
  136.7230   73.0330  223.6440 H   0  0  0  0  0  0  0  0  0  0  0  0
  134.7898   71.4728  222.0527 H   0  0  0  0  0  0  0  0  0  0  0  0
  135.7381   72.9665  221.5862 H   0  0  0  0  0  0  0  0  0  0  0  0
  136.4464   70.9437  220.3612 H   0  0  0  0  0  0  0  0  0  0  0  0
  137.7448   71.6891  221.3753 H   0  0  0  0  0  0  0  0  0  0  0  0
  142.0973   75.1027  221.3262 H   0  0  0  0  0  0  0  0  0  0  0  0
  144.2704   74.8526  220.1901 H   0  0  0  0  0  0  0  0  0  0  0  0
  1  2  1  0
  2  3  2  0
  2  4  2  0
  2  5  1  0
  5  6  2  0
  6  7  1  0
  7  8  2  0
  8  9  1  0
  9 10  2  0
 10 11  1  0
 11 12  2  0
 12 13  1  0
 13 14  2  0
 14 15  1  0
 15 16  2  0
 16 17  1  0
 16 18  1  0
 18 19  2  0
 19 20  1  0
 20 21  2  0
 20 22  1  0
 22 23  1  0
 23 24  1  0
 24 25  1  0
 25 26  1  0
 26 27  1  0
 27 28  1  0
 28 29  1  0
  8 30  1  0
 30 31  2  0
 31  5  1  0
 22 11  1  0
 29 24  1  0
 19 13  1  0
  1 32  1  0
  1 33  1  0
  6 34  1  0
  7 35  1  0
  9 36  1  0
 10 37  1  0
 14 38  1  0
 15 39  1  0
 18 40  1  0
 23 41  1  0
 23 42  1  0
 24 43  1  0
 25 44  1  0
 25 45  1  0
 26 46  1  0
 26 47  1  0
 27 48  1  0
 28 49  1  0
 28 50  1  0
 29 51  1  0
 29 52  1  0
 30 53  1  0
 31 54  1  0
M  END
>  <smiles>  (28) 
NS(=O)(=O)c1ccc(/C=C/c2nc3ccc(F)cc3c(=O)n2CC2CCNCC2)cc1

>  <score_type>  (28) 
oracle

>  <origin>  (28) 
autodockgpu

>  <m_score__min__energy>  (28) 
-10.24

>  <m_primary>  (28) 
energy

>  <rmsd>  (28) 
10.664920075590363

>  <m_score__min__rmsd>  (28) 
10.664920075590363

>  <meeko>  (28) 
{"free_energy": -8.74, "intermolecular_energy": -10.83, "internal_energy": -1.5, "cluster_size": 12, "cluster_id": 2, "rank_in_cluster": 6}

>  <energy>  (28) 
-8.27

>  <cluster_rmsd>  (28) 
1.14

>  <cluster>  (28) 
3

$$$$

     RDKit          3D

 54 57  0  0  0  0  0  0  0  0999 V2000
  142.7760   79.2470  222.5570 N   0  0  0  0  0  0  0  0  0  0  0  0
  141.1620   79.0570  221.9740 S   0  0  0  0  0  0  0  0  0  0  0  0
  141.0880   79.6120  220.5910 O   0  0  0  0  0  0  0  0  0  0  0  0
  140.1910   79.8500  222.8200 O   0  0  0  0  0  0  0  0  0  0  0  0
  140.7130   77.3690  221.9470 C   0  0  0  0  0  0  0  0  0  0  0  0
  139.6010   76.9670  222.6310 C   0  0  0  0  0  0  0  0  0  0  0  0
  139.2170   75.6600  222.6370 C   0  0  0  0  0  0  0  0  0  0  0  0
  139.9170   74.6560  221.9560 C   0  0  0  0  0  0  0  0  0  0  0  0
  139.4710   73.2700  221.9870 C   0  0  0  0  0  0  0  0  0  0  0  0
  140.2640   72.2350  222.1430 C   0  0  0  0  0  0  0  0  0  0  0  0
  140.1110   71.3730  223.3110 C   0  0  0  0  0  0  0  0  0  0  0  0
  140.6330   71.8110  224.4950 N   0  0  0  0  0  0  0  0  0  0  0  0
  140.5700   71.1320  225.6340 C   0  0  0  0  0  0  0  0  0  0  0  0
  141.1170   71.6220  226.8110 C   0  0  0  0  0  0  0  0  0  0  0  0
  141.0310   70.8880  227.9750 C   0  0  0  0  0  0  0  0  0  0  0  0
  140.3950   69.6730  227.9260 C   0  0  0  0  0  0  0  0  0  0  0  0
  140.3290   68.9730  229.0960 F   0  0  0  0  0  0  0  0  0  0  0  0
  139.8400   69.1670  226.7470 C   0  0  0  0  0  0  0  0  0  0  0  0
  139.9240   69.8960  225.5890 C   0  0  0  0  0  0  0  0  0  0  0  0
  139.4010   69.4640  224.3880 C   0  0  0  0  0  0  0  0  0  0  0  0
  138.8220   68.3250  224.4260 O   0  0  0  0  0  0  0  0  0  0  0  0
  139.4790   70.1720  223.2450 N   0  0  0  0  0  0  0  0  0  0  0  0
  138.9420   69.7020  222.0000 C   0  0  0  0  0  0  0  0  0  0  0  0
  137.4930   69.9900  221.7900 C   0  0  0  0  0  0  0  0  0  0  0  0
  136.6120   69.8810  222.9790 C   0  0  0  0  0  0  0  0  0  0  0  0
  136.7090   71.0710  223.9050 C   0  0  0  0  0  0  0  0  0  0  0  0
  136.3440   72.2990  223.2000 N   0  0  0  0  0  0  0  0  0  0  0  0
  136.1520   72.1040  221.7960 C   0  0  0  0  0  0  0  0  0  0  0  0
  137.2750   71.3430  221.1250 C   0  0  0  0  0  0  0  0  0  0  0  0
  141.0350   75.0810  221.2710 C   0  0  0  0  0  0  0  0  0  0  0  0
  141.4340   76.4110  221.2610 C   0  0  0  0  0  0  0  0  0  0  0  0
  143.3210   79.7470  221.8140 H   0  0  0  0  0  0  0  0  0  0  0  0
  143.1800   78.2750  222.5840 H   0  0  0  0  0  0  0  0  0  0  0  0
  139.0072   77.7091  223.1848 H   0  0  0  0  0  0  0  0  0  0  0  0
  138.3159   75.3803  223.2025 H   0  0  0  0  0  0  0  0  0  0  0  0
  138.3943   73.0765  221.8716 H   0  0  0  0  0  0  0  0  0  0  0  0
  141.0414   72.0182  221.3956 H   0  0  0  0  0  0  0  0  0  0  0  0
  141.6212   72.5997  226.8156 H   0  0  0  0  0  0  0  0  0  0  0  0
  141.4596   71.2652  228.9152 H   0  0  0  0  0  0  0  0  0  0  0  0
  139.3381   68.1882  226.7484 H   0  0  0  0  0  0  0  0  0  0  0  0
  139.5062   70.1770  221.1839 H   0  0  0  0  0  0  0  0  0  0  0  0
  139.0386   68.6064  222.0173 H   0  0  0  0  0  0  0  0  0  0  0  0
  137.1844   69.1708  221.1240 H   0  0  0  0  0  0  0  0  0  0  0  0
  135.5711   69.7899  222.6352 H   0  0  0  0  0  0  0  0  0  0  0  0
  136.9392   68.9979  223.5475 H   0  0  0  0  0  0  0  0  0  0  0  0
  136.0263   70.9249  224.7550 H   0  0  0  0  0  0  0  0  0  0  0  0
  137.7455   71.1604  224.2624 H   0  0  0  0  0  0  0  0  0  0  0  0
  136.9450   73.0990  223.4650 H   0  0  0  0  0  0  0  0  0  0  0  0
  135.2170   71.5436  221.6485 H   0  0  0  0  0  0  0  0  0  0  0  0
  136.1221   73.1025  221.3354 H   0  0  0  0  0  0  0  0  0  0  0  0
  137.0207   71.1864  220.0663 H   0  0  0  0  0  0  0  0  0  0  0  0
  138.2000   71.9311  221.2170 H   0  0  0  0  0  0  0  0  0  0  0  0
  141.6305   74.3426  220.7141 H   0  0  0  0  0  0  0  0  0  0  0  0
  142.3339   76.7049  220.7008 H   0  0  0  0  0  0  0  0  0  0  0  0
  1  2  1  0
  2  3  2  0
  2  4  2  0
  2  5  1  0
  5  6  2  0
  6  7  1  0
  7  8  2  0
  8  9  1  0
  9 10  2  0
 10 11  1  0
 11 12  2  0
 12 13  1  0
 13 14  2  0
 14 15  1  0
 15 16  2  0
 16 17  1  0
 16 18  1  0
 18 19  2  0
 19 20  1  0
 20 21  2  0
 20 22  1  0
 22 23  1  0
 23 24  1  0
 24 25  1  0
 25 26  1  0
 26 27  1  0
 27 28  1  0
 28 29  1  0
  8 30  1  0
 30 31  2  0
 31  5  1  0
 22 11  1  0
 29 24  1  0
 19 13  1  0
  1 32  1  0
  1 33  1  0
  6 34  1  0
  7 35  1  0
  9 36  1  0
 10 37  1  0
 14 38  1  0
 15 39  1  0
 18 40  1  0
 23 41  1  0
 23 42  1  0
 24 43  1  0
 25 44  1  0
 25 45  1  0
 26 46  1  0
 26 47  1  0
 27 48  1  0
 28 49  1  0
 28 50  1  0
 29 51  1  0
 29 52  1  0
 30 53  1  0
 31 54  1  0
M  END
>  <smiles>  (29) 
NS(=O)(=O)c1ccc(/C=C/c2nc3ccc(F)cc3c(=O)n2CC2CCNCC2)cc1

>  <score_type>  (29) 
oracle

>  <origin>  (29) 
autodockgpu

>  <m_score__min__energy>  (29) 
-10.24

>  <m_primary>  (29) 
energy

>  <rmsd>  (29) 
10.513130676399186

>  <m_score__min__rmsd>  (29) 
10.513130676399186

>  <meeko>  (29) 
{"free_energy": -8.41, "intermolecular_energy": -10.5, "internal_energy": -1.54, "cluster_size": 10, "cluster_id": 4, "rank_in_cluster": 3}

>  <energy>  (29) 
-8.26

>  <cluster_rmsd>  (29) 
0.45

>  <cluster>  (29) 
3

$$$$

     RDKit          3D

 54 57  0  0  0  0  0  0  0  0999 V2000
  142.5690   79.2910  222.4010 N   0  0  0  0  0  0  0  0  0  0  0  0
  140.8660   79.1390  222.1540 S   0  0  0  0  0  0  0  0  0  0  0  0
  140.5130   79.7970  220.8620 O   0  0  0  0  0  0  0  0  0  0  0  0
  140.1020   79.8600  223.2410 O   0  0  0  0  0  0  0  0  0  0  0  0
  140.4020   77.4550  222.0920 C   0  0  0  0  0  0  0  0  0  0  0  0
  141.3020   76.5370  221.6300 C   0  0  0  0  0  0  0  0  0  0  0  0
  140.9800   75.2140  221.5650 C   0  0  0  0  0  0  0  0  0  0  0  0
  139.7330   74.7120  221.9590 C   0  0  0  0  0  0  0  0  0  0  0  0
  139.4310   73.2900  221.8740 C   0  0  0  0  0  0  0  0  0  0  0  0
  140.2870   72.3290  222.1380 C   0  0  0  0  0  0  0  0  0  0  0  0
  140.0790   71.4720  223.3010 C   0  0  0  0  0  0  0  0  0  0  0  0
  140.6330   71.8660  224.4860 N   0  0  0  0  0  0  0  0  0  0  0  0
  140.5260   71.1850  225.6210 C   0  0  0  0  0  0  0  0  0  0  0  0
  141.1080   71.6300  226.7990 C   0  0  0  0  0  0  0  0  0  0  0  0
  140.9750   70.8960  227.9590 C   0  0  0  0  0  0  0  0  0  0  0  0
  140.2580   69.7270  227.9040 C   0  0  0  0  0  0  0  0  0  0  0  0
  140.1470   69.0240  229.0700 F   0  0  0  0  0  0  0  0  0  0  0  0
  139.6670   69.2670  226.7240 C   0  0  0  0  0  0  0  0  0  0  0  0
  139.7980   69.9960  225.5700 C   0  0  0  0  0  0  0  0  0  0  0  0
  139.2440   69.6080  224.3680 C   0  0  0  0  0  0  0  0  0  0  0  0
  138.5900   68.5110  224.4000 O   0  0  0  0  0  0  0  0  0  0  0  0
  139.3670   70.3170  223.2290 N   0  0  0  0  0  0  0  0  0  0  0  0
  138.7960   69.8920  221.9830 C   0  0  0  0  0  0  0  0  0  0  0  0
  137.3470   70.2030  221.8150 C   0  0  0  0  0  0  0  0  0  0  0  0
  136.5170   70.2020  223.0460 C   0  0  0  0  0  0  0  0  0  0  0  0
  136.6840   71.4510  223.8800 C   0  0  0  0  0  0  0  0  0  0  0  0
  136.3160   72.6360  223.1040 N   0  0  0  0  0  0  0  0  0  0  0  0
  136.0580   72.3470  221.7280 C   0  0  0  0  0  0  0  0  0  0  0  0
  137.1310   71.5110  221.0650 C   0  0  0  0  0  0  0  0  0  0  0  0
  138.8410   75.6540  222.4220 C   0  0  0  0  0  0  0  0  0  0  0  0
  139.1600   77.0040  222.4920 C   0  0  0  0  0  0  0  0  0  0  0  0
  142.9670   79.7690  221.5560 H   0  0  0  0  0  0  0  0  0  0  0  0
  142.9470   78.3080  222.3600 H   0  0  0  0  0  0  0  0  0  0  0  0
  142.2993   76.8696  221.3063 H   0  0  0  0  0  0  0  0  0  0  0  0
  141.7338   74.5084  221.1858 H   0  0  0  0  0  0  0  0  0  0  0  0
  138.4151   73.0002  221.5673 H   0  0  0  0  0  0  0  0  0  0  0  0
  141.1577   72.1708  221.4847 H   0  0  0  0  0  0  0  0  0  0  0  0
  141.6773   72.5712  226.8079 H   0  0  0  0  0  0  0  0  0  0  0  0
  141.4301   71.2374  228.9004 H   0  0  0  0  0  0  0  0  0  0  0  0
  139.0995   68.3247  226.7210 H   0  0  0  0  0  0  0  0  0  0  0  0
  139.3475   70.3853  221.1690 H   0  0  0  0  0  0  0  0  0  0  0  0
  138.8791   68.7953  221.9649 H   0  0  0  0  0  0  0  0  0  0  0  0
  136.9904   69.3472  221.2230 H   0  0  0  0  0  0  0  0  0  0  0  0
  135.4599   70.1156  222.7544 H   0  0  0  0  0  0  0  0  0  0  0  0
  136.8477   69.3524  223.6615 H   0  0  0  0  0  0  0  0  0  0  0  0
  136.0372   71.3835  224.7672 H   0  0  0  0  0  0  0  0  0  0  0  0
  137.7372   71.5377  224.1856 H   0  0  0  0  0  0  0  0  0  0  0  0
  136.9470   73.4360  223.2850 H   0  0  0  0  0  0  0  0  0  0  0  0
  135.1044   71.8027  221.6614 H   0  0  0  0  0  0  0  0  0  0  0  0
  136.0321   73.3110  221.1989 H   0  0  0  0  0  0  0  0  0  0  0  0
  136.8253   71.2870  220.0323 H   0  0  0  0  0  0  0  0  0  0  0  0
  138.0728   72.0792  221.0742 H   0  0  0  0  0  0  0  0  0  0  0  0
  137.8426   75.3261  222.7472 H   0  0  0  0  0  0  0  0  0  0  0  0
  138.4159   77.7207  222.8698 H   0  0  0  0  0  0  0  0  0  0  0  0
  1  2  1  0
  2  3  2  0
  2  4  2  0
  2  5  1  0
  5  6  2  0
  6  7  1  0
  7  8  2  0
  8  9  1  0
  9 10  2  0
 10 11  1  0
 11 12  2  0
 12 13  1  0
 13 14  2  0
 14 15  1  0
 15 16  2  0
 16 17  1  0
 16 18  1  0
 18 19  2  0
 19 20  1  0
 20 21  2  0
 20 22  1  0
 22 23  1  0
 23 24  1  0
 24 25  1  0
 25 26  1  0
 26 27  1  0
 27 28  1  0
 28 29  1  0
  8 30  1  0
 30 31  2  0
 31  5  1  0
 22 11  1  0
 29 24  1  0
 19 13  1  0
  1 32  1  0
  1 33  1  0
  6 34  1  0
  7 35  1  0
  9 36  1  0
 10 37  1  0
 14 38  1  0
 15 39  1  0
 18 40  1  0
 23 41  1  0
 23 42  1  0
 24 43  1  0
 25 44  1  0
 25 45  1  0
 26 46  1  0
 26 47  1  0
 27 48  1  0
 28 49  1  0
 28 50  1  0
 29 51  1  0
 29 52  1  0
 30 53  1  0
 31 54  1  0
M  END
>  <smiles>  (30) 
NS(=O)(=O)c1ccc(/C=C/c2nc3ccc(F)cc3c(=O)n2CC2CCNCC2)cc1

>  <score_type>  (30) 
oracle

>  <origin>  (30) 
autodockgpu

>  <m_score__min__energy>  (30) 
-10.24

>  <m_primary>  (30) 
energy

>  <rmsd>  (30) 
10.369795266073142

>  <m_score__min__rmsd>  (30) 
10.369795266073142

>  <meeko>  (30) 
{"free_energy": -8.32, "intermolecular_energy": -10.41, "internal_energy": -1.56, "cluster_size": 10, "cluster_id": 4, "rank_in_cluster": 8}

>  <energy>  (30) 
-8.23

>  <cluster_rmsd>  (30) 
0.5

>  <cluster>  (30) 
3

$$$$

     RDKit          3D

 54 57  0  0  0  0  0  0  0  0999 V2000
  146.6140   73.0220  221.4500 N   0  0  0  0  0  0  0  0  0  0  0  0
  145.6070   72.8650  220.0550 S   0  0  0  0  0  0  0  0  0  0  0  0
  145.3650   71.4140  219.8050 O   0  0  0  0  0  0  0  0  0  0  0  0
  146.3010   73.4140  218.8290 O   0  0  0  0  0  0  0  0  0  0  0  0
  144.0780   73.6730  220.3070 C   0  0  0  0  0  0  0  0  0  0  0  0
  143.0260   72.9590  220.8070 C   0  0  0  0  0  0  0  0  0  0  0  0
  141.8170   73.5500  221.0180 C   0  0  0  0  0  0  0  0  0  0  0  0
  141.5700   74.9020  220.7440 C   0  0  0  0  0  0  0  0  0  0  0  0
  140.2610   75.4940  220.9850 C   0  0  0  0  0  0  0  0  0  0  0  0
  140.0640   76.6520  221.5730 C   0  0  0  0  0  0  0  0  0  0  0  0
  140.3810   77.8890  220.8640 C   0  0  0  0  0  0  0  0  0  0  0  0
  140.9400   77.7820  219.6230 N   0  0  0  0  0  0  0  0  0  0  0  0
  141.2800   78.8210  218.8670 C   0  0  0  0  0  0  0  0  0  0  0  0
  141.8450   78.6580  217.6110 C   0  0  0  0  0  0  0  0  0  0  0  0
  142.1850   79.7600  216.8560 C   0  0  0  0  0  0  0  0  0  0  0  0
  141.9480   81.0040  217.3860 C   0  0  0  0  0  0  0  0  0  0  0  0
  142.2970   82.0730  216.6110 F   0  0  0  0  0  0  0  0  0  0  0  0
  141.3790   81.1820  218.6500 C   0  0  0  0  0  0  0  0  0  0  0  0
  141.0400   80.0870  219.4020 C   0  0  0  0  0  0  0  0  0  0  0  0
  140.4750   80.1810  220.6570 C   0  0  0  0  0  0  0  0  0  0  0  0
  140.2840   81.3730  221.0780 O   0  0  0  0  0  0  0  0  0  0  0  0
  140.1390   79.1120  221.4040 N   0  0  0  0  0  0  0  0  0  0  0  0
  139.5660   79.2280  222.7150 C   0  0  0  0  0  0  0  0  0  0  0  0
  140.5340   79.5710  223.7960 C   0  0  0  0  0  0  0  0  0  0  0  0
  141.8100   78.8140  223.8150 C   0  0  0  0  0  0  0  0  0  0  0  0
  142.8040   79.2940  222.7820 C   0  0  0  0  0  0  0  0  0  0  0  0
  143.1270   80.7040  222.9990 N   0  0  0  0  0  0  0  0  0  0  0  0
  142.3170   81.3160  224.0060 C   0  0  0  0  0  0  0  0  0  0  0  0
  140.8340   81.0640  223.8370 C   0  0  0  0  0  0  0  0  0  0  0  0
  142.6430   75.6040  220.2410 C   0  0  0  0  0  0  0  0  0  0  0  0
  143.8790   75.0100  220.0220 C   0  0  0  0  0  0  0  0  0  0  0  0
  146.3320   72.2710  222.1260 H   0  0  0  0  0  0  0  0  0  0  0  0
  146.3200   73.9240  221.9070 H   0  0  0  0  0  0  0  0  0  0  0  0
  143.1571   71.8925  221.0424 H   0  0  0  0  0  0  0  0  0  0  0  0
  140.9970   72.9381  221.4219 H   0  0  0  0  0  0  0  0  0  0  0  0
  139.3760   74.9323  220.6514 H   0  0  0  0  0  0  0  0  0  0  0  0
  139.6616   76.6900  222.5960 H   0  0  0  0  0  0  0  0  0  0  0  0
  142.0223   77.6467  217.2163 H   0  0  0  0  0  0  0  0  0  0  0  0
  142.6332   79.6460  215.8579 H   0  0  0  0  0  0  0  0  0  0  0  0
  141.2040   82.1957  219.0396 H   0  0  0  0  0  0  0  0  0  0  0  0
  138.7969   80.0138  222.6833 H   0  0  0  0  0  0  0  0  0  0  0  0
  139.1644   78.2348  222.9647 H   0  0  0  0  0  0  0  0  0  0  0  0
  139.9954   79.2542  224.7013 H   0  0  0  0  0  0  0  0  0  0  0  0
  142.2637   78.9189  224.8116 H   0  0  0  0  0  0  0  0  0  0  0  0
  141.5718   77.7668  223.5769 H   0  0  0  0  0  0  0  0  0  0  0  0
  143.7239   78.6958  222.8592 H   0  0  0  0  0  0  0  0  0  0  0  0
  142.3608   79.1802  221.7817 H   0  0  0  0  0  0  0  0  0  0  0  0
  143.2140   81.2290  222.1120 H   0  0  0  0  0  0  0  0  0  0  0  0
  142.6258   80.9222  224.9856 H   0  0  0  0  0  0  0  0  0  0  0  0
  142.4681   82.4022  223.9209 H   0  0  0  0  0  0  0  0  0  0  0  0
  140.2939   81.5162  224.6819 H   0  0  0  0  0  0  0  0  0  0  0  0
  140.5088   81.5125  222.8867 H   0  0  0  0  0  0  0  0  0  0  0  0
  142.5166   76.6709  220.0048 H   0  0  0  0  0  0  0  0  0  0  0  0
  144.7076   75.6099  219.6177 H   0  0  0  0  0  0  0  0  0  0  0  0
  1  2  1  0
  2  3  2  0
  2  4  2  0
  2  5  1  0
  5  6  2  0
  6  7  1  0
  7  8  2  0
  8  9  1  0
  9 10  2  0
 10 11  1  0
 11 12  2  0
 12 13  1  0
 13 14  2  0
 14 15  1  0
 15 16  2  0
 16 17  1  0
 16 18  1  0
 18 19  2  0
 19 20  1  0
 20 21  2  0
 20 22  1  0
 22 23  1  0
 23 24  1  0
 24 25  1  0
 25 26  1  0
 26 27  1  0
 27 28  1  0
 28 29  1  0
  8 30  1  0
 30 31  2  0
 31  5  1  0
 22 11  1  0
 29 24  1  0
 19 13  1  0
  1 32  1  0
  1 33  1  0
  6 34  1  0
  7 35  1  0
  9 36  1  0
 10 37  1  0
 14 38  1  0
 15 39  1  0
 18 40  1  0
 23 41  1  0
 23 42  1  0
 24 43  1  0
 25 44  1  0
 25 45  1  0
 26 46  1  0
 26 47  1  0
 27 48  1  0
 28 49  1  0
 28 50  1  0
 29 51  1  0
 29 52  1  0
 30 53  1  0
 31 54  1  0
M  END
>  <smiles>  (31) 
NS(=O)(=O)c1ccc(/C=C/c2nc3ccc(F)cc3c(=O)n2CC2CCNCC2)cc1

>  <score_type>  (31) 
oracle

>  <origin>  (31) 
autodockgpu

>  <m_score__min__energy>  (31) 
-10.24

>  <m_primary>  (31) 
energy

>  <rmsd>  (31) 
4.271140529790221

>  <m_score__min__rmsd>  (31) 
4.271140529790221

>  <meeko>  (31) 
{"free_energy": -7.59, "intermolecular_energy": -9.68, "internal_energy": -1.67, "cluster_size": 4, "cluster_id": 5, "rank_in_cluster": 4}

>  <energy>  (31) 
-8.04

>  <cluster_rmsd>  (31) 
1.69

>  <cluster>  (31) 
3

$$$$

     RDKit          3D

 54 57  0  0  0  0  0  0  0  0999 V2000
  141.0980   68.0120  227.7980 N   0  0  0  0  0  0  0  0  0  0  0  0
  140.4660   69.6170  227.8970 S   0  0  0  0  0  0  0  0  0  0  0  0
  141.4720   70.4820  228.5810 O   0  0  0  0  0  0  0  0  0  0  0  0
  139.2120   69.6460  228.7420 O   0  0  0  0  0  0  0  0  0  0  0  0
  140.1440   70.2500  226.3010 C   0  0  0  0  0  0  0  0  0  0  0  0
  140.8800   71.3090  225.8480 C   0  0  0  0  0  0  0  0  0  0  0  0
  140.6610   71.8340  224.6100 C   0  0  0  0  0  0  0  0  0  0  0  0
  139.6880   71.3380  223.7320 C   0  0  0  0  0  0  0  0  0  0  0  0
  139.4880   71.9300  222.4170 C   0  0  0  0  0  0  0  0  0  0  0  0
  140.4510   72.1890  221.5610 C   0  0  0  0  0  0  0  0  0  0  0  0
  140.8490   73.5720  221.3150 C   0  0  0  0  0  0  0  0  0  0  0  0
  140.2000   74.5510  222.0100 N   0  0  0  0  0  0  0  0  0  0  0  0
  140.4570   75.8490  221.8850 C   0  0  0  0  0  0  0  0  0  0  0  0
  139.7690   76.8050  222.6170 C   0  0  0  0  0  0  0  0  0  0  0  0
  140.0630   78.1430  222.4600 C   0  0  0  0  0  0  0  0  0  0  0  0
  141.0470   78.4870  221.5660 C   0  0  0  0  0  0  0  0  0  0  0  0
  141.3120   79.8200  221.4350 F   0  0  0  0  0  0  0  0  0  0  0  0
  141.7470   77.5330  220.8220 C   0  0  0  0  0  0  0  0  0  0  0  0
  141.4560   76.2030  220.9780 C   0  0  0  0  0  0  0  0  0  0  0  0
  142.1040   75.2040  220.2800 C   0  0  0  0  0  0  0  0  0  0  0  0
  143.0070   75.6050  219.4700 O   0  0  0  0  0  0  0  0  0  0  0  0
  141.8240   73.8950  220.4260 N   0  0  0  0  0  0  0  0  0  0  0  0
  142.4980   72.8690  219.6810 C   0  0  0  0  0  0  0  0  0  0  0  0
  143.7520   72.3590  220.3060 C   0  0  0  0  0  0  0  0  0  0  0  0
  144.5760   71.4330  219.4890 C   0  0  0  0  0  0  0  0  0  0  0  0
  145.3950   72.1380  218.4330 C   0  0  0  0  0  0  0  0  0  0  0  0
  146.3030   73.1050  219.0500 N   0  0  0  0  0  0  0  0  0  0  0  0
  146.0810   73.2670  220.4530 C   0  0  0  0  0  0  0  0  0  0  0  0
  144.6300   73.4920  220.8210 C   0  0  0  0  0  0  0  0  0  0  0  0
  138.9580   70.2710  224.2070 C   0  0  0  0  0  0  0  0  0  0  0  0
  139.1740   69.7300  225.4680 C   0  0  0  0  0  0  0  0  0  0  0  0
  140.3070   67.3510  227.9870 H   0  0  0  0  0  0  0  0  0  0  0  0
  141.7410   67.9130  228.6270 H   0  0  0  0  0  0  0  0  0  0  0  0
  141.6594   71.7431  226.4915 H   0  0  0  0  0  0  0  0  0  0  0  0
  141.2760   72.6861  224.2849 H   0  0  0  0  0  0  0  0  0  0  0  0
  138.4586   72.1779  222.1190 H   0  0  0  0  0  0  0  0  0  0  0  0
  140.9552   71.3669  221.0319 H   0  0  0  0  0  0  0  0  0  0  0  0
  138.9863   76.4950  223.3250 H   0  0  0  0  0  0  0  0  0  0  0  0
  139.5253   78.9121  223.0339 H   0  0  0  0  0  0  0  0  0  0  0  0
  142.5280   77.8484  220.1145 H   0  0  0  0  0  0  0  0  0  0  0  0
  141.8061   72.0220  219.5633 H   0  0  0  0  0  0  0  0  0  0  0  0
  142.7940   73.3262  218.7253 H   0  0  0  0  0  0  0  0  0  0  0  0
  143.3691   71.7499  221.1381 H   0  0  0  0  0  0  0  0  0  0  0  0
  145.2606   70.8914  220.1583 H   0  0  0  0  0  0  0  0  0  0  0  0
  143.8848   70.7547  218.9673 H   0  0  0  0  0  0  0  0  0  0  0  0
  145.9829   71.3946  217.8746 H   0  0  0  0  0  0  0  0  0  0  0  0
  144.7150   72.6720  217.7530 H   0  0  0  0  0  0  0  0  0  0  0  0
  146.3770   73.9800  218.5020 H   0  0  0  0  0  0  0  0  0  0  0  0
  146.4322   72.3598  220.9665 H   0  0  0  0  0  0  0  0  0  0  0  0
  146.6328   74.1669  220.7624 H   0  0  0  0  0  0  0  0  0  0  0  0
  144.5413   73.5460  221.9161 H   0  0  0  0  0  0  0  0  0  0  0  0
  144.2940   74.4321  220.3592 H   0  0  0  0  0  0  0  0  0  0  0  0
  138.1782   69.8328  223.5667 H   0  0  0  0  0  0  0  0  0  0  0  0
  138.5656   68.8783  225.8063 H   0  0  0  0  0  0  0  0  0  0  0  0
  1  2  1  0
  2  3  2  0
  2  4  2  0
  2  5  1  0
  5  6  2  0
  6  7  1  0
  7  8  2  0
  8  9  1  0
  9 10  2  0
 10 11  1  0
 11 12  2  0
 12 13  1  0
 13 14  2  0
 14 15  1  0
 15 16  2  0
 16 17  1  0
 16 18  1  0
 18 19  2  0
 19 20  1  0
 20 21  2  0
 20 22  1  0
 22 23  1  0
 23 24  1  0
 24 25  1  0
 25 26  1  0
 26 27  1  0
 27 28  1  0
 28 29  1  0
  8 30  1  0
 30 31  2  0
 31  5  1  0
 22 11  1  0
 29 24  1  0
 19 13  1  0
  1 32  1  0
  1 33  1  0
  6 34  1  0
  7 35  1  0
  9 36  1  0
 10 37  1  0
 14 38  1  0
 15 39  1  0
 18 40  1  0
 23 41  1  0
 23 42  1  0
 24 43  1  0
 25 44  1  0
 25 45  1  0
 26 46  1  0
 26 47  1  0
 27 48  1  0
 28 49  1  0
 28 50  1  0
 29 51  1  0
 29 52  1  0
 30 53  1  0
 31 54  1  0
M  END
>  <smiles>  (32) 
NS(=O)(=O)c1ccc(/C=C/c2nc3ccc(F)cc3c(=O)n2CC2CCNCC2)cc1

>  <score_type>  (32) 
oracle

>  <origin>  (32) 
autodockgpu

>  <m_score__min__energy>  (32) 
-10.24

>  <m_primary>  (32) 
energy

>  <rmsd>  (32) 
8.317430879171113

>  <m_score__min__rmsd>  (32) 
8.317430879171113

>  <meeko>  (32) 
{"free_energy": -9.86, "intermolecular_energy": -11.95, "internal_energy": -1.24, "cluster_size": 13, "cluster_id": 1, "rank_in_cluster": 8}

>  <energy>  (32) 
-8.48

>  <cluster_rmsd>  (32) 
0.0

>  <cluster>  (32) 
4

$$$$

     RDKit          3D

 54 57  0  0  0  0  0  0  0  0999 V2000
  141.1630   68.0280  227.6720 N   0  0  0  0  0  0  0  0  0  0  0  0
  139.6870   68.5640  226.9530 S   0  0  0  0  0  0  0  0  0  0  0  0
  138.9180   69.3400  227.9690 O   0  0  0  0  0  0  0  0  0  0  0  0
  138.8270   67.3850  226.5550 O   0  0  0  0  0  0  0  0  0  0  0  0
  140.0110   69.5800  225.5690 C   0  0  0  0  0  0  0  0  0  0  0  0
  140.7530   70.7140  225.7400 C   0  0  0  0  0  0  0  0  0  0  0  0
  141.0290   71.5350  224.6880 C   0  0  0  0  0  0  0  0  0  0  0  0
  140.5820   71.2810  223.3850 C   0  0  0  0  0  0  0  0  0  0  0  0
  140.9000   72.1850  222.2880 C   0  0  0  0  0  0  0  0  0  0  0  0
  140.0930   73.1160  221.8310 C   0  0  0  0  0  0  0  0  0  0  0  0
  140.6150   74.4470  221.5380 C   0  0  0  0  0  0  0  0  0  0  0  0
  140.0650   75.5040  222.2040 N   0  0  0  0  0  0  0  0  0  0  0  0
  140.4390   76.7680  222.0350 C   0  0  0  0  0  0  0  0  0  0  0  0
  139.8480   77.8070  222.7380 C   0  0  0  0  0  0  0  0  0  0  0  0
  140.2630   79.1060  222.5360 C   0  0  0  0  0  0  0  0  0  0  0  0
  141.2670   79.3290  221.6270 C   0  0  0  0  0  0  0  0  0  0  0  0
  141.6530   80.6260  221.4510 F   0  0  0  0  0  0  0  0  0  0  0  0
  141.8710   78.2910  220.9110 C   0  0  0  0  0  0  0  0  0  0  0  0
  141.4590   76.9990  221.1110 C   0  0  0  0  0  0  0  0  0  0  0  0
  142.0070   75.9220  220.4440 C   0  0  0  0  0  0  0  0  0  0  0  0
  142.9370   76.2120  219.6170 O   0  0  0  0  0  0  0  0  0  0  0  0
  141.6090   74.6500  220.6340 N   0  0  0  0  0  0  0  0  0  0  0  0
  142.1790   73.5420  219.9200 C   0  0  0  0  0  0  0  0  0  0  0  0
  143.3910   72.9440  220.5510 C   0  0  0  0  0  0  0  0  0  0  0  0
  144.0140   71.7970  219.8440 C   0  0  0  0  0  0  0  0  0  0  0  0
  144.8460   72.2120  218.6520 C   0  0  0  0  0  0  0  0  0  0  0  0
  145.9240   73.1090  219.0680 N   0  0  0  0  0  0  0  0  0  0  0  0
  145.8290   73.5020  220.4400 C   0  0  0  0  0  0  0  0  0  0  0  0
  144.4550   73.9940  220.8430 C   0  0  0  0  0  0  0  0  0  0  0  0
  139.8360   70.1320  223.2330 C   0  0  0  0  0  0  0  0  0  0  0  0
  139.5500   69.2900  224.3000 C   0  0  0  0  0  0  0  0  0  0  0  0
  141.5880   68.8500  228.1660 H   0  0  0  0  0  0  0  0  0  0  0  0
  141.8120   67.8300  226.8660 H   0  0  0  0  0  0  0  0  0  0  0  0
  141.1329   70.9679  226.7406 H   0  0  0  0  0  0  0  0  0  0  0  0
  141.6300   72.4381  224.8703 H   0  0  0  0  0  0  0  0  0  0  0  0
  141.8845   72.0811  221.8086 H   0  0  0  0  0  0  0  0  0  0  0  0
  139.0280   72.8929  221.6699 H   0  0  0  0  0  0  0  0  0  0  0  0
  139.0453   77.5939  223.4593 H   0  0  0  0  0  0  0  0  0  0  0  0
  139.8030   79.9394  223.0872 H   0  0  0  0  0  0  0  0  0  0  0  0
  142.6730   78.5101  220.1907 H   0  0  0  0  0  0  0  0  0  0  0  0
  141.4129   72.7567  219.8400 H   0  0  0  0  0  0  0  0  0  0  0  0
  142.5019   73.9368  218.9454 H   0  0  0  0  0  0  0  0  0  0  0  0
  142.9877   72.5249  221.4846 H   0  0  0  0  0  0  0  0  0  0  0  0
  144.6619   71.2599  220.5524 H   0  0  0  0  0  0  0  0  0  0  0  0
  143.1977   71.1629  219.4677 H   0  0  0  0  0  0  0  0  0  0  0  0
  145.2805   71.3163  218.1841 H   0  0  0  0  0  0  0  0  0  0  0  0
  144.2010   72.7395  217.9338 H   0  0  0  0  0  0  0  0  0  0  0  0
  146.0810   73.8760  218.3910 H   0  0  0  0  0  0  0  0  0  0  0  0
  146.0843   72.6351  221.0672 H   0  0  0  0  0  0  0  0  0  0  0  0
  146.5235   74.3435  220.5802 H   0  0  0  0  0  0  0  0  0  0  0  0
  144.4544   74.2166  221.9203 H   0  0  0  0  0  0  0  0  0  0  0  0
  144.2228   74.8987  220.2620 H   0  0  0  0  0  0  0  0  0  0  0  0
  139.4547   69.8734  222.2341 H   0  0  0  0  0  0  0  0  0  0  0  0
  138.9503   68.3832  224.1325 H   0  0  0  0  0  0  0  0  0  0  0  0
  1  2  1  0
  2  3  2  0
  2  4  2  0
  2  5  1  0
  5  6  2  0
  6  7  1  0
  7  8  2  0
  8  9  1  0
  9 10  2  0
 10 11  1  0
 11 12  2  0
 12 13  1  0
 13 14  2  0
 14 15  1  0
 15 16  2  0
 16 17  1  0
 16 18  1  0
 18 19  2  0
 19 20  1  0
 20 21  2  0
 20 22  1  0
 22 23  1  0
 23 24  1  0
 24 25  1  0
 25 26  1  0
 26 27  1  0
 27 28  1  0
 28 29  1  0
  8 30  1  0
 30 31  2  0
 31  5  1  0
 22 11  1  0
 29 24  1  0
 19 13  1  0
  1 32  1  0
  1 33  1  0
  6 34  1  0
  7 35  1  0
  9 36  1  0
 10 37  1  0
 14 38  1  0
 15 39  1  0
 18 40  1  0
 23 41  1  0
 23 42  1  0
 24 43  1  0
 25 44  1  0
 25 45  1  0
 26 46  1  0
 26 47  1  0
 27 48  1  0
 28 49  1  0
 28 50  1  0
 29 51  1  0
 29 52  1  0
 30 53  1  0
 31 54  1  0
M  END
>  <smiles>  (33) 
NS(=O)(=O)c1ccc(/C=C/c2nc3ccc(F)cc3c(=O)n2CC2CCNCC2)cc1

>  <score_type>  (33) 
oracle

>  <origin>  (33) 
autodockgpu

>  <m_score__min__energy>  (33) 
-10.24

>  <m_primary>  (33) 
energy

>  <rmsd>  (33) 
8.019584611418576

>  <m_score__min__rmsd>  (33) 
8.019584611418576

>  <meeko>  (33) 
{"free_energy": -9.02, "intermolecular_energy": -11.11, "internal_energy": -1.07, "cluster_size": 13, "cluster_id": 1, "rank_in_cluster": 12}

>  <energy>  (33) 
-8.43

>  <cluster_rmsd>  (33) 
1.85

>  <cluster>  (33) 
4

$$$$

     RDKit          3D

 54 57  0  0  0  0  0  0  0  0999 V2000
  145.3910   73.6980  217.5200 N   0  0  0  0  0  0  0  0  0  0  0  0
  145.5530   72.7880  218.9790 S   0  0  0  0  0  0  0  0  0  0  0  0
  146.6570   73.3820  219.7890 O   0  0  0  0  0  0  0  0  0  0  0  0
  145.9460   71.3600  218.6780 O   0  0  0  0  0  0  0  0  0  0  0  0
  144.0690   72.8340  219.9000 C   0  0  0  0  0  0  0  0  0  0  0  0
  143.4240   74.0280  220.0600 C   0  0  0  0  0  0  0  0  0  0  0  0
  142.2650   74.1080  220.7710 C   0  0  0  0  0  0  0  0  0  0  0  0
  141.6630   72.9970  221.3750 C   0  0  0  0  0  0  0  0  0  0  0  0
  140.4220   73.1270  222.1260 C   0  0  0  0  0  0  0  0  0  0  0  0
  139.5380   72.1660  222.2780 C   0  0  0  0  0  0  0  0  0  0  0  0
  139.6250   71.2780  223.4340 C   0  0  0  0  0  0  0  0  0  0  0  0
  140.2320   71.7590  224.5580 N   0  0  0  0  0  0  0  0  0  0  0  0
  140.3830   71.0620  225.6800 C   0  0  0  0  0  0  0  0  0  0  0  0
  141.0080   71.5980  226.7960 C   0  0  0  0  0  0  0  0  0  0  0  0
  141.1450   70.8440  227.9420 C   0  0  0  0  0  0  0  0  0  0  0  0
  140.6490   69.5640  227.9370 C   0  0  0  0  0  0  0  0  0  0  0  0
  140.8030   68.8460  229.0880 F   0  0  0  0  0  0  0  0  0  0  0  0
  140.0170   69.0120  226.8190 C   0  0  0  0  0  0  0  0  0  0  0  0
  139.8800   69.7610  225.6780 C   0  0  0  0  0  0  0  0  0  0  0  0
  139.2680   69.2860  224.5360 C   0  0  0  0  0  0  0  0  0  0  0  0
  138.8310   68.0880  224.6120 O   0  0  0  0  0  0  0  0  0  0  0  0
  139.1280   70.0130  223.4110 N   0  0  0  0  0  0  0  0  0  0  0  0
  138.5030   69.4990  222.2260 C   0  0  0  0  0  0  0  0  0  0  0  0
  137.0660   69.8660  222.0640 C   0  0  0  0  0  0  0  0  0  0  0  0
  136.1510   68.7920  221.6020 C   0  0  0  0  0  0  0  0  0  0  0  0
  135.7740   67.8190  222.6950 C   0  0  0  0  0  0  0  0  0  0  0  0
  135.1100   68.5180  223.7950 N   0  0  0  0  0  0  0  0  0  0  0  0
  135.1310   69.9400  223.6500 C   0  0  0  0  0  0  0  0  0  0  0  0
  136.4970   70.5030  223.3250 C   0  0  0  0  0  0  0  0  0  0  0  0
  142.3270   71.8020  221.2020 C   0  0  0  0  0  0  0  0  0  0  0  0
  143.5100   71.7120  220.4800 C   0  0  0  0  0  0  0  0  0  0  0  0
  145.2430   74.7010  217.7910 H   0  0  0  0  0  0  0  0  0  0  0  0
  144.4750   73.3920  217.1000 H   0  0  0  0  0  0  0  0  0  0  0  0
  143.8468   74.9375  219.6082 H   0  0  0  0  0  0  0  0  0  0  0  0
  141.7798   75.0897  220.8756 H   0  0  0  0  0  0  0  0  0  0  0  0
  140.2095   74.0971  222.5991 H   0  0  0  0  0  0  0  0  0  0  0  0
  138.7359   72.0313  221.5374 H   0  0  0  0  0  0  0  0  0  0  0  0
  141.3953   72.6271  226.7667 H   0  0  0  0  0  0  0  0  0  0  0  0
  141.6377   71.2563  228.8349 H   0  0  0  0  0  0  0  0  0  0  0  0
  139.6315   67.9823  226.8540 H   0  0  0  0  0  0  0  0  0  0  0  0
  139.0541   69.8832  221.3550 H   0  0  0  0  0  0  0  0  0  0  0  0
  138.5336   68.4028  222.3118 H   0  0  0  0  0  0  0  0  0  0  0  0
  137.1013   70.5929  221.2392 H   0  0  0  0  0  0  0  0  0  0  0  0
  135.2320   69.2577  221.2165 H   0  0  0  0  0  0  0  0  0  0  0  0
  136.6826   68.2215  220.8261 H   0  0  0  0  0  0  0  0  0  0  0  0
  135.0923   67.0595  222.2845 H   0  0  0  0  0  0  0  0  0  0  0  0
  136.6880   67.3407  223.0770 H   0  0  0  0  0  0  0  0  0  0  0  0
  135.3970   68.1560  224.7210 H   0  0  0  0  0  0  0  0  0  0  0  0
  134.4409   70.2156  222.8390 H   0  0  0  0  0  0  0  0  0  0  0  0
  134.8334   70.3643  224.6203 H   0  0  0  0  0  0  0  0  0  0  0  0
  136.4110   71.5889  223.1717 H   0  0  0  0  0  0  0  0  0  0  0  0
  137.1742   70.2837  224.1637 H   0  0  0  0  0  0  0  0  0  0  0  0
  141.9064   70.8898  221.6503 H   0  0  0  0  0  0  0  0  0  0  0  0
  144.0070   70.7370  220.3689 H   0  0  0  0  0  0  0  0  0  0  0  0
  1  2  1  0
  2  3  2  0
  2  4  2  0
  2  5  1  0
  5  6  2  0
  6  7  1  0
  7  8  2  0
  8  9  1  0
  9 10  2  0
 10 11  1  0
 11 12  2  0
 12 13  1  0
 13 14  2  0
 14 15  1  0
 15 16  2  0
 16 17  1  0
 16 18  1  0
 18 19  2  0
 19 20  1  0
 20 21  2  0
 20 22  1  0
 22 23  1  0
 23 24  1  0
 24 25  1  0
 25 26  1  0
 26 27  1  0
 27 28  1  0
 28 29  1  0
  8 30  1  0
 30 31  2  0
 31  5  1  0
 22 11  1  0
 29 24  1  0
 19 13  1  0
  1 32  1  0
  1 33  1  0
  6 34  1  0
  7 35  1  0
  9 36  1  0
 10 37  1  0
 14 38  1  0
 15 39  1  0
 18 40  1  0
 23 41  1  0
 23 42  1  0
 24 43  1  0
 25 44  1  0
 25 45  1  0
 26 46  1  0
 26 47  1  0
 27 48  1  0
 28 49  1  0
 28 50  1  0
 29 51  1  0
 29 52  1  0
 30 53  1  0
 31 54  1  0
M  END
>  <smiles>  (34) 
NS(=O)(=O)c1ccc(/C=C/c2nc3ccc(F)cc3c(=O)n2CC2CCNCC2)cc1

>  <score_type>  (34) 
oracle

>  <origin>  (34) 
autodockgpu

>  <m_score__min__energy>  (34) 
-10.24

>  <m_primary>  (34) 
energy

>  <rmsd>  (34) 
11.478344462416484

>  <m_score__min__rmsd>  (34) 
11.478344462416484

>  <meeko>  (34) 
{"free_energy": -8.47, "intermolecular_energy": -10.56, "internal_energy": -1.44, "cluster_size": 12, "cluster_id": 2, "rank_in_cluster": 10}

>  <energy>  (34) 
-8.41

>  <cluster_rmsd>  (34) 
1.86

>  <cluster>  (34) 
4

$$$$

     RDKit          3D

 54 57  0  0  0  0  0  0  0  0999 V2000
  142.2200   78.3350  221.0480 N   0  0  0  0  0  0  0  0  0  0  0  0
  141.0190   77.8600  222.1960 S   0  0  0  0  0  0  0  0  0  0  0  0
  139.8020   78.6980  221.9830 O   0  0  0  0  0  0  0  0  0  0  0  0
  141.4940   78.1230  223.6070 O   0  0  0  0  0  0  0  0  0  0  0  0
  140.6060   76.1750  221.9920 C   0  0  0  0  0  0  0  0  0  0  0  0
  139.3380   75.7630  222.2900 C   0  0  0  0  0  0  0  0  0  0  0  0
  138.9750   74.4580  222.1470 C   0  0  0  0  0  0  0  0  0  0  0  0
  139.8550   73.4660  221.6930 C   0  0  0  0  0  0  0  0  0  0  0  0
  139.4240   72.0820  221.5530 C   0  0  0  0  0  0  0  0  0  0  0  0
  138.5290   71.4990  222.3180 C   0  0  0  0  0  0  0  0  0  0  0  0
  138.9530   70.8100  223.5340 C   0  0  0  0  0  0  0  0  0  0  0  0
  139.7030   71.5140  224.4310 N   0  0  0  0  0  0  0  0  0  0  0  0
  140.1580   71.0140  225.5760 C   0  0  0  0  0  0  0  0  0  0  0  0
  140.9170   71.7720  226.4550 C   0  0  0  0  0  0  0  0  0  0  0  0
  141.3710   71.2200  227.6330 C   0  0  0  0  0  0  0  0  0  0  0  0
  141.0500   69.9120  227.8990 C   0  0  0  0  0  0  0  0  0  0  0  0
  141.5160   69.3970  229.0740 F   0  0  0  0  0  0  0  0  0  0  0  0
  140.2860   69.1370  227.0220 C   0  0  0  0  0  0  0  0  0  0  0  0
  139.8330   69.6860  225.8500 C   0  0  0  0  0  0  0  0  0  0  0  0
  139.0750   68.9850  224.9350 C   0  0  0  0  0  0  0  0  0  0  0  0
  138.8160   67.7750  225.2560 O   0  0  0  0  0  0  0  0  0  0  0  0
  138.6260   69.5150  223.7810 N   0  0  0  0  0  0  0  0  0  0  0  0
  137.8500   68.7680  222.8320 C   0  0  0  0  0  0  0  0  0  0  0  0
  136.4150   69.1640  222.7420 C   0  0  0  0  0  0  0  0  0  0  0  0
  135.6030   68.4990  221.6920 C   0  0  0  0  0  0  0  0  0  0  0  0
  135.1860   67.0940  222.0620 C   0  0  0  0  0  0  0  0  0  0  0  0
  134.3920   67.1030  223.2910 N   0  0  0  0  0  0  0  0  0  0  0  0
  134.3480   68.3860  223.9210 C   0  0  0  0  0  0  0  0  0  0  0  0
  135.7050   69.0360  224.0840 C   0  0  0  0  0  0  0  0  0  0  0  0
  141.1280   73.9020  221.3980 C   0  0  0  0  0  0  0  0  0  0  0  0
  141.5070   75.2300  221.5420 C   0  0  0  0  0  0  0  0  0  0  0  0
  142.8380   77.5040  220.8800 H   0  0  0  0  0  0  0  0  0  0  0  0
  142.8300   79.0300  221.5530 H   0  0  0  0  0  0  0  0  0  0  0  0
  138.6002   76.4950  222.6503 H   0  0  0  0  0  0  0  0  0  0  0  0
  137.9440   74.1694  222.3994 H   0  0  0  0  0  0  0  0  0  0  0  0
  139.8796   71.4829  220.7508 H   0  0  0  0  0  0  0  0  0  0  0  0
  137.4642   71.5297  222.0437 H   0  0  0  0  0  0  0  0  0  0  0  0
  141.1574   72.8173  226.2110 H   0  0  0  0  0  0  0  0  0  0  0  0
  141.9730   71.8101  228.3396 H   0  0  0  0  0  0  0  0  0  0  0  0
  140.0493   68.0920  227.2707 H   0  0  0  0  0  0  0  0  0  0  0  0
  138.3040   68.9016  221.8390 H   0  0  0  0  0  0  0  0  0  0  0  0
  137.8602   67.7243  223.1793 H   0  0  0  0  0  0  0  0  0  0  0  0
  136.4820   70.2176  222.4330 H   0  0  0  0  0  0  0  0  0  0  0  0
  134.6970   69.0983  221.5188 H   0  0  0  0  0  0  0  0  0  0  0  0
  136.2297   68.4272  220.7908 H   0  0  0  0  0  0  0  0  0  0  0  0
  134.5847   66.6678  221.2454 H   0  0  0  0  0  0  0  0  0  0  0  0
  136.0881   66.4861  222.2252 H   0  0  0  0  0  0  0  0  0  0  0  0
  134.6170   66.3050  223.9100 H   0  0  0  0  0  0  0  0  0  0  0  0
  133.7170   69.0497  223.3115 H   0  0  0  0  0  0  0  0  0  0  0  0
  133.9445   68.2313  224.9326 H   0  0  0  0  0  0  0  0  0  0  0  0
  135.5738   70.0381  224.5184 H   0  0  0  0  0  0  0  0  0  0  0  0
  136.3177   68.4059  224.7455 H   0  0  0  0  0  0  0  0  0  0  0  0
  141.8689   73.1738  221.0363 H   0  0  0  0  0  0  0  0  0  0  0  0
  142.5354   75.5325  221.2952 H   0  0  0  0  0  0  0  0  0  0  0  0
  1  2  1  0
  2  3  2  0
  2  4  2  0
  2  5  1  0
  5  6  2  0
  6  7  1  0
  7  8  2  0
  8  9  1  0
  9 10  2  0
 10 11  1  0
 11 12  2  0
 12 13  1  0
 13 14  2  0
 14 15  1  0
 15 16  2  0
 16 17  1  0
 16 18  1  0
 18 19  2  0
 19 20  1  0
 20 21  2  0
 20 22  1  0
 22 23  1  0
 23 24  1  0
 24 25  1  0
 25 26  1  0
 26 27  1  0
 27 28  1  0
 28 29  1  0
  8 30  1  0
 30 31  2  0
 31  5  1  0
 22 11  1  0
 29 24  1  0
 19 13  1  0
  1 32  1  0
  1 33  1  0
  6 34  1  0
  7 35  1  0
  9 36  1  0
 10 37  1  0
 14 38  1  0
 15 39  1  0
 18 40  1  0
 23 41  1  0
 23 42  1  0
 24 43  1  0
 25 44  1  0
 25 45  1  0
 26 46  1  0
 26 47  1  0
 27 48  1  0
 28 49  1  0
 28 50  1  0
 29 51  1  0
 29 52  1  0
 30 53  1  0
 31 54  1  0
M  END
>  <smiles>  (35) 
NS(=O)(=O)c1ccc(/C=C/c2nc3ccc(F)cc3c(=O)n2CC2CCNCC2)cc1

>  <score_type>  (35) 
oracle

>  <origin>  (35) 
autodockgpu

>  <m_score__min__energy>  (35) 
-10.24

>  <m_primary>  (35) 
energy

>  <rmsd>  (35) 
12.144847992873254

>  <m_score__min__rmsd>  (35) 
12.144847992873254

>  <meeko>  (35) 
{"free_energy": -8.48, "intermolecular_energy": -10.57, "internal_energy": -1.28, "cluster_size": 10, "cluster_id": 4, "rank_in_cluster": 1}

>  <energy>  (35) 
-8.4

>  <cluster_rmsd>  (35) 
1.84

>  <cluster>  (35) 
4

$$$$

     RDKit          3D

 54 57  0  0  0  0  0  0  0  0999 V2000
  142.5790   79.2510  222.3360 N   0  0  0  0  0  0  0  0  0  0  0  0
  140.8990   78.9990  222.0200 S   0  0  0  0  0  0  0  0  0  0  0  0
  140.5700   79.6000  220.6940 O   0  0  0  0  0  0  0  0  0  0  0  0
  140.0490   79.7100  223.0490 O   0  0  0  0  0  0  0  0  0  0  0  0
  140.5280   77.2920  221.9910 C   0  0  0  0  0  0  0  0  0  0  0  0
  139.2880   76.8770  222.3860 C   0  0  0  0  0  0  0  0  0  0  0  0
  138.9570   75.5560  222.3790 C   0  0  0  0  0  0  0  0  0  0  0  0
  139.8450   74.5490  221.9770 C   0  0  0  0  0  0  0  0  0  0  0  0
  139.4500   73.1470  221.9850 C   0  0  0  0  0  0  0  0  0  0  0  0
  140.2760   72.1410  222.1650 C   0  0  0  0  0  0  0  0  0  0  0  0
  140.1240   71.2780  223.3320 C   0  0  0  0  0  0  0  0  0  0  0  0
  140.6740   71.6990  224.5080 N   0  0  0  0  0  0  0  0  0  0  0  0
  140.6150   71.0150  225.6450 C   0  0  0  0  0  0  0  0  0  0  0  0
  141.1910   71.4880  226.8150 C   0  0  0  0  0  0  0  0  0  0  0  0
  141.1090   70.7500  227.9770 C   0  0  0  0  0  0  0  0  0  0  0  0
  140.4460   69.5490  227.9330 C   0  0  0  0  0  0  0  0  0  0  0  0
  140.3840   68.8440  229.1000 F   0  0  0  0  0  0  0  0  0  0  0  0
  139.8610   69.0600  226.7610 C   0  0  0  0  0  0  0  0  0  0  0  0
  139.9420   69.7930  225.6050 C   0  0  0  0  0  0  0  0  0  0  0  0
  139.3900   69.3790  224.4110 C   0  0  0  0  0  0  0  0  0  0  0  0
  138.7890   68.2520  224.4530 O   0  0  0  0  0  0  0  0  0  0  0  0
  139.4650   70.0910  223.2700 N   0  0  0  0  0  0  0  0  0  0  0  0
  138.8980   69.6380  222.0320 C   0  0  0  0  0  0  0  0  0  0  0  0
  137.4460   69.9350  221.8580 C   0  0  0  0  0  0  0  0  0  0  0  0
  136.5980   69.8550  223.0740 C   0  0  0  0  0  0  0  0  0  0  0  0
  136.7320   71.0600  223.9750 C   0  0  0  0  0  0  0  0  0  0  0  0
  136.3570   72.2790  223.2580 N   0  0  0  0  0  0  0  0  0  0  0  0
  136.1240   72.0610  221.8640 C   0  0  0  0  0  0  0  0  0  0  0  0
  137.2210   71.2780  221.1750 C   0  0  0  0  0  0  0  0  0  0  0  0
  141.0900   74.9880  221.5830 C   0  0  0  0  0  0  0  0  0  0  0  0
  141.4360   76.3330  221.5870 C   0  0  0  0  0  0  0  0  0  0  0  0
  143.0210   79.5750  221.4420 H   0  0  0  0  0  0  0  0  0  0  0  0
  142.9780   78.2910  222.5050 H   0  0  0  0  0  0  0  0  0  0  0  0
  138.5464   77.6202  222.7143 H   0  0  0  0  0  0  0  0  0  0  0  0
  137.9467   75.2662  222.7036 H   0  0  0  0  0  0  0  0  0  0  0  0
  138.3862   72.9142  221.8295 H   0  0  0  0  0  0  0  0  0  0  0  0
  141.0794   71.9500  221.4384 H   0  0  0  0  0  0  0  0  0  0  0  0
  141.7150   72.4552  226.8158 H   0  0  0  0  0  0  0  0  0  0  0  0
  141.5615   71.1131  228.9115 H   0  0  0  0  0  0  0  0  0  0  0  0
  139.3384   68.0921  226.7663 H   0  0  0  0  0  0  0  0  0  0  0  0
  139.4460   70.1200  221.2090 H   0  0  0  0  0  0  0  0  0  0  0  0
  138.9897   68.5418  222.0344 H   0  0  0  0  0  0  0  0  0  0  0  0
  137.1112   69.1069  221.2161 H   0  0  0  0  0  0  0  0  0  0  0  0
  135.5469   69.7675  222.7617 H   0  0  0  0  0  0  0  0  0  0  0  0
  136.9335   68.9791  223.6486 H   0  0  0  0  0  0  0  0  0  0  0  0
  136.0730   70.9354  224.8469 H   0  0  0  0  0  0  0  0  0  0  0  0
  137.7790   71.1463  224.3010 H   0  0  0  0  0  0  0  0  0  0  0  0
  136.9720   73.0780  223.4920 H   0  0  0  0  0  0  0  0  0  0  0  0
  135.1804   71.5067  221.7529 H   0  0  0  0  0  0  0  0  0  0  0  0
  136.0900   73.0515  221.3867 H   0  0  0  0  0  0  0  0  0  0  0  0
  136.9353   71.1050  220.1269 H   0  0  0  0  0  0  0  0  0  0  0  0
  138.1533   71.8592  221.2299 H   0  0  0  0  0  0  0  0  0  0  0  0
  141.8349   74.2484  221.2542 H   0  0  0  0  0  0  0  0  0  0  0  0
  142.4429   76.6374  221.2653 H   0  0  0  0  0  0  0  0  0  0  0  0
  1  2  1  0
  2  3  2  0
  2  4  2  0
  2  5  1  0
  5  6  2  0
  6  7  1  0
  7  8  2  0
  8  9  1  0
  9 10  2  0
 10 11  1  0
 11 12  2  0
 12 13  1  0
 13 14  2  0
 14 15  1  0
 15 16  2  0
 16 17  1  0
 16 18  1  0
 18 19  2  0
 19 20  1  0
 20 21  2  0
 20 22  1  0
 22 23  1  0
 23 24  1  0
 24 25  1  0
 25 26  1  0
 26 27  1  0
 27 28  1  0
 28 29  1  0
  8 30  1  0
 30 31  2  0
 31  5  1  0
 22 11  1  0
 29 24  1  0
 19 13  1  0
  1 32  1  0
  1 33  1  0
  6 34  1  0
  7 35  1  0
  9 36  1  0
 10 37  1  0
 14 38  1  0
 15 39  1  0
 18 40  1  0
 23 41  1  0
 23 42  1  0
 24 43  1  0
 25 44  1  0
 25 45  1  0
 26 46  1  0
 26 47  1  0
 27 48  1  0
 28 49  1  0
 28 50  1  0
 29 51  1  0
 29 52  1  0
 30 53  1  0
 31 54  1  0
M  END
>  <smiles>  (36) 
NS(=O)(=O)c1ccc(/C=C/c2nc3ccc(F)cc3c(=O)n2CC2CCNCC2)cc1

>  <score_type>  (36) 
oracle

>  <origin>  (36) 
autodockgpu

>  <m_score__min__energy>  (36) 
-10.24

>  <m_primary>  (36) 
energy

>  <rmsd>  (36) 
10.577117384651265

>  <m_score__min__rmsd>  (36) 
10.577117384651265

>  <meeko>  (36) 
{"free_energy": -8.39, "intermolecular_energy": -10.48, "internal_energy": -1.54, "cluster_size": 10, "cluster_id": 4, "rank_in_cluster": 5}

>  <energy>  (36) 
-8.39

>  <cluster_rmsd>  (36) 
1.81

>  <cluster>  (36) 
4

$$$$

     RDKit          3D

 54 57  0  0  0  0  0  0  0  0999 V2000
  141.3300   67.7090  227.0920 N   0  0  0  0  0  0  0  0  0  0  0  0
  139.7420   68.3390  226.8390 S   0  0  0  0  0  0  0  0  0  0  0  0
  139.2540   68.9260  228.1210 O   0  0  0  0  0  0  0  0  0  0  0  0
  138.7810   67.2320  226.4670 O   0  0  0  0  0  0  0  0  0  0  0  0
  139.7600   69.5750  225.6050 C   0  0  0  0  0  0  0  0  0  0  0  0
  138.8360   69.5230  224.6000 C   0  0  0  0  0  0  0  0  0  0  0  0
  138.8160   70.4660  223.6180 C   0  0  0  0  0  0  0  0  0  0  0  0
  139.7200   71.5350  223.5680 C   0  0  0  0  0  0  0  0  0  0  0  0
  139.6630   72.5230  222.4990 C   0  0  0  0  0  0  0  0  0  0  0  0
  140.6510   72.7880  221.6760 C   0  0  0  0  0  0  0  0  0  0  0  0
  140.9850   74.1750  221.3670 C   0  0  0  0  0  0  0  0  0  0  0  0
  140.3780   75.1520  222.1020 N   0  0  0  0  0  0  0  0  0  0  0  0
  140.5850   76.4530  221.9290 C   0  0  0  0  0  0  0  0  0  0  0  0
  139.9420   77.4060  222.7040 C   0  0  0  0  0  0  0  0  0  0  0  0
  140.1830   78.7480  222.4950 C   0  0  0  0  0  0  0  0  0  0  0  0
  141.0680   79.0980  221.5060 C   0  0  0  0  0  0  0  0  0  0  0  0
  141.2820   80.4350  221.3260 F   0  0  0  0  0  0  0  0  0  0  0  0
  141.7220   78.1480  220.7170 C   0  0  0  0  0  0  0  0  0  0  0  0
  141.4840   76.8140  220.9240 C   0  0  0  0  0  0  0  0  0  0  0  0
  142.0910   75.8170  220.1880 C   0  0  0  0  0  0  0  0  0  0  0  0
  142.9030   76.2250  219.2890 O   0  0  0  0  0  0  0  0  0  0  0  0
  141.8640   74.5050  220.3830 N   0  0  0  0  0  0  0  0  0  0  0  0
  142.4920   73.4810  219.5980 C   0  0  0  0  0  0  0  0  0  0  0  0
  143.6310   72.7860  220.2650 C   0  0  0  0  0  0  0  0  0  0  0  0
  144.3640   71.7790  219.4590 C   0  0  0  0  0  0  0  0  0  0  0  0
  145.3260   72.3930  218.4680 C   0  0  0  0  0  0  0  0  0  0  0  0
  146.3230   73.2090  219.1620 N   0  0  0  0  0  0  0  0  0  0  0  0
  146.0500   73.3620  220.5570 C   0  0  0  0  0  0  0  0  0  0  0  0
  144.6260   73.7740  220.8620 C   0  0  0  0  0  0  0  0  0  0  0  0
  140.6440   71.5700  224.5890 C   0  0  0  0  0  0  0  0  0  0  0  0
  140.6720   70.6130  225.5940 C   0  0  0  0  0  0  0  0  0  0  0  0
  141.7030   67.4140  226.1560 H   0  0  0  0  0  0  0  0  0  0  0  0
  141.1930   66.8110  227.6250 H   0  0  0  0  0  0  0  0  0  0  0  0
  138.0977   68.7077  224.5839 H   0  0  0  0  0  0  0  0  0  0  0  0
  138.0552   70.3847  222.8277 H   0  0  0  0  0  0  0  0  0  0  0  0
  138.7267   73.0864  222.3725 H   0  0  0  0  0  0  0  0  0  0  0  0
  141.2252   71.9676  221.2208 H   0  0  0  0  0  0  0  0  0  0  0  0
  139.2375   77.0910  223.4879 H   0  0  0  0  0  0  0  0  0  0  0  0
  139.6808   79.5149  223.1029 H   0  0  0  0  0  0  0  0  0  0  0  0
  142.4243   78.4691  219.9337 H   0  0  0  0  0  0  0  0  0  0  0  0
  141.7309   72.7270  219.3485 H   0  0  0  0  0  0  0  0  0  0  0  0
  142.9130   73.9845  218.7153 H   0  0  0  0  0  0  0  0  0  0  0  0
  143.1251   72.2115  221.0549 H   0  0  0  0  0  0  0  0  0  0  0  0
  144.9326   71.1313  220.1424 H   0  0  0  0  0  0  0  0  0  0  0  0
  143.6159   71.2161  218.8815 H   0  0  0  0  0  0  0  0  0  0  0  0
  145.8361   71.5913  217.9139 H   0  0  0  0  0  0  0  0  0  0  0  0
  144.7621   73.0333  217.7737 H   0  0  0  0  0  0  0  0  0  0  0  0
  146.5440   74.0810  218.6490 H   0  0  0  0  0  0  0  0  0  0  0  0
  146.2470   72.4016  221.0558 H   0  0  0  0  0  0  0  0  0  0  0  0
  146.7012   74.1695  220.9229 H   0  0  0  0  0  0  0  0  0  0  0  0
  144.4876   73.8090  221.9527 H   0  0  0  0  0  0  0  0  0  0  0  0
  144.4453   74.7642  220.4182 H   0  0  0  0  0  0  0  0  0  0  0  0
  141.3843   72.3834  224.6085 H   0  0  0  0  0  0  0  0  0  0  0  0
  141.4281   70.6816  226.3900 H   0  0  0  0  0  0  0  0  0  0  0  0
  1  2  1  0
  2  3  2  0
  2  4  2  0
  2  5  1  0
  5  6  2  0
  6  7  1  0
  7  8  2  0
  8  9  1  0
  9 10  2  0
 10 11  1  0
 11 12  2  0
 12 13  1  0
 13 14  2  0
 14 15  1  0
 15 16  2  0
 16 17  1  0
 16 18  1  0
 18 19  2  0
 19 20  1  0
 20 21  2  0
 20 22  1  0
 22 23  1  0
 23 24  1  0
 24 25  1  0
 25 26  1  0
 26 27  1  0
 27 28  1  0
 28 29  1  0
  8 30  1  0
 30 31  2  0
 31  5  1  0
 22 11  1  0
 29 24  1  0
 19 13  1  0
  1 32  1  0
  1 33  1  0
  6 34  1  0
  7 35  1  0
  9 36  1  0
 10 37  1  0
 14 38  1  0
 15 39  1  0
 18 40  1  0
 23 41  1  0
 23 42  1  0
 24 43  1  0
 25 44  1  0
 25 45  1  0
 26 46  1  0
 26 47  1  0
 27 48  1  0
 28 49  1  0
 28 50  1  0
 29 51  1  0
 29 52  1  0
 30 53  1  0
 31 54  1  0
M  END
>  <smiles>  (37) 
NS(=O)(=O)c1ccc(/C=C/c2nc3ccc(F)cc3c(=O)n2CC2CCNCC2)cc1

>  <score_type>  (37) 
oracle

>  <origin>  (37) 
autodockgpu

>  <m_score__min__energy>  (37) 
-10.24

>  <m_primary>  (37) 
energy

>  <rmsd>  (37) 
8.151251385479716

>  <m_score__min__rmsd>  (37) 
8.151251385479716

>  <meeko>  (37) 
{"free_energy": -10.01, "intermolecular_energy": -12.1, "internal_energy": -1.19, "cluster_size": 13, "cluster_id": 1, "rank_in_cluster": 4}

>  <energy>  (37) 
-8.36

>  <cluster_rmsd>  (37) 
1.87

>  <cluster>  (37) 
4

$$$$

     RDKit          3D

 54 57  0  0  0  0  0  0  0  0999 V2000
  140.0020   68.3390  228.4030 N   0  0  0  0  0  0  0  0  0  0  0  0
  140.1040   67.8670  226.7450 S   0  0  0  0  0  0  0  0  0  0  0  0
  138.9320   67.0030  226.4230 O   0  0  0  0  0  0  0  0  0  0  0  0
  141.3450   67.0380  226.5000 O   0  0  0  0  0  0  0  0  0  0  0  0
  140.0920   69.2710  225.7050 C   0  0  0  0  0  0  0  0  0  0  0  0
  139.4130   69.2130  224.5200 C   0  0  0  0  0  0  0  0  0  0  0  0
  139.3790   70.2840  223.6800 C   0  0  0  0  0  0  0  0  0  0  0  0
  140.0220   71.4960  223.9620 C   0  0  0  0  0  0  0  0  0  0  0  0
  139.9590   72.6180  223.0350 C   0  0  0  0  0  0  0  0  0  0  0  0
  140.5320   72.6410  221.8530 C   0  0  0  0  0  0  0  0  0  0  0  0
  141.0320   73.9020  221.3150 C   0  0  0  0  0  0  0  0  0  0  0  0
  140.5860   75.0580  221.8890 N   0  0  0  0  0  0  0  0  0  0  0  0
  140.9540   76.2740  221.5000 C   0  0  0  0  0  0  0  0  0  0  0  0
  140.4710   77.4180  222.1180 C   0  0  0  0  0  0  0  0  0  0  0  0
  140.8760   78.6630  221.6870 C   0  0  0  0  0  0  0  0  0  0  0  0
  141.7600   78.7270  220.6390 C   0  0  0  0  0  0  0  0  0  0  0  0
  142.1400   79.9760  220.2380 F   0  0  0  0  0  0  0  0  0  0  0  0
  142.2540   77.5820  220.0070 C   0  0  0  0  0  0  0  0  0  0  0  0
  141.8530   76.3430  220.4350 C   0  0  0  0  0  0  0  0  0  0  0  0
  142.2960   75.1690  219.8630 C   0  0  0  0  0  0  0  0  0  0  0  0
  143.1190   75.3130  218.8960 O   0  0  0  0  0  0  0  0  0  0  0  0
  141.9070   73.9480  220.2760 N   0  0  0  0  0  0  0  0  0  0  0  0
  142.3670   72.7360  219.6600 C   0  0  0  0  0  0  0  0  0  0  0  0
  143.6300   72.1820  220.2260 C   0  0  0  0  0  0  0  0  0  0  0  0
  144.4510   71.3350  219.3250 C   0  0  0  0  0  0  0  0  0  0  0  0
  145.2560   72.1330  218.3250 C   0  0  0  0  0  0  0  0  0  0  0  0
  146.1650   73.0490  219.0150 N   0  0  0  0  0  0  0  0  0  0  0  0
  145.9550   73.0880  220.4290 C   0  0  0  0  0  0  0  0  0  0  0  0
  144.5070   73.2720  220.8290 C   0  0  0  0  0  0  0  0  0  0  0  0
  140.7000   71.5360  225.1610 C   0  0  0  0  0  0  0  0  0  0  0  0
  140.7410   70.4480  226.0230 C   0  0  0  0  0  0  0  0  0  0  0  0
  140.9210   68.7700  228.6640 H   0  0  0  0  0  0  0  0  0  0  0  0
  139.9590   67.4390  228.9480 H   0  0  0  0  0  0  0  0  0  0  0  0
  138.8867   68.2882  224.2412 H   0  0  0  0  0  0  0  0  0  0  0  0
  138.8209   70.1933  222.7365 H   0  0  0  0  0  0  0  0  0  0  0  0
  139.3922   73.5078  223.3464 H   0  0  0  0  0  0  0  0  0  0  0  0
  140.6345   71.7132  221.2710 H   0  0  0  0  0  0  0  0  0  0  0  0
  139.7624   77.3314  222.9549 H   0  0  0  0  0  0  0  0  0  0  0  0
  140.5018   79.5784  222.1688 H   0  0  0  0  0  0  0  0  0  0  0  0
  142.9615   77.6749  219.1698 H   0  0  0  0  0  0  0  0  0  0  0  0
  141.5801   71.9758  219.7729 H   0  0  0  0  0  0  0  0  0  0  0  0
  142.5841   72.9872  218.6113 H   0  0  0  0  0  0  0  0  0  0  0  0
  143.2585   71.5006  221.0055 H   0  0  0  0  0  0  0  0  0  0  0  0
  145.1452   70.7425  219.9390 H   0  0  0  0  0  0  0  0  0  0  0  0
  143.7583   70.6997  218.7535 H   0  0  0  0  0  0  0  0  0  0  0  0
  145.8422   71.4438  217.6994 H   0  0  0  0  0  0  0  0  0  0  0  0
  144.5668   72.7190  217.6992 H   0  0  0  0  0  0  0  0  0  0  0  0
  146.2280   73.9680  218.5440 H   0  0  0  0  0  0  0  0  0  0  0  0
  146.3156   72.1419  220.8589 H   0  0  0  0  0  0  0  0  0  0  0  0
  146.5049   73.9614  220.8095 H   0  0  0  0  0  0  0  0  0  0  0  0
  144.4289   73.2307  221.9254 H   0  0  0  0  0  0  0  0  0  0  0  0
  144.1615   74.2466  220.4538 H   0  0  0  0  0  0  0  0  0  0  0  0
  141.2258   72.4597  225.4445 H   0  0  0  0  0  0  0  0  0  0  0  0
  141.2964   70.5244  226.9694 H   0  0  0  0  0  0  0  0  0  0  0  0
  1  2  1  0
  2  3  2  0
  2  4  2  0
  2  5  1  0
  5  6  2  0
  6  7  1  0
  7  8  2  0
  8  9  1  0
  9 10  2  0
 10 11  1  0
 11 12  2  0
 12 13  1  0
 13 14  2  0
 14 15  1  0
 15 16  2  0
 16 17  1  0
 16 18  1  0
 18 19  2  0
 19 20  1  0
 20 21  2  0
 20 22  1  0
 22 23  1  0
 23 24  1  0
 24 25  1  0
 25 26  1  0
 26 27  1  0
 27 28  1  0
 28 29  1  0
  8 30  1  0
 30 31  2  0
 31  5  1  0
 22 11  1  0
 29 24  1  0
 19 13  1  0
  1 32  1  0
  1 33  1  0
  6 34  1  0
  7 35  1  0
  9 36  1  0
 10 37  1  0
 14 38  1  0
 15 39  1  0
 18 40  1  0
 23 41  1  0
 23 42  1  0
 24 43  1  0
 25 44  1  0
 25 45  1  0
 26 46  1  0
 26 47  1  0
 27 48  1  0
 28 49  1  0
 28 50  1  0
 29 51  1  0
 29 52  1  0
 30 53  1  0
 31 54  1  0
M  END
>  <smiles>  (38) 
NS(=O)(=O)c1ccc(/C=C/c2nc3ccc(F)cc3c(=O)n2CC2CCNCC2)cc1

>  <score_type>  (38) 
oracle

>  <origin>  (38) 
autodockgpu

>  <m_score__min__energy>  (38) 
-10.24

>  <m_primary>  (38) 
energy

>  <rmsd>  (38) 
8.341857017592929

>  <m_score__min__rmsd>  (38) 
8.341857017592929

>  <meeko>  (38) 
{"free_energy": -9.44, "intermolecular_energy": -11.53, "internal_energy": -1.24, "cluster_size": 13, "cluster_id": 1, "rank_in_cluster": 11}

>  <energy>  (38) 
-8.33

>  <cluster_rmsd>  (38) 
1.91

>  <cluster>  (38) 
4

$$$$

     RDKit          3D

 54 57  0  0  0  0  0  0  0  0999 V2000
  141.3470   67.6130  227.0460 N   0  0  0  0  0  0  0  0  0  0  0  0
  139.7570   68.2500  226.8230 S   0  0  0  0  0  0  0  0  0  0  0  0
  139.2840   68.8130  228.1210 O   0  0  0  0  0  0  0  0  0  0  0  0
  138.7900   67.1530  226.4390 O   0  0  0  0  0  0  0  0  0  0  0  0
  139.7640   69.5110  225.6130 C   0  0  0  0  0  0  0  0  0  0  0  0
  138.8170   69.4900  224.6290 C   0  0  0  0  0  0  0  0  0  0  0  0
  138.7870   70.4530  223.6660 C   0  0  0  0  0  0  0  0  0  0  0  0
  139.7050   71.5110  223.6160 C   0  0  0  0  0  0  0  0  0  0  0  0
  139.6360   72.5200  222.5680 C   0  0  0  0  0  0  0  0  0  0  0  0
  140.6400   72.8550  221.7890 C   0  0  0  0  0  0  0  0  0  0  0  0
  140.8840   74.2610  221.4840 C   0  0  0  0  0  0  0  0  0  0  0  0
  140.1570   75.1930  222.1680 N   0  0  0  0  0  0  0  0  0  0  0  0
  140.2730   76.5050  221.9910 C   0  0  0  0  0  0  0  0  0  0  0  0
  139.5100   77.4100  222.7120 C   0  0  0  0  0  0  0  0  0  0  0  0
  139.6580   78.7650  222.5020 C   0  0  0  0  0  0  0  0  0  0  0  0
  140.5740   79.1760  221.5660 C   0  0  0  0  0  0  0  0  0  0  0  0
  140.6940   80.5240  221.3820 F   0  0  0  0  0  0  0  0  0  0  0  0
  141.3490   78.2740  220.8320 C   0  0  0  0  0  0  0  0  0  0  0  0
  141.2020   76.9270  221.0400 C   0  0  0  0  0  0  0  0  0  0  0  0
  141.9310   75.9760  220.3560 C   0  0  0  0  0  0  0  0  0  0  0  0
  142.7640   76.4390  219.5040 O   0  0  0  0  0  0  0  0  0  0  0  0
  141.7940   74.6510  220.5540 N   0  0  0  0  0  0  0  0  0  0  0  0
  142.5490   73.6730  219.8220 C   0  0  0  0  0  0  0  0  0  0  0  0
  143.7310   73.1210  220.5460 C   0  0  0  0  0  0  0  0  0  0  0  0
  144.3630   71.9100  219.9650 C   0  0  0  0  0  0  0  0  0  0  0  0
  145.2410   72.2090  218.7720 C   0  0  0  0  0  0  0  0  0  0  0  0
  146.3160   73.1290  219.1460 N   0  0  0  0  0  0  0  0  0  0  0  0
  146.1780   73.6420  220.4730 C   0  0  0  0  0  0  0  0  0  0  0  0
  144.7980   74.1810  220.7820 C   0  0  0  0  0  0  0  0  0  0  0  0
  140.6510   71.5140  224.6170 C   0  0  0  0  0  0  0  0  0  0  0  0
  140.6890   70.5360  225.6020 C   0  0  0  0  0  0  0  0  0  0  0  0
  141.7280   67.3820  226.0970 H   0  0  0  0  0  0  0  0  0  0  0  0
  141.2110   66.6820  227.5190 H   0  0  0  0  0  0  0  0  0  0  0  0
  138.0682   68.6843  224.6139 H   0  0  0  0  0  0  0  0  0  0  0  0
  138.0069   70.3978  222.8925 H   0  0  0  0  0  0  0  0  0  0  0  0
  138.6770   73.0376  222.4181 H   0  0  0  0  0  0  0  0  0  0  0  0
  141.2946   72.0777  221.3680 H   0  0  0  0  0  0  0  0  0  0  0  0
  138.7840   77.0463  223.4541 H   0  0  0  0  0  0  0  0  0  0  0  0
  139.0599   79.4946  223.0677 H   0  0  0  0  0  0  0  0  0  0  0  0
  142.0734   78.6430  220.0910 H   0  0  0  0  0  0  0  0  0  0  0  0
  141.8777   72.8369  219.5764 H   0  0  0  0  0  0  0  0  0  0  0  0
  142.9442   74.1893  218.9347 H   0  0  0  0  0  0  0  0  0  0  0  0
  143.2899   72.7906  221.4980 H   0  0  0  0  0  0  0  0  0  0  0  0
  144.9787   71.4311  220.7406 H   0  0  0  0  0  0  0  0  0  0  0  0
  143.5517   71.2539  219.6167 H   0  0  0  0  0  0  0  0  0  0  0  0
  145.6797   71.2710  218.4010 H   0  0  0  0  0  0  0  0  0  0  0  0
  144.6285   72.6769  217.9872 H   0  0  0  0  0  0  0  0  0  0  0  0
  146.5060   73.8310  218.4100 H   0  0  0  0  0  0  0  0  0  0  0  0
  146.3999   72.8312  221.1825 H   0  0  0  0  0  0  0  0  0  0  0  0
  146.8778   74.4858  220.5633 H   0  0  0  0  0  0  0  0  0  0  0  0
  144.7633   74.4977  221.8348 H   0  0  0  0  0  0  0  0  0  0  0  0
  144.5980   75.0330  220.1156 H   0  0  0  0  0  0  0  0  0  0  0  0
  141.4015   72.3180  224.6368 H   0  0  0  0  0  0  0  0  0  0  0  0
  141.4640   70.5783  226.3815 H   0  0  0  0  0  0  0  0  0  0  0  0
  1  2  1  0
  2  3  2  0
  2  4  2  0
  2  5  1  0
  5  6  2  0
  6  7  1  0
  7  8  2  0
  8  9  1  0
  9 10  2  0
 10 11  1  0
 11 12  2  0
 12 13  1  0
 13 14  2  0
 14 15  1  0
 15 16  2  0
 16 17  1  0
 16 18  1  0
 18 19  2  0
 19 20  1  0
 20 21  2  0
 20 22  1  0
 22 23  1  0
 23 24  1  0
 24 25  1  0
 25 26  1  0
 26 27  1  0
 27 28  1  0
 28 29  1  0
  8 30  1  0
 30 31  2  0
 31  5  1  0
 22 11  1  0
 29 24  1  0
 19 13  1  0
  1 32  1  0
  1 33  1  0
  6 34  1  0
  7 35  1  0
  9 36  1  0
 10 37  1  0
 14 38  1  0
 15 39  1  0
 18 40  1  0
 23 41  1  0
 23 42  1  0
 24 43  1  0
 25 44  1  0
 25 45  1  0
 26 46  1  0
 26 47  1  0
 27 48  1  0
 28 49  1  0
 28 50  1  0
 29 51  1  0
 29 52  1  0
 30 53  1  0
 31 54  1  0
M  END
>  <smiles>  (39) 
NS(=O)(=O)c1ccc(/C=C/c2nc3ccc(F)cc3c(=O)n2CC2CCNCC2)cc1

>  <score_type>  (39) 
oracle

>  <origin>  (39) 
autodockgpu

>  <m_score__min__energy>  (39) 
-10.24

>  <m_primary>  (39) 
energy

>  <rmsd>  (39) 
8.014394140617172

>  <m_score__min__rmsd>  (39) 
8.014394140617172

>  <meeko>  (39) 
{"free_energy": -9.93, "intermolecular_energy": -12.01, "internal_energy": -1.15, "cluster_size": 13, "cluster_id": 1, "rank_in_cluster": 6}

>  <energy>  (39) 
-8.32

>  <cluster_rmsd>  (39) 
1.92

>  <cluster>  (39) 
4

$$$$

     RDKit          3D

 54 57  0  0  0  0  0  0  0  0999 V2000
  145.9730   73.3920  218.1100 N   0  0  0  0  0  0  0  0  0  0  0  0
  145.8950   72.7630  219.7170 S   0  0  0  0  0  0  0  0  0  0  0  0
  146.6280   73.6930  220.6260 O   0  0  0  0  0  0  0  0  0  0  0  0
  146.5920   71.4240  219.8010 O   0  0  0  0  0  0  0  0  0  0  0  0
  144.2350   72.6250  220.2430 C   0  0  0  0  0  0  0  0  0  0  0  0
  143.6850   71.3820  220.3800 C   0  0  0  0  0  0  0  0  0  0  0  0
  142.3940   71.2290  220.7870 C   0  0  0  0  0  0  0  0  0  0  0  0
  141.5560   72.3110  221.0880 C   0  0  0  0  0  0  0  0  0  0  0  0
  140.1810   72.1030  221.5210 C   0  0  0  0  0  0  0  0  0  0  0  0
  139.7300   72.3710  222.7250 C   0  0  0  0  0  0  0  0  0  0  0  0
  139.7600   71.3400  223.7580 C   0  0  0  0  0  0  0  0  0  0  0  0
  140.3340   71.6590  224.9550 N   0  0  0  0  0  0  0  0  0  0  0  0
  140.4330   70.8200  225.9810 C   0  0  0  0  0  0  0  0  0  0  0  0
  141.0250   71.1950  227.1780 C   0  0  0  0  0  0  0  0  0  0  0  0
  141.1090   70.2970  228.2210 C   0  0  0  0  0  0  0  0  0  0  0  0
  140.5940   69.0390  228.0320 C   0  0  0  0  0  0  0  0  0  0  0  0
  140.6950   68.1750  229.0850 F   0  0  0  0  0  0  0  0  0  0  0  0
  139.9950   68.6490  226.8310 C   0  0  0  0  0  0  0  0  0  0  0  0
  139.9100   69.5410  225.7930 C   0  0  0  0  0  0  0  0  0  0  0  0
  139.3330   69.2300  224.5790 C   0  0  0  0  0  0  0  0  0  0  0  0
  138.8750   68.0410  224.4840 O   0  0  0  0  0  0  0  0  0  0  0  0
  139.2460   70.0990  223.5540 N   0  0  0  0  0  0  0  0  0  0  0  0
  138.6560   69.7550  222.2920 C   0  0  0  0  0  0  0  0  0  0  0  0
  137.2050   70.0790  222.1660 C   0  0  0  0  0  0  0  0  0  0  0  0
  136.4150   70.1010  223.4220 C   0  0  0  0  0  0  0  0  0  0  0  0
  136.6200   71.3590  224.2340 C   0  0  0  0  0  0  0  0  0  0  0  0
  136.2400   72.5380  223.4550 N   0  0  0  0  0  0  0  0  0  0  0  0
  135.9350   72.2350  222.0910 C   0  0  0  0  0  0  0  0  0  0  0  0
  136.9790   71.3800  221.4060 C   0  0  0  0  0  0  0  0  0  0  0  0
  142.1290   73.5550  220.9440 C   0  0  0  0  0  0  0  0  0  0  0  0
  143.4440   73.7200  220.5290 C   0  0  0  0  0  0  0  0  0  0  0  0
  145.5190   74.3380  218.1210 H   0  0  0  0  0  0  0  0  0  0  0  0
  145.3260   72.7860  217.5410 H   0  0  0  0  0  0  0  0  0  0  0  0
  144.2930   70.4924  220.1586 H   0  0  0  0  0  0  0  0  0  0  0  0
  141.9911   70.2100  220.8837 H   0  0  0  0  0  0  0  0  0  0  0  0
  139.4705   71.6927  220.7883 H   0  0  0  0  0  0  0  0  0  0  0  0
  139.3306   73.3699  222.9545 H   0  0  0  0  0  0  0  0  0  0  0  0
  141.4286   72.2115  227.2955 H   0  0  0  0  0  0  0  0  0  0  0  0
  141.5750   70.5805  229.1762 H   0  0  0  0  0  0  0  0  0  0  0  0
  139.5935   67.6310  226.7189 H   0  0  0  0  0  0  0  0  0  0  0  0
  139.1968   70.2980  221.5030 H   0  0  0  0  0  0  0  0  0  0  0  0
  138.7361   68.6616  222.2026 H   0  0  0  0  0  0  0  0  0  0  0  0
  136.8204   69.2201  221.5965 H   0  0  0  0  0  0  0  0  0  0  0  0
  135.3484   70.0209  223.1652 H   0  0  0  0  0  0  0  0  0  0  0  0
  136.7572   69.2560  224.0375 H   0  0  0  0  0  0  0  0  0  0  0  0
  136.0004   71.3093  225.1415 H   0  0  0  0  0  0  0  0  0  0  0  0
  137.6830   71.4387  224.5053 H   0  0  0  0  0  0  0  0  0  0  0  0
  136.8840   73.3340  223.6060 H   0  0  0  0  0  0  0  0  0  0  0  0
  134.9746   71.6996  222.0613 H   0  0  0  0  0  0  0  0  0  0  0  0
  135.9008   73.1925  221.5505 H   0  0  0  0  0  0  0  0  0  0  0  0
  136.6396   71.1463  220.3861 H   0  0  0  0  0  0  0  0  0  0  0  0
  137.9262   71.9387  221.3790 H   0  0  0  0  0  0  0  0  0  0  0  0
  141.5251   74.4475  221.1650 H   0  0  0  0  0  0  0  0  0  0  0  0
  143.8596   74.7333  220.4271 H   0  0  0  0  0  0  0  0  0  0  0  0
  1  2  1  0
  2  3  2  0
  2  4  2  0
  2  5  1  0
  5  6  2  0
  6  7  1  0
  7  8  2  0
  8  9  1  0
  9 10  2  0
 10 11  1  0
 11 12  2  0
 12 13  1  0
 13 14  2  0
 14 15  1  0
 15 16  2  0
 16 17  1  0
 16 18  1  0
 18 19  2  0
 19 20  1  0
 20 21  2  0
 20 22  1  0
 22 23  1  0
 23 24  1  0
 24 25  1  0
 25 26  1  0
 26 27  1  0
 27 28  1  0
 28 29  1  0
  8 30  1  0
 30 31  2  0
 31  5  1  0
 22 11  1  0
 29 24  1  0
 19 13  1  0
  1 32  1  0
  1 33  1  0
  6 34  1  0
  7 35  1  0
  9 36  1  0
 10 37  1  0
 14 38  1  0
 15 39  1  0
 18 40  1  0
 23 41  1  0
 23 42  1  0
 24 43  1  0
 25 44  1  0
 25 45  1  0
 26 46  1  0
 26 47  1  0
 27 48  1  0
 28 49  1  0
 28 50  1  0
 29 51  1  0
 29 52  1  0
 30 53  1  0
 31 54  1  0
M  END
>  <smiles>  (40) 
NS(=O)(=O)c1ccc(/C=C/c2nc3ccc(F)cc3c(=O)n2CC2CCNCC2)cc1

>  <score_type>  (40) 
oracle

>  <origin>  (40) 
autodockgpu

>  <m_score__min__energy>  (40) 
-10.24

>  <m_primary>  (40) 
energy

>  <rmsd>  (40) 
10.675813327894465

>  <m_score__min__rmsd>  (40) 
10.675813327894465

>  <meeko>  (40) 
{"free_energy": -8.85, "intermolecular_energy": -10.94, "internal_energy": -1.33, "cluster_size": 12, "cluster_id": 2, "rank_in_cluster": 3}

>  <energy>  (40) 
-8.29

>  <cluster_rmsd>  (40) 
1.87

>  <cluster>  (40) 
4

$$$$

     RDKit          3D

 54 57  0  0  0  0  0  0  0  0999 V2000
  146.3000   73.4190  218.3770 N   0  0  0  0  0  0  0  0  0  0  0  0
  145.4080   71.9760  218.7070 S   0  0  0  0  0  0  0  0  0  0  0  0
  146.3070   71.0110  219.4050 O   0  0  0  0  0  0  0  0  0  0  0  0
  144.9650   71.3160  217.4210 O   0  0  0  0  0  0  0  0  0  0  0  0
  144.0300   72.3250  219.7230 C   0  0  0  0  0  0  0  0  0  0  0  0
  143.3220   71.2860  220.2590 C   0  0  0  0  0  0  0  0  0  0  0  0
  142.2410   71.5130  221.0560 C   0  0  0  0  0  0  0  0  0  0  0  0
  141.7870   72.7990  221.3770 C   0  0  0  0  0  0  0  0  0  0  0  0
  140.6270   72.9970  222.2340 C   0  0  0  0  0  0  0  0  0  0  0  0
  139.6630   72.1190  222.3990 C   0  0  0  0  0  0  0  0  0  0  0  0
  139.7140   71.1890  223.5240 C   0  0  0  0  0  0  0  0  0  0  0  0
  140.3010   71.6220  224.6780 N   0  0  0  0  0  0  0  0  0  0  0  0
  140.4190   70.8840  225.7760 C   0  0  0  0  0  0  0  0  0  0  0  0
  141.0250   71.3720  226.9240 C   0  0  0  0  0  0  0  0  0  0  0  0
  141.1290   70.5760  228.0460 C   0  0  0  0  0  0  0  0  0  0  0  0
  140.6190   69.3030  227.9830 C   0  0  0  0  0  0  0  0  0  0  0  0
  140.7390   68.5430  229.1110 F   0  0  0  0  0  0  0  0  0  0  0  0
  140.0060   68.7990  226.8320 C   0  0  0  0  0  0  0  0  0  0  0  0
  139.9020   69.5890  225.7170 C   0  0  0  0  0  0  0  0  0  0  0  0
  139.3110   69.1640  224.5450 C   0  0  0  0  0  0  0  0  0  0  0  0
  138.8590   67.9680  224.5680 O   0  0  0  0  0  0  0  0  0  0  0  0
  139.2040   69.9320  223.4450 N   0  0  0  0  0  0  0  0  0  0  0  0
  138.6000   69.4680  222.2280 C   0  0  0  0  0  0  0  0  0  0  0  0
  137.1680   69.8480  222.0520 C   0  0  0  0  0  0  0  0  0  0  0  0
  136.3300   69.8780  223.2770 C   0  0  0  0  0  0  0  0  0  0  0  0
  136.5490   71.1120  224.1200 C   0  0  0  0  0  0  0  0  0  0  0  0
  136.2430   72.3180  223.3500 N   0  0  0  0  0  0  0  0  0  0  0  0
  135.9820   72.0510  221.9700 C   0  0  0  0  0  0  0  0  0  0  0  0
  137.0200   71.1700  221.3090 C   0  0  0  0  0  0  0  0  0  0  0  0
  142.5140   73.8320  220.8280 C   0  0  0  0  0  0  0  0  0  0  0  0
  143.6170   73.6100  220.0140 C   0  0  0  0  0  0  0  0  0  0  0  0
  146.4540   73.9080  219.2920 H   0  0  0  0  0  0  0  0  0  0  0  0
  145.6380   74.0410  217.8430 H   0  0  0  0  0  0  0  0  0  0  0  0
  143.6295   70.2520  220.0437 H   0  0  0  0  0  0  0  0  0  0  0  0
  141.7000   70.6475  221.4662 H   0  0  0  0  0  0  0  0  0  0  0  0
  140.5521   73.9480  222.7818 H   0  0  0  0  0  0  0  0  0  0  0  0
  138.8207   72.0847  221.6923 H   0  0  0  0  0  0  0  0  0  0  0  0
  141.4240   72.3970  226.9400 H   0  0  0  0  0  0  0  0  0  0  0  0
  141.6063   70.9502  228.9637 H   0  0  0  0  0  0  0  0  0  0  0  0
  139.6090   67.7732  226.8214 H   0  0  0  0  0  0  0  0  0  0  0  0
  139.1699   69.8835  221.3838 H   0  0  0  0  0  0  0  0  0  0  0  0
  138.6242   68.3691  222.2714 H   0  0  0  0  0  0  0  0  0  0  0  0
  136.7752   69.0139  221.4519 H   0  0  0  0  0  0  0  0  0  0  0  0
  135.2722   69.8429  222.9774 H   0  0  0  0  0  0  0  0  0  0  0  0
  136.6162   69.0100  223.8891 H   0  0  0  0  0  0  0  0  0  0  0  0
  135.8931   71.0692  225.0020 H   0  0  0  0  0  0  0  0  0  0  0  0
  137.6029   71.1471  224.4333 H   0  0  0  0  0  0  0  0  0  0  0  0
  136.9090   73.0870  223.5410 H   0  0  0  0  0  0  0  0  0  0  0  0
  135.0045   71.5525  221.8925 H   0  0  0  0  0  0  0  0  0  0  0  0
  136.0050   73.0187  221.4476 H   0  0  0  0  0  0  0  0  0  0  0  0
  136.7124   70.9675  220.2725 H   0  0  0  0  0  0  0  0  0  0  0  0
  137.9874   71.6932  221.3290 H   0  0  0  0  0  0  0  0  0  0  0  0
  142.2108   74.8676  221.0415 H   0  0  0  0  0  0  0  0  0  0  0  0
  144.1671   74.4664  219.5969 H   0  0  0  0  0  0  0  0  0  0  0  0
  1  2  1  0
  2  3  2  0
  2  4  2  0
  2  5  1  0
  5  6  2  0
  6  7  1  0
  7  8  2  0
  8  9  1  0
  9 10  2  0
 10 11  1  0
 11 12  2  0
 12 13  1  0
 13 14  2  0
 14 15  1  0
 15 16  2  0
 16 17  1  0
 16 18  1  0
 18 19  2  0
 19 20  1  0
 20 21  2  0
 20 22  1  0
 22 23  1  0
 23 24  1  0
 24 25  1  0
 25 26  1  0
 26 27  1  0
 27 28  1  0
 28 29  1  0
  8 30  1  0
 30 31  2  0
 31  5  1  0
 22 11  1  0
 29 24  1  0
 19 13  1  0
  1 32  1  0
  1 33  1  0
  6 34  1  0
  7 35  1  0
  9 36  1  0
 10 37  1  0
 14 38  1  0
 15 39  1  0
 18 40  1  0
 23 41  1  0
 23 42  1  0
 24 43  1  0
 25 44  1  0
 25 45  1  0
 26 46  1  0
 26 47  1  0
 27 48  1  0
 28 49  1  0
 28 50  1  0
 29 51  1  0
 29 52  1  0
 30 53  1  0
 31 54  1  0
M  END
>  <smiles>  (41) 
NS(=O)(=O)c1ccc(/C=C/c2nc3ccc(F)cc3c(=O)n2CC2CCNCC2)cc1

>  <score_type>  (41) 
oracle

>  <origin>  (41) 
autodockgpu

>  <m_score__min__energy>  (41) 
-10.24

>  <m_primary>  (41) 
energy

>  <rmsd>  (41) 
10.719437502614188

>  <m_score__min__rmsd>  (41) 
10.719437502614188

>  <meeko>  (41) 
{"free_energy": -8.55, "intermolecular_energy": -10.64, "internal_energy": -1.49, "cluster_size": 12, "cluster_id": 2, "rank_in_cluster": 9}

>  <energy>  (41) 
-8.28

>  <cluster_rmsd>  (41) 
1.89

>  <cluster>  (41) 
4

$$$$

     RDKit          3D

 54 57  0  0  0  0  0  0  0  0999 V2000
  145.8110   72.8030  221.5800 N   0  0  0  0  0  0  0  0  0  0  0  0
  144.9880   72.7340  220.0630 S   0  0  0  0  0  0  0  0  0  0  0  0
  144.1920   71.4730  220.0120 O   0  0  0  0  0  0  0  0  0  0  0  0
  145.9770   72.6780  218.9200 O   0  0  0  0  0  0  0  0  0  0  0  0
  143.9190   74.1030  219.8810 C   0  0  0  0  0  0  0  0  0  0  0  0
  144.0060   74.8670  218.7510 C   0  0  0  0  0  0  0  0  0  0  0  0
  143.1920   75.9440  218.5690 C   0  0  0  0  0  0  0  0  0  0  0  0
  142.2270   76.3370  219.5060 C   0  0  0  0  0  0  0  0  0  0  0  0
  141.3760   77.4950  219.2710 C   0  0  0  0  0  0  0  0  0  0  0  0
  140.9200   78.2890  220.2140 C   0  0  0  0  0  0  0  0  0  0  0  0
  139.7700   77.8790  221.0140 C   0  0  0  0  0  0  0  0  0  0  0  0
  139.4160   76.5610  220.9860 N   0  0  0  0  0  0  0  0  0  0  0  0
  138.3920   76.0490  221.6610 C   0  0  0  0  0  0  0  0  0  0  0  0
  138.0750   74.7010  221.5990 C   0  0  0  0  0  0  0  0  0  0  0  0
  137.0050   74.2060  222.3140 C   0  0  0  0  0  0  0  0  0  0  0  0
  136.2770   75.0850  223.0770 C   0  0  0  0  0  0  0  0  0  0  0  0
  135.2250   74.5620  223.7710 F   0  0  0  0  0  0  0  0  0  0  0  0
  136.5860   76.4470  223.1480 C   0  0  0  0  0  0  0  0  0  0  0  0
  137.6500   76.9390  222.4380 C   0  0  0  0  0  0  0  0  0  0  0  0
  138.0170   78.2690  222.4580 C   0  0  0  0  0  0  0  0  0  0  0  0
  137.2920   79.0220  223.1930 O   0  0  0  0  0  0  0  0  0  0  0  0
  139.0600   78.7630  221.7630 N   0  0  0  0  0  0  0  0  0  0  0  0
  139.4200   80.1520  221.7830 C   0  0  0  0  0  0  0  0  0  0  0  0
  140.2730   80.5650  222.9340 C   0  0  0  0  0  0  0  0  0  0  0  0
  140.6740   79.4980  223.8850 C   0  0  0  0  0  0  0  0  0  0  0  0
  141.7990   78.6310  223.3690 C   0  0  0  0  0  0  0  0  0  0  0  0
  142.9850   79.4420  223.0940 N   0  0  0  0  0  0  0  0  0  0  0  0
  142.7450   80.8460  223.2170 C   0  0  0  0  0  0  0  0  0  0  0  0
  141.5130   81.3240  222.4780 C   0  0  0  0  0  0  0  0  0  0  0  0
  142.1540   75.5540  220.6370 C   0  0  0  0  0  0  0  0  0  0  0  0
  142.9800   74.4550  220.8310 C   0  0  0  0  0  0  0  0  0  0  0  0
  146.6950   72.2480  221.4830 H   0  0  0  0  0  0  0  0  0  0  0  0
  145.2130   72.2500  222.2480 H   0  0  0  0  0  0  0  0  0  0  0  0
  144.7440   74.6084  217.9774 H   0  0  0  0  0  0  0  0  0  0  0  0
  143.2969   76.5316  217.6450 H   0  0  0  0  0  0  0  0  0  0  0  0
  141.0952   77.7211  218.2318 H   0  0  0  0  0  0  0  0  0  0  0  0
  141.4035   79.2594  220.3997 H   0  0  0  0  0  0  0  0  0  0  0  0
  138.6791   74.0239  220.9773 H   0  0  0  0  0  0  0  0  0  0  0  0
  136.7425   73.1385  222.2743 H   0  0  0  0  0  0  0  0  0  0  0  0
  135.9782   77.1200  223.7705 H   0  0  0  0  0  0  0  0  0  0  0  0
  139.9668   80.3763  220.8552 H   0  0  0  0  0  0  0  0  0  0  0  0
  138.4785   80.7124  221.8812 H   0  0  0  0  0  0  0  0  0  0  0  0
  139.5977   81.2216  223.5022 H   0  0  0  0  0  0  0  0  0  0  0  0
  140.9994   79.9707  224.8235 H   0  0  0  0  0  0  0  0  0  0  0  0
  139.8002   78.8460  224.0313 H   0  0  0  0  0  0  0  0  0  0  0  0
  142.0470   77.8715  224.1251 H   0  0  0  0  0  0  0  0  0  0  0  0
  141.4755   78.1455  222.4364 H   0  0  0  0  0  0  0  0  0  0  0  0
  143.4760   79.1430  222.2340 H   0  0  0  0  0  0  0  0  0  0  0  0
  142.6234   81.0846  224.2839 H   0  0  0  0  0  0  0  0  0  0  0  0
  143.6074   81.3585  222.7657 H   0  0  0  0  0  0  0  0  0  0  0  0
  141.3700   82.3970  222.6737 H   0  0  0  0  0  0  0  0  0  0  0  0
  141.6579   81.1439  221.4026 H   0  0  0  0  0  0  0  0  0  0  0  0
  141.4165   75.8080  221.4126 H   0  0  0  0  0  0  0  0  0  0  0  0
  142.8857   73.8586  221.7505 H   0  0  0  0  0  0  0  0  0  0  0  0
  1  2  1  0
  2  3  2  0
  2  4  2  0
  2  5  1  0
  5  6  2  0
  6  7  1  0
  7  8  2  0
  8  9  1  0
  9 10  2  0
 10 11  1  0
 11 12  2  0
 12 13  1  0
 13 14  2  0
 14 15  1  0
 15 16  2  0
 16 17  1  0
 16 18  1  0
 18 19  2  0
 19 20  1  0
 20 21  2  0
 20 22  1  0
 22 23  1  0
 23 24  1  0
 24 25  1  0
 25 26  1  0
 26 27  1  0
 27 28  1  0
 28 29  1  0
  8 30  1  0
 30 31  2  0
 31  5  1  0
 22 11  1  0
 29 24  1  0
 19 13  1  0
  1 32  1  0
  1 33  1  0
  6 34  1  0
  7 35  1  0
  9 36  1  0
 10 37  1  0
 14 38  1  0
 15 39  1  0
 18 40  1  0
 23 41  1  0
 23 42  1  0
 24 43  1  0
 25 44  1  0
 25 45  1  0
 26 46  1  0
 26 47  1  0
 27 48  1  0
 28 49  1  0
 28 50  1  0
 29 51  1  0
 29 52  1  0
 30 53  1  0
 31 54  1  0
M  END
>  <smiles>  (42) 
NS(=O)(=O)c1ccc(/C=C/c2nc3ccc(F)cc3c(=O)n2CC2CCNCC2)cc1

>  <score_type>  (42) 
oracle

>  <origin>  (42) 
autodockgpu

>  <m_score__min__energy>  (42) 
-10.24

>  <m_primary>  (42) 
energy

>  <rmsd>  (42) 
4.020036697556423

>  <m_score__min__rmsd>  (42) 
4.020036697556423

>  <meeko>  (42) 
{"free_energy": -8.04, "intermolecular_energy": -10.13, "internal_energy": -1.63, "cluster_size": 6, "cluster_id": 3, "rank_in_cluster": 6}

>  <energy>  (42) 
-8.37

>  <cluster_rmsd>  (42) 
0.0

>  <cluster>  (42) 
5

$$$$

     RDKit          3D

 54 57  0  0  0  0  0  0  0  0999 V2000
  142.6590   79.2560  222.4410 N   0  0  0  0  0  0  0  0  0  0  0  0
  140.9470   79.0800  222.2980 S   0  0  0  0  0  0  0  0  0  0  0  0
  140.4960   79.7980  221.0700 O   0  0  0  0  0  0  0  0  0  0  0  0
  140.2430   79.7260  223.4700 O   0  0  0  0  0  0  0  0  0  0  0  0
  140.5110   77.3930  222.1770 C   0  0  0  0  0  0  0  0  0  0  0  0
  139.2800   76.9930  222.6160 C   0  0  0  0  0  0  0  0  0  0  0  0
  138.9010   75.6870  222.5410 C   0  0  0  0  0  0  0  0  0  0  0  0
  139.7250   74.6820  222.0180 C   0  0  0  0  0  0  0  0  0  0  0  0
  139.2790   73.2970  221.9550 C   0  0  0  0  0  0  0  0  0  0  0  0
  140.0630   72.2530  222.1030 C   0  0  0  0  0  0  0  0  0  0  0  0
  139.9400   71.4170  223.2930 C   0  0  0  0  0  0  0  0  0  0  0  0
  140.5420   71.8520  224.4390 N   0  0  0  0  0  0  0  0  0  0  0  0
  140.5140   71.1930  225.5920 C   0  0  0  0  0  0  0  0  0  0  0  0
  141.1430   71.6800  226.7280 C   0  0  0  0  0  0  0  0  0  0  0  0
  141.0910   70.9690  227.9080 C   0  0  0  0  0  0  0  0  0  0  0  0
  140.4060   69.7790  227.9150 C   0  0  0  0  0  0  0  0  0  0  0  0
  140.3760   69.1000  229.0990 F   0  0  0  0  0  0  0  0  0  0  0  0
  139.7690   69.2770  226.7770 C   0  0  0  0  0  0  0  0  0  0  0  0
  139.8190   69.9840  225.6030 C   0  0  0  0  0  0  0  0  0  0  0  0
  139.2150   69.5550  224.4390 C   0  0  0  0  0  0  0  0  0  0  0  0
  138.5950   68.4400  224.5280 O   0  0  0  0  0  0  0  0  0  0  0  0
  139.2590   70.2420  223.2820 N   0  0  0  0  0  0  0  0  0  0  0  0
  138.6370   69.7730  222.0760 C   0  0  0  0  0  0  0  0  0  0  0  0
  137.1960   70.1280  221.9320 C   0  0  0  0  0  0  0  0  0  0  0  0
  136.3790   70.1190  223.1710 C   0  0  0  0  0  0  0  0  0  0  0  0
  136.5880   71.3420  224.0330 C   0  0  0  0  0  0  0  0  0  0  0  0
  136.2460   72.5560  223.2920 N   0  0  0  0  0  0  0  0  0  0  0  0
  135.9660   72.3090  221.9110 C   0  0  0  0  0  0  0  0  0  0  0  0
  137.0090   71.4600  221.2160 C   0  0  0  0  0  0  0  0  0  0  0  0
  140.9600   75.1050  221.5790 C   0  0  0  0  0  0  0  0  0  0  0  0
  141.3560   76.4340  221.6530 C   0  0  0  0  0  0  0  0  0  0  0  0
  142.9960   79.7500  221.5790 H   0  0  0  0  0  0  0  0  0  0  0  0
  143.0480   78.2800  222.3650 H   0  0  0  0  0  0  0  0  0  0  0  0
  138.5859   77.7360  223.0356 H   0  0  0  0  0  0  0  0  0  0  0  0
  137.9021   75.4085  222.9079 H   0  0  0  0  0  0  0  0  0  0  0  0
  138.2105   73.1119  221.7705 H   0  0  0  0  0  0  0  0  0  0  0  0
  140.8096   72.0099  221.3326 H   0  0  0  0  0  0  0  0  0  0  0  0
  141.6850   72.6364  226.6874 H   0  0  0  0  0  0  0  0  0  0  0  0
  141.5838   71.3440  228.8172 H   0  0  0  0  0  0  0  0  0  0  0  0
  139.2300   68.3192  226.8227 H   0  0  0  0  0  0  0  0  0  0  0  0
  139.1813   70.2022  221.2219 H   0  0  0  0  0  0  0  0  0  0  0  0
  138.6811   68.6745  222.1140 H   0  0  0  0  0  0  0  0  0  0  0  0
  136.8093   69.2972  221.3234 H   0  0  0  0  0  0  0  0  0  0  0  0
  135.3171   70.0681  222.8887 H   0  0  0  0  0  0  0  0  0  0  0  0
  136.6929   69.2460  223.7621 H   0  0  0  0  0  0  0  0  0  0  0  0
  135.9480   71.2699  224.9248 H   0  0  0  0  0  0  0  0  0  0  0  0
  137.6464   71.3921  224.3286 H   0  0  0  0  0  0  0  0  0  0  0  0
  136.9010   73.3330  223.4850 H   0  0  0  0  0  0  0  0  0  0  0  0
  134.9969   71.7934  221.8409 H   0  0  0  0  0  0  0  0  0  0  0  0
  135.9618   73.2864  221.4063 H   0  0  0  0  0  0  0  0  0  0  0  0
  136.6868   71.2700  220.1815 H   0  0  0  0  0  0  0  0  0  0  0  0
  137.9663   72.0016  221.2287 H   0  0  0  0  0  0  0  0  0  0  0  0
  141.6558   74.3656  221.1557 H   0  0  0  0  0  0  0  0  0  0  0  0
  142.3527   76.7260  221.2907 H   0  0  0  0  0  0  0  0  0  0  0  0
  1  2  1  0
  2  3  2  0
  2  4  2  0
  2  5  1  0
  5  6  2  0
  6  7  1  0
  7  8  2  0
  8  9  1  0
  9 10  2  0
 10 11  1  0
 11 12  2  0
 12 13  1  0
 13 14  2  0
 14 15  1  0
 15 16  2  0
 16 17  1  0
 16 18  1  0
 18 19  2  0
 19 20  1  0
 20 21  2  0
 20 22  1  0
 22 23  1  0
 23 24  1  0
 24 25  1  0
 25 26  1  0
 26 27  1  0
 27 28  1  0
 28 29  1  0
  8 30  1  0
 30 31  2  0
 31  5  1  0
 22 11  1  0
 29 24  1  0
 19 13  1  0
  1 32  1  0
  1 33  1  0
  6 34  1  0
  7 35  1  0
  9 36  1  0
 10 37  1  0
 14 38  1  0
 15 39  1  0
 18 40  1  0
 23 41  1  0
 23 42  1  0
 24 43  1  0
 25 44  1  0
 25 45  1  0
 26 46  1  0
 26 47  1  0
 27 48  1  0
 28 49  1  0
 28 50  1  0
 29 51  1  0
 29 52  1  0
 30 53  1  0
 31 54  1  0
M  END
>  <smiles>  (43) 
NS(=O)(=O)c1ccc(/C=C/c2nc3ccc(F)cc3c(=O)n2CC2CCNCC2)cc1

>  <score_type>  (43) 
oracle

>  <origin>  (43) 
autodockgpu

>  <m_score__min__energy>  (43) 
-10.24

>  <m_primary>  (43) 
energy

>  <rmsd>  (43) 
10.433770588797035

>  <m_score__min__rmsd>  (43) 
10.433770588797035

>  <meeko>  (43) 
{"free_energy": -8.29, "intermolecular_energy": -10.38, "internal_energy": -1.56, "cluster_size": 10, "cluster_id": 4, "rank_in_cluster": 9}

>  <energy>  (43) 
-8.28

>  <cluster_rmsd>  (43) 
0.45

>  <cluster>  (43) 
5

$$$$

     RDKit          3D

 54 57  0  0  0  0  0  0  0  0999 V2000
  146.3990   71.2810  219.7150 N   0  0  0  0  0  0  0  0  0  0  0  0
  145.7840   72.8950  219.6950 S   0  0  0  0  0  0  0  0  0  0  0  0
  145.7800   73.3840  218.2860 O   0  0  0  0  0  0  0  0  0  0  0  0
  146.6860   73.8200  220.4810 O   0  0  0  0  0  0  0  0  0  0  0  0
  144.1570   72.9400  220.3300 C   0  0  0  0  0  0  0  0  0  0  0  0
  143.5280   74.1460  220.4540 C   0  0  0  0  0  0  0  0  0  0  0  0
  142.2600   74.2260  220.9450 C   0  0  0  0  0  0  0  0  0  0  0  0
  141.5260   73.1040  221.3500 C   0  0  0  0  0  0  0  0  0  0  0  0
  140.1710   73.2340  221.8690 C   0  0  0  0  0  0  0  0  0  0  0  0
  139.3460   72.2300  222.0610 C   0  0  0  0  0  0  0  0  0  0  0  0
  139.5080   71.3730  223.2310 C   0  0  0  0  0  0  0  0  0  0  0  0
  140.1710   71.8880  224.3080 N   0  0  0  0  0  0  0  0  0  0  0  0
  140.3920   71.2220  225.4360 C   0  0  0  0  0  0  0  0  0  0  0  0
  141.0710   71.7920  226.5020 C   0  0  0  0  0  0  0  0  0  0  0  0
  141.2820   71.0700  227.6570 C   0  0  0  0  0  0  0  0  0  0  0  0
  140.8020   69.7850  227.7110 C   0  0  0  0  0  0  0  0  0  0  0  0
  141.0290   69.0980  228.8690 F   0  0  0  0  0  0  0  0  0  0  0  0
  140.1170   69.1970  226.6430 C   0  0  0  0  0  0  0  0  0  0  0  0
  139.9060   69.9150  225.4950 C   0  0  0  0  0  0  0  0  0  0  0  0
  139.2390   69.4050  224.4000 C   0  0  0  0  0  0  0  0  0  0  0  0
  138.8220   68.2040  224.5300 O   0  0  0  0  0  0  0  0  0  0  0  0
  139.0270   70.1020  223.2670 N   0  0  0  0  0  0  0  0  0  0  0  0
  138.3440   69.5510  222.1320 C   0  0  0  0  0  0  0  0  0  0  0  0
  136.8870   69.8650  222.0620 C   0  0  0  0  0  0  0  0  0  0  0  0
  136.1220   69.7700  223.3300 C   0  0  0  0  0  0  0  0  0  0  0  0
  136.3280   70.9570  224.2420 C   0  0  0  0  0  0  0  0  0  0  0  0
  135.9170   72.1920  223.5730 N   0  0  0  0  0  0  0  0  0  0  0  0
  135.5890   72.0010  222.1940 C   0  0  0  0  0  0  0  0  0  0  0  0
  136.6290   71.2210  221.4190 C   0  0  0  0  0  0  0  0  0  0  0  0
  142.1780   71.8970  221.2170 C   0  0  0  0  0  0  0  0  0  0  0  0
  143.4700   71.8060  220.7180 C   0  0  0  0  0  0  0  0  0  0  0  0
  145.5960   70.6420  219.9310 H   0  0  0  0  0  0  0  0  0  0  0  0
  147.0240   71.2300  220.5610 H   0  0  0  0  0  0  0  0  0  0  0  0
  144.0524   75.0650  220.1533 H   0  0  0  0  0  0  0  0  0  0  0  0
  141.7908   75.2175  221.0272 H   0  0  0  0  0  0  0  0  0  0  0  0
  139.8135   74.2441  222.1176 H   0  0  0  0  0  0  0  0  0  0  0  0
  138.5360   72.0360  221.3425 H   0  0  0  0  0  0  0  0  0  0  0  0
  141.4428   72.8245  226.4257 H   0  0  0  0  0  0  0  0  0  0  0  0
  141.8190   71.5103  228.5101 H   0  0  0  0  0  0  0  0  0  0  0  0
  139.7494   68.1634  226.7240 H   0  0  0  0  0  0  0  0  0  0  0  0
  138.8221   69.9430  221.2222 H   0  0  0  0  0  0  0  0  0  0  0  0
  138.4197   68.4578  222.2274 H   0  0  0  0  0  0  0  0  0  0  0  0
  136.5021   69.0516  221.4294 H   0  0  0  0  0  0  0  0  0  0  0  0
  135.0515   69.6975  223.0875 H   0  0  0  0  0  0  0  0  0  0  0  0
  136.4866   68.8807  223.8649 H   0  0  0  0  0  0  0  0  0  0  0  0
  135.7279   70.8218  225.1539 H   0  0  0  0  0  0  0  0  0  0  0  0
  137.3952   71.0286  224.4988 H   0  0  0  0  0  0  0  0  0  0  0  0
  136.5540   72.9810  223.7790 H   0  0  0  0  0  0  0  0  0  0  0  0
  134.6345   71.4572  222.1371 H   0  0  0  0  0  0  0  0  0  0  0  0
  135.5334   73.0003  221.7375 H   0  0  0  0  0  0  0  0  0  0  0  0
  136.2712   71.0687  220.3900 H   0  0  0  0  0  0  0  0  0  0  0  0
  137.5684   71.7933  221.4202 H   0  0  0  0  0  0  0  0  0  0  0  0
  141.6573   70.9754  221.5162 H   0  0  0  0  0  0  0  0  0  0  0  0
  143.9518   70.8210  220.6306 H   0  0  0  0  0  0  0  0  0  0  0  0
  1  2  1  0
  2  3  2  0
  2  4  2  0
  2  5  1  0
  5  6  2  0
  6  7  1  0
  7  8  2  0
  8  9  1  0
  9 10  2  0
 10 11  1  0
 11 12  2  0
 12 13  1  0
 13 14  2  0
 14 15  1  0
 15 16  2  0
 16 17  1  0
 16 18  1  0
 18 19  2  0
 19 20  1  0
 20 21  2  0
 20 22  1  0
 22 23  1  0
 23 24  1  0
 24 25  1  0
 25 26  1  0
 26 27  1  0
 27 28  1  0
 28 29  1  0
  8 30  1  0
 30 31  2  0
 31  5  1  0
 22 11  1  0
 29 24  1  0
 19 13  1  0
  1 32  1  0
  1 33  1  0
  6 34  1  0
  7 35  1  0
  9 36  1  0
 10 37  1  0
 14 38  1  0
 15 39  1  0
 18 40  1  0
 23 41  1  0
 23 42  1  0
 24 43  1  0
 25 44  1  0
 25 45  1  0
 26 46  1  0
 26 47  1  0
 27 48  1  0
 28 49  1  0
 28 50  1  0
 29 51  1  0
 29 52  1  0
 30 53  1  0
 31 54  1  0
M  END
>  <smiles>  (44) 
NS(=O)(=O)c1ccc(/C=C/c2nc3ccc(F)cc3c(=O)n2CC2CCNCC2)cc1

>  <score_type>  (44) 
oracle

>  <origin>  (44) 
autodockgpu

>  <m_score__min__energy>  (44) 
-10.24

>  <m_primary>  (44) 
energy

>  <rmsd>  (44) 
10.62379701868996

>  <m_score__min__rmsd>  (44) 
10.62379701868996

>  <meeko>  (44) 
{"free_energy": -8.59, "intermolecular_energy": -10.68, "internal_energy": -1.5, "cluster_size": 12, "cluster_id": 2, "rank_in_cluster": 8}

>  <energy>  (44) 
-8.23

>  <cluster_rmsd>  (44) 
1.34

>  <cluster>  (44) 
5

$$$$

     RDKit          3D

 54 57  0  0  0  0  0  0  0  0999 V2000
  141.1570   67.9080  227.6230 N   0  0  0  0  0  0  0  0  0  0  0  0
  139.7060   68.5270  226.9180 S   0  0  0  0  0  0  0  0  0  0  0  0
  138.9540   69.2820  227.9640 O   0  0  0  0  0  0  0  0  0  0  0  0
  138.8110   67.3990  226.4590 O   0  0  0  0  0  0  0  0  0  0  0  0
  140.0770   69.5960  225.5870 C   0  0  0  0  0  0  0  0  0  0  0  0
  139.6390   69.2700  224.3340 C   0  0  0  0  0  0  0  0  0  0  0  0
  139.9070   70.0750  223.2680 C   0  0  0  0  0  0  0  0  0  0  0  0
  140.6340   71.2680  223.3760 C   0  0  0  0  0  0  0  0  0  0  0  0
  140.8980   72.0990  222.2090 C   0  0  0  0  0  0  0  0  0  0  0  0
  140.0910   73.0350  221.7640 C   0  0  0  0  0  0  0  0  0  0  0  0
  140.6070   74.3750  221.5060 C   0  0  0  0  0  0  0  0  0  0  0  0
  140.0240   75.4170  222.1690 N   0  0  0  0  0  0  0  0  0  0  0  0
  140.3900   76.6870  222.0290 C   0  0  0  0  0  0  0  0  0  0  0  0
  139.7650   77.7090  222.7270 C   0  0  0  0  0  0  0  0  0  0  0  0
  140.1730   79.0160  222.5570 C   0  0  0  0  0  0  0  0  0  0  0  0
  141.2040   79.2610  221.6850 C   0  0  0  0  0  0  0  0  0  0  0  0
  141.5810   80.5660  221.5400 F   0  0  0  0  0  0  0  0  0  0  0  0
  141.8420   78.2410  220.9750 C   0  0  0  0  0  0  0  0  0  0  0  0
  141.4380   76.9410  221.1440 C   0  0  0  0  0  0  0  0  0  0  0  0
  142.0180   75.8800  220.4800 C   0  0  0  0  0  0  0  0  0  0  0  0
  142.9720   76.1920  219.6880 O   0  0  0  0  0  0  0  0  0  0  0  0
  141.6280   74.6010  220.6380 N   0  0  0  0  0  0  0  0  0  0  0  0
  142.2330   73.5100  219.9280 C   0  0  0  0  0  0  0  0  0  0  0  0
  143.4520   72.9400  220.5710 C   0  0  0  0  0  0  0  0  0  0  0  0
  144.0800   71.7760  219.8980 C   0  0  0  0  0  0  0  0  0  0  0  0
  144.9030   72.1570  218.6890 C   0  0  0  0  0  0  0  0  0  0  0  0
  145.9770   73.0750  219.0700 N   0  0  0  0  0  0  0  0  0  0  0  0
  145.8860   73.5110  220.4290 C   0  0  0  0  0  0  0  0  0  0  0  0
  144.5110   74.0060  220.8240 C   0  0  0  0  0  0  0  0  0  0  0  0
  141.0670   71.5780  224.6460 C   0  0  0  0  0  0  0  0  0  0  0  0
  140.7990   70.7630  225.7390 C   0  0  0  0  0  0  0  0  0  0  0  0
  141.9270   68.0430  226.9240 H   0  0  0  0  0  0  0  0  0  0  0  0
  141.0180   66.8660  227.6780 H   0  0  0  0  0  0  0  0  0  0  0  0
  139.0624   68.3453  224.1842 H   0  0  0  0  0  0  0  0  0  0  0  0
  139.5356   69.7746  222.2771 H   0  0  0  0  0  0  0  0  0  0  0  0
  141.8379   71.9311  221.6628 H   0  0  0  0  0  0  0  0  0  0  0  0
  139.0292   72.8092  221.5864 H   0  0  0  0  0  0  0  0  0  0  0  0
  138.9414   77.4771  223.4184 H   0  0  0  0  0  0  0  0  0  0  0  0
  139.6865   79.8370  223.1040 H   0  0  0  0  0  0  0  0  0  0  0  0
  142.6641   78.4790  220.2840 H   0  0  0  0  0  0  0  0  0  0  0  0
  141.4874   72.7064  219.8371 H   0  0  0  0  0  0  0  0  0  0  0  0
  142.5573   73.9156  218.9583 H   0  0  0  0  0  0  0  0  0  0  0  0
  143.0551   72.5477  221.5189 H   0  0  0  0  0  0  0  0  0  0  0  0
  144.7353   71.2669  220.6201 H   0  0  0  0  0  0  0  0  0  0  0  0
  143.2662   71.1249  219.5461 H   0  0  0  0  0  0  0  0  0  0  0  0
  145.3415   71.2493  218.2487 H   0  0  0  0  0  0  0  0  0  0  0  0
  144.2509   72.6559  217.9570 H   0  0  0  0  0  0  0  0  0  0  0  0
  146.1250   73.8200  218.3680 H   0  0  0  0  0  0  0  0  0  0  0  0
  146.1508   72.6664  221.0821 H   0  0  0  0  0  0  0  0  0  0  0  0
  146.5749   74.3616  220.5381 H   0  0  0  0  0  0  0  0  0  0  0  0
  144.5148   74.2622  221.8937 H   0  0  0  0  0  0  0  0  0  0  0  0
  144.2695   74.8904  220.2161 H   0  0  0  0  0  0  0  0  0  0  0  0
  141.6443   72.5016  224.8003 H   0  0  0  0  0  0  0  0  0  0  0  0
  141.1658   71.0505  226.7354 H   0  0  0  0  0  0  0  0  0  0  0  0
  1  2  1  0
  2  3  2  0
  2  4  2  0
  2  5  1  0
  5  6  2  0
  6  7  1  0
  7  8  2  0
  8  9  1  0
  9 10  2  0
 10 11  1  0
 11 12  2  0
 12 13  1  0
 13 14  2  0
 14 15  1  0
 15 16  2  0
 16 17  1  0
 16 18  1  0
 18 19  2  0
 19 20  1  0
 20 21  2  0
 20 22  1  0
 22 23  1  0
 23 24  1  0
 24 25  1  0
 25 26  1  0
 26 27  1  0
 27 28  1  0
 28 29  1  0
  8 30  1  0
 30 31  2  0
 31  5  1  0
 22 11  1  0
 29 24  1  0
 19 13  1  0
  1 32  1  0
  1 33  1  0
  6 34  1  0
  7 35  1  0
  9 36  1  0
 10 37  1  0
 14 38  1  0
 15 39  1  0
 18 40  1  0
 23 41  1  0
 23 42  1  0
 24 43  1  0
 25 44  1  0
 25 45  1  0
 26 46  1  0
 26 47  1  0
 27 48  1  0
 28 49  1  0
 28 50  1  0
 29 51  1  0
 29 52  1  0
 30 53  1  0
 31 54  1  0
M  END
>  <smiles>  (45) 
NS(=O)(=O)c1ccc(/C=C/c2nc3ccc(F)cc3c(=O)n2CC2CCNCC2)cc1

>  <score_type>  (45) 
oracle

>  <origin>  (45) 
autodockgpu

>  <m_score__min__energy>  (45) 
-10.24

>  <m_primary>  (45) 
energy

>  <rmsd>  (45) 
8.03327231035493

>  <m_score__min__rmsd>  (45) 
8.03327231035493

>  <meeko>  (45) 
{"free_energy": -9.49, "intermolecular_energy": -11.58, "internal_energy": -1.06, "cluster_size": 13, "cluster_id": 1, "rank_in_cluster": 10}

>  <energy>  (45) 
-7.59

>  <cluster_rmsd>  (45) 
1.77

>  <cluster>  (45) 
5

$$$$

     RDKit          3D

 54 57  0  0  0  0  0  0  0  0999 V2000
  141.0710   67.7720  227.7200 N   0  0  0  0  0  0  0  0  0  0  0  0
  140.4700   69.3790  227.9150 S   0  0  0  0  0  0  0  0  0  0  0  0
  141.4680   70.1680  228.6950 O   0  0  0  0  0  0  0  0  0  0  0  0
  139.1860   69.3770  228.7150 O   0  0  0  0  0  0  0  0  0  0  0  0
  140.2210   70.1350  226.3600 C   0  0  0  0  0  0  0  0  0  0  0  0
  139.2720   69.6250  225.5190 C   0  0  0  0  0  0  0  0  0  0  0  0
  139.0460   70.1830  224.2970 C   0  0  0  0  0  0  0  0  0  0  0  0
  139.7540   71.2970  223.8250 C   0  0  0  0  0  0  0  0  0  0  0  0
  139.4800   71.8630  222.5120 C   0  0  0  0  0  0  0  0  0  0  0  0
  140.3980   72.1490  221.6170 C   0  0  0  0  0  0  0  0  0  0  0  0
  140.7730   73.5400  221.3810 C   0  0  0  0  0  0  0  0  0  0  0  0
  140.0870   74.5050  222.0620 N   0  0  0  0  0  0  0  0  0  0  0  0
  140.3200   75.8080  221.9440 C   0  0  0  0  0  0  0  0  0  0  0  0
  139.5940   76.7480  222.6600 C   0  0  0  0  0  0  0  0  0  0  0  0
  139.8650   78.0920  222.5110 C   0  0  0  0  0  0  0  0  0  0  0  0
  140.8620   78.4580  221.6420 C   0  0  0  0  0  0  0  0  0  0  0  0
  141.1030   79.7960  221.5190 F   0  0  0  0  0  0  0  0  0  0  0  0
  141.6000   77.5200  220.9150 C   0  0  0  0  0  0  0  0  0  0  0  0
  141.3330   76.1840  221.0620 C   0  0  0  0  0  0  0  0  0  0  0  0
  142.0180   75.1990  220.3800 C   0  0  0  0  0  0  0  0  0  0  0  0
  142.9330   75.6210  219.5920 O   0  0  0  0  0  0  0  0  0  0  0  0
  141.7630   73.8840  220.5170 N   0  0  0  0  0  0  0  0  0  0  0  0
  142.4750   72.8740  219.7880 C   0  0  0  0  0  0  0  0  0  0  0  0
  143.7360   72.4050  220.4320 C   0  0  0  0  0  0  0  0  0  0  0  0
  144.5450   71.4160  219.6760 C   0  0  0  0  0  0  0  0  0  0  0  0
  145.3520   72.0350  218.5590 C   0  0  0  0  0  0  0  0  0  0  0  0
  146.2730   73.0410  219.0900 N   0  0  0  0  0  0  0  0  0  0  0  0
  146.0710   73.3080  220.4800 C   0  0  0  0  0  0  0  0  0  0  0  0
  144.6260   73.5680  220.8500 C   0  0  0  0  0  0  0  0  0  0  0  0
  140.7050   71.7970  224.6870 C   0  0  0  0  0  0  0  0  0  0  0  0
  140.9420   71.2340  225.9340 C   0  0  0  0  0  0  0  0  0  0  0  0
  141.5590   67.7300  226.7930 H   0  0  0  0  0  0  0  0  0  0  0  0
  140.2170   67.1660  227.6050 H   0  0  0  0  0  0  0  0  0  0  0  0
  138.6822   68.7513  225.8334 H   0  0  0  0  0  0  0  0  0  0  0  0
  138.2733   69.7396  223.6517 H   0  0  0  0  0  0  0  0  0  0  0  0
  138.4307   72.0653  222.2511 H   0  0  0  0  0  0  0  0  0  0  0  0
  140.8828   71.3427  221.0470 H   0  0  0  0  0  0  0  0  0  0  0  0
  138.8005   76.4210  223.3481 H   0  0  0  0  0  0  0  0  0  0  0  0
  139.2981   78.8490  223.0727 H   0  0  0  0  0  0  0  0  0  0  0  0
  142.3918   77.8527  220.2277 H   0  0  0  0  0  0  0  0  0  0  0  0
  141.8096   72.0064  219.6680 H   0  0  0  0  0  0  0  0  0  0  0  0
  142.7691   73.3331  218.8327 H   0  0  0  0  0  0  0  0  0  0  0  0
  143.3613   71.8613  221.3118 H   0  0  0  0  0  0  0  0  0  0  0  0
  145.2366   70.9229  220.3750 H   0  0  0  0  0  0  0  0  0  0  0  0
  143.8439   70.7039  219.2163 H   0  0  0  0  0  0  0  0  0  0  0  0
  145.9288   71.2486  218.0501 H   0  0  0  0  0  0  0  0  0  0  0  0
  144.6651   72.5200  217.8498 H   0  0  0  0  0  0  0  0  0  0  0  0
  146.3440   73.8720  218.4780 H   0  0  0  0  0  0  0  0  0  0  0  0
  146.4250   72.4395  221.0547 H   0  0  0  0  0  0  0  0  0  0  0  0
  146.6311   74.2253  220.7141 H   0  0  0  0  0  0  0  0  0  0  0  0
  144.5527   73.7033  221.9392 H   0  0  0  0  0  0  0  0  0  0  0  0
  144.2880   74.4734  220.3247 H   0  0  0  0  0  0  0  0  0  0  0  0
  141.2963   72.6713  224.3772 H   0  0  0  0  0  0  0  0  0  0  0  0
  141.7117   71.6674  226.5895 H   0  0  0  0  0  0  0  0  0  0  0  0
  1  2  1  0
  2  3  2  0
  2  4  2  0
  2  5  1  0
  5  6  2  0
  6  7  1  0
  7  8  2  0
  8  9  1  0
  9 10  2  0
 10 11  1  0
 11 12  2  0
 12 13  1  0
 13 14  2  0
 14 15  1  0
 15 16  2  0
 16 17  1  0
 16 18  1  0
 18 19  2  0
 19 20  1  0
 20 21  2  0
 20 22  1  0
 22 23  1  0
 23 24  1  0
 24 25  1  0
 25 26  1  0
 26 27  1  0
 27 28  1  0
 28 29  1  0
  8 30  1  0
 30 31  2  0
 31  5  1  0
 22 11  1  0
 29 24  1  0
 19 13  1  0
  1 32  1  0
  1 33  1  0
  6 34  1  0
  7 35  1  0
  9 36  1  0
 10 37  1  0
 14 38  1  0
 15 39  1  0
 18 40  1  0
 23 41  1  0
 23 42  1  0
 24 43  1  0
 25 44  1  0
 25 45  1  0
 26 46  1  0
 26 47  1  0
 27 48  1  0
 28 49  1  0
 28 50  1  0
 29 51  1  0
 29 52  1  0
 30 53  1  0
 31 54  1  0
M  END
>  <smiles>  (46) 
NS(=O)(=O)c1ccc(/C=C/c2nc3ccc(F)cc3c(=O)n2CC2CCNCC2)cc1

>  <score_type>  (46) 
oracle

>  <origin>  (46) 
autodockgpu

>  <m_score__min__energy>  (46) 
-10.24

>  <m_primary>  (46) 
energy

>  <rmsd>  (46) 
8.29399054151932

>  <m_score__min__rmsd>  (46) 
8.29399054151932

>  <meeko>  (46) 
{"free_energy": -9.88, "intermolecular_energy": -11.96, "internal_energy": -1.22, "cluster_size": 13, "cluster_id": 1, "rank_in_cluster": 7}

>  <energy>  (46) 
-8.34

>  <cluster_rmsd>  (46) 
0.0

>  <cluster>  (46) 
6

$$$$

     RDKit          3D

 54 57  0  0  0  0  0  0  0  0999 V2000
  146.2500   73.4390  218.1880 N   0  0  0  0  0  0  0  0  0  0  0  0
  145.6470   72.9220  219.7220 S   0  0  0  0  0  0  0  0  0  0  0  0
  146.6850   73.1990  220.7580 O   0  0  0  0  0  0  0  0  0  0  0  0
  145.4080   71.4290  219.7270 O   0  0  0  0  0  0  0  0  0  0  0  0
  144.1800   73.7790  220.1270 C   0  0  0  0  0  0  0  0  0  0  0  0
  144.0720   75.1010  219.7970 C   0  0  0  0  0  0  0  0  0  0  0  0
  142.9450   75.8060  220.0950 C   0  0  0  0  0  0  0  0  0  0  0  0
  141.8410   75.2410  220.7460 C   0  0  0  0  0  0  0  0  0  0  0  0
  140.6550   76.0330  221.0450 C   0  0  0  0  0  0  0  0  0  0  0  0
  140.1910   76.2520  222.2540 C   0  0  0  0  0  0  0  0  0  0  0  0
  138.8560   76.8170  222.4270 C   0  0  0  0  0  0  0  0  0  0  0  0
  137.8920   76.0120  222.9630 N   0  0  0  0  0  0  0  0  0  0  0  0
  136.6370   76.3930  223.1740 C   0  0  0  0  0  0  0  0  0  0  0  0
  135.6950   75.5350  223.7220 C   0  0  0  0  0  0  0  0  0  0  0  0
  134.4010   75.9660  223.9270 C   0  0  0  0  0  0  0  0  0  0  0  0
  134.0860   77.2540  223.5730 C   0  0  0  0  0  0  0  0  0  0  0  0
  132.7960   77.6470  223.7890 F   0  0  0  0  0  0  0  0  0  0  0  0
  135.0250   78.1280  223.0180 C   0  0  0  0  0  0  0  0  0  0  0  0
  136.3120   77.7010  222.8150 C   0  0  0  0  0  0  0  0  0  0  0  0
  137.2950   78.5040  222.2740 C   0  0  0  0  0  0  0  0  0  0  0  0
  136.9220   79.6890  221.9730 O   0  0  0  0  0  0  0  0  0  0  0  0
  138.5610   78.0940  222.0700 N   0  0  0  0  0  0  0  0  0  0  0  0
  139.5680   78.9390  221.4920 C   0  0  0  0  0  0  0  0  0  0  0  0
  140.1830   79.9190  222.4320 C   0  0  0  0  0  0  0  0  0  0  0  0
  140.7140   79.3780  223.7080 C   0  0  0  0  0  0  0  0  0  0  0  0
  142.0530   78.6930  223.5550 C   0  0  0  0  0  0  0  0  0  0  0  0
  143.0470   79.6280  223.0270 N   0  0  0  0  0  0  0  0  0  0  0  0
  142.4850   80.8830  222.6340 C   0  0  0  0  0  0  0  0  0  0  0  0
  141.2600   80.7570  221.7540 C   0  0  0  0  0  0  0  0  0  0  0  0
  141.9690   73.9090  221.0700 C   0  0  0  0  0  0  0  0  0  0  0  0
  143.1140   73.1820  220.7710 C   0  0  0  0  0  0  0  0  0  0  0  0
  147.1240   73.9910  218.3650 H   0  0  0  0  0  0  0  0  0  0  0  0
  145.5500   74.1440  217.8360 H   0  0  0  0  0  0  0  0  0  0  0  0
  144.9060   75.6023  219.2841 H   0  0  0  0  0  0  0  0  0  0  0  0
  142.9000   76.8678  219.8113 H   0  0  0  0  0  0  0  0  0  0  0  0
  140.1105   76.4784  220.1994 H   0  0  0  0  0  0  0  0  0  0  0  0
  140.8062   76.0105  223.1333 H   0  0  0  0  0  0  0  0  0  0  0  0
  135.9807   74.5081  223.9938 H   0  0  0  0  0  0  0  0  0  0  0  0
  133.6436   75.2970  224.3615 H   0  0  0  0  0  0  0  0  0  0  0  0
  134.7330   79.1529  222.7455 H   0  0  0  0  0  0  0  0  0  0  0  0
  140.3684   78.2956  221.0978 H   0  0  0  0  0  0  0  0  0  0  0  0
  139.0630   79.5326  220.7157 H   0  0  0  0  0  0  0  0  0  0  0  0
  139.3223   80.5420  222.7169 H   0  0  0  0  0  0  0  0  0  0  0  0
  140.8261   80.2090  224.4199 H   0  0  0  0  0  0  0  0  0  0  0  0
  139.9993   78.6213  224.0639 H   0  0  0  0  0  0  0  0  0  0  0  0
  142.3865   78.3257  224.5368 H   0  0  0  0  0  0  0  0  0  0  0  0
  141.9457   77.8526  222.8535 H   0  0  0  0  0  0  0  0  0  0  0  0
  143.6790   79.1830  222.3390 H   0  0  0  0  0  0  0  0  0  0  0  0
  142.2038   81.4363  223.5422 H   0  0  0  0  0  0  0  0  0  0  0  0
  143.2513   81.4050  222.0422 H   0  0  0  0  0  0  0  0  0  0  0  0
  140.8591   81.7608  221.5500 H   0  0  0  0  0  0  0  0  0  0  0  0
  141.5518   80.2602  220.8170 H   0  0  0  0  0  0  0  0  0  0  0  0
  141.1370   73.4040  221.5826 H   0  0  0  0  0  0  0  0  0  0  0  0
  143.1724   72.1196  221.0500 H   0  0  0  0  0  0  0  0  0  0  0  0
  1  2  1  0
  2  3  2  0
  2  4  2  0
  2  5  1  0
  5  6  2  0
  6  7  1  0
  7  8  2  0
  8  9  1  0
  9 10  2  0
 10 11  1  0
 11 12  2  0
 12 13  1  0
 13 14  2  0
 14 15  1  0
 15 16  2  0
 16 17  1  0
 16 18  1  0
 18 19  2  0
 19 20  1  0
 20 21  2  0
 20 22  1  0
 22 23  1  0
 23 24  1  0
 24 25  1  0
 25 26  1  0
 26 27  1  0
 27 28  1  0
 28 29  1  0
  8 30  1  0
 30 31  2  0
 31  5  1  0
 22 11  1  0
 29 24  1  0
 19 13  1  0
  1 32  1  0
  1 33  1  0
  6 34  1  0
  7 35  1  0
  9 36  1  0
 10 37  1  0
 14 38  1  0
 15 39  1  0
 18 40  1  0
 23 41  1  0
 23 42  1  0
 24 43  1  0
 25 44  1  0
 25 45  1  0
 26 46  1  0
 26 47  1  0
 27 48  1  0
 28 49  1  0
 28 50  1  0
 29 51  1  0
 29 52  1  0
 30 53  1  0
 31 54  1  0
M  END
>  <smiles>  (47) 
NS(=O)(=O)c1ccc(/C=C/c2nc3ccc(F)cc3c(=O)n2CC2CCNCC2)cc1

>  <score_type>  (47) 
oracle

>  <origin>  (47) 
autodockgpu

>  <m_score__min__energy>  (47) 
-10.24

>  <m_primary>  (47) 
energy

>  <rmsd>  (47) 
5.091956744589689

>  <m_score__min__rmsd>  (47) 
5.091956744589689

>  <meeko>  (47) 
{"free_energy": -8.26, "intermolecular_energy": -10.34, "internal_energy": -1.3, "cluster_size": 6, "cluster_id": 3, "rank_in_cluster": 4}

>  <energy>  (47) 
-8.28

>  <cluster_rmsd>  (47) 
0.0

>  <cluster>  (47) 
7

$$$$

     RDKit          3D

 54 57  0  0  0  0  0  0  0  0999 V2000
  146.3500   73.4080  218.5000 N   0  0  0  0  0  0  0  0  0  0  0  0
  145.5490   72.7730  219.8920 S   0  0  0  0  0  0  0  0  0  0  0  0
  146.4420   72.9470  221.0750 O   0  0  0  0  0  0  0  0  0  0  0  0
  145.3040   71.2890  219.7390 O   0  0  0  0  0  0  0  0  0  0  0  0
  144.0450   73.6170  220.1730 C   0  0  0  0  0  0  0  0  0  0  0  0
  143.9620   74.9450  219.8640 C   0  0  0  0  0  0  0  0  0  0  0  0
  142.8080   75.6400  220.0670 C   0  0  0  0  0  0  0  0  0  0  0  0
  141.6490   75.0570  220.5960 C   0  0  0  0  0  0  0  0  0  0  0  0
  140.4360   75.8380  220.7970 C   0  0  0  0  0  0  0  0  0  0  0  0
  140.2980   76.7800  221.7010 C   0  0  0  0  0  0  0  0  0  0  0  0
  138.9650   77.1440  222.1720 C   0  0  0  0  0  0  0  0  0  0  0  0
  138.1620   76.1420  222.6380 N   0  0  0  0  0  0  0  0  0  0  0  0
  136.9280   76.3270  223.0930 C   0  0  0  0  0  0  0  0  0  0  0  0
  136.1530   75.2730  223.5570 C   0  0  0  0  0  0  0  0  0  0  0  0
  134.8770   75.5040  224.0230 C   0  0  0  0  0  0  0  0  0  0  0  0
  134.4080   76.7940  224.0110 C   0  0  0  0  0  0  0  0  0  0  0  0
  133.1400   76.9870  224.4780 F   0  0  0  0  0  0  0  0  0  0  0  0
  135.1780   77.8650  223.5460 C   0  0  0  0  0  0  0  0  0  0  0  0
  136.4480   77.6370  223.0830 C   0  0  0  0  0  0  0  0  0  0  0  0
  137.2680   78.6400  222.6100 C   0  0  0  0  0  0  0  0  0  0  0  0
  136.7600   79.8130  222.6340 O   0  0  0  0  0  0  0  0  0  0  0  0
  138.5170   78.4260  222.1520 N   0  0  0  0  0  0  0  0  0  0  0  0
  139.3520   79.4800  221.6490 C   0  0  0  0  0  0  0  0  0  0  0  0
  140.1110   80.2320  222.6900 C   0  0  0  0  0  0  0  0  0  0  0  0
  140.6150   79.4490  223.8450 C   0  0  0  0  0  0  0  0  0  0  0  0
  141.8560   78.6480  223.5270 C   0  0  0  0  0  0  0  0  0  0  0  0
  142.9370   79.5320  223.0910 N   0  0  0  0  0  0  0  0  0  0  0  0
  142.5170   80.8870  222.9130 C   0  0  0  0  0  0  0  0  0  0  0  0
  141.2570   81.0340  222.0870 C   0  0  0  0  0  0  0  0  0  0  0  0
  141.7530   73.7180  220.9010 C   0  0  0  0  0  0  0  0  0  0  0  0
  142.9250   73.0010  220.6970 C   0  0  0  0  0  0  0  0  0  0  0  0
  147.0870   74.0730  218.8380 H   0  0  0  0  0  0  0  0  0  0  0  0
  145.6360   74.0140  218.0180 H   0  0  0  0  0  0  0  0  0  0  0  0
  144.8391   75.4604  219.4455 H   0  0  0  0  0  0  0  0  0  0  0  0
  142.7851   76.7077  219.8035 H   0  0  0  0  0  0  0  0  0  0  0  0
  139.5756   75.6236  220.1460 H   0  0  0  0  0  0  0  0  0  0  0  0
  141.1842   77.2935  222.1024 H   0  0  0  0  0  0  0  0  0  0  0  0
  136.5586   74.2505  223.5527 H   0  0  0  0  0  0  0  0  0  0  0  0
  134.2521   74.6783  224.3940 H   0  0  0  0  0  0  0  0  0  0  0  0
  134.7666   78.8851  223.5518 H   0  0  0  0  0  0  0  0  0  0  0  0
  140.0774   79.0373  220.9505 H   0  0  0  0  0  0  0  0  0  0  0  0
  138.6774   80.2074  221.1738 H   0  0  0  0  0  0  0  0  0  0  0  0
  139.3413   80.8988  223.1059 H   0  0  0  0  0  0  0  0  0  0  0  0
  140.8490   80.1454  224.6637 H   0  0  0  0  0  0  0  0  0  0  0  0
  139.8271   78.7334  224.1227 H   0  0  0  0  0  0  0  0  0  0  0  0
  142.1753   78.1020  224.4270 H   0  0  0  0  0  0  0  0  0  0  0  0
  141.6256   77.9405  222.7169 H   0  0  0  0  0  0  0  0  0  0  0  0
  143.4880   79.1260  222.3140 H   0  0  0  0  0  0  0  0  0  0  0  0
  142.3344   81.3264  223.9048 H   0  0  0  0  0  0  0  0  0  0  0  0
  143.3203   81.4014  222.3652 H   0  0  0  0  0  0  0  0  0  0  0  0
  140.9726   82.0960  222.0509 H   0  0  0  0  0  0  0  0  0  0  0  0
  141.4559   80.6531  221.0744 H   0  0  0  0  0  0  0  0  0  0  0  0
  140.8785   73.1989  221.3203 H   0  0  0  0  0  0  0  0  0  0  0  0
  142.9617   71.9324  220.9552 H   0  0  0  0  0  0  0  0  0  0  0  0
  1  2  1  0
  2  3  2  0
  2  4  2  0
  2  5  1  0
  5  6  2  0
  6  7  1  0
  7  8  2  0
  8  9  1  0
  9 10  2  0
 10 11  1  0
 11 12  2  0
 12 13  1  0
 13 14  2  0
 14 15  1  0
 15 16  2  0
 16 17  1  0
 16 18  1  0
 18 19  2  0
 19 20  1  0
 20 21  2  0
 20 22  1  0
 22 23  1  0
 23 24  1  0
 24 25  1  0
 25 26  1  0
 26 27  1  0
 27 28  1  0
 28 29  1  0
  8 30  1  0
 30 31  2  0
 31  5  1  0
 22 11  1  0
 29 24  1  0
 19 13  1  0
  1 32  1  0
  1 33  1  0
  6 34  1  0
  7 35  1  0
  9 36  1  0
 10 37  1  0
 14 38  1  0
 15 39  1  0
 18 40  1  0
 23 41  1  0
 23 42  1  0
 24 43  1  0
 25 44  1  0
 25 45  1  0
 26 46  1  0
 26 47  1  0
 27 48  1  0
 28 49  1  0
 28 50  1  0
 29 51  1  0
 29 52  1  0
 30 53  1  0
 31 54  1  0
M  END
>  <smiles>  (48) 
NS(=O)(=O)c1ccc(/C=C/c2nc3ccc(F)cc3c(=O)n2CC2CCNCC2)cc1

>  <score_type>  (48) 
oracle

>  <origin>  (48) 
autodockgpu

>  <m_score__min__energy>  (48) 
-10.24

>  <m_primary>  (48) 
energy

>  <rmsd>  (48) 
5.001159760308798

>  <m_score__min__rmsd>  (48) 
5.001159760308798

>  <meeko>  (48) 
{"free_energy": -8.58, "intermolecular_energy": -10.67, "internal_energy": -1.23, "cluster_size": 6, "cluster_id": 3, "rank_in_cluster": 1}

>  <energy>  (48) 
-8.0

>  <cluster_rmsd>  (48) 
0.0

>  <cluster>  (48) 
8

$$$$

     RDKit          3D

 54 57  0  0  0  0  0  0  0  0999 V2000
  145.9340   71.5380  219.7930 N   0  0  0  0  0  0  0  0  0  0  0  0
  145.2190   73.1000  219.9730 S   0  0  0  0  0  0  0  0  0  0  0  0
  145.2030   73.7720  218.6410 O   0  0  0  0  0  0  0  0  0  0  0  0
  146.0510   73.9660  220.8930 O   0  0  0  0  0  0  0  0  0  0  0  0
  143.5840   72.9620  220.5740 C   0  0  0  0  0  0  0  0  0  0  0  0
  142.7550   74.0450  220.4920 C   0  0  0  0  0  0  0  0  0  0  0  0
  141.4730   73.9800  220.9480 C   0  0  0  0  0  0  0  0  0  0  0  0
  140.9250   72.8250  221.5220 C   0  0  0  0  0  0  0  0  0  0  0  0
  139.5480   72.7990  221.9970 C   0  0  0  0  0  0  0  0  0  0  0  0
  138.8780   71.7050  222.2810 C   0  0  0  0  0  0  0  0  0  0  0  0
  139.2070   70.9440  223.4820 C   0  0  0  0  0  0  0  0  0  0  0  0
  139.9330   71.5740  224.4520 N   0  0  0  0  0  0  0  0  0  0  0  0
  140.3050   71.0040  225.5930 C   0  0  0  0  0  0  0  0  0  0  0  0
  141.0420   71.6890  226.5470 C   0  0  0  0  0  0  0  0  0  0  0  0
  141.4090   71.0640  227.7200 C   0  0  0  0  0  0  0  0  0  0  0  0
  141.0240   69.7590  227.9040 C   0  0  0  0  0  0  0  0  0  0  0  0
  141.4060   69.1710  229.0760 F   0  0  0  0  0  0  0  0  0  0  0  0
  140.2820   69.0580  226.9510 C   0  0  0  0  0  0  0  0  0  0  0  0
  139.9160   69.6780  225.7840 C   0  0  0  0  0  0  0  0  0  0  0  0
  139.1830   69.0520  224.7970 C   0  0  0  0  0  0  0  0  0  0  0  0
  138.8620   67.8400  225.0450 O   0  0  0  0  0  0  0  0  0  0  0  0
  138.8190   69.6530  223.6480 N   0  0  0  0  0  0  0  0  0  0  0  0
  138.0690   68.9820  222.6240 C   0  0  0  0  0  0  0  0  0  0  0  0
  136.6360   69.3850  222.5280 C   0  0  0  0  0  0  0  0  0  0  0  0
  135.8210   68.7110  221.4870 C   0  0  0  0  0  0  0  0  0  0  0  0
  135.3970   67.3130  221.8740 C   0  0  0  0  0  0  0  0  0  0  0  0
  134.6020   67.3420  223.1020 N   0  0  0  0  0  0  0  0  0  0  0  0
  134.5650   68.6330  223.7160 C   0  0  0  0  0  0  0  0  0  0  0  0
  135.9250   69.2780  223.8710 C   0  0  0  0  0  0  0  0  0  0  0  0
  141.7770   71.7450  221.5950 C   0  0  0  0  0  0  0  0  0  0  0  0
  143.0850   71.8020  221.1320 C   0  0  0  0  0  0  0  0  0  0  0  0
  145.2170   70.8300  220.0820 H   0  0  0  0  0  0  0  0  0  0  0  0
  146.6830   71.4860  220.5320 H   0  0  0  0  0  0  0  0  0  0  0  0
  143.1277   74.9817  220.0520 H   0  0  0  0  0  0  0  0  0  0  0  0
  140.8391   74.8748  220.8617 H   0  0  0  0  0  0  0  0  0  0  0  0
  139.0333   73.7624  222.1269 H   0  0  0  0  0  0  0  0  0  0  0  0
  138.0714   71.3637  221.6154 H   0  0  0  0  0  0  0  0  0  0  0  0
  141.3348   72.7340  226.3675 H   0  0  0  0  0  0  0  0  0  0  0  0
  141.9931   71.5953  228.4859 H   0  0  0  0  0  0  0  0  0  0  0  0
  139.9924   68.0130  227.1357 H   0  0  0  0  0  0  0  0  0  0  0  0
  138.5484   69.1919  221.6564 H   0  0  0  0  0  0  0  0  0  0  0  0
  138.0718   67.9145  222.8893 H   0  0  0  0  0  0  0  0  0  0  0  0
  136.7090   70.4341  222.2052 H   0  0  0  0  0  0  0  0  0  0  0  0
  134.9180   69.3126  221.3064 H   0  0  0  0  0  0  0  0  0  0  0  0
  136.4475   68.6247  220.5870 H   0  0  0  0  0  0  0  0  0  0  0  0
  134.7943   66.8794  221.0623 H   0  0  0  0  0  0  0  0  0  0  0  0
  136.2958   66.7024  222.0455 H   0  0  0  0  0  0  0  0  0  0  0  0
  134.8230   66.5510  223.7320 H   0  0  0  0  0  0  0  0  0  0  0  0
  133.9375   69.2923  223.0983 H   0  0  0  0  0  0  0  0  0  0  0  0
  134.1610   68.4928  224.7295 H   0  0  0  0  0  0  0  0  0  0  0  0
  135.7988   70.2863  224.2923 H   0  0  0  0  0  0  0  0  0  0  0  0
  136.5343   68.6533  224.5407 H   0  0  0  0  0  0  0  0  0  0  0  0
  141.4090   70.8062  222.0347 H   0  0  0  0  0  0  0  0  0  0  0  0
  143.7298   70.9143  221.2106 H   0  0  0  0  0  0  0  0  0  0  0  0
  1  2  1  0
  2  3  2  0
  2  4  2  0
  2  5  1  0
  5  6  2  0
  6  7  1  0
  7  8  2  0
  8  9  1  0
  9 10  2  0
 10 11  1  0
 11 12  2  0
 12 13  1  0
 13 14  2  0
 14 15  1  0
 15 16  2  0
 16 17  1  0
 16 18  1  0
 18 19  2  0
 19 20  1  0
 20 21  2  0
 20 22  1  0
 22 23  1  0
 23 24  1  0
 24 25  1  0
 25 26  1  0
 26 27  1  0
 27 28  1  0
 28 29  1  0
  8 30  1  0
 30 31  2  0
 31  5  1  0
 22 11  1  0
 29 24  1  0
 19 13  1  0
  1 32  1  0
  1 33  1  0
  6 34  1  0
  7 35  1  0
  9 36  1  0
 10 37  1  0
 14 38  1  0
 15 39  1  0
 18 40  1  0
 23 41  1  0
 23 42  1  0
 24 43  1  0
 25 44  1  0
 25 45  1  0
 26 46  1  0
 26 47  1  0
 27 48  1  0
 28 49  1  0
 28 50  1  0
 29 51  1  0
 29 52  1  0
 30 53  1  0
 31 54  1  0
M  END
>  <smiles>  (49) 
NS(=O)(=O)c1ccc(/C=C/c2nc3ccc(F)cc3c(=O)n2CC2CCNCC2)cc1

>  <score_type>  (49) 
oracle

>  <origin>  (49) 
autodockgpu

>  <m_score__min__energy>  (49) 
-10.24

>  <m_primary>  (49) 
energy

>  <rmsd>  (49) 
11.969889115065843

>  <m_score__min__rmsd>  (49) 
11.969889115065843

>  <meeko>  (49) 
{"free_energy": -8.28, "intermolecular_energy": -10.37, "internal_energy": -1.35, "cluster_size": 1, "cluster_id": 7, "rank_in_cluster": 1}

>  <energy>  (49) 
-7.61

>  <cluster_rmsd>  (49) 
0.0

>  <cluster>  (49) 
9

$$$$

     RDKit          3D

 54 57  0  0  0  0  0  0  0  0999 V2000
  131.7480   71.4590  226.9990 N   0  0  0  0  0  0  0  0  0  0  0  0
  133.4180   71.9010  226.9980 S   0  0  0  0  0  0  0  0  0  0  0  0
  134.0090   71.5230  228.3150 O   0  0  0  0  0  0  0  0  0  0  0  0
  133.5750   73.3980  226.8570 O   0  0  0  0  0  0  0  0  0  0  0  0
  134.2730   71.0720  225.7200 C   0  0  0  0  0  0  0  0  0  0  0  0
  134.5070   69.7310  225.8400 C   0  0  0  0  0  0  0  0  0  0  0  0
  135.1710   69.0470  224.8670 C   0  0  0  0  0  0  0  0  0  0  0  0
  135.6490   69.6530  223.6980 C   0  0  0  0  0  0  0  0  0  0  0  0
  136.3530   68.8840  222.6820 C   0  0  0  0  0  0  0  0  0  0  0  0
  137.6280   68.5680  222.7360 C   0  0  0  0  0  0  0  0  0  0  0  0
  138.4470   69.0490  223.8440 C   0  0  0  0  0  0  0  0  0  0  0  0
  138.8370   68.1390  224.7850 N   0  0  0  0  0  0  0  0  0  0  0  0
  139.5810   68.4360  225.8450 C   0  0  0  0  0  0  0  0  0  0  0  0
  139.9510   67.4730  226.7720 C   0  0  0  0  0  0  0  0  0  0  0  0
  140.7240   67.8190  227.8600 C   0  0  0  0  0  0  0  0  0  0  0  0
  141.1070   69.1310  227.9890 C   0  0  0  0  0  0  0  0  0  0  0  0
  141.8710   69.4390  229.0780 F   0  0  0  0  0  0  0  0  0  0  0  0
  140.7410   70.1110  227.0620 C   0  0  0  0  0  0  0  0  0  0  0  0
  139.9730   69.7680  225.9800 C   0  0  0  0  0  0  0  0  0  0  0  0
  139.5730   70.6780  225.0220 C   0  0  0  0  0  0  0  0  0  0  0  0
  139.9720   71.8770  225.2120 O   0  0  0  0  0  0  0  0  0  0  0  0
  138.8180   70.3510  223.9560 N   0  0  0  0  0  0  0  0  0  0  0  0
  138.3970   71.3130  222.9770 C   0  0  0  0  0  0  0  0  0  0  0  0
  139.3580   71.5330  221.8580 C   0  0  0  0  0  0  0  0  0  0  0  0
  139.0000   72.5760  220.8650 C   0  0  0  0  0  0  0  0  0  0  0  0
  139.2590   73.9820  221.3560 C   0  0  0  0  0  0  0  0  0  0  0  0
  140.6740   74.1560  221.6840 N   0  0  0  0  0  0  0  0  0  0  0  0
  141.4180   72.9370  221.6230 C   0  0  0  0  0  0  0  0  0  0  0  0
  140.7720   71.7870  222.3660 C   0  0  0  0  0  0  0  0  0  0  0  0
  135.4030   71.0050  223.5960 C   0  0  0  0  0  0  0  0  0  0  0  0
  134.7280   71.7110  224.5830 C   0  0  0  0  0  0  0  0  0  0  0  0
  131.2750   72.0220  226.2520 H   0  0  0  0  0  0  0  0  0  0  0  0
  131.3610   71.8290  227.9060 H   0  0  0  0  0  0  0  0  0  0  0  0
  134.1544   69.1967  226.7345 H   0  0  0  0  0  0  0  0  0  0  0  0
  135.3397   67.9689  225.0057 H   0  0  0  0  0  0  0  0  0  0  0  0
  135.7781   68.5436  221.8082 H   0  0  0  0  0  0  0  0  0  0  0  0
  138.0758   67.9434  221.9490 H   0  0  0  0  0  0  0  0  0  0  0  0
  139.6269   66.4303  226.6388 H   0  0  0  0  0  0  0  0  0  0  0  0
  141.0250   67.0658  228.6030 H   0  0  0  0  0  0  0  0  0  0  0  0
  141.0677   71.1522  227.2002 H   0  0  0  0  0  0  0  0  0  0  0  0
  137.4450   70.9684  222.5469 H   0  0  0  0  0  0  0  0  0  0  0  0
  138.3140   72.2742  223.5054 H   0  0  0  0  0  0  0  0  0  0  0  0
  139.3022   70.5803  221.3110 H   0  0  0  0  0  0  0  0  0  0  0  0
  139.5935   72.4093  219.9540 H   0  0  0  0  0  0  0  0  0  0  0  0
  137.9196   72.4901  220.6769 H   0  0  0  0  0  0  0  0  0  0  0  0
  138.9788   74.6979  220.5692 H   0  0  0  0  0  0  0  0  0  0  0  0
  138.6589   74.1599  222.2606 H   0  0  0  0  0  0  0  0  0  0  0  0
  140.8130   74.7260  222.5360 H   0  0  0  0  0  0  0  0  0  0  0  0
  141.5264   72.6497  220.5667 H   0  0  0  0  0  0  0  0  0  0  0  0
  142.3857   73.1285  222.1097 H   0  0  0  0  0  0  0  0  0  0  0  0
  141.3756   70.8793  222.2184 H   0  0  0  0  0  0  0  0  0  0  0  0
  140.7191   72.0458  223.4338 H   0  0  0  0  0  0  0  0  0  0  0  0
  135.7531   71.5431  222.7027 H   0  0  0  0  0  0  0  0  0  0  0  0
  134.5539   72.7899  224.4582 H   0  0  0  0  0  0  0  0  0  0  0  0
  1  2  1  0
  2  3  2  0
  2  4  2  0
  2  5  1  0
  5  6  2  0
  6  7  1  0
  7  8  2  0
  8  9  1  0
  9 10  2  0
 10 11  1  0
 11 12  2  0
 12 13  1  0
 13 14  2  0
 14 15  1  0
 15 16  2  0
 16 17  1  0
 16 18  1  0
 18 19  2  0
 19 20  1  0
 20 21  2  0
 20 22  1  0
 22 23  1  0
 23 24  1  0
 24 25  1  0
 25 26  1  0
 26 27  1  0
 27 28  1  0
 28 29  1  0
  8 30  1  0
 30 31  2  0
 31  5  1  0
 22 11  1  0
 29 24  1  0
 19 13  1  0
  1 32  1  0
  1 33  1  0
  6 34  1  0
  7 35  1  0
  9 36  1  0
 10 37  1  0
 14 38  1  0
 15 39  1  0
 18 40  1  0
 23 41  1  0
 23 42  1  0
 24 43  1  0
 25 44  1  0
 25 45  1  0
 26 46  1  0
 26 47  1  0
 27 48  1  0
 28 49  1  0
 28 50  1  0
 29 51  1  0
 29 52  1  0
 30 53  1  0
 31 54  1  0
M  END
>  <smiles>  (50) 
NS(=O)(=O)c1ccc(/C=C/c2nc3ccc(F)cc3c(=O)n2CC2CCNCC2)cc1

>  <score_type>  (50) 
oracle

>  <origin>  (50) 
autodockgpu

>  <m_score__min__energy>  (50) 
-10.24

>  <m_primary>  (50) 
energy

>  <rmsd>  (50) 
9.969095021358646

>  <m_score__min__rmsd>  (50) 
9.969095021358646

>  <meeko>  (50) 
{"free_energy": -7.46, "intermolecular_energy": -9.55, "internal_energy": -1.63, "cluster_size": 1, "cluster_id": 10, "rank_in_cluster": 1}

>  <energy>  (50) 
-7.46

>  <cluster_rmsd>  (50) 
0.0

>  <cluster>  (50) 
10

$$$$
