
     RDKit          3D

 49 52  0  0  0  0  0  0  0  0999 V2000
  140.2970   74.2910  222.3420 O   0  0  0  0  0  0  0  0  0  0  0  0
  140.0520   73.1160  221.9690 C   0  0  0  0  0  0  0  0  0  0  0  0
  139.9090   72.8750  220.5840 N   0  0  0  0  0  0  0  0  0  0  0  0
  140.0300   73.9110  219.5890 C   0  0  0  0  0  0  0  0  0  0  0  0
  141.3900   74.5000  219.6220 C   0  0  0  0  0  0  0  0  0  0  0  0
  141.6050   75.7160  219.8300 O   0  0  0  0  0  0  0  0  0  0  0  0
  142.4970   73.6320  219.4070 N   0  0  0  0  0  0  0  0  0  0  0  0
  143.6030   73.8030  218.4510 C   0  0  0  0  0  0  0  0  0  0  0  0
  144.7660   73.4120  219.2790 C   0  0  2  0  0  0  0  0  0  0  0  0
  145.9420   73.2270  218.5850 O   0  0  0  0  0  0  0  0  0  0  0  0
  144.3240   72.3080  220.1250 C   0  0  2  0  0  0  0  0  0  0  0  0
  144.7340   70.9430  219.7500 C   0  0  0  0  0  0  0  0  0  0  0  0
  146.0050   70.5990  219.3420 C   0  0  0  0  0  0  0  0  0  0  0  0
  146.3630   69.3050  218.9960 C   0  0  0  0  0  0  0  0  0  0  0  0
  145.4470   68.2760  219.0440 C   0  0  0  0  0  0  0  0  0  0  0  0
  145.8750   66.6560  218.6170 Cl  0  0  0  0  0  0  0  0  0  0  0  0
  144.1700   68.5980  219.4500 C   0  0  0  0  0  0  0  0  0  0  0  0
  143.8150   69.8850  219.7940 C   0  0  0  0  0  0  0  0  0  0  0  0
  142.8180   72.3740  220.0650 C   0  0  0  0  0  0  0  0  0  0  0  0
  139.9150   72.0030  222.9200 C   0  0  0  0  0  0  0  0  0  0  0  0
  139.1790   70.8870  222.5680 C   0  0  0  0  0  0  0  0  0  0  0  0
  139.0800   69.8600  223.5080 C   0  0  0  0  0  0  0  0  0  0  0  0
  139.6980   69.9580  224.7460 C   0  0  0  0  0  0  0  0  0  0  0  0
  139.6280   68.9720  225.7000 C   0  0  0  0  0  0  0  0  0  0  0  0
  140.2580   69.1080  226.9210 C   0  0  0  0  0  0  0  0  0  0  0  0
  140.9740   70.2620  227.1870 C   0  0  0  0  0  0  0  0  0  0  0  0
  141.0660   71.2690  226.2570 C   0  0  0  0  0  0  0  0  0  0  0  0
  140.4180   71.0870  225.0490 C   0  0  0  0  0  0  0  0  0  0  0  0
  140.5160   72.0840  224.1410 N   0  0  0  0  0  0  0  0  0  0  0  0
  139.7070   71.8910  220.2940 H   0  0  0  0  0  0  0  0  0  0  0  0
  139.8447   73.4814  218.5935 H   0  0  0  0  0  0  0  0  0  0  0  0
  139.2934   74.6996  219.8023 H   0  0  0  0  0  0  0  0  0  0  0  0
  143.4882   73.1411  217.5800 H   0  0  0  0  0  0  0  0  0  0  0  0
  143.6751   74.8133  218.0220 H   0  0  0  0  0  0  0  0  0  0  0  0
  145.0793   74.2469  219.9230 H   0  0  0  0  0  0  0  0  0  0  0  0
  146.3490   74.1160  218.3960 H   0  0  0  0  0  0  0  0  0  0  0  0
  144.7939   72.4499  221.1094 H   0  0  0  0  0  0  0  0  0  0  0  0
  146.7703   71.3873  219.2885 H   0  0  0  0  0  0  0  0  0  0  0  0
  147.3951   69.0960  218.6779 H   0  0  0  0  0  0  0  0  0  0  0  0
  143.4107   67.8038  219.5011 H   0  0  0  0  0  0  0  0  0  0  0  0
  142.7816   70.0875  220.1120 H   0  0  0  0  0  0  0  0  0  0  0  0
  142.4212   71.5275  219.4854 H   0  0  0  0  0  0  0  0  0  0  0  0
  142.3722   72.3195  221.0691 H   0  0  0  0  0  0  0  0  0  0  0  0
  138.6904   70.8113  221.5854 H   0  0  0  0  0  0  0  0  0  0  0  0
  138.5017   68.9570  223.2628 H   0  0  0  0  0  0  0  0  0  0  0  0
  139.0584   68.0554  225.4867 H   0  0  0  0  0  0  0  0  0  0  0  0
  140.1916   68.3085  227.6735 H   0  0  0  0  0  0  0  0  0  0  0  0
  141.4775   70.3748  228.1585 H   0  0  0  0  0  0  0  0  0  0  0  0
  141.6347   72.1871  226.4658 H   0  0  0  0  0  0  0  0  0  0  0  0
  1  2  2  0
  2  3  1  0
  3  4  1  0
  4  5  1  0
  5  6  2  0
  5  7  1  0
  7  8  1  0
  8  9  1  0
  9 10  1  0
  9 11  1  0
 11 12  1  0
 12 13  2  0
 13 14  1  0
 14 15  2  0
 15 16  1  0
 15 17  1  0
 17 18  2  0
 11 19  1  0
  2 20  1  0
 20 21  2  0
 21 22  1  0
 22 23  2  0
 23 24  1  0
 24 25  2  0
 25 26  1  0
 26 27  2  0
 27 28  1  0
 28 29  2  0
 19  7  1  0
 29 20  1  0
 18 12  1  0
 28 23  1  0
  3 30  1  0
  4 31  1  0
  4 32  1  0
  8 33  1  0
  8 34  1  0
  9 35  1  1
 10 36  1  0
 11 37  1  1
 13 38  1  0
 14 39  1  0
 17 40  1  0
 18 41  1  0
 19 42  1  0
 19 43  1  0
 21 44  1  0
 22 45  1  0
 24 46  1  0
 25 47  1  0
 26 48  1  0
 27 49  1  0
M  END
>  <smiles>  (1) 
O=C(NCC(=O)N1C[C@H](O)[C@H](c2ccc(Cl)cc2)C1)c1ccc2ccccc2n1

>  <score_type>  (1) 
oracle

>  <origin>  (1) 
autodockgpu

>  <m_score__min__energy>  (1) 
-9.3800000000000008

>  <m_primary>  (1) 
energy

>  <rmsd>  (1) 
4.0747085586059715

>  <m_score__min__rmsd>  (1) 
4.0747085586059715

>  <meeko>  (1) 
{"free_energy": -8.32, "intermolecular_energy": -10.11, "internal_energy": -1.22, "cluster_size": 11, "cluster_id": 3, "rank_in_cluster": 11}

>  <energy>  (1) 
-9.38

>  <cluster_rmsd>  (1) 
0.0

>  <cluster>  (1) 
1

$$$$

     RDKit          3D

 49 52  0  0  0  0  0  0  0  0999 V2000
  140.2860   71.4180  221.2020 O   0  0  0  0  0  0  0  0  0  0  0  0
  140.0590   71.9900  222.2980 C   0  0  0  0  0  0  0  0  0  0  0  0
  139.8080   73.3810  222.2800 N   0  0  0  0  0  0  0  0  0  0  0  0
  139.8010   74.1640  221.0700 C   0  0  0  0  0  0  0  0  0  0  0  0
  141.1330   74.7740  220.8440 C   0  0  0  0  0  0  0  0  0  0  0  0
  141.4010   75.9620  221.1360 O   0  0  0  0  0  0  0  0  0  0  0  0
  142.1480   73.9600  220.2680 N   0  0  0  0  0  0  0  0  0  0  0  0
  142.7270   74.0640  218.9190 C   0  0  0  0  0  0  0  0  0  0  0  0
  144.1670   73.8770  219.2060 C   0  0  2  0  0  0  0  0  0  0  0  0
  144.9620   73.6710  218.0990 O   0  0  0  0  0  0  0  0  0  0  0  0
  144.2550   72.8810  220.2690 C   0  0  2  0  0  0  0  0  0  0  0  0
  144.6360   71.5050  219.8980 C   0  0  0  0  0  0  0  0  0  0  0  0
  143.8130   70.4080  220.0360 C   0  0  0  0  0  0  0  0  0  0  0  0
  144.1970   69.1250  219.6780 C   0  0  0  0  0  0  0  0  0  0  0  0
  145.4490   68.8780  219.1550 C   0  0  0  0  0  0  0  0  0  0  0  0
  145.9470   67.2840  218.7020 Cl  0  0  0  0  0  0  0  0  0  0  0  0
  146.2890   69.9600  219.0090 C   0  0  0  0  0  0  0  0  0  0  0  0
  145.9050   71.2360  219.3660 C   0  0  0  0  0  0  0  0  0  0  0  0
  142.8640   72.8350  220.8510 C   0  0  0  0  0  0  0  0  0  0  0  0
  140.0480   71.2640  223.5760 C   0  0  0  0  0  0  0  0  0  0  0  0
  139.5510   69.9750  223.6280 C   0  0  0  0  0  0  0  0  0  0  0  0
  139.5630   69.3310  224.8660 C   0  0  0  0  0  0  0  0  0  0  0  0
  140.0570   69.9620  225.9990 C   0  0  0  0  0  0  0  0  0  0  0  0
  140.0890   69.3670  227.2360 C   0  0  0  0  0  0  0  0  0  0  0  0
  140.5890   70.0300  228.3390 C   0  0  0  0  0  0  0  0  0  0  0  0
  141.0670   71.3210  228.1930 C   0  0  0  0  0  0  0  0  0  0  0  0
  141.0500   71.9470  226.9710 C   0  0  0  0  0  0  0  0  0  0  0  0
  140.5400   71.2440  225.8960 C   0  0  0  0  0  0  0  0  0  0  0  0
  140.5300   71.8700  224.6980 N   0  0  0  0  0  0  0  0  0  0  0  0
  139.6210   73.8390  223.2020 H   0  0  0  0  0  0  0  0  0  0  0  0
  139.5504   73.5140  220.2187 H   0  0  0  0  0  0  0  0  0  0  0  0
  139.0526   74.9644  221.1662 H   0  0  0  0  0  0  0  0  0  0  0  0
  142.3433   73.2760  218.2543 H   0  0  0  0  0  0  0  0  0  0  0  0
  142.4898   75.0035  218.3983 H   0  0  0  0  0  0  0  0  0  0  0  0
  144.6140   74.8163  219.5636 H   0  0  0  0  0  0  0  0  0  0  0  0
  145.5280   74.4780  217.9530 H   0  0  0  0  0  0  0  0  0  0  0  0
  145.0696   73.1968  220.9373 H   0  0  0  0  0  0  0  0  0  0  0  0
  142.8047   70.5575  220.4494 H   0  0  0  0  0  0  0  0  0  0  0  0
  143.4924   68.2912  219.8131 H   0  0  0  0  0  0  0  0  0  0  0  0
  147.2960   69.8018  218.5954 H   0  0  0  0  0  0  0  0  0  0  0  0
  146.6143   72.0656  219.2294 H   0  0  0  0  0  0  0  0  0  0  0  0
  142.3699   71.8887  220.5859 H   0  0  0  0  0  0  0  0  0  0  0  0
  142.8844   72.8957  221.9491 H   0  0  0  0  0  0  0  0  0  0  0  0
  139.1612   69.4763  222.7284 H   0  0  0  0  0  0  0  0  0  0  0  0
  139.1740   68.3051  224.9452 H   0  0  0  0  0  0  0  0  0  0  0  0
  139.7086   68.3413  227.3505 H   0  0  0  0  0  0  0  0  0  0  0  0
  140.6073   69.5380  229.3227 H   0  0  0  0  0  0  0  0  0  0  0  0
  141.4664   71.8532  229.0689 H   0  0  0  0  0  0  0  0  0  0  0  0
  141.4292   72.9727  226.8518 H   0  0  0  0  0  0  0  0  0  0  0  0
  1  2  2  0
  2  3  1  0
  3  4  1  0
  4  5  1  0
  5  6  2  0
  5  7  1  0
  7  8  1  0
  8  9  1  0
  9 10  1  0
  9 11  1  0
 11 12  1  0
 12 13  2  0
 13 14  1  0
 14 15  2  0
 15 16  1  0
 15 17  1  0
 17 18  2  0
 11 19  1  0
  2 20  1  0
 20 21  2  0
 21 22  1  0
 22 23  2  0
 23 24  1  0
 24 25  2  0
 25 26  1  0
 26 27  2  0
 27 28  1  0
 28 29  2  0
 19  7  1  0
 29 20  1  0
 18 12  1  0
 28 23  1  0
  3 30  1  0
  4 31  1  0
  4 32  1  0
  8 33  1  0
  8 34  1  0
  9 35  1  1
 10 36  1  0
 11 37  1  1
 13 38  1  0
 14 39  1  0
 17 40  1  0
 18 41  1  0
 19 42  1  0
 19 43  1  0
 21 44  1  0
 22 45  1  0
 24 46  1  0
 25 47  1  0
 26 48  1  0
 27 49  1  0
M  END
>  <smiles>  (2) 
O=C(NCC(=O)N1C[C@H](O)[C@H](c2ccc(Cl)cc2)C1)c1ccc2ccccc2n1

>  <score_type>  (2) 
oracle

>  <origin>  (2) 
autodockgpu

>  <m_score__min__energy>  (2) 
-9.3800000000000008

>  <m_primary>  (2) 
energy

>  <rmsd>  (2) 
3.5878588452817533

>  <m_score__min__rmsd>  (2) 
3.5878588452817533

>  <meeko>  (2) 
{"free_energy": -8.67, "intermolecular_energy": -10.46, "internal_energy": -1.57, "cluster_size": 11, "cluster_id": 3, "rank_in_cluster": 5}

>  <energy>  (2) 
-9.2

>  <cluster_rmsd>  (2) 
1.57

>  <cluster>  (2) 
1

$$$$

     RDKit          3D

 49 52  0  0  0  0  0  0  0  0999 V2000
  140.2570   71.3240  221.1910 O   0  0  0  0  0  0  0  0  0  0  0  0
  140.0570   71.9080  222.2850 C   0  0  0  0  0  0  0  0  0  0  0  0
  139.8390   73.3040  222.2620 N   0  0  0  0  0  0  0  0  0  0  0  0
  139.8380   74.0800  221.0470 C   0  0  0  0  0  0  0  0  0  0  0  0
  141.1680   74.7010  220.8320 C   0  0  0  0  0  0  0  0  0  0  0  0
  141.4210   75.8940  221.1150 O   0  0  0  0  0  0  0  0  0  0  0  0
  142.1970   73.8910  220.2770 N   0  0  0  0  0  0  0  0  0  0  0  0
  142.8580   74.0440  218.9700 C   0  0  0  0  0  0  0  0  0  0  0  0
  144.2750   73.8090  219.3320 C   0  0  2  0  0  0  0  0  0  0  0  0
  145.1300   73.6370  218.2650 O   0  0  0  0  0  0  0  0  0  0  0  0
  144.2780   72.7620  220.3490 C   0  0  2  0  0  0  0  0  0  0  0  0
  144.6510   71.3980  219.9350 C   0  0  0  0  0  0  0  0  0  0  0  0
  143.8230   70.3000  220.0420 C   0  0  0  0  0  0  0  0  0  0  0  0
  144.2010   69.0270  219.6430 C   0  0  0  0  0  0  0  0  0  0  0  0
  145.4480   68.7900  219.1080 C   0  0  0  0  0  0  0  0  0  0  0  0
  145.9380   67.2090  218.6040 Cl  0  0  0  0  0  0  0  0  0  0  0  0
  146.2930   69.8730  218.9920 C   0  0  0  0  0  0  0  0  0  0  0  0
  145.9160   71.1390  219.3890 C   0  0  0  0  0  0  0  0  0  0  0  0
  142.8540   72.7230  220.8460 C   0  0  0  0  0  0  0  0  0  0  0  0
  140.0410   71.1890  223.5680 C   0  0  0  0  0  0  0  0  0  0  0  0
  139.5310   69.9060  223.6290 C   0  0  0  0  0  0  0  0  0  0  0  0
  139.5400   69.2700  224.8710 C   0  0  0  0  0  0  0  0  0  0  0  0
  140.0440   69.9030  225.9980 C   0  0  0  0  0  0  0  0  0  0  0  0
  140.0730   69.3150  227.2390 C   0  0  0  0  0  0  0  0  0  0  0  0
  140.5820   69.9800  228.3370 C   0  0  0  0  0  0  0  0  0  0  0  0
  141.0730   71.2640  228.1810 C   0  0  0  0  0  0  0  0  0  0  0  0
  141.0600   71.8830  226.9550 C   0  0  0  0  0  0  0  0  0  0  0  0
  140.5400   71.1790  225.8870 C   0  0  0  0  0  0  0  0  0  0  0  0
  140.5320   71.7970  224.6840 N   0  0  0  0  0  0  0  0  0  0  0  0
  139.6740   73.7720  223.1820 H   0  0  0  0  0  0  0  0  0  0  0  0
  139.6026   73.4229  220.1968 H   0  0  0  0  0  0  0  0  0  0  0  0
  139.0814   74.8741  221.1301 H   0  0  0  0  0  0  0  0  0  0  0  0
  142.4980   73.2974  218.2468 H   0  0  0  0  0  0  0  0  0  0  0  0
  142.6724   75.0122  218.4819 H   0  0  0  0  0  0  0  0  0  0  0  0
  144.7199   74.7191  219.7606 H   0  0  0  0  0  0  0  0  0  0  0  0
  145.2700   74.5170  217.8180 H   0  0  0  0  0  0  0  0  0  0  0  0
  145.0577   73.0257  221.0787 H   0  0  0  0  0  0  0  0  0  0  0  0
  142.8166   70.4407  220.4632 H   0  0  0  0  0  0  0  0  0  0  0  0
  143.4933   68.1925  219.7556 H   0  0  0  0  0  0  0  0  0  0  0  0
  147.2978   69.7231  218.5703 H   0  0  0  0  0  0  0  0  0  0  0  0
  146.6284   71.9692  219.2739 H   0  0  0  0  0  0  0  0  0  0  0  0
  142.3564   71.8022  220.5077 H   0  0  0  0  0  0  0  0  0  0  0  0
  142.8110   72.7327  221.9451 H   0  0  0  0  0  0  0  0  0  0  0  0
  139.1336   69.4058  222.7336 H   0  0  0  0  0  0  0  0  0  0  0  0
  139.1405   68.2488  224.9581 H   0  0  0  0  0  0  0  0  0  0  0  0
  139.6829   68.2937  227.3607 H   0  0  0  0  0  0  0  0  0  0  0  0
  140.5969   69.4946  229.3240 H   0  0  0  0  0  0  0  0  0  0  0  0
  141.4802   71.7975  229.0525 H   0  0  0  0  0  0  0  0  0  0  0  0
  141.4501   72.9037  226.8284 H   0  0  0  0  0  0  0  0  0  0  0  0
  1  2  2  0
  2  3  1  0
  3  4  1  0
  4  5  1  0
  5  6  2  0
  5  7  1  0
  7  8  1  0
  8  9  1  0
  9 10  1  0
  9 11  1  0
 11 12  1  0
 12 13  2  0
 13 14  1  0
 14 15  2  0
 15 16  1  0
 15 17  1  0
 17 18  2  0
 11 19  1  0
  2 20  1  0
 20 21  2  0
 21 22  1  0
 22 23  2  0
 23 24  1  0
 24 25  2  0
 25 26  1  0
 26 27  2  0
 27 28  1  0
 28 29  2  0
 19  7  1  0
 29 20  1  0
 18 12  1  0
 28 23  1  0
  3 30  1  0
  4 31  1  0
  4 32  1  0
  8 33  1  0
  8 34  1  0
  9 35  1  1
 10 36  1  0
 11 37  1  1
 13 38  1  0
 14 39  1  0
 17 40  1  0
 18 41  1  0
 19 42  1  0
 19 43  1  0
 21 44  1  0
 22 45  1  0
 24 46  1  0
 25 47  1  0
 26 48  1  0
 27 49  1  0
M  END
>  <smiles>  (3) 
O=C(NCC(=O)N1C[C@H](O)[C@H](c2ccc(Cl)cc2)C1)c1ccc2ccccc2n1

>  <score_type>  (3) 
oracle

>  <origin>  (3) 
autodockgpu

>  <m_score__min__energy>  (3) 
-9.3800000000000008

>  <m_primary>  (3) 
energy

>  <rmsd>  (3) 
3.622111418032384

>  <m_score__min__rmsd>  (3) 
3.622111418032384

>  <meeko>  (3) 
{"free_energy": -8.7, "intermolecular_energy": -10.49, "internal_energy": -1.54, "cluster_size": 11, "cluster_id": 3, "rank_in_cluster": 3}

>  <energy>  (3) 
-9.18

>  <cluster_rmsd>  (3) 
1.48

>  <cluster>  (3) 
1

$$$$

     RDKit          3D

 49 52  0  0  0  0  0  0  0  0999 V2000
  140.5820   73.3810  222.7080 O   0  0  0  0  0  0  0  0  0  0  0  0
  140.1850   72.1940  222.5940 C   0  0  0  0  0  0  0  0  0  0  0  0
  139.8380   71.7300  221.3050 N   0  0  0  0  0  0  0  0  0  0  0  0
  139.9190   72.5540  220.1250 C   0  0  0  0  0  0  0  0  0  0  0  0
  141.3230   72.9600  219.8750 C   0  0  0  0  0  0  0  0  0  0  0  0
  142.2210   72.1520  219.5440 O   0  0  0  0  0  0  0  0  0  0  0  0
  141.6530   74.3350  220.0230 N   0  0  0  0  0  0  0  0  0  0  0  0
  142.9030   75.0080  219.6330 C   0  0  0  0  0  0  0  0  0  0  0  0
  142.3840   76.2520  219.0190 C   0  0  2  0  0  0  0  0  0  0  0  0
  143.3310   77.2220  218.7730 O   0  0  0  0  0  0  0  0  0  0  0  0
  141.2240   76.6540  219.8080 C   0  0  2  0  0  0  0  0  0  0  0  0
  141.3910   77.7610  220.7680 C   0  0  0  0  0  0  0  0  0  0  0  0
  141.7940   79.0340  220.4220 C   0  0  0  0  0  0  0  0  0  0  0  0
  141.9410   80.0560  221.3460 C   0  0  0  0  0  0  0  0  0  0  0  0
  141.6870   79.8480  222.6850 C   0  0  0  0  0  0  0  0  0  0  0  0
  141.8650   81.1110  223.8530 Cl  0  0  0  0  0  0  0  0  0  0  0  0
  141.2830   78.5820  223.0530 C   0  0  0  0  0  0  0  0  0  0  0  0
  141.1370   77.5660  222.1330 C   0  0  0  0  0  0  0  0  0  0  0  0
  140.8570   75.4160  220.5870 C   0  0  0  0  0  0  0  0  0  0  0  0
  140.0750   71.2890  223.7480 C   0  0  0  0  0  0  0  0  0  0  0  0
  139.4660   70.0580  223.5980 C   0  0  0  0  0  0  0  0  0  0  0  0
  139.3880   69.2380  224.7240 C   0  0  0  0  0  0  0  0  0  0  0  0
  139.9040   69.6450  225.9460 C   0  0  0  0  0  0  0  0  0  0  0  0
  139.8500   68.8710  227.0800 C   0  0  0  0  0  0  0  0  0  0  0  0
  140.3750   69.3140  228.2770 C   0  0  0  0  0  0  0  0  0  0  0  0
  140.9680   70.5630  228.3340 C   0  0  0  0  0  0  0  0  0  0  0  0
  141.0410   71.3640  227.2210 C   0  0  0  0  0  0  0  0  0  0  0  0
  140.5000   70.8780  226.0450 C   0  0  0  0  0  0  0  0  0  0  0  0
  140.5770   71.6740  224.9550 N   0  0  0  0  0  0  0  0  0  0  0  0
  139.5110   70.7400  221.2310 H   0  0  0  0  0  0  0  0  0  0  0  0
  139.5461   71.9862  219.2598 H   0  0  0  0  0  0  0  0  0  0  0  0
  139.3077   73.4559  220.2763 H   0  0  0  0  0  0  0  0  0  0  0  0
  143.5340   75.2237  220.5078 H   0  0  0  0  0  0  0  0  0  0  0  0
  143.5467   74.4126  218.9688 H   0  0  0  0  0  0  0  0  0  0  0  0
  142.0604   76.0660  217.9843 H   0  0  0  0  0  0  0  0  0  0  0  0
  143.7010   77.5400  219.6410 H   0  0  0  0  0  0  0  0  0  0  0  0
  140.4755   77.0433  219.1022 H   0  0  0  0  0  0  0  0  0  0  0  0
  142.0084   79.2475  219.3644 H   0  0  0  0  0  0  0  0  0  0  0  0
  142.2659   81.0502  221.0054 H   0  0  0  0  0  0  0  0  0  0  0  0
  141.0709   78.3767  224.1126 H   0  0  0  0  0  0  0  0  0  0  0  0
  140.8119   76.5739  222.4796 H   0  0  0  0  0  0  0  0  0  0  0  0
  141.0955   75.5503  221.6524 H   0  0  0  0  0  0  0  0  0  0  0  0
  139.7803   75.2014  220.5179 H   0  0  0  0  0  0  0  0  0  0  0  0
  139.0583   69.7368  222.6281 H   0  0  0  0  0  0  0  0  0  0  0  0
  138.9089   68.2513  224.6416 H   0  0  0  0  0  0  0  0  0  0  0  0
  139.3788   67.8782  227.0328 H   0  0  0  0  0  0  0  0  0  0  0  0
  140.3227   68.6815  229.1754 H   0  0  0  0  0  0  0  0  0  0  0  0
  141.3876   70.9199  229.2861 H   0  0  0  0  0  0  0  0  0  0  0  0
  141.5130   72.3567  227.2635 H   0  0  0  0  0  0  0  0  0  0  0  0
  1  2  2  0
  2  3  1  0
  3  4  1  0
  4  5  1  0
  5  6  2  0
  5  7  1  0
  7  8  1  0
  8  9  1  0
  9 10  1  0
  9 11  1  0
 11 12  1  0
 12 13  2  0
 13 14  1  0
 14 15  2  0
 15 16  1  0
 15 17  1  0
 17 18  2  0
 11 19  1  0
  2 20  1  0
 20 21  2  0
 21 22  1  0
 22 23  2  0
 23 24  1  0
 24 25  2  0
 25 26  1  0
 26 27  2  0
 27 28  1  0
 28 29  2  0
 19  7  1  0
 29 20  1  0
 18 12  1  0
 28 23  1  0
  3 30  1  0
  4 31  1  0
  4 32  1  0
  8 33  1  0
  8 34  1  0
  9 35  1  6
 10 36  1  0
 11 37  1  6
 13 38  1  0
 14 39  1  0
 17 40  1  0
 18 41  1  0
 19 42  1  0
 19 43  1  0
 21 44  1  0
 22 45  1  0
 24 46  1  0
 25 47  1  0
 26 48  1  0
 27 49  1  0
M  END
>  <smiles>  (4) 
O=C(NCC(=O)N1C[C@H](O)[C@H](c2ccc(Cl)cc2)C1)c1ccc2ccccc2n1

>  <score_type>  (4) 
oracle

>  <origin>  (4) 
autodockgpu

>  <m_score__min__energy>  (4) 
-9.3800000000000008

>  <m_primary>  (4) 
energy

>  <rmsd>  (4) 
2.330426863545522

>  <m_score__min__rmsd>  (4) 
2.330426863545522

>  <meeko>  (4) 
{"free_energy": -8.95, "intermolecular_energy": -10.74, "internal_energy": -1.17, "cluster_size": 26, "cluster_id": 1, "rank_in_cluster": 11}

>  <energy>  (4) 
-9.17

>  <cluster_rmsd>  (4) 
1.38

>  <cluster>  (4) 
1

$$$$

     RDKit          3D

 49 52  0  0  0  0  0  0  0  0999 V2000
  140.3920   73.3570  222.7100 O   0  0  0  0  0  0  0  0  0  0  0  0
  139.6720   72.3290  222.7640 C   0  0  0  0  0  0  0  0  0  0  0  0
  138.7050   72.1420  221.7500 N   0  0  0  0  0  0  0  0  0  0  0  0
  138.5110   73.0740  220.6670 C   0  0  0  0  0  0  0  0  0  0  0  0
  139.7850   73.2890  219.9390 C   0  0  0  0  0  0  0  0  0  0  0  0
  140.2150   72.5030  219.0630 O   0  0  0  0  0  0  0  0  0  0  0  0
  140.5460   74.4470  220.2590 N   0  0  0  0  0  0  0  0  0  0  0  0
  142.0000   74.5390  220.4670 C   0  0  0  0  0  0  0  0  0  0  0  0
  142.3210   75.7820  219.7300 C   0  0  2  0  0  0  0  0  0  0  0  0
  143.5870   76.2810  219.9480 O   0  0  0  0  0  0  0  0  0  0  0  0
  141.2080   76.7000  219.9550 C   0  0  2  0  0  0  0  0  0  0  0  0
  141.3980   77.7910  220.9280 C   0  0  0  0  0  0  0  0  0  0  0  0
  141.1870   77.6650  222.2860 C   0  0  0  0  0  0  0  0  0  0  0  0
  141.3740   78.7090  223.1780 C   0  0  0  0  0  0  0  0  0  0  0  0
  141.7890   79.9500  222.7460 C   0  0  0  0  0  0  0  0  0  0  0  0
  142.0290   81.2640  223.8450 Cl  0  0  0  0  0  0  0  0  0  0  0  0
  142.0060   80.0980  221.3930 C   0  0  0  0  0  0  0  0  0  0  0  0
  141.8190   79.0590  220.5060 C   0  0  0  0  0  0  0  0  0  0  0  0
  140.0950   75.8160  220.4600 C   0  0  0  0  0  0  0  0  0  0  0  0
  139.8060   71.3300  223.8340 C   0  0  0  0  0  0  0  0  0  0  0  0
  139.4310   70.0200  223.6020 C   0  0  0  0  0  0  0  0  0  0  0  0
  139.5790   69.1130  224.6510 C   0  0  0  0  0  0  0  0  0  0  0  0
  140.0850   69.5130  225.8800 C   0  0  0  0  0  0  0  0  0  0  0  0
  140.2490   68.6550  226.9400 C   0  0  0  0  0  0  0  0  0  0  0  0
  140.7550   69.0930  228.1470 C   0  0  0  0  0  0  0  0  0  0  0  0
  141.1050   70.4250  228.2900 C   0  0  0  0  0  0  0  0  0  0  0  0
  140.9560   71.3110  227.2510 C   0  0  0  0  0  0  0  0  0  0  0  0
  140.4440   70.8260  226.0630 C   0  0  0  0  0  0  0  0  0  0  0  0
  140.3010   71.7070  225.0470 N   0  0  0  0  0  0  0  0  0  0  0  0
  138.1160   71.2810  221.8110 H   0  0  0  0  0  0  0  0  0  0  0  0
  137.7593   72.6715  219.9720 H   0  0  0  0  0  0  0  0  0  0  0  0
  138.1674   74.0345  221.0786 H   0  0  0  0  0  0  0  0  0  0  0  0
  142.2491   74.6283  221.5347 H   0  0  0  0  0  0  0  0  0  0  0  0
  142.5603   73.6560  220.1260 H   0  0  0  0  0  0  0  0  0  0  0  0
  142.4015   75.5809  218.6515 H   0  0  0  0  0  0  0  0  0  0  0  0
  143.5510   76.9420  220.6920 H   0  0  0  0  0  0  0  0  0  0  0  0
  141.0355   77.2341  219.0090 H   0  0  0  0  0  0  0  0  0  0  0  0
  140.8555   76.6922  222.6780 H   0  0  0  0  0  0  0  0  0  0  0  0
  141.1879   78.5442  224.2495 H   0  0  0  0  0  0  0  0  0  0  0  0
  142.3382   81.0739  221.0094 H   0  0  0  0  0  0  0  0  0  0  0  0
  142.0058   79.2307  219.4357 H   0  0  0  0  0  0  0  0  0  0  0  0
  139.9118   76.0049  221.5281 H   0  0  0  0  0  0  0  0  0  0  0  0
  139.1526   76.0116  219.9274 H   0  0  0  0  0  0  0  0  0  0  0  0
  139.0310   69.7048  222.6270 H   0  0  0  0  0  0  0  0  0  0  0  0
  139.2897   68.0623  224.5018 H   0  0  0  0  0  0  0  0  0  0  0  0
  139.9713   67.5969  226.8245 H   0  0  0  0  0  0  0  0  0  0  0  0
  140.8788   68.3921  228.9857 H   0  0  0  0  0  0  0  0  0  0  0  0
  141.5085   70.7790  229.2501 H   0  0  0  0  0  0  0  0  0  0  0  0
  141.2345   72.3695  227.3610 H   0  0  0  0  0  0  0  0  0  0  0  0
  1  2  2  0
  2  3  1  0
  3  4  1  0
  4  5  1  0
  5  6  2  0
  5  7  1  0
  7  8  1  0
  8  9  1  0
  9 10  1  0
  9 11  1  0
 11 12  1  0
 12 13  2  0
 13 14  1  0
 14 15  2  0
 15 16  1  0
 15 17  1  0
 17 18  2  0
 11 19  1  0
  2 20  1  0
 20 21  2  0
 21 22  1  0
 22 23  2  0
 23 24  1  0
 24 25  2  0
 25 26  1  0
 26 27  2  0
 27 28  1  0
 28 29  2  0
 19  7  1  0
 29 20  1  0
 18 12  1  0
 28 23  1  0
  3 30  1  0
  4 31  1  0
  4 32  1  0
  8 33  1  0
  8 34  1  0
  9 35  1  6
 10 36  1  0
 11 37  1  6
 13 38  1  0
 14 39  1  0
 17 40  1  0
 18 41  1  0
 19 42  1  0
 19 43  1  0
 21 44  1  0
 22 45  1  0
 24 46  1  0
 25 47  1  0
 26 48  1  0
 27 49  1  0
M  END
>  <smiles>  (5) 
O=C(NCC(=O)N1C[C@H](O)[C@H](c2ccc(Cl)cc2)C1)c1ccc2ccccc2n1

>  <score_type>  (5) 
oracle

>  <origin>  (5) 
autodockgpu

>  <m_score__min__energy>  (5) 
-9.3800000000000008

>  <m_primary>  (5) 
energy

>  <rmsd>  (5) 
2.2072141494028843

>  <m_score__min__rmsd>  (5) 
2.2072141494028843

>  <meeko>  (5) 
{"free_energy": -8.77, "intermolecular_energy": -10.56, "internal_energy": -1.17, "cluster_size": 26, "cluster_id": 1, "rank_in_cluster": 12}

>  <energy>  (5) 
-9.15

>  <cluster_rmsd>  (5) 
1.5

>  <cluster>  (5) 
1

$$$$

     RDKit          3D

 49 52  0  0  0  0  0  0  0  0999 V2000
  139.9210   73.6630  222.7200 O   0  0  0  0  0  0  0  0  0  0  0  0
  140.2030   72.4410  222.6360 C   0  0  0  0  0  0  0  0  0  0  0  0
  140.6540   71.9480  221.3910 N   0  0  0  0  0  0  0  0  0  0  0  0
  140.8020   72.7800  220.2230 C   0  0  0  0  0  0  0  0  0  0  0  0
  142.1460   73.4050  220.2030 C   0  0  0  0  0  0  0  0  0  0  0  0
  143.2070   72.7470  220.0970 O   0  0  0  0  0  0  0  0  0  0  0  0
  142.2220   74.8210  220.3100 N   0  0  0  0  0  0  0  0  0  0  0  0
  143.1260   75.7320  219.5890 C   0  0  0  0  0  0  0  0  0  0  0  0
  142.2030   76.8310  219.2260 C   0  0  2  0  0  0  0  0  0  0  0  0
  142.8110   77.9720  218.7490 O   0  0  0  0  0  0  0  0  0  0  0  0
  141.2890   76.9970  220.3520 C   0  0  2  0  0  0  0  0  0  0  0  0
  141.5190   78.1300  221.2670 C   0  0  0  0  0  0  0  0  0  0  0  0
  141.8280   79.4090  220.8570 C   0  0  0  0  0  0  0  0  0  0  0  0
  142.0380   80.4560  221.7400 C   0  0  0  0  0  0  0  0  0  0  0  0
  141.9460   80.2670  223.1030 C   0  0  0  0  0  0  0  0  0  0  0  0
  142.2040   81.5610  224.2210 Cl  0  0  0  0  0  0  0  0  0  0  0  0
  141.6380   78.9950  223.5350 C   0  0  0  0  0  0  0  0  0  0  0  0
  141.4290   77.9550  222.6550 C   0  0  0  0  0  0  0  0  0  0  0  0
  141.4390   75.7220  221.1440 C   0  0  0  0  0  0  0  0  0  0  0  0
  140.0810   71.5260  223.7810 C   0  0  0  0  0  0  0  0  0  0  0  0
  139.4480   70.3080  223.6200 C   0  0  0  0  0  0  0  0  0  0  0  0
  139.3590   69.4780  224.7380 C   0  0  0  0  0  0  0  0  0  0  0  0
  139.8870   69.8620  225.9620 C   0  0  0  0  0  0  0  0  0  0  0  0
  139.8230   69.0780  227.0880 C   0  0  0  0  0  0  0  0  0  0  0  0
  140.3610   69.4980  228.2870 C   0  0  0  0  0  0  0  0  0  0  0  0
  140.9770   70.7350  228.3560 C   0  0  0  0  0  0  0  0  0  0  0  0
  141.0600   71.5460  227.2500 C   0  0  0  0  0  0  0  0  0  0  0  0
  140.5060   71.0830  226.0720 C   0  0  0  0  0  0  0  0  0  0  0  0
  140.5940   71.8890  224.9900 N   0  0  0  0  0  0  0  0  0  0  0  0
  140.8850   70.9290  221.3410 H   0  0  0  0  0  0  0  0  0  0  0  0
  140.6748   72.1642  219.3204 H   0  0  0  0  0  0  0  0  0  0  0  0
  140.0395   73.5724  220.2494 H   0  0  0  0  0  0  0  0  0  0  0  0
  143.9401   76.0878  220.2375 H   0  0  0  0  0  0  0  0  0  0  0  0
  143.6378   75.2721  218.7308 H   0  0  0  0  0  0  0  0  0  0  0  0
  141.6187   76.5654  218.3327 H   0  0  0  0  0  0  0  0  0  0  0  0
  143.1950   77.7820  217.8500 H   0  0  0  0  0  0  0  0  0  0  0  0
  140.2959   77.2116  219.9304 H   0  0  0  0  0  0  0  0  0  0  0  0
  141.9118   79.6079  219.7784 H   0  0  0  0  0  0  0  0  0  0  0  0
  142.2820   81.4542  221.3474 H   0  0  0  0  0  0  0  0  0  0  0  0
  141.5565   78.8039  224.6152 H   0  0  0  0  0  0  0  0  0  0  0  0
  141.1846   76.9592  223.0532 H   0  0  0  0  0  0  0  0  0  0  0  0
  141.9636   75.9195  222.0905 H   0  0  0  0  0  0  0  0  0  0  0  0
  140.4606   75.2879  221.3977 H   0  0  0  0  0  0  0  0  0  0  0  0
  139.0307   70.0048  222.6484 H   0  0  0  0  0  0  0  0  0  0  0  0
  138.8611   68.5014  224.6472 H   0  0  0  0  0  0  0  0  0  0  0  0
  139.3326   68.0949  227.0326 H   0  0  0  0  0  0  0  0  0  0  0  0
  140.3008   68.8564  229.1785 H   0  0  0  0  0  0  0  0  0  0  0  0
  141.4066   71.0741  229.3102 H   0  0  0  0  0  0  0  0  0  0  0  0
  141.5503   72.5294  227.3006 H   0  0  0  0  0  0  0  0  0  0  0  0
  1  2  2  0
  2  3  1  0
  3  4  1  0
  4  5  1  0
  5  6  2  0
  5  7  1  0
  7  8  1  0
  8  9  1  0
  9 10  1  0
  9 11  1  0
 11 12  1  0
 12 13  2  0
 13 14  1  0
 14 15  2  0
 15 16  1  0
 15 17  1  0
 17 18  2  0
 11 19  1  0
  2 20  1  0
 20 21  2  0
 21 22  1  0
 22 23  2  0
 23 24  1  0
 24 25  2  0
 25 26  1  0
 26 27  2  0
 27 28  1  0
 28 29  2  0
 19  7  1  0
 29 20  1  0
 18 12  1  0
 28 23  1  0
  3 30  1  0
  4 31  1  0
  4 32  1  0
  8 33  1  0
  8 34  1  0
  9 35  1  6
 10 36  1  0
 11 37  1  6
 13 38  1  0
 14 39  1  0
 17 40  1  0
 18 41  1  0
 19 42  1  0
 19 43  1  0
 21 44  1  0
 22 45  1  0
 24 46  1  0
 25 47  1  0
 26 48  1  0
 27 49  1  0
M  END
>  <smiles>  (6) 
O=C(NCC(=O)N1C[C@H](O)[C@H](c2ccc(Cl)cc2)C1)c1ccc2ccccc2n1

>  <score_type>  (6) 
oracle

>  <origin>  (6) 
autodockgpu

>  <m_score__min__energy>  (6) 
-9.3800000000000008

>  <m_primary>  (6) 
energy

>  <rmsd>  (6) 
2.6160854212676834

>  <m_score__min__rmsd>  (6) 
2.6160854212676834

>  <meeko>  (6) 
{"free_energy": -8.98, "intermolecular_energy": -10.77, "internal_energy": -1.1, "cluster_size": 26, "cluster_id": 1, "rank_in_cluster": 10}

>  <energy>  (6) 
-9.1

>  <cluster_rmsd>  (6) 
1.52

>  <cluster>  (6) 
1

$$$$

     RDKit          3D

 49 52  0  0  0  0  0  0  0  0999 V2000
  138.9300   70.4410  221.2160 O   0  0  0  0  0  0  0  0  0  0  0  0
  139.7170   70.9440  222.0570 C   0  0  0  0  0  0  0  0  0  0  0  0
  140.6000   71.9560  221.6180 N   0  0  0  0  0  0  0  0  0  0  0  0
  140.6370   72.4320  220.2570 C   0  0  0  0  0  0  0  0  0  0  0  0
  139.9090   73.7180  220.1420 C   0  0  0  0  0  0  0  0  0  0  0  0
  138.6950   73.7930  219.8440 O   0  0  0  0  0  0  0  0  0  0  0  0
  140.6350   74.9170  220.3820 N   0  0  0  0  0  0  0  0  0  0  0  0
  142.0770   75.1490  220.1970 C   0  0  0  0  0  0  0  0  0  0  0  0
  142.0760   76.4850  219.5580 C   0  0  2  0  0  0  0  0  0  0  0  0
  143.3080   77.0980  219.4830 O   0  0  0  0  0  0  0  0  0  0  0  0
  141.0030   77.2480  220.1880 C   0  0  2  0  0  0  0  0  0  0  0  0
  141.3720   78.2550  221.1990 C   0  0  0  0  0  0  0  0  0  0  0  0
  141.3180   78.0440  222.5610 C   0  0  0  0  0  0  0  0  0  0  0  0
  141.6720   79.0100  223.4900 C   0  0  0  0  0  0  0  0  0  0  0  0
  142.1070   80.2560  223.0910 C   0  0  0  0  0  0  0  0  0  0  0  0
  142.5540   81.4740  224.2350 Cl  0  0  0  0  0  0  0  0  0  0  0  0
  142.1690   80.4890  221.7340 C   0  0  0  0  0  0  0  0  0  0  0  0
  141.8160   79.5270  220.8110 C   0  0  0  0  0  0  0  0  0  0  0  0
  140.1520   76.2030  220.8640 C   0  0  0  0  0  0  0  0  0  0  0  0
  139.7420   70.5160  223.4640 C   0  0  0  0  0  0  0  0  0  0  0  0
  139.1530   69.3200  223.8270 C   0  0  0  0  0  0  0  0  0  0  0  0
  139.2050   68.9610  225.1750 C   0  0  0  0  0  0  0  0  0  0  0  0
  139.8260   69.7760  226.1110 C   0  0  0  0  0  0  0  0  0  0  0  0
  139.9010   69.4630  227.4460 C   0  0  0  0  0  0  0  0  0  0  0  0
  140.5270   70.3010  228.3460 C   0  0  0  0  0  0  0  0  0  0  0  0
  141.0910   71.4810  227.8920 C   0  0  0  0  0  0  0  0  0  0  0  0
  141.0350   71.8260  226.5640 C   0  0  0  0  0  0  0  0  0  0  0  0
  140.3960   70.9550  225.7010 C   0  0  0  0  0  0  0  0  0  0  0  0
  140.3470   71.3050  224.3960 N   0  0  0  0  0  0  0  0  0  0  0  0
  141.2470   72.3630  222.3320 H   0  0  0  0  0  0  0  0  0  0  0  0
  141.6837   72.5790  219.9523 H   0  0  0  0  0  0  0  0  0  0  0  0
  140.1555   71.6886  219.6047 H   0  0  0  0  0  0  0  0  0  0  0  0
  142.6093   75.1633  221.1595 H   0  0  0  0  0  0  0  0  0  0  0  0
  142.5873   74.3699  219.6117 H   0  0  0  0  0  0  0  0  0  0  0  0
  141.8638   76.3979  218.4822 H   0  0  0  0  0  0  0  0  0  0  0  0
  143.5400   77.4690  220.3780 H   0  0  0  0  0  0  0  0  0  0  0  0
  140.5290   77.8476  219.3969 H   0  0  0  0  0  0  0  0  0  0  0  0
  140.9783   77.0638  222.9269 H   0  0  0  0  0  0  0  0  0  0  0  0
  141.6047   78.7786  224.5633 H   0  0  0  0  0  0  0  0  0  0  0  0
  142.5103   81.4717  221.3764 H   0  0  0  0  0  0  0  0  0  0  0  0
  141.8848   79.7646  219.7392 H   0  0  0  0  0  0  0  0  0  0  0  0
  140.2634   76.2678  221.9564 H   0  0  0  0  0  0  0  0  0  0  0  0
  139.0852   76.3434  220.6355 H   0  0  0  0  0  0  0  0  0  0  0  0
  138.6622   68.6757  223.0827 H   0  0  0  0  0  0  0  0  0  0  0  0
  138.7459   68.0160  225.5009 H   0  0  0  0  0  0  0  0  0  0  0  0
  139.4528   68.5249  227.8053 H   0  0  0  0  0  0  0  0  0  0  0  0
  140.5773   70.0345  229.4120 H   0  0  0  0  0  0  0  0  0  0  0  0
  141.5914   72.1521  228.6056 H   0  0  0  0  0  0  0  0  0  0  0  0
  141.4828   72.7623  226.1996 H   0  0  0  0  0  0  0  0  0  0  0  0
  1  2  2  0
  2  3  1  0
  3  4  1  0
  4  5  1  0
  5  6  2  0
  5  7  1  0
  7  8  1  0
  8  9  1  0
  9 10  1  0
  9 11  1  0
 11 12  1  0
 12 13  2  0
 13 14  1  0
 14 15  2  0
 15 16  1  0
 15 17  1  0
 17 18  2  0
 11 19  1  0
  2 20  1  0
 20 21  2  0
 21 22  1  0
 22 23  2  0
 23 24  1  0
 24 25  2  0
 25 26  1  0
 26 27  2  0
 27 28  1  0
 28 29  2  0
 19  7  1  0
 29 20  1  0
 18 12  1  0
 28 23  1  0
  3 30  1  0
  4 31  1  0
  4 32  1  0
  8 33  1  0
  8 34  1  0
  9 35  1  6
 10 36  1  0
 11 37  1  6
 13 38  1  0
 14 39  1  0
 17 40  1  0
 18 41  1  0
 19 42  1  0
 19 43  1  0
 21 44  1  0
 22 45  1  0
 24 46  1  0
 25 47  1  0
 26 48  1  0
 27 49  1  0
M  END
>  <smiles>  (7) 
O=C(NCC(=O)N1C[C@H](O)[C@H](c2ccc(Cl)cc2)C1)c1ccc2ccccc2n1

>  <score_type>  (7) 
oracle

>  <origin>  (7) 
autodockgpu

>  <m_score__min__energy>  (7) 
-9.3800000000000008

>  <m_primary>  (7) 
energy

>  <rmsd>  (7) 
2.4679755144223

>  <m_score__min__rmsd>  (7) 
2.4679755144223

>  <meeko>  (7) 
{"free_energy": -8.45, "intermolecular_energy": -10.24, "internal_energy": -1.39, "cluster_size": 26, "cluster_id": 1, "rank_in_cluster": 23}

>  <energy>  (7) 
-9.09

>  <cluster_rmsd>  (7) 
1.54

>  <cluster>  (7) 
1

$$$$

     RDKit          3D

 49 52  0  0  0  0  0  0  0  0999 V2000
  139.9900   73.4750  222.4020 O   0  0  0  0  0  0  0  0  0  0  0  0
  140.3270   72.2670  222.4710 C   0  0  0  0  0  0  0  0  0  0  0  0
  140.9270   71.6780  221.3350 N   0  0  0  0  0  0  0  0  0  0  0  0
  141.1650   72.3980  220.1090 C   0  0  0  0  0  0  0  0  0  0  0  0
  142.4830   73.0750  220.1580 C   0  0  0  0  0  0  0  0  0  0  0  0
  143.5720   72.4560  220.1460 O   0  0  0  0  0  0  0  0  0  0  0  0
  142.4990   74.4960  220.2210 N   0  0  0  0  0  0  0  0  0  0  0  0
  143.4640   75.4140  219.5930 C   0  0  0  0  0  0  0  0  0  0  0  0
  142.5640   76.4660  219.0680 C   0  0  2  0  0  0  0  0  0  0  0  0
  143.1950   77.6120  218.6350 O   0  0  0  0  0  0  0  0  0  0  0  0
  141.5010   76.6360  220.0540 C   0  0  2  0  0  0  0  0  0  0  0  0
  141.5690   77.8060  220.9490 C   0  0  0  0  0  0  0  0  0  0  0  0
  141.7970   79.0980  220.5220 C   0  0  0  0  0  0  0  0  0  0  0  0
  141.8550   80.1800  221.3870 C   0  0  0  0  0  0  0  0  0  0  0  0
  141.6840   80.0160  222.7450 C   0  0  0  0  0  0  0  0  0  0  0  0
  141.7520   81.3540  223.8390 Cl  0  0  0  0  0  0  0  0  0  0  0  0
  141.4550   78.7330  223.1930 C   0  0  0  0  0  0  0  0  0  0  0  0
  141.3970   77.6570  222.3330 C   0  0  0  0  0  0  0  0  0  0  0  0
  141.5830   75.3950  220.9070 C   0  0  0  0  0  0  0  0  0  0  0  0
  140.1200   71.4620  223.6850 C   0  0  0  0  0  0  0  0  0  0  0  0
  139.3870   70.2920  223.6150 C   0  0  0  0  0  0  0  0  0  0  0  0
  139.2210   69.5660  224.7950 C   0  0  0  0  0  0  0  0  0  0  0  0
  139.7720   70.0040  225.9910 C   0  0  0  0  0  0  0  0  0  0  0  0
  139.6350   69.3230  227.1750 C   0  0  0  0  0  0  0  0  0  0  0  0
  140.1980   69.7930  228.3440 C   0  0  0  0  0  0  0  0  0  0  0  0
  140.9170   70.9750  228.3200 C   0  0  0  0  0  0  0  0  0  0  0  0
  141.0760   71.6840  227.1540 C   0  0  0  0  0  0  0  0  0  0  0  0
  140.4920   71.1730  226.0100 C   0  0  0  0  0  0  0  0  0  0  0  0
  140.6550   71.8780  224.8670 N   0  0  0  0  0  0  0  0  0  0  0  0
  141.2010   70.6720  221.4130 H   0  0  0  0  0  0  0  0  0  0  0  0
  141.1505   71.6926  219.2651 H   0  0  0  0  0  0  0  0  0  0  0  0
  140.3779   73.1556  219.9801 H   0  0  0  0  0  0  0  0  0  0  0  0
  144.1716   75.8206  220.3305 H   0  0  0  0  0  0  0  0  0  0  0  0
  144.1015   74.9443  218.8295 H   0  0  0  0  0  0  0  0  0  0  0  0
  142.1146   76.1497  218.1151 H   0  0  0  0  0  0  0  0  0  0  0  0
  143.8820   77.8760  219.3060 H   0  0  0  0  0  0  0  0  0  0  0  0
  140.5683   76.8002  219.4945 H   0  0  0  0  0  0  0  0  0  0  0  0
  141.9393   79.2779  219.4462 H   0  0  0  0  0  0  0  0  0  0  0  0
  142.0406   81.1861  220.9829 H   0  0  0  0  0  0  0  0  0  0  0  0
  141.3141   78.5621  224.2705 H   0  0  0  0  0  0  0  0  0  0  0  0
  141.2106   76.6537  222.7437 H   0  0  0  0  0  0  0  0  0  0  0  0
  141.9684   75.6433  221.9069 H   0  0  0  0  0  0  0  0  0  0  0  0
  140.5935   74.9343  221.0439 H   0  0  0  0  0  0  0  0  0  0  0  0
  138.9514   69.9467  222.6658 H   0  0  0  0  0  0  0  0  0  0  0  0
  138.6433   68.6301  224.7769 H   0  0  0  0  0  0  0  0  0  0  0  0
  139.0644   68.3827  227.1923 H   0  0  0  0  0  0  0  0  0  0  0  0
  140.0766   69.2345  229.2839 H   0  0  0  0  0  0  0  0  0  0  0  0
  141.3684   71.3529  229.2492 H   0  0  0  0  0  0  0  0  0  0  0  0
  141.6471   72.6239  227.1316 H   0  0  0  0  0  0  0  0  0  0  0  0
  1  2  2  0
  2  3  1  0
  3  4  1  0
  4  5  1  0
  5  6  2  0
  5  7  1  0
  7  8  1  0
  8  9  1  0
  9 10  1  0
  9 11  1  0
 11 12  1  0
 12 13  2  0
 13 14  1  0
 14 15  2  0
 15 16  1  0
 15 17  1  0
 17 18  2  0
 11 19  1  0
  2 20  1  0
 20 21  2  0
 21 22  1  0
 22 23  2  0
 23 24  1  0
 24 25  2  0
 25 26  1  0
 26 27  2  0
 27 28  1  0
 28 29  2  0
 19  7  1  0
 29 20  1  0
 18 12  1  0
 28 23  1  0
  3 30  1  0
  4 31  1  0
  4 32  1  0
  8 33  1  0
  8 34  1  0
  9 35  1  6
 10 36  1  0
 11 37  1  6
 13 38  1  0
 14 39  1  0
 17 40  1  0
 18 41  1  0
 19 42  1  0
 19 43  1  0
 21 44  1  0
 22 45  1  0
 24 46  1  0
 25 47  1  0
 26 48  1  0
 27 49  1  0
M  END
>  <smiles>  (8) 
O=C(NCC(=O)N1C[C@H](O)[C@H](c2ccc(Cl)cc2)C1)c1ccc2ccccc2n1

>  <score_type>  (8) 
oracle

>  <origin>  (8) 
autodockgpu

>  <m_score__min__energy>  (8) 
-9.3800000000000008

>  <m_primary>  (8) 
energy

>  <rmsd>  (8) 
2.683387831289793

>  <m_score__min__rmsd>  (8) 
2.683387831289793

>  <meeko>  (8) 
{"free_energy": -9.38, "intermolecular_energy": -11.17, "internal_energy": -1.14, "cluster_size": 26, "cluster_id": 1, "rank_in_cluster": 1}

>  <energy>  (8) 
-9.03

>  <cluster_rmsd>  (8) 
1.27

>  <cluster>  (8) 
1

$$$$

     RDKit          3D

 49 52  0  0  0  0  0  0  0  0999 V2000
  139.7080   71.1150  221.2510 O   0  0  0  0  0  0  0  0  0  0  0  0
  139.8040   71.6870  222.3660 C   0  0  0  0  0  0  0  0  0  0  0  0
  139.8230   73.1010  222.3860 N   0  0  0  0  0  0  0  0  0  0  0  0
  139.7390   73.9060  221.1940 C   0  0  0  0  0  0  0  0  0  0  0  0
  141.0350   74.5770  220.9330 C   0  0  0  0  0  0  0  0  0  0  0  0
  141.2500   75.7800  221.2070 O   0  0  0  0  0  0  0  0  0  0  0  0
  142.0760   73.8070  220.3440 N   0  0  0  0  0  0  0  0  0  0  0  0
  142.7080   74.0050  219.0300 C   0  0  0  0  0  0  0  0  0  0  0  0
  144.1370   73.8020  219.3620 C   0  0  2  0  0  0  0  0  0  0  0  0
  144.9770   73.6750  218.2770 O   0  0  0  0  0  0  0  0  0  0  0  0
  144.1870   72.7350  220.3570 C   0  0  2  0  0  0  0  0  0  0  0  0
  144.5890   71.3890  219.9080 C   0  0  0  0  0  0  0  0  0  0  0  0
  143.7720   70.2790  219.9530 C   0  0  0  0  0  0  0  0  0  0  0  0
  144.1770   69.0260  219.5230 C   0  0  0  0  0  0  0  0  0  0  0  0
  145.4430   68.8210  219.0180 C   0  0  0  0  0  0  0  0  0  0  0  0
  145.9670   67.2640  218.4760 Cl  0  0  0  0  0  0  0  0  0  0  0  0
  146.2770   69.9170  218.9640 C   0  0  0  0  0  0  0  0  0  0  0  0
  145.8730   71.1640  219.3920 C   0  0  0  0  0  0  0  0  0  0  0  0
  142.7740   72.6470  220.8770 C   0  0  0  0  0  0  0  0  0  0  0  0
  139.8940   70.9390  223.6280 C   0  0  0  0  0  0  0  0  0  0  0  0
  139.5000   69.6150  223.6710 C   0  0  0  0  0  0  0  0  0  0  0  0
  139.6060   68.9520  224.8940 C   0  0  0  0  0  0  0  0  0  0  0  0
  140.0900   69.5990  226.0220 C   0  0  0  0  0  0  0  0  0  0  0  0
  140.2120   68.9860  227.2450 C   0  0  0  0  0  0  0  0  0  0  0  0
  140.6970   69.6660  228.3440 C   0  0  0  0  0  0  0  0  0  0  0  0
  141.0680   70.9930  228.2080 C   0  0  0  0  0  0  0  0  0  0  0  0
  140.9610   71.6380  227.0010 C   0  0  0  0  0  0  0  0  0  0  0  0
  140.4690   70.9160  225.9300 C   0  0  0  0  0  0  0  0  0  0  0  0
  140.3670   71.5610  224.7450 N   0  0  0  0  0  0  0  0  0  0  0  0
  139.9030   73.5590  223.3230 H   0  0  0  0  0  0  0  0  0  0  0  0
  139.4850   73.2624  220.3388 H   0  0  0  0  0  0  0  0  0  0  0  0
  138.9617   74.6717  221.3338 H   0  0  0  0  0  0  0  0  0  0  0  0
  142.3554   73.2637  218.2977 H   0  0  0  0  0  0  0  0  0  0  0  0
  142.4870   74.9774  218.5657 H   0  0  0  0  0  0  0  0  0  0  0  0
  144.5644   74.7154  219.8013 H   0  0  0  0  0  0  0  0  0  0  0  0
  145.5560   74.4840  218.2200 H   0  0  0  0  0  0  0  0  0  0  0  0
  144.9725   73.0050  221.0781 H   0  0  0  0  0  0  0  0  0  0  0  0
  142.7520   70.3938  220.3485 H   0  0  0  0  0  0  0  0  0  0  0  0
  143.4764   68.1803  219.5856 H   0  0  0  0  0  0  0  0  0  0  0  0
  147.2956   69.7932  218.5675 H   0  0  0  0  0  0  0  0  0  0  0  0
  146.5780   72.0059  219.3267 H   0  0  0  0  0  0  0  0  0  0  0  0
  142.2957   71.7199  220.5282 H   0  0  0  0  0  0  0  0  0  0  0  0
  142.7501   72.6333  221.9767 H   0  0  0  0  0  0  0  0  0  0  0  0
  139.1175   69.1036  222.7754 H   0  0  0  0  0  0  0  0  0  0  0  0
  139.3005   67.8977  224.9653 H   0  0  0  0  0  0  0  0  0  0  0  0
  139.9172   67.9315  227.3509 H   0  0  0  0  0  0  0  0  0  0  0  0
  140.7877   69.1596  229.3163 H   0  0  0  0  0  0  0  0  0  0  0  0
  141.4546   71.5391  229.0811 H   0  0  0  0  0  0  0  0  0  0  0  0
  141.2563   72.6918  226.8901 H   0  0  0  0  0  0  0  0  0  0  0  0
  1  2  2  0
  2  3  1  0
  3  4  1  0
  4  5  1  0
  5  6  2  0
  5  7  1  0
  7  8  1  0
  8  9  1  0
  9 10  1  0
  9 11  1  0
 11 12  1  0
 12 13  2  0
 13 14  1  0
 14 15  2  0
 15 16  1  0
 15 17  1  0
 17 18  2  0
 11 19  1  0
  2 20  1  0
 20 21  2  0
 21 22  1  0
 22 23  2  0
 23 24  1  0
 24 25  2  0
 25 26  1  0
 26 27  2  0
 27 28  1  0
 28 29  2  0
 19  7  1  0
 29 20  1  0
 18 12  1  0
 28 23  1  0
  3 30  1  0
  4 31  1  0
  4 32  1  0
  8 33  1  0
  8 34  1  0
  9 35  1  1
 10 36  1  0
 11 37  1  1
 13 38  1  0
 14 39  1  0
 17 40  1  0
 18 41  1  0
 19 42  1  0
 19 43  1  0
 21 44  1  0
 22 45  1  0
 24 46  1  0
 25 47  1  0
 26 48  1  0
 27 49  1  0
M  END
>  <smiles>  (9) 
O=C(NCC(=O)N1C[C@H](O)[C@H](c2ccc(Cl)cc2)C1)c1ccc2ccccc2n1

>  <score_type>  (9) 
oracle

>  <origin>  (9) 
autodockgpu

>  <m_score__min__energy>  (9) 
-9.3800000000000008

>  <m_primary>  (9) 
energy

>  <rmsd>  (9) 
3.5935099627861833

>  <m_score__min__rmsd>  (9) 
3.5935099627861833

>  <meeko>  (9) 
{"free_energy": -8.36, "intermolecular_energy": -10.15, "internal_energy": -1.64, "cluster_size": 11, "cluster_id": 3, "rank_in_cluster": 10}

>  <energy>  (9) 
-9.02

>  <cluster_rmsd>  (9) 
1.54

>  <cluster>  (9) 
1

$$$$

     RDKit          3D

 49 52  0  0  0  0  0  0  0  0999 V2000
  138.4140   70.0380  221.7050 O   0  0  0  0  0  0  0  0  0  0  0  0
  138.7910   70.7610  222.6600 C   0  0  0  0  0  0  0  0  0  0  0  0
  138.7870   72.1620  222.4750 N   0  0  0  0  0  0  0  0  0  0  0  0
  138.3730   72.7920  221.2460 C   0  0  0  0  0  0  0  0  0  0  0  0
  137.9760   74.1980  221.4970 C   0  0  0  0  0  0  0  0  0  0  0  0
  136.7870   74.5570  221.6570 O   0  0  0  0  0  0  0  0  0  0  0  0
  139.0060   75.1790  221.5560 N   0  0  0  0  0  0  0  0  0  0  0  0
  140.4570   74.9690  221.4270 C   0  0  0  0  0  0  0  0  0  0  0  0
  140.8370   76.1010  220.5500 C   0  0  2  0  0  0  0  0  0  0  0  0
  142.1920   76.3280  220.4430 O   0  0  0  0  0  0  0  0  0  0  0  0
  140.0120   77.2350  220.9520 C   0  0  2  0  0  0  0  0  0  0  0  0
  140.6350   78.2850  221.7780 C   0  0  0  0  0  0  0  0  0  0  0  0
  141.0750   78.0960  223.0720 C   0  0  0  0  0  0  0  0  0  0  0  0
  141.6590   79.1020  223.8250 C   0  0  0  0  0  0  0  0  0  0  0  0
  141.8340   80.3680  223.3090 C   0  0  0  0  0  0  0  0  0  0  0  0
  142.5610   81.6360  224.2340 Cl  0  0  0  0  0  0  0  0  0  0  0  0
  141.4010   80.5790  222.0180 C   0  0  0  0  0  0  0  0  0  0  0  0
  140.8210   79.5780  221.2690 C   0  0  0  0  0  0  0  0  0  0  0  0
  138.8940   76.6160  221.7540 C   0  0  0  0  0  0  0  0  0  0  0  0
  139.2280   70.1980  223.9470 C   0  0  0  0  0  0  0  0  0  0  0  0
  139.0740   68.8460  224.1910 C   0  0  0  0  0  0  0  0  0  0  0  0
  139.5050   68.3640  225.4280 C   0  0  0  0  0  0  0  0  0  0  0  0
  140.0670   69.2100  226.3720 C   0  0  0  0  0  0  0  0  0  0  0  0
  140.5060   68.7800  227.6010 C   0  0  0  0  0  0  0  0  0  0  0  0
  141.0590   69.6550  228.5130 C   0  0  0  0  0  0  0  0  0  0  0  0
  141.1740   70.9940  228.1820 C   0  0  0  0  0  0  0  0  0  0  0  0
  140.7470   71.4600  226.9630 C   0  0  0  0  0  0  0  0  0  0  0  0
  140.1990   70.5460  226.0830 C   0  0  0  0  0  0  0  0  0  0  0  0
  139.7820   71.0160  224.8850 N   0  0  0  0  0  0  0  0  0  0  0  0
  139.1040   72.7470  223.2820 H   0  0  0  0  0  0  0  0  0  0  0  0
  139.2074   72.7729  220.5294 H   0  0  0  0  0  0  0  0  0  0  0  0
  137.5115   72.2447  220.8359 H   0  0  0  0  0  0  0  0  0  0  0  0
  140.9609   75.0288  222.4030 H   0  0  0  0  0  0  0  0  0  0  0  0
  140.7360   73.9805  221.0332 H   0  0  0  0  0  0  0  0  0  0  0  0
  140.6221   75.8638  219.4976 H   0  0  0  0  0  0  0  0  0  0  0  0
  142.4850   76.8970  221.2070 H   0  0  0  0  0  0  0  0  0  0  0  0
  139.7336   77.7704  220.0323 H   0  0  0  0  0  0  0  0  0  0  0  0
  140.9568   77.1013  223.5266 H   0  0  0  0  0  0  0  0  0  0  0  0
  141.9886   78.8865  224.8521 H   0  0  0  0  0  0  0  0  0  0  0  0
  141.5220   81.5770  221.5715 H   0  0  0  0  0  0  0  0  0  0  0  0
  140.4946   79.7999  220.2422 H   0  0  0  0  0  0  0  0  0  0  0  0
  139.0051   76.8647  222.8197 H   0  0  0  0  0  0  0  0  0  0  0  0
  137.9115   76.9916  221.4320 H   0  0  0  0  0  0  0  0  0  0  0  0
  138.6294   68.1765  223.4399 H   0  0  0  0  0  0  0  0  0  0  0  0
  139.3969   67.2938  225.6581 H   0  0  0  0  0  0  0  0  0  0  0  0
  140.4146   67.7156  227.8632 H   0  0  0  0  0  0  0  0  0  0  0  0
  141.4047   69.2926  229.4923 H   0  0  0  0  0  0  0  0  0  0  0  0
  141.6140   71.6953  228.9063 H   0  0  0  0  0  0  0  0  0  0  0  0
  140.8379   72.5233  226.6963 H   0  0  0  0  0  0  0  0  0  0  0  0
  1  2  2  0
  2  3  1  0
  3  4  1  0
  4  5  1  0
  5  6  2  0
  5  7  1  0
  7  8  1  0
  8  9  1  0
  9 10  1  0
  9 11  1  0
 11 12  1  0
 12 13  2  0
 13 14  1  0
 14 15  2  0
 15 16  1  0
 15 17  1  0
 17 18  2  0
 11 19  1  0
  2 20  1  0
 20 21  2  0
 21 22  1  0
 22 23  2  0
 23 24  1  0
 24 25  2  0
 25 26  1  0
 26 27  2  0
 27 28  1  0
 28 29  2  0
 19  7  1  0
 29 20  1  0
 18 12  1  0
 28 23  1  0
  3 30  1  0
  4 31  1  0
  4 32  1  0
  8 33  1  0
  8 34  1  0
  9 35  1  6
 10 36  1  0
 11 37  1  6
 13 38  1  0
 14 39  1  0
 17 40  1  0
 18 41  1  0
 19 42  1  0
 19 43  1  0
 21 44  1  0
 22 45  1  0
 24 46  1  0
 25 47  1  0
 26 48  1  0
 27 49  1  0
M  END
>  <smiles>  (10) 
O=C(NCC(=O)N1C[C@H](O)[C@H](c2ccc(Cl)cc2)C1)c1ccc2ccccc2n1

>  <score_type>  (10) 
oracle

>  <origin>  (10) 
autodockgpu

>  <m_score__min__energy>  (10) 
-9.3800000000000008

>  <m_primary>  (10) 
energy

>  <rmsd>  (10) 
2.5807503313030495

>  <m_score__min__rmsd>  (10) 
2.5807503313030495

>  <meeko>  (10) 
{"free_energy": -8.75, "intermolecular_energy": -10.54, "internal_energy": -1.4, "cluster_size": 26, "cluster_id": 1, "rank_in_cluster": 14}

>  <energy>  (10) 
-8.98

>  <cluster_rmsd>  (10) 
0.49

>  <cluster>  (10) 
1

$$$$

     RDKit          3D

 49 52  0  0  0  0  0  0  0  0999 V2000
  140.3140   71.4100  221.2050 O   0  0  0  0  0  0  0  0  0  0  0  0
  140.0750   71.9840  222.2970 C   0  0  0  0  0  0  0  0  0  0  0  0
  139.8180   73.3730  222.2740 N   0  0  0  0  0  0  0  0  0  0  0  0
  139.8190   74.1540  221.0630 C   0  0  0  0  0  0  0  0  0  0  0  0
  141.1540   74.7590  220.8410 C   0  0  0  0  0  0  0  0  0  0  0  0
  141.4260   75.9460  221.1330 O   0  0  0  0  0  0  0  0  0  0  0  0
  142.1680   73.9410  220.2700 N   0  0  0  0  0  0  0  0  0  0  0  0
  142.7580   74.0460  218.9250 C   0  0  0  0  0  0  0  0  0  0  0  0
  144.1960   73.8490  219.2230 C   0  0  2  0  0  0  0  0  0  0  0  0
  144.9980   73.6430  218.1220 O   0  0  0  0  0  0  0  0  0  0  0  0
  144.2680   72.8480  220.2830 C   0  0  2  0  0  0  0  0  0  0  0  0
  144.6430   71.4710  219.9090 C   0  0  0  0  0  0  0  0  0  0  0  0
  143.8120   70.3780  220.0370 C   0  0  0  0  0  0  0  0  0  0  0  0
  144.1910   69.0950  219.6770 C   0  0  0  0  0  0  0  0  0  0  0  0
  145.4440   68.8410  219.1610 C   0  0  0  0  0  0  0  0  0  0  0  0
  145.9360   67.2470  218.7050 Cl  0  0  0  0  0  0  0  0  0  0  0  0
  146.2920   69.9200  219.0250 C   0  0  0  0  0  0  0  0  0  0  0  0
  145.9140   71.1960  219.3840 C   0  0  0  0  0  0  0  0  0  0  0  0
  142.8730   72.8090  220.8540 C   0  0  0  0  0  0  0  0  0  0  0  0
  140.0540   71.2600  223.5770 C   0  0  0  0  0  0  0  0  0  0  0  0
  139.5450   69.9760  223.6300 C   0  0  0  0  0  0  0  0  0  0  0  0
  139.5490   69.3340  224.8690 C   0  0  0  0  0  0  0  0  0  0  0  0
  140.0470   69.9630  226.0020 C   0  0  0  0  0  0  0  0  0  0  0  0
  140.0720   69.3700  227.2400 C   0  0  0  0  0  0  0  0  0  0  0  0
  140.5750   70.0300  228.3430 C   0  0  0  0  0  0  0  0  0  0  0  0
  141.0650   71.3160  228.1950 C   0  0  0  0  0  0  0  0  0  0  0  0
  141.0570   71.9400  226.9720 C   0  0  0  0  0  0  0  0  0  0  0  0
  140.5420   71.2390  225.8980 C   0  0  0  0  0  0  0  0  0  0  0  0
  140.5400   71.8630  224.6980 N   0  0  0  0  0  0  0  0  0  0  0  0
  139.6210   73.8330  223.1930 H   0  0  0  0  0  0  0  0  0  0  0  0
  139.5695   73.5036  220.2117 H   0  0  0  0  0  0  0  0  0  0  0  0
  139.0734   74.9574  221.1552 H   0  0  0  0  0  0  0  0  0  0  0  0
  142.3746   73.2626  218.2547 H   0  0  0  0  0  0  0  0  0  0  0  0
  142.5305   74.9885  218.4054 H   0  0  0  0  0  0  0  0  0  0  0  0
  144.6471   74.7836  219.5878 H   0  0  0  0  0  0  0  0  0  0  0  0
  145.4480   74.4990  217.8850 H   0  0  0  0  0  0  0  0  0  0  0  0
  145.0789   73.1558  220.9596 H   0  0  0  0  0  0  0  0  0  0  0  0
  142.8016   70.5319  220.4437 H   0  0  0  0  0  0  0  0  0  0  0  0
  143.4804   68.2652  219.8050 H   0  0  0  0  0  0  0  0  0  0  0  0
  147.3008   69.7574  218.6176 H   0  0  0  0  0  0  0  0  0  0  0  0
  146.6293   72.0217  219.2551 H   0  0  0  0  0  0  0  0  0  0  0  0
  142.3749   71.8668  220.5817 H   0  0  0  0  0  0  0  0  0  0  0  0
  142.8858   72.8658  221.9525 H   0  0  0  0  0  0  0  0  0  0  0  0
  139.1521   69.4795  222.7305 H   0  0  0  0  0  0  0  0  0  0  0  0
  139.1506   68.3118  224.9493 H   0  0  0  0  0  0  0  0  0  0  0  0
  139.6831   68.3475  227.3553 H   0  0  0  0  0  0  0  0  0  0  0  0
  140.5863   69.5399  229.3277 H   0  0  0  0  0  0  0  0  0  0  0  0
  141.4671   71.8463  229.0708 H   0  0  0  0  0  0  0  0  0  0  0  0
  141.4467   72.9616  226.8513 H   0  0  0  0  0  0  0  0  0  0  0  0
  1  2  2  0
  2  3  1  0
  3  4  1  0
  4  5  1  0
  5  6  2  0
  5  7  1  0
  7  8  1  0
  8  9  1  0
  9 10  1  0
  9 11  1  0
 11 12  1  0
 12 13  2  0
 13 14  1  0
 14 15  2  0
 15 16  1  0
 15 17  1  0
 17 18  2  0
 11 19  1  0
  2 20  1  0
 20 21  2  0
 21 22  1  0
 22 23  2  0
 23 24  1  0
 24 25  2  0
 25 26  1  0
 26 27  2  0
 27 28  1  0
 28 29  2  0
 19  7  1  0
 29 20  1  0
 18 12  1  0
 28 23  1  0
  3 30  1  0
  4 31  1  0
  4 32  1  0
  8 33  1  0
  8 34  1  0
  9 35  1  1
 10 36  1  0
 11 37  1  1
 13 38  1  0
 14 39  1  0
 17 40  1  0
 18 41  1  0
 19 42  1  0
 19 43  1  0
 21 44  1  0
 22 45  1  0
 24 46  1  0
 25 47  1  0
 26 48  1  0
 27 49  1  0
M  END
>  <smiles>  (11) 
O=C(NCC(=O)N1C[C@H](O)[C@H](c2ccc(Cl)cc2)C1)c1ccc2ccccc2n1

>  <score_type>  (11) 
oracle

>  <origin>  (11) 
autodockgpu

>  <m_score__min__energy>  (11) 
-9.3800000000000008

>  <m_primary>  (11) 
energy

>  <rmsd>  (11) 
3.5994481082366954

>  <m_score__min__rmsd>  (11) 
3.5994481082366954

>  <meeko>  (11) 
{"free_energy": -8.69, "intermolecular_energy": -10.48, "internal_energy": -1.55, "cluster_size": 11, "cluster_id": 3, "rank_in_cluster": 4}

>  <energy>  (11) 
-8.95

>  <cluster_rmsd>  (11) 
0.65

>  <cluster>  (11) 
1

$$$$

     RDKit          3D

 49 52  0  0  0  0  0  0  0  0999 V2000
  138.5450   72.3900  221.9880 O   0  0  0  0  0  0  0  0  0  0  0  0
  139.5500   71.6860  222.2570 C   0  0  0  0  0  0  0  0  0  0  0  0
  140.4870   71.4450  221.2270 N   0  0  0  0  0  0  0  0  0  0  0  0
  140.3400   71.9680  219.8920 C   0  0  0  0  0  0  0  0  0  0  0  0
  141.2320   73.1350  219.6950 C   0  0  0  0  0  0  0  0  0  0  0  0
  142.2680   73.0950  218.9930 O   0  0  0  0  0  0  0  0  0  0  0  0
  140.8830   74.3540  220.3400 N   0  0  0  0  0  0  0  0  0  0  0  0
  139.5350   74.8430  220.6730 C   0  0  0  0  0  0  0  0  0  0  0  0
  139.7470   75.3670  222.0420 C   0  0  2  0  0  0  0  0  0  0  0  0
  138.7130   76.1280  222.5430 O   0  0  0  0  0  0  0  0  0  0  0  0
  141.0740   75.9750  222.0550 C   0  0  2  0  0  0  0  0  0  0  0  0
  141.1610   77.4460  221.9900 C   0  0  0  0  0  0  0  0  0  0  0  0
  141.1830   78.1700  220.8160 C   0  0  0  0  0  0  0  0  0  0  0  0
  141.2650   79.5530  220.7850 C   0  0  0  0  0  0  0  0  0  0  0  0
  141.3290   80.2890  221.9480 C   0  0  0  0  0  0  0  0  0  0  0  0
  141.4310   82.0160  221.9290 Cl  0  0  0  0  0  0  0  0  0  0  0  0
  141.3080   79.5850  223.1330 C   0  0  0  0  0  0  0  0  0  0  0  0
  141.2270   78.2090  223.1630 C   0  0  0  0  0  0  0  0  0  0  0  0
  141.7510   75.4150  220.8300 C   0  0  0  0  0  0  0  0  0  0  0  0
  139.7750   71.1160  223.5940 C   0  0  0  0  0  0  0  0  0  0  0  0
  139.3960   69.8120  223.8560 C   0  0  0  0  0  0  0  0  0  0  0  0
  139.6320   69.3210  225.1410 C   0  0  0  0  0  0  0  0  0  0  0  0
  140.2250   70.1120  226.1140 C   0  0  0  0  0  0  0  0  0  0  0  0
  140.4770   69.6700  227.3900 C   0  0  0  0  0  0  0  0  0  0  0  0
  141.0680   70.4890  228.3300 C   0  0  0  0  0  0  0  0  0  0  0  0
  141.4150   71.7820  227.9790 C   0  0  0  0  0  0  0  0  0  0  0  0
  141.1790   72.2580  226.7120 C   0  0  0  0  0  0  0  0  0  0  0  0
  140.5840   71.4010  225.8060 C   0  0  0  0  0  0  0  0  0  0  0  0
  140.3560   71.8790  224.5610 N   0  0  0  0  0  0  0  0  0  0  0  0
  141.3170   70.8560  221.4700 H   0  0  0  0  0  0  0  0  0  0  0  0
  140.6011   71.1850  219.1649 H   0  0  0  0  0  0  0  0  0  0  0  0
  139.2973   72.2862  219.7455 H   0  0  0  0  0  0  0  0  0  0  0  0
  139.2128   75.6370  219.9832 H   0  0  0  0  0  0  0  0  0  0  0  0
  138.7474   74.0785  220.5999 H   0  0  0  0  0  0  0  0  0  0  0  0
  139.7261   74.5485  222.7766 H   0  0  0  0  0  0  0  0  0  0  0  0
  138.2160   75.5930  223.2210 H   0  0  0  0  0  0  0  0  0  0  0  0
  141.5257   75.7393  223.0299 H   0  0  0  0  0  0  0  0  0  0  0  0
  141.1332   77.6251  219.8617 H   0  0  0  0  0  0  0  0  0  0  0  0
  141.2792   80.0721  219.8153 H   0  0  0  0  0  0  0  0  0  0  0  0
  141.3573   80.1375  224.0829 H   0  0  0  0  0  0  0  0  0  0  0  0
  141.2138   77.6956  224.1358 H   0  0  0  0  0  0  0  0  0  0  0  0
  141.8663   76.1978  220.0658 H   0  0  0  0  0  0  0  0  0  0  0  0
  142.7569   75.0362  221.0639 H   0  0  0  0  0  0  0  0  0  0  0  0
  138.9270   69.1865  223.0822 H   0  0  0  0  0  0  0  0  0  0  0  0
  139.3426   68.2885  225.3865 H   0  0  0  0  0  0  0  0  0  0  0  0
  140.2019   68.6419  227.6681 H   0  0  0  0  0  0  0  0  0  0  0  0
  141.2613   70.1183  229.3474 H   0  0  0  0  0  0  0  0  0  0  0  0
  141.8866   72.4381  228.7254 H   0  0  0  0  0  0  0  0  0  0  0  0
  141.4539   73.2848  226.4289 H   0  0  0  0  0  0  0  0  0  0  0  0
  1  2  2  0
  2  3  1  0
  3  4  1  0
  4  5  1  0
  5  6  2  0
  5  7  1  0
  7  8  1  0
  8  9  1  0
  9 10  1  0
  9 11  1  0
 11 12  1  0
 12 13  2  0
 13 14  1  0
 14 15  2  0
 15 16  1  0
 15 17  1  0
 17 18  2  0
 11 19  1  0
  2 20  1  0
 20 21  2  0
 21 22  1  0
 22 23  2  0
 23 24  1  0
 24 25  2  0
 25 26  1  0
 26 27  2  0
 27 28  1  0
 28 29  2  0
 19  7  1  0
 29 20  1  0
 18 12  1  0
 28 23  1  0
  3 30  1  0
  4 31  1  0
  4 32  1  0
  8 33  1  0
  8 34  1  0
  9 35  1  1
 10 36  1  0
 11 37  1  1
 13 38  1  0
 14 39  1  0
 17 40  1  0
 18 41  1  0
 19 42  1  0
 19 43  1  0
 21 44  1  0
 22 45  1  0
 24 46  1  0
 25 47  1  0
 26 48  1  0
 27 49  1  0
M  END
>  <smiles>  (12) 
O=C(NCC(=O)N1C[C@H](O)[C@H](c2ccc(Cl)cc2)C1)c1ccc2ccccc2n1

>  <score_type>  (12) 
oracle

>  <origin>  (12) 
autodockgpu

>  <m_score__min__energy>  (12) 
-9.3800000000000008

>  <m_primary>  (12) 
energy

>  <rmsd>  (12) 
3.2558934614591255

>  <m_score__min__rmsd>  (12) 
3.2558934614591255

>  <meeko>  (12) 
{"free_energy": -7.81, "intermolecular_energy": -9.6, "internal_energy": -1.45, "cluster_size": 26, "cluster_id": 1, "rank_in_cluster": 26}

>  <energy>  (12) 
-8.77

>  <cluster_rmsd>  (12) 
1.36

>  <cluster>  (12) 
1

$$$$

     RDKit          3D

 49 52  0  0  0  0  0  0  0  0999 V2000
  138.8460   70.5820  221.3910 O   0  0  0  0  0  0  0  0  0  0  0  0
  139.0820   71.2760  222.4120 C   0  0  0  0  0  0  0  0  0  0  0  0
  139.0050   72.6820  222.2910 N   0  0  0  0  0  0  0  0  0  0  0  0
  138.6690   73.3490  221.0580 C   0  0  0  0  0  0  0  0  0  0  0  0
  139.8900   73.5790  220.2490 C   0  0  0  0  0  0  0  0  0  0  0  0
  140.2840   72.7880  219.3620 O   0  0  0  0  0  0  0  0  0  0  0  0
  140.6430   74.7590  220.5030 N   0  0  0  0  0  0  0  0  0  0  0  0
  142.1040   74.9250  220.4430 C   0  0  0  0  0  0  0  0  0  0  0  0
  142.2200   76.2280  219.7490 C   0  0  2  0  0  0  0  0  0  0  0  0
  143.4800   76.7870  219.7620 O   0  0  0  0  0  0  0  0  0  0  0  0
  141.1280   77.0620  220.2400 C   0  0  2  0  0  0  0  0  0  0  0  0
  141.4460   78.1020  221.2360 C   0  0  0  0  0  0  0  0  0  0  0  0
  141.4020   77.9090  222.6010 C   0  0  0  0  0  0  0  0  0  0  0  0
  141.7070   78.9060  223.5140 C   0  0  0  0  0  0  0  0  0  0  0  0
  142.0800   80.1650  223.0950 C   0  0  0  0  0  0  0  0  0  0  0  0
  142.4650   81.4220  224.2200 Cl  0  0  0  0  0  0  0  0  0  0  0  0
  142.1310   80.3800  221.7350 C   0  0  0  0  0  0  0  0  0  0  0  0
  141.8270   79.3880  220.8270 C   0  0  0  0  0  0  0  0  0  0  0  0
  140.1730   76.0840  220.8800 C   0  0  0  0  0  0  0  0  0  0  0  0
  139.4310   70.6740  223.7080 C   0  0  0  0  0  0  0  0  0  0  0  0
  139.2180   69.3250  223.9160 C   0  0  0  0  0  0  0  0  0  0  0  0
  139.5660   68.8040  225.1630 C   0  0  0  0  0  0  0  0  0  0  0  0
  140.1060   69.6130  226.1530 C   0  0  0  0  0  0  0  0  0  0  0  0
  140.4630   69.1440  227.3940 C   0  0  0  0  0  0  0  0  0  0  0  0
  140.9970   69.9830  228.3520 C   0  0  0  0  0  0  0  0  0  0  0  0
  141.1750   71.3220  228.0540 C   0  0  0  0  0  0  0  0  0  0  0  0
  140.8290   71.8260  226.8240 C   0  0  0  0  0  0  0  0  0  0  0  0
  140.2980   70.9490  225.8980 C   0  0  0  0  0  0  0  0  0  0  0  0
  139.9620   71.4550  224.6900 N   0  0  0  0  0  0  0  0  0  0  0  0
  139.2040   73.2420  223.1520 H   0  0  0  0  0  0  0  0  0  0  0  0
  137.9673   72.7237  220.4865 H   0  0  0  0  0  0  0  0  0  0  0  0
  138.2053   74.3191  221.2904 H   0  0  0  0  0  0  0  0  0  0  0  0
  142.5465   74.9640  221.4493 H   0  0  0  0  0  0  0  0  0  0  0  0
  142.6309   74.0995  219.9421 H   0  0  0  0  0  0  0  0  0  0  0  0
  142.1036   76.0984  218.6629 H   0  0  0  0  0  0  0  0  0  0  0  0
  144.0240   76.3760  219.0360 H   0  0  0  0  0  0  0  0  0  0  0  0
  140.7554   77.6405  219.3818 H   0  0  0  0  0  0  0  0  0  0  0  0
  141.1116   76.9189  222.9822 H   0  0  0  0  0  0  0  0  0  0  0  0
  141.6505   78.6890  224.5909 H   0  0  0  0  0  0  0  0  0  0  0  0
  142.4230   81.3729  221.3625 H   0  0  0  0  0  0  0  0  0  0  0  0
  141.8850   79.6117  219.7515 H   0  0  0  0  0  0  0  0  0  0  0  0
  140.1862   76.1972  221.9741 H   0  0  0  0  0  0  0  0  0  0  0  0
  139.1386   76.2544  220.5469 H   0  0  0  0  0  0  0  0  0  0  0  0
  138.7906   68.6862  223.1291 H   0  0  0  0  0  0  0  0  0  0  0  0
  139.4096   67.7340  225.3647 H   0  0  0  0  0  0  0  0  0  0  0  0
  140.3206   68.0789  227.6292 H   0  0  0  0  0  0  0  0  0  0  0  0
  141.2776   69.5910  229.3408 H   0  0  0  0  0  0  0  0  0  0  0  0
  141.6004   71.9938  228.8141 H   0  0  0  0  0  0  0  0  0  0  0  0
  140.9697   72.8904  226.5847 H   0  0  0  0  0  0  0  0  0  0  0  0
  1  2  2  0
  2  3  1  0
  3  4  1  0
  4  5  1  0
  5  6  2  0
  5  7  1  0
  7  8  1  0
  8  9  1  0
  9 10  1  0
  9 11  1  0
 11 12  1  0
 12 13  2  0
 13 14  1  0
 14 15  2  0
 15 16  1  0
 15 17  1  0
 17 18  2  0
 11 19  1  0
  2 20  1  0
 20 21  2  0
 21 22  1  0
 22 23  2  0
 23 24  1  0
 24 25  2  0
 25 26  1  0
 26 27  2  0
 27 28  1  0
 28 29  2  0
 19  7  1  0
 29 20  1  0
 18 12  1  0
 28 23  1  0
  3 30  1  0
  4 31  1  0
  4 32  1  0
  8 33  1  0
  8 34  1  0
  9 35  1  6
 10 36  1  0
 11 37  1  6
 13 38  1  0
 14 39  1  0
 17 40  1  0
 18 41  1  0
 19 42  1  0
 19 43  1  0
 21 44  1  0
 22 45  1  0
 24 46  1  0
 25 47  1  0
 26 48  1  0
 27 49  1  0
M  END
>  <smiles>  (13) 
O=C(NCC(=O)N1C[C@H](O)[C@H](c2ccc(Cl)cc2)C1)c1ccc2ccccc2n1

>  <score_type>  (13) 
oracle

>  <origin>  (13) 
autodockgpu

>  <m_score__min__energy>  (13) 
-9.3800000000000008

>  <m_primary>  (13) 
energy

>  <rmsd>  (13) 
2.1453406354633833

>  <m_score__min__rmsd>  (13) 
2.1453406354633833

>  <meeko>  (13) 
{"free_energy": -8.61, "intermolecular_energy": -10.4, "internal_energy": -1.41, "cluster_size": 26, "cluster_id": 1, "rank_in_cluster": 18}

>  <energy>  (13) 
-8.77

>  <cluster_rmsd>  (13) 
0.96

>  <cluster>  (13) 
1

$$$$

     RDKit          3D

 49 52  0  0  0  0  0  0  0  0999 V2000
  140.1060   71.4980  221.2290 O   0  0  0  0  0  0  0  0  0  0  0  0
  139.9300   72.0470  222.3450 C   0  0  0  0  0  0  0  0  0  0  0  0
  139.6900   73.4390  222.3700 N   0  0  0  0  0  0  0  0  0  0  0  0
  139.6400   74.2500  221.1790 C   0  0  0  0  0  0  0  0  0  0  0  0
  140.9570   74.8870  220.9350 C   0  0  0  0  0  0  0  0  0  0  0  0
  141.2170   76.0680  221.2580 O   0  0  0  0  0  0  0  0  0  0  0  0
  141.9650   74.1070  220.3020 N   0  0  0  0  0  0  0  0  0  0  0  0
  142.4340   74.2000  218.9100 C   0  0  0  0  0  0  0  0  0  0  0  0
  143.9000   74.0920  219.0900 C   0  0  2  0  0  0  0  0  0  0  0  0
  144.6180   73.8940  217.9310 O   0  0  0  0  0  0  0  0  0  0  0  0
  144.1180   73.1320  220.1680 C   0  0  2  0  0  0  0  0  0  0  0  0
  144.5400   71.7670  219.8030 C   0  0  0  0  0  0  0  0  0  0  0  0
  143.6710   70.7190  219.5840 C   0  0  0  0  0  0  0  0  0  0  0  0
  144.0950   69.4450  219.2410 C   0  0  0  0  0  0  0  0  0  0  0  0
  145.4350   69.1560  219.0980 C   0  0  0  0  0  0  0  0  0  0  0  0
  145.9850   67.5720  218.6700 Cl  0  0  0  0  0  0  0  0  0  0  0  0
  146.3220   70.1890  219.3130 C   0  0  0  0  0  0  0  0  0  0  0  0
  145.8990   71.4560  219.6540 C   0  0  0  0  0  0  0  0  0  0  0  0
  142.7800   73.0360  220.8570 C   0  0  0  0  0  0  0  0  0  0  0  0
  139.9650   71.2910  223.6060 C   0  0  0  0  0  0  0  0  0  0  0  0
  139.5100   69.9860  223.6370 C   0  0  0  0  0  0  0  0  0  0  0  0
  139.5640   69.3150  224.8580 C   0  0  0  0  0  0  0  0  0  0  0  0
  140.0590   69.9350  225.9970 C   0  0  0  0  0  0  0  0  0  0  0  0
  140.1320   69.3130  227.2190 C   0  0  0  0  0  0  0  0  0  0  0  0
  140.6300   69.9660  228.3280 C   0  0  0  0  0  0  0  0  0  0  0  0
  141.0640   71.2740  228.2050 C   0  0  0  0  0  0  0  0  0  0  0  0
  141.0060   71.9280  226.9980 C   0  0  0  0  0  0  0  0  0  0  0  0
  140.4990   71.2330  225.9160 C   0  0  0  0  0  0  0  0  0  0  0  0
  140.4470   71.8860  224.7330 N   0  0  0  0  0  0  0  0  0  0  0  0
  139.5450   73.8770  223.3090 H   0  0  0  0  0  0  0  0  0  0  0  0
  139.3785   73.6161  220.3189 H   0  0  0  0  0  0  0  0  0  0  0  0
  138.8815   75.0355  221.3123 H   0  0  0  0  0  0  0  0  0  0  0  0
  142.0417   73.3752  218.2969 H   0  0  0  0  0  0  0  0  0  0  0  0
  142.1104   75.1111  218.3855 H   0  0  0  0  0  0  0  0  0  0  0  0
  144.3252   75.0616  219.3887 H   0  0  0  0  0  0  0  0  0  0  0  0
  145.2140   74.6780  217.7810 H   0  0  0  0  0  0  0  0  0  0  0  0
  144.9635   73.5058  220.7641 H   0  0  0  0  0  0  0  0  0  0  0  0
  142.5913   70.9027  219.6863 H   0  0  0  0  0  0  0  0  0  0  0  0
  143.3501   68.6517  219.0803 H   0  0  0  0  0  0  0  0  0  0  0  0
  147.4001   69.9965  219.2093 H   0  0  0  0  0  0  0  0  0  0  0  0
  146.6486   72.2450  219.8137 H   0  0  0  0  0  0  0  0  0  0  0  0
  142.3159   72.0592  220.6561 H   0  0  0  0  0  0  0  0  0  0  0  0
  142.8811   73.1308  221.9482 H   0  0  0  0  0  0  0  0  0  0  0  0
  139.1202   69.4956  222.7328 H   0  0  0  0  0  0  0  0  0  0  0  0
  139.2081   68.2760  224.9198 H   0  0  0  0  0  0  0  0  0  0  0  0
  139.7865   68.2732  227.3159 H   0  0  0  0  0  0  0  0  0  0  0  0
  140.6814   69.4522  229.2993 H   0  0  0  0  0  0  0  0  0  0  0  0
  141.4614   71.7982  229.0867 H   0  0  0  0  0  0  0  0  0  0  0  0
  141.3507   72.9676  226.8963 H   0  0  0  0  0  0  0  0  0  0  0  0
  1  2  2  0
  2  3  1  0
  3  4  1  0
  4  5  1  0
  5  6  2  0
  5  7  1  0
  7  8  1  0
  8  9  1  0
  9 10  1  0
  9 11  1  0
 11 12  1  0
 12 13  2  0
 13 14  1  0
 14 15  2  0
 15 16  1  0
 15 17  1  0
 17 18  2  0
 11 19  1  0
  2 20  1  0
 20 21  2  0
 21 22  1  0
 22 23  2  0
 23 24  1  0
 24 25  2  0
 25 26  1  0
 26 27  2  0
 27 28  1  0
 28 29  2  0
 19  7  1  0
 29 20  1  0
 18 12  1  0
 28 23  1  0
  3 30  1  0
  4 31  1  0
  4 32  1  0
  8 33  1  0
  8 34  1  0
  9 35  1  1
 10 36  1  0
 11 37  1  1
 13 38  1  0
 14 39  1  0
 17 40  1  0
 18 41  1  0
 19 42  1  0
 19 43  1  0
 21 44  1  0
 22 45  1  0
 24 46  1  0
 25 47  1  0
 26 48  1  0
 27 49  1  0
M  END
>  <smiles>  (14) 
O=C(NCC(=O)N1C[C@H](O)[C@H](c2ccc(Cl)cc2)C1)c1ccc2ccccc2n1

>  <score_type>  (14) 
oracle

>  <origin>  (14) 
autodockgpu

>  <m_score__min__energy>  (14) 
-9.3800000000000008

>  <m_primary>  (14) 
energy

>  <rmsd>  (14) 
3.4266038504254044

>  <m_score__min__rmsd>  (14) 
3.4266038504254044

>  <meeko>  (14) 
{"free_energy": -8.39, "intermolecular_energy": -10.18, "internal_energy": -1.62, "cluster_size": 11, "cluster_id": 3, "rank_in_cluster": 9}

>  <energy>  (14) 
-8.75

>  <cluster_rmsd>  (14) 
1.98

>  <cluster>  (14) 
1

$$$$

     RDKit          3D

 49 52  0  0  0  0  0  0  0  0999 V2000
  139.4760   71.3090  221.4440 O   0  0  0  0  0  0  0  0  0  0  0  0
  138.9800   71.5890  222.5640 C   0  0  0  0  0  0  0  0  0  0  0  0
  137.8450   72.4310  222.5960 N   0  0  0  0  0  0  0  0  0  0  0  0
  137.2380   72.9780  221.4090 C   0  0  0  0  0  0  0  0  0  0  0  0
  137.0980   74.4490  221.5340 C   0  0  0  0  0  0  0  0  0  0  0  0
  135.9940   75.0380  221.5000 O   0  0  0  0  0  0  0  0  0  0  0  0
  138.2840   75.2180  221.6990 N   0  0  0  0  0  0  0  0  0  0  0  0
  139.6450   74.7260  221.9720 C   0  0  0  0  0  0  0  0  0  0  0  0
  140.4470   75.5700  221.0570 C   0  0  2  0  0  0  0  0  0  0  0  0
  141.8090   75.5220  221.2600 O   0  0  0  0  0  0  0  0  0  0  0  0
  139.8300   76.8930  221.0610 C   0  0  2  0  0  0  0  0  0  0  0  0
  140.4820   77.9570  221.8480 C   0  0  0  0  0  0  0  0  0  0  0  0
  140.0440   78.3880  223.0830 C   0  0  0  0  0  0  0  0  0  0  0  0
  140.6770   79.3890  223.8010 C   0  0  0  0  0  0  0  0  0  0  0  0
  141.8000   80.0190  223.3080 C   0  0  0  0  0  0  0  0  0  0  0  0
  142.6040   81.2710  224.1890 Cl  0  0  0  0  0  0  0  0  0  0  0  0
  142.2550   79.6040  222.0740 C   0  0  0  0  0  0  0  0  0  0  0  0
  141.6240   78.6070  221.3610 C   0  0  0  0  0  0  0  0  0  0  0  0
  138.4580   76.6620  221.6420 C   0  0  0  0  0  0  0  0  0  0  0  0
  139.5380   71.0710  223.8220 C   0  0  0  0  0  0  0  0  0  0  0  0
  140.3730   71.8680  224.5820 C   0  0  0  0  0  0  0  0  0  0  0  0
  140.8760   71.3290  225.7660 C   0  0  0  0  0  0  0  0  0  0  0  0
  140.5460   70.0410  226.1650 C   0  0  0  0  0  0  0  0  0  0  0  0
  141.0160   69.4700  227.3220 C   0  0  0  0  0  0  0  0  0  0  0  0
  140.6640   68.1850  227.6820 C   0  0  0  0  0  0  0  0  0  0  0  0
  139.8200   67.4590  226.8600 C   0  0  0  0  0  0  0  0  0  0  0  0
  139.3310   67.9980  225.6950 C   0  0  0  0  0  0  0  0  0  0  0  0
  139.7120   69.2870  225.3760 C   0  0  0  0  0  0  0  0  0  0  0  0
  139.2240   69.8090  224.2280 N   0  0  0  0  0  0  0  0  0  0  0  0
  137.4460   72.6520  223.5370 H   0  0  0  0  0  0  0  0  0  0  0  0
  137.8695   72.7462  220.5387 H   0  0  0  0  0  0  0  0  0  0  0  0
  136.2403   72.5332  221.2797 H   0  0  0  0  0  0  0  0  0  0  0  0
  139.9288   74.8883  223.0223 H   0  0  0  0  0  0  0  0  0  0  0  0
  139.7730   73.6446  221.8162 H   0  0  0  0  0  0  0  0  0  0  0  0
  140.4147   75.1682  220.0335 H   0  0  0  0  0  0  0  0  0  0  0  0
  142.1220   74.5860  221.1290 H   0  0  0  0  0  0  0  0  0  0  0  0
  139.8811   77.2737  220.0302 H   0  0  0  0  0  0  0  0  0  0  0  0
  139.1510   77.9150  223.5175 H   0  0  0  0  0  0  0  0  0  0  0  0
  140.2769   79.6865  224.7815 H   0  0  0  0  0  0  0  0  0  0  0  0
  143.1480   80.0828  221.6459 H   0  0  0  0  0  0  0  0  0  0  0  0
  142.0287   78.3132  220.3813 H   0  0  0  0  0  0  0  0  0  0  0  0
  138.3925   77.0949  222.6511 H   0  0  0  0  0  0  0  0  0  0  0  0
  137.6766   77.1380  221.0314 H   0  0  0  0  0  0  0  0  0  0  0  0
  140.6312   72.8892  224.2650 H   0  0  0  0  0  0  0  0  0  0  0  0
  141.5455   71.9348  226.3943 H   0  0  0  0  0  0  0  0  0  0  0  0
  141.6864   70.0483  227.9749 H   0  0  0  0  0  0  0  0  0  0  0  0
  141.0501   67.7427  228.6122 H   0  0  0  0  0  0  0  0  0  0  0  0
  139.5364   66.4348  227.1438 H   0  0  0  0  0  0  0  0  0  0  0  0
  138.6599   67.4237  225.0394 H   0  0  0  0  0  0  0  0  0  0  0  0
  1  2  2  0
  2  3  1  0
  3  4  1  0
  4  5  1  0
  5  6  2  0
  5  7  1  0
  7  8  1  0
  8  9  1  0
  9 10  1  0
  9 11  1  0
 11 12  1  0
 12 13  2  0
 13 14  1  0
 14 15  2  0
 15 16  1  0
 15 17  1  0
 17 18  2  0
 11 19  1  0
  2 20  1  0
 20 21  2  0
 21 22  1  0
 22 23  2  0
 23 24  1  0
 24 25  2  0
 25 26  1  0
 26 27  2  0
 27 28  1  0
 28 29  2  0
 19  7  1  0
 29 20  1  0
 18 12  1  0
 28 23  1  0
  3 30  1  0
  4 31  1  0
  4 32  1  0
  8 33  1  0
  8 34  1  0
  9 35  1  6
 10 36  1  0
 11 37  1  6
 13 38  1  0
 14 39  1  0
 17 40  1  0
 18 41  1  0
 19 42  1  0
 19 43  1  0
 21 44  1  0
 22 45  1  0
 24 46  1  0
 25 47  1  0
 26 48  1  0
 27 49  1  0
M  END
>  <smiles>  (15) 
O=C(NCC(=O)N1C[C@H](O)[C@H](c2ccc(Cl)cc2)C1)c1ccc2ccccc2n1

>  <score_type>  (15) 
oracle

>  <origin>  (15) 
autodockgpu

>  <m_score__min__energy>  (15) 
-9.3800000000000008

>  <m_primary>  (15) 
energy

>  <rmsd>  (15) 
3.46750690548301

>  <m_score__min__rmsd>  (15) 
3.46750690548301

>  <meeko>  (15) 
{"free_energy": -8.23, "intermolecular_energy": -10.02, "internal_energy": -1.2, "cluster_size": 10, "cluster_id": 2, "rank_in_cluster": 7}

>  <energy>  (15) 
-8.74

>  <cluster_rmsd>  (15) 
0.88

>  <cluster>  (15) 
1

$$$$

     RDKit          3D

 49 52  0  0  0  0  0  0  0  0999 V2000
  138.4130   70.5160  221.7460 O   0  0  0  0  0  0  0  0  0  0  0  0
  138.9020   71.0940  222.7480 C   0  0  0  0  0  0  0  0  0  0  0  0
  139.0700   72.4970  222.6890 N   0  0  0  0  0  0  0  0  0  0  0  0
  138.7070   73.2850  221.5380 C   0  0  0  0  0  0  0  0  0  0  0  0
  139.8890   73.5000  220.6690 C   0  0  0  0  0  0  0  0  0  0  0  0
  140.2560   72.6790  219.7970 O   0  0  0  0  0  0  0  0  0  0  0  0
  140.6330   74.7000  220.8430 N   0  0  0  0  0  0  0  0  0  0  0  0
  142.0860   74.8860  220.7050 C   0  0  0  0  0  0  0  0  0  0  0  0
  142.1460   76.1640  219.9600 C   0  0  2  0  0  0  0  0  0  0  0  0
  143.3940   76.7430  219.8910 O   0  0  0  0  0  0  0  0  0  0  0  0
  141.0650   76.9980  220.4760 C   0  0  2  0  0  0  0  0  0  0  0  0
  141.4140   78.0780  221.4170 C   0  0  0  0  0  0  0  0  0  0  0  0
  141.3630   77.9580  222.7900 C   0  0  0  0  0  0  0  0  0  0  0  0
  141.6980   78.9900  223.6510 C   0  0  0  0  0  0  0  0  0  0  0  0
  142.1080   80.2150  223.1690 C   0  0  0  0  0  0  0  0  0  0  0  0
  142.5310   81.5160  224.2280 Cl  0  0  0  0  0  0  0  0  0  0  0  0
  142.1660   80.3580  221.7990 C   0  0  0  0  0  0  0  0  0  0  0  0
  141.8320   79.3300  220.9430 C   0  0  0  0  0  0  0  0  0  0  0  0
  140.1590   76.0300  221.1960 C   0  0  0  0  0  0  0  0  0  0  0  0
  139.2980   70.3640  223.9610 C   0  0  0  0  0  0  0  0  0  0  0  0
  139.1420   68.9920  224.0170 C   0  0  0  0  0  0  0  0  0  0  0  0
  139.5320   68.3480  225.1920 C   0  0  0  0  0  0  0  0  0  0  0  0
  140.0580   69.0600  226.2600 C   0  0  0  0  0  0  0  0  0  0  0  0
  140.4570   68.4690  227.4340 C   0  0  0  0  0  0  0  0  0  0  0  0
  140.9740   69.2140  228.4740 C   0  0  0  0  0  0  0  0  0  0  0  0
  141.0940   70.5850  228.3290 C   0  0  0  0  0  0  0  0  0  0  0  0
  140.7070   71.2110  227.1700 C   0  0  0  0  0  0  0  0  0  0  0  0
  140.1930   70.4230  226.1570 C   0  0  0  0  0  0  0  0  0  0  0  0
  139.8160   71.0490  225.0190 N   0  0  0  0  0  0  0  0  0  0  0  0
  139.4780   72.9600  223.5330 H   0  0  0  0  0  0  0  0  0  0  0  0
  137.9283   72.7573  220.9677 H   0  0  0  0  0  0  0  0  0  0  0  0
  138.3293   74.2610  221.8768 H   0  0  0  0  0  0  0  0  0  0  0  0
  142.5763   74.9686  221.6862 H   0  0  0  0  0  0  0  0  0  0  0  0
  142.6017   74.0508  220.2085 H   0  0  0  0  0  0  0  0  0  0  0  0
  141.9798   75.9929  218.8862 H   0  0  0  0  0  0  0  0  0  0  0  0
  143.6160   77.1390  220.7770 H   0  0  0  0  0  0  0  0  0  0  0  0
  140.6405   77.5393  219.6176 H   0  0  0  0  0  0  0  0  0  0  0  0
  141.0415   76.9985  223.2212 H   0  0  0  0  0  0  0  0  0  0  0  0
  141.6359   78.8296  224.7375 H   0  0  0  0  0  0  0  0  0  0  0  0
  142.4884   81.3210  221.3762 H   0  0  0  0  0  0  0  0  0  0  0  0
  141.8952   79.4966  219.8575 H   0  0  0  0  0  0  0  0  0  0  0  0
  140.2233   76.1827  222.2834 H   0  0  0  0  0  0  0  0  0  0  0  0
  139.1068   76.1726  220.9087 H   0  0  0  0  0  0  0  0  0  0  0  0
  138.7264   68.4293  223.1681 H   0  0  0  0  0  0  0  0  0  0  0  0
  139.4203   67.2567  225.2727 H   0  0  0  0  0  0  0  0  0  0  0  0
  140.3624   67.3790  227.5475 H   0  0  0  0  0  0  0  0  0  0  0  0
  141.2872   68.7238  229.4076 H   0  0  0  0  0  0  0  0  0  0  0  0
  141.5060   71.1827  229.1554 H   0  0  0  0  0  0  0  0  0  0  0  0
  140.8025   72.3004  227.0516 H   0  0  0  0  0  0  0  0  0  0  0  0
  1  2  2  0
  2  3  1  0
  3  4  1  0
  4  5  1  0
  5  6  2  0
  5  7  1  0
  7  8  1  0
  8  9  1  0
  9 10  1  0
  9 11  1  0
 11 12  1  0
 12 13  2  0
 13 14  1  0
 14 15  2  0
 15 16  1  0
 15 17  1  0
 17 18  2  0
 11 19  1  0
  2 20  1  0
 20 21  2  0
 21 22  1  0
 22 23  2  0
 23 24  1  0
 24 25  2  0
 25 26  1  0
 26 27  2  0
 27 28  1  0
 28 29  2  0
 19  7  1  0
 29 20  1  0
 18 12  1  0
 28 23  1  0
  3 30  1  0
  4 31  1  0
  4 32  1  0
  8 33  1  0
  8 34  1  0
  9 35  1  6
 10 36  1  0
 11 37  1  6
 13 38  1  0
 14 39  1  0
 17 40  1  0
 18 41  1  0
 19 42  1  0
 19 43  1  0
 21 44  1  0
 22 45  1  0
 24 46  1  0
 25 47  1  0
 26 48  1  0
 27 49  1  0
M  END
>  <smiles>  (16) 
O=C(NCC(=O)N1C[C@H](O)[C@H](c2ccc(Cl)cc2)C1)c1ccc2ccccc2n1

>  <score_type>  (16) 
oracle

>  <origin>  (16) 
autodockgpu

>  <m_score__min__energy>  (16) 
-9.3800000000000008

>  <m_primary>  (16) 
energy

>  <rmsd>  (16) 
2.3173494758157114

>  <m_score__min__rmsd>  (16) 
2.3173494758157114

>  <meeko>  (16) 
{"free_energy": -9.09, "intermolecular_energy": -10.88, "internal_energy": -1.43, "cluster_size": 26, "cluster_id": 1, "rank_in_cluster": 7}

>  <energy>  (16) 
-8.72

>  <cluster_rmsd>  (16) 
1.51

>  <cluster>  (16) 
1

$$$$

     RDKit          3D

 49 52  0  0  0  0  0  0  0  0999 V2000
  138.3620   70.8720  221.4500 O   0  0  0  0  0  0  0  0  0  0  0  0
  138.3860   71.5350  222.5170 C   0  0  0  0  0  0  0  0  0  0  0  0
  137.6550   72.7430  222.5650 N   0  0  0  0  0  0  0  0  0  0  0  0
  136.8900   73.2440  221.4500 C   0  0  0  0  0  0  0  0  0  0  0  0
  137.7950   73.7600  220.3960 C   0  0  0  0  0  0  0  0  0  0  0  0
  137.6220   73.5380  219.1750 O   0  0  0  0  0  0  0  0  0  0  0  0
  138.9100   74.5440  220.8020 N   0  0  0  0  0  0  0  0  0  0  0  0
  140.1550   74.0790  221.4340 C   0  0  0  0  0  0  0  0  0  0  0  0
  141.1680   74.8680  220.6960 C   0  0  2  0  0  0  0  0  0  0  0  0
  142.4370   74.8400  221.2340 O   0  0  0  0  0  0  0  0  0  0  0  0
  140.5840   76.1850  220.4640 C   0  0  2  0  0  0  0  0  0  0  0  0
  141.0300   77.3000  221.3200 C   0  0  0  0  0  0  0  0  0  0  0  0
  141.0280   77.2690  222.6990 C   0  0  0  0  0  0  0  0  0  0  0  0
  141.4550   78.3320  223.4780 C   0  0  0  0  0  0  0  0  0  0  0  0
  141.9130   79.4980  222.9030 C   0  0  0  0  0  0  0  0  0  0  0  0
  142.4510   80.8350  223.8590 Cl  0  0  0  0  0  0  0  0  0  0  0  0
  141.9240   79.5500  221.5260 C   0  0  0  0  0  0  0  0  0  0  0  0
  141.4990   78.4920  220.7510 C   0  0  0  0  0  0  0  0  0  0  0  0
  139.1070   75.9830  220.6990 C   0  0  0  0  0  0  0  0  0  0  0  0
  139.1410   71.0930  223.7000 C   0  0  0  0  0  0  0  0  0  0  0  0
  140.1480   71.8920  224.2080 C   0  0  0  0  0  0  0  0  0  0  0  0
  140.8330   71.4260  225.3300 C   0  0  0  0  0  0  0  0  0  0  0  0
  140.5120   70.2080  225.9130 C   0  0  0  0  0  0  0  0  0  0  0  0
  141.1590   69.7110  227.0180 C   0  0  0  0  0  0  0  0  0  0  0  0
  140.8100   68.4940  227.5670 C   0  0  0  0  0  0  0  0  0  0  0  0
  139.7870   67.7610  226.9910 C   0  0  0  0  0  0  0  0  0  0  0  0
  139.1180   68.2270  225.8860 C   0  0  0  0  0  0  0  0  0  0  0  0
  139.5030   69.4500  225.3710 C   0  0  0  0  0  0  0  0  0  0  0  0
  138.8380   69.9000  224.2830 N   0  0  0  0  0  0  0  0  0  0  0  0
  137.6870   73.2810  223.4620 H   0  0  0  0  0  0  0  0  0  0  0  0
  136.2770   72.4301  221.0355 H   0  0  0  0  0  0  0  0  0  0  0  0
  136.2433   74.0626  221.7987 H   0  0  0  0  0  0  0  0  0  0  0  0
  140.1708   74.3091  222.5096 H   0  0  0  0  0  0  0  0  0  0  0  0
  140.3069   72.9908  221.3826 H   0  0  0  0  0  0  0  0  0  0  0  0
  141.3862   74.4022  219.7237 H   0  0  0  0  0  0  0  0  0  0  0  0
  142.8030   75.7670  221.2450 H   0  0  0  0  0  0  0  0  0  0  0  0
  140.8946   76.5003  219.4570 H   0  0  0  0  0  0  0  0  0  0  0  0
  140.6711   76.3588  223.2031 H   0  0  0  0  0  0  0  0  0  0  0  0
  141.4281   78.2440  224.5741 H   0  0  0  0  0  0  0  0  0  0  0  0
  142.2829   80.4638  221.0299 H   0  0  0  0  0  0  0  0  0  0  0  0
  141.5288   78.5859  219.6554 H   0  0  0  0  0  0  0  0  0  0  0  0
  138.7969   76.4789  221.6307 H   0  0  0  0  0  0  0  0  0  0  0  0
  138.5067   76.4145  219.8844 H   0  0  0  0  0  0  0  0  0  0  0  0
  140.3994   72.8578  223.7454 H   0  0  0  0  0  0  0  0  0  0  0  0
  141.6419   72.0345  225.7605 H   0  0  0  0  0  0  0  0  0  0  0  0
  141.9718   70.2949  227.4746 H   0  0  0  0  0  0  0  0  0  0  0  0
  141.3388   68.1109  228.4522 H   0  0  0  0  0  0  0  0  0  0  0  0
  139.5055   66.7902  227.4250 H   0  0  0  0  0  0  0  0  0  0  0  0
  138.3040   67.6469  225.4269 H   0  0  0  0  0  0  0  0  0  0  0  0
  1  2  2  0
  2  3  1  0
  3  4  1  0
  4  5  1  0
  5  6  2  0
  5  7  1  0
  7  8  1  0
  8  9  1  0
  9 10  1  0
  9 11  1  0
 11 12  1  0
 12 13  2  0
 13 14  1  0
 14 15  2  0
 15 16  1  0
 15 17  1  0
 17 18  2  0
 11 19  1  0
  2 20  1  0
 20 21  2  0
 21 22  1  0
 22 23  2  0
 23 24  1  0
 24 25  2  0
 25 26  1  0
 26 27  2  0
 27 28  1  0
 28 29  2  0
 19  7  1  0
 29 20  1  0
 18 12  1  0
 28 23  1  0
  3 30  1  0
  4 31  1  0
  4 32  1  0
  8 33  1  0
  8 34  1  0
  9 35  1  6
 10 36  1  0
 11 37  1  6
 13 38  1  0
 14 39  1  0
 17 40  1  0
 18 41  1  0
 19 42  1  0
 19 43  1  0
 21 44  1  0
 22 45  1  0
 24 46  1  0
 25 47  1  0
 26 48  1  0
 27 49  1  0
M  END
>  <smiles>  (17) 
O=C(NCC(=O)N1C[C@H](O)[C@H](c2ccc(Cl)cc2)C1)c1ccc2ccccc2n1

>  <score_type>  (17) 
oracle

>  <origin>  (17) 
autodockgpu

>  <m_score__min__energy>  (17) 
-9.3800000000000008

>  <m_primary>  (17) 
energy

>  <rmsd>  (17) 
3.1531863942431153

>  <m_score__min__rmsd>  (17) 
3.1531863942431153

>  <meeko>  (17) 
{"free_energy": -8.33, "intermolecular_energy": -10.12, "internal_energy": -1.32, "cluster_size": 10, "cluster_id": 2, "rank_in_cluster": 6}

>  <energy>  (17) 
-8.62

>  <cluster_rmsd>  (17) 
1.48

>  <cluster>  (17) 
1

$$$$

     RDKit          3D

 49 52  0  0  0  0  0  0  0  0999 V2000
  138.0070   70.9780  221.4130 O   0  0  0  0  0  0  0  0  0  0  0  0
  138.0520   71.5250  222.5430 C   0  0  0  0  0  0  0  0  0  0  0  0
  137.2680   72.6830  222.7520 N   0  0  0  0  0  0  0  0  0  0  0  0
  136.4280   73.2580  221.7320 C   0  0  0  0  0  0  0  0  0  0  0  0
  137.2570   73.8590  220.6600 C   0  0  0  0  0  0  0  0  0  0  0  0
  136.9990   73.7310  219.4410 O   0  0  0  0  0  0  0  0  0  0  0  0
  138.3990   74.6150  221.0470 N   0  0  0  0  0  0  0  0  0  0  0  0
  139.6050   74.1330  221.7400 C   0  0  0  0  0  0  0  0  0  0  0  0
  140.6710   74.8270  220.9830 C   0  0  2  0  0  0  0  0  0  0  0  0
  141.9240   74.7740  221.5550 O   0  0  0  0  0  0  0  0  0  0  0  0
  140.1560   76.1520  220.6550 C   0  0  2  0  0  0  0  0  0  0  0  0
  140.6350   77.2960  221.4530 C   0  0  0  0  0  0  0  0  0  0  0  0
  140.0840   77.6890  222.6550 C   0  0  0  0  0  0  0  0  0  0  0  0
  140.5560   78.7690  223.3840 C   0  0  0  0  0  0  0  0  0  0  0  0
  141.6210   79.5200  222.9360 C   0  0  0  0  0  0  0  0  0  0  0  0
  142.2240   80.8710  223.8320 Cl  0  0  0  0  0  0  0  0  0  0  0  0
  142.1860   79.1460  221.7360 C   0  0  0  0  0  0  0  0  0  0  0  0
  141.7160   78.0710  221.0110 C   0  0  0  0  0  0  0  0  0  0  0  0
  138.6670   76.0330  220.8620 C   0  0  0  0  0  0  0  0  0  0  0  0
  138.8830   71.0010  223.6370 C   0  0  0  0  0  0  0  0  0  0  0  0
  139.9940   71.7090  224.0540 C   0  0  0  0  0  0  0  0  0  0  0  0
  140.7480   71.1670  225.0950 C   0  0  0  0  0  0  0  0  0  0  0  0
  140.3930   69.9650  225.6890 C   0  0  0  0  0  0  0  0  0  0  0  0
  141.1040   69.3950  226.7160 C   0  0  0  0  0  0  0  0  0  0  0  0
  140.7170   68.1960  227.2790 C   0  0  0  0  0  0  0  0  0  0  0  0
  139.5890   67.5560  226.7970 C   0  0  0  0  0  0  0  0  0  0  0  0
  138.8520   68.0960  225.7710 C   0  0  0  0  0  0  0  0  0  0  0  0
  139.2800   69.2980  225.2390 C   0  0  0  0  0  0  0  0  0  0  0  0
  138.5470   69.8210  224.2300 N   0  0  0  0  0  0  0  0  0  0  0  0
  137.3190   73.1230  223.6990 H   0  0  0  0  0  0  0  0  0  0  0  0
  135.7915   72.4715  221.3004 H   0  0  0  0  0  0  0  0  0  0  0  0
  135.8037   74.0430  222.1837 H   0  0  0  0  0  0  0  0  0  0  0  0
  139.6058   74.4285  222.7996 H   0  0  0  0  0  0  0  0  0  0  0  0
  139.7061   73.0378  221.7595 H   0  0  0  0  0  0  0  0  0  0  0  0
  140.8900   74.2922  220.0471 H   0  0  0  0  0  0  0  0  0  0  0  0
  142.2840   75.7000  221.6300 H   0  0  0  0  0  0  0  0  0  0  0  0
  140.5043   76.3898  219.6390 H   0  0  0  0  0  0  0  0  0  0  0  0
  139.2313   77.1193  223.0529 H   0  0  0  0  0  0  0  0  0  0  0  0
  140.0723   79.0312  224.3365 H   0  0  0  0  0  0  0  0  0  0  0  0
  143.0374   79.7222  221.3446 H   0  0  0  0  0  0  0  0  0  0  0  0
  142.2034   77.8145  220.0588 H   0  0  0  0  0  0  0  0  0  0  0  0
  138.3587   76.5995  221.7531 H   0  0  0  0  0  0  0  0  0  0  0  0
  138.1079   76.4401  220.0066 H   0  0  0  0  0  0  0  0  0  0  0  0
  140.2731   72.6632  223.5832 H   0  0  0  0  0  0  0  0  0  0  0  0
  141.6403   71.7026  225.4512 H   0  0  0  0  0  0  0  0  0  0  0  0
  142.0008   69.9047  227.0980 H   0  0  0  0  0  0  0  0  0  0  0  0
  141.2986   67.7542  228.1015 H   0  0  0  0  0  0  0  0  0  0  0  0
  139.2774   66.5997  227.2423 H   0  0  0  0  0  0  0  0  0  0  0  0
  137.9539   67.5902  225.3868 H   0  0  0  0  0  0  0  0  0  0  0  0
  1  2  2  0
  2  3  1  0
  3  4  1  0
  4  5  1  0
  5  6  2  0
  5  7  1  0
  7  8  1  0
  8  9  1  0
  9 10  1  0
  9 11  1  0
 11 12  1  0
 12 13  2  0
 13 14  1  0
 14 15  2  0
 15 16  1  0
 15 17  1  0
 17 18  2  0
 11 19  1  0
  2 20  1  0
 20 21  2  0
 21 22  1  0
 22 23  2  0
 23 24  1  0
 24 25  2  0
 25 26  1  0
 26 27  2  0
 27 28  1  0
 28 29  2  0
 19  7  1  0
 29 20  1  0
 18 12  1  0
 28 23  1  0
  3 30  1  0
  4 31  1  0
  4 32  1  0
  8 33  1  0
  8 34  1  0
  9 35  1  6
 10 36  1  0
 11 37  1  6
 13 38  1  0
 14 39  1  0
 17 40  1  0
 18 41  1  0
 19 42  1  0
 19 43  1  0
 21 44  1  0
 22 45  1  0
 24 46  1  0
 25 47  1  0
 26 48  1  0
 27 49  1  0
M  END
>  <smiles>  (18) 
O=C(NCC(=O)N1C[C@H](O)[C@H](c2ccc(Cl)cc2)C1)c1ccc2ccccc2n1

>  <score_type>  (18) 
oracle

>  <origin>  (18) 
autodockgpu

>  <m_score__min__energy>  (18) 
-9.3800000000000008

>  <m_primary>  (18) 
energy

>  <rmsd>  (18) 
3.2944964466861175

>  <m_score__min__rmsd>  (18) 
3.2944964466861175

>  <meeko>  (18) 
{"free_energy": -8.14, "intermolecular_energy": -9.93, "internal_energy": -1.26, "cluster_size": 10, "cluster_id": 2, "rank_in_cluster": 8}

>  <energy>  (18) 
-8.61

>  <cluster_rmsd>  (18) 
1.5

>  <cluster>  (18) 
1

$$$$

     RDKit          3D

 49 52  0  0  0  0  0  0  0  0999 V2000
  137.7100   69.9350  222.1590 O   0  0  0  0  0  0  0  0  0  0  0  0
  138.6020   70.4730  222.8620 C   0  0  0  0  0  0  0  0  0  0  0  0
  139.1700   71.6820  222.4030 N   0  0  0  0  0  0  0  0  0  0  0  0
  138.7750   72.3200  221.1720 C   0  0  0  0  0  0  0  0  0  0  0  0
  138.3430   73.7150  221.4310 C   0  0  0  0  0  0  0  0  0  0  0  0
  137.1450   74.0440  221.5850 O   0  0  0  0  0  0  0  0  0  0  0  0
  139.3480   74.7190  221.5060 N   0  0  0  0  0  0  0  0  0  0  0  0
  140.8070   74.5410  221.4170 C   0  0  0  0  0  0  0  0  0  0  0  0
  141.1840   75.6720  220.5390 C   0  0  2  0  0  0  0  0  0  0  0  0
  142.5360   75.9290  220.4650 O   0  0  0  0  0  0  0  0  0  0  0  0
  140.3240   76.7910  220.9070 C   0  0  2  0  0  0  0  0  0  0  0  0
  140.9020   77.8630  221.7380 C   0  0  0  0  0  0  0  0  0  0  0  0
  141.0760   77.7780  223.1040 C   0  0  0  0  0  0  0  0  0  0  0  0
  141.6240   78.8020  223.8600 C   0  0  0  0  0  0  0  0  0  0  0  0
  142.0310   79.9810  223.2740 C   0  0  0  0  0  0  0  0  0  0  0  0
  142.7170   81.2700  224.2010 Cl  0  0  0  0  0  0  0  0  0  0  0  0
  141.8650   80.0880  221.9100 C   0  0  0  0  0  0  0  0  0  0  0  0
  141.3200   79.0690  221.1580 C   0  0  0  0  0  0  0  0  0  0  0  0
  139.2000   76.1550  221.6870 C   0  0  0  0  0  0  0  0  0  0  0  0
  139.0610   69.8870  224.1310 C   0  0  0  0  0  0  0  0  0  0  0  0
  138.8990   68.5340  224.3600 C   0  0  0  0  0  0  0  0  0  0  0  0
  139.3520   68.0300  225.5790 C   0  0  0  0  0  0  0  0  0  0  0  0
  139.9430   68.8570  226.5230 C   0  0  0  0  0  0  0  0  0  0  0  0
  140.4040   68.4050  227.7360 C   0  0  0  0  0  0  0  0  0  0  0  0
  140.9860   69.2620  228.6480 C   0  0  0  0  0  0  0  0  0  0  0  0
  141.1070   70.6040  228.3330 C   0  0  0  0  0  0  0  0  0  0  0  0
  140.6580   71.0920  227.1300 C   0  0  0  0  0  0  0  0  0  0  0  0
  140.0820   70.1960  226.2490 C   0  0  0  0  0  0  0  0  0  0  0  0
  139.6440   70.6870  225.0680 N   0  0  0  0  0  0  0  0  0  0  0  0
  139.9100   72.1150  223.0030 H   0  0  0  0  0  0  0  0  0  0  0  0
  139.6277   72.3272  220.4771 H   0  0  0  0  0  0  0  0  0  0  0  0
  137.9356   71.7611  220.7325 H   0  0  0  0  0  0  0  0  0  0  0  0
  141.2836   74.6220  222.4051 H   0  0  0  0  0  0  0  0  0  0  0  0
  141.1186   73.5554  221.0409 H   0  0  0  0  0  0  0  0  0  0  0  0
  141.0018   75.4190  219.4841 H   0  0  0  0  0  0  0  0  0  0  0  0
  142.7820   76.5730  221.1840 H   0  0  0  0  0  0  0  0  0  0  0  0
  140.0576   77.3106  219.9748 H   0  0  0  0  0  0  0  0  0  0  0  0
  140.7656   76.8554  223.6163 H   0  0  0  0  0  0  0  0  0  0  0  0
  141.7360   78.6715  224.9465 H   0  0  0  0  0  0  0  0  0  0  0  0
  142.1768   81.0147  221.4060 H   0  0  0  0  0  0  0  0  0  0  0  0
  141.2100   79.2061  220.0721 H   0  0  0  0  0  0  0  0  0  0  0  0
  139.2789   76.4160  222.7527 H   0  0  0  0  0  0  0  0  0  0  0  0
  138.2180   76.5059  221.3370 H   0  0  0  0  0  0  0  0  0  0  0  0
  138.4308   67.8797  223.6099 H   0  0  0  0  0  0  0  0  0  0  0  0
  139.2386   66.9575  225.7957 H   0  0  0  0  0  0  0  0  0  0  0  0
  140.3072   67.3380  227.9853 H   0  0  0  0  0  0  0  0  0  0  0  0
  141.3495   68.8825  229.6143 H   0  0  0  0  0  0  0  0  0  0  0  0
  141.5699   71.2906  229.0571 H   0  0  0  0  0  0  0  0  0  0  0  0
  140.7535   72.1582  226.8767 H   0  0  0  0  0  0  0  0  0  0  0  0
  1  2  2  0
  2  3  1  0
  3  4  1  0
  4  5  1  0
  5  6  2  0
  5  7  1  0
  7  8  1  0
  8  9  1  0
  9 10  1  0
  9 11  1  0
 11 12  1  0
 12 13  2  0
 13 14  1  0
 14 15  2  0
 15 16  1  0
 15 17  1  0
 17 18  2  0
 11 19  1  0
  2 20  1  0
 20 21  2  0
 21 22  1  0
 22 23  2  0
 23 24  1  0
 24 25  2  0
 25 26  1  0
 26 27  2  0
 27 28  1  0
 28 29  2  0
 19  7  1  0
 29 20  1  0
 18 12  1  0
 28 23  1  0
  3 30  1  0
  4 31  1  0
  4 32  1  0
  8 33  1  0
  8 34  1  0
  9 35  1  6
 10 36  1  0
 11 37  1  6
 13 38  1  0
 14 39  1  0
 17 40  1  0
 18 41  1  0
 19 42  1  0
 19 43  1  0
 21 44  1  0
 22 45  1  0
 24 46  1  0
 25 47  1  0
 26 48  1  0
 27 49  1  0
M  END
>  <smiles>  (19) 
O=C(NCC(=O)N1C[C@H](O)[C@H](c2ccc(Cl)cc2)C1)c1ccc2ccccc2n1

>  <score_type>  (19) 
oracle

>  <origin>  (19) 
autodockgpu

>  <m_score__min__energy>  (19) 
-9.3800000000000008

>  <m_primary>  (19) 
energy

>  <rmsd>  (19) 
2.5795343227308374

>  <m_score__min__rmsd>  (19) 
2.5795343227308374

>  <meeko>  (19) 
{"free_energy": -8.49, "intermolecular_energy": -10.28, "internal_energy": -1.34, "cluster_size": 26, "cluster_id": 1, "rank_in_cluster": 21}

>  <energy>  (19) 
-8.61

>  <cluster_rmsd>  (19) 
1.89

>  <cluster>  (19) 
1

$$$$

     RDKit          3D

 49 52  0  0  0  0  0  0  0  0999 V2000
  141.3280   72.4430  221.5730 O   0  0  0  0  0  0  0  0  0  0  0  0
  140.4160   72.5840  222.4260 C   0  0  0  0  0  0  0  0  0  0  0  0
  139.5780   73.7170  222.3210 N   0  0  0  0  0  0  0  0  0  0  0  0
  139.7220   74.7100  221.2850 C   0  0  0  0  0  0  0  0  0  0  0  0
  139.2060   76.0190  221.7520 C   0  0  0  0  0  0  0  0  0  0  0  0
  138.1340   76.1450  222.3870 O   0  0  0  0  0  0  0  0  0  0  0  0
  139.9730   77.1800  221.4570 N   0  0  0  0  0  0  0  0  0  0  0  0
  140.4640   78.1980  222.4000 C   0  0  0  0  0  0  0  0  0  0  0  0
  141.8450   78.4070  221.9080 C   0  0  2  0  0  0  0  0  0  0  0  0
  142.4960   79.5000  222.4390 O   0  0  0  0  0  0  0  0  0  0  0  0
  141.7870   78.3230  220.4520 C   0  0  2  0  0  0  0  0  0  0  0  0
  141.8290   79.5810  219.6850 C   0  0  0  0  0  0  0  0  0  0  0  0
  142.5340   79.7520  218.5120 C   0  0  0  0  0  0  0  0  0  0  0  0
  142.5560   80.9460  217.8100 C   0  0  0  0  0  0  0  0  0  0  0  0
  141.8590   82.0480  218.2590 C   0  0  0  0  0  0  0  0  0  0  0  0
  141.8730   83.5480  217.3970 Cl  0  0  0  0  0  0  0  0  0  0  0  0
  141.1470   81.9000  219.4300 C   0  0  0  0  0  0  0  0  0  0  0  0
  141.1270   80.7110  220.1270 C   0  0  0  0  0  0  0  0  0  0  0  0
  140.4650   77.6530  220.1710 C   0  0  0  0  0  0  0  0  0  0  0  0
  140.2010   71.6170  223.5130 C   0  0  0  0  0  0  0  0  0  0  0  0
  139.5250   70.4400  223.2600 C   0  0  0  0  0  0  0  0  0  0  0  0
  139.3480   69.5570  224.3260 C   0  0  0  0  0  0  0  0  0  0  0  0
  139.8350   69.8530  225.5910 C   0  0  0  0  0  0  0  0  0  0  0  0
  139.6850   69.0150  226.6690 C   0  0  0  0  0  0  0  0  0  0  0  0
  140.1850   69.3470  227.9110 C   0  0  0  0  0  0  0  0  0  0  0  0
  140.8510   70.5500  228.0730 C   0  0  0  0  0  0  0  0  0  0  0  0
  141.0200   71.4130  227.0180 C   0  0  0  0  0  0  0  0  0  0  0  0
  140.5020   71.0370  225.7930 C   0  0  0  0  0  0  0  0  0  0  0  0
  140.6740   71.8930  224.7610 N   0  0  0  0  0  0  0  0  0  0  0  0
  138.8250   73.8170  223.0400 H   0  0  0  0  0  0  0  0  0  0  0  0
  140.7860   74.8112  221.0247 H   0  0  0  0  0  0  0  0  0  0  0  0
  139.1468   74.3927  220.4027 H   0  0  0  0  0  0  0  0  0  0  0  0
  139.8708   79.1224  222.3396 H   0  0  0  0  0  0  0  0  0  0  0  0
  140.4026   77.8999  223.4570 H   0  0  0  0  0  0  0  0  0  0  0  0
  142.5113   77.6153  222.2813 H   0  0  0  0  0  0  0  0  0  0  0  0
  143.3920   79.5810  222.0120 H   0  0  0  0  0  0  0  0  0  0  0  0
  142.6963   77.7977  220.1247 H   0  0  0  0  0  0  0  0  0  0  0  0
  143.1057   78.9001  218.1152 H   0  0  0  0  0  0  0  0  0  0  0  0
  143.1387   81.0162  216.8796 H   0  0  0  0  0  0  0  0  0  0  0  0
  140.5776   82.7566  219.8200 H   0  0  0  0  0  0  0  0  0  0  0  0
  140.5432   80.6470  221.0571 H   0  0  0  0  0  0  0  0  0  0  0  0
  139.7577   78.3722  219.7323 H   0  0  0  0  0  0  0  0  0  0  0  0
  140.5768   76.8265  219.4538 H   0  0  0  0  0  0  0  0  0  0  0  0
  139.1405   70.2071  222.2561 H   0  0  0  0  0  0  0  0  0  0  0  0
  138.8132   68.6101  224.1605 H   0  0  0  0  0  0  0  0  0  0  0  0
  139.1553   68.0597  226.5392 H   0  0  0  0  0  0  0  0  0  0  0  0
  140.0560   68.6636  228.7632 H   0  0  0  0  0  0  0  0  0  0  0  0
  141.2509   70.8187  229.0619 H   0  0  0  0  0  0  0  0  0  0  0  0
  141.5488   72.3694  227.1435 H   0  0  0  0  0  0  0  0  0  0  0  0
  1  2  2  0
  2  3  1  0
  3  4  1  0
  4  5  1  0
  5  6  2  0
  5  7  1  0
  7  8  1  0
  8  9  1  0
  9 10  1  0
  9 11  1  0
 11 12  1  0
 12 13  2  0
 13 14  1  0
 14 15  2  0
 15 16  1  0
 15 17  1  0
 17 18  2  0
 11 19  1  0
  2 20  1  0
 20 21  2  0
 21 22  1  0
 22 23  2  0
 23 24  1  0
 24 25  2  0
 25 26  1  0
 26 27  2  0
 27 28  1  0
 28 29  2  0
 19  7  1  0
 29 20  1  0
 18 12  1  0
 28 23  1  0
  3 30  1  0
  4 31  1  0
  4 32  1  0
  8 33  1  0
  8 34  1  0
  9 35  1  1
 10 36  1  0
 11 37  1  6
 13 38  1  0
 14 39  1  0
 17 40  1  0
 18 41  1  0
 19 42  1  0
 19 43  1  0
 21 44  1  0
 22 45  1  0
 24 46  1  0
 25 47  1  0
 26 48  1  0
 27 49  1  0
M  END
>  <smiles>  (20) 
O=C(NCC(=O)N1C[C@H](O)[C@H](c2ccc(Cl)cc2)C1)c1ccc2ccccc2n1

>  <score_type>  (20) 
oracle

>  <origin>  (20) 
autodockgpu

>  <m_score__min__energy>  (20) 
-9.3800000000000008

>  <m_primary>  (20) 
energy

>  <rmsd>  (20) 
3.120225079190942

>  <m_score__min__rmsd>  (20) 
3.120225079190942

>  <meeko>  (20) 
{"free_energy": -8.44, "intermolecular_energy": -10.23, "internal_energy": -1.25, "cluster_size": 2, "cluster_id": 4, "rank_in_cluster": 1}

>  <energy>  (20) 
-8.5

>  <cluster_rmsd>  (20) 
1.08

>  <cluster>  (20) 
1

$$$$

     RDKit          3D

 49 52  0  0  0  0  0  0  0  0999 V2000
  138.4610   70.1620  221.7240 O   0  0  0  0  0  0  0  0  0  0  0  0
  138.5840   70.7420  222.8310 C   0  0  0  0  0  0  0  0  0  0  0  0
  138.2710   72.1190  222.8980 N   0  0  0  0  0  0  0  0  0  0  0  0
  137.8210   72.8790  221.7590 C   0  0  0  0  0  0  0  0  0  0  0  0
  138.9160   73.0230  220.7710 C   0  0  0  0  0  0  0  0  0  0  0  0
  139.0510   72.2650  219.7830 O   0  0  0  0  0  0  0  0  0  0  0  0
  139.8520   74.0760  220.9640 N   0  0  0  0  0  0  0  0  0  0  0  0
  141.3110   73.9650  221.1300 C   0  0  0  0  0  0  0  0  0  0  0  0
  141.7860   75.0750  220.2730 C   0  0  2  0  0  0  0  0  0  0  0  0
  143.1190   75.3940  220.4140 O   0  0  0  0  0  0  0  0  0  0  0  0
  140.8300   76.1670  220.4350 C   0  0  2  0  0  0  0  0  0  0  0  0
  141.2150   77.2990  221.2980 C   0  0  0  0  0  0  0  0  0  0  0  0
  141.0710   77.3140  222.6690 C   0  0  0  0  0  0  0  0  0  0  0  0
  141.4420   78.3930  223.4560 C   0  0  0  0  0  0  0  0  0  0  0  0
  141.9860   79.5290  222.8950 C   0  0  0  0  0  0  0  0  0  0  0  0
  142.4560   80.8860  223.8600 Cl  0  0  0  0  0  0  0  0  0  0  0  0
  142.1390   79.5350  221.5250 C   0  0  0  0  0  0  0  0  0  0  0  0
  141.7690   78.4620  220.7440 C   0  0  0  0  0  0  0  0  0  0  0  0
  139.6170   75.5100  221.0450 C   0  0  0  0  0  0  0  0  0  0  0  0
  139.0370   70.0380  224.0400 C   0  0  0  0  0  0  0  0  0  0  0  0
  138.8690   68.6700  224.1410 C   0  0  0  0  0  0  0  0  0  0  0  0
  139.3170   68.0520  225.3100 C   0  0  0  0  0  0  0  0  0  0  0  0
  139.9080   68.7850  226.3280 C   0  0  0  0  0  0  0  0  0  0  0  0
  140.3630   68.2200  227.4940 C   0  0  0  0  0  0  0  0  0  0  0  0
  140.9460   68.9850  228.4840 C   0  0  0  0  0  0  0  0  0  0  0  0
  141.0730   70.3500  228.2970 C   0  0  0  0  0  0  0  0  0  0  0  0
  140.6300   70.9500  227.1430 C   0  0  0  0  0  0  0  0  0  0  0  0
  140.0530   70.1430  226.1810 C   0  0  0  0  0  0  0  0  0  0  0  0
  139.6200   70.7440  225.0500 N   0  0  0  0  0  0  0  0  0  0  0  0
  138.3800   72.5830  223.8290 H   0  0  0  0  0  0  0  0  0  0  0  0
  136.9735   72.3594  221.2881 H   0  0  0  0  0  0  0  0  0  0  0  0
  137.5101   73.8787  222.0964 H   0  0  0  0  0  0  0  0  0  0  0  0
  141.6091   74.1101  222.1788 H   0  0  0  0  0  0  0  0  0  0  0  0
  141.7214   72.9806  220.8606 H   0  0  0  0  0  0  0  0  0  0  0  0
  141.7967   74.7688  219.2165 H   0  0  0  0  0  0  0  0  0  0  0  0
  143.1930   76.3070  220.8060 H   0  0  0  0  0  0  0  0  0  0  0  0
  140.7046   76.6343  219.4471 H   0  0  0  0  0  0  0  0  0  0  0  0
  140.6418   76.4288  223.1611 H   0  0  0  0  0  0  0  0  0  0  0  0
  141.3002   78.3422  224.5456 H   0  0  0  0  0  0  0  0  0  0  0  0
  142.5697   80.4237  221.0405 H   0  0  0  0  0  0  0  0  0  0  0  0
  141.9122   78.5192  219.6549 H   0  0  0  0  0  0  0  0  0  0  0  0
  139.5022   75.8195  222.0943 H   0  0  0  0  0  0  0  0  0  0  0  0
  138.6958   75.7970  220.5168 H   0  0  0  0  0  0  0  0  0  0  0  0
  138.4005   68.0906  223.3318 H   0  0  0  0  0  0  0  0  0  0  0  0
  139.1991   66.9645  225.4255 H   0  0  0  0  0  0  0  0  0  0  0  0
  140.2607   67.1348  227.6422 H   0  0  0  0  0  0  0  0  0  0  0  0
  141.3056   68.5148  229.4111 H   0  0  0  0  0  0  0  0  0  0  0  0
  141.5355   70.9640  229.0838 H   0  0  0  0  0  0  0  0  0  0  0  0
  140.7311   72.0346  226.9903 H   0  0  0  0  0  0  0  0  0  0  0  0
  1  2  2  0
  2  3  1  0
  3  4  1  0
  4  5  1  0
  5  6  2  0
  5  7  1  0
  7  8  1  0
  8  9  1  0
  9 10  1  0
  9 11  1  0
 11 12  1  0
 12 13  2  0
 13 14  1  0
 14 15  2  0
 15 16  1  0
 15 17  1  0
 17 18  2  0
 11 19  1  0
  2 20  1  0
 20 21  2  0
 21 22  1  0
 22 23  2  0
 23 24  1  0
 24 25  2  0
 25 26  1  0
 26 27  2  0
 27 28  1  0
 28 29  2  0
 19  7  1  0
 29 20  1  0
 18 12  1  0
 28 23  1  0
  3 30  1  0
  4 31  1  0
  4 32  1  0
  8 33  1  0
  8 34  1  0
  9 35  1  6
 10 36  1  0
 11 37  1  6
 13 38  1  0
 14 39  1  0
 17 40  1  0
 18 41  1  0
 19 42  1  0
 19 43  1  0
 21 44  1  0
 22 45  1  0
 24 46  1  0
 25 47  1  0
 26 48  1  0
 27 49  1  0
M  END
>  <smiles>  (21) 
O=C(NCC(=O)N1C[C@H](O)[C@H](c2ccc(Cl)cc2)C1)c1ccc2ccccc2n1

>  <score_type>  (21) 
oracle

>  <origin>  (21) 
autodockgpu

>  <m_score__min__energy>  (21) 
-9.3800000000000008

>  <m_primary>  (21) 
energy

>  <rmsd>  (21) 
2.2736208061158774

>  <m_score__min__rmsd>  (21) 
2.2736208061158774

>  <meeko>  (21) 
{"free_energy": -8.61, "intermolecular_energy": -10.4, "internal_energy": -1.37, "cluster_size": 26, "cluster_id": 1, "rank_in_cluster": 19}

>  <energy>  (21) 
-8.49

>  <cluster_rmsd>  (21) 
1.85

>  <cluster>  (21) 
1

$$$$

     RDKit          3D

 49 52  0  0  0  0  0  0  0  0999 V2000
  138.6050   70.6160  221.4970 O   0  0  0  0  0  0  0  0  0  0  0  0
  138.9350   71.3110  222.4900 C   0  0  0  0  0  0  0  0  0  0  0  0
  138.8970   72.7180  222.3580 N   0  0  0  0  0  0  0  0  0  0  0  0
  138.5000   73.3830  221.1420 C   0  0  0  0  0  0  0  0  0  0  0  0
  139.6810   73.6270  220.2800 C   0  0  0  0  0  0  0  0  0  0  0  0
  139.9940   72.8850  219.3210 O   0  0  0  0  0  0  0  0  0  0  0  0
  140.4890   74.7630  220.5650 N   0  0  0  0  0  0  0  0  0  0  0  0
  141.9570   74.8240  220.6510 C   0  0  0  0  0  0  0  0  0  0  0  0
  142.2390   76.0820  219.9230 C   0  0  2  0  0  0  0  0  0  0  0  0
  143.5290   76.5520  220.0450 O   0  0  0  0  0  0  0  0  0  0  0  0
  141.1670   77.0110  220.2660 C   0  0  2  0  0  0  0  0  0  0  0  0
  141.4600   78.0710  221.2490 C   0  0  0  0  0  0  0  0  0  0  0  0
  141.4040   77.8990  222.6160 C   0  0  0  0  0  0  0  0  0  0  0  0
  141.6860   78.9130  223.5170 C   0  0  0  0  0  0  0  0  0  0  0  0
  142.0430   80.1720  223.0830 C   0  0  0  0  0  0  0  0  0  0  0  0
  142.3980   81.4510  224.1920 Cl  0  0  0  0  0  0  0  0  0  0  0  0
  142.1040   80.3670  221.7200 C   0  0  0  0  0  0  0  0  0  0  0  0
  141.8240   79.3570  220.8240 C   0  0  0  0  0  0  0  0  0  0  0  0
  140.0840   76.1330  220.8400 C   0  0  0  0  0  0  0  0  0  0  0  0
  139.3520   70.7100  223.7660 C   0  0  0  0  0  0  0  0  0  0  0  0
  139.2090   69.3500  223.9630 C   0  0  0  0  0  0  0  0  0  0  0  0
  139.6200   68.8310  225.1910 C   0  0  0  0  0  0  0  0  0  0  0  0
  140.1540   69.6520  226.1740 C   0  0  0  0  0  0  0  0  0  0  0  0
  140.5720   69.1850  227.3970 C   0  0  0  0  0  0  0  0  0  0  0  0
  141.0960   70.0360  228.3480 C   0  0  0  0  0  0  0  0  0  0  0  0
  141.2030   71.3860  228.0640 C   0  0  0  0  0  0  0  0  0  0  0  0
  140.7960   71.8880  226.8520 C   0  0  0  0  0  0  0  0  0  0  0  0
  140.2760   70.9980  225.9310 C   0  0  0  0  0  0  0  0  0  0  0  0
  139.8780   71.5030  224.7410 N   0  0  0  0  0  0  0  0  0  0  0  0
  139.1760   73.2790  223.1950 H   0  0  0  0  0  0  0  0  0  0  0  0
  137.7803   72.7510  220.6011 H   0  0  0  0  0  0  0  0  0  0  0  0
  138.0373   74.3479  221.3965 H   0  0  0  0  0  0  0  0  0  0  0  0
  142.2971   74.8785  221.6957 H   0  0  0  0  0  0  0  0  0  0  0  0
  142.4691   73.9415  220.2399 H   0  0  0  0  0  0  0  0  0  0  0  0
  142.2245   75.9116  218.8364 H   0  0  0  0  0  0  0  0  0  0  0  0
  143.5040   77.5450  220.1260 H   0  0  0  0  0  0  0  0  0  0  0  0
  140.9253   77.5738  219.3523 H   0  0  0  0  0  0  0  0  0  0  0  0
  141.1224   76.9111  223.0093 H   0  0  0  0  0  0  0  0  0  0  0  0
  141.6241   78.7103  224.5964 H   0  0  0  0  0  0  0  0  0  0  0  0
  142.3846   81.3586  221.3352 H   0  0  0  0  0  0  0  0  0  0  0  0
  141.8879   79.5657  219.7459 H   0  0  0  0  0  0  0  0  0  0  0  0
  139.9957   76.2949  221.9244 H   0  0  0  0  0  0  0  0  0  0  0  0
  139.1040   76.3599  220.3950 H   0  0  0  0  0  0  0  0  0  0  0  0
  138.7871   68.7011  223.1813 H   0  0  0  0  0  0  0  0  0  0  0  0
  139.5190   67.7527  225.3833 H   0  0  0  0  0  0  0  0  0  0  0  0
  140.4871   68.1116  227.6221 H   0  0  0  0  0  0  0  0  0  0  0  0
  141.4254   69.6453  229.3221 H   0  0  0  0  0  0  0  0  0  0  0  0
  141.6202   72.0673  228.8201 H   0  0  0  0  0  0  0  0  0  0  0  0
  140.8809   72.9604  226.6224 H   0  0  0  0  0  0  0  0  0  0  0  0
  1  2  2  0
  2  3  1  0
  3  4  1  0
  4  5  1  0
  5  6  2  0
  5  7  1  0
  7  8  1  0
  8  9  1  0
  9 10  1  0
  9 11  1  0
 11 12  1  0
 12 13  2  0
 13 14  1  0
 14 15  2  0
 15 16  1  0
 15 17  1  0
 17 18  2  0
 11 19  1  0
  2 20  1  0
 20 21  2  0
 21 22  1  0
 22 23  2  0
 23 24  1  0
 24 25  2  0
 25 26  1  0
 26 27  2  0
 27 28  1  0
 28 29  2  0
 19  7  1  0
 29 20  1  0
 18 12  1  0
 28 23  1  0
  3 30  1  0
  4 31  1  0
  4 32  1  0
  8 33  1  0
  8 34  1  0
  9 35  1  6
 10 36  1  0
 11 37  1  6
 13 38  1  0
 14 39  1  0
 17 40  1  0
 18 41  1  0
 19 42  1  0
 19 43  1  0
 21 44  1  0
 22 45  1  0
 24 46  1  0
 25 47  1  0
 26 48  1  0
 27 49  1  0
M  END
>  <smiles>  (22) 
O=C(NCC(=O)N1C[C@H](O)[C@H](c2ccc(Cl)cc2)C1)c1ccc2ccccc2n1

>  <score_type>  (22) 
oracle

>  <origin>  (22) 
autodockgpu

>  <m_score__min__energy>  (22) 
-9.3800000000000008

>  <m_primary>  (22) 
energy

>  <rmsd>  (22) 
2.222569894538658

>  <m_score__min__rmsd>  (22) 
2.222569894538658

>  <meeko>  (22) 
{"free_energy": -9.02, "intermolecular_energy": -10.81, "internal_energy": -1.44, "cluster_size": 26, "cluster_id": 1, "rank_in_cluster": 9}

>  <energy>  (22) 
-8.48

>  <cluster_rmsd>  (22) 
1.54

>  <cluster>  (22) 
1

$$$$

     RDKit          3D

 49 52  0  0  0  0  0  0  0  0999 V2000
  139.8980   71.0420  221.7690 O   0  0  0  0  0  0  0  0  0  0  0  0
  139.3220   71.4140  222.8220 C   0  0  0  0  0  0  0  0  0  0  0  0
  138.1740   72.2300  222.6990 N   0  0  0  0  0  0  0  0  0  0  0  0
  137.6420   72.6510  221.4280 C   0  0  0  0  0  0  0  0  0  0  0  0
  137.5150   74.1280  221.3870 C   0  0  0  0  0  0  0  0  0  0  0  0
  136.4170   74.7190  221.2650 O   0  0  0  0  0  0  0  0  0  0  0  0
  138.7050   74.9000  221.4940 N   0  0  0  0  0  0  0  0  0  0  0  0
  140.0770   74.4150  221.7130 C   0  0  0  0  0  0  0  0  0  0  0  0
  140.8370   75.2510  220.7550 C   0  0  2  0  0  0  0  0  0  0  0  0
  142.2070   75.2070  220.9000 O   0  0  0  0  0  0  0  0  0  0  0  0
  140.2180   76.5730  220.7730 C   0  0  2  0  0  0  0  0  0  0  0  0
  140.9010   77.6450  221.5200 C   0  0  0  0  0  0  0  0  0  0  0  0
  141.4380   78.7750  220.9390 C   0  0  0  0  0  0  0  0  0  0  0  0
  142.0740   79.7680  221.6670 C   0  0  0  0  0  0  0  0  0  0  0  0
  142.2030   79.6760  223.0360 C   0  0  0  0  0  0  0  0  0  0  0  0
  142.9920   80.9060  223.9610 Cl  0  0  0  0  0  0  0  0  0  0  0  0
  141.6720   78.5550  223.6370 C   0  0  0  0  0  0  0  0  0  0  0  0
  141.0400   77.5670  222.9130 C   0  0  0  0  0  0  0  0  0  0  0  0
  138.8730   76.3440  221.4140 C   0  0  0  0  0  0  0  0  0  0  0  0
  139.8010   71.0270  224.1580 C   0  0  0  0  0  0  0  0  0  0  0  0
  140.6400   71.8730  224.8570 C   0  0  0  0  0  0  0  0  0  0  0  0
  141.0650   71.4580  226.1190 C   0  0  0  0  0  0  0  0  0  0  0  0
  140.6580   70.2430  226.6500 C   0  0  0  0  0  0  0  0  0  0  0  0
  141.0500   69.7950  227.8880 C   0  0  0  0  0  0  0  0  0  0  0  0
  140.6230   68.5780  228.3800 C   0  0  0  0  0  0  0  0  0  0  0  0
  139.7810   67.7950  227.6090 C   0  0  0  0  0  0  0  0  0  0  0  0
  139.3680   68.2110  226.3670 C   0  0  0  0  0  0  0  0  0  0  0  0
  139.8230   69.4360  225.9170 C   0  0  0  0  0  0  0  0  0  0  0  0
  139.4100   69.8370  224.6930 N   0  0  0  0  0  0  0  0  0  0  0  0
  137.7090   72.5280  223.5870 H   0  0  0  0  0  0  0  0  0  0  0  0
  138.3181   72.3225  220.6249 H   0  0  0  0  0  0  0  0  0  0  0  0
  136.6472   72.2023  221.2902 H   0  0  0  0  0  0  0  0  0  0  0  0
  140.4053   74.5895  222.7483 H   0  0  0  0  0  0  0  0  0  0  0  0
  140.2013   73.3324  221.5632 H   0  0  0  0  0  0  0  0  0  0  0  0
  140.7613   74.8393  219.7378 H   0  0  0  0  0  0  0  0  0  0  0  0
  142.4550   75.6460  221.7600 H   0  0  0  0  0  0  0  0  0  0  0  0
  140.2236   76.9449  219.7378 H   0  0  0  0  0  0  0  0  0  0  0  0
  141.3578   78.8933  219.8483 H   0  0  0  0  0  0  0  0  0  0  0  0
  142.4829   80.6446  221.1432 H   0  0  0  0  0  0  0  0  0  0  0  0
  141.7552   78.4455  224.7284 H   0  0  0  0  0  0  0  0  0  0  0  0
  140.6333   76.6930  223.4428 H   0  0  0  0  0  0  0  0  0  0  0  0
  138.8491   76.7875  222.4203 H   0  0  0  0  0  0  0  0  0  0  0  0
  138.0652   76.8111  220.8315 H   0  0  0  0  0  0  0  0  0  0  0  0
  140.9606   72.8368  224.4346 H   0  0  0  0  0  0  0  0  0  0  0  0
  141.7348   72.1058  226.7035 H   0  0  0  0  0  0  0  0  0  0  0  0
  141.7180   70.4190  228.4999 H   0  0  0  0  0  0  0  0  0  0  0  0
  140.9480   68.2344  229.3731 H   0  0  0  0  0  0  0  0  0  0  0  0
  139.4375   66.8247  227.9971 H   0  0  0  0  0  0  0  0  0  0  0  0
  138.6988   67.5912  225.7522 H   0  0  0  0  0  0  0  0  0  0  0  0
  1  2  2  0
  2  3  1  0
  3  4  1  0
  4  5  1  0
  5  6  2  0
  5  7  1  0
  7  8  1  0
  8  9  1  0
  9 10  1  0
  9 11  1  0
 11 12  1  0
 12 13  2  0
 13 14  1  0
 14 15  2  0
 15 16  1  0
 15 17  1  0
 17 18  2  0
 11 19  1  0
  2 20  1  0
 20 21  2  0
 21 22  1  0
 22 23  2  0
 23 24  1  0
 24 25  2  0
 25 26  1  0
 26 27  2  0
 27 28  1  0
 28 29  2  0
 19  7  1  0
 29 20  1  0
 18 12  1  0
 28 23  1  0
  3 30  1  0
  4 31  1  0
  4 32  1  0
  8 33  1  0
  8 34  1  0
  9 35  1  6
 10 36  1  0
 11 37  1  6
 13 38  1  0
 14 39  1  0
 17 40  1  0
 18 41  1  0
 19 42  1  0
 19 43  1  0
 21 44  1  0
 22 45  1  0
 24 46  1  0
 25 47  1  0
 26 48  1  0
 27 49  1  0
M  END
>  <smiles>  (23) 
O=C(NCC(=O)N1C[C@H](O)[C@H](c2ccc(Cl)cc2)C1)c1ccc2ccccc2n1

>  <score_type>  (23) 
oracle

>  <origin>  (23) 
autodockgpu

>  <m_score__min__energy>  (23) 
-9.3800000000000008

>  <m_primary>  (23) 
energy

>  <rmsd>  (23) 
3.2869932411755105

>  <m_score__min__rmsd>  (23) 
3.2869932411755105

>  <meeko>  (23) 
{"free_energy": -9.0, "intermolecular_energy": -10.79, "internal_energy": -1.25, "cluster_size": 10, "cluster_id": 2, "rank_in_cluster": 1}

>  <energy>  (23) 
-8.45

>  <cluster_rmsd>  (23) 
1.23

>  <cluster>  (23) 
1

$$$$

     RDKit          3D

 49 52  0  0  0  0  0  0  0  0999 V2000
  139.1030   70.3540  221.5850 O   0  0  0  0  0  0  0  0  0  0  0  0
  138.8700   70.8580  222.7120 C   0  0  0  0  0  0  0  0  0  0  0  0
  138.2200   72.1120  222.7570 N   0  0  0  0  0  0  0  0  0  0  0  0
  137.8170   72.8320  221.5740 C   0  0  0  0  0  0  0  0  0  0  0  0
  137.5940   74.2630  221.8940 C   0  0  0  0  0  0  0  0  0  0  0  0
  136.4690   74.7330  222.1800 O   0  0  0  0  0  0  0  0  0  0  0  0
  138.7190   75.1320  221.8730 N   0  0  0  0  0  0  0  0  0  0  0  0
  140.1410   74.7630  221.7750 C   0  0  0  0  0  0  0  0  0  0  0  0
  140.6350   75.7640  220.8030 C   0  0  2  0  0  0  0  0  0  0  0  0
  142.0060   75.8400  220.6870 O   0  0  0  0  0  0  0  0  0  0  0  0
  139.9330   77.0100  221.0930 C   0  0  2  0  0  0  0  0  0  0  0  0
  140.6630   78.0610  221.8260 C   0  0  0  0  0  0  0  0  0  0  0  0
  140.9360   79.3140  221.3190 C   0  0  0  0  0  0  0  0  0  0  0  0
  141.6240   80.2830  222.0320 C   0  0  0  0  0  0  0  0  0  0  0  0
  142.0800   80.0380  223.3090 C   0  0  0  0  0  0  0  0  0  0  0  0
  142.9410   81.2350  224.2140 Cl  0  0  0  0  0  0  0  0  0  0  0  0
  141.8190   78.7910  223.8350 C   0  0  0  0  0  0  0  0  0  0  0  0
  141.1340   77.8280  223.1260 C   0  0  0  0  0  0  0  0  0  0  0  0
  138.7580   76.5860  221.9390 C   0  0  0  0  0  0  0  0  0  0  0  0
  139.2480   70.1880  223.9650 C   0  0  0  0  0  0  0  0  0  0  0  0
  139.0460   68.8280  224.1040 C   0  0  0  0  0  0  0  0  0  0  0  0
  139.4220   68.2430  225.3130 C   0  0  0  0  0  0  0  0  0  0  0  0
  139.9780   68.9990  226.3350 C   0  0  0  0  0  0  0  0  0  0  0  0
  140.3630   68.4660  227.5410 C   0  0  0  0  0  0  0  0  0  0  0  0
  140.9120   69.2530  228.5320 C   0  0  0  0  0  0  0  0  0  0  0  0
  141.0770   70.6090  228.3050 C   0  0  0  0  0  0  0  0  0  0  0  0
  140.7040   71.1770  227.1110 C   0  0  0  0  0  0  0  0  0  0  0  0
  140.1580   70.3480  226.1500 C   0  0  0  0  0  0  0  0  0  0  0  0
  139.7950   70.9180  224.9780 N   0  0  0  0  0  0  0  0  0  0  0  0
  138.0340   72.5150  223.7040 H   0  0  0  0  0  0  0  0  0  0  0  0
  138.6062   72.7491  220.8122 H   0  0  0  0  0  0  0  0  0  0  0  0
  136.8796   72.3998  221.1938 H   0  0  0  0  0  0  0  0  0  0  0  0
  140.6497   74.8592  222.7456 H   0  0  0  0  0  0  0  0  0  0  0  0
  140.3155   73.7194  221.4744 H   0  0  0  0  0  0  0  0  0  0  0  0
  140.3950   75.4539  219.7753 H   0  0  0  0  0  0  0  0  0  0  0  0
  142.3950   76.0480  221.5800 H   0  0  0  0  0  0  0  0  0  0  0  0
  139.7110   77.4852  220.1261 H   0  0  0  0  0  0  0  0  0  0  0  0
  140.5921   79.5554  220.3024 H   0  0  0  0  0  0  0  0  0  0  0  0
  141.8092   81.2643  221.5707 H   0  0  0  0  0  0  0  0  0  0  0  0
  142.1681   78.5573  224.8516 H   0  0  0  0  0  0  0  0  0  0  0  0
  140.9516   76.8490  223.5931 H   0  0  0  0  0  0  0  0  0  0  0  0
  138.8962   76.9177  222.9786 H   0  0  0  0  0  0  0  0  0  0  0  0
  137.8195   77.0308  221.5765 H   0  0  0  0  0  0  0  0  0  0  0  0
  138.6057   68.2300  223.2925 H   0  0  0  0  0  0  0  0  0  0  0  0
  139.2751   67.1627  225.4589 H   0  0  0  0  0  0  0  0  0  0  0  0
  140.2307   67.3888  227.7203 H   0  0  0  0  0  0  0  0  0  0  0  0
  141.2152   68.8086  229.4914 H   0  0  0  0  0  0  0  0  0  0  0  0
  141.5133   71.2409  229.0926 H   0  0  0  0  0  0  0  0  0  0  0  0
  140.8354   72.2535  226.9267 H   0  0  0  0  0  0  0  0  0  0  0  0
  1  2  2  0
  2  3  1  0
  3  4  1  0
  4  5  1  0
  5  6  2  0
  5  7  1  0
  7  8  1  0
  8  9  1  0
  9 10  1  0
  9 11  1  0
 11 12  1  0
 12 13  2  0
 13 14  1  0
 14 15  2  0
 15 16  1  0
 15 17  1  0
 17 18  2  0
 11 19  1  0
  2 20  1  0
 20 21  2  0
 21 22  1  0
 22 23  2  0
 23 24  1  0
 24 25  2  0
 25 26  1  0
 26 27  2  0
 27 28  1  0
 28 29  2  0
 19  7  1  0
 29 20  1  0
 18 12  1  0
 28 23  1  0
  3 30  1  0
  4 31  1  0
  4 32  1  0
  8 33  1  0
  8 34  1  0
  9 35  1  6
 10 36  1  0
 11 37  1  6
 13 38  1  0
 14 39  1  0
 17 40  1  0
 18 41  1  0
 19 42  1  0
 19 43  1  0
 21 44  1  0
 22 45  1  0
 24 46  1  0
 25 47  1  0
 26 48  1  0
 27 49  1  0
M  END
>  <smiles>  (24) 
O=C(NCC(=O)N1C[C@H](O)[C@H](c2ccc(Cl)cc2)C1)c1ccc2ccccc2n1

>  <score_type>  (24) 
oracle

>  <origin>  (24) 
autodockgpu

>  <m_score__min__energy>  (24) 
-9.3800000000000008

>  <m_primary>  (24) 
energy

>  <rmsd>  (24) 
2.6189921004953134

>  <m_score__min__rmsd>  (24) 
2.6189921004953134

>  <meeko>  (24) 
{"free_energy": -8.87, "intermolecular_energy": -10.66, "internal_energy": -1.28, "cluster_size": 10, "cluster_id": 2, "rank_in_cluster": 3}

>  <energy>  (24) 
-8.35

>  <cluster_rmsd>  (24) 
1.19

>  <cluster>  (24) 
1

$$$$

     RDKit          3D

 49 52  0  0  0  0  0  0  0  0999 V2000
  138.4480   70.2990  221.5820 O   0  0  0  0  0  0  0  0  0  0  0  0
  138.4180   71.0400  222.5960 C   0  0  0  0  0  0  0  0  0  0  0  0
  137.9010   72.3470  222.4480 N   0  0  0  0  0  0  0  0  0  0  0  0
  137.4120   72.8630  221.1940 C   0  0  0  0  0  0  0  0  0  0  0  0
  138.5380   73.0960  220.2590 C   0  0  0  0  0  0  0  0  0  0  0  0
  138.6460   72.5110  219.1570 O   0  0  0  0  0  0  0  0  0  0  0  0
  139.5390   74.0310  220.6440 N   0  0  0  0  0  0  0  0  0  0  0  0
  140.8790   73.7460  221.1810 C   0  0  0  0  0  0  0  0  0  0  0  0
  141.7060   74.7190  220.4300 C   0  0  2  0  0  0  0  0  0  0  0  0
  142.9940   74.8730  220.8950 O   0  0  0  0  0  0  0  0  0  0  0  0
  140.9070   75.9330  220.3010 C   0  0  2  0  0  0  0  0  0  0  0  0
  141.2250   77.0670  221.1880 C   0  0  0  0  0  0  0  0  0  0  0  0
  141.0890   77.0410  222.5600 C   0  0  0  0  0  0  0  0  0  0  0  0
  141.3960   78.1230  223.3700 C   0  0  0  0  0  0  0  0  0  0  0  0
  141.8630   79.3040  222.8340 C   0  0  0  0  0  0  0  0  0  0  0  0
  142.2530   80.6640  223.8280 Cl  0  0  0  0  0  0  0  0  0  0  0  0
  142.0070   79.3520  221.4640 C   0  0  0  0  0  0  0  0  0  0  0  0
  141.7010   78.2750  220.6590 C   0  0  0  0  0  0  0  0  0  0  0  0
  139.4990   75.4860  220.6060 C   0  0  0  0  0  0  0  0  0  0  0  0
  138.8970   70.5910  223.9120 C   0  0  0  0  0  0  0  0  0  0  0  0
  138.5590   69.3320  224.3710 C   0  0  0  0  0  0  0  0  0  0  0  0
  139.0400   68.9560  225.6260 C   0  0  0  0  0  0  0  0  0  0  0  0
  139.8280   69.8130  226.3800 C   0  0  0  0  0  0  0  0  0  0  0  0
  140.3230   69.4850  227.6180 C   0  0  0  0  0  0  0  0  0  0  0  0
  141.1030   70.3680  228.3370 C   0  0  0  0  0  0  0  0  0  0  0  0
  141.3920   71.6090  227.7970 C   0  0  0  0  0  0  0  0  0  0  0  0
  140.9140   71.9720  226.5610 C   0  0  0  0  0  0  0  0  0  0  0  0
  140.1370   71.0540  225.8800 C   0  0  0  0  0  0  0  0  0  0  0  0
  139.6720   71.4210  224.6640 N   0  0  0  0  0  0  0  0  0  0  0  0
  137.8840   72.9490  223.3040 H   0  0  0  0  0  0  0  0  0  0  0  0
  136.7158   72.1366  220.7495 H   0  0  0  0  0  0  0  0  0  0  0  0
  136.8957   73.8170  221.3768 H   0  0  0  0  0  0  0  0  0  0  0  0
  140.9259   73.9295  222.2646 H   0  0  0  0  0  0  0  0  0  0  0  0
  141.1976   72.6996  221.0646 H   0  0  0  0  0  0  0  0  0  0  0  0
  141.9338   74.3370  219.4239 H   0  0  0  0  0  0  0  0  0  0  0  0
  143.1190   75.8140  221.1960 H   0  0  0  0  0  0  0  0  0  0  0  0
  141.0986   76.3376  219.2962 H   0  0  0  0  0  0  0  0  0  0  0  0
  140.7199   76.1192  223.0333 H   0  0  0  0  0  0  0  0  0  0  0  0
  141.2648   78.0379  224.4588 H   0  0  0  0  0  0  0  0  0  0  0  0
  142.3772   80.2775  220.9987 H   0  0  0  0  0  0  0  0  0  0  0  0
  141.8341   78.3663  219.5709 H   0  0  0  0  0  0  0  0  0  0  0  0
  139.1735   75.8849  221.5781 H   0  0  0  0  0  0  0  0  0  0  0  0
  138.7881   75.8498  219.8495 H   0  0  0  0  0  0  0  0  0  0  0  0
  137.9355   68.6530  223.7708 H   0  0  0  0  0  0  0  0  0  0  0  0
  138.7896   67.9618  226.0245 H   0  0  0  0  0  0  0  0  0  0  0  0
  140.0931   68.4980  228.0457 H   0  0  0  0  0  0  0  0  0  0  0  0
  141.4905   70.0885  229.3278 H   0  0  0  0  0  0  0  0  0  0  0  0
  142.0139   72.3157  228.3660 H   0  0  0  0  0  0  0  0  0  0  0  0
  141.1415   72.9577  226.1291 H   0  0  0  0  0  0  0  0  0  0  0  0
  1  2  2  0
  2  3  1  0
  3  4  1  0
  4  5  1  0
  5  6  2  0
  5  7  1  0
  7  8  1  0
  8  9  1  0
  9 10  1  0
  9 11  1  0
 11 12  1  0
 12 13  2  0
 13 14  1  0
 14 15  2  0
 15 16  1  0
 15 17  1  0
 17 18  2  0
 11 19  1  0
  2 20  1  0
 20 21  2  0
 21 22  1  0
 22 23  2  0
 23 24  1  0
 24 25  2  0
 25 26  1  0
 26 27  2  0
 27 28  1  0
 28 29  2  0
 19  7  1  0
 29 20  1  0
 18 12  1  0
 28 23  1  0
  3 30  1  0
  4 31  1  0
  4 32  1  0
  8 33  1  0
  8 34  1  0
  9 35  1  6
 10 36  1  0
 11 37  1  6
 13 38  1  0
 14 39  1  0
 17 40  1  0
 18 41  1  0
 19 42  1  0
 19 43  1  0
 21 44  1  0
 22 45  1  0
 24 46  1  0
 25 47  1  0
 26 48  1  0
 27 49  1  0
M  END
>  <smiles>  (25) 
O=C(NCC(=O)N1C[C@H](O)[C@H](c2ccc(Cl)cc2)C1)c1ccc2ccccc2n1

>  <score_type>  (25) 
oracle

>  <origin>  (25) 
autodockgpu

>  <m_score__min__energy>  (25) 
-9.3800000000000008

>  <m_primary>  (25) 
energy

>  <rmsd>  (25) 
2.3336374279192897

>  <m_score__min__rmsd>  (25) 
2.3336374279192897

>  <meeko>  (25) 
{"free_energy": -8.31, "intermolecular_energy": -10.1, "internal_energy": -1.39, "cluster_size": 26, "cluster_id": 1, "rank_in_cluster": 25}

>  <energy>  (25) 
-8.31

>  <cluster_rmsd>  (25) 
1.98

>  <cluster>  (25) 
1

$$$$

     RDKit          3D

 49 52  0  0  0  0  0  0  0  0999 V2000
  139.6190   73.0550  222.8250 O   0  0  0  0  0  0  0  0  0  0  0  0
  140.1020   71.9000  222.9260 C   0  0  0  0  0  0  0  0  0  0  0  0
  140.4800   71.2320  221.7390 N   0  0  0  0  0  0  0  0  0  0  0  0
  140.3350   71.8150  220.4280 C   0  0  0  0  0  0  0  0  0  0  0  0
  141.6340   72.3540  219.9580 C   0  0  0  0  0  0  0  0  0  0  0  0
  142.4990   71.6540  219.3840 O   0  0  0  0  0  0  0  0  0  0  0  0
  141.8990   73.7340  220.1770 N   0  0  0  0  0  0  0  0  0  0  0  0
  143.1890   74.4330  220.0590 C   0  0  0  0  0  0  0  0  0  0  0  0
  142.7850   75.6710  219.3540 C   0  0  2  0  0  0  0  0  0  0  0  0
  143.7430   76.6610  219.3150 O   0  0  0  0  0  0  0  0  0  0  0  0
  141.4770   76.0460  219.8840 C   0  0  2  0  0  0  0  0  0  0  0  0
  141.4180   77.1480  220.8620 C   0  0  0  0  0  0  0  0  0  0  0  0
  141.0300   76.9990  222.1770 C   0  0  0  0  0  0  0  0  0  0  0  0
  140.9850   78.0540  223.0740 C   0  0  0  0  0  0  0  0  0  0  0  0
  141.3320   79.3320  222.6900 C   0  0  0  0  0  0  0  0  0  0  0  0
  141.2820   80.6610  223.7960 Cl  0  0  0  0  0  0  0  0  0  0  0  0
  141.7230   79.5030  221.3790 C   0  0  0  0  0  0  0  0  0  0  0  0
  141.7680   78.4530  220.4870 C   0  0  0  0  0  0  0  0  0  0  0  0
  140.9810   74.7950  220.5650 C   0  0  0  0  0  0  0  0  0  0  0  0
  140.2840   71.2340  224.2250 C   0  0  0  0  0  0  0  0  0  0  0  0
  140.9320   71.8970  225.2500 C   0  0  0  0  0  0  0  0  0  0  0  0
  141.0780   71.2210  226.4620 C   0  0  0  0  0  0  0  0  0  0  0  0
  140.5890   69.9330  226.6280 C   0  0  0  0  0  0  0  0  0  0  0  0
  140.7090   69.2300  227.8020 C   0  0  0  0  0  0  0  0  0  0  0  0
  140.2090   67.9500  227.9270 C   0  0  0  0  0  0  0  0  0  0  0  0
  139.5730   67.3640  226.8460 C   0  0  0  0  0  0  0  0  0  0  0  0
  139.4340   68.0370  225.6570 C   0  0  0  0  0  0  0  0  0  0  0  0
  139.9520   69.3160  225.5800 C   0  0  0  0  0  0  0  0  0  0  0  0
  139.8090   69.9700  224.4050 N   0  0  0  0  0  0  0  0  0  0  0  0
  140.8810   70.2710  221.8430 H   0  0  0  0  0  0  0  0  0  0  0  0
  139.9860   71.0445  219.7248 H   0  0  0  0  0  0  0  0  0  0  0  0
  139.6048   72.6360  220.4802 H   0  0  0  0  0  0  0  0  0  0  0  0
  143.6189   74.6543  221.0470 H   0  0  0  0  0  0  0  0  0  0  0  0
  143.9691   73.8546  219.5424 H   0  0  0  0  0  0  0  0  0  0  0  0
  142.6888   75.4857  218.2740 H   0  0  0  0  0  0  0  0  0  0  0  0
  143.7630   77.1260  220.1960 H   0  0  0  0  0  0  0  0  0  0  0  0
  140.8848   76.4270  219.0389 H   0  0  0  0  0  0  0  0  0  0  0  0
  140.7433   75.9973  222.5296 H   0  0  0  0  0  0  0  0  0  0  0  0
  140.6669   77.8688  224.1106 H   0  0  0  0  0  0  0  0  0  0  0  0
  142.0078   80.5080  221.0343 H   0  0  0  0  0  0  0  0  0  0  0  0
  142.0875   78.6442  219.4519 H   0  0  0  0  0  0  0  0  0  0  0  0
  140.9886   74.9261  221.6571 H   0  0  0  0  0  0  0  0  0  0  0  0
  139.9474   74.5599  220.2711 H   0  0  0  0  0  0  0  0  0  0  0  0
  141.3178   72.9183  225.1156 H   0  0  0  0  0  0  0  0  0  0  0  0
  141.5893   71.7175  227.2999 H   0  0  0  0  0  0  0  0  0  0  0  0
  141.2141   69.6971  228.6603 H   0  0  0  0  0  0  0  0  0  0  0  0
  140.3146   67.4016  228.8747 H   0  0  0  0  0  0  0  0  0  0  0  0
  139.1729   66.3438  226.9409 H   0  0  0  0  0  0  0  0  0  0  0  0
  138.9284   67.5745  224.7965 H   0  0  0  0  0  0  0  0  0  0  0  0
  1  2  2  0
  2  3  1  0
  3  4  1  0
  4  5  1  0
  5  6  2  0
  5  7  1  0
  7  8  1  0
  8  9  1  0
  9 10  1  0
  9 11  1  0
 11 12  1  0
 12 13  2  0
 13 14  1  0
 14 15  2  0
 15 16  1  0
 15 17  1  0
 17 18  2  0
 11 19  1  0
  2 20  1  0
 20 21  2  0
 21 22  1  0
 22 23  2  0
 23 24  1  0
 24 25  2  0
 25 26  1  0
 26 27  2  0
 27 28  1  0
 28 29  2  0
 19  7  1  0
 29 20  1  0
 18 12  1  0
 28 23  1  0
  3 30  1  0
  4 31  1  0
  4 32  1  0
  8 33  1  0
  8 34  1  0
  9 35  1  6
 10 36  1  0
 11 37  1  6
 13 38  1  0
 14 39  1  0
 17 40  1  0
 18 41  1  0
 19 42  1  0
 19 43  1  0
 21 44  1  0
 22 45  1  0
 24 46  1  0
 25 47  1  0
 26 48  1  0
 27 49  1  0
M  END
>  <smiles>  (26) 
O=C(NCC(=O)N1C[C@H](O)[C@H](c2ccc(Cl)cc2)C1)c1ccc2ccccc2n1

>  <score_type>  (26) 
oracle

>  <origin>  (26) 
autodockgpu

>  <m_score__min__energy>  (26) 
-9.3800000000000008

>  <m_primary>  (26) 
energy

>  <rmsd>  (26) 
3.348006611938606

>  <m_score__min__rmsd>  (26) 
3.348006611938606

>  <meeko>  (26) 
{"free_energy": -8.5, "intermolecular_energy": -10.29, "internal_energy": -1.36, "cluster_size": 26, "cluster_id": 1, "rank_in_cluster": 20}

>  <energy>  (26) 
-7.81

>  <cluster_rmsd>  (26) 
1.6

>  <cluster>  (26) 
1

$$$$

     RDKit          3D

 49 52  0  0  0  0  0  0  0  0999 V2000
  138.8210   70.5590  221.4110 O   0  0  0  0  0  0  0  0  0  0  0  0
  139.0670   71.2320  222.4430 C   0  0  0  0  0  0  0  0  0  0  0  0
  139.0050   72.6410  222.3470 N   0  0  0  0  0  0  0  0  0  0  0  0
  138.6760   73.3320  221.1250 C   0  0  0  0  0  0  0  0  0  0  0  0
  139.8970   73.5510  220.3130 C   0  0  0  0  0  0  0  0  0  0  0  0
  140.2890   72.7490  219.4350 O   0  0  0  0  0  0  0  0  0  0  0  0
  140.6510   74.7330  220.5520 N   0  0  0  0  0  0  0  0  0  0  0  0
  142.1110   74.9010  220.4740 C   0  0  0  0  0  0  0  0  0  0  0  0
  142.2170   76.2010  219.7710 C   0  0  2  0  0  0  0  0  0  0  0  0
  143.4760   76.7620  219.7660 O   0  0  0  0  0  0  0  0  0  0  0  0
  141.1300   77.0350  220.2720 C   0  0  2  0  0  0  0  0  0  0  0  0
  141.4590   78.0810  221.2590 C   0  0  0  0  0  0  0  0  0  0  0  0
  141.4160   77.8990  222.6250 C   0  0  0  0  0  0  0  0  0  0  0  0
  141.7320   78.9000  223.5300 C   0  0  0  0  0  0  0  0  0  0  0  0
  142.1140   80.1530  223.1010 C   0  0  0  0  0  0  0  0  0  0  0  0
  142.5120   81.4150  224.2150 Cl  0  0  0  0  0  0  0  0  0  0  0  0
  142.1630   80.3570  221.7390 C   0  0  0  0  0  0  0  0  0  0  0  0
  141.8490   79.3600  220.8400 C   0  0  0  0  0  0  0  0  0  0  0  0
  140.1840   76.0600  220.9280 C   0  0  0  0  0  0  0  0  0  0  0  0
  139.4100   70.6040  223.7280 C   0  0  0  0  0  0  0  0  0  0  0  0
  139.2000   69.2500  223.9070 C   0  0  0  0  0  0  0  0  0  0  0  0
  139.5420   68.7050  225.1450 C   0  0  0  0  0  0  0  0  0  0  0  0
  140.0740   69.4940  226.1550 C   0  0  0  0  0  0  0  0  0  0  0  0
  140.4260   69.0010  227.3870 C   0  0  0  0  0  0  0  0  0  0  0  0
  140.9510   69.8200  228.3650 C   0  0  0  0  0  0  0  0  0  0  0  0
  141.1270   71.1670  228.0970 C   0  0  0  0  0  0  0  0  0  0  0  0
  140.7870   71.6950  226.8760 C   0  0  0  0  0  0  0  0  0  0  0  0
  140.2640   70.8360  225.9280 C   0  0  0  0  0  0  0  0  0  0  0  0
  139.9330   71.3660  224.7290 N   0  0  0  0  0  0  0  0  0  0  0  0
  139.2120   73.1840  223.2160 H   0  0  0  0  0  0  0  0  0  0  0  0
  137.9600   72.7282  220.5481 H   0  0  0  0  0  0  0  0  0  0  0  0
  138.2320   74.3072  221.3738 H   0  0  0  0  0  0  0  0  0  0  0  0
  142.5651   74.9464  221.4749 H   0  0  0  0  0  0  0  0  0  0  0  0
  142.6333   74.0735  219.9716 H   0  0  0  0  0  0  0  0  0  0  0  0
  142.0882   76.0661  218.6869 H   0  0  0  0  0  0  0  0  0  0  0  0
  143.6560   77.1590  220.6620 H   0  0  0  0  0  0  0  0  0  0  0  0
  140.7458   77.6084  219.4155 H   0  0  0  0  0  0  0  0  0  0  0  0
  141.1173   76.9145  223.0143 H   0  0  0  0  0  0  0  0  0  0  0  0
  141.6770   78.6911  224.6086 H   0  0  0  0  0  0  0  0  0  0  0  0
  142.4615   81.3447  221.3577 H   0  0  0  0  0  0  0  0  0  0  0  0
  141.9063   79.5748  219.7627 H   0  0  0  0  0  0  0  0  0  0  0  0
  140.2101   76.1788  222.0212 H   0  0  0  0  0  0  0  0  0  0  0  0
  139.1455   76.2278  220.6064 H   0  0  0  0  0  0  0  0  0  0  0  0
  138.7795   68.6260  223.1046 H   0  0  0  0  0  0  0  0  0  0  0  0
  139.3872   67.6307  225.3236 H   0  0  0  0  0  0  0  0  0  0  0  0
  140.2865   67.9306  227.5986 H   0  0  0  0  0  0  0  0  0  0  0  0
  141.2267   69.4076  229.3468 H   0  0  0  0  0  0  0  0  0  0  0  0
  141.5454   71.8239  228.8738 H   0  0  0  0  0  0  0  0  0  0  0  0
  140.9260   72.7646  226.6598 H   0  0  0  0  0  0  0  0  0  0  0  0
  1  2  2  0
  2  3  1  0
  3  4  1  0
  4  5  1  0
  5  6  2  0
  5  7  1  0
  7  8  1  0
  8  9  1  0
  9 10  1  0
  9 11  1  0
 11 12  1  0
 12 13  2  0
 13 14  1  0
 14 15  2  0
 15 16  1  0
 15 17  1  0
 17 18  2  0
 11 19  1  0
  2 20  1  0
 20 21  2  0
 21 22  1  0
 22 23  2  0
 23 24  1  0
 24 25  2  0
 25 26  1  0
 26 27  2  0
 27 28  1  0
 28 29  2  0
 19  7  1  0
 29 20  1  0
 18 12  1  0
 28 23  1  0
  3 30  1  0
  4 31  1  0
  4 32  1  0
  8 33  1  0
  8 34  1  0
  9 35  1  6
 10 36  1  0
 11 37  1  6
 13 38  1  0
 14 39  1  0
 17 40  1  0
 18 41  1  0
 19 42  1  0
 19 43  1  0
 21 44  1  0
 22 45  1  0
 24 46  1  0
 25 47  1  0
 26 48  1  0
 27 49  1  0
M  END
>  <smiles>  (27) 
O=C(NCC(=O)N1C[C@H](O)[C@H](c2ccc(Cl)cc2)C1)c1ccc2ccccc2n1

>  <score_type>  (27) 
oracle

>  <origin>  (27) 
autodockgpu

>  <m_score__min__energy>  (27) 
-9.3800000000000008

>  <m_primary>  (27) 
energy

>  <rmsd>  (27) 
2.2261441902866967

>  <m_score__min__rmsd>  (27) 
2.2261441902866967

>  <meeko>  (27) 
{"free_energy": -9.15, "intermolecular_energy": -10.94, "internal_energy": -1.42, "cluster_size": 26, "cluster_id": 1, "rank_in_cluster": 5}

>  <energy>  (27) 
-9.0

>  <cluster_rmsd>  (27) 
0.0

>  <cluster>  (27) 
2

$$$$

     RDKit          3D

 49 52  0  0  0  0  0  0  0  0999 V2000
  140.3380   71.4090  221.1740 O   0  0  0  0  0  0  0  0  0  0  0  0
  140.0670   71.9740  222.2630 C   0  0  0  0  0  0  0  0  0  0  0  0
  139.8020   73.3620  222.2430 N   0  0  0  0  0  0  0  0  0  0  0  0
  139.8290   74.1510  221.0370 C   0  0  0  0  0  0  0  0  0  0  0  0
  141.1690   74.7570  220.8500 C   0  0  0  0  0  0  0  0  0  0  0  0
  141.4400   75.9360  221.1750 O   0  0  0  0  0  0  0  0  0  0  0  0
  142.1890   73.9510  220.2710 N   0  0  0  0  0  0  0  0  0  0  0  0
  142.7920   74.0840  218.9350 C   0  0  0  0  0  0  0  0  0  0  0  0
  144.2260   73.8800  219.2420 C   0  0  2  0  0  0  0  0  0  0  0  0
  145.0390   73.6970  218.1450 O   0  0  0  0  0  0  0  0  0  0  0  0
  144.2880   72.8570  220.2810 C   0  0  2  0  0  0  0  0  0  0  0  0
  144.6670   71.4890  219.8830 C   0  0  0  0  0  0  0  0  0  0  0  0
  145.9000   71.1430  219.3710 C   0  0  0  0  0  0  0  0  0  0  0  0
  146.2290   69.8470  219.0050 C   0  0  0  0  0  0  0  0  0  0  0  0
  145.3220   68.8180  219.1370 C   0  0  0  0  0  0  0  0  0  0  0  0
  145.7140   67.1950  218.6870 Cl  0  0  0  0  0  0  0  0  0  0  0  0
  144.0830   69.1410  219.6470 C   0  0  0  0  0  0  0  0  0  0  0  0
  143.7560   70.4310  220.0100 C   0  0  0  0  0  0  0  0  0  0  0  0
  142.8870   72.8070  220.8380 C   0  0  0  0  0  0  0  0  0  0  0  0
  140.0180   71.2410  223.5370 C   0  0  0  0  0  0  0  0  0  0  0  0
  139.4850   69.9660  223.5740 C   0  0  0  0  0  0  0  0  0  0  0  0
  139.4630   69.3150  224.8080 C   0  0  0  0  0  0  0  0  0  0  0  0
  139.9580   69.9260  225.9510 C   0  0  0  0  0  0  0  0  0  0  0  0
  139.9560   69.3240  227.1860 C   0  0  0  0  0  0  0  0  0  0  0  0
  140.4570   69.9670  228.2990 C   0  0  0  0  0  0  0  0  0  0  0  0
  140.9720   71.2450  228.1680 C   0  0  0  0  0  0  0  0  0  0  0  0
  140.9900   71.8780  226.9490 C   0  0  0  0  0  0  0  0  0  0  0  0
  140.4770   71.1950  225.8630 C   0  0  0  0  0  0  0  0  0  0  0  0
  140.5000   71.8270  224.6680 N   0  0  0  0  0  0  0  0  0  0  0  0
  139.5780   73.8140  223.1590 H   0  0  0  0  0  0  0  0  0  0  0  0
  139.5987   73.5062  220.1760 H   0  0  0  0  0  0  0  0  0  0  0  0
  139.0808   74.9534  221.1169 H   0  0  0  0  0  0  0  0  0  0  0  0
  142.4147   73.3152  218.2446 H   0  0  0  0  0  0  0  0  0  0  0  0
  142.5700   75.0376  218.4336 H   0  0  0  0  0  0  0  0  0  0  0  0
  144.6733   74.8068  219.6305 H   0  0  0  0  0  0  0  0  0  0  0  0
  145.1900   74.5770  217.7030 H   0  0  0  0  0  0  0  0  0  0  0  0
  145.0927   73.1501  220.9714 H   0  0  0  0  0  0  0  0  0  0  0  0
  146.6570   71.9315  219.2474 H   0  0  0  0  0  0  0  0  0  0  0  0
  147.2308   69.6365  218.6025 H   0  0  0  0  0  0  0  0  0  0  0  0
  143.3323   68.3462  219.7682 H   0  0  0  0  0  0  0  0  0  0  0  0
  142.7521   70.6353  220.4104 H   0  0  0  0  0  0  0  0  0  0  0  0
  142.3909   71.8711  220.5413 H   0  0  0  0  0  0  0  0  0  0  0  0
  142.8890   72.8407  221.9375 H   0  0  0  0  0  0  0  0  0  0  0  0
  139.0936   69.4836  222.6662 H   0  0  0  0  0  0  0  0  0  0  0  0
  139.0458   68.2994  224.8757 H   0  0  0  0  0  0  0  0  0  0  0  0
  139.5465   68.3083  227.2895 H   0  0  0  0  0  0  0  0  0  0  0  0
  140.4473   69.4694  229.2800 H   0  0  0  0  0  0  0  0  0  0  0  0
  141.3727   71.7613  229.0528 H   0  0  0  0  0  0  0  0  0  0  0  0
  141.3987   72.8935  226.8412 H   0  0  0  0  0  0  0  0  0  0  0  0
  1  2  2  0
  2  3  1  0
  3  4  1  0
  4  5  1  0
  5  6  2  0
  5  7  1  0
  7  8  1  0
  8  9  1  0
  9 10  1  0
  9 11  1  0
 11 12  1  0
 12 13  2  0
 13 14  1  0
 14 15  2  0
 15 16  1  0
 15 17  1  0
 17 18  2  0
 11 19  1  0
  2 20  1  0
 20 21  2  0
 21 22  1  0
 22 23  2  0
 23 24  1  0
 24 25  2  0
 25 26  1  0
 26 27  2  0
 27 28  1  0
 28 29  2  0
 19  7  1  0
 29 20  1  0
 18 12  1  0
 28 23  1  0
  3 30  1  0
  4 31  1  0
  4 32  1  0
  8 33  1  0
  8 34  1  0
  9 35  1  1
 10 36  1  0
 11 37  1  1
 13 38  1  0
 14 39  1  0
 17 40  1  0
 18 41  1  0
 19 42  1  0
 19 43  1  0
 21 44  1  0
 22 45  1  0
 24 46  1  0
 25 47  1  0
 26 48  1  0
 27 49  1  0
M  END
>  <smiles>  (28) 
O=C(NCC(=O)N1C[C@H](O)[C@H](c2ccc(Cl)cc2)C1)c1ccc2ccccc2n1

>  <score_type>  (28) 
oracle

>  <origin>  (28) 
autodockgpu

>  <m_score__min__energy>  (28) 
-9.3800000000000008

>  <m_primary>  (28) 
energy

>  <rmsd>  (28) 
3.680965002026679

>  <m_score__min__rmsd>  (28) 
3.680965002026679

>  <meeko>  (28) 
{"free_energy": -8.7, "intermolecular_energy": -10.49, "internal_energy": -1.56, "cluster_size": 11, "cluster_id": 3, "rank_in_cluster": 2}

>  <energy>  (28) 
-8.92

>  <cluster_rmsd>  (28) 
0.87

>  <cluster>  (28) 
2

$$$$

     RDKit          3D

 49 52  0  0  0  0  0  0  0  0999 V2000
  141.6900   75.9740  218.6330 O   0  0  0  0  0  0  0  0  0  0  0  0
  141.8790   76.3090  219.8290 C   0  0  0  0  0  0  0  0  0  0  0  0
  142.1260   75.2880  220.7740 N   0  0  0  0  0  0  0  0  0  0  0  0
  142.1690   73.8890  220.4280 C   0  0  0  0  0  0  0  0  0  0  0  0
  140.7950   73.3380  220.3450 C   0  0  0  0  0  0  0  0  0  0  0  0
  140.0920   73.4030  219.3110 O   0  0  0  0  0  0  0  0  0  0  0  0
  140.2600   72.7080  221.5030 N   0  0  0  0  0  0  0  0  0  0  0  0
  139.0890   73.1200  222.2930 C   0  0  0  0  0  0  0  0  0  0  0  0
  138.4240   71.8180  222.5280 C   0  0  2  0  0  0  0  0  0  0  0  0
  137.4120   71.8380  223.4640 O   0  0  0  0  0  0  0  0  0  0  0  0
  139.4860   70.8380  222.7320 C   0  0  2  0  0  0  0  0  0  0  0  0
  139.7700   70.4040  224.1120 C   0  0  0  0  0  0  0  0  0  0  0  0
  140.5140   71.1320  225.0170 C   0  0  0  0  0  0  0  0  0  0  0  0
  140.7650   70.7000  226.3100 C   0  0  0  0  0  0  0  0  0  0  0  0
  140.2720   69.4960  226.7660 C   0  0  0  0  0  0  0  0  0  0  0  0
  140.5730   68.9400  228.3760 Cl  0  0  0  0  0  0  0  0  0  0  0  0
  139.5250   68.7520  225.8780 C   0  0  0  0  0  0  0  0  0  0  0  0
  139.2760   69.1830  224.5920 C   0  0  0  0  0  0  0  0  0  0  0  0
  140.7230   71.5130  222.1940 C   0  0  0  0  0  0  0  0  0  0  0  0
  141.8530   77.7140  220.2640 C   0  0  0  0  0  0  0  0  0  0  0  0
  141.8420   78.7240  219.3210 C   0  0  0  0  0  0  0  0  0  0  0  0
  141.8170   80.0390  219.7870 C   0  0  0  0  0  0  0  0  0  0  0  0
  141.8030   80.3180  221.1460 C   0  0  0  0  0  0  0  0  0  0  0  0
  141.7780   81.5960  221.6510 C   0  0  0  0  0  0  0  0  0  0  0  0
  141.7650   81.8310  223.0100 C   0  0  0  0  0  0  0  0  0  0  0  0
  141.7770   80.7560  223.8830 C   0  0  0  0  0  0  0  0  0  0  0  0
  141.8010   79.4650  223.4150 C   0  0  0  0  0  0  0  0  0  0  0  0
  141.8150   79.2800  222.0450 C   0  0  0  0  0  0  0  0  0  0  0  0
  141.8380   78.0050  221.5950 N   0  0  0  0  0  0  0  0  0  0  0  0
  142.2820   75.5880  221.7640 H   0  0  0  0  0  0  0  0  0  0  0  0
  142.6669   73.7710  219.4543 H   0  0  0  0  0  0  0  0  0  0  0  0
  142.7269   73.3449  221.2044 H   0  0  0  0  0  0  0  0  0  0  0  0
  139.3884   73.5956  223.2386 H   0  0  0  0  0  0  0  0  0  0  0  0
  138.4523   73.8678  221.7977 H   0  0  0  0  0  0  0  0  0  0  0  0
  137.8339   71.5217  221.6482 H   0  0  0  0  0  0  0  0  0  0  0  0
  137.3230   72.7630  223.8230 H   0  0  0  0  0  0  0  0  0  0  0  0
  139.1651   69.9096  222.2370 H   0  0  0  0  0  0  0  0  0  0  0  0
  140.9273   72.1002  224.6979 H   0  0  0  0  0  0  0  0  0  0  0  0
  141.3672   71.3280  226.9830 H   0  0  0  0  0  0  0  0  0  0  0  0
  139.1150   67.7851  226.2052 H   0  0  0  0  0  0  0  0  0  0  0  0
  138.6727   68.5508  223.9239 H   0  0  0  0  0  0  0  0  0  0  0  0
  141.3986   71.7857  223.0181 H   0  0  0  0  0  0  0  0  0  0  0  0
  141.2830   70.8490  221.5192 H   0  0  0  0  0  0  0  0  0  0  0  0
  141.8525   78.4999  218.2441 H   0  0  0  0  0  0  0  0  0  0  0  0
  141.8083   80.8685  219.0646 H   0  0  0  0  0  0  0  0  0  0  0  0
  141.7682   82.4492  220.9568 H   0  0  0  0  0  0  0  0  0  0  0  0
  141.7453   82.8608  223.3961 H   0  0  0  0  0  0  0  0  0  0  0  0
  141.7671   80.9389  224.9676 H   0  0  0  0  0  0  0  0  0  0  0  0
  141.8088   78.6088  224.1055 H   0  0  0  0  0  0  0  0  0  0  0  0
  1  2  2  0
  2  3  1  0
  3  4  1  0
  4  5  1  0
  5  6  2  0
  5  7  1  0
  7  8  1  0
  8  9  1  0
  9 10  1  0
  9 11  1  0
 11 12  1  0
 12 13  2  0
 13 14  1  0
 14 15  2  0
 15 16  1  0
 15 17  1  0
 17 18  2  0
 11 19  1  0
  2 20  1  0
 20 21  2  0
 21 22  1  0
 22 23  2  0
 23 24  1  0
 24 25  2  0
 25 26  1  0
 26 27  2  0
 27 28  1  0
 28 29  2  0
 19  7  1  0
 29 20  1  0
 18 12  1  0
 28 23  1  0
  3 30  1  0
  4 31  1  0
  4 32  1  0
  8 33  1  0
  8 34  1  0
  9 35  1  6
 10 36  1  0
 11 37  1  6
 13 38  1  0
 14 39  1  0
 17 40  1  0
 18 41  1  0
 19 42  1  0
 19 43  1  0
 21 44  1  0
 22 45  1  0
 24 46  1  0
 25 47  1  0
 26 48  1  0
 27 49  1  0
M  END
>  <smiles>  (29) 
O=C(NCC(=O)N1C[C@H](O)[C@H](c2ccc(Cl)cc2)C1)c1ccc2ccccc2n1

>  <score_type>  (29) 
oracle

>  <origin>  (29) 
autodockgpu

>  <m_score__min__energy>  (29) 
-9.3800000000000008

>  <m_primary>  (29) 
energy

>  <rmsd>  (29) 
8.828988246044359

>  <m_score__min__rmsd>  (29) 
8.828988246044359

>  <meeko>  (29) 
{"free_energy": -8.22, "intermolecular_energy": -10.01, "internal_energy": -1.42, "cluster_size": 1, "cluster_id": 5, "rank_in_cluster": 1}

>  <energy>  (29) 
-8.87

>  <cluster_rmsd>  (29) 
0.79

>  <cluster>  (29) 
2

$$$$

     RDKit          3D

 49 52  0  0  0  0  0  0  0  0999 V2000
  137.8730   70.1180  221.9180 O   0  0  0  0  0  0  0  0  0  0  0  0
  138.2370   70.8840  222.8450 C   0  0  0  0  0  0  0  0  0  0  0  0
  138.0150   72.2710  222.6850 N   0  0  0  0  0  0  0  0  0  0  0  0
  137.3960   72.8390  221.5140 C   0  0  0  0  0  0  0  0  0  0  0  0
  138.4190   73.1360  220.4840 C   0  0  0  0  0  0  0  0  0  0  0  0
  138.4310   72.5970  219.3540 O   0  0  0  0  0  0  0  0  0  0  0  0
  139.4320   74.0810  220.8060 N   0  0  0  0  0  0  0  0  0  0  0  0
  140.8060   73.8100  221.2590 C   0  0  0  0  0  0  0  0  0  0  0  0
  141.5750   74.7910  220.4590 C   0  0  2  0  0  0  0  0  0  0  0  0
  142.8880   74.9580  220.8430 O   0  0  0  0  0  0  0  0  0  0  0  0
  140.7570   75.9970  220.3810 C   0  0  2  0  0  0  0  0  0  0  0  0
  141.1180   77.1340  221.2470 C   0  0  0  0  0  0  0  0  0  0  0  0
  141.0500   77.1130  222.6250 C   0  0  0  0  0  0  0  0  0  0  0  0
  141.3970   78.1970  223.4150 C   0  0  0  0  0  0  0  0  0  0  0  0
  141.8360   79.3770  222.8520 C   0  0  0  0  0  0  0  0  0  0  0  0
  142.2730   80.7410  223.8220 Cl  0  0  0  0  0  0  0  0  0  0  0  0
  141.9100   79.4200  221.4770 C   0  0  0  0  0  0  0  0  0  0  0  0
  141.5650   78.3410  220.6920 C   0  0  0  0  0  0  0  0  0  0  0  0
  139.3760   75.5360  220.7720 C   0  0  0  0  0  0  0  0  0  0  0  0
  138.8750   70.3850  224.0720 C   0  0  0  0  0  0  0  0  0  0  0  0
  138.8410   69.0340  224.3620 C   0  0  0  0  0  0  0  0  0  0  0  0
  139.4610   68.6130  225.5390 C   0  0  0  0  0  0  0  0  0  0  0  0
  140.0900   69.5190  226.3820 C   0  0  0  0  0  0  0  0  0  0  0  0
  140.7130   69.1500  227.5490 C   0  0  0  0  0  0  0  0  0  0  0  0
  141.3260   70.0820  228.3610 C   0  0  0  0  0  0  0  0  0  0  0  0
  141.3120   71.4150  227.9910 C   0  0  0  0  0  0  0  0  0  0  0  0
  140.6980   71.8210  226.8310 C   0  0  0  0  0  0  0  0  0  0  0  0
  140.0970   70.8510  226.0510 C   0  0  0  0  0  0  0  0  0  0  0  0
  139.4960   71.2610  224.9110 N   0  0  0  0  0  0  0  0  0  0  0  0
  138.3250   72.8920  223.4680 H   0  0  0  0  0  0  0  0  0  0  0  0
  136.6671   72.1235  221.1057 H   0  0  0  0  0  0  0  0  0  0  0  0
  136.8895   73.7741  221.7951 H   0  0  0  0  0  0  0  0  0  0  0  0
  140.9179   73.9942  222.3377 H   0  0  0  0  0  0  0  0  0  0  0  0
  141.1275   72.7669  221.1225 H   0  0  0  0  0  0  0  0  0  0  0  0
  141.7440   74.4114  219.4405 H   0  0  0  0  0  0  0  0  0  0  0  0
  142.9250   75.6140  221.5930 H   0  0  0  0  0  0  0  0  0  0  0  0
  140.8817   76.4037  219.3666 H   0  0  0  0  0  0  0  0  0  0  0  0
  140.7043   76.1931  223.1192 H   0  0  0  0  0  0  0  0  0  0  0  0
  141.3211   78.1151  224.5093 H   0  0  0  0  0  0  0  0  0  0  0  0
  142.2552   80.3442  220.9905 H   0  0  0  0  0  0  0  0  0  0  0  0
  141.6427   78.4296  219.5983 H   0  0  0  0  0  0  0  0  0  0  0  0
  139.1076   75.9312  221.7628 H   0  0  0  0  0  0  0  0  0  0  0  0
  138.6162   75.8930  220.0612 H   0  0  0  0  0  0  0  0  0  0  0  0
  138.3442   68.3181  223.6906 H   0  0  0  0  0  0  0  0  0  0  0  0
  139.4512   67.5453  225.8033 H   0  0  0  0  0  0  0  0  0  0  0  0
  140.7235   68.0899  227.8423 H   0  0  0  0  0  0  0  0  0  0  0  0
  141.8204   69.7686  229.2923 H   0  0  0  0  0  0  0  0  0  0  0  0
  141.7999   72.1611  228.6354 H   0  0  0  0  0  0  0  0  0  0  0  0
  140.6851   72.8800  226.5336 H   0  0  0  0  0  0  0  0  0  0  0  0
  1  2  2  0
  2  3  1  0
  3  4  1  0
  4  5  1  0
  5  6  2  0
  5  7  1  0
  7  8  1  0
  8  9  1  0
  9 10  1  0
  9 11  1  0
 11 12  1  0
 12 13  2  0
 13 14  1  0
 14 15  2  0
 15 16  1  0
 15 17  1  0
 17 18  2  0
 11 19  1  0
  2 20  1  0
 20 21  2  0
 21 22  1  0
 22 23  2  0
 23 24  1  0
 24 25  2  0
 25 26  1  0
 26 27  2  0
 27 28  1  0
 28 29  2  0
 19  7  1  0
 29 20  1  0
 18 12  1  0
 28 23  1  0
  3 30  1  0
  4 31  1  0
  4 32  1  0
  8 33  1  0
  8 34  1  0
  9 35  1  6
 10 36  1  0
 11 37  1  6
 13 38  1  0
 14 39  1  0
 17 40  1  0
 18 41  1  0
 19 42  1  0
 19 43  1  0
 21 44  1  0
 22 45  1  0
 24 46  1  0
 25 47  1  0
 26 48  1  0
 27 49  1  0
M  END
>  <smiles>  (30) 
O=C(NCC(=O)N1C[C@H](O)[C@H](c2ccc(Cl)cc2)C1)c1ccc2ccccc2n1

>  <score_type>  (30) 
oracle

>  <origin>  (30) 
autodockgpu

>  <m_score__min__energy>  (30) 
-9.3800000000000008

>  <m_primary>  (30) 
energy

>  <rmsd>  (30) 
2.3792036359866793

>  <m_score__min__rmsd>  (30) 
2.3792036359866793

>  <meeko>  (30) 
{"free_energy": -8.52, "intermolecular_energy": -10.31, "internal_energy": -1.53, "cluster_size": 10, "cluster_id": 2, "rank_in_cluster": 5}

>  <energy>  (30) 
-8.79

>  <cluster_rmsd>  (30) 
0.95

>  <cluster>  (30) 
2

$$$$

     RDKit          3D

 49 52  0  0  0  0  0  0  0  0999 V2000
  140.2050   70.2830  221.3770 O   0  0  0  0  0  0  0  0  0  0  0  0
  139.8850   70.9460  222.3950 C   0  0  0  0  0  0  0  0  0  0  0  0
  139.6100   72.3230  222.2310 N   0  0  0  0  0  0  0  0  0  0  0  0
  139.6820   72.9930  220.9570 C   0  0  0  0  0  0  0  0  0  0  0  0
  141.0810   73.3840  220.6600 C   0  0  0  0  0  0  0  0  0  0  0  0
  141.9690   72.5610  220.3400 O   0  0  0  0  0  0  0  0  0  0  0  0
  141.4180   74.7630  220.7450 N   0  0  0  0  0  0  0  0  0  0  0  0
  142.5120   75.4670  220.0570 C   0  0  0  0  0  0  0  0  0  0  0  0
  141.8320   76.7100  219.6260 C   0  0  2  0  0  0  0  0  0  0  0  0
  142.6680   77.7030  219.1620 O   0  0  0  0  0  0  0  0  0  0  0  0
  140.9130   77.0760  220.6980 C   0  0  2  0  0  0  0  0  0  0  0  0
  141.3080   78.1700  221.6040 C   0  0  0  0  0  0  0  0  0  0  0  0
  141.4050   78.0460  222.9740 C   0  0  0  0  0  0  0  0  0  0  0  0
  141.7810   79.0920  223.8030 C   0  0  0  0  0  0  0  0  0  0  0  0
  142.0820   80.3340  223.2880 C   0  0  0  0  0  0  0  0  0  0  0  0
  142.5530   81.6520  224.3050 Cl  0  0  0  0  0  0  0  0  0  0  0  0
  141.9910   80.4810  221.9200 C   0  0  0  0  0  0  0  0  0  0  0  0
  141.6180   79.4400  221.0970 C   0  0  0  0  0  0  0  0  0  0  0  0
  140.7800   75.8180  221.5200 C   0  0  0  0  0  0  0  0  0  0  0  0
  139.7880   70.3380  223.7300 C   0  0  0  0  0  0  0  0  0  0  0  0
  139.1790   69.1060  223.8800 C   0  0  0  0  0  0  0  0  0  0  0  0
  139.1140   68.5740  225.1690 C   0  0  0  0  0  0  0  0  0  0  0  0
  139.6420   69.2570  226.2550 C   0  0  0  0  0  0  0  0  0  0  0  0
  139.6000   68.7720  227.5390 C   0  0  0  0  0  0  0  0  0  0  0  0
  140.1370   69.4840  228.5930 C   0  0  0  0  0  0  0  0  0  0  0  0
  140.7280   70.7110  228.3490 C   0  0  0  0  0  0  0  0  0  0  0  0
  140.7880   71.2270  227.0770 C   0  0  0  0  0  0  0  0  0  0  0  0
  140.2370   70.4790  226.0550 C   0  0  0  0  0  0  0  0  0  0  0  0
  140.3010   70.9960  224.8070 N   0  0  0  0  0  0  0  0  0  0  0  0
  139.3440   72.8570  223.0900 H   0  0  0  0  0  0  0  0  0  0  0  0
  139.3195   72.3157  220.1697 H   0  0  0  0  0  0  0  0  0  0  0  0
  139.0573   73.8977  220.9925 H   0  0  0  0  0  0  0  0  0  0  0  0
  143.3462   75.6810  220.7413 H   0  0  0  0  0  0  0  0  0  0  0  0
  142.9689   74.8956  219.2356 H   0  0  0  0  0  0  0  0  0  0  0  0
  141.2519   76.5343  218.7080 H   0  0  0  0  0  0  0  0  0  0  0  0
  143.5170   77.6800  219.6820 H   0  0  0  0  0  0  0  0  0  0  0  0
  140.0007   77.4621  220.2198 H   0  0  0  0  0  0  0  0  0  0  0  0
  141.1734   77.0723  223.4303 H   0  0  0  0  0  0  0  0  0  0  0  0
  141.8399   78.9276  224.8890 H   0  0  0  0  0  0  0  0  0  0  0  0
  142.2230   81.4584  221.4719 H   0  0  0  0  0  0  0  0  0  0  0  0
  141.5619   79.6104  220.0117 H   0  0  0  0  0  0  0  0  0  0  0  0
  141.2858   75.9395  222.4893 H   0  0  0  0  0  0  0  0  0  0  0  0
  139.7260   75.5830  221.7294 H   0  0  0  0  0  0  0  0  0  0  0  0
  138.7619   68.5659  223.0172 H   0  0  0  0  0  0  0  0  0  0  0  0
  138.6357   67.5960  225.3264 H   0  0  0  0  0  0  0  0  0  0  0  0
  139.1291   67.7967  227.7317 H   0  0  0  0  0  0  0  0  0  0  0  0
  140.0954   69.0803  229.6154 H   0  0  0  0  0  0  0  0  0  0  0  0
  141.1563   71.2820  229.1860 H   0  0  0  0  0  0  0  0  0  0  0  0
  141.2583   72.2016  226.8795 H   0  0  0  0  0  0  0  0  0  0  0  0
  1  2  2  0
  2  3  1  0
  3  4  1  0
  4  5  1  0
  5  6  2  0
  5  7  1  0
  7  8  1  0
  8  9  1  0
  9 10  1  0
  9 11  1  0
 11 12  1  0
 12 13  2  0
 13 14  1  0
 14 15  2  0
 15 16  1  0
 15 17  1  0
 17 18  2  0
 11 19  1  0
  2 20  1  0
 20 21  2  0
 21 22  1  0
 22 23  2  0
 23 24  1  0
 24 25  2  0
 25 26  1  0
 26 27  2  0
 27 28  1  0
 28 29  2  0
 19  7  1  0
 29 20  1  0
 18 12  1  0
 28 23  1  0
  3 30  1  0
  4 31  1  0
  4 32  1  0
  8 33  1  0
  8 34  1  0
  9 35  1  6
 10 36  1  0
 11 37  1  6
 13 38  1  0
 14 39  1  0
 17 40  1  0
 18 41  1  0
 19 42  1  0
 19 43  1  0
 21 44  1  0
 22 45  1  0
 24 46  1  0
 25 47  1  0
 26 48  1  0
 27 49  1  0
M  END
>  <smiles>  (31) 
O=C(NCC(=O)N1C[C@H](O)[C@H](c2ccc(Cl)cc2)C1)c1ccc2ccccc2n1

>  <score_type>  (31) 
oracle

>  <origin>  (31) 
autodockgpu

>  <m_score__min__energy>  (31) 
-9.3800000000000008

>  <m_primary>  (31) 
energy

>  <rmsd>  (31) 
2.4111892393533063

>  <m_score__min__rmsd>  (31) 
2.4111892393533063

>  <meeko>  (31) 
{"free_energy": -9.03, "intermolecular_energy": -10.82, "internal_energy": -1.14, "cluster_size": 26, "cluster_id": 1, "rank_in_cluster": 8}

>  <energy>  (31) 
-8.52

>  <cluster_rmsd>  (31) 
1.16

>  <cluster>  (31) 
2

$$$$

     RDKit          3D

 49 52  0  0  0  0  0  0  0  0999 V2000
  138.2400   70.5970  221.8110 O   0  0  0  0  0  0  0  0  0  0  0  0
  138.8190   71.1710  222.7660 C   0  0  0  0  0  0  0  0  0  0  0  0
  139.0520   72.5620  222.6620 N   0  0  0  0  0  0  0  0  0  0  0  0
  138.6570   73.3420  221.5160 C   0  0  0  0  0  0  0  0  0  0  0  0
  139.8120   73.5430  220.6080 C   0  0  0  0  0  0  0  0  0  0  0  0
  140.1320   72.7250  219.7160 O   0  0  0  0  0  0  0  0  0  0  0  0
  140.5850   74.7260  220.7680 N   0  0  0  0  0  0  0  0  0  0  0  0
  142.0470   74.8660  220.6740 C   0  0  0  0  0  0  0  0  0  0  0  0
  142.1700   76.1150  219.8890 C   0  0  2  0  0  0  0  0  0  0  0  0
  143.4370   76.6560  219.8440 O   0  0  0  0  0  0  0  0  0  0  0  0
  141.0980   76.9980  220.3380 C   0  0  2  0  0  0  0  0  0  0  0  0
  141.4470   78.0990  221.2540 C   0  0  0  0  0  0  0  0  0  0  0  0
  141.8220   79.3610  220.8420 C   0  0  0  0  0  0  0  0  0  0  0  0
  142.1440   80.3790  221.7260 C   0  0  0  0  0  0  0  0  0  0  0  0
  142.1040   80.1770  223.0890 C   0  0  0  0  0  0  0  0  0  0  0  0
  142.5020   81.4350  224.2080 Cl  0  0  0  0  0  0  0  0  0  0  0  0
  141.7310   78.9230  223.5220 C   0  0  0  0  0  0  0  0  0  0  0  0
  141.4110   77.9110  222.6420 C   0  0  0  0  0  0  0  0  0  0  0  0
  140.1400   76.0820  221.0580 C   0  0  0  0  0  0  0  0  0  0  0  0
  139.2540   70.4480  223.9710 C   0  0  0  0  0  0  0  0  0  0  0  0
  139.1370   69.0720  224.0250 C   0  0  0  0  0  0  0  0  0  0  0  0
  139.5630   68.4360  225.1910 C   0  0  0  0  0  0  0  0  0  0  0  0
  140.0870   69.1590  226.2530 C   0  0  0  0  0  0  0  0  0  0  0  0
  140.5190   68.5750  227.4190 C   0  0  0  0  0  0  0  0  0  0  0  0
  141.0330   69.3310  228.4530 C   0  0  0  0  0  0  0  0  0  0  0  0
  141.1130   70.7050  228.3110 C   0  0  0  0  0  0  0  0  0  0  0  0
  140.6900   71.3240  227.1590 C   0  0  0  0  0  0  0  0  0  0  0  0
  140.1830   70.5250  226.1520 C   0  0  0  0  0  0  0  0  0  0  0  0
  139.7700   71.1440  225.0230 N   0  0  0  0  0  0  0  0  0  0  0  0
  139.5360   73.0220  223.4680 H   0  0  0  0  0  0  0  0  0  0  0  0
  137.8579   72.8137  220.9753 H   0  0  0  0  0  0  0  0  0  0  0  0
  138.2955   74.3230  221.8580 H   0  0  0  0  0  0  0  0  0  0  0  0
  142.5063   74.9686  221.6682 H   0  0  0  0  0  0  0  0  0  0  0  0
  142.5540   73.9998  220.2239 H   0  0  0  0  0  0  0  0  0  0  0  0
  142.0346   75.9103  218.8167 H   0  0  0  0  0  0  0  0  0  0  0  0
  143.9430   76.2310  219.0980 H   0  0  0  0  0  0  0  0  0  0  0  0
  140.7198   77.5217  219.4477 H   0  0  0  0  0  0  0  0  0  0  0  0
  141.8676   79.5689  219.7628 H   0  0  0  0  0  0  0  0  0  0  0  0
  142.4362   81.3641  221.3334 H   0  0  0  0  0  0  0  0  0  0  0  0
  141.6872   78.7233  224.6028 H   0  0  0  0  0  0  0  0  0  0  0  0
  141.1192   76.9283  223.0409 H   0  0  0  0  0  0  0  0  0  0  0  0
  140.1718   76.2711  222.1412 H   0  0  0  0  0  0  0  0  0  0  0  0
  139.1032   76.2445  220.7284 H   0  0  0  0  0  0  0  0  0  0  0  0
  138.7238   68.5004  223.1809 H   0  0  0  0  0  0  0  0  0  0  0  0
  139.4821   67.3418  225.2700 H   0  0  0  0  0  0  0  0  0  0  0  0
  140.4539   67.4826  227.5308 H   0  0  0  0  0  0  0  0  0  0  0  0
  141.3752   68.8467  229.3795 H   0  0  0  0  0  0  0  0  0  0  0  0
  141.5215   71.3114  229.1328 H   0  0  0  0  0  0  0  0  0  0  0  0
  140.7528   72.4160  227.0428 H   0  0  0  0  0  0  0  0  0  0  0  0
  1  2  2  0
  2  3  1  0
  3  4  1  0
  4  5  1  0
  5  6  2  0
  5  7  1  0
  7  8  1  0
  8  9  1  0
  9 10  1  0
  9 11  1  0
 11 12  1  0
 12 13  2  0
 13 14  1  0
 14 15  2  0
 15 16  1  0
 15 17  1  0
 17 18  2  0
 11 19  1  0
  2 20  1  0
 20 21  2  0
 21 22  1  0
 22 23  2  0
 23 24  1  0
 24 25  2  0
 25 26  1  0
 26 27  2  0
 27 28  1  0
 28 29  2  0
 19  7  1  0
 29 20  1  0
 18 12  1  0
 28 23  1  0
  3 30  1  0
  4 31  1  0
  4 32  1  0
  8 33  1  0
  8 34  1  0
  9 35  1  6
 10 36  1  0
 11 37  1  6
 13 38  1  0
 14 39  1  0
 17 40  1  0
 18 41  1  0
 19 42  1  0
 19 43  1  0
 21 44  1  0
 22 45  1  0
 24 46  1  0
 25 47  1  0
 26 48  1  0
 27 49  1  0
M  END
>  <smiles>  (32) 
O=C(NCC(=O)N1C[C@H](O)[C@H](c2ccc(Cl)cc2)C1)c1ccc2ccccc2n1

>  <score_type>  (32) 
oracle

>  <origin>  (32) 
autodockgpu

>  <m_score__min__energy>  (32) 
-9.3800000000000008

>  <m_primary>  (32) 
energy

>  <rmsd>  (32) 
2.196395517873376

>  <m_score__min__rmsd>  (32) 
2.196395517873376

>  <meeko>  (32) 
{"free_energy": -8.48, "intermolecular_energy": -10.27, "internal_energy": -1.42, "cluster_size": 26, "cluster_id": 1, "rank_in_cluster": 22}

>  <energy>  (32) 
-8.33

>  <cluster_rmsd>  (32) 
0.86

>  <cluster>  (32) 
2

$$$$

     RDKit          3D

 49 52  0  0  0  0  0  0  0  0999 V2000
  140.9290   71.3220  221.2740 O   0  0  0  0  0  0  0  0  0  0  0  0
  140.4920   71.9180  222.2900 C   0  0  0  0  0  0  0  0  0  0  0  0
  140.2560   73.3080  222.1930 N   0  0  0  0  0  0  0  0  0  0  0  0
  140.4930   74.0650  220.9890 C   0  0  0  0  0  0  0  0  0  0  0  0
  140.8010   75.4760  221.3210 C   0  0  0  0  0  0  0  0  0  0  0  0
  140.5540   75.9880  222.4370 O   0  0  0  0  0  0  0  0  0  0  0  0
  141.4070   76.2790  220.3140 N   0  0  0  0  0  0  0  0  0  0  0  0
  142.7830   76.1890  219.7980 C   0  0  0  0  0  0  0  0  0  0  0  0
  142.5570   76.3380  218.3420 C   0  0  2  0  0  0  0  0  0  0  0  0
  143.6940   76.5470  217.5920 O   0  0  0  0  0  0  0  0  0  0  0  0
  141.4800   77.3100  218.1840 C   0  0  2  0  0  0  0  0  0  0  0  0
  141.8410   78.6830  217.7870 C   0  0  0  0  0  0  0  0  0  0  0  0
  141.8310   79.1430  216.4870 C   0  0  0  0  0  0  0  0  0  0  0  0
  142.1740   80.4410  216.1430 C   0  0  0  0  0  0  0  0  0  0  0  0
  142.5510   81.3560  217.1030 C   0  0  0  0  0  0  0  0  0  0  0  0
  142.9820   82.9800  216.6930 Cl  0  0  0  0  0  0  0  0  0  0  0  0
  142.5680   80.9170  218.4090 C   0  0  0  0  0  0  0  0  0  0  0  0
  142.2260   79.6260  218.7500 C   0  0  0  0  0  0  0  0  0  0  0  0
  140.8350   77.3750  219.5460 C   0  0  0  0  0  0  0  0  0  0  0  0
  140.2240   71.2200  223.5560 C   0  0  0  0  0  0  0  0  0  0  0  0
  139.5600   70.0080  223.5430 C   0  0  0  0  0  0  0  0  0  0  0  0
  139.3300   69.3880  224.7720 C   0  0  0  0  0  0  0  0  0  0  0  0
  139.7550   69.9680  225.9590 C   0  0  0  0  0  0  0  0  0  0  0  0
  139.5510   69.3940  227.1900 C   0  0  0  0  0  0  0  0  0  0  0  0
  139.9880   70.0040  228.3480 C   0  0  0  0  0  0  0  0  0  0  0  0
  140.6460   71.2190  228.2650 C   0  0  0  0  0  0  0  0  0  0  0  0
  140.8670   71.8230  227.0520 C   0  0  0  0  0  0  0  0  0  0  0  0
  140.4100   71.1740  225.9200 C   0  0  0  0  0  0  0  0  0  0  0  0
  140.6340   71.7770  224.7300 N   0  0  0  0  0  0  0  0  0  0  0  0
  139.8920   73.7870  223.0490 H   0  0  0  0  0  0  0  0  0  0  0  0
  141.3429   73.6262  220.4458 H   0  0  0  0  0  0  0  0  0  0  0  0
  139.5891   74.0338  220.3629 H   0  0  0  0  0  0  0  0  0  0  0  0
  143.4148   76.9985  220.1924 H   0  0  0  0  0  0  0  0  0  0  0  0
  143.3105   75.2658  220.0799 H   0  0  0  0  0  0  0  0  0  0  0  0
  142.2375   75.3821  217.9013 H   0  0  0  0  0  0  0  0  0  0  0  0
  144.4530   76.0580  218.0130 H   0  0  0  0  0  0  0  0  0  0  0  0
  140.8546   76.9626  217.3484 H   0  0  0  0  0  0  0  0  0  0  0  0
  141.5374   78.4480  215.6865 H   0  0  0  0  0  0  0  0  0  0  0  0
  142.1450   80.7463  215.0866 H   0  0  0  0  0  0  0  0  0  0  0  0
  142.8634   81.6180  219.2035 H   0  0  0  0  0  0  0  0  0  0  0  0
  142.2561   79.3272  219.8082 H   0  0  0  0  0  0  0  0  0  0  0  0
  141.0585   78.3376  220.0291 H   0  0  0  0  0  0  0  0  0  0  0  0
  139.7404   77.2906  219.4777 H   0  0  0  0  0  0  0  0  0  0  0  0
  139.2257   69.5498  222.6005 H   0  0  0  0  0  0  0  0  0  0  0  0
  138.8028   68.4230  224.8003 H   0  0  0  0  0  0  0  0  0  0  0  0
  139.0285   68.4281  227.2541 H   0  0  0  0  0  0  0  0  0  0  0  0
  139.8155   69.5303  229.3257 H   0  0  0  0  0  0  0  0  0  0  0  0
  140.9973   71.7083  229.1854 H   0  0  0  0  0  0  0  0  0  0  0  0
  141.3890   72.7888  226.9833 H   0  0  0  0  0  0  0  0  0  0  0  0
  1  2  2  0
  2  3  1  0
  3  4  1  0
  4  5  1  0
  5  6  2  0
  5  7  1  0
  7  8  1  0
  8  9  1  0
  9 10  1  0
  9 11  1  0
 11 12  1  0
 12 13  2  0
 13 14  1  0
 14 15  2  0
 15 16  1  0
 15 17  1  0
 17 18  2  0
 11 19  1  0
  2 20  1  0
 20 21  2  0
 21 22  1  0
 22 23  2  0
 23 24  1  0
 24 25  2  0
 25 26  1  0
 26 27  2  0
 27 28  1  0
 28 29  2  0
 19  7  1  0
 29 20  1  0
 18 12  1  0
 28 23  1  0
  3 30  1  0
  4 31  1  0
  4 32  1  0
  8 33  1  0
  8 34  1  0
  9 35  1  6
 10 36  1  0
 11 37  1  6
 13 38  1  0
 14 39  1  0
 17 40  1  0
 18 41  1  0
 19 42  1  0
 19 43  1  0
 21 44  1  0
 22 45  1  0
 24 46  1  0
 25 47  1  0
 26 48  1  0
 27 49  1  0
M  END
>  <smiles>  (33) 
O=C(NCC(=O)N1C[C@H](O)[C@H](c2ccc(Cl)cc2)C1)c1ccc2ccccc2n1

>  <score_type>  (33) 
oracle

>  <origin>  (33) 
autodockgpu

>  <m_score__min__energy>  (33) 
-9.3800000000000008

>  <m_primary>  (33) 
energy

>  <rmsd>  (33) 
2.38950563927453

>  <m_score__min__rmsd>  (33) 
2.38950563927453

>  <meeko>  (33) 
{"free_energy": -7.89, "intermolecular_energy": -9.68, "internal_energy": -1.54, "cluster_size": 2, "cluster_id": 4, "rank_in_cluster": 2}

>  <energy>  (33) 
-8.23

>  <cluster_rmsd>  (33) 
0.67

>  <cluster>  (33) 
2

$$$$

     RDKit          3D

 49 52  0  0  0  0  0  0  0  0999 V2000
  138.7100   70.3850  221.6530 O   0  0  0  0  0  0  0  0  0  0  0  0
  139.0840   70.9290  222.7220 C   0  0  0  0  0  0  0  0  0  0  0  0
  139.2570   72.3320  222.7280 N   0  0  0  0  0  0  0  0  0  0  0  0
  139.0250   73.1580  221.5690 C   0  0  0  0  0  0  0  0  0  0  0  0
  140.2850   73.3450  220.8110 C   0  0  0  0  0  0  0  0  0  0  0  0
  140.8060   72.4440  220.1140 O   0  0  0  0  0  0  0  0  0  0  0  0
  140.9240   74.6140  220.8860 N   0  0  0  0  0  0  0  0  0  0  0  0
  142.3240   74.9370  220.5660 C   0  0  0  0  0  0  0  0  0  0  0  0
  142.1650   76.2030  219.8150 C   0  0  2  0  0  0  0  0  0  0  0  0
  143.3330   76.8990  219.5870 O   0  0  0  0  0  0  0  0  0  0  0  0
  141.0810   76.9370  220.4590 C   0  0  2  0  0  0  0  0  0  0  0  0
  141.4370   78.0610  221.3450 C   0  0  0  0  0  0  0  0  0  0  0  0
  141.8500   79.2990  220.9000 C   0  0  0  0  0  0  0  0  0  0  0  0
  142.1780   80.3380  221.7570 C   0  0  0  0  0  0  0  0  0  0  0  0
  142.1060   80.1830  223.1250 C   0  0  0  0  0  0  0  0  0  0  0  0
  142.5110   81.4680  224.2100 Cl  0  0  0  0  0  0  0  0  0  0  0  0
  141.6960   78.9530  223.5910 C   0  0  0  0  0  0  0  0  0  0  0  0
  141.3690   77.9200  222.7380 C   0  0  0  0  0  0  0  0  0  0  0  0
  140.3710   75.8980  221.2910 C   0  0  0  0  0  0  0  0  0  0  0  0
  139.3410   70.1580  223.9480 C   0  0  0  0  0  0  0  0  0  0  0  0
  138.9730   68.8280  224.0110 C   0  0  0  0  0  0  0  0  0  0  0  0
  139.2390   68.1430  225.1980 C   0  0  0  0  0  0  0  0  0  0  0  0
  139.8510   68.7760  226.2700 C   0  0  0  0  0  0  0  0  0  0  0  0
  140.1330   68.1420  227.4550 C   0  0  0  0  0  0  0  0  0  0  0  0
  140.7430   68.8080  228.4990 C   0  0  0  0  0  0  0  0  0  0  0  0
  141.0770   70.1420  228.3460 C   0  0  0  0  0  0  0  0  0  0  0  0
  140.8110   70.8090  227.1750 C   0  0  0  0  0  0  0  0  0  0  0  0
  140.1980   70.1000  226.1590 C   0  0  0  0  0  0  0  0  0  0  0  0
  139.9410   70.7660  225.0100 N   0  0  0  0  0  0  0  0  0  0  0  0
  139.5680   72.7660  223.6270 H   0  0  0  0  0  0  0  0  0  0  0  0
  138.2800   72.6732  220.9209 H   0  0  0  0  0  0  0  0  0  0  0  0
  138.6555   74.1406  221.8976 H   0  0  0  0  0  0  0  0  0  0  0  0
  142.9224   75.0819  221.4776 H   0  0  0  0  0  0  0  0  0  0  0  0
  142.8532   74.1478  220.0118 H   0  0  0  0  0  0  0  0  0  0  0  0
  141.8831   75.9993  218.7714 H   0  0  0  0  0  0  0  0  0  0  0  0
  143.6550   77.2800  220.4500 H   0  0  0  0  0  0  0  0  0  0  0  0
  140.5024   77.4210  219.6584 H   0  0  0  0  0  0  0  0  0  0  0  0
  141.9225   79.4699  219.8158 H   0  0  0  0  0  0  0  0  0  0  0  0
  142.5012   81.3025  221.3384 H   0  0  0  0  0  0  0  0  0  0  0  0
  141.6274   78.7900  224.6767 H   0  0  0  0  0  0  0  0  0  0  0  0
  141.0457   76.9582  223.1627 H   0  0  0  0  0  0  0  0  0  0  0  0
  140.5559   76.0735  222.3611 H   0  0  0  0  0  0  0  0  0  0  0  0
  139.2823   75.9343  221.1381 H   0  0  0  0  0  0  0  0  0  0  0  0
  138.4892   68.3281  223.1590 H   0  0  0  0  0  0  0  0  0  0  0  0
  138.9584   67.0829  225.2847 H   0  0  0  0  0  0  0  0  0  0  0  0
  139.8673   67.0813  227.5748 H   0  0  0  0  0  0  0  0  0  0  0  0
  140.9610   68.2843  229.4415 H   0  0  0  0  0  0  0  0  0  0  0  0
  141.5632   70.6768  229.1752 H   0  0  0  0  0  0  0  0  0  0  0  0
  141.0763   71.8692  227.0503 H   0  0  0  0  0  0  0  0  0  0  0  0
  1  2  2  0
  2  3  1  0
  3  4  1  0
  4  5  1  0
  5  6  2  0
  5  7  1  0
  7  8  1  0
  8  9  1  0
  9 10  1  0
  9 11  1  0
 11 12  1  0
 12 13  2  0
 13 14  1  0
 14 15  2  0
 15 16  1  0
 15 17  1  0
 17 18  2  0
 11 19  1  0
  2 20  1  0
 20 21  2  0
 21 22  1  0
 22 23  2  0
 23 24  1  0
 24 25  2  0
 25 26  1  0
 26 27  2  0
 27 28  1  0
 28 29  2  0
 19  7  1  0
 29 20  1  0
 18 12  1  0
 28 23  1  0
  3 30  1  0
  4 31  1  0
  4 32  1  0
  8 33  1  0
  8 34  1  0
  9 35  1  6
 10 36  1  0
 11 37  1  6
 13 38  1  0
 14 39  1  0
 17 40  1  0
 18 41  1  0
 19 42  1  0
 19 43  1  0
 21 44  1  0
 22 45  1  0
 24 46  1  0
 25 47  1  0
 26 48  1  0
 27 49  1  0
M  END
>  <smiles>  (34) 
O=C(NCC(=O)N1C[C@H](O)[C@H](c2ccc(Cl)cc2)C1)c1ccc2ccccc2n1

>  <score_type>  (34) 
oracle

>  <origin>  (34) 
autodockgpu

>  <m_score__min__energy>  (34) 
-9.3800000000000008

>  <m_primary>  (34) 
energy

>  <rmsd>  (34) 
2.3052792281421985

>  <m_score__min__rmsd>  (34) 
2.3052792281421985

>  <meeko>  (34) 
{"free_energy": -9.18, "intermolecular_energy": -10.97, "internal_energy": -1.4, "cluster_size": 26, "cluster_id": 1, "rank_in_cluster": 3}

>  <energy>  (34) 
-8.14

>  <cluster_rmsd>  (34) 
0.97

>  <cluster>  (34) 
2

$$$$

     RDKit          3D

 49 52  0  0  0  0  0  0  0  0999 V2000
  139.7110   70.5210  221.7930 O   0  0  0  0  0  0  0  0  0  0  0  0
  139.6500   71.3490  222.7350 C   0  0  0  0  0  0  0  0  0  0  0  0
  139.2240   72.6640  222.4370 N   0  0  0  0  0  0  0  0  0  0  0  0
  138.8600   73.0910  221.1090 C   0  0  0  0  0  0  0  0  0  0  0  0
  140.0760   73.3610  220.3050 C   0  0  0  0  0  0  0  0  0  0  0  0
  140.5070   72.5760  219.4300 O   0  0  0  0  0  0  0  0  0  0  0  0
  140.7770   74.5750  220.5480 N   0  0  0  0  0  0  0  0  0  0  0  0
  142.2310   74.8000  220.4970 C   0  0  0  0  0  0  0  0  0  0  0  0
  142.2990   76.0970  219.7850 C   0  0  2  0  0  0  0  0  0  0  0  0
  143.5340   76.7080  219.8000 O   0  0  0  0  0  0  0  0  0  0  0  0
  141.1690   76.8920  220.2570 C   0  0  2  0  0  0  0  0  0  0  0  0
  141.4370   77.9570  221.2410 C   0  0  0  0  0  0  0  0  0  0  0  0
  141.3470   77.7930  222.6070 C   0  0  0  0  0  0  0  0  0  0  0  0
  141.6050   78.8130  223.5090 C   0  0  0  0  0  0  0  0  0  0  0  0
  141.9730   80.0690  223.0770 C   0  0  0  0  0  0  0  0  0  0  0  0
  142.2990   81.3550  224.1870 Cl  0  0  0  0  0  0  0  0  0  0  0  0
  142.0680   80.2560  221.7140 C   0  0  0  0  0  0  0  0  0  0  0  0
  141.8110   79.2400  220.8180 C   0  0  0  0  0  0  0  0  0  0  0  0
  140.2510   75.8850  220.9030 C   0  0  0  0  0  0  0  0  0  0  0  0
  140.0020   70.9940  224.1180 C   0  0  0  0  0  0  0  0  0  0  0  0
  140.7300   71.8790  224.8890 C   0  0  0  0  0  0  0  0  0  0  0  0
  141.0380   71.4930  226.1940 C   0  0  0  0  0  0  0  0  0  0  0  0
  140.6260   70.2660  226.6950 C   0  0  0  0  0  0  0  0  0  0  0  0
  140.9060   69.8450  227.9730 C   0  0  0  0  0  0  0  0  0  0  0  0
  140.4780   68.6160  228.4330 C   0  0  0  0  0  0  0  0  0  0  0  0
  139.7530   67.7930  227.5890 C   0  0  0  0  0  0  0  0  0  0  0  0
  139.4550   68.1810  226.3060 C   0  0  0  0  0  0  0  0  0  0  0  0
  139.9050   69.4200  225.8900 C   0  0  0  0  0  0  0  0  0  0  0  0
  139.6050   69.7930  224.6250 N   0  0  0  0  0  0  0  0  0  0  0  0
  139.1790   73.3380  223.2350 H   0  0  0  0  0  0  0  0  0  0  0  0
  138.2710   72.2999  220.6219 H   0  0  0  0  0  0  0  0  0  0  0  0
  138.2652   74.0136  221.1798 H   0  0  0  0  0  0  0  0  0  0  0  0
  142.6631   74.8714  221.5060 H   0  0  0  0  0  0  0  0  0  0  0  0
  142.7955   73.9898  220.0123 H   0  0  0  0  0  0  0  0  0  0  0  0
  142.1973   75.9475  218.7000 H   0  0  0  0  0  0  0  0  0  0  0  0
  143.6440   77.1940  220.6630 H   0  0  0  0  0  0  0  0  0  0  0  0
  140.7789   77.4430  219.3885 H   0  0  0  0  0  0  0  0  0  0  0  0
  141.0570   76.8070  222.9990 H   0  0  0  0  0  0  0  0  0  0  0  0
  141.5146   78.6169  224.5876 H   0  0  0  0  0  0  0  0  0  0  0  0
  142.3575   81.2454  221.3301 H   0  0  0  0  0  0  0  0  0  0  0  0
  141.9021   79.4420  219.7405 H   0  0  0  0  0  0  0  0  0  0  0  0
  140.2513   76.0135  221.9955 H   0  0  0  0  0  0  0  0  0  0  0  0
  139.2132   76.0084  220.5598 H   0  0  0  0  0  0  0  0  0  0  0  0
  141.0546   72.8511  224.4895 H   0  0  0  0  0  0  0  0  0  0  0  0
  141.6171   72.1726  226.8365 H   0  0  0  0  0  0  0  0  0  0  0  0
  141.4825   70.5004  228.6424 H   0  0  0  0  0  0  0  0  0  0  0  0
  140.7105   68.2943  229.4589 H   0  0  0  0  0  0  0  0  0  0  0  0
  139.4101   66.8127  227.9516 H   0  0  0  0  0  0  0  0  0  0  0  0
  138.8786   67.5290  225.6331 H   0  0  0  0  0  0  0  0  0  0  0  0
  1  2  2  0
  2  3  1  0
  3  4  1  0
  4  5  1  0
  5  6  2  0
  5  7  1  0
  7  8  1  0
  8  9  1  0
  9 10  1  0
  9 11  1  0
 11 12  1  0
 12 13  2  0
 13 14  1  0
 14 15  2  0
 15 16  1  0
 15 17  1  0
 17 18  2  0
 11 19  1  0
  2 20  1  0
 20 21  2  0
 21 22  1  0
 22 23  2  0
 23 24  1  0
 24 25  2  0
 25 26  1  0
 26 27  2  0
 27 28  1  0
 28 29  2  0
 19  7  1  0
 29 20  1  0
 18 12  1  0
 28 23  1  0
  3 30  1  0
  4 31  1  0
  4 32  1  0
  8 33  1  0
  8 34  1  0
  9 35  1  6
 10 36  1  0
 11 37  1  6
 13 38  1  0
 14 39  1  0
 17 40  1  0
 18 41  1  0
 19 42  1  0
 19 43  1  0
 21 44  1  0
 22 45  1  0
 24 46  1  0
 25 47  1  0
 26 48  1  0
 27 49  1  0
M  END
>  <smiles>  (35) 
O=C(NCC(=O)N1C[C@H](O)[C@H](c2ccc(Cl)cc2)C1)c1ccc2ccccc2n1

>  <score_type>  (35) 
oracle

>  <origin>  (35) 
autodockgpu

>  <m_score__min__energy>  (35) 
-9.3800000000000008

>  <m_primary>  (35) 
energy

>  <rmsd>  (35) 
3.1332578362377914

>  <m_score__min__rmsd>  (35) 
3.1332578362377914

>  <meeko>  (35) 
{"free_energy": -9.2, "intermolecular_energy": -10.99, "internal_energy": -1.13, "cluster_size": 26, "cluster_id": 1, "rank_in_cluster": 2}

>  <energy>  (35) 
-7.89

>  <cluster_rmsd>  (35) 
1.19

>  <cluster>  (35) 
2

$$$$

     RDKit          3D

 49 52  0  0  0  0  0  0  0  0999 V2000
  138.1110   70.2300  221.7410 O   0  0  0  0  0  0  0  0  0  0  0  0
  138.2050   70.8280  222.8420 C   0  0  0  0  0  0  0  0  0  0  0  0
  137.6900   72.1420  222.9300 N   0  0  0  0  0  0  0  0  0  0  0  0
  137.0670   72.8190  221.8190 C   0  0  0  0  0  0  0  0  0  0  0  0
  138.0640   73.0810  220.7530 C   0  0  0  0  0  0  0  0  0  0  0  0
  138.0010   72.5640  219.6140 O   0  0  0  0  0  0  0  0  0  0  0  0
  139.1380   73.9640  221.0500 N   0  0  0  0  0  0  0  0  0  0  0  0
  140.4680   73.6190  221.5770 C   0  0  0  0  0  0  0  0  0  0  0  0
  141.3430   74.4750  220.7430 C   0  0  2  0  0  0  0  0  0  0  0  0
  142.6500   74.5660  221.1690 O   0  0  0  0  0  0  0  0  0  0  0  0
  140.6290   75.7330  220.5460 C   0  0  2  0  0  0  0  0  0  0  0  0
  141.0510   76.8990  221.3450 C   0  0  0  0  0  0  0  0  0  0  0  0
  141.0630   76.9310  222.7240 C   0  0  0  0  0  0  0  0  0  0  0  0
  141.4650   78.0420  223.4490 C   0  0  0  0  0  0  0  0  0  0  0  0
  141.8820   79.1930  222.8160 C   0  0  0  0  0  0  0  0  0  0  0  0
  142.3880   80.5880  223.7040 Cl  0  0  0  0  0  0  0  0  0  0  0  0
  141.8780   79.1820  221.4380 C   0  0  0  0  0  0  0  0  0  0  0  0
  141.4780   78.0770  220.7170 C   0  0  0  0  0  0  0  0  0  0  0  0
  139.2020   75.4120  220.9120 C   0  0  0  0  0  0  0  0  0  0  0  0
  138.8240   70.2080  224.0220 C   0  0  0  0  0  0  0  0  0  0  0  0
  138.8410   68.8320  224.1450 C   0  0  0  0  0  0  0  0  0  0  0  0
  139.4410   68.2950  225.2850 C   0  0  0  0  0  0  0  0  0  0  0  0
  140.0000   69.1150  226.2550 C   0  0  0  0  0  0  0  0  0  0  0  0
  140.6020   68.6310  227.3910 C   0  0  0  0  0  0  0  0  0  0  0  0
  141.1460   69.4810  228.3330 C   0  0  0  0  0  0  0  0  0  0  0  0
  141.0840   70.8480  228.1260 C   0  0  0  0  0  0  0  0  0  0  0  0
  140.4910   71.3670  227.0020 C   0  0  0  0  0  0  0  0  0  0  0  0
  139.9590   70.4770  226.0880 C   0  0  0  0  0  0  0  0  0  0  0  0
  139.3780   70.9990  224.9840 N   0  0  0  0  0  0  0  0  0  0  0  0
  137.7770   72.6230  223.8540 H   0  0  0  0  0  0  0  0  0  0  0  0
  136.2610   72.1886  221.4154 H   0  0  0  0  0  0  0  0  0  0  0  0
  136.6557   73.7775  222.1684 H   0  0  0  0  0  0  0  0  0  0  0  0
  140.5562   73.8719  222.6439 H   0  0  0  0  0  0  0  0  0  0  0  0
  140.7076   72.5466  221.5269 H   0  0  0  0  0  0  0  0  0  0  0  0
  141.5175   74.0094  219.7618 H   0  0  0  0  0  0  0  0  0  0  0  0
  143.0870   73.6770  221.0620 H   0  0  0  0  0  0  0  0  0  0  0  0
  140.8218   76.0529  219.5113 H   0  0  0  0  0  0  0  0  0  0  0  0
  140.7390   76.0346  223.2730 H   0  0  0  0  0  0  0  0  0  0  0  0
  141.4509   78.0043  224.5483 H   0  0  0  0  0  0  0  0  0  0  0  0
  142.2039   80.0824  220.8967 H   0  0  0  0  0  0  0  0  0  0  0  0
  141.4944   78.1212  219.6180 H   0  0  0  0  0  0  0  0  0  0  0  0
  138.9323   75.8985  221.8610 H   0  0  0  0  0  0  0  0  0  0  0  0
  138.4991   75.7749  220.1477 H   0  0  0  0  0  0  0  0  0  0  0  0
  138.3985   68.1843  223.3738 H   0  0  0  0  0  0  0  0  0  0  0  0
  139.4713   67.2033  225.4168 H   0  0  0  0  0  0  0  0  0  0  0  0
  140.6516   67.5442  227.5533 H   0  0  0  0  0  0  0  0  0  0  0  0
  141.6233   69.0764  229.2377 H   0  0  0  0  0  0  0  0  0  0  0  0
  141.5166   71.5291  228.8737 H   0  0  0  0  0  0  0  0  0  0  0  0
  140.4409   72.4530  226.8346 H   0  0  0  0  0  0  0  0  0  0  0  0
  1  2  2  0
  2  3  1  0
  3  4  1  0
  4  5  1  0
  5  6  2  0
  5  7  1  0
  7  8  1  0
  8  9  1  0
  9 10  1  0
  9 11  1  0
 11 12  1  0
 12 13  2  0
 13 14  1  0
 14 15  2  0
 15 16  1  0
 15 17  1  0
 17 18  2  0
 11 19  1  0
  2 20  1  0
 20 21  2  0
 21 22  1  0
 22 23  2  0
 23 24  1  0
 24 25  2  0
 25 26  1  0
 26 27  2  0
 27 28  1  0
 28 29  2  0
 19  7  1  0
 29 20  1  0
 18 12  1  0
 28 23  1  0
  3 30  1  0
  4 31  1  0
  4 32  1  0
  8 33  1  0
  8 34  1  0
  9 35  1  6
 10 36  1  0
 11 37  1  6
 13 38  1  0
 14 39  1  0
 17 40  1  0
 18 41  1  0
 19 42  1  0
 19 43  1  0
 21 44  1  0
 22 45  1  0
 24 46  1  0
 25 47  1  0
 26 48  1  0
 27 49  1  0
M  END
>  <smiles>  (36) 
O=C(NCC(=O)N1C[C@H](O)[C@H](c2ccc(Cl)cc2)C1)c1ccc2ccccc2n1

>  <score_type>  (36) 
oracle

>  <origin>  (36) 
autodockgpu

>  <m_score__min__energy>  (36) 
-9.3800000000000008

>  <m_primary>  (36) 
energy

>  <rmsd>  (36) 
2.43701367050108

>  <m_score__min__rmsd>  (36) 
2.43701367050108

>  <meeko>  (36) 
{"free_energy": -7.89, "intermolecular_energy": -9.68, "internal_energy": -1.5, "cluster_size": 10, "cluster_id": 2, "rank_in_cluster": 9}

>  <energy>  (36) 
-7.71

>  <cluster_rmsd>  (36) 
1.59

>  <cluster>  (36) 
2

$$$$

     RDKit          3D

 49 52  0  0  0  0  0  0  0  0999 V2000
  138.1620   70.5510  221.8350 O   0  0  0  0  0  0  0  0  0  0  0  0
  138.7840   71.0530  222.8040 C   0  0  0  0  0  0  0  0  0  0  0  0
  139.1400   72.4190  222.7290 N   0  0  0  0  0  0  0  0  0  0  0  0
  138.8230   73.2540  221.5980 C   0  0  0  0  0  0  0  0  0  0  0  0
  140.0210   73.4410  220.7450 C   0  0  0  0  0  0  0  0  0  0  0  0
  140.4300   72.5750  219.9370 O   0  0  0  0  0  0  0  0  0  0  0  0
  140.7330   74.6670  220.8590 N   0  0  0  0  0  0  0  0  0  0  0  0
  142.1730   74.8950  220.6550 C   0  0  0  0  0  0  0  0  0  0  0  0
  142.1610   76.1550  219.8780 C   0  0  2  0  0  0  0  0  0  0  0  0
  143.3860   76.7700  219.7420 O   0  0  0  0  0  0  0  0  0  0  0  0
  141.0760   76.9680  220.4180 C   0  0  2  0  0  0  0  0  0  0  0  0
  141.4290   78.0820  221.3170 C   0  0  0  0  0  0  0  0  0  0  0  0
  141.8080   79.3360  220.8880 C   0  0  0  0  0  0  0  0  0  0  0  0
  142.1340   80.3660  221.7560 C   0  0  0  0  0  0  0  0  0  0  0  0
  142.0940   80.1840  223.1220 C   0  0  0  0  0  0  0  0  0  0  0  0
  142.4970   81.4570  224.2220 Cl  0  0  0  0  0  0  0  0  0  0  0  0
  141.7180   78.9380  223.5740 C   0  0  0  0  0  0  0  0  0  0  0  0
  141.3940   77.9140  222.7090 C   0  0  0  0  0  0  0  0  0  0  0  0
  140.2330   75.9910  221.1990 C   0  0  0  0  0  0  0  0  0  0  0  0
  139.1450   70.2710  223.9960 C   0  0  0  0  0  0  0  0  0  0  0  0
  138.8720   68.9160  224.0360 C   0  0  0  0  0  0  0  0  0  0  0  0
  139.2350   68.2210  225.1900 C   0  0  0  0  0  0  0  0  0  0  0  0
  139.8480   68.8670  226.2540 C   0  0  0  0  0  0  0  0  0  0  0  0
  140.2220   68.2240  227.4080 C   0  0  0  0  0  0  0  0  0  0  0  0
  140.8290   68.9030  228.4450 C   0  0  0  0  0  0  0  0  0  0  0  0
  141.0640   70.2610  228.3170 C   0  0  0  0  0  0  0  0  0  0  0  0
  140.7040   70.9380  227.1780 C   0  0  0  0  0  0  0  0  0  0  0  0
  140.0980   70.2150  226.1670 C   0  0  0  0  0  0  0  0  0  0  0  0
  139.7470   70.8900  225.0500 N   0  0  0  0  0  0  0  0  0  0  0  0
  139.6580   72.8180  223.5460 H   0  0  0  0  0  0  0  0  0  0  0  0
  138.0273   72.7774  221.0067 H   0  0  0  0  0  0  0  0  0  0  0  0
  138.4856   74.2359  221.9614 H   0  0  0  0  0  0  0  0  0  0  0  0
  142.7007   75.0175  221.6123 H   0  0  0  0  0  0  0  0  0  0  0  0
  142.6941   74.0641  220.1570 H   0  0  0  0  0  0  0  0  0  0  0  0
  141.9557   75.9518  218.8166 H   0  0  0  0  0  0  0  0  0  0  0  0
  143.6560   77.1520  220.6210 H   0  0  0  0  0  0  0  0  0  0  0  0
  140.5989   77.4736  219.5655 H   0  0  0  0  0  0  0  0  0  0  0  0
  141.8538   79.5281  219.8059 H   0  0  0  0  0  0  0  0  0  0  0  0
  142.4293   81.3442  221.3486 H   0  0  0  0  0  0  0  0  0  0  0  0
  141.6749   78.7544  224.6577 H   0  0  0  0  0  0  0  0  0  0  0  0
  141.0998   76.9380  223.1224 H   0  0  0  0  0  0  0  0  0  0  0  0
  140.3382   76.1735  222.2787 H   0  0  0  0  0  0  0  0  0  0  0  0
  139.1658   76.0937  220.9529 H   0  0  0  0  0  0  0  0  0  0  0  0
  138.3873   68.4058  223.1906 H   0  0  0  0  0  0  0  0  0  0  0  0
  139.0317   67.1421  225.2575 H   0  0  0  0  0  0  0  0  0  0  0  0
  140.0339   67.1448  227.5082 H   0  0  0  0  0  0  0  0  0  0  0  0
  141.1225   68.3713  229.3622 H   0  0  0  0  0  0  0  0  0  0  0  0
  141.5469   70.8067  229.1410 H   0  0  0  0  0  0  0  0  0  0  0  0
  140.8910   72.0169  227.0735 H   0  0  0  0  0  0  0  0  0  0  0  0
  1  2  2  0
  2  3  1  0
  3  4  1  0
  4  5  1  0
  5  6  2  0
  5  7  1  0
  7  8  1  0
  8  9  1  0
  9 10  1  0
  9 11  1  0
 11 12  1  0
 12 13  2  0
 13 14  1  0
 14 15  2  0
 15 16  1  0
 15 17  1  0
 17 18  2  0
 11 19  1  0
  2 20  1  0
 20 21  2  0
 21 22  1  0
 22 23  2  0
 23 24  1  0
 24 25  2  0
 25 26  1  0
 26 27  2  0
 27 28  1  0
 28 29  2  0
 19  7  1  0
 29 20  1  0
 18 12  1  0
 28 23  1  0
  3 30  1  0
  4 31  1  0
  4 32  1  0
  8 33  1  0
  8 34  1  0
  9 35  1  6
 10 36  1  0
 11 37  1  6
 13 38  1  0
 14 39  1  0
 17 40  1  0
 18 41  1  0
 19 42  1  0
 19 43  1  0
 21 44  1  0
 22 45  1  0
 24 46  1  0
 25 47  1  0
 26 48  1  0
 27 49  1  0
M  END
>  <smiles>  (37) 
O=C(NCC(=O)N1C[C@H](O)[C@H](c2ccc(Cl)cc2)C1)c1ccc2ccccc2n1

>  <score_type>  (37) 
oracle

>  <origin>  (37) 
autodockgpu

>  <m_score__min__energy>  (37) 
-9.3800000000000008

>  <m_primary>  (37) 
energy

>  <rmsd>  (37) 
2.2981636567528647

>  <m_score__min__rmsd>  (37) 
2.2981636567528647

>  <meeko>  (37) 
{"free_energy": -9.1, "intermolecular_energy": -10.89, "internal_energy": -1.41, "cluster_size": 26, "cluster_id": 1, "rank_in_cluster": 6}

>  <energy>  (37) 
-8.72

>  <cluster_rmsd>  (37) 
0.0

>  <cluster>  (37) 
3

$$$$

     RDKit          3D

 49 52  0  0  0  0  0  0  0  0999 V2000
  137.2230   71.6550  223.2680 O   0  0  0  0  0  0  0  0  0  0  0  0
  138.4490   71.4120  223.3950 C   0  0  0  0  0  0  0  0  0  0  0  0
  139.3560   72.1300  222.5840 N   0  0  0  0  0  0  0  0  0  0  0  0
  138.9380   73.1200  221.6230 C   0  0  0  0  0  0  0  0  0  0  0  0
  140.0400   73.4140  220.6750 C   0  0  0  0  0  0  0  0  0  0  0  0
  140.3660   72.6440  219.7440 O   0  0  0  0  0  0  0  0  0  0  0  0
  140.7520   74.6340  220.8420 N   0  0  0  0  0  0  0  0  0  0  0  0
  142.1970   74.8630  220.6780 C   0  0  0  0  0  0  0  0  0  0  0  0
  142.2060   76.1450  219.9380 C   0  0  2  0  0  0  0  0  0  0  0  0
  143.4360   76.7600  219.8490 O   0  0  0  0  0  0  0  0  0  0  0  0
  141.1120   76.9460  220.4780 C   0  0  2  0  0  0  0  0  0  0  0  0
  141.4470   78.0310  221.4180 C   0  0  0  0  0  0  0  0  0  0  0  0
  141.4270   77.9030  222.7910 C   0  0  0  0  0  0  0  0  0  0  0  0
  141.7490   78.9410  223.6510 C   0  0  0  0  0  0  0  0  0  0  0  0
  142.1120   80.1790  223.1680 C   0  0  0  0  0  0  0  0  0  0  0  0
  142.5170   81.4870  224.2250 Cl  0  0  0  0  0  0  0  0  0  0  0  0
  142.1380   80.3300  221.7980 C   0  0  0  0  0  0  0  0  0  0  0  0
  141.8190   79.2970  220.9430 C   0  0  0  0  0  0  0  0  0  0  0  0
  140.2480   75.9490  221.2100 C   0  0  0  0  0  0  0  0  0  0  0  0
  138.9570   70.4170  224.3520 C   0  0  0  0  0  0  0  0  0  0  0  0
  138.7530   69.0710  224.1160 C   0  0  0  0  0  0  0  0  0  0  0  0
  139.2560   68.1700  225.0550 C   0  0  0  0  0  0  0  0  0  0  0  0
  139.9360   68.6110  226.1810 C   0  0  0  0  0  0  0  0  0  0  0  0
  140.4480   67.7610  227.1300 C   0  0  0  0  0  0  0  0  0  0  0  0
  141.1180   68.2410  228.2370 C   0  0  0  0  0  0  0  0  0  0  0  0
  141.2760   69.6070  228.3930 C   0  0  0  0  0  0  0  0  0  0  0  0
  140.7770   70.4870  227.4630 C   0  0  0  0  0  0  0  0  0  0  0  0
  140.1140   69.9600  226.3720 C   0  0  0  0  0  0  0  0  0  0  0  0
  139.6270   70.8350  225.4630 N   0  0  0  0  0  0  0  0  0  0  0  0
  140.3720   71.9140  222.7050 H   0  0  0  0  0  0  0  0  0  0  0  0
  138.0702   72.7397  221.0641 H   0  0  0  0  0  0  0  0  0  0  0  0
  138.6677   74.0439  222.1553 H   0  0  0  0  0  0  0  0  0  0  0  0
  142.7028   74.9559  221.6504 H   0  0  0  0  0  0  0  0  0  0  0  0
  142.7275   74.0452  220.1683 H   0  0  0  0  0  0  0  0  0  0  0  0
  142.0239   75.9733  218.8668 H   0  0  0  0  0  0  0  0  0  0  0  0
  143.6680   77.1510  220.7360 H   0  0  0  0  0  0  0  0  0  0  0  0
  140.6569   77.4793  219.6303 H   0  0  0  0  0  0  0  0  0  0  0  0
  141.1424   76.9324  223.2234 H   0  0  0  0  0  0  0  0  0  0  0  0
  141.7141   78.7735  224.7376 H   0  0  0  0  0  0  0  0  0  0  0  0
  142.4220   81.3046  221.3742 H   0  0  0  0  0  0  0  0  0  0  0  0
  141.8573   79.4705  219.8574 H   0  0  0  0  0  0  0  0  0  0  0  0
  140.3287   76.0987  222.2968 H   0  0  0  0  0  0  0  0  0  0  0  0
  139.1871   76.0629  220.9427 H   0  0  0  0  0  0  0  0  0  0  0  0
  138.2147   68.7231  223.2220 H   0  0  0  0  0  0  0  0  0  0  0  0
  139.1108   67.0907  224.8998 H   0  0  0  0  0  0  0  0  0  0  0  0
  140.3216   66.6754  227.0055 H   0  0  0  0  0  0  0  0  0  0  0  0
  141.5221   67.5453  228.9872 H   0  0  0  0  0  0  0  0  0  0  0  0
  141.8087   69.9939  229.2742 H   0  0  0  0  0  0  0  0  0  0  0  0
  140.9012   71.5733  227.5833 H   0  0  0  0  0  0  0  0  0  0  0  0
  1  2  2  0
  2  3  1  0
  3  4  1  0
  4  5  1  0
  5  6  2  0
  5  7  1  0
  7  8  1  0
  8  9  1  0
  9 10  1  0
  9 11  1  0
 11 12  1  0
 12 13  2  0
 13 14  1  0
 14 15  2  0
 15 16  1  0
 15 17  1  0
 17 18  2  0
 11 19  1  0
  2 20  1  0
 20 21  2  0
 21 22  1  0
 22 23  2  0
 23 24  1  0
 24 25  2  0
 25 26  1  0
 26 27  2  0
 27 28  1  0
 28 29  2  0
 19  7  1  0
 29 20  1  0
 18 12  1  0
 28 23  1  0
  3 30  1  0
  4 31  1  0
  4 32  1  0
  8 33  1  0
  8 34  1  0
  9 35  1  6
 10 36  1  0
 11 37  1  6
 13 38  1  0
 14 39  1  0
 17 40  1  0
 18 41  1  0
 19 42  1  0
 19 43  1  0
 21 44  1  0
 22 45  1  0
 24 46  1  0
 25 47  1  0
 26 48  1  0
 27 49  1  0
M  END
>  <smiles>  (38) 
O=C(NCC(=O)N1C[C@H](O)[C@H](c2ccc(Cl)cc2)C1)c1ccc2ccccc2n1

>  <score_type>  (38) 
oracle

>  <origin>  (38) 
autodockgpu

>  <m_score__min__energy>  (38) 
-9.3800000000000008

>  <m_primary>  (38) 
energy

>  <rmsd>  (38) 
2.4501508801513454

>  <m_score__min__rmsd>  (38) 
2.4501508801513454

>  <meeko>  (38) 
{"free_energy": -8.72, "intermolecular_energy": -10.51, "internal_energy": -1.09, "cluster_size": 26, "cluster_id": 1, "rank_in_cluster": 16}

>  <energy>  (38) 
-8.7

>  <cluster_rmsd>  (38) 
0.08

>  <cluster>  (38) 
3

$$$$

     RDKit          3D

 49 52  0  0  0  0  0  0  0  0999 V2000
  140.2570   71.3820  221.1730 O   0  0  0  0  0  0  0  0  0  0  0  0
  140.0360   71.9560  222.2690 C   0  0  0  0  0  0  0  0  0  0  0  0
  139.7870   73.3470  222.2520 N   0  0  0  0  0  0  0  0  0  0  0  0
  139.7760   74.1290  221.0420 C   0  0  0  0  0  0  0  0  0  0  0  0
  141.1080   74.7400  220.8130 C   0  0  0  0  0  0  0  0  0  0  0  0
  141.3730   75.9310  221.0940 O   0  0  0  0  0  0  0  0  0  0  0  0
  142.1250   73.9230  220.2460 N   0  0  0  0  0  0  0  0  0  0  0  0
  142.7110   74.0190  218.8990 C   0  0  0  0  0  0  0  0  0  0  0  0
  144.1500   73.8330  219.1940 C   0  0  2  0  0  0  0  0  0  0  0  0
  144.9510   73.6220  218.0920 O   0  0  0  0  0  0  0  0  0  0  0  0
  144.2320   72.8430  220.2630 C   0  0  2  0  0  0  0  0  0  0  0  0
  144.6150   71.4660  219.9010 C   0  0  0  0  0  0  0  0  0  0  0  0
  143.7800   70.3730  220.0130 C   0  0  0  0  0  0  0  0  0  0  0  0
  144.1670   69.0890  219.6640 C   0  0  0  0  0  0  0  0  0  0  0  0
  145.4310   68.8330  219.1770 C   0  0  0  0  0  0  0  0  0  0  0  0
  145.9310   67.2370  218.7360 Cl  0  0  0  0  0  0  0  0  0  0  0  0
  146.2810   69.9110  219.0570 C   0  0  0  0  0  0  0  0  0  0  0  0
  145.8960   71.1880  219.4040 C   0  0  0  0  0  0  0  0  0  0  0  0
  142.8380   72.8010  220.8380 C   0  0  0  0  0  0  0  0  0  0  0  0
  140.0280   71.2300  223.5480 C   0  0  0  0  0  0  0  0  0  0  0  0
  139.5350   69.9390  223.6010 C   0  0  0  0  0  0  0  0  0  0  0  0
  139.5510   69.2960  224.8390 C   0  0  0  0  0  0  0  0  0  0  0  0
  140.0430   69.9300  225.9710 C   0  0  0  0  0  0  0  0  0  0  0  0
  140.0780   69.3350  227.2090 C   0  0  0  0  0  0  0  0  0  0  0  0
  140.5760   70.0010  228.3110 C   0  0  0  0  0  0  0  0  0  0  0  0
  141.0490   71.2930  228.1640 C   0  0  0  0  0  0  0  0  0  0  0  0
  141.0300   71.9190  226.9420 C   0  0  0  0  0  0  0  0  0  0  0  0
  140.5220   71.2130  225.8680 C   0  0  0  0  0  0  0  0  0  0  0  0
  140.5080   71.8380  224.6690 N   0  0  0  0  0  0  0  0  0  0  0  0
  139.6040   73.8060  223.1740 H   0  0  0  0  0  0  0  0  0  0  0  0
  139.5239   73.4785  220.1916 H   0  0  0  0  0  0  0  0  0  0  0  0
  139.0270   74.9287  221.1391 H   0  0  0  0  0  0  0  0  0  0  0  0
  142.3302   73.2274  218.2370 H   0  0  0  0  0  0  0  0  0  0  0  0
  142.4769   74.9556  218.3719 H   0  0  0  0  0  0  0  0  0  0  0  0
  144.5961   74.7739  219.5487 H   0  0  0  0  0  0  0  0  0  0  0  0
  145.4380   74.4650  217.8810 H   0  0  0  0  0  0  0  0  0  0  0  0
  145.0427   73.1619  220.9346 H   0  0  0  0  0  0  0  0  0  0  0  0
  142.7608   70.5281  220.3968 H   0  0  0  0  0  0  0  0  0  0  0  0
  143.4533   68.2597  219.7775 H   0  0  0  0  0  0  0  0  0  0  0  0
  147.2984   69.7472  218.6723 H   0  0  0  0  0  0  0  0  0  0  0  0
  146.6145   72.0128  219.2877 H   0  0  0  0  0  0  0  0  0  0  0  0
  142.3448   71.8535  220.5754 H   0  0  0  0  0  0  0  0  0  0  0  0
  142.8532   72.8679  221.9359 H   0  0  0  0  0  0  0  0  0  0  0  0
  139.1455   69.4387  222.7021 H   0  0  0  0  0  0  0  0  0  0  0  0
  139.1668   68.2684  224.9192 H   0  0  0  0  0  0  0  0  0  0  0  0
  139.7018   68.3078  227.3243 H   0  0  0  0  0  0  0  0  0  0  0  0
  140.5966   69.5099  229.2951 H   0  0  0  0  0  0  0  0  0  0  0  0
  141.4464   71.8270  229.0397 H   0  0  0  0  0  0  0  0  0  0  0  0
  141.4057   72.9459  226.8222 H   0  0  0  0  0  0  0  0  0  0  0  0
  1  2  2  0
  2  3  1  0
  3  4  1  0
  4  5  1  0
  5  6  2  0
  5  7  1  0
  7  8  1  0
  8  9  1  0
  9 10  1  0
  9 11  1  0
 11 12  1  0
 12 13  2  0
 13 14  1  0
 14 15  2  0
 15 16  1  0
 15 17  1  0
 17 18  2  0
 11 19  1  0
  2 20  1  0
 20 21  2  0
 21 22  1  0
 22 23  2  0
 23 24  1  0
 24 25  2  0
 25 26  1  0
 26 27  2  0
 27 28  1  0
 28 29  2  0
 19  7  1  0
 29 20  1  0
 18 12  1  0
 28 23  1  0
  3 30  1  0
  4 31  1  0
  4 32  1  0
  8 33  1  0
  8 34  1  0
  9 35  1  1
 10 36  1  0
 11 37  1  1
 13 38  1  0
 14 39  1  0
 17 40  1  0
 18 41  1  0
 19 42  1  0
 19 43  1  0
 21 44  1  0
 22 45  1  0
 24 46  1  0
 25 47  1  0
 26 48  1  0
 27 49  1  0
M  END
>  <smiles>  (39) 
O=C(NCC(=O)N1C[C@H](O)[C@H](c2ccc(Cl)cc2)C1)c1ccc2ccccc2n1

>  <score_type>  (39) 
oracle

>  <origin>  (39) 
autodockgpu

>  <m_score__min__energy>  (39) 
-9.3800000000000008

>  <m_primary>  (39) 
energy

>  <rmsd>  (39) 
3.578212994150079

>  <m_score__min__rmsd>  (39) 
3.578212994150079

>  <meeko>  (39) 
{"free_energy": -8.63, "intermolecular_energy": -10.42, "internal_energy": -1.57, "cluster_size": 11, "cluster_id": 3, "rank_in_cluster": 7}

>  <energy>  (39) 
-8.7

>  <cluster_rmsd>  (39) 
0.12

>  <cluster>  (39) 
3

$$$$

     RDKit          3D

 49 52  0  0  0  0  0  0  0  0999 V2000
  140.4230   71.4410  221.2070 O   0  0  0  0  0  0  0  0  0  0  0  0
  140.1230   72.0040  222.2890 C   0  0  0  0  0  0  0  0  0  0  0  0
  139.8400   73.3880  222.2610 N   0  0  0  0  0  0  0  0  0  0  0  0
  139.8840   74.1760  221.0540 C   0  0  0  0  0  0  0  0  0  0  0  0
  141.2320   74.7650  220.8720 C   0  0  0  0  0  0  0  0  0  0  0  0
  141.5180   75.9370  221.2090 O   0  0  0  0  0  0  0  0  0  0  0  0
  142.2400   73.9510  220.2870 N   0  0  0  0  0  0  0  0  0  0  0  0
  142.8080   74.0560  218.9330 C   0  0  0  0  0  0  0  0  0  0  0  0
  144.2510   73.8660  219.2080 C   0  0  2  0  0  0  0  0  0  0  0  0
  145.0360   73.6620  218.0940 O   0  0  0  0  0  0  0  0  0  0  0  0
  144.3460   72.8690  220.2690 C   0  0  2  0  0  0  0  0  0  0  0  0
  144.7220   71.4940  219.8930 C   0  0  0  0  0  0  0  0  0  0  0  0
  145.9540   71.1370  219.3850 C   0  0  0  0  0  0  0  0  0  0  0  0
  146.2810   69.8350  219.0410 C   0  0  0  0  0  0  0  0  0  0  0  0
  145.3730   68.8100  219.1920 C   0  0  0  0  0  0  0  0  0  0  0  0
  145.7630   67.1780  218.7690 Cl  0  0  0  0  0  0  0  0  0  0  0  0
  144.1350   69.1430  219.6980 C   0  0  0  0  0  0  0  0  0  0  0  0
  143.8110   70.4390  220.0400 C   0  0  0  0  0  0  0  0  0  0  0  0
  142.9600   72.8240  220.8620 C   0  0  0  0  0  0  0  0  0  0  0  0
  140.0560   71.2720  223.5630 C   0  0  0  0  0  0  0  0  0  0  0  0
  139.4740   70.0190  223.6050 C   0  0  0  0  0  0  0  0  0  0  0  0
  139.4370   69.3690  224.8390 C   0  0  0  0  0  0  0  0  0  0  0  0
  139.9650   69.9600  225.9780 C   0  0  0  0  0  0  0  0  0  0  0  0
  139.9510   69.3570  227.2120 C   0  0  0  0  0  0  0  0  0  0  0  0
  140.4870   69.9790  228.3210 C   0  0  0  0  0  0  0  0  0  0  0  0
  141.0500   71.2360  228.1860 C   0  0  0  0  0  0  0  0  0  0  0  0
  141.0830   71.8690  226.9670 C   0  0  0  0  0  0  0  0  0  0  0  0
  140.5330   71.2070  225.8860 C   0  0  0  0  0  0  0  0  0  0  0  0
  140.5700   71.8390  224.6910 N   0  0  0  0  0  0  0  0  0  0  0  0
  139.5920   73.8390  223.1710 H   0  0  0  0  0  0  0  0  0  0  0  0
  139.6496   73.5334  220.1925 H   0  0  0  0  0  0  0  0  0  0  0  0
  139.1463   74.9884  221.1304 H   0  0  0  0  0  0  0  0  0  0  0  0
  142.4174   73.2696  218.2704 H   0  0  0  0  0  0  0  0  0  0  0  0
  142.5681   74.9966  218.4156 H   0  0  0  0  0  0  0  0  0  0  0  0
  144.7035   74.8033  219.5638 H   0  0  0  0  0  0  0  0  0  0  0  0
  145.4210   74.5340  217.8050 H   0  0  0  0  0  0  0  0  0  0  0  0
  145.1660   73.1830  220.9316 H   0  0  0  0  0  0  0  0  0  0  0  0
  146.7118   71.9222  219.2466 H   0  0  0  0  0  0  0  0  0  0  0  0
  147.2820   69.6164  218.6408 H   0  0  0  0  0  0  0  0  0  0  0  0
  143.3831   68.3515  219.8330 H   0  0  0  0  0  0  0  0  0  0  0  0
  142.8084   70.6510  220.4398 H   0  0  0  0  0  0  0  0  0  0  0  0
  142.4626   71.8787  220.5994 H   0  0  0  0  0  0  0  0  0  0  0  0
  142.9898   72.8832  221.9600 H   0  0  0  0  0  0  0  0  0  0  0  0
  139.0562   69.5524  222.7007 H   0  0  0  0  0  0  0  0  0  0  0  0
  138.9812   68.3704  224.9102 H   0  0  0  0  0  0  0  0  0  0  0  0
  139.5034   68.3578  227.3184 H   0  0  0  0  0  0  0  0  0  0  0  0
  140.4670   69.4811  229.3017 H   0  0  0  0  0  0  0  0  0  0  0  0
  141.4775   71.7358  229.0678 H   0  0  0  0  0  0  0  0  0  0  0  0
  141.5313   72.8673  226.8556 H   0  0  0  0  0  0  0  0  0  0  0  0
  1  2  2  0
  2  3  1  0
  3  4  1  0
  4  5  1  0
  5  6  2  0
  5  7  1  0
  7  8  1  0
  8  9  1  0
  9 10  1  0
  9 11  1  0
 11 12  1  0
 12 13  2  0
 13 14  1  0
 14 15  2  0
 15 16  1  0
 15 17  1  0
 17 18  2  0
 11 19  1  0
  2 20  1  0
 20 21  2  0
 21 22  1  0
 22 23  2  0
 23 24  1  0
 24 25  2  0
 25 26  1  0
 26 27  2  0
 27 28  1  0
 28 29  2  0
 19  7  1  0
 29 20  1  0
 18 12  1  0
 28 23  1  0
  3 30  1  0
  4 31  1  0
  4 32  1  0
  8 33  1  0
  8 34  1  0
  9 35  1  1
 10 36  1  0
 11 37  1  1
 13 38  1  0
 14 39  1  0
 17 40  1  0
 18 41  1  0
 19 42  1  0
 19 43  1  0
 21 44  1  0
 22 45  1  0
 24 46  1  0
 25 47  1  0
 26 48  1  0
 27 49  1  0
M  END
>  <smiles>  (40) 
O=C(NCC(=O)N1C[C@H](O)[C@H](c2ccc(Cl)cc2)C1)c1ccc2ccccc2n1

>  <score_type>  (40) 
oracle

>  <origin>  (40) 
autodockgpu

>  <m_score__min__energy>  (40) 
-9.3800000000000008

>  <m_primary>  (40) 
energy

>  <rmsd>  (40) 
3.718678407172412

>  <m_score__min__rmsd>  (40) 
3.718678407172412

>  <meeko>  (40) 
{"free_energy": -8.72, "intermolecular_energy": -10.51, "internal_energy": -1.54, "cluster_size": 11, "cluster_id": 3, "rank_in_cluster": 1}

>  <energy>  (40) 
-8.69

>  <cluster_rmsd>  (40) 
0.09

>  <cluster>  (40) 
3

$$$$

     RDKit          3D

 49 52  0  0  0  0  0  0  0  0999 V2000
  140.2180   73.2630  222.7120 O   0  0  0  0  0  0  0  0  0  0  0  0
  139.5780   72.2500  223.0900 C   0  0  0  0  0  0  0  0  0  0  0  0
  138.4030   71.9050  222.3840 N   0  0  0  0  0  0  0  0  0  0  0  0
  137.9120   72.6590  221.2580 C   0  0  0  0  0  0  0  0  0  0  0  0
  137.2470   73.9000  221.7220 C   0  0  0  0  0  0  0  0  0  0  0  0
  136.0910   73.9200  222.2030 O   0  0  0  0  0  0  0  0  0  0  0  0
  137.9670   75.1220  221.6100 N   0  0  0  0  0  0  0  0  0  0  0  0
  138.6090   75.6820  220.4090 C   0  0  0  0  0  0  0  0  0  0  0  0
  138.2180   77.1070  220.5080 C   0  0  2  0  0  0  0  0  0  0  0  0
  138.8810   77.9560  219.6490 O   0  0  0  0  0  0  0  0  0  0  0  0
  138.2520   77.4510  221.9260 C   0  0  2  0  0  0  0  0  0  0  0  0
  139.4060   78.2250  222.4220 C   0  0  0  0  0  0  0  0  0  0  0  0
  140.6510   77.6870  222.6720 C   0  0  0  0  0  0  0  0  0  0  0  0
  141.7180   78.4390  223.1370 C   0  0  0  0  0  0  0  0  0  0  0  0
  141.5860   79.7900  223.3770 C   0  0  0  0  0  0  0  0  0  0  0  0
  142.9070   80.7450  223.9570 Cl  0  0  0  0  0  0  0  0  0  0  0  0
  140.3500   80.3480  223.1340 C   0  0  0  0  0  0  0  0  0  0  0  0
  139.2890   79.5990  222.6720 C   0  0  0  0  0  0  0  0  0  0  0  0
  138.2500   76.1190  222.6320 C   0  0  0  0  0  0  0  0  0  0  0  0
  140.0120   71.4270  224.2290 C   0  0  0  0  0  0  0  0  0  0  0  0
  141.0180   71.8810  225.0600 C   0  0  0  0  0  0  0  0  0  0  0  0
  141.3910   71.0610  226.1250 C   0  0  0  0  0  0  0  0  0  0  0  0
  140.7730   69.8370  226.3400 C   0  0  0  0  0  0  0  0  0  0  0  0
  141.1080   68.9980  227.3750 C   0  0  0  0  0  0  0  0  0  0  0  0
  140.4690   67.7880  227.5530 C   0  0  0  0  0  0  0  0  0  0  0  0
  139.4700   67.4140  226.6710 C   0  0  0  0  0  0  0  0  0  0  0  0
  139.1090   68.2280  225.6250 C   0  0  0  0  0  0  0  0  0  0  0  0
  139.7780   69.4290  225.4860 C   0  0  0  0  0  0  0  0  0  0  0  0
  139.4150   70.2220  224.4530 N   0  0  0  0  0  0  0  0  0  0  0  0
  137.8850   71.0580  222.7140 H   0  0  0  0  0  0  0  0  0  0  0  0
  138.7548   72.9222  220.6019 H   0  0  0  0  0  0  0  0  0  0  0  0
  137.1833   72.0465  220.7069 H   0  0  0  0  0  0  0  0  0  0  0  0
  139.7018   75.5611  220.4432 H   0  0  0  0  0  0  0  0  0  0  0  0
  138.3071   75.1965  219.4692 H   0  0  0  0  0  0  0  0  0  0  0  0
  137.1943   77.2539  220.1334 H   0  0  0  0  0  0  0  0  0  0  0  0
  139.4310   77.4140  219.0190 H   0  0  0  0  0  0  0  0  0  0  0  0
  137.3995   78.1202  222.1140 H   0  0  0  0  0  0  0  0  0  0  0  0
  140.8040   76.6123  222.4942 H   0  0  0  0  0  0  0  0  0  0  0  0
  142.6865   77.9497  223.3176 H   0  0  0  0  0  0  0  0  0  0  0  0
  140.2055   81.4235  223.3141 H   0  0  0  0  0  0  0  0  0  0  0  0
  138.3228   80.0939  222.4945 H   0  0  0  0  0  0  0  0  0  0  0  0
  139.2316   75.9282  223.0903 H   0  0  0  0  0  0  0  0  0  0  0  0
  137.5021   76.0922  223.4382 H   0  0  0  0  0  0  0  0  0  0  0  0
  141.5061   72.8517  224.8884 H   0  0  0  0  0  0  0  0  0  0  0  0
  142.1891   71.3903  226.8066 H   0  0  0  0  0  0  0  0  0  0  0  0
  141.9015   69.2968  228.0758 H   0  0  0  0  0  0  0  0  0  0  0  0
  140.7504   67.1279  228.3867 H   0  0  0  0  0  0  0  0  0  0  0  0
  138.9575   66.4506  226.8097 H   0  0  0  0  0  0  0  0  0  0  0  0
  138.3151   67.9340  224.9226 H   0  0  0  0  0  0  0  0  0  0  0  0
  1  2  2  0
  2  3  1  0
  3  4  1  0
  4  5  1  0
  5  6  2  0
  5  7  1  0
  7  8  1  0
  8  9  1  0
  9 10  1  0
  9 11  1  0
 11 12  1  0
 12 13  2  0
 13 14  1  0
 14 15  2  0
 15 16  1  0
 15 17  1  0
 17 18  2  0
 11 19  1  0
  2 20  1  0
 20 21  2  0
 21 22  1  0
 22 23  2  0
 23 24  1  0
 24 25  2  0
 25 26  1  0
 26 27  2  0
 27 28  1  0
 28 29  2  0
 19  7  1  0
 29 20  1  0
 18 12  1  0
 28 23  1  0
  3 30  1  0
  4 31  1  0
  4 32  1  0
  8 33  1  0
  8 34  1  0
  9 35  1  6
 10 36  1  0
 11 37  1  1
 13 38  1  0
 14 39  1  0
 17 40  1  0
 18 41  1  0
 19 42  1  0
 19 43  1  0
 21 44  1  0
 22 45  1  0
 24 46  1  0
 25 47  1  0
 26 48  1  0
 27 49  1  0
M  END
>  <smiles>  (41) 
O=C(NCC(=O)N1C[C@H](O)[C@H](c2ccc(Cl)cc2)C1)c1ccc2ccccc2n1

>  <score_type>  (41) 
oracle

>  <origin>  (41) 
autodockgpu

>  <m_score__min__energy>  (41) 
-9.3800000000000008

>  <m_primary>  (41) 
energy

>  <rmsd>  (41) 
3.695658951149999

>  <m_score__min__rmsd>  (41) 
3.695658951149999

>  <meeko>  (41) 
{"free_energy": -7.71, "intermolecular_energy": -9.5, "internal_energy": -1.63, "cluster_size": 10, "cluster_id": 2, "rank_in_cluster": 10}

>  <energy>  (41) 
-8.67

>  <cluster_rmsd>  (41) 
0.1

>  <cluster>  (41) 
3

$$$$

     RDKit          3D

 49 52  0  0  0  0  0  0  0  0999 V2000
  139.5100   70.5030  221.2820 O   0  0  0  0  0  0  0  0  0  0  0  0
  139.4400   71.1620  222.3490 C   0  0  0  0  0  0  0  0  0  0  0  0
  139.1910   72.5500  222.2570 N   0  0  0  0  0  0  0  0  0  0  0  0
  139.0170   73.2370  221.0010 C   0  0  0  0  0  0  0  0  0  0  0  0
  140.3310   73.4610  220.3520 C   0  0  0  0  0  0  0  0  0  0  0  0
  140.9070   72.5960  219.6540 O   0  0  0  0  0  0  0  0  0  0  0  0
  140.9560   74.7260  220.5360 N   0  0  0  0  0  0  0  0  0  0  0  0
  142.3500   75.0930  220.2390 C   0  0  0  0  0  0  0  0  0  0  0  0
  142.1730   76.4190  219.6040 C   0  0  2  0  0  0  0  0  0  0  0  0
  143.3320   77.1450  219.4340 O   0  0  0  0  0  0  0  0  0  0  0  0
  141.0840   77.0800  220.3170 C   0  0  2  0  0  0  0  0  0  0  0  0
  141.4330   78.1240  221.2970 C   0  0  0  0  0  0  0  0  0  0  0  0
  141.3920   77.9500  222.6650 C   0  0  0  0  0  0  0  0  0  0  0  0
  141.7270   78.9490  223.5640 C   0  0  0  0  0  0  0  0  0  0  0  0
  142.1270   80.1940  223.1280 C   0  0  0  0  0  0  0  0  0  0  0  0
  142.5490   81.4550  224.2340 Cl  0  0  0  0  0  0  0  0  0  0  0  0
  142.1750   80.3910  221.7640 C   0  0  0  0  0  0  0  0  0  0  0  0
  141.8420   79.3960  220.8710 C   0  0  0  0  0  0  0  0  0  0  0  0
  140.3910   75.9630  221.0560 C   0  0  0  0  0  0  0  0  0  0  0  0
  139.6050   70.5380  223.6700 C   0  0  0  0  0  0  0  0  0  0  0  0
  139.1990   69.2320  223.8670 C   0  0  0  0  0  0  0  0  0  0  0  0
  139.3790   68.6880  225.1400 C   0  0  0  0  0  0  0  0  0  0  0  0
  139.9450   69.4320  226.1650 C   0  0  0  0  0  0  0  0  0  0  0  0
  140.1410   68.9370  227.4320 C   0  0  0  0  0  0  0  0  0  0  0  0
  140.7070   69.7110  228.4240 C   0  0  0  0  0  0  0  0  0  0  0  0
  141.0840   71.0110  228.1360 C   0  0  0  0  0  0  0  0  0  0  0  0
  140.9040   71.5390  226.8810 C   0  0  0  0  0  0  0  0  0  0  0  0
  140.3320   70.7260  225.9200 C   0  0  0  0  0  0  0  0  0  0  0  0
  140.1590   71.2550  224.6880 N   0  0  0  0  0  0  0  0  0  0  0  0
  139.1360   73.0820  223.1560 H   0  0  0  0  0  0  0  0  0  0  0  0
  138.3840   72.6281  220.3387 H   0  0  0  0  0  0  0  0  0  0  0  0
  138.5392   74.2100  221.1880 H   0  0  0  0  0  0  0  0  0  0  0  0
  142.9520   75.1634  221.1569 H   0  0  0  0  0  0  0  0  0  0  0  0
  142.8844   74.3624  219.6140 H   0  0  0  0  0  0  0  0  0  0  0  0
  141.8875   76.3070  218.5476 H   0  0  0  0  0  0  0  0  0  0  0  0
  143.7270   77.3370  220.3280 H   0  0  0  0  0  0  0  0  0  0  0  0
  140.4946   77.6265  219.5661 H   0  0  0  0  0  0  0  0  0  0  0  0
  141.0787   76.9724  223.0601 H   0  0  0  0  0  0  0  0  0  0  0  0
  141.6730   78.7455  224.6437 H   0  0  0  0  0  0  0  0  0  0  0  0
  142.4886   81.3719  221.3773 H   0  0  0  0  0  0  0  0  0  0  0  0
  141.8986   79.6054  219.7926 H   0  0  0  0  0  0  0  0  0  0  0  0
  140.5799   76.0448  222.1366 H   0  0  0  0  0  0  0  0  0  0  0  0
  139.3012   75.9999  220.9115 H   0  0  0  0  0  0  0  0  0  0  0  0
  138.7513   68.6438  223.0524 H   0  0  0  0  0  0  0  0  0  0  0  0
  139.0665   67.6513  225.3337 H   0  0  0  0  0  0  0  0  0  0  0  0
  139.8408   67.9035  227.6596 H   0  0  0  0  0  0  0  0  0  0  0  0
  140.8570   69.2992  229.4329 H   0  0  0  0  0  0  0  0  0  0  0  0
  141.5349   71.6312  228.9247 H   0  0  0  0  0  0  0  0  0  0  0  0
  141.2041   72.5715  226.6487 H   0  0  0  0  0  0  0  0  0  0  0  0
  1  2  2  0
  2  3  1  0
  3  4  1  0
  4  5  1  0
  5  6  2  0
  5  7  1  0
  7  8  1  0
  8  9  1  0
  9 10  1  0
  9 11  1  0
 11 12  1  0
 12 13  2  0
 13 14  1  0
 14 15  2  0
 15 16  1  0
 15 17  1  0
 17 18  2  0
 11 19  1  0
  2 20  1  0
 20 21  2  0
 21 22  1  0
 22 23  2  0
 23 24  1  0
 24 25  2  0
 25 26  1  0
 26 27  2  0
 27 28  1  0
 28 29  2  0
 19  7  1  0
 29 20  1  0
 18 12  1  0
 28 23  1  0
  3 30  1  0
  4 31  1  0
  4 32  1  0
  8 33  1  0
  8 34  1  0
  9 35  1  6
 10 36  1  0
 11 37  1  6
 13 38  1  0
 14 39  1  0
 17 40  1  0
 18 41  1  0
 19 42  1  0
 19 43  1  0
 21 44  1  0
 22 45  1  0
 24 46  1  0
 25 47  1  0
 26 48  1  0
 27 49  1  0
M  END
>  <smiles>  (42) 
O=C(NCC(=O)N1C[C@H](O)[C@H](c2ccc(Cl)cc2)C1)c1ccc2ccccc2n1

>  <score_type>  (42) 
oracle

>  <origin>  (42) 
autodockgpu

>  <m_score__min__energy>  (42) 
-9.3800000000000008

>  <m_primary>  (42) 
energy

>  <rmsd>  (42) 
2.229652150842063

>  <m_score__min__rmsd>  (42) 
2.229652150842063

>  <meeko>  (42) 
{"free_energy": -9.17, "intermolecular_energy": -10.96, "internal_energy": -1.3, "cluster_size": 26, "cluster_id": 1, "rank_in_cluster": 4}

>  <energy>  (42) 
-8.64

>  <cluster_rmsd>  (42) 
0.11

>  <cluster>  (42) 
3

$$$$

     RDKit          3D

 49 52  0  0  0  0  0  0  0  0999 V2000
  139.9520   73.2540  222.8340 O   0  0  0  0  0  0  0  0  0  0  0  0
  140.3110   72.0520  222.9110 C   0  0  0  0  0  0  0  0  0  0  0  0
  140.7150   71.4030  221.7220 N   0  0  0  0  0  0  0  0  0  0  0  0
  140.7320   72.0550  220.4370 C   0  0  0  0  0  0  0  0  0  0  0  0
  142.0640   72.6520  220.1800 C   0  0  0  0  0  0  0  0  0  0  0  0
  143.0780   71.9720  219.9000 O   0  0  0  0  0  0  0  0  0  0  0  0
  142.1840   74.0670  220.2610 N   0  0  0  0  0  0  0  0  0  0  0  0
  143.2900   74.9060  219.7710 C   0  0  0  0  0  0  0  0  0  0  0  0
  142.5500   76.0280  219.1480 C   0  0  2  0  0  0  0  0  0  0  0  0
  143.3200   77.1200  218.8110 O   0  0  0  0  0  0  0  0  0  0  0  0
  141.3880   76.2810  219.9930 C   0  0  2  0  0  0  0  0  0  0  0  0
  141.4340   77.4410  220.9030 C   0  0  0  0  0  0  0  0  0  0  0  0
  141.7930   78.7160  220.5170 C   0  0  0  0  0  0  0  0  0  0  0  0
  141.8270   79.7880  221.3940 C   0  0  0  0  0  0  0  0  0  0  0  0
  141.4960   79.6320  222.7230 C   0  0  0  0  0  0  0  0  0  0  0  0
  141.5320   80.9590  223.8330 Cl  0  0  0  0  0  0  0  0  0  0  0  0
  141.1340   78.3660  223.1300 C   0  0  0  0  0  0  0  0  0  0  0  0
  141.1010   77.2990  222.2570 C   0  0  0  0  0  0  0  0  0  0  0  0
  141.2630   75.0360  220.8360 C   0  0  0  0  0  0  0  0  0  0  0  0
  140.3230   71.3160  224.1840 C   0  0  0  0  0  0  0  0  0  0  0  0
  140.7670   71.9400  225.3340 C   0  0  0  0  0  0  0  0  0  0  0  0
  140.7580   71.1960  226.5140 C   0  0  0  0  0  0  0  0  0  0  0  0
  140.3180   69.8810  226.5300 C   0  0  0  0  0  0  0  0  0  0  0  0
  140.2910   69.1110  227.6670 C   0  0  0  0  0  0  0  0  0  0  0  0
  139.8470   67.8050  227.6400 C   0  0  0  0  0  0  0  0  0  0  0  0
  139.4190   67.2610  226.4420 C   0  0  0  0  0  0  0  0  0  0  0  0
  139.4320   68.0000  225.2840 C   0  0  0  0  0  0  0  0  0  0  0  0
  139.8860   69.3030  225.3610 C   0  0  0  0  0  0  0  0  0  0  0  0
  139.8940   70.0230  224.2160 N   0  0  0  0  0  0  0  0  0  0  0  0
  141.0100   70.4030  221.8070 H   0  0  0  0  0  0  0  0  0  0  0  0
  140.5078   71.3170  219.6527 H   0  0  0  0  0  0  0  0  0  0  0  0
  139.9752   72.8533  220.4311 H   0  0  0  0  0  0  0  0  0  0  0  0
  143.9279   75.2538  220.5969 H   0  0  0  0  0  0  0  0  0  0  0  0
  143.9801   74.3879  219.0888 H   0  0  0  0  0  0  0  0  0  0  0  0
  142.2014   75.7504  218.1423 H   0  0  0  0  0  0  0  0  0  0  0  0
  143.7540   77.4760  219.6340 H   0  0  0  0  0  0  0  0  0  0  0  0
  140.5498   76.5198  219.3218 H   0  0  0  0  0  0  0  0  0  0  0  0
  142.0645   78.8893  219.4652 H   0  0  0  0  0  0  0  0  0  0  0  0
  142.1231   80.7805  221.0235 H   0  0  0  0  0  0  0  0  0  0  0  0
  140.8631   78.2016  224.1834 H   0  0  0  0  0  0  0  0  0  0  0  0
  140.8051   76.3088  222.6338 H   0  0  0  0  0  0  0  0  0  0  0  0
  141.5376   75.2518  221.8791 H   0  0  0  0  0  0  0  0  0  0  0  0
  140.2308   74.6559  220.8420 H   0  0  0  0  0  0  0  0  0  0  0  0
  141.1143   72.9836  225.3196 H   0  0  0  0  0  0  0  0  0  0  0  0
  141.1061   71.6606  227.4483 H   0  0  0  0  0  0  0  0  0  0  0  0
  140.6305   69.5447  228.6192 H   0  0  0  0  0  0  0  0  0  0  0  0
  139.8334   67.2030  228.5606 H   0  0  0  0  0  0  0  0  0  0  0  0
  139.0628   66.2206  226.4164 H   0  0  0  0  0  0  0  0  0  0  0  0
  139.0933   67.5701  224.3298 H   0  0  0  0  0  0  0  0  0  0  0  0
  1  2  2  0
  2  3  1  0
  3  4  1  0
  4  5  1  0
  5  6  2  0
  5  7  1  0
  7  8  1  0
  8  9  1  0
  9 10  1  0
  9 11  1  0
 11 12  1  0
 12 13  2  0
 13 14  1  0
 14 15  2  0
 15 16  1  0
 15 17  1  0
 17 18  2  0
 11 19  1  0
  2 20  1  0
 20 21  2  0
 21 22  1  0
 22 23  2  0
 23 24  1  0
 24 25  2  0
 25 26  1  0
 26 27  2  0
 27 28  1  0
 28 29  2  0
 19  7  1  0
 29 20  1  0
 18 12  1  0
 28 23  1  0
  3 30  1  0
  4 31  1  0
  4 32  1  0
  8 33  1  0
  8 34  1  0
  9 35  1  6
 10 36  1  0
 11 37  1  6
 13 38  1  0
 14 39  1  0
 17 40  1  0
 18 41  1  0
 19 42  1  0
 19 43  1  0
 21 44  1  0
 22 45  1  0
 24 46  1  0
 25 47  1  0
 26 48  1  0
 27 49  1  0
M  END
>  <smiles>  (43) 
O=C(NCC(=O)N1C[C@H](O)[C@H](c2ccc(Cl)cc2)C1)c1ccc2ccccc2n1

>  <score_type>  (43) 
oracle

>  <origin>  (43) 
autodockgpu

>  <m_score__min__energy>  (43) 
-9.3800000000000008

>  <m_primary>  (43) 
energy

>  <rmsd>  (43) 
3.395836798684627

>  <m_score__min__rmsd>  (43) 
3.395836798684627

>  <meeko>  (43) 
{"free_energy": -8.74, "intermolecular_energy": -10.53, "internal_energy": -1.35, "cluster_size": 26, "cluster_id": 1, "rank_in_cluster": 15}

>  <energy>  (43) 
-8.63

>  <cluster_rmsd>  (43) 
0.11

>  <cluster>  (43) 
3

$$$$

     RDKit          3D

 49 52  0  0  0  0  0  0  0  0999 V2000
  139.4010   70.4860  221.1340 O   0  0  0  0  0  0  0  0  0  0  0  0
  139.9160   71.1360  222.0780 C   0  0  0  0  0  0  0  0  0  0  0  0
  140.5590   72.3570  221.7700 N   0  0  0  0  0  0  0  0  0  0  0  0
  140.6480   72.8830  220.4310 C   0  0  0  0  0  0  0  0  0  0  0  0
  141.9850   73.4810  220.2020 C   0  0  0  0  0  0  0  0  0  0  0  0
  142.9990   72.8040  219.9180 O   0  0  0  0  0  0  0  0  0  0  0  0
  142.1090   74.8940  220.3120 N   0  0  0  0  0  0  0  0  0  0  0  0
  143.0490   75.7740  219.6000 C   0  0  0  0  0  0  0  0  0  0  0  0
  142.1670   76.9050  219.2310 C   0  0  2  0  0  0  0  0  0  0  0  0
  142.8180   78.0250  218.7620 O   0  0  0  0  0  0  0  0  0  0  0  0
  141.2510   77.1010  220.3500 C   0  0  2  0  0  0  0  0  0  0  0  0
  141.5120   78.2230  221.2700 C   0  0  0  0  0  0  0  0  0  0  0  0
  141.8190   79.5050  220.8620 C   0  0  0  0  0  0  0  0  0  0  0  0
  142.0600   80.5420  221.7500 C   0  0  0  0  0  0  0  0  0  0  0  0
  142.0020   80.3410  223.1120 C   0  0  0  0  0  0  0  0  0  0  0  0
  142.2990   81.6230  224.2350 Cl  0  0  0  0  0  0  0  0  0  0  0  0
  141.6970   79.0670  223.5410 C   0  0  0  0  0  0  0  0  0  0  0  0
  141.4580   78.0360  222.6580 C   0  0  0  0  0  0  0  0  0  0  0  0
  141.3510   75.8200  221.1410 C   0  0  0  0  0  0  0  0  0  0  0  0
  139.8680   70.6690  223.4720 C   0  0  0  0  0  0  0  0  0  0  0  0
  139.2210   69.4870  223.7770 C   0  0  0  0  0  0  0  0  0  0  0  0
  139.2050   69.0900  225.1150 C   0  0  0  0  0  0  0  0  0  0  0  0
  139.8180   69.8540  226.0980 C   0  0  0  0  0  0  0  0  0  0  0  0
  139.8280   69.5020  227.4250 C   0  0  0  0  0  0  0  0  0  0  0  0
  140.4480   70.2900  228.3730 C   0  0  0  0  0  0  0  0  0  0  0  0
  141.0740   71.4590  227.9750 C   0  0  0  0  0  0  0  0  0  0  0  0
  141.0840   71.8430  226.6560 C   0  0  0  0  0  0  0  0  0  0  0  0
  140.4490   71.0210  225.7440 C   0  0  0  0  0  0  0  0  0  0  0  0
  140.4660   71.4080  224.4490 N   0  0  0  0  0  0  0  0  0  0  0  0
  140.9810   72.8830  222.5690 H   0  0  0  0  0  0  0  0  0  0  0  0
  140.4861   72.0686  219.7095 H   0  0  0  0  0  0  0  0  0  0  0  0
  139.8807   73.6602  220.2997 H   0  0  0  0  0  0  0  0  0  0  0  0
  143.8696   76.1008  220.2556 H   0  0  0  0  0  0  0  0  0  0  0  0
  143.5516   75.2979  218.7452 H   0  0  0  0  0  0  0  0  0  0  0  0
  141.5813   76.6609  218.3325 H   0  0  0  0  0  0  0  0  0  0  0  0
  143.6870   78.1190  219.2400 H   0  0  0  0  0  0  0  0  0  0  0  0
  140.2699   77.3513  219.9203 H   0  0  0  0  0  0  0  0  0  0  0  0
  141.8750   79.7136  219.7834 H   0  0  0  0  0  0  0  0  0  0  0  0
  142.3016   81.5421  221.3608 H   0  0  0  0  0  0  0  0  0  0  0  0
  141.6427   78.8670  224.6213 H   0  0  0  0  0  0  0  0  0  0  0  0
  141.2181   77.0381  223.0539 H   0  0  0  0  0  0  0  0  0  0  0  0
  141.8745   75.9980  222.0919 H   0  0  0  0  0  0  0  0  0  0  0  0
  140.3563   75.4194  221.3861 H   0  0  0  0  0  0  0  0  0  0  0  0
  138.7373   68.8823  222.9957 H   0  0  0  0  0  0  0  0  0  0  0  0
  138.6976   68.1551  225.3952 H   0  0  0  0  0  0  0  0  0  0  0  0
  139.3313   68.5722  227.7391 H   0  0  0  0  0  0  0  0  0  0  0  0
  140.4449   69.9930  229.4321 H   0  0  0  0  0  0  0  0  0  0  0  0
  141.5710   72.0900  228.7265 H   0  0  0  0  0  0  0  0  0  0  0  0
  141.5797   72.7717  226.3370 H   0  0  0  0  0  0  0  0  0  0  0  0
  1  2  2  0
  2  3  1  0
  3  4  1  0
  4  5  1  0
  5  6  2  0
  5  7  1  0
  7  8  1  0
  8  9  1  0
  9 10  1  0
  9 11  1  0
 11 12  1  0
 12 13  2  0
 13 14  1  0
 14 15  2  0
 15 16  1  0
 15 17  1  0
 17 18  2  0
 11 19  1  0
  2 20  1  0
 20 21  2  0
 21 22  1  0
 22 23  2  0
 23 24  1  0
 24 25  2  0
 25 26  1  0
 26 27  2  0
 27 28  1  0
 28 29  2  0
 19  7  1  0
 29 20  1  0
 18 12  1  0
 28 23  1  0
  3 30  1  0
  4 31  1  0
  4 32  1  0
  8 33  1  0
  8 34  1  0
  9 35  1  6
 10 36  1  0
 11 37  1  6
 13 38  1  0
 14 39  1  0
 17 40  1  0
 18 41  1  0
 19 42  1  0
 19 43  1  0
 21 44  1  0
 22 45  1  0
 24 46  1  0
 25 47  1  0
 26 48  1  0
 27 49  1  0
M  END
>  <smiles>  (44) 
O=C(NCC(=O)N1C[C@H](O)[C@H](c2ccc(Cl)cc2)C1)c1ccc2ccccc2n1

>  <score_type>  (44) 
oracle

>  <origin>  (44) 
autodockgpu

>  <m_score__min__energy>  (44) 
-9.3800000000000008

>  <m_primary>  (44) 
energy

>  <rmsd>  (44) 
2.545836142244319

>  <m_score__min__rmsd>  (44) 
2.545836142244319

>  <meeko>  (44) 
{"free_energy": -8.77, "intermolecular_energy": -10.55, "internal_energy": -1.31, "cluster_size": 26, "cluster_id": 1, "rank_in_cluster": 13}

>  <energy>  (44) 
-8.62

>  <cluster_rmsd>  (44) 
0.16

>  <cluster>  (44) 
3

$$$$

     RDKit          3D

 49 52  0  0  0  0  0  0  0  0999 V2000
  139.1820   70.6010  221.2850 O   0  0  0  0  0  0  0  0  0  0  0  0
  139.2410   71.2930  222.3320 C   0  0  0  0  0  0  0  0  0  0  0  0
  139.0180   72.6850  222.2210 N   0  0  0  0  0  0  0  0  0  0  0  0
  138.7280   73.3380  220.9690 C   0  0  0  0  0  0  0  0  0  0  0  0
  139.9780   73.5570  220.2020 C   0  0  0  0  0  0  0  0  0  0  0  0
  140.4030   72.7560  219.3390 O   0  0  0  0  0  0  0  0  0  0  0  0
  140.7220   74.7400  220.4700 N   0  0  0  0  0  0  0  0  0  0  0  0
  142.1850   74.9060  220.4580 C   0  0  0  0  0  0  0  0  0  0  0  0
  142.3250   76.2010  219.7540 C   0  0  2  0  0  0  0  0  0  0  0  0
  143.5830   76.7610  219.8040 O   0  0  0  0  0  0  0  0  0  0  0  0
  141.2170   77.0400  220.1990 C   0  0  2  0  0  0  0  0  0  0  0  0
  141.5020   78.0900  221.1940 C   0  0  0  0  0  0  0  0  0  0  0  0
  141.4400   77.9040  222.5590 C   0  0  0  0  0  0  0  0  0  0  0  0
  141.7140   78.9100  223.4720 C   0  0  0  0  0  0  0  0  0  0  0  0
  142.0700   80.1740  223.0530 C   0  0  0  0  0  0  0  0  0  0  0  0
  142.4160   81.4420  224.1770 Cl  0  0  0  0  0  0  0  0  0  0  0  0
  142.1380   80.3830  221.6920 C   0  0  0  0  0  0  0  0  0  0  0  0
  141.8650   79.3810  220.7850 C   0  0  0  0  0  0  0  0  0  0  0  0
  140.2410   76.0690  220.8160 C   0  0  0  0  0  0  0  0  0  0  0  0
  139.5300   70.7050  223.6480 C   0  0  0  0  0  0  0  0  0  0  0  0
  139.2510   69.3710  223.8790 C   0  0  0  0  0  0  0  0  0  0  0  0
  139.5450   68.8630  225.1450 C   0  0  0  0  0  0  0  0  0  0  0  0
  140.0970   69.6680  226.1320 C   0  0  0  0  0  0  0  0  0  0  0  0
  140.4020   69.2110  227.3900 C   0  0  0  0  0  0  0  0  0  0  0  0
  140.9500   70.0450  228.3440 C   0  0  0  0  0  0  0  0  0  0  0  0
  141.1960   71.3690  228.0230 C   0  0  0  0  0  0  0  0  0  0  0  0
  140.9040   71.8610  226.7750 C   0  0  0  0  0  0  0  0  0  0  0  0
  140.3560   70.9880  225.8540 C   0  0  0  0  0  0  0  0  0  0  0  0
  140.0720   71.4820  224.6270 N   0  0  0  0  0  0  0  0  0  0  0  0
  139.0700   73.2440  223.1030 H   0  0  0  0  0  0  0  0  0  0  0  0
  138.0464   72.7069  220.3798 H   0  0  0  0  0  0  0  0  0  0  0  0
  138.2579   74.3113  221.1732 H   0  0  0  0  0  0  0  0  0  0  0  0
  142.5928   74.9563  221.4784 H   0  0  0  0  0  0  0  0  0  0  0  0
  142.7285   74.0751  219.9845 H   0  0  0  0  0  0  0  0  0  0  0  0
  142.2462   76.0589  218.6661 H   0  0  0  0  0  0  0  0  0  0  0  0
  144.1190   76.4200  219.0370 H   0  0  0  0  0  0  0  0  0  0  0  0
  140.8732   77.6095  219.3230 H   0  0  0  0  0  0  0  0  0  0  0  0
  141.1601   76.9111  222.9409 H   0  0  0  0  0  0  0  0  0  0  0  0
  141.6463   78.6962  224.5489 H   0  0  0  0  0  0  0  0  0  0  0  0
  142.4184   81.3789  221.3185 H   0  0  0  0  0  0  0  0  0  0  0  0
  141.9340   79.6009  219.7094 H   0  0  0  0  0  0  0  0  0  0  0  0
  140.2170   76.1940  221.9086 H   0  0  0  0  0  0  0  0  0  0  0  0
  139.2189   76.2359  220.4453 H   0  0  0  0  0  0  0  0  0  0  0  0
  138.8142   68.7346  223.0953 H   0  0  0  0  0  0  0  0  0  0  0  0
  139.3356   67.8057  225.3648 H   0  0  0  0  0  0  0  0  0  0  0  0
  140.2057   68.1587  227.6431 H   0  0  0  0  0  0  0  0  0  0  0  0
  141.1883   69.6620  229.3473 H   0  0  0  0  0  0  0  0  0  0  0  0
  141.6323   72.0374  228.7799 H   0  0  0  0  0  0  0  0  0  0  0  0
  141.0992   72.9124  226.5172 H   0  0  0  0  0  0  0  0  0  0  0  0
  1  2  2  0
  2  3  1  0
  3  4  1  0
  4  5  1  0
  5  6  2  0
  5  7  1  0
  7  8  1  0
  8  9  1  0
  9 10  1  0
  9 11  1  0
 11 12  1  0
 12 13  2  0
 13 14  1  0
 14 15  2  0
 15 16  1  0
 15 17  1  0
 17 18  2  0
 11 19  1  0
  2 20  1  0
 20 21  2  0
 21 22  1  0
 22 23  2  0
 23 24  1  0
 24 25  2  0
 25 26  1  0
 26 27  2  0
 27 28  1  0
 28 29  2  0
 19  7  1  0
 29 20  1  0
 18 12  1  0
 28 23  1  0
  3 30  1  0
  4 31  1  0
  4 32  1  0
  8 33  1  0
  8 34  1  0
  9 35  1  6
 10 36  1  0
 11 37  1  6
 13 38  1  0
 14 39  1  0
 17 40  1  0
 18 41  1  0
 19 42  1  0
 19 43  1  0
 21 44  1  0
 22 45  1  0
 24 46  1  0
 25 47  1  0
 26 48  1  0
 27 49  1  0
M  END
>  <smiles>  (45) 
O=C(NCC(=O)N1C[C@H](O)[C@H](c2ccc(Cl)cc2)C1)c1ccc2ccccc2n1

>  <score_type>  (45) 
oracle

>  <origin>  (45) 
autodockgpu

>  <m_score__min__energy>  (45) 
-9.3800000000000008

>  <m_primary>  (45) 
energy

>  <rmsd>  (45) 
2.143740720917837

>  <m_score__min__rmsd>  (45) 
2.143740720917837

>  <meeko>  (45) 
{"free_energy": -8.62, "intermolecular_energy": -10.41, "internal_energy": -1.37, "cluster_size": 26, "cluster_id": 1, "rank_in_cluster": 17}

>  <energy>  (45) 
-8.39

>  <cluster_rmsd>  (45) 
0.31

>  <cluster>  (45) 
3

$$$$

     RDKit          3D

 49 52  0  0  0  0  0  0  0  0999 V2000
  137.7870   70.1320  221.9000 O   0  0  0  0  0  0  0  0  0  0  0  0
  138.2050   70.8830  222.8160 C   0  0  0  0  0  0  0  0  0  0  0  0
  138.0590   72.2790  222.6480 N   0  0  0  0  0  0  0  0  0  0  0  0
  137.4570   72.8730  221.4800 C   0  0  0  0  0  0  0  0  0  0  0  0
  137.2870   74.3330  221.6750 C   0  0  0  0  0  0  0  0  0  0  0  0
  136.1680   74.8870  221.7580 O   0  0  0  0  0  0  0  0  0  0  0  0
  138.4610   75.1310  221.7700 N   0  0  0  0  0  0  0  0  0  0  0  0
  139.8460   74.6760  221.9680 C   0  0  0  0  0  0  0  0  0  0  0  0
  140.5740   75.5350  221.0060 C   0  0  2  0  0  0  0  0  0  0  0  0
  141.9470   75.5220  221.1330 O   0  0  0  0  0  0  0  0  0  0  0  0
  139.9260   76.8420  221.0400 C   0  0  2  0  0  0  0  0  0  0  0  0
  140.5930   77.9250  221.7850 C   0  0  0  0  0  0  0  0  0  0  0  0
  141.7120   78.5980  221.3400 C   0  0  0  0  0  0  0  0  0  0  0  0
  142.3190   79.6150  222.0610 C   0  0  0  0  0  0  0  0  0  0  0  0
  141.8240   80.0120  223.2840 C   0  0  0  0  0  0  0  0  0  0  0  0
  142.5670   81.2790  224.1990 Cl  0  0  0  0  0  0  0  0  0  0  0  0
  140.7060   79.3530  223.7480 C   0  0  0  0  0  0  0  0  0  0  0  0
  140.1030   78.3420  223.0300 C   0  0  0  0  0  0  0  0  0  0  0  0
  138.5940   76.5790  221.6980 C   0  0  0  0  0  0  0  0  0  0  0  0
  138.8300   70.3580  224.0390 C   0  0  0  0  0  0  0  0  0  0  0  0
  138.8130   68.9990  224.2890 C   0  0  0  0  0  0  0  0  0  0  0  0
  139.4200   68.5540  225.4630 C   0  0  0  0  0  0  0  0  0  0  0  0
  140.0180   69.4430  226.3440 C   0  0  0  0  0  0  0  0  0  0  0  0
  140.6270   69.0500  227.5110 C   0  0  0  0  0  0  0  0  0  0  0  0
  141.2100   69.9680  228.3610 C   0  0  0  0  0  0  0  0  0  0  0  0
  141.1800   71.3110  228.0300 C   0  0  0  0  0  0  0  0  0  0  0  0
  140.5800   71.7410  226.8710 C   0  0  0  0  0  0  0  0  0  0  0  0
  140.0090   70.7850  226.0520 C   0  0  0  0  0  0  0  0  0  0  0  0
  139.4210   71.2190  224.9140 N   0  0  0  0  0  0  0  0  0  0  0  0
  138.4120   72.8880  223.4220 H   0  0  0  0  0  0  0  0  0  0  0  0
  138.1043   72.6962  220.6084 H   0  0  0  0  0  0  0  0  0  0  0  0
  136.4698   72.4167  221.3148 H   0  0  0  0  0  0  0  0  0  0  0  0
  140.1838   74.8513  223.0001 H   0  0  0  0  0  0  0  0  0  0  0  0
  139.9928   73.5974  221.8095 H   0  0  0  0  0  0  0  0  0  0  0  0
  140.4940   75.1273  219.9875 H   0  0  0  0  0  0  0  0  0  0  0  0
  142.2020   76.0450  221.9410 H   0  0  0  0  0  0  0  0  0  0  0  0
  139.9105   77.2193  220.0068 H   0  0  0  0  0  0  0  0  0  0  0  0
  142.1426   78.3147  220.3682 H   0  0  0  0  0  0  0  0  0  0  0  0
  143.2098   80.1127  221.6501 H   0  0  0  0  0  0  0  0  0  0  0  0
  140.2818   79.6424  224.7208 H   0  0  0  0  0  0  0  0  0  0  0  0
  139.2122   77.8488  223.4462 H   0  0  0  0  0  0  0  0  0  0  0  0
  138.5736   77.0154  222.7075 H   0  0  0  0  0  0  0  0  0  0  0  0
  137.7677   77.0318  221.1303 H   0  0  0  0  0  0  0  0  0  0  0  0
  138.3389   68.2953  223.5889 H   0  0  0  0  0  0  0  0  0  0  0  0
  139.4246   67.4787  225.6946 H   0  0  0  0  0  0  0  0  0  0  0  0
  140.6505   67.9820  227.7734 H   0  0  0  0  0  0  0  0  0  0  0  0
  141.6933   69.6354  229.2915 H   0  0  0  0  0  0  0  0  0  0  0  0
  141.6435   72.0457  228.7049 H   0  0  0  0  0  0  0  0  0  0  0  0
  140.5550   72.8079  226.6045 H   0  0  0  0  0  0  0  0  0  0  0  0
  1  2  2  0
  2  3  1  0
  3  4  1  0
  4  5  1  0
  5  6  2  0
  5  7  1  0
  7  8  1  0
  8  9  1  0
  9 10  1  0
  9 11  1  0
 11 12  1  0
 12 13  2  0
 13 14  1  0
 14 15  2  0
 15 16  1  0
 15 17  1  0
 17 18  2  0
 11 19  1  0
  2 20  1  0
 20 21  2  0
 21 22  1  0
 22 23  2  0
 23 24  1  0
 24 25  2  0
 25 26  1  0
 26 27  2  0
 27 28  1  0
 28 29  2  0
 19  7  1  0
 29 20  1  0
 18 12  1  0
 28 23  1  0
  3 30  1  0
  4 31  1  0
  4 32  1  0
  8 33  1  0
  8 34  1  0
  9 35  1  6
 10 36  1  0
 11 37  1  6
 13 38  1  0
 14 39  1  0
 17 40  1  0
 18 41  1  0
 19 42  1  0
 19 43  1  0
 21 44  1  0
 22 45  1  0
 24 46  1  0
 25 47  1  0
 26 48  1  0
 27 49  1  0
M  END
>  <smiles>  (46) 
O=C(NCC(=O)N1C[C@H](O)[C@H](c2ccc(Cl)cc2)C1)c1ccc2ccccc2n1

>  <score_type>  (46) 
oracle

>  <origin>  (46) 
autodockgpu

>  <m_score__min__energy>  (46) 
-9.3800000000000008

>  <m_primary>  (46) 
energy

>  <rmsd>  (46) 
2.6328400028640764

>  <m_score__min__rmsd>  (46) 
2.6328400028640764

>  <meeko>  (46) 
{"free_energy": -8.79, "intermolecular_energy": -10.58, "internal_energy": -1.44, "cluster_size": 10, "cluster_id": 2, "rank_in_cluster": 4}

>  <energy>  (46) 
-8.36

>  <cluster_rmsd>  (46) 
0.34

>  <cluster>  (46) 
3

$$$$

     RDKit          3D

 49 52  0  0  0  0  0  0  0  0999 V2000
  139.1440   70.9770  221.4660 O   0  0  0  0  0  0  0  0  0  0  0  0
  138.7040   71.3450  222.5840 C   0  0  0  0  0  0  0  0  0  0  0  0
  137.7460   72.3830  222.6110 N   0  0  0  0  0  0  0  0  0  0  0  0
  137.2570   73.0340  221.4210 C   0  0  0  0  0  0  0  0  0  0  0  0
  137.1240   74.4920  221.6500 C   0  0  0  0  0  0  0  0  0  0  0  0
  136.0190   75.0720  221.7540 O   0  0  0  0  0  0  0  0  0  0  0  0
  138.3170   75.2600  221.7550 N   0  0  0  0  0  0  0  0  0  0  0  0
  139.6860   74.7690  221.9850 C   0  0  0  0  0  0  0  0  0  0  0  0
  140.4550   75.5920  221.0240 C   0  0  2  0  0  0  0  0  0  0  0  0
  141.8240   75.5430  221.1760 O   0  0  0  0  0  0  0  0  0  0  0  0
  139.8430   76.9170  221.0250 C   0  0  2  0  0  0  0  0  0  0  0  0
  140.5270   77.9940  221.7650 C   0  0  0  0  0  0  0  0  0  0  0  0
  141.6000   78.7100  221.2780 C   0  0  0  0  0  0  0  0  0  0  0  0
  142.2230   79.7180  221.9960 C   0  0  0  0  0  0  0  0  0  0  0  0
  141.7930   80.0630  223.2590 C   0  0  0  0  0  0  0  0  0  0  0  0
  142.5570   81.3190  224.1700 Cl  0  0  0  0  0  0  0  0  0  0  0  0
  140.7210   79.3600  223.7660 C   0  0  0  0  0  0  0  0  0  0  0  0
  140.1020   78.3570  223.0510 C   0  0  0  0  0  0  0  0  0  0  0  0
  138.4920   76.7020  221.6620 C   0  0  0  0  0  0  0  0  0  0  0  0
  139.1510   70.7330  223.8450 C   0  0  0  0  0  0  0  0  0  0  0  0
  138.9850   69.3750  224.0450 C   0  0  0  0  0  0  0  0  0  0  0  0
  139.4260   68.8460  225.2580 C   0  0  0  0  0  0  0  0  0  0  0  0
  140.0090   69.6530  226.2240 C   0  0  0  0  0  0  0  0  0  0  0  0
  140.4580   69.1750  227.4310 C   0  0  0  0  0  0  0  0  0  0  0  0
  141.0330   70.0120  228.3650 C   0  0  0  0  0  0  0  0  0  0  0  0
  141.1590   71.3610  228.0790 C   0  0  0  0  0  0  0  0  0  0  0  0
  140.7220   71.8740  226.8820 C   0  0  0  0  0  0  0  0  0  0  0  0
  140.1520   70.9970  225.9780 C   0  0  0  0  0  0  0  0  0  0  0  0
  139.7260   71.5120  224.8030 N   0  0  0  0  0  0  0  0  0  0  0  0
  137.3910   72.6750  223.5510 H   0  0  0  0  0  0  0  0  0  0  0  0
  137.9629   72.8592  220.5957 H   0  0  0  0  0  0  0  0  0  0  0  0
  136.2700   72.6203  221.1668 H   0  0  0  0  0  0  0  0  0  0  0  0
  140.0103   74.9506  223.0203 H   0  0  0  0  0  0  0  0  0  0  0  0
  139.8049   73.6844  221.8452 H   0  0  0  0  0  0  0  0  0  0  0  0
  140.3823   75.1701  220.0107 H   0  0  0  0  0  0  0  0  0  0  0  0
  142.0830   76.1130  221.9500 H   0  0  0  0  0  0  0  0  0  0  0  0
  139.8567   77.2773  219.9858 H   0  0  0  0  0  0  0  0  0  0  0  0
  141.9787   78.4700  220.2735 H   0  0  0  0  0  0  0  0  0  0  0  0
  143.0753   80.2519  221.5504 H   0  0  0  0  0  0  0  0  0  0  0  0
  140.3484   79.6068  224.7711 H   0  0  0  0  0  0  0  0  0  0  0  0
  139.2506   77.8264  223.5021 H   0  0  0  0  0  0  0  0  0  0  0  0
  138.4653   77.1556  222.6638 H   0  0  0  0  0  0  0  0  0  0  0  0
  137.6894   77.1679  221.0714 H   0  0  0  0  0  0  0  0  0  0  0  0
  138.5231   68.7366  223.2774 H   0  0  0  0  0  0  0  0  0  0  0  0
  139.3094   67.7696  225.4520 H   0  0  0  0  0  0  0  0  0  0  0  0
  140.3571   68.1033  227.6575 H   0  0  0  0  0  0  0  0  0  0  0  0
  141.3875   69.6120  229.3264 H   0  0  0  0  0  0  0  0  0  0  0  0
  141.6159   72.0319  228.8214 H   0  0  0  0  0  0  0  0  0  0  0  0
  140.8221   72.9448  226.6509 H   0  0  0  0  0  0  0  0  0  0  0  0
  1  2  2  0
  2  3  1  0
  3  4  1  0
  4  5  1  0
  5  6  2  0
  5  7  1  0
  7  8  1  0
  8  9  1  0
  9 10  1  0
  9 11  1  0
 11 12  1  0
 12 13  2  0
 13 14  1  0
 14 15  2  0
 15 16  1  0
 15 17  1  0
 17 18  2  0
 11 19  1  0
  2 20  1  0
 20 21  2  0
 21 22  1  0
 22 23  2  0
 23 24  1  0
 24 25  2  0
 25 26  1  0
 26 27  2  0
 27 28  1  0
 28 29  2  0
 19  7  1  0
 29 20  1  0
 18 12  1  0
 28 23  1  0
  3 30  1  0
  4 31  1  0
  4 32  1  0
  8 33  1  0
  8 34  1  0
  9 35  1  6
 10 36  1  0
 11 37  1  6
 13 38  1  0
 14 39  1  0
 17 40  1  0
 18 41  1  0
 19 42  1  0
 19 43  1  0
 21 44  1  0
 22 45  1  0
 24 46  1  0
 25 47  1  0
 26 48  1  0
 27 49  1  0
M  END
>  <smiles>  (47) 
O=C(NCC(=O)N1C[C@H](O)[C@H](c2ccc(Cl)cc2)C1)c1ccc2ccccc2n1

>  <score_type>  (47) 
oracle

>  <origin>  (47) 
autodockgpu

>  <m_score__min__energy>  (47) 
-9.3800000000000008

>  <m_primary>  (47) 
energy

>  <rmsd>  (47) 
2.630142147158475

>  <m_score__min__rmsd>  (47) 
2.630142147158475

>  <meeko>  (47) 
{"free_energy": -8.92, "intermolecular_energy": -10.71, "internal_energy": -1.29, "cluster_size": 10, "cluster_id": 2, "rank_in_cluster": 2}

>  <energy>  (47) 
-8.32

>  <cluster_rmsd>  (47) 
1.19

>  <cluster>  (47) 
3

$$$$

     RDKit          3D

 49 52  0  0  0  0  0  0  0  0999 V2000
  140.1640   73.1080  222.7080 O   0  0  0  0  0  0  0  0  0  0  0  0
  140.2770   71.8650  222.8520 C   0  0  0  0  0  0  0  0  0  0  0  0
  140.3280   71.0640  221.6890 N   0  0  0  0  0  0  0  0  0  0  0  0
  140.2560   71.6070  220.3550 C   0  0  0  0  0  0  0  0  0  0  0  0
  141.5920   72.0790  219.9190 C   0  0  0  0  0  0  0  0  0  0  0  0
  142.4660   71.3190  219.4430 O   0  0  0  0  0  0  0  0  0  0  0  0
  141.8830   73.4650  220.0520 N   0  0  0  0  0  0  0  0  0  0  0  0
  143.1810   74.1340  219.8680 C   0  0  0  0  0  0  0  0  0  0  0  0
  142.7830   75.3370  219.1010 C   0  0  2  0  0  0  0  0  0  0  0  0
  143.7550   76.3060  218.9860 O   0  0  0  0  0  0  0  0  0  0  0  0
  141.4930   75.7630  219.6350 C   0  0  2  0  0  0  0  0  0  0  0  0
  141.4720   76.9210  220.5480 C   0  0  0  0  0  0  0  0  0  0  0  0
  141.8430   78.2000  220.1890 C   0  0  0  0  0  0  0  0  0  0  0  0
  141.8120   79.2700  221.0690 C   0  0  0  0  0  0  0  0  0  0  0  0
  141.4000   79.1070  222.3740 C   0  0  0  0  0  0  0  0  0  0  0  0
  141.3540   80.4310  223.4870 Cl  0  0  0  0  0  0  0  0  0  0  0  0
  141.0240   77.8370  222.7550 C   0  0  0  0  0  0  0  0  0  0  0  0
  141.0550   76.7730  221.8790 C   0  0  0  0  0  0  0  0  0  0  0  0
  140.9910   74.5620  220.3970 C   0  0  0  0  0  0  0  0  0  0  0  0
  140.3580   71.2320  224.1770 C   0  0  0  0  0  0  0  0  0  0  0  0
  140.8860   71.9360  225.2420 C   0  0  0  0  0  0  0  0  0  0  0  0
  140.9400   71.2880  226.4770 C   0  0  0  0  0  0  0  0  0  0  0  0
  140.4790   69.9880  226.6260 C   0  0  0  0  0  0  0  0  0  0  0  0
  140.5120   69.3120  227.8220 C   0  0  0  0  0  0  0  0  0  0  0  0
  140.0430   68.0180  227.9280 C   0  0  0  0  0  0  0  0  0  0  0  0
  139.5300   67.3910  226.8070 C   0  0  0  0  0  0  0  0  0  0  0  0
  139.4810   68.0360  225.5950 C   0  0  0  0  0  0  0  0  0  0  0  0
  139.9620   69.3300  225.5370 C   0  0  0  0  0  0  0  0  0  0  0  0
  139.9090   69.9550  224.3400 N   0  0  0  0  0  0  0  0  0  0  0  0
  140.4230   70.0320  221.8290 H   0  0  0  0  0  0  0  0  0  0  0  0
  139.9035   70.8269  219.6642 H   0  0  0  0  0  0  0  0  0  0  0  0
  139.5576   72.4568  220.3517 H   0  0  0  0  0  0  0  0  0  0  0  0
  143.6350   74.4039  220.8329 H   0  0  0  0  0  0  0  0  0  0  0  0
  143.9403   73.5135  219.3696 H   0  0  0  0  0  0  0  0  0  0  0  0
  142.6622   75.0930  218.0352 H   0  0  0  0  0  0  0  0  0  0  0  0
  144.4670   75.9780  218.3710 H   0  0  0  0  0  0  0  0  0  0  0  0
  140.8889   76.1039  218.7813 H   0  0  0  0  0  0  0  0  0  0  0  0
  142.1789   78.3788  219.1569 H   0  0  0  0  0  0  0  0  0  0  0  0
  142.1214   80.2662  220.7201 H   0  0  0  0  0  0  0  0  0  0  0  0
  140.6892   77.6673  223.7890 H   0  0  0  0  0  0  0  0  0  0  0  0
  140.7438   75.7795  222.2340 H   0  0  0  0  0  0  0  0  0  0  0  0
  141.0240   74.7552  221.4794 H   0  0  0  0  0  0  0  0  0  0  0  0
  139.9476   74.3287  220.1385 H   0  0  0  0  0  0  0  0  0  0  0  0
  141.2497   72.9671  225.1213 H   0  0  0  0  0  0  0  0  0  0  0  0
  141.3553   71.8172  227.3473 H   0  0  0  0  0  0  0  0  0  0  0  0
  140.9203   69.8120  228.7127 H   0  0  0  0  0  0  0  0  0  0  0  0
  140.0769   67.4914  228.8932 H   0  0  0  0  0  0  0  0  0  0  0  0
  139.1554   66.3599  226.8871 H   0  0  0  0  0  0  0  0  0  0  0  0
  139.0732   67.5397  224.7021 H   0  0  0  0  0  0  0  0  0  0  0  0
  1  2  2  0
  2  3  1  0
  3  4  1  0
  4  5  1  0
  5  6  2  0
  5  7  1  0
  7  8  1  0
  8  9  1  0
  9 10  1  0
  9 11  1  0
 11 12  1  0
 12 13  2  0
 13 14  1  0
 14 15  2  0
 15 16  1  0
 15 17  1  0
 17 18  2  0
 11 19  1  0
  2 20  1  0
 20 21  2  0
 21 22  1  0
 22 23  2  0
 23 24  1  0
 24 25  2  0
 25 26  1  0
 26 27  2  0
 27 28  1  0
 28 29  2  0
 19  7  1  0
 29 20  1  0
 18 12  1  0
 28 23  1  0
  3 30  1  0
  4 31  1  0
  4 32  1  0
  8 33  1  0
  8 34  1  0
  9 35  1  6
 10 36  1  0
 11 37  1  6
 13 38  1  0
 14 39  1  0
 17 40  1  0
 18 41  1  0
 19 42  1  0
 19 43  1  0
 21 44  1  0
 22 45  1  0
 24 46  1  0
 25 47  1  0
 26 48  1  0
 27 49  1  0
M  END
>  <smiles>  (48) 
O=C(NCC(=O)N1C[C@H](O)[C@H](c2ccc(Cl)cc2)C1)c1ccc2ccccc2n1

>  <score_type>  (48) 
oracle

>  <origin>  (48) 
autodockgpu

>  <m_score__min__energy>  (48) 
-9.3800000000000008

>  <m_primary>  (48) 
energy

>  <rmsd>  (48) 
3.270421315221593

>  <m_score__min__rmsd>  (48) 
3.270421315221593

>  <meeko>  (48) 
{"free_energy": -8.35, "intermolecular_energy": -10.14, "internal_energy": -1.51, "cluster_size": 26, "cluster_id": 1, "rank_in_cluster": 24}

>  <energy>  (48) 
-8.44

>  <cluster_rmsd>  (48) 
0.0

>  <cluster>  (48) 
4

$$$$

     RDKit          3D

 49 52  0  0  0  0  0  0  0  0999 V2000
  140.1410   71.3290  221.1930 O   0  0  0  0  0  0  0  0  0  0  0  0
  139.9560   71.9140  222.2900 C   0  0  0  0  0  0  0  0  0  0  0  0
  139.7250   73.3080  222.2680 N   0  0  0  0  0  0  0  0  0  0  0  0
  139.6930   74.0820  221.0520 C   0  0  0  0  0  0  0  0  0  0  0  0
  141.0080   74.7260  220.8180 C   0  0  0  0  0  0  0  0  0  0  0  0
  141.2440   75.9230  221.0980 O   0  0  0  0  0  0  0  0  0  0  0  0
  142.0430   73.9350  220.2460 N   0  0  0  0  0  0  0  0  0  0  0  0
  142.6160   74.0420  218.8950 C   0  0  0  0  0  0  0  0  0  0  0  0
  144.0620   73.8970  219.1800 C   0  0  2  0  0  0  0  0  0  0  0  0
  144.8600   73.7030  218.0740 O   0  0  0  0  0  0  0  0  0  0  0  0
  144.1790   72.9130  220.2520 C   0  0  2  0  0  0  0  0  0  0  0  0
  144.5960   71.5450  219.8920 C   0  0  0  0  0  0  0  0  0  0  0  0
  145.8420   71.2190  219.3970 C   0  0  0  0  0  0  0  0  0  0  0  0
  146.2080   69.9230  219.0680 C   0  0  0  0  0  0  0  0  0  0  0  0
  145.3270   68.8740  219.2220 C   0  0  0  0  0  0  0  0  0  0  0  0
  145.7660   67.2500  218.8180 Cl  0  0  0  0  0  0  0  0  0  0  0  0
  144.0770   69.1770  219.7160 C   0  0  0  0  0  0  0  0  0  0  0  0
  143.7140   70.4660  220.0430 C   0  0  0  0  0  0  0  0  0  0  0  0
  142.7910   72.8350  220.8370 C   0  0  0  0  0  0  0  0  0  0  0  0
  139.9730   71.1980  223.5740 C   0  0  0  0  0  0  0  0  0  0  0  0
  139.5110   69.8970  223.6400 C   0  0  0  0  0  0  0  0  0  0  0  0
  139.5490   69.2640  224.8830 C   0  0  0  0  0  0  0  0  0  0  0  0
  140.0330   69.9180  226.0070 C   0  0  0  0  0  0  0  0  0  0  0  0
  140.0890   69.3340  227.2490 C   0  0  0  0  0  0  0  0  0  0  0  0
  140.5770   70.0190  228.3430 C   0  0  0  0  0  0  0  0  0  0  0  0
  141.0180   71.3210  228.1840 C   0  0  0  0  0  0  0  0  0  0  0  0
  140.9780   71.9370  226.9570 C   0  0  0  0  0  0  0  0  0  0  0  0
  140.4800   71.2110  225.8910 C   0  0  0  0  0  0  0  0  0  0  0  0
  140.4450   71.8260  224.6880 N   0  0  0  0  0  0  0  0  0  0  0  0
  139.5740   73.7770  223.1910 H   0  0  0  0  0  0  0  0  0  0  0  0
  139.4576   73.4195  220.2061 H   0  0  0  0  0  0  0  0  0  0  0  0
  138.9234   74.8625  221.1444 H   0  0  0  0  0  0  0  0  0  0  0  0
  142.2524   73.2376  218.2387 H   0  0  0  0  0  0  0  0  0  0  0  0
  142.3522   74.9698  218.3663 H   0  0  0  0  0  0  0  0  0  0  0  0
  144.4840   74.8516  219.5274 H   0  0  0  0  0  0  0  0  0  0  0  0
  145.1960   74.5870  217.7590 H   0  0  0  0  0  0  0  0  0  0  0  0
  144.9860   73.2563  220.9161 H   0  0  0  0  0  0  0  0  0  0  0  0
  146.5784   72.0241  219.2571 H   0  0  0  0  0  0  0  0  0  0  0  0
  147.2179   69.7285  218.6777 H   0  0  0  0  0  0  0  0  0  0  0  0
  143.3468   68.3659  219.8536 H   0  0  0  0  0  0  0  0  0  0  0  0
  142.7029   70.6533  220.4337 H   0  0  0  0  0  0  0  0  0  0  0  0
  142.3222   71.8733  220.5813 H   0  0  0  0  0  0  0  0  0  0  0  0
  142.8122   72.9065  221.9345 H   0  0  0  0  0  0  0  0  0  0  0  0
  139.1282   69.3806  222.7473 H   0  0  0  0  0  0  0  0  0  0  0  0
  139.1890   68.2285  224.9734 H   0  0  0  0  0  0  0  0  0  0  0  0
  139.7377   68.2991  227.3741 H   0  0  0  0  0  0  0  0  0  0  0  0
  140.6150   69.5355  229.3303 H   0  0  0  0  0  0  0  0  0  0  0  0
  141.4066   71.8711  229.0537 H   0  0  0  0  0  0  0  0  0  0  0  0
  141.3297   72.9711  226.8271 H   0  0  0  0  0  0  0  0  0  0  0  0
  1  2  2  0
  2  3  1  0
  3  4  1  0
  4  5  1  0
  5  6  2  0
  5  7  1  0
  7  8  1  0
  8  9  1  0
  9 10  1  0
  9 11  1  0
 11 12  1  0
 12 13  2  0
 13 14  1  0
 14 15  2  0
 15 16  1  0
 15 17  1  0
 17 18  2  0
 11 19  1  0
  2 20  1  0
 20 21  2  0
 21 22  1  0
 22 23  2  0
 23 24  1  0
 24 25  2  0
 25 26  1  0
 26 27  2  0
 27 28  1  0
 28 29  2  0
 19  7  1  0
 29 20  1  0
 18 12  1  0
 28 23  1  0
  3 30  1  0
  4 31  1  0
  4 32  1  0
  8 33  1  0
  8 34  1  0
  9 35  1  1
 10 36  1  0
 11 37  1  1
 13 38  1  0
 14 39  1  0
 17 40  1  0
 18 41  1  0
 19 42  1  0
 19 43  1  0
 21 44  1  0
 22 45  1  0
 24 46  1  0
 25 47  1  0
 26 48  1  0
 27 49  1  0
M  END
>  <smiles>  (49) 
O=C(NCC(=O)N1C[C@H](O)[C@H](c2ccc(Cl)cc2)C1)c1ccc2ccccc2n1

>  <score_type>  (49) 
oracle

>  <origin>  (49) 
autodockgpu

>  <m_score__min__energy>  (49) 
-9.3800000000000008

>  <m_primary>  (49) 
energy

>  <rmsd>  (49) 
3.6183129965740077

>  <m_score__min__rmsd>  (49) 
3.6183129965740077

>  <meeko>  (49) 
{"free_energy": -8.62, "intermolecular_energy": -10.41, "internal_energy": -1.62, "cluster_size": 11, "cluster_id": 3, "rank_in_cluster": 8}

>  <energy>  (49) 
-7.89

>  <cluster_rmsd>  (49) 
1.94

>  <cluster>  (49) 
4

$$$$

     RDKit          3D

 49 52  0  0  0  0  0  0  0  0999 V2000
  140.2600   71.3190  221.1660 O   0  0  0  0  0  0  0  0  0  0  0  0
  140.0510   71.8950  222.2620 C   0  0  0  0  0  0  0  0  0  0  0  0
  139.8100   73.2880  222.2460 N   0  0  0  0  0  0  0  0  0  0  0  0
  139.7960   74.0690  221.0340 C   0  0  0  0  0  0  0  0  0  0  0  0
  141.1160   74.7070  220.8180 C   0  0  0  0  0  0  0  0  0  0  0  0
  141.3580   75.9000  221.1150 O   0  0  0  0  0  0  0  0  0  0  0  0
  142.1510   73.9160  220.2450 N   0  0  0  0  0  0  0  0  0  0  0  0
  142.7290   74.0300  218.8970 C   0  0  0  0  0  0  0  0  0  0  0  0
  144.1740   73.8780  219.1860 C   0  0  2  0  0  0  0  0  0  0  0  0
  144.9750   73.6890  218.0810 O   0  0  0  0  0  0  0  0  0  0  0  0
  144.2830   72.8870  220.2520 C   0  0  2  0  0  0  0  0  0  0  0  0
  144.6980   71.5210  219.8860 C   0  0  0  0  0  0  0  0  0  0  0  0
  145.9470   71.1920  219.4010 C   0  0  0  0  0  0  0  0  0  0  0  0
  146.3100   69.8980  219.0650 C   0  0  0  0  0  0  0  0  0  0  0  0
  145.4230   68.8520  219.2010 C   0  0  0  0  0  0  0  0  0  0  0  0
  145.8570   67.2290  218.7880 Cl  0  0  0  0  0  0  0  0  0  0  0  0
  144.1680   69.1580  219.6830 C   0  0  0  0  0  0  0  0  0  0  0  0
  143.8080   70.4460  220.0170 C   0  0  0  0  0  0  0  0  0  0  0  0
  142.8930   72.8100  220.8320 C   0  0  0  0  0  0  0  0  0  0  0  0
  140.0480   71.1710  223.5420 C   0  0  0  0  0  0  0  0  0  0  0  0
  139.5670   69.8760  223.5960 C   0  0  0  0  0  0  0  0  0  0  0  0
  139.5860   69.2350  224.8350 C   0  0  0  0  0  0  0  0  0  0  0  0
  140.0720   69.8740  225.9670 C   0  0  0  0  0  0  0  0  0  0  0  0
  140.1110   69.2810  227.2060 C   0  0  0  0  0  0  0  0  0  0  0  0
  140.6020   69.9520  228.3070 C   0  0  0  0  0  0  0  0  0  0  0  0
  141.0640   71.2480  228.1590 C   0  0  0  0  0  0  0  0  0  0  0  0
  141.0400   71.8730  226.9360 C   0  0  0  0  0  0  0  0  0  0  0  0
  140.5390   71.1610  225.8630 C   0  0  0  0  0  0  0  0  0  0  0  0
  140.5210   71.7850  224.6630 N   0  0  0  0  0  0  0  0  0  0  0  0
  139.6380   73.7490  223.1680 H   0  0  0  0  0  0  0  0  0  0  0  0
  139.5665   73.4124  220.1818 H   0  0  0  0  0  0  0  0  0  0  0  0
  139.0297   74.8532  221.1225 H   0  0  0  0  0  0  0  0  0  0  0  0
  142.3649   73.2313  218.2340 H   0  0  0  0  0  0  0  0  0  0  0  0
  142.4703   74.9623  218.3737 H   0  0  0  0  0  0  0  0  0  0  0  0
  144.5993   74.8282  219.5412 H   0  0  0  0  0  0  0  0  0  0  0  0
  145.3120   74.5740  217.7710 H   0  0  0  0  0  0  0  0  0  0  0  0
  145.0883   73.2238  220.9214 H   0  0  0  0  0  0  0  0  0  0  0  0
  146.6889   71.9943  219.2753 H   0  0  0  0  0  0  0  0  0  0  0  0
  147.3229   69.7021  218.6834 H   0  0  0  0  0  0  0  0  0  0  0  0
  143.4317   68.3498  219.8047 H   0  0  0  0  0  0  0  0  0  0  0  0
  142.7934   70.6356  220.3972 H   0  0  0  0  0  0  0  0  0  0  0  0
  142.4218   71.8514  220.5690 H   0  0  0  0  0  0  0  0  0  0  0  0
  142.9106   72.8746  221.9300 H   0  0  0  0  0  0  0  0  0  0  0  0
  139.1842   69.3707  222.6970 H   0  0  0  0  0  0  0  0  0  0  0  0
  139.2090   68.2048  224.9161 H   0  0  0  0  0  0  0  0  0  0  0  0
  139.7434   68.2508  227.3223 H   0  0  0  0  0  0  0  0  0  0  0  0
  140.6260   69.4622  229.2916 H   0  0  0  0  0  0  0  0  0  0  0  0
  141.4566   71.7861  229.0344 H   0  0  0  0  0  0  0  0  0  0  0  0
  141.4064   72.9031  226.8152 H   0  0  0  0  0  0  0  0  0  0  0  0
  1  2  2  0
  2  3  1  0
  3  4  1  0
  4  5  1  0
  5  6  2  0
  5  7  1  0
  7  8  1  0
  8  9  1  0
  9 10  1  0
  9 11  1  0
 11 12  1  0
 12 13  2  0
 13 14  1  0
 14 15  2  0
 15 16  1  0
 15 17  1  0
 17 18  2  0
 11 19  1  0
  2 20  1  0
 20 21  2  0
 21 22  1  0
 22 23  2  0
 23 24  1  0
 24 25  2  0
 25 26  1  0
 26 27  2  0
 27 28  1  0
 28 29  2  0
 19  7  1  0
 29 20  1  0
 18 12  1  0
 28 23  1  0
  3 30  1  0
  4 31  1  0
  4 32  1  0
  8 33  1  0
  8 34  1  0
  9 35  1  1
 10 36  1  0
 11 37  1  1
 13 38  1  0
 14 39  1  0
 17 40  1  0
 18 41  1  0
 19 42  1  0
 19 43  1  0
 21 44  1  0
 22 45  1  0
 24 46  1  0
 25 47  1  0
 26 48  1  0
 27 49  1  0
M  END
>  <smiles>  (50) 
O=C(NCC(=O)N1C[C@H](O)[C@H](c2ccc(Cl)cc2)C1)c1ccc2ccccc2n1

>  <score_type>  (50) 
oracle

>  <origin>  (50) 
autodockgpu

>  <m_score__min__energy>  (50) 
-9.3800000000000008

>  <m_primary>  (50) 
energy

>  <rmsd>  (50) 
3.6700179061631344

>  <m_score__min__rmsd>  (50) 
3.6700179061631344

>  <meeko>  (50) 
{"free_energy": -8.64, "intermolecular_energy": -10.43, "internal_energy": -1.61, "cluster_size": 11, "cluster_id": 3, "rank_in_cluster": 6}

>  <energy>  (50) 
-8.22

>  <cluster_rmsd>  (50) 
0.0

>  <cluster>  (50) 
5

$$$$
