
     RDKit          3D

 42 44  0  0  0  0  0  0  0  0999 V2000
  138.9510   75.0940  221.8510 O   0  0  0  0  0  0  0  0  0  0  0  0
  140.0790   75.6420  221.9730 C   0  0  0  0  0  0  0  0  0  0  0  0
  141.2390   74.8440  221.7070 N   0  0  0  0  0  0  0  0  0  0  0  0
  141.0960   73.4780  221.3170 C   0  0  0  0  0  0  0  0  0  0  0  0
  141.6660   73.1750  219.9810 C   0  0  0  0  0  0  0  0  0  0  0  0
  141.0600   72.6050  219.0630 O   0  0  0  0  0  0  0  0  0  0  0  0
  143.0110   73.5750  219.7470 N   0  0  0  0  0  0  0  0  0  0  0  0
  143.8840   73.0480  218.7060 C   0  0  0  0  0  0  0  0  0  0  0  0
  145.2410   72.9890  219.3580 C   0  0  2  0  0  0  0  0  0  0  0  0
  145.4590   71.7130  219.8300 F   0  0  0  0  0  0  0  0  0  0  0  0
  145.2140   74.0200  220.4640 C   0  0  0  0  0  0  0  0  0  0  0  0
  143.8110   74.5630  220.4550 C   0  0  1  0  0  0  0  0  0  0  0  0
  143.6990   75.8630  219.6940 C   0  0  0  0  0  0  0  0  0  0  0  0
  142.6520   76.6500  220.1590 O   0  0  0  0  0  0  0  0  0  0  0  0
  140.2430   77.0410  222.3720 C   0  0  0  0  0  0  0  0  0  0  0  0
  139.0730   77.7760  222.5760 C   0  0  0  0  0  0  0  0  0  0  0  0
  139.1600   79.1150  222.9580 C   0  0  0  0  0  0  0  0  0  0  0  0
  140.4150   79.6640  223.1190 C   0  0  0  0  0  0  0  0  0  0  0  0
  140.5360   81.0010  223.5000 C   0  0  0  0  0  0  0  0  0  0  0  0
  141.7590   81.5800  223.6690 C   0  0  0  0  0  0  0  0  0  0  0  0
  142.8830   80.7940  223.4500 C   0  0  0  0  0  0  0  0  0  0  0  0
  142.7620   79.4560  223.0680 C   0  0  0  0  0  0  0  0  0  0  0  0
  141.5230   78.8740  222.8980 C   0  0  0  0  0  0  0  0  0  0  0  0
  141.4430   77.5800  222.5290 N   0  0  0  0  0  0  0  0  0  0  0  0
  142.1780   75.3200  221.8150 H   0  0  0  0  0  0  0  0  0  0  0  0
  141.6051   72.8492  222.0622 H   0  0  0  0  0  0  0  0  0  0  0  0
  140.0170   73.2719  221.2598 H   0  0  0  0  0  0  0  0  0  0  0  0
  143.5573   72.0453  218.3933 H   0  0  0  0  0  0  0  0  0  0  0  0
  143.8792   73.6682  217.7975 H   0  0  0  0  0  0  0  0  0  0  0  0
  146.0646   73.2112  218.6635 H   0  0  0  0  0  0  0  0  0  0  0  0
  145.4418   73.5531  221.4336 H   0  0  0  0  0  0  0  0  0  0  0  0
  145.9641   74.8100  220.3113 H   0  0  0  0  0  0  0  0  0  0  0  0
  143.4868   74.7513  221.4891 H   0  0  0  0  0  0  0  0  0  0  0  0
  144.6399   76.4218  219.8053 H   0  0  0  0  0  0  0  0  0  0  0  0
  143.5011   75.6231  218.6389 H   0  0  0  0  0  0  0  0  0  0  0  0
  142.8870   76.9690  221.0500 H   0  0  0  0  0  0  0  0  0  0  0  0
  138.0900   77.3025  222.4365 H   0  0  0  0  0  0  0  0  0  0  0  0
  138.2538   79.7156  223.1259 H   0  0  0  0  0  0  0  0  0  0  0  0
  139.6280   81.5990  223.6671 H   0  0  0  0  0  0  0  0  0  0  0  0
  141.8523   82.6343  223.9688 H   0  0  0  0  0  0  0  0  0  0  0  0
  143.8837   81.2319  223.5794 H   0  0  0  0  0  0  0  0  0  0  0  0
  143.6691   78.8569  222.9000 H   0  0  0  0  0  0  0  0  0  0  0  0
  1  2  2  0
  2  3  1  0
  3  4  1  0
  4  5  1  0
  5  6  2  0
  5  7  1  0
  7  8  1  0
  8  9  1  0
  9 10  1  0
  9 11  1  0
 11 12  1  0
 12 13  1  0
 13 14  1  0
  2 15  1  0
 15 16  2  0
 16 17  1  0
 17 18  2  0
 18 19  1  0
 19 20  2  0
 20 21  1  0
 21 22  2  0
 22 23  1  0
 23 24  2  0
 12  7  1  0
 24 15  1  0
 23 18  1  0
  3 25  1  0
  4 26  1  0
  4 27  1  0
  8 28  1  0
  8 29  1  0
  9 30  1  6
 11 31  1  0
 11 32  1  0
 12 33  1  1
 13 34  1  0
 13 35  1  0
 14 36  1  0
 16 37  1  0
 17 38  1  0
 19 39  1  0
 20 40  1  0
 21 41  1  0
 22 42  1  0
M  END
>  <smiles>  (1) 
O=C(NCC(=O)N1C[C@H](F)C[C@H]1CO)c1ccc2ccccc2n1

>  <score_type>  (1) 
oracle

>  <origin>  (1) 
autodockgpu

>  <m_score__min__energy>  (1) 
-6.8799999999999999

>  <m_primary>  (1) 
energy

>  <rmsd>  (1) 
7.660999561059293

>  <m_score__min__rmsd>  (1) 
7.660999561059293

>  <meeko>  (1) 
{"free_energy": -6.13, "intermolecular_energy": -7.92, "internal_energy": -2.68, "cluster_size": 12, "cluster_id": 4, "rank_in_cluster": 2}

>  <energy>  (1) 
-6.88

>  <cluster_rmsd>  (1) 
0.0

>  <cluster>  (1) 
1

$$$$

     RDKit          3D

 42 44  0  0  0  0  0  0  0  0999 V2000
  139.7070   70.8370  221.4730 O   0  0  0  0  0  0  0  0  0  0  0  0
  139.7430   71.3470  222.6250 C   0  0  0  0  0  0  0  0  0  0  0  0
  139.7080   72.7770  222.7220 N   0  0  0  0  0  0  0  0  0  0  0  0
  139.6350   73.5740  221.5400 C   0  0  0  0  0  0  0  0  0  0  0  0
  140.8090   74.4610  221.3450 C   0  0  0  0  0  0  0  0  0  0  0  0
  140.8980   75.6230  221.7640 O   0  0  0  0  0  0  0  0  0  0  0  0
  141.9090   73.9270  220.6190 N   0  0  0  0  0  0  0  0  0  0  0  0
  141.8190   72.9660  219.5270 C   0  0  0  0  0  0  0  0  0  0  0  0
  143.0130   72.0680  219.7270 C   0  0  2  0  0  0  0  0  0  0  0  0
  142.6180   70.9400  220.4120 F   0  0  0  0  0  0  0  0  0  0  0  0
  144.0240   72.8890  220.4950 C   0  0  0  0  0  0  0  0  0  0  0  0
  143.3310   74.1930  220.7800 C   0  0  1  0  0  0  0  0  0  0  0  0
  143.7000   75.2730  219.7900 C   0  0  0  0  0  0  0  0  0  0  0  0
  143.0200   76.4600  220.0370 O   0  0  0  0  0  0  0  0  0  0  0  0
  139.8180   70.5440  223.8470 C   0  0  0  0  0  0  0  0  0  0  0  0
  139.2590   69.2650  223.7910 C   0  0  0  0  0  0  0  0  0  0  0  0
  139.2980   68.4480  224.9220 C   0  0  0  0  0  0  0  0  0  0  0  0
  139.8940   68.9450  226.0620 C   0  0  0  0  0  0  0  0  0  0  0  0
  139.9490   68.1530  227.2090 C   0  0  0  0  0  0  0  0  0  0  0  0
  140.5290   68.6090  228.3560 C   0  0  0  0  0  0  0  0  0  0  0  0
  141.0660   69.8900  228.3440 C   0  0  0  0  0  0  0  0  0  0  0  0
  141.0110   70.6830  227.1970 C   0  0  0  0  0  0  0  0  0  0  0  0
  140.4230   70.2190  226.0380 C   0  0  0  0  0  0  0  0  0  0  0  0
  140.3870   71.0100  224.9480 N   0  0  0  0  0  0  0  0  0  0  0  0
  139.7390   73.1870  223.6960 H   0  0  0  0  0  0  0  0  0  0  0  0
  139.5594   72.9022  220.6723 H   0  0  0  0  0  0  0  0  0  0  0  0
  138.7544   74.2247  221.6449 H   0  0  0  0  0  0  0  0  0  0  0  0
  140.8833   72.3910  219.5892 H   0  0  0  0  0  0  0  0  0  0  0  0
  141.8156   73.4494  218.5389 H   0  0  0  0  0  0  0  0  0  0  0  0
  143.4572   71.7216  218.7822 H   0  0  0  0  0  0  0  0  0  0  0  0
  144.2994   72.3845  221.4329 H   0  0  0  0  0  0  0  0  0  0  0  0
  144.9561   73.0317  219.9286 H   0  0  0  0  0  0  0  0  0  0  0  0
  143.6163   74.5445  221.7825 H   0  0  0  0  0  0  0  0  0  0  0  0
  144.7814   75.4625  219.8577 H   0  0  0  0  0  0  0  0  0  0  0  0
  143.4196   74.9234  218.7854 H   0  0  0  0  0  0  0  0  0  0  0  0
  142.5970   76.3890  220.9120 H   0  0  0  0  0  0  0  0  0  0  0  0
  138.7917   68.9045  222.8627 H   0  0  0  0  0  0  0  0  0  0  0  0
  138.8657   67.4366  224.9045 H   0  0  0  0  0  0  0  0  0  0  0  0
  139.5165   67.1418  227.1879 H   0  0  0  0  0  0  0  0  0  0  0  0
  140.5702   67.9836  229.2600 H   0  0  0  0  0  0  0  0  0  0  0  0
  141.5422   70.2857  229.2532 H   0  0  0  0  0  0  0  0  0  0  0  0
  141.4433   71.6943  227.2171 H   0  0  0  0  0  0  0  0  0  0  0  0
  1  2  2  0
  2  3  1  0
  3  4  1  0
  4  5  1  0
  5  6  2  0
  5  7  1  0
  7  8  1  0
  8  9  1  0
  9 10  1  0
  9 11  1  0
 11 12  1  0
 12 13  1  0
 13 14  1  0
  2 15  1  0
 15 16  2  0
 16 17  1  0
 17 18  2  0
 18 19  1  0
 19 20  2  0
 20 21  1  0
 21 22  2  0
 22 23  1  0
 23 24  2  0
 12  7  1  0
 24 15  1  0
 23 18  1  0
  3 25  1  0
  4 26  1  0
  4 27  1  0
  8 28  1  0
  8 29  1  0
  9 30  1  6
 11 31  1  0
 11 32  1  0
 12 33  1  1
 13 34  1  0
 13 35  1  0
 14 36  1  0
 16 37  1  0
 17 38  1  0
 19 39  1  0
 20 40  1  0
 21 41  1  0
 22 42  1  0
M  END
>  <smiles>  (2) 
O=C(NCC(=O)N1C[C@H](F)C[C@H]1CO)c1ccc2ccccc2n1

>  <score_type>  (2) 
oracle

>  <origin>  (2) 
autodockgpu

>  <m_score__min__energy>  (2) 
-6.8799999999999999

>  <m_primary>  (2) 
energy

>  <rmsd>  (2) 
2.8147842584798353

>  <m_score__min__rmsd>  (2) 
2.8147842584798353

>  <meeko>  (2) 
{"free_energy": -6.32, "intermolecular_energy": -8.11, "internal_energy": -2.06, "cluster_size": 21, "cluster_id": 1, "rank_in_cluster": 8}

>  <energy>  (2) 
-6.82

>  <cluster_rmsd>  (2) 
1.95

>  <cluster>  (2) 
1

$$$$

     RDKit          3D

 42 44  0  0  0  0  0  0  0  0999 V2000
  137.8510   69.9820  221.8750 O   0  0  0  0  0  0  0  0  0  0  0  0
  138.3180   70.7690  222.7400 C   0  0  0  0  0  0  0  0  0  0  0  0
  138.2630   72.1740  222.4610 N   0  0  0  0  0  0  0  0  0  0  0  0
  137.6930   72.6400  221.2380 C   0  0  0  0  0  0  0  0  0  0  0  0
  138.5080   72.3210  220.0400 C   0  0  0  0  0  0  0  0  0  0  0  0
  138.1140   71.6630  219.0670 O   0  0  0  0  0  0  0  0  0  0  0  0
  139.8430   72.8140  220.0170 N   0  0  0  0  0  0  0  0  0  0  0  0
  140.5580   73.2720  218.8330 C   0  0  0  0  0  0  0  0  0  0  0  0
  141.9730   72.7990  219.0510 C   0  0  2  0  0  0  0  0  0  0  0  0
  142.1560   71.6060  218.3880 F   0  0  0  0  0  0  0  0  0  0  0  0
  142.1360   72.6620  220.5480 C   0  0  0  0  0  0  0  0  0  0  0  0
  140.7800   72.9760  221.1180 C   0  0  1  0  0  0  0  0  0  0  0  0
  140.6700   74.4050  221.5960 C   0  0  0  0  0  0  0  0  0  0  0  0
  139.5230   74.6150  222.3520 O   0  0  0  0  0  0  0  0  0  0  0  0
  138.9050   70.3060  223.9990 C   0  0  0  0  0  0  0  0  0  0  0  0
  138.8870   68.9290  224.2310 C   0  0  0  0  0  0  0  0  0  0  0  0
  139.4320   68.4240  225.4120 C   0  0  0  0  0  0  0  0  0  0  0  0
  139.9720   69.3180  226.3130 C   0  0  0  0  0  0  0  0  0  0  0  0
  140.5240   68.8440  227.5030 C   0  0  0  0  0  0  0  0  0  0  0  0
  141.0670   69.6960  228.4180 C   0  0  0  0  0  0  0  0  0  0  0  0
  141.0540   71.0540  228.1270 C   0  0  0  0  0  0  0  0  0  0  0  0
  140.5010   71.5280  226.9360 C   0  0  0  0  0  0  0  0  0  0  0  0
  139.9520   70.6640  226.0120 C   0  0  0  0  0  0  0  0  0  0  0  0
  139.4270   71.1550  224.8720 N   0  0  0  0  0  0  0  0  0  0  0  0
  138.6600   72.8200  223.1990 H   0  0  0  0  0  0  0  0  0  0  0  0
  136.7027   72.1765  221.1177 H   0  0  0  0  0  0  0  0  0  0  0  0
  137.6379   73.7365  221.3065 H   0  0  0  0  0  0  0  0  0  0  0  0
  140.1327   72.8244  217.9226 H   0  0  0  0  0  0  0  0  0  0  0  0
  140.4937   74.3616  218.6965 H   0  0  0  0  0  0  0  0  0  0  0  0
  142.7281   73.4951  218.6571 H   0  0  0  0  0  0  0  0  0  0  0  0
  142.4385   71.6378  220.8118 H   0  0  0  0  0  0  0  0  0  0  0  0
  142.9147   73.3318  220.9417 H   0  0  0  0  0  0  0  0  0  0  0  0
  140.5861   72.3189  221.9785 H   0  0  0  0  0  0  0  0  0  0  0  0
  141.5497   74.6419  222.2124 H   0  0  0  0  0  0  0  0  0  0  0  0
  140.6170   75.0559  220.7108 H   0  0  0  0  0  0  0  0  0  0  0  0
  139.5470   74.0070  223.1130 H   0  0  0  0  0  0  0  0  0  0  0  0
  138.4465   68.2476  223.4883 H   0  0  0  0  0  0  0  0  0  0  0  0
  139.4311   67.3436  225.6187 H   0  0  0  0  0  0  0  0  0  0  0  0
  140.5211   67.7630  227.7068 H   0  0  0  0  0  0  0  0  0  0  0  0
  141.5013   69.3203  229.3562 H   0  0  0  0  0  0  0  0  0  0  0  0
  141.4857   71.7664  228.8454 H   0  0  0  0  0  0  0  0  0  0  0  0
  140.5032   72.6088  226.7312 H   0  0  0  0  0  0  0  0  0  0  0  0
  1  2  2  0
  2  3  1  0
  3  4  1  0
  4  5  1  0
  5  6  2  0
  5  7  1  0
  7  8  1  0
  8  9  1  0
  9 10  1  0
  9 11  1  0
 11 12  1  0
 12 13  1  0
 13 14  1  0
  2 15  1  0
 15 16  2  0
 16 17  1  0
 17 18  2  0
 18 19  1  0
 19 20  2  0
 20 21  1  0
 21 22  2  0
 22 23  1  0
 23 24  2  0
 12  7  1  0
 24 15  1  0
 23 18  1  0
  3 25  1  0
  4 26  1  0
  4 27  1  0
  8 28  1  0
  8 29  1  0
  9 30  1  6
 11 31  1  0
 11 32  1  0
 12 33  1  1
 13 34  1  0
 13 35  1  0
 14 36  1  0
 16 37  1  0
 17 38  1  0
 19 39  1  0
 20 40  1  0
 21 41  1  0
 22 42  1  0
M  END
>  <smiles>  (3) 
O=C(NCC(=O)N1C[C@H](F)C[C@H]1CO)c1ccc2ccccc2n1

>  <score_type>  (3) 
oracle

>  <origin>  (3) 
autodockgpu

>  <m_score__min__energy>  (3) 
-6.8799999999999999

>  <m_primary>  (3) 
energy

>  <rmsd>  (3) 
2.667933586470735

>  <m_score__min__rmsd>  (3) 
2.667933586470735

>  <meeko>  (3) 
{"free_energy": -5.71, "intermolecular_energy": -7.5, "internal_energy": -2.06, "cluster_size": 3, "cluster_id": 6, "rank_in_cluster": 1}

>  <energy>  (3) 
-6.62

>  <cluster_rmsd>  (3) 
1.88

>  <cluster>  (3) 
1

$$$$

     RDKit          3D

 42 44  0  0  0  0  0  0  0  0999 V2000
  140.7570   71.4900  221.3510 O   0  0  0  0  0  0  0  0  0  0  0  0
  140.3010   72.0230  222.3980 C   0  0  0  0  0  0  0  0  0  0  0  0
  139.9200   73.4030  222.3310 N   0  0  0  0  0  0  0  0  0  0  0  0
  140.0620   74.1270  221.1090 C   0  0  0  0  0  0  0  0  0  0  0  0
  140.6460   75.4800  221.2810 C   0  0  0  0  0  0  0  0  0  0  0  0
  141.1160   75.9220  222.3390 O   0  0  0  0  0  0  0  0  0  0  0  0
  140.6630   76.3270  220.1380 N   0  0  0  0  0  0  0  0  0  0  0  0
  139.5080   76.6680  219.3180 C   0  0  0  0  0  0  0  0  0  0  0  0
  140.0520   76.7090  217.9130 C   0  0  2  0  0  0  0  0  0  0  0  0
  139.8090   75.4990  217.3010 F   0  0  0  0  0  0  0  0  0  0  0  0
  141.5290   77.0020  218.0500 C   0  0  0  0  0  0  0  0  0  0  0  0
  141.7840   77.0290  219.5320 C   0  0  1  0  0  0  0  0  0  0  0  0
  141.7920   78.4320  220.0930 C   0  0  0  0  0  0  0  0  0  0  0  0
  141.8660   78.4380  221.4810 O   0  0  0  0  0  0  0  0  0  0  0  0
  140.1490   71.2940  223.6580 C   0  0  0  0  0  0  0  0  0  0  0  0
  139.5770   70.0220  223.5830 C   0  0  0  0  0  0  0  0  0  0  0  0
  139.4050   69.2750  224.7490 C   0  0  0  0  0  0  0  0  0  0  0  0
  139.8130   69.8310  225.9430 C   0  0  0  0  0  0  0  0  0  0  0  0
  139.6550   69.1100  227.1260 C   0  0  0  0  0  0  0  0  0  0  0  0
  140.0450   69.6260  228.3260 C   0  0  0  0  0  0  0  0  0  0  0  0
  140.6080   70.8960  228.3330 C   0  0  0  0  0  0  0  0  0  0  0  0
  140.7660   71.6180  227.1490 C   0  0  0  0  0  0  0  0  0  0  0  0
  140.3690   71.0940  225.9360 C   0  0  0  0  0  0  0  0  0  0  0  0
  140.5370   71.8170  224.8120 N   0  0  0  0  0  0  0  0  0  0  0  0
  139.5390   73.8340  223.2190 H   0  0  0  0  0  0  0  0  0  0  0  0
  140.7147   73.5500  220.4375 H   0  0  0  0  0  0  0  0  0  0  0  0
  139.0511   74.2635  220.6972 H   0  0  0  0  0  0  0  0  0  0  0  0
  138.7239   75.9021  219.4106 H   0  0  0  0  0  0  0  0  0  0  0  0
  139.0438   77.6190  219.6183 H   0  0  0  0  0  0  0  0  0  0  0  0
  139.5767   77.4788  217.2873 H   0  0  0  0  0  0  0  0  0  0  0  0
  142.1260   76.2131  217.5692 H   0  0  0  0  0  0  0  0  0  0  0  0
  141.8095   77.9486  217.5649 H   0  0  0  0  0  0  0  0  0  0  0  0
  142.7662   76.5792  219.7396 H   0  0  0  0  0  0  0  0  0  0  0  0
  142.6615   78.9710  219.6888 H   0  0  0  0  0  0  0  0  0  0  0  0
  140.8502   78.9197  219.8011 H   0  0  0  0  0  0  0  0  0  0  0  0
  142.2230   77.5780  221.7680 H   0  0  0  0  0  0  0  0  0  0  0  0
  139.2642   69.6119  222.6114 H   0  0  0  0  0  0  0  0  0  0  0  0
  138.9566   68.2711  224.7165 H   0  0  0  0  0  0  0  0  0  0  0  0
  139.2072   68.1059  227.0903 H   0  0  0  0  0  0  0  0  0  0  0  0
  139.9181   69.0556  229.2580 H   0  0  0  0  0  0  0  0  0  0  0  0
  140.9340   71.3391  229.2856 H   0  0  0  0  0  0  0  0  0  0  0  0
  141.2146   72.6218  227.1836 H   0  0  0  0  0  0  0  0  0  0  0  0
  1  2  2  0
  2  3  1  0
  3  4  1  0
  4  5  1  0
  5  6  2  0
  5  7  1  0
  7  8  1  0
  8  9  1  0
  9 10  1  0
  9 11  1  0
 11 12  1  0
 12 13  1  0
 13 14  1  0
  2 15  1  0
 15 16  2  0
 16 17  1  0
 17 18  2  0
 18 19  1  0
 19 20  2  0
 20 21  1  0
 21 22  2  0
 22 23  1  0
 23 24  2  0
 12  7  1  0
 24 15  1  0
 23 18  1  0
  3 25  1  0
  4 26  1  0
  4 27  1  0
  8 28  1  0
  8 29  1  0
  9 30  1  6
 11 31  1  0
 11 32  1  0
 12 33  1  6
 13 34  1  0
 13 35  1  0
 14 36  1  0
 16 37  1  0
 17 38  1  0
 19 39  1  0
 20 40  1  0
 21 41  1  0
 22 42  1  0
M  END
>  <smiles>  (4) 
O=C(NCC(=O)N1C[C@H](F)C[C@H]1CO)c1ccc2ccccc2n1

>  <score_type>  (4) 
oracle

>  <origin>  (4) 
autodockgpu

>  <m_score__min__energy>  (4) 
-6.8799999999999999

>  <m_primary>  (4) 
energy

>  <rmsd>  (4) 
1.4281100072954003

>  <m_score__min__rmsd>  (4) 
1.4281100072954003

>  <meeko>  (4) 
{"free_energy": -6.13, "intermolecular_energy": -7.92, "internal_energy": -1.78, "cluster_size": 21, "cluster_id": 1, "rank_in_cluster": 14}

>  <energy>  (4) 
-6.61

>  <cluster_rmsd>  (4) 
1.95

>  <cluster>  (4) 
1

$$$$

     RDKit          3D

 42 44  0  0  0  0  0  0  0  0999 V2000
  137.3810   69.9050  222.0520 O   0  0  0  0  0  0  0  0  0  0  0  0
  137.9060   70.6900  222.8860 C   0  0  0  0  0  0  0  0  0  0  0  0
  137.8040   72.0970  222.6330 N   0  0  0  0  0  0  0  0  0  0  0  0
  137.1260   72.5690  221.4680 C   0  0  0  0  0  0  0  0  0  0  0  0
  138.0130   72.7480  220.2920 C   0  0  0  0  0  0  0  0  0  0  0  0
  138.2030   71.9000  219.4100 O   0  0  0  0  0  0  0  0  0  0  0  0
  138.6920   73.9930  220.1810 N   0  0  0  0  0  0  0  0  0  0  0  0
  138.0570   75.2960  220.0330 C   0  0  0  0  0  0  0  0  0  0  0  0
  138.9620   76.0430  219.0860 C   0  0  2  0  0  0  0  0  0  0  0  0
  138.4610   75.9380  217.8070 F   0  0  0  0  0  0  0  0  0  0  0  0
  140.3260   75.4040  219.2290 C   0  0  0  0  0  0  0  0  0  0  0  0
  140.1230   74.2620  220.1860 C   0  0  1  0  0  0  0  0  0  0  0  0
  140.5080   74.6180  221.6020 C   0  0  0  0  0  0  0  0  0  0  0  0
  139.9670   73.7330  222.5280 O   0  0  0  0  0  0  0  0  0  0  0  0
  138.6050   70.2220  224.0840 C   0  0  0  0  0  0  0  0  0  0  0  0
  138.6200   68.8420  224.3030 C   0  0  0  0  0  0  0  0  0  0  0  0
  139.2700   68.3320  225.4270 C   0  0  0  0  0  0  0  0  0  0  0  0
  139.8770   69.2230  226.2880 C   0  0  0  0  0  0  0  0  0  0  0  0
  140.5350   68.7440  227.4200 C   0  0  0  0  0  0  0  0  0  0  0  0
  141.1470   69.5930  228.2940 C   0  0  0  0  0  0  0  0  0  0  0  0
  141.0950   70.9540  228.0190 C   0  0  0  0  0  0  0  0  0  0  0  0
  140.4360   71.4330  226.8850 C   0  0  0  0  0  0  0  0  0  0  0  0
  139.8180   70.5710  226.0030 C   0  0  0  0  0  0  0  0  0  0  0  0
  139.1910   71.0680  224.9180 N   0  0  0  0  0  0  0  0  0  0  0  0
  138.2510   72.7410  223.3440 H   0  0  0  0  0  0  0  0  0  0  0  0
  136.3424   71.8433  221.2045 H   0  0  0  0  0  0  0  0  0  0  0  0
  136.7158   73.5594  221.7144 H   0  0  0  0  0  0  0  0  0  0  0  0
  137.0478   75.1922  219.6079 H   0  0  0  0  0  0  0  0  0  0  0  0
  137.9322   75.8156  220.9945 H   0  0  0  0  0  0  0  0  0  0  0  0
  139.0294   77.1181  219.3087 H   0  0  0  0  0  0  0  0  0  0  0  0
  140.6836   75.0345  218.2566 H   0  0  0  0  0  0  0  0  0  0  0  0
  141.0804   76.1177  219.5918 H   0  0  0  0  0  0  0  0  0  0  0  0
  140.7456   73.4108  219.8731 H   0  0  0  0  0  0  0  0  0  0  0  0
  141.6044   74.5955  221.6881 H   0  0  0  0  0  0  0  0  0  0  0  0
  140.1118   75.6209  221.8195 H   0  0  0  0  0  0  0  0  0  0  0  0
  139.1660   74.1410  222.9040 H   0  0  0  0  0  0  0  0  0  0  0  0
  138.1230   68.1630  223.5945 H   0  0  0  0  0  0  0  0  0  0  0  0
  139.2978   67.2497  225.6215 H   0  0  0  0  0  0  0  0  0  0  0  0
  140.5609   67.6611  227.6116 H   0  0  0  0  0  0  0  0  0  0  0  0
  141.6647   69.2131  229.1871 H   0  0  0  0  0  0  0  0  0  0  0  0
  141.5800   71.6644  228.7046 H   0  0  0  0  0  0  0  0  0  0  0  0
  140.4092   72.5156  226.6918 H   0  0  0  0  0  0  0  0  0  0  0  0
  1  2  2  0
  2  3  1  0
  3  4  1  0
  4  5  1  0
  5  6  2  0
  5  7  1  0
  7  8  1  0
  8  9  1  0
  9 10  1  0
  9 11  1  0
 11 12  1  0
 12 13  1  0
 13 14  1  0
  2 15  1  0
 15 16  2  0
 16 17  1  0
 17 18  2  0
 18 19  1  0
 19 20  2  0
 20 21  1  0
 21 22  2  0
 22 23  1  0
 23 24  2  0
 12  7  1  0
 24 15  1  0
 23 18  1  0
  3 25  1  0
  4 26  1  0
  4 27  1  0
  8 28  1  0
  8 29  1  0
  9 30  1  1
 11 31  1  0
 11 32  1  0
 12 33  1  6
 13 34  1  0
 13 35  1  0
 14 36  1  0
 16 37  1  0
 17 38  1  0
 19 39  1  0
 20 40  1  0
 21 41  1  0
 22 42  1  0
M  END
>  <smiles>  (5) 
O=C(NCC(=O)N1C[C@H](F)C[C@H]1CO)c1ccc2ccccc2n1

>  <score_type>  (5) 
oracle

>  <origin>  (5) 
autodockgpu

>  <m_score__min__energy>  (5) 
-6.8799999999999999

>  <m_primary>  (5) 
energy

>  <rmsd>  (5) 
1.958699908237577

>  <m_score__min__rmsd>  (5) 
1.958699908237577

>  <meeko>  (5) 
{"free_energy": -5.57, "intermolecular_energy": -7.36, "internal_energy": -2.05, "cluster_size": 3, "cluster_id": 6, "rank_in_cluster": 2}

>  <energy>  (5) 
-6.48

>  <cluster_rmsd>  (5) 
1.73

>  <cluster>  (5) 
1

$$$$

     RDKit          3D

 42 44  0  0  0  0  0  0  0  0999 V2000
  139.7660   73.2910  222.6800 O   0  0  0  0  0  0  0  0  0  0  0  0
  140.4880   72.2700  222.8360 C   0  0  0  0  0  0  0  0  0  0  0  0
  141.5620   72.0650  221.9100 N   0  0  0  0  0  0  0  0  0  0  0  0
  141.7870   73.0000  220.8550 C   0  0  0  0  0  0  0  0  0  0  0  0
  143.0940   72.8290  220.1740 C   0  0  0  0  0  0  0  0  0  0  0  0
  143.8380   71.8470  220.3010 O   0  0  0  0  0  0  0  0  0  0  0  0
  143.5150   73.8790  219.3120 N   0  0  0  0  0  0  0  0  0  0  0  0
  143.8180   75.2440  219.7220 C   0  0  0  0  0  0  0  0  0  0  0  0
  143.3000   76.0930  218.5900 C   0  0  2  0  0  0  0  0  0  0  0  0
  142.0400   76.5490  218.9090 F   0  0  0  0  0  0  0  0  0  0  0  0
  143.3020   75.2010  217.3690 C   0  0  0  0  0  0  0  0  0  0  0  0
  143.7380   73.8530  217.8740 C   0  0  1  0  0  0  0  0  0  0  0  0
  145.2110   73.6000  217.6520 C   0  0  0  0  0  0  0  0  0  0  0  0
  145.7280   72.6930  218.5690 O   0  0  0  0  0  0  0  0  0  0  0  0
  140.2700   71.3020  223.9130 C   0  0  0  0  0  0  0  0  0  0  0  0
  139.5010   70.1780  223.6000 C   0  0  0  0  0  0  0  0  0  0  0  0
  139.2560   69.2180  224.5830 C   0  0  0  0  0  0  0  0  0  0  0  0
  139.7910   69.4210  225.8380 C   0  0  0  0  0  0  0  0  0  0  0  0
  139.5650   68.4790  226.8420 C   0  0  0  0  0  0  0  0  0  0  0  0
  140.0760   68.6450  228.0940 C   0  0  0  0  0  0  0  0  0  0  0  0
  140.8320   69.7840  228.3400 C   0  0  0  0  0  0  0  0  0  0  0  0
  141.0590   70.7270  227.3350 C   0  0  0  0  0  0  0  0  0  0  0  0
  140.5390   70.5570  226.0690 C   0  0  0  0  0  0  0  0  0  0  0  0
  140.7780   71.4860  225.1230 N   0  0  0  0  0  0  0  0  0  0  0  0
  142.1570   71.2030  222.0570 H   0  0  0  0  0  0  0  0  0  0  0  0
  140.9882   72.8797  220.1084 H   0  0  0  0  0  0  0  0  0  0  0  0
  141.7903   74.0019  221.3092 H   0  0  0  0  0  0  0  0  0  0  0  0
  143.3043   75.4921  220.6625 H   0  0  0  0  0  0  0  0  0  0  0  0
  144.8907   75.3997  219.9090 H   0  0  0  0  0  0  0  0  0  0  0  0
  143.9170   76.9836  218.4001 H   0  0  0  0  0  0  0  0  0  0  0  0
  142.2947   75.1427  216.9309 H   0  0  0  0  0  0  0  0  0  0  0  0
  143.9666   75.5818  216.5796 H   0  0  0  0  0  0  0  0  0  0  0  0
  143.1792   73.0683  217.3429 H   0  0  0  0  0  0  0  0  0  0  0  0
  145.3535   73.1994  216.6375 H   0  0  0  0  0  0  0  0  0  0  0  0
  145.7427   74.5542  217.7816 H   0  0  0  0  0  0  0  0  0  0  0  0
  145.4330   72.9620  219.4590 H   0  0  0  0  0  0  0  0  0  0  0  0
  139.0920   70.0508  222.5868 H   0  0  0  0  0  0  0  0  0  0  0  0
  138.6532   68.3246  224.3630 H   0  0  0  0  0  0  0  0  0  0  0  0
  138.9631   67.5858  226.6186 H   0  0  0  0  0  0  0  0  0  0  0  0
  139.8958   67.9013  228.8842 H   0  0  0  0  0  0  0  0  0  0  0  0
  141.2582   69.9457  229.3411 H   0  0  0  0  0  0  0  0  0  0  0  0
  141.6623   71.6197  227.5568 H   0  0  0  0  0  0  0  0  0  0  0  0
  1  2  2  0
  2  3  1  0
  3  4  1  0
  4  5  1  0
  5  6  2  0
  5  7  1  0
  7  8  1  0
  8  9  1  0
  9 10  1  0
  9 11  1  0
 11 12  1  0
 12 13  1  0
 13 14  1  0
  2 15  1  0
 15 16  2  0
 16 17  1  0
 17 18  2  0
 18 19  1  0
 19 20  2  0
 20 21  1  0
 21 22  2  0
 22 23  1  0
 23 24  2  0
 12  7  1  0
 24 15  1  0
 23 18  1  0
  3 25  1  0
  4 26  1  0
  4 27  1  0
  8 28  1  0
  8 29  1  0
  9 30  1  6
 11 31  1  0
 11 32  1  0
 12 33  1  6
 13 34  1  0
 13 35  1  0
 14 36  1  0
 16 37  1  0
 17 38  1  0
 19 39  1  0
 20 40  1  0
 21 41  1  0
 22 42  1  0
M  END
>  <smiles>  (6) 
O=C(NCC(=O)N1C[C@H](F)C[C@H]1CO)c1ccc2ccccc2n1

>  <score_type>  (6) 
oracle

>  <origin>  (6) 
autodockgpu

>  <m_score__min__energy>  (6) 
-6.8799999999999999

>  <m_primary>  (6) 
energy

>  <rmsd>  (6) 
3.3020943950323374

>  <m_score__min__rmsd>  (6) 
3.3020943950323374

>  <meeko>  (6) 
{"free_energy": -6.2, "intermolecular_energy": -7.99, "internal_energy": -1.78, "cluster_size": 21, "cluster_id": 1, "rank_in_cluster": 11}

>  <energy>  (6) 
-6.46

>  <cluster_rmsd>  (6) 
1.65

>  <cluster>  (6) 
1

$$$$

     RDKit          3D

 42 44  0  0  0  0  0  0  0  0999 V2000
  138.9890   73.0560  222.2660 O   0  0  0  0  0  0  0  0  0  0  0  0
  140.0370   72.4490  222.6140 C   0  0  0  0  0  0  0  0  0  0  0  0
  141.2270   72.6850  221.8510 N   0  0  0  0  0  0  0  0  0  0  0  0
  141.2000   73.5810  220.7390 C   0  0  0  0  0  0  0  0  0  0  0  0
  142.5360   74.1100  220.3670 C   0  0  0  0  0  0  0  0  0  0  0  0
  142.8940   75.2890  220.4910 O   0  0  0  0  0  0  0  0  0  0  0  0
  143.4690   73.1820  219.8250 N   0  0  0  0  0  0  0  0  0  0  0  0
  143.6580   72.8980  218.4090 C   0  0  0  0  0  0  0  0  0  0  0  0
  143.9260   71.4150  218.3620 C   0  0  2  0  0  0  0  0  0  0  0  0
  142.7510   70.7540  218.0760 F   0  0  0  0  0  0  0  0  0  0  0  0
  144.4790   71.0530  219.7220 C   0  0  0  0  0  0  0  0  0  0  0  0
  144.4210   72.3270  220.5180 C   0  0  1  0  0  0  0  0  0  0  0  0
  145.7440   73.0550  220.5420 C   0  0  0  0  0  0  0  0  0  0  0  0
  146.3130   73.1450  219.2770 O   0  0  0  0  0  0  0  0  0  0  0  0
  140.0800   71.5270  223.7500 C   0  0  0  0  0  0  0  0  0  0  0  0
  139.5630   70.2470  223.5400 C   0  0  0  0  0  0  0  0  0  0  0  0
  139.5760   69.3210  224.5830 C   0  0  0  0  0  0  0  0  0  0  0  0
  140.1040   69.7140  225.7950 C   0  0  0  0  0  0  0  0  0  0  0  0
  140.1300   68.8110  226.8580 C   0  0  0  0  0  0  0  0  0  0  0  0
  140.6440   69.1630  228.0710 C   0  0  0  0  0  0  0  0  0  0  0  0
  141.1420   70.4510  228.2150 C   0  0  0  0  0  0  0  0  0  0  0  0
  141.1150   71.3550  227.1510 C   0  0  0  0  0  0  0  0  0  0  0  0
  140.5950   70.9970  225.9250 C   0  0  0  0  0  0  0  0  0  0  0  0
  140.5850   71.8930  224.9190 N   0  0  0  0  0  0  0  0  0  0  0  0
  142.0970   72.1670  222.1570 H   0  0  0  0  0  0  0  0  0  0  0  0
  140.7844   73.0464  219.8721 H   0  0  0  0  0  0  0  0  0  0  0  0
  140.5839   74.4428  221.0352 H   0  0  0  0  0  0  0  0  0  0  0  0
  142.7530   73.1493  217.8365 H   0  0  0  0  0  0  0  0  0  0  0  0
  144.4740   73.4880  217.9661 H   0  0  0  0  0  0  0  0  0  0  0  0
  144.6448   71.1289  217.5800 H   0  0  0  0  0  0  0  0  0  0  0  0
  143.8633   70.2736  220.1946 H   0  0  0  0  0  0  0  0  0  0  0  0
  145.5013   70.6519  219.6586 H   0  0  0  0  0  0  0  0  0  0  0  0
  144.1475   72.0937  221.5576 H   0  0  0  0  0  0  0  0  0  0  0  0
  145.5831   74.0709  220.9319 H   0  0  0  0  0  0  0  0  0  0  0  0
  146.4326   72.4862  221.1841 H   0  0  0  0  0  0  0  0  0  0  0  0
  146.3100   74.0820  219.0100 H   0  0  0  0  0  0  0  0  0  0  0  0
  139.1485   69.9710  222.5592 H   0  0  0  0  0  0  0  0  0  0  0  0
  139.1764   68.3058  224.4428 H   0  0  0  0  0  0  0  0  0  0  0  0
  139.7287   67.7968  226.7151 H   0  0  0  0  0  0  0  0  0  0  0  0
  140.6634   68.4497  228.9082 H   0  0  0  0  0  0  0  0  0  0  0  0
  141.5640   70.7639  229.1814 H   0  0  0  0  0  0  0  0  0  0  0  0
  141.5152   72.3697  227.2932 H   0  0  0  0  0  0  0  0  0  0  0  0
  1  2  2  0
  2  3  1  0
  3  4  1  0
  4  5  1  0
  5  6  2  0
  5  7  1  0
  7  8  1  0
  8  9  1  0
  9 10  1  0
  9 11  1  0
 11 12  1  0
 12 13  1  0
 13 14  1  0
  2 15  1  0
 15 16  2  0
 16 17  1  0
 17 18  2  0
 18 19  1  0
 19 20  2  0
 20 21  1  0
 21 22  2  0
 22 23  1  0
 23 24  2  0
 12  7  1  0
 24 15  1  0
 23 18  1  0
  3 25  1  0
  4 26  1  0
  4 27  1  0
  8 28  1  0
  8 29  1  0
  9 30  1  6
 11 31  1  0
 11 32  1  0
 12 33  1  1
 13 34  1  0
 13 35  1  0
 14 36  1  0
 16 37  1  0
 17 38  1  0
 19 39  1  0
 20 40  1  0
 21 41  1  0
 22 42  1  0
M  END
>  <smiles>  (7) 
O=C(NCC(=O)N1C[C@H](F)C[C@H]1CO)c1ccc2ccccc2n1

>  <score_type>  (7) 
oracle

>  <origin>  (7) 
autodockgpu

>  <m_score__min__energy>  (7) 
-6.8799999999999999

>  <m_primary>  (7) 
energy

>  <rmsd>  (7) 
3.920596294783668

>  <m_score__min__rmsd>  (7) 
3.920596294783668

>  <meeko>  (7) 
{"free_energy": -6.61, "intermolecular_energy": -8.4, "internal_energy": -0.98, "cluster_size": 21, "cluster_id": 1, "rank_in_cluster": 4}

>  <energy>  (7) 
-6.41

>  <cluster_rmsd>  (7) 
1.44

>  <cluster>  (7) 
1

$$$$

     RDKit          3D

 42 44  0  0  0  0  0  0  0  0999 V2000
  139.9960   73.9460  222.3470 O   0  0  0  0  0  0  0  0  0  0  0  0
  140.2290   74.9510  221.6240 C   0  0  0  0  0  0  0  0  0  0  0  0
  140.5950   74.7180  220.2580 N   0  0  0  0  0  0  0  0  0  0  0  0
  140.6850   73.3840  219.7570 C   0  0  0  0  0  0  0  0  0  0  0  0
  141.9030   72.6610  220.1980 C   0  0  0  0  0  0  0  0  0  0  0  0
  141.9070   71.5880  220.8170 O   0  0  0  0  0  0  0  0  0  0  0  0
  143.1560   73.2550  219.8820 N   0  0  0  0  0  0  0  0  0  0  0  0
  144.1130   72.7480  218.9070 C   0  0  0  0  0  0  0  0  0  0  0  0
  145.4570   73.0240  219.5320 C   0  0  2  0  0  0  0  0  0  0  0  0
  145.8960   71.8870  220.1740 F   0  0  0  0  0  0  0  0  0  0  0  0
  145.2420   74.1800  220.4820 C   0  0  0  0  0  0  0  0  0  0  0  0
  143.7650   74.4590  220.4270 C   0  0  1  0  0  0  0  0  0  0  0  0
  143.4260   75.5970  219.4920 C   0  0  0  0  0  0  0  0  0  0  0  0
  142.6390   76.5620  220.1100 O   0  0  0  0  0  0  0  0  0  0  0  0
  140.1420   76.3240  222.1230 C   0  0  0  0  0  0  0  0  0  0  0  0
  138.8600   76.8570  222.2740 C   0  0  0  0  0  0  0  0  0  0  0  0
  138.7080   78.1610  222.7460 C   0  0  0  0  0  0  0  0  0  0  0  0
  139.8470   78.8800  223.0470 C   0  0  0  0  0  0  0  0  0  0  0  0
  139.7280   80.1860  223.5200 C   0  0  0  0  0  0  0  0  0  0  0  0
  140.8300   80.9290  223.8280 C   0  0  0  0  0  0  0  0  0  0  0  0
  142.0760   80.3400  223.6560 C   0  0  0  0  0  0  0  0  0  0  0  0
  142.1940   79.0330  223.1820 C   0  0  0  0  0  0  0  0  0  0  0  0
  141.0780   78.2840  222.8700 C   0  0  0  0  0  0  0  0  0  0  0  0
  141.2280   77.0250  222.4150 N   0  0  0  0  0  0  0  0  0  0  0  0
  140.7870   75.5730  219.6660 H   0  0  0  0  0  0  0  0  0  0  0  0
  139.8042   72.8232  220.1029 H   0  0  0  0  0  0  0  0  0  0  0  0
  140.7337   73.4556  218.6604 H   0  0  0  0  0  0  0  0  0  0  0  0
  143.9716   71.6691  218.7458 H   0  0  0  0  0  0  0  0  0  0  0  0
  144.0012   73.2216  217.9205 H   0  0  0  0  0  0  0  0  0  0  0  0
  146.2308   73.2878  218.7961 H   0  0  0  0  0  0  0  0  0  0  0  0
  145.5456   73.9035  221.5025 H   0  0  0  0  0  0  0  0  0  0  0  0
  145.8396   75.0605  220.2035 H   0  0  0  0  0  0  0  0  0  0  0  0
  143.4089   74.7319  221.4314 H   0  0  0  0  0  0  0  0  0  0  0  0
  144.3604   76.0663  219.1503 H   0  0  0  0  0  0  0  0  0  0  0  0
  142.8559   75.1839  218.6468 H   0  0  0  0  0  0  0  0  0  0  0  0
  142.6390   76.3830  221.0690 H   0  0  0  0  0  0  0  0  0  0  0  0
  137.9760   76.2527  222.0224 H   0  0  0  0  0  0  0  0  0  0  0  0
  137.7091   78.6034  222.8746 H   0  0  0  0  0  0  0  0  0  0  0  0
  138.7276   80.6253  223.6472 H   0  0  0  0  0  0  0  0  0  0  0  0
  140.7349   81.9598  224.2000 H   0  0  0  0  0  0  0  0  0  0  0  0
  142.9837   80.9127  223.8972 H   0  0  0  0  0  0  0  0  0  0  0  0
  143.1938   78.5922  223.0549 H   0  0  0  0  0  0  0  0  0  0  0  0
  1  2  2  0
  2  3  1  0
  3  4  1  0
  4  5  1  0
  5  6  2  0
  5  7  1  0
  7  8  1  0
  8  9  1  0
  9 10  1  0
  9 11  1  0
 11 12  1  0
 12 13  1  0
 13 14  1  0
  2 15  1  0
 15 16  2  0
 16 17  1  0
 17 18  2  0
 18 19  1  0
 19 20  2  0
 20 21  1  0
 21 22  2  0
 22 23  1  0
 23 24  2  0
 12  7  1  0
 24 15  1  0
 23 18  1  0
  3 25  1  0
  4 26  1  0
  4 27  1  0
  8 28  1  0
  8 29  1  0
  9 30  1  6
 11 31  1  0
 11 32  1  0
 12 33  1  1
 13 34  1  0
 13 35  1  0
 14 36  1  0
 16 37  1  0
 17 38  1  0
 19 39  1  0
 20 40  1  0
 21 41  1  0
 22 42  1  0
M  END
>  <smiles>  (8) 
O=C(NCC(=O)N1C[C@H](F)C[C@H]1CO)c1ccc2ccccc2n1

>  <score_type>  (8) 
oracle

>  <origin>  (8) 
autodockgpu

>  <m_score__min__energy>  (8) 
-6.8799999999999999

>  <m_primary>  (8) 
energy

>  <rmsd>  (8) 
7.254687107859901

>  <m_score__min__rmsd>  (8) 
7.254687107859901

>  <meeko>  (8) 
{"free_energy": -5.94, "intermolecular_energy": -7.73, "internal_energy": -2.61, "cluster_size": 12, "cluster_id": 4, "rank_in_cluster": 11}

>  <energy>  (8) 
-6.32

>  <cluster_rmsd>  (8) 
1.85

>  <cluster>  (8) 
1

$$$$

     RDKit          3D

 42 44  0  0  0  0  0  0  0  0999 V2000
  141.2740   72.2250  221.7420 O   0  0  0  0  0  0  0  0  0  0  0  0
  140.3370   72.3440  222.5760 C   0  0  0  0  0  0  0  0  0  0  0  0
  139.3530   73.3560  222.3330 N   0  0  0  0  0  0  0  0  0  0  0  0
  139.4520   74.1890  221.1770 C   0  0  0  0  0  0  0  0  0  0  0  0
  140.5240   75.2110  221.2680 C   0  0  0  0  0  0  0  0  0  0  0  0
  141.0520   75.5950  222.3200 O   0  0  0  0  0  0  0  0  0  0  0  0
  140.9700   75.7890  220.0470 N   0  0  0  0  0  0  0  0  0  0  0  0
  140.1890   75.8920  218.8210 C   0  0  0  0  0  0  0  0  0  0  0  0
  141.1930   75.6490  217.7220 C   0  0  2  0  0  0  0  0  0  0  0  0
  141.1360   74.3260  217.3450 F   0  0  0  0  0  0  0  0  0  0  0  0
  142.5370   76.0310  218.3000 C   0  0  0  0  0  0  0  0  0  0  0  0
  142.2570   76.3910  219.7330 C   0  0  1  0  0  0  0  0  0  0  0  0
  142.1180   77.8820  219.9390 C   0  0  0  0  0  0  0  0  0  0  0  0
  141.8440   78.2010  221.2640 O   0  0  0  0  0  0  0  0  0  0  0  0
  140.2210   71.4980  223.7660 C   0  0  0  0  0  0  0  0  0  0  0  0
  139.5800   70.2680  223.6010 C   0  0  0  0  0  0  0  0  0  0  0  0
  139.4380   69.4150  224.6970 C   0  0  0  0  0  0  0  0  0  0  0  0
  139.9440   69.8280  225.9120 C   0  0  0  0  0  0  0  0  0  0  0  0
  139.8170   68.9980  227.0260 C   0  0  0  0  0  0  0  0  0  0  0  0
  140.3030   69.3720  228.2440 C   0  0  0  0  0  0  0  0  0  0  0  0
  140.9300   70.6070  228.3400 C   0  0  0  0  0  0  0  0  0  0  0  0
  141.0560   71.4380  227.2250 C   0  0  0  0  0  0  0  0  0  0  0  0
  140.5630   71.0580  225.9940 C   0  0  0  0  0  0  0  0  0  0  0  0
  140.7020   71.8840  224.9390 N   0  0  0  0  0  0  0  0  0  0  0  0
  138.5740   73.4420  223.0430 H   0  0  0  0  0  0  0  0  0  0  0  0
  139.6546   73.5500  220.3049 H   0  0  0  0  0  0  0  0  0  0  0  0
  138.4985   74.7304  221.0884 H   0  0  0  0  0  0  0  0  0  0  0  0
  139.3948   75.1313  218.7992 H   0  0  0  0  0  0  0  0  0  0  0  0
  139.6840   76.8643  218.7233 H   0  0  0  0  0  0  0  0  0  0  0  0
  140.9963   76.2411  216.8161 H   0  0  0  0  0  0  0  0  0  0  0  0
  143.2367   75.1841  218.2439 H   0  0  0  0  0  0  0  0  0  0  0  0
  143.0025   76.8615  217.7490 H   0  0  0  0  0  0  0  0  0  0  0  0
  143.0871   76.0409  220.3642 H   0  0  0  0  0  0  0  0  0  0  0  0
  143.0580   78.3706  219.6431 H   0  0  0  0  0  0  0  0  0  0  0  0
  141.2764   78.2332  219.3238 H   0  0  0  0  0  0  0  0  0  0  0  0
  142.0830   77.4340  221.8150 H   0  0  0  0  0  0  0  0  0  0  0  0
  139.1902   69.9738  222.6153 H   0  0  0  0  0  0  0  0  0  0  0  0
  138.9368   68.4412  224.5946 H   0  0  0  0  0  0  0  0  0  0  0  0
  139.3159   68.0245  226.9200 H   0  0  0  0  0  0  0  0  0  0  0  0
  140.2016   68.7167  229.1217 H   0  0  0  0  0  0  0  0  0  0  0  0
  141.3336   70.9358  229.3090 H   0  0  0  0  0  0  0  0  0  0  0  0
  141.5567   72.4118  227.3300 H   0  0  0  0  0  0  0  0  0  0  0  0
  1  2  2  0
  2  3  1  0
  3  4  1  0
  4  5  1  0
  5  6  2  0
  5  7  1  0
  7  8  1  0
  8  9  1  0
  9 10  1  0
  9 11  1  0
 11 12  1  0
 12 13  1  0
 13 14  1  0
  2 15  1  0
 15 16  2  0
 16 17  1  0
 17 18  2  0
 18 19  1  0
 19 20  2  0
 20 21  1  0
 21 22  2  0
 22 23  1  0
 23 24  2  0
 12  7  1  0
 24 15  1  0
 23 18  1  0
  3 25  1  0
  4 26  1  0
  4 27  1  0
  8 28  1  0
  8 29  1  0
  9 30  1  6
 11 31  1  0
 11 32  1  0
 12 33  1  1
 13 34  1  0
 13 35  1  0
 14 36  1  0
 16 37  1  0
 17 38  1  0
 19 39  1  0
 20 40  1  0
 21 41  1  0
 22 42  1  0
M  END
>  <smiles>  (9) 
O=C(NCC(=O)N1C[C@H](F)C[C@H]1CO)c1ccc2ccccc2n1

>  <score_type>  (9) 
oracle

>  <origin>  (9) 
autodockgpu

>  <m_score__min__energy>  (9) 
-6.8799999999999999

>  <m_primary>  (9) 
energy

>  <rmsd>  (9) 
1.4552414580115751

>  <m_score__min__rmsd>  (9) 
1.4552414580115751

>  <meeko>  (9) 
{"free_energy": -6.41, "intermolecular_energy": -8.2, "internal_energy": -1.68, "cluster_size": 21, "cluster_id": 1, "rank_in_cluster": 7}

>  <energy>  (9) 
-6.32

>  <cluster_rmsd>  (9) 
1.73

>  <cluster>  (9) 
1

$$$$

     RDKit          3D

 42 44  0  0  0  0  0  0  0  0999 V2000
  138.9120   75.3440  221.5400 O   0  0  0  0  0  0  0  0  0  0  0  0
  140.0440   75.8030  221.8500 C   0  0  0  0  0  0  0  0  0  0  0  0
  141.1760   74.9360  221.7070 N   0  0  0  0  0  0  0  0  0  0  0  0
  141.0020   73.6030  221.2270 C   0  0  0  0  0  0  0  0  0  0  0  0
  141.2380   73.4580  219.7690 C   0  0  0  0  0  0  0  0  0  0  0  0
  140.3690   73.1710  218.9340 O   0  0  0  0  0  0  0  0  0  0  0  0
  142.5670   73.6670  219.3060 N   0  0  0  0  0  0  0  0  0  0  0  0
  142.9960   73.6300  217.9140 C   0  0  0  0  0  0  0  0  0  0  0  0
  144.3570   72.9840  217.9650 C   0  0  2  0  0  0  0  0  0  0  0  0
  144.2270   71.6390  217.6950 F   0  0  0  0  0  0  0  0  0  0  0  0
  144.8880   73.2470  219.3560 C   0  0  0  0  0  0  0  0  0  0  0  0
  143.7710   73.9560  220.0710 C   0  0  1  0  0  0  0  0  0  0  0  0
  143.9490   75.4560  220.0790 C   0  0  0  0  0  0  0  0  0  0  0  0
  142.7310   76.1260  220.0760 O   0  0  0  0  0  0  0  0  0  0  0  0
  140.2380   77.1670  222.3440 C   0  0  0  0  0  0  0  0  0  0  0  0
  139.0890   77.8730  222.7060 C   0  0  0  0  0  0  0  0  0  0  0  0
  139.2060   79.1780  223.1850 C   0  0  0  0  0  0  0  0  0  0  0  0
  140.4700   79.7250  223.2810 C   0  0  0  0  0  0  0  0  0  0  0  0
  140.6200   81.0270  223.7560 C   0  0  0  0  0  0  0  0  0  0  0  0
  141.8510   81.6020  223.8650 C   0  0  0  0  0  0  0  0  0  0  0  0
  142.9540   80.8460  223.4890 C   0  0  0  0  0  0  0  0  0  0  0  0
  142.8040   79.5420  223.0130 C   0  0  0  0  0  0  0  0  0  0  0  0
  141.5560   78.9630  222.9030 C   0  0  0  0  0  0  0  0  0  0  0  0
  141.4460   77.7030  222.4410 N   0  0  0  0  0  0  0  0  0  0  0  0
  142.1180   75.3380  221.9730 H   0  0  0  0  0  0  0  0  0  0  0  0
  141.7066   72.9474  221.7597 H   0  0  0  0  0  0  0  0  0  0  0  0
  139.9526   73.3295  221.4114 H   0  0  0  0  0  0  0  0  0  0  0  0
  142.3017   73.0301  217.3073 H   0  0  0  0  0  0  0  0  0  0  0  0
  143.0200   74.6286  217.4532 H   0  0  0  0  0  0  0  0  0  0  0  0
  145.0561   73.3882  217.2181 H   0  0  0  0  0  0  0  0  0  0  0  0
  145.1322   72.3013  219.8619 H   0  0  0  0  0  0  0  0  0  0  0  0
  145.8124   73.8430  219.3397 H   0  0  0  0  0  0  0  0  0  0  0  0
  143.7359   73.6168  221.1168 H   0  0  0  0  0  0  0  0  0  0  0  0
  144.5093   75.7421  220.9813 H   0  0  0  0  0  0  0  0  0  0  0  0
  144.4935   75.7379  219.1658 H   0  0  0  0  0  0  0  0  0  0  0  0
  142.6190   76.5540  220.9450 H   0  0  0  0  0  0  0  0  0  0  0  0
  138.0985   77.4035  222.6141 H   0  0  0  0  0  0  0  0  0  0  0  0
  138.3164   79.7548  223.4779 H   0  0  0  0  0  0  0  0  0  0  0  0
  139.7283   81.6010  224.0483 H   0  0  0  0  0  0  0  0  0  0  0  0
  141.9671   82.6302  224.2382 H   0  0  0  0  0  0  0  0  0  0  0  0
  143.9611   81.2814  223.5675 H   0  0  0  0  0  0  0  0  0  0  0  0
  143.6950   78.9668  222.7209 H   0  0  0  0  0  0  0  0  0  0  0  0
  1  2  2  0
  2  3  1  0
  3  4  1  0
  4  5  1  0
  5  6  2  0
  5  7  1  0
  7  8  1  0
  8  9  1  0
  9 10  1  0
  9 11  1  0
 11 12  1  0
 12 13  1  0
 13 14  1  0
  2 15  1  0
 15 16  2  0
 16 17  1  0
 17 18  2  0
 18 19  1  0
 19 20  2  0
 20 21  1  0
 21 22  2  0
 22 23  1  0
 23 24  2  0
 12  7  1  0
 24 15  1  0
 23 18  1  0
  3 25  1  0
  4 26  1  0
  4 27  1  0
  8 28  1  0
  8 29  1  0
  9 30  1  6
 11 31  1  0
 11 32  1  0
 12 33  1  1
 13 34  1  0
 13 35  1  0
 14 36  1  0
 16 37  1  0
 17 38  1  0
 19 39  1  0
 20 40  1  0
 21 41  1  0
 22 42  1  0
M  END
>  <smiles>  (10) 
O=C(NCC(=O)N1C[C@H](F)C[C@H]1CO)c1ccc2ccccc2n1

>  <score_type>  (10) 
oracle

>  <origin>  (10) 
autodockgpu

>  <m_score__min__energy>  (10) 
-6.8799999999999999

>  <m_primary>  (10) 
energy

>  <rmsd>  (10) 
7.5943838840368265

>  <m_score__min__rmsd>  (10) 
7.5943838840368265

>  <meeko>  (10) 
{"free_energy": -5.42, "intermolecular_energy": -7.21, "internal_energy": -2.64, "cluster_size": 12, "cluster_id": 4, "rank_in_cluster": 12}

>  <energy>  (10) 
-6.22

>  <cluster_rmsd>  (10) 
1.39

>  <cluster>  (10) 
1

$$$$

     RDKit          3D

 42 44  0  0  0  0  0  0  0  0999 V2000
  141.0220   76.1380  218.5410 O   0  0  0  0  0  0  0  0  0  0  0  0
  141.9280   76.8180  219.0930 C   0  0  0  0  0  0  0  0  0  0  0  0
  143.1970   76.8960  218.4330 N   0  0  0  0  0  0  0  0  0  0  0  0
  143.4040   76.2190  217.1930 C   0  0  0  0  0  0  0  0  0  0  0  0
  144.0780   74.9050  217.3370 C   0  0  0  0  0  0  0  0  0  0  0  0
  144.8470   74.4060  216.5040 O   0  0  0  0  0  0  0  0  0  0  0  0
  143.8120   74.1690  218.5250 N   0  0  0  0  0  0  0  0  0  0  0  0
  142.8100   73.1210  218.6680 C   0  0  0  0  0  0  0  0  0  0  0  0
  142.2620   73.3210  220.0580 C   0  0  2  0  0  0  0  0  0  0  0  0
  141.1040   74.0640  219.9820 F   0  0  0  0  0  0  0  0  0  0  0  0
  143.3530   74.0240  220.8340 C   0  0  0  0  0  0  0  0  0  0  0  0
  144.4450   74.2750  219.8310 C   0  0  1  0  0  0  0  0  0  0  0  0
  145.5360   73.2320  219.8890 C   0  0  0  0  0  0  0  0  0  0  0  0
  146.3250   73.2390  218.7450 O   0  0  0  0  0  0  0  0  0  0  0  0
  141.7310   77.5190  220.3640 C   0  0  0  0  0  0  0  0  0  0  0  0
  141.0710   76.8140  221.3730 C   0  0  0  0  0  0  0  0  0  0  0  0
  140.8520   77.4260  222.6080 C   0  0  0  0  0  0  0  0  0  0  0  0
  141.3040   78.7170  222.7830 C   0  0  0  0  0  0  0  0  0  0  0  0
  141.1010   79.3560  224.0060 C   0  0  0  0  0  0  0  0  0  0  0  0
  141.5310   80.6320  224.2170 C   0  0  0  0  0  0  0  0  0  0  0  0
  142.1810   81.2770  223.1720 C   0  0  0  0  0  0  0  0  0  0  0  0
  142.3840   80.6380  221.9480 C   0  0  0  0  0  0  0  0  0  0  0  0
  141.9470   79.3470  221.7370 C   0  0  0  0  0  0  0  0  0  0  0  0
  142.1600   78.7590  220.5440 N   0  0  0  0  0  0  0  0  0  0  0  0
  143.9460   77.4720  218.9110 H   0  0  0  0  0  0  0  0  0  0  0  0
  142.4252   76.0572  216.7179 H   0  0  0  0  0  0  0  0  0  0  0  0
  144.0649   76.8548  216.5856 H   0  0  0  0  0  0  0  0  0  0  0  0
  142.0159   73.2351  217.9154 H   0  0  0  0  0  0  0  0  0  0  0  0
  143.2288   72.1146  218.5208 H   0  0  0  0  0  0  0  0  0  0  0  0
  141.9974   72.3786  220.5599 H   0  0  0  0  0  0  0  0  0  0  0  0
  142.9826   74.9735  221.2478 H   0  0  0  0  0  0  0  0  0  0  0  0
  143.7051   73.4247  221.6865 H   0  0  0  0  0  0  0  0  0  0  0  0
  144.9064   75.2529  220.0329 H   0  0  0  0  0  0  0  0  0  0  0  0
  146.1743   73.4341  220.7618 H   0  0  0  0  0  0  0  0  0  0  0  0
  145.0578   72.2444  219.9656 H   0  0  0  0  0  0  0  0  0  0  0  0
  146.1040   74.0380  218.2310 H   0  0  0  0  0  0  0  0  0  0  0  0
  140.7265   75.7845  221.1957 H   0  0  0  0  0  0  0  0  0  0  0  0
  140.3335   76.8936  223.4189 H   0  0  0  0  0  0  0  0  0  0  0  0
  140.5841   78.8200  224.8156 H   0  0  0  0  0  0  0  0  0  0  0  0
  141.3689   81.1343  225.1821 H   0  0  0  0  0  0  0  0  0  0  0  0
  142.5411   82.3070  223.3116 H   0  0  0  0  0  0  0  0  0  0  0  0
  142.9012   81.1730  221.1379 H   0  0  0  0  0  0  0  0  0  0  0  0
  1  2  2  0
  2  3  1  0
  3  4  1  0
  4  5  1  0
  5  6  2  0
  5  7  1  0
  7  8  1  0
  8  9  1  0
  9 10  1  0
  9 11  1  0
 11 12  1  0
 12 13  1  0
 13 14  1  0
  2 15  1  0
 15 16  2  0
 16 17  1  0
 17 18  2  0
 18 19  1  0
 19 20  2  0
 20 21  1  0
 21 22  2  0
 22 23  1  0
 23 24  2  0
 12  7  1  0
 24 15  1  0
 23 18  1  0
  3 25  1  0
  4 26  1  0
  4 27  1  0
  8 28  1  0
  8 29  1  0
  9 30  1  1
 11 31  1  0
 11 32  1  0
 12 33  1  1
 13 34  1  0
 13 35  1  0
 14 36  1  0
 16 37  1  0
 17 38  1  0
 19 39  1  0
 20 40  1  0
 21 41  1  0
 22 42  1  0
M  END
>  <smiles>  (11) 
O=C(NCC(=O)N1C[C@H](F)C[C@H]1CO)c1ccc2ccccc2n1

>  <score_type>  (11) 
oracle

>  <origin>  (11) 
autodockgpu

>  <m_score__min__energy>  (11) 
-6.8799999999999999

>  <m_primary>  (11) 
energy

>  <rmsd>  (11) 
7.954747890229138

>  <m_score__min__rmsd>  (11) 
7.954747890229138

>  <meeko>  (11) 
{"free_energy": -5.74, "intermolecular_energy": -7.53, "internal_energy": -2.31, "cluster_size": 1, "cluster_id": 5, "rank_in_cluster": 1}

>  <energy>  (11) 
-6.2

>  <cluster_rmsd>  (11) 
1.57

>  <cluster>  (11) 
1

$$$$

     RDKit          3D

 42 44  0  0  0  0  0  0  0  0999 V2000
  138.9860   74.9700  221.9160 O   0  0  0  0  0  0  0  0  0  0  0  0
  140.0990   75.5560  221.9950 C   0  0  0  0  0  0  0  0  0  0  0  0
  141.2750   74.7960  221.6940 N   0  0  0  0  0  0  0  0  0  0  0  0
  141.1650   73.4230  221.3180 C   0  0  0  0  0  0  0  0  0  0  0  0
  141.7570   73.1170  219.9930 C   0  0  0  0  0  0  0  0  0  0  0  0
  141.1820   72.5080  219.0800 O   0  0  0  0  0  0  0  0  0  0  0  0
  143.0890   73.5630  219.7630 N   0  0  0  0  0  0  0  0  0  0  0  0
  143.9910   73.0470  218.7410 C   0  0  0  0  0  0  0  0  0  0  0  0
  145.3440   73.0530  219.4070 C   0  0  2  0  0  0  0  0  0  0  0  0
  145.6040   71.7960  219.9080 F   0  0  0  0  0  0  0  0  0  0  0  0
  145.2660   74.1050  220.4910 C   0  0  0  0  0  0  0  0  0  0  0  0
  143.8450   74.5940  220.4570 C   0  0  1  0  0  0  0  0  0  0  0  0
  143.6910   75.8730  219.6670 C   0  0  0  0  0  0  0  0  0  0  0  0
  142.5800   76.6040  220.0690 O   0  0  0  0  0  0  0  0  0  0  0  0
  140.2290   76.9630  222.3790 C   0  0  0  0  0  0  0  0  0  0  0  0
  139.0410   77.6770  222.5570 C   0  0  0  0  0  0  0  0  0  0  0  0
  139.0970   79.0220  222.9240 C   0  0  0  0  0  0  0  0  0  0  0  0
  140.3380   79.5990  223.0970 C   0  0  0  0  0  0  0  0  0  0  0  0
  140.4270   80.9410  223.4630 C   0  0  0  0  0  0  0  0  0  0  0  0
  141.6350   81.5460  223.6430 C   0  0  0  0  0  0  0  0  0  0  0  0
  142.7780   80.7800  223.4510 C   0  0  0  0  0  0  0  0  0  0  0  0
  142.6890   79.4370  223.0840 C   0  0  0  0  0  0  0  0  0  0  0  0
  141.4650   78.8270  222.9020 C   0  0  0  0  0  0  0  0  0  0  0  0
  141.4150   77.5280  222.5480 N   0  0  0  0  0  0  0  0  0  0  0  0
  142.2010   75.3040  221.7660 H   0  0  0  0  0  0  0  0  0  0  0  0
  141.6780   72.8133  222.0764 H   0  0  0  0  0  0  0  0  0  0  0  0
  140.0912   73.1939  221.2503 H   0  0  0  0  0  0  0  0  0  0  0  0
  143.7050   72.0263  218.4472 H   0  0  0  0  0  0  0  0  0  0  0  0
  143.9717   73.6469  217.8192 H   0  0  0  0  0  0  0  0  0  0  0  0
  146.1661   73.2917  218.7162 H   0  0  0  0  0  0  0  0  0  0  0  0
  145.5008   73.6671  221.4724 H   0  0  0  0  0  0  0  0  0  0  0  0
  145.9873   74.9196  220.3289 H   0  0  0  0  0  0  0  0  0  0  0  0
  143.5047   74.7913  221.4843 H   0  0  0  0  0  0  0  0  0  0  0  0
  144.5914   76.4887  219.8094 H   0  0  0  0  0  0  0  0  0  0  0  0
  143.5553   75.6039  218.6091 H   0  0  0  0  0  0  0  0  0  0  0  0
  142.6960   76.8380  221.0090 H   0  0  0  0  0  0  0  0  0  0  0  0
  138.0695   77.1827  222.4090 H   0  0  0  0  0  0  0  0  0  0  0  0
  138.1767   79.6063  223.0713 H   0  0  0  0  0  0  0  0  0  0  0  0
  139.5050   81.5228  223.6093 H   0  0  0  0  0  0  0  0  0  0  0  0
  141.7027   82.6055  223.9307 H   0  0  0  0  0  0  0  0  0  0  0  0
  143.7678   81.2392  223.5904 H   0  0  0  0  0  0  0  0  0  0  0  0
  143.6105   78.8545  222.9372 H   0  0  0  0  0  0  0  0  0  0  0  0
  1  2  2  0
  2  3  1  0
  3  4  1  0
  4  5  1  0
  5  6  2  0
  5  7  1  0
  7  8  1  0
  8  9  1  0
  9 10  1  0
  9 11  1  0
 11 12  1  0
 12 13  1  0
 13 14  1  0
  2 15  1  0
 15 16  2  0
 16 17  1  0
 17 18  2  0
 18 19  1  0
 19 20  2  0
 20 21  1  0
 21 22  2  0
 22 23  1  0
 23 24  2  0
 12  7  1  0
 24 15  1  0
 23 18  1  0
  3 25  1  0
  4 26  1  0
  4 27  1  0
  8 28  1  0
  8 29  1  0
  9 30  1  6
 11 31  1  0
 11 32  1  0
 12 33  1  1
 13 34  1  0
 13 35  1  0
 14 36  1  0
 16 37  1  0
 17 38  1  0
 19 39  1  0
 20 40  1  0
 21 41  1  0
 22 42  1  0
M  END
>  <smiles>  (12) 
O=C(NCC(=O)N1C[C@H](F)C[C@H]1CO)c1ccc2ccccc2n1

>  <score_type>  (12) 
oracle

>  <origin>  (12) 
autodockgpu

>  <m_score__min__energy>  (12) 
-6.8799999999999999

>  <m_primary>  (12) 
energy

>  <rmsd>  (12) 
7.639017856528541

>  <m_score__min__rmsd>  (12) 
7.639017856528541

>  <meeko>  (12) 
{"free_energy": -6.14, "intermolecular_energy": -7.93, "internal_energy": -2.67, "cluster_size": 12, "cluster_id": 4, "rank_in_cluster": 1}

>  <energy>  (12) 
-6.18

>  <cluster_rmsd>  (12) 
1.59

>  <cluster>  (12) 
1

$$$$

     RDKit          3D

 42 44  0  0  0  0  0  0  0  0999 V2000
  141.1650   72.3840  222.2970 O   0  0  0  0  0  0  0  0  0  0  0  0
  140.0930   72.1500  222.9170 C   0  0  0  0  0  0  0  0  0  0  0  0
  138.9320   72.9050  222.5490 N   0  0  0  0  0  0  0  0  0  0  0  0
  139.0120   73.8820  221.5110 C   0  0  0  0  0  0  0  0  0  0  0  0
  139.8710   75.0440  221.8480 C   0  0  0  0  0  0  0  0  0  0  0  0
  141.1070   75.0180  221.9110 O   0  0  0  0  0  0  0  0  0  0  0  0
  139.2130   76.2760  222.1190 N   0  0  0  0  0  0  0  0  0  0  0  0
  138.0560   76.4470  222.9880 C   0  0  0  0  0  0  0  0  0  0  0  0
  137.2250   77.4950  222.2930 C   0  0  2  0  0  0  0  0  0  0  0  0
  136.2500   76.8730  221.5430 F   0  0  0  0  0  0  0  0  0  0  0  0
  138.1900   78.2910  221.4440 C   0  0  0  0  0  0  0  0  0  0  0  0
  139.5180   77.6080  221.6200 C   0  0  1  0  0  0  0  0  0  0  0  0
  140.3860   78.2880  222.6540 C   0  0  0  0  0  0  0  0  0  0  0  0
  141.3720   77.4400  223.1450 O   0  0  0  0  0  0  0  0  0  0  0  0
  139.9960   71.1520  223.9840 C   0  0  0  0  0  0  0  0  0  0  0  0
  139.3000   69.9790  223.6840 C   0  0  0  0  0  0  0  0  0  0  0  0
  139.1720   68.9880  224.6580 C   0  0  0  0  0  0  0  0  0  0  0  0
  139.7440   69.2120  225.8930 C   0  0  0  0  0  0  0  0  0  0  0  0
  139.6340   68.2400  226.8880 C   0  0  0  0  0  0  0  0  0  0  0  0
  140.1850   68.4260  228.1210 C   0  0  0  0  0  0  0  0  0  0  0  0
  140.8630   69.6150  228.3550 C   0  0  0  0  0  0  0  0  0  0  0  0
  140.9740   70.5870  227.3590 C   0  0  0  0  0  0  0  0  0  0  0  0
  140.4150   70.3970  226.1130 C   0  0  0  0  0  0  0  0  0  0  0  0
  140.5410   71.3560  225.1750 N   0  0  0  0  0  0  0  0  0  0  0  0
  138.0420   72.6960  223.0810 H   0  0  0  0  0  0  0  0  0  0  0  0
  139.4194   73.3990  220.6106 H   0  0  0  0  0  0  0  0  0  0  0  0
  137.9943   74.2697  221.3565 H   0  0  0  0  0  0  0  0  0  0  0  0
  137.4964   75.5047  223.0829 H   0  0  0  0  0  0  0  0  0  0  0  0
  138.3360   76.7404  224.0105 H   0  0  0  0  0  0  0  0  0  0  0  0
  136.7029   78.1662  222.9908 H   0  0  0  0  0  0  0  0  0  0  0  0
  137.8824   78.2720  220.3881 H   0  0  0  0  0  0  0  0  0  0  0  0
  138.2269   79.3491  221.7423 H   0  0  0  0  0  0  0  0  0  0  0  0
  140.0626   77.6201  220.6644 H   0  0  0  0  0  0  0  0  0  0  0  0
  140.8674   79.1633  222.1935 H   0  0  0  0  0  0  0  0  0  0  0  0
  139.7429   78.5846  223.4957 H   0  0  0  0  0  0  0  0  0  0  0  0
  141.8070   77.0110  222.3850 H   0  0  0  0  0  0  0  0  0  0  0  0
  138.8561   69.8374  222.6876 H   0  0  0  0  0  0  0  0  0  0  0  0
  138.6301   68.0543  224.4468 H   0  0  0  0  0  0  0  0  0  0  0  0
  139.0928   67.3066  226.6736 H   0  0  0  0  0  0  0  0  0  0  0  0
  140.0954   67.6594  228.9048 H   0  0  0  0  0  0  0  0  0  0  0  0
  141.3194   69.7937  229.3397 H   0  0  0  0  0  0  0  0  0  0  0  0
  141.5165   71.5200  227.5718 H   0  0  0  0  0  0  0  0  0  0  0  0
  1  2  2  0
  2  3  1  0
  3  4  1  0
  4  5  1  0
  5  6  2  0
  5  7  1  0
  7  8  1  0
  8  9  1  0
  9 10  1  0
  9 11  1  0
 11 12  1  0
 12 13  1  0
 13 14  1  0
  2 15  1  0
 15 16  2  0
 16 17  1  0
 17 18  2  0
 18 19  1  0
 19 20  2  0
 20 21  1  0
 21 22  2  0
 22 23  1  0
 23 24  2  0
 12  7  1  0
 24 15  1  0
 23 18  1  0
  3 25  1  0
  4 26  1  0
  4 27  1  0
  8 28  1  0
  8 29  1  0
  9 30  1  1
 11 31  1  0
 11 32  1  0
 12 33  1  6
 13 34  1  0
 13 35  1  0
 14 36  1  0
 16 37  1  0
 17 38  1  0
 19 39  1  0
 20 40  1  0
 21 41  1  0
 22 42  1  0
M  END
>  <smiles>  (13) 
O=C(NCC(=O)N1C[C@H](F)C[C@H]1CO)c1ccc2ccccc2n1

>  <score_type>  (13) 
oracle

>  <origin>  (13) 
autodockgpu

>  <m_score__min__energy>  (13) 
-6.8799999999999999

>  <m_primary>  (13) 
energy

>  <rmsd>  (13) 
2.7863072159648494

>  <m_score__min__rmsd>  (13) 
2.7863072159648494

>  <meeko>  (13) 
{"free_energy": -6.63, "intermolecular_energy": -8.42, "internal_energy": -1.57, "cluster_size": 10, "cluster_id": 2, "rank_in_cluster": 1}

>  <energy>  (13) 
-6.14

>  <cluster_rmsd>  (13) 
1.5

>  <cluster>  (13) 
1

$$$$

     RDKit          3D

 42 44  0  0  0  0  0  0  0  0999 V2000
  141.4110   71.8730  221.6070 O   0  0  0  0  0  0  0  0  0  0  0  0
  140.5130   72.2030  222.4280 C   0  0  0  0  0  0  0  0  0  0  0  0
  139.7110   73.3480  222.1130 N   0  0  0  0  0  0  0  0  0  0  0  0
  139.9400   74.0730  220.9040 C   0  0  0  0  0  0  0  0  0  0  0  0
  140.9710   75.1320  221.0290 C   0  0  0  0  0  0  0  0  0  0  0  0
  142.1890   74.9580  220.8850 O   0  0  0  0  0  0  0  0  0  0  0  0
  140.5150   76.4440  221.3380 N   0  0  0  0  0  0  0  0  0  0  0  0
  140.5060   77.5770  220.4220 C   0  0  0  0  0  0  0  0  0  0  0  0
  140.8670   78.7560  221.2900 C   0  0  2  0  0  0  0  0  0  0  0  0
  142.2170   79.0010  221.1770 F   0  0  0  0  0  0  0  0  0  0  0  0
  140.4630   78.3720  222.6960 C   0  0  0  0  0  0  0  0  0  0  0  0
  139.9700   76.9560  222.5870 C   0  0  1  0  0  0  0  0  0  0  0  0
  138.4650   76.8720  222.4880 C   0  0  0  0  0  0  0  0  0  0  0  0
  137.9980   75.5840  222.7190 O   0  0  0  0  0  0  0  0  0  0  0  0
  140.2670   71.4700  223.6710 C   0  0  0  0  0  0  0  0  0  0  0  0
  139.5000   70.3070  223.5720 C   0  0  0  0  0  0  0  0  0  0  0  0
  139.2290   69.5630  224.7210 C   0  0  0  0  0  0  0  0  0  0  0  0
  139.7370   70.0130  225.9220 C   0  0  0  0  0  0  0  0  0  0  0  0
  139.4840   69.2910  227.0880 C   0  0  0  0  0  0  0  0  0  0  0  0
  139.9680   69.7040  228.2940 C   0  0  0  0  0  0  0  0  0  0  0  0
  140.7240   70.8690  228.3230 C   0  0  0  0  0  0  0  0  0  0  0  0
  140.9770   71.5920  227.1560 C   0  0  0  0  0  0  0  0  0  0  0  0
  140.4850   71.1720  225.9380 C   0  0  0  0  0  0  0  0  0  0  0  0
  140.7490   71.8930  224.8310 N   0  0  0  0  0  0  0  0  0  0  0  0
  138.9620   73.6100  222.8130 H   0  0  0  0  0  0  0  0  0  0  0  0
  140.2643   73.3625  220.1294 H   0  0  0  0  0  0  0  0  0  0  0  0
  138.9951   74.5736  220.6459 H   0  0  0  0  0  0  0  0  0  0  0  0
  141.2491   77.4387  219.6228 H   0  0  0  0  0  0  0  0  0  0  0  0
  139.5362   77.7049  219.9189 H   0  0  0  0  0  0  0  0  0  0  0  0
  140.3543   79.6837  220.9959 H   0  0  0  0  0  0  0  0  0  0  0  0
  141.3261   78.4295  223.3755 H   0  0  0  0  0  0  0  0  0  0  0  0
  139.6954   79.0462  223.1037 H   0  0  0  0  0  0  0  0  0  0  0  0
  140.2788   76.3944  223.4810 H   0  0  0  0  0  0  0  0  0  0  0  0
  138.0220   77.5491  223.2332 H   0  0  0  0  0  0  0  0  0  0  0  0
  138.1757   77.1595  221.4664 H   0  0  0  0  0  0  0  0  0  0  0  0
  138.7160   75.0720  223.1350 H   0  0  0  0  0  0  0  0  0  0  0  0
  139.1125   69.9800  222.5958 H   0  0  0  0  0  0  0  0  0  0  0  0
  138.6273   68.6436  224.6705 H   0  0  0  0  0  0  0  0  0  0  0  0
  138.8829   68.3714  227.0338 H   0  0  0  0  0  0  0  0  0  0  0  0
  139.7666   69.1339  229.2129 H   0  0  0  0  0  0  0  0  0  0  0  0
  141.1297   71.2274  229.2806 H   0  0  0  0  0  0  0  0  0  0  0  0
  141.5785   72.5115  227.2087 H   0  0  0  0  0  0  0  0  0  0  0  0
  1  2  2  0
  2  3  1  0
  3  4  1  0
  4  5  1  0
  5  6  2  0
  5  7  1  0
  7  8  1  0
  8  9  1  0
  9 10  1  0
  9 11  1  0
 11 12  1  0
 12 13  1  0
 13 14  1  0
  2 15  1  0
 15 16  2  0
 16 17  1  0
 17 18  2  0
 18 19  1  0
 19 20  2  0
 20 21  1  0
 21 22  2  0
 22 23  1  0
 23 24  2  0
 12  7  1  0
 24 15  1  0
 23 18  1  0
  3 25  1  0
  4 26  1  0
  4 27  1  0
  8 28  1  0
  8 29  1  0
  9 30  1  6
 11 31  1  0
 11 32  1  0
 12 33  1  1
 13 34  1  0
 13 35  1  0
 14 36  1  0
 16 37  1  0
 17 38  1  0
 19 39  1  0
 20 40  1  0
 21 41  1  0
 22 42  1  0
M  END
>  <smiles>  (14) 
O=C(NCC(=O)N1C[C@H](F)C[C@H]1CO)c1ccc2ccccc2n1

>  <score_type>  (14) 
oracle

>  <origin>  (14) 
autodockgpu

>  <m_score__min__energy>  (14) 
-6.8799999999999999

>  <m_primary>  (14) 
energy

>  <rmsd>  (14) 
2.6399590510875166

>  <m_score__min__rmsd>  (14) 
2.6399590510875166

>  <meeko>  (14) 
{"free_energy": -6.62, "intermolecular_energy": -8.41, "internal_energy": -1.6, "cluster_size": 21, "cluster_id": 1, "rank_in_cluster": 3}

>  <energy>  (14) 
-6.13

>  <cluster_rmsd>  (14) 
1.68

>  <cluster>  (14) 
1

$$$$

     RDKit          3D

 42 44  0  0  0  0  0  0  0  0999 V2000
  138.1270   70.2490  221.6720 O   0  0  0  0  0  0  0  0  0  0  0  0
  138.4610   70.9930  222.6320 C   0  0  0  0  0  0  0  0  0  0  0  0
  138.3120   72.4080  222.4600 N   0  0  0  0  0  0  0  0  0  0  0  0
  137.8000   72.9320  221.2350 C   0  0  0  0  0  0  0  0  0  0  0  0
  138.2330   74.3230  220.9530 C   0  0  0  0  0  0  0  0  0  0  0  0
  137.4710   75.2760  220.7430 O   0  0  0  0  0  0  0  0  0  0  0  0
  139.6340   74.5690  220.9230 N   0  0  0  0  0  0  0  0  0  0  0  0
  140.3020   75.7430  221.4710 C   0  0  0  0  0  0  0  0  0  0  0  0
  141.4080   76.0300  220.4880 C   0  0  2  0  0  0  0  0  0  0  0  0
  140.9850   76.9990  219.6040 F   0  0  0  0  0  0  0  0  0  0  0  0
  141.7070   74.7140  219.8070 C   0  0  0  0  0  0  0  0  0  0  0  0
  140.6990   73.7480  220.3650 C   0  0  1  0  0  0  0  0  0  0  0  0
  141.2600   72.9120  221.4920 C   0  0  0  0  0  0  0  0  0  0  0  0
  140.6840   73.2340  222.7160 O   0  0  0  0  0  0  0  0  0  0  0  0
  138.9890   70.4710  223.8940 C   0  0  0  0  0  0  0  0  0  0  0  0
  138.8400   69.1010  224.1170 C   0  0  0  0  0  0  0  0  0  0  0  0
  139.3210   68.5410  225.3010 C   0  0  0  0  0  0  0  0  0  0  0  0
  139.9320   69.3760  226.2140 C   0  0  0  0  0  0  0  0  0  0  0  0
  140.4230   68.8470  227.4070 C   0  0  0  0  0  0  0  0  0  0  0  0
  141.0320   69.6390  228.3340 C   0  0  0  0  0  0  0  0  0  0  0  0
  141.1480   70.9940  228.0510 C   0  0  0  0  0  0  0  0  0  0  0  0
  140.6560   71.5240  226.8570 C   0  0  0  0  0  0  0  0  0  0  0  0
  140.0400   70.7190  225.9210 C   0  0  0  0  0  0  0  0  0  0  0  0
  139.5760   71.2630  224.7790 N   0  0  0  0  0  0  0  0  0  0  0  0
  138.5980   73.0180  223.2770 H   0  0  0  0  0  0  0  0  0  0  0  0
  138.1430   72.2881  220.4118 H   0  0  0  0  0  0  0  0  0  0  0  0
  136.7039   72.9492  221.3264 H   0  0  0  0  0  0  0  0  0  0  0  0
  139.6069   76.5931  221.5356 H   0  0  0  0  0  0  0  0  0  0  0  0
  140.6773   75.5769  222.4916 H   0  0  0  0  0  0  0  0  0  0  0  0
  142.3207   76.4175  220.9642 H   0  0  0  0  0  0  0  0  0  0  0  0
  141.5904   74.8076  218.7172 H   0  0  0  0  0  0  0  0  0  0  0  0
  142.7402   74.3819  219.9863 H   0  0  0  0  0  0  0  0  0  0  0  0
  140.3733   73.0621  219.5691 H   0  0  0  0  0  0  0  0  0  0  0  0
  141.0670   71.8506  221.2770 H   0  0  0  0  0  0  0  0  0  0  0  0
  142.3391   73.1143  221.5606 H   0  0  0  0  0  0  0  0  0  0  0  0
  140.4740   72.4010  223.1780 H   0  0  0  0  0  0  0  0  0  0  0  0
  138.3470   68.4676  223.3648 H   0  0  0  0  0  0  0  0  0  0  0  0
  139.2161   67.4644  225.5009 H   0  0  0  0  0  0  0  0  0  0  0  0
  140.3168   67.7700  227.6037 H   0  0  0  0  0  0  0  0  0  0  0  0
  141.4186   69.2194  229.2745 H   0  0  0  0  0  0  0  0  0  0  0  0
  141.6350   71.6596  228.7789 H   0  0  0  0  0  0  0  0  0  0  0  0
  140.7612   72.6009  226.6591 H   0  0  0  0  0  0  0  0  0  0  0  0
  1  2  2  0
  2  3  1  0
  3  4  1  0
  4  5  1  0
  5  6  2  0
  5  7  1  0
  7  8  1  0
  8  9  1  0
  9 10  1  0
  9 11  1  0
 11 12  1  0
 12 13  1  0
 13 14  1  0
  2 15  1  0
 15 16  2  0
 16 17  1  0
 17 18  2  0
 18 19  1  0
 19 20  2  0
 20 21  1  0
 21 22  2  0
 22 23  1  0
 23 24  2  0
 12  7  1  0
 24 15  1  0
 23 18  1  0
  3 25  1  0
  4 26  1  0
  4 27  1  0
  8 28  1  0
  8 29  1  0
  9 30  1  1
 11 31  1  0
 11 32  1  0
 12 33  1  6
 13 34  1  0
 13 35  1  0
 14 36  1  0
 16 37  1  0
 17 38  1  0
 19 39  1  0
 20 40  1  0
 21 41  1  0
 22 42  1  0
M  END
>  <smiles>  (15) 
O=C(NCC(=O)N1C[C@H](F)C[C@H]1CO)c1ccc2ccccc2n1

>  <score_type>  (15) 
oracle

>  <origin>  (15) 
autodockgpu

>  <m_score__min__energy>  (15) 
-6.8799999999999999

>  <m_primary>  (15) 
energy

>  <rmsd>  (15) 
2.3011126646299287

>  <m_score__min__rmsd>  (15) 
2.3011126646299287

>  <meeko>  (15) 
{"free_energy": -5.6, "intermolecular_energy": -7.39, "internal_energy": -2.65, "cluster_size": 21, "cluster_id": 1, "rank_in_cluster": 21}

>  <energy>  (15) 
-6.12

>  <cluster_rmsd>  (15) 
1.69

>  <cluster>  (15) 
1

$$$$

     RDKit          3D

 42 44  0  0  0  0  0  0  0  0999 V2000
  138.9650   75.0900  221.8760 O   0  0  0  0  0  0  0  0  0  0  0  0
  140.0890   75.6450  222.0030 C   0  0  0  0  0  0  0  0  0  0  0  0
  141.2540   74.8610  221.7190 N   0  0  0  0  0  0  0  0  0  0  0  0
  141.1210   73.5010  221.3060 C   0  0  0  0  0  0  0  0  0  0  0  0
  141.6750   73.2290  219.9570 C   0  0  0  0  0  0  0  0  0  0  0  0
  141.0560   72.6890  219.0300 O   0  0  0  0  0  0  0  0  0  0  0  0
  143.0210   73.6240  219.7210 N   0  0  0  0  0  0  0  0  0  0  0  0
  143.8750   73.1280  218.6490 C   0  0  0  0  0  0  0  0  0  0  0  0
  145.2410   73.0300  219.2810 C   0  0  2  0  0  0  0  0  0  0  0  0
  145.4500   71.7340  219.7000 F   0  0  0  0  0  0  0  0  0  0  0  0
  145.2380   74.0170  220.4260 C   0  0  0  0  0  0  0  0  0  0  0  0
  143.8420   74.5750  220.4560 C   0  0  1  0  0  0  0  0  0  0  0  0
  143.7340   75.9040  219.7460 C   0  0  0  0  0  0  0  0  0  0  0  0
  142.5800   76.5930  220.1020 O   0  0  0  0  0  0  0  0  0  0  0  0
  140.2430   77.0380  222.4260 C   0  0  0  0  0  0  0  0  0  0  0  0
  139.0680   77.7520  222.6720 C   0  0  0  0  0  0  0  0  0  0  0  0
  139.1460   79.0850  223.0780 C   0  0  0  0  0  0  0  0  0  0  0  0
  140.3970   79.6490  223.2210 C   0  0  0  0  0  0  0  0  0  0  0  0
  140.5090   80.9790  223.6250 C   0  0  0  0  0  0  0  0  0  0  0  0
  141.7270   81.5720  223.7760 C   0  0  0  0  0  0  0  0  0  0  0  0
  142.8560   80.8060  223.5160 C   0  0  0  0  0  0  0  0  0  0  0  0
  142.7450   79.4750  223.1110 C   0  0  0  0  0  0  0  0  0  0  0  0
  141.5100   78.8780  222.9580 C   0  0  0  0  0  0  0  0  0  0  0  0
  141.4380   77.5910  222.5660 N   0  0  0  0  0  0  0  0  0  0  0  0
  142.1900   75.3430  221.8310 H   0  0  0  0  0  0  0  0  0  0  0  0
  141.6479   72.8647  222.0323 H   0  0  0  0  0  0  0  0  0  0  0  0
  140.0437   73.2835  221.2602 H   0  0  0  0  0  0  0  0  0  0  0  0
  143.5335   72.1414  218.3027 H   0  0  0  0  0  0  0  0  0  0  0  0
  143.8653   73.7825  217.7649 H   0  0  0  0  0  0  0  0  0  0  0  0
  146.0588   73.2708  218.5859 H   0  0  0  0  0  0  0  0  0  0  0  0
  145.4721   73.5102  221.3738 H   0  0  0  0  0  0  0  0  0  0  0  0
  145.9947   74.8044  220.2943 H   0  0  0  0  0  0  0  0  0  0  0  0
  143.5344   74.7270  221.5011 H   0  0  0  0  0  0  0  0  0  0  0  0
  144.6087   76.5179  220.0067 H   0  0  0  0  0  0  0  0  0  0  0  0
  143.6927   75.7087  218.6643 H   0  0  0  0  0  0  0  0  0  0  0  0
  142.7010   76.9380  221.0050 H   0  0  0  0  0  0  0  0  0  0  0  0
  138.0885   77.2673  222.5467 H   0  0  0  0  0  0  0  0  0  0  0  0
  138.2359   79.6694  223.2783 H   0  0  0  0  0  0  0  0  0  0  0  0
  139.5971   81.5606  223.8256 H   0  0  0  0  0  0  0  0  0  0  0  0
  141.8129   82.6218  224.0931 H   0  0  0  0  0  0  0  0  0  0  0  0
  143.8534   81.2554  223.6311 H   0  0  0  0  0  0  0  0  0  0  0  0
  143.6563   78.8925  222.9105 H   0  0  0  0  0  0  0  0  0  0  0  0
  1  2  2  0
  2  3  1  0
  3  4  1  0
  4  5  1  0
  5  6  2  0
  5  7  1  0
  7  8  1  0
  8  9  1  0
  9 10  1  0
  9 11  1  0
 11 12  1  0
 12 13  1  0
 13 14  1  0
  2 15  1  0
 15 16  2  0
 16 17  1  0
 17 18  2  0
 18 19  1  0
 19 20  2  0
 20 21  1  0
 21 22  2  0
 22 23  1  0
 23 24  2  0
 12  7  1  0
 24 15  1  0
 23 18  1  0
  3 25  1  0
  4 26  1  0
  4 27  1  0
  8 28  1  0
  8 29  1  0
  9 30  1  6
 11 31  1  0
 11 32  1  0
 12 33  1  1
 13 34  1  0
 13 35  1  0
 14 36  1  0
 16 37  1  0
 17 38  1  0
 19 39  1  0
 20 40  1  0
 21 41  1  0
 22 42  1  0
M  END
>  <smiles>  (16) 
O=C(NCC(=O)N1C[C@H](F)C[C@H]1CO)c1ccc2ccccc2n1

>  <score_type>  (16) 
oracle

>  <origin>  (16) 
autodockgpu

>  <m_score__min__energy>  (16) 
-6.8799999999999999

>  <m_primary>  (16) 
energy

>  <rmsd>  (16) 
7.641343687158993

>  <m_score__min__rmsd>  (16) 
7.641343687158993

>  <meeko>  (16) 
{"free_energy": -6.11, "intermolecular_energy": -7.9, "internal_energy": -2.69, "cluster_size": 12, "cluster_id": 4, "rank_in_cluster": 3}

>  <energy>  (16) 
-6.11

>  <cluster_rmsd>  (16) 
1.51

>  <cluster>  (16) 
1

$$$$

     RDKit          3D

 42 44  0  0  0  0  0  0  0  0999 V2000
  137.6130   70.1350  221.9250 O   0  0  0  0  0  0  0  0  0  0  0  0
  138.0760   70.9730  222.7450 C   0  0  0  0  0  0  0  0  0  0  0  0
  137.9880   72.3610  222.4000 N   0  0  0  0  0  0  0  0  0  0  0  0
  137.3910   72.7560  221.1640 C   0  0  0  0  0  0  0  0  0  0  0  0
  138.0440   73.9310  220.5360 C   0  0  0  0  0  0  0  0  0  0  0  0
  137.6070   74.5450  219.5520 O   0  0  0  0  0  0  0  0  0  0  0  0
  139.2640   74.3790  221.1150 N   0  0  0  0  0  0  0  0  0  0  0  0
  139.3820   75.2830  222.2510 C   0  0  0  0  0  0  0  0  0  0  0  0
  140.5790   76.1380  221.9190 C   0  0  2  0  0  0  0  0  0  0  0  0
  140.1470   77.3160  221.3520 F   0  0  0  0  0  0  0  0  0  0  0  0
  141.4240   75.3150  220.9730 C   0  0  0  0  0  0  0  0  0  0  0  0
  140.6320   74.0590  220.7340 C   0  0  1  0  0  0  0  0  0  0  0  0
  141.0850   72.9130  221.6070 C   0  0  0  0  0  0  0  0  0  0  0  0
  140.5520   72.9910  222.8890 O   0  0  0  0  0  0  0  0  0  0  0  0
  138.6900   70.5830  224.0160 C   0  0  0  0  0  0  0  0  0  0  0  0
  138.4740   69.2700  224.4400 C   0  0  0  0  0  0  0  0  0  0  0  0
  139.0330   68.8370  225.6430 C   0  0  0  0  0  0  0  0  0  0  0  0
  139.7850   69.7340  226.3720 C   0  0  0  0  0  0  0  0  0  0  0  0
  140.3570   69.3310  227.5780 C   0  0  0  0  0  0  0  0  0  0  0  0
  141.1060   70.1900  228.3270 C   0  0  0  0  0  0  0  0  0  0  0  0
  141.2830   71.4810  227.8480 C   0  0  0  0  0  0  0  0  0  0  0  0
  140.7100   71.8850  226.6410 C   0  0  0  0  0  0  0  0  0  0  0  0
  139.9520   71.0140  225.8850 C   0  0  0  0  0  0  0  0  0  0  0  0
  139.4140   71.4360  224.7250 N   0  0  0  0  0  0  0  0  0  0  0  0
  138.3810   73.0500  223.1000 H   0  0  0  0  0  0  0  0  0  0  0  0
  137.4502   71.9099  220.4635 H   0  0  0  0  0  0  0  0  0  0  0  0
  136.3530   73.0448  221.3857 H   0  0  0  0  0  0  0  0  0  0  0  0
  138.4776   75.9006  222.3539 H   0  0  0  0  0  0  0  0  0  0  0  0
  139.4972   74.7483  223.2054 H   0  0  0  0  0  0  0  0  0  0  0  0
  141.1724   76.4146  222.8030 H   0  0  0  0  0  0  0  0  0  0  0  0
  141.5850   75.8558  220.0288 H   0  0  0  0  0  0  0  0  0  0  0  0
  142.4200   75.1020  221.3884 H   0  0  0  0  0  0  0  0  0  0  0  0
  140.7508   73.7482  219.6855 H   0  0  0  0  0  0  0  0  0  0  0  0
  140.7639   71.9673  221.1461 H   0  0  0  0  0  0  0  0  0  0  0  0
  142.1806   72.9634  221.6915 H   0  0  0  0  0  0  0  0  0  0  0  0
  140.2460   72.1010  223.1430 H   0  0  0  0  0  0  0  0  0  0  0  0
  137.8683   68.5830  223.8308 H   0  0  0  0  0  0  0  0  0  0  0  0
  138.8780   67.8082  226.0001 H   0  0  0  0  0  0  0  0  0  0  0  0
  140.2012   68.3012  227.9319 H   0  0  0  0  0  0  0  0  0  0  0  0
  141.5550   69.8706  229.2790 H   0  0  0  0  0  0  0  0  0  0  0  0
  141.8840   72.1964  228.4285 H   0  0  0  0  0  0  0  0  0  0  0  0
  140.8652   72.9147  226.2865 H   0  0  0  0  0  0  0  0  0  0  0  0
  1  2  2  0
  2  3  1  0
  3  4  1  0
  4  5  1  0
  5  6  2  0
  5  7  1  0
  7  8  1  0
  8  9  1  0
  9 10  1  0
  9 11  1  0
 11 12  1  0
 12 13  1  0
 13 14  1  0
  2 15  1  0
 15 16  2  0
 16 17  1  0
 17 18  2  0
 18 19  1  0
 19 20  2  0
 20 21  1  0
 21 22  2  0
 22 23  1  0
 23 24  2  0
 12  7  1  0
 24 15  1  0
 23 18  1  0
  3 25  1  0
  4 26  1  0
  4 27  1  0
  8 28  1  0
  8 29  1  0
  9 30  1  1
 11 31  1  0
 11 32  1  0
 12 33  1  6
 13 34  1  0
 13 35  1  0
 14 36  1  0
 16 37  1  0
 17 38  1  0
 19 39  1  0
 20 40  1  0
 21 41  1  0
 22 42  1  0
M  END
>  <smiles>  (17) 
O=C(NCC(=O)N1C[C@H](F)C[C@H]1CO)c1ccc2ccccc2n1

>  <score_type>  (17) 
oracle

>  <origin>  (17) 
autodockgpu

>  <m_score__min__energy>  (17) 
-6.8799999999999999

>  <m_primary>  (17) 
energy

>  <rmsd>  (17) 
2.598936895820512

>  <m_score__min__rmsd>  (17) 
2.598936895820512

>  <meeko>  (17) 
{"free_energy": -5.55, "intermolecular_energy": -7.34, "internal_energy": -2.7, "cluster_size": 10, "cluster_id": 2, "rank_in_cluster": 8}

>  <energy>  (17) 
-6.03

>  <cluster_rmsd>  (17) 
1.77

>  <cluster>  (17) 
1

$$$$

     RDKit          3D

 42 44  0  0  0  0  0  0  0  0999 V2000
  137.6820   70.0050  221.8230 O   0  0  0  0  0  0  0  0  0  0  0  0
  137.9940   70.7800  222.7660 C   0  0  0  0  0  0  0  0  0  0  0  0
  137.6900   72.1720  222.6130 N   0  0  0  0  0  0  0  0  0  0  0  0
  137.0550   72.6400  221.4230 C   0  0  0  0  0  0  0  0  0  0  0  0
  137.9310   72.6050  220.2250 C   0  0  0  0  0  0  0  0  0  0  0  0
  137.6180   72.1180  219.1300 O   0  0  0  0  0  0  0  0  0  0  0  0
  139.2270   73.1760  220.3570 N   0  0  0  0  0  0  0  0  0  0  0  0
  139.5340   74.6000  220.3320 C   0  0  0  0  0  0  0  0  0  0  0  0
  140.8450   74.6830  219.5930 C   0  0  2  0  0  0  0  0  0  0  0  0
  140.5980   74.9730  218.2690 F   0  0  0  0  0  0  0  0  0  0  0  0
  141.5090   73.3370  219.7780 C   0  0  0  0  0  0  0  0  0  0  0  0
  140.5090   72.5110  220.5400 C   0  0  1  0  0  0  0  0  0  0  0  0
  140.7930   72.4820  222.0230 C   0  0  0  0  0  0  0  0  0  0  0  0
  139.9610   73.3430  222.7300 O   0  0  0  0  0  0  0  0  0  0  0  0
  138.6450   70.3150  223.9930 C   0  0  0  0  0  0  0  0  0  0  0  0
  138.5920   68.9430  224.2500 C   0  0  0  0  0  0  0  0  0  0  0  0
  139.1940   68.4370  225.4020 C   0  0  0  0  0  0  0  0  0  0  0  0
  139.8240   69.3230  226.2500 C   0  0  0  0  0  0  0  0  0  0  0  0
  140.4360   68.8480  227.4100 C   0  0  0  0  0  0  0  0  0  0  0  0
  141.0680   69.6930  228.2730 C   0  0  0  0  0  0  0  0  0  0  0  0
  141.0840   71.0460  227.9590 C   0  0  0  0  0  0  0  0  0  0  0  0
  140.4720   71.5220  226.7980 C   0  0  0  0  0  0  0  0  0  0  0  0
  139.8330   70.6640  225.9270 C   0  0  0  0  0  0  0  0  0  0  0  0
  139.2530   71.1570  224.8150 N   0  0  0  0  0  0  0  0  0  0  0  0
  137.9590   72.8070  223.4150 H   0  0  0  0  0  0  0  0  0  0  0  0
  136.1750   72.0094  221.2281 H   0  0  0  0  0  0  0  0  0  0  0  0
  136.7875   73.6931  221.5946 H   0  0  0  0  0  0  0  0  0  0  0  0
  138.7501   75.1587  219.7997 H   0  0  0  0  0  0  0  0  0  0  0  0
  139.5904   75.0365  221.3401 H   0  0  0  0  0  0  0  0  0  0  0  0
  141.5051   75.4780  219.9700 H   0  0  0  0  0  0  0  0  0  0  0  0
  141.7280   72.8767  218.8032 H   0  0  0  0  0  0  0  0  0  0  0  0
  142.4682   73.4191  220.3102 H   0  0  0  0  0  0  0  0  0  0  0  0
  140.5382   71.4746  220.1726 H   0  0  0  0  0  0  0  0  0  0  0  0
  140.6411   71.4575  222.3936 H   0  0  0  0  0  0  0  0  0  0  0  0
  141.8314   72.8110  222.1764 H   0  0  0  0  0  0  0  0  0  0  0  0
  139.5850   72.8500  223.4820 H   0  0  0  0  0  0  0  0  0  0  0  0
  138.0796   68.2671  223.5495 H   0  0  0  0  0  0  0  0  0  0  0  0
  139.1669   67.3607  225.6277 H   0  0  0  0  0  0  0  0  0  0  0  0
  140.4081   67.7711  227.6326 H   0  0  0  0  0  0  0  0  0  0  0  0
  141.5492   69.3160  229.1875 H   0  0  0  0  0  0  0  0  0  0  0  0
  141.5865   71.7531  228.6354 H   0  0  0  0  0  0  0  0  0  0  0  0
  140.4998   72.5986  226.5741 H   0  0  0  0  0  0  0  0  0  0  0  0
  1  2  2  0
  2  3  1  0
  3  4  1  0
  4  5  1  0
  5  6  2  0
  5  7  1  0
  7  8  1  0
  8  9  1  0
  9 10  1  0
  9 11  1  0
 11 12  1  0
 12 13  1  0
 13 14  1  0
  2 15  1  0
 15 16  2  0
 16 17  1  0
 17 18  2  0
 18 19  1  0
 19 20  2  0
 20 21  1  0
 21 22  2  0
 22 23  1  0
 23 24  2  0
 12  7  1  0
 24 15  1  0
 23 18  1  0
  3 25  1  0
  4 26  1  0
  4 27  1  0
  8 28  1  0
  8 29  1  0
  9 30  1  1
 11 31  1  0
 11 32  1  0
 12 33  1  6
 13 34  1  0
 13 35  1  0
 14 36  1  0
 16 37  1  0
 17 38  1  0
 19 39  1  0
 20 40  1  0
 21 41  1  0
 22 42  1  0
M  END
>  <smiles>  (18) 
O=C(NCC(=O)N1C[C@H](F)C[C@H]1CO)c1ccc2ccccc2n1

>  <score_type>  (18) 
oracle

>  <origin>  (18) 
autodockgpu

>  <m_score__min__energy>  (18) 
-6.8799999999999999

>  <m_primary>  (18) 
energy

>  <rmsd>  (18) 
2.5743037412100547

>  <m_score__min__rmsd>  (18) 
2.5743037412100547

>  <meeko>  (18) 
{"free_energy": -5.47, "intermolecular_energy": -7.26, "internal_energy": -2.77, "cluster_size": 3, "cluster_id": 6, "rank_in_cluster": 3}

>  <energy>  (18) 
-5.9

>  <cluster_rmsd>  (18) 
1.07

>  <cluster>  (18) 
1

$$$$

     RDKit          3D

 42 44  0  0  0  0  0  0  0  0999 V2000
  139.7650   73.2740  222.6770 O   0  0  0  0  0  0  0  0  0  0  0  0
  140.4830   72.2500  222.8300 C   0  0  0  0  0  0  0  0  0  0  0  0
  141.5470   72.0370  221.8940 N   0  0  0  0  0  0  0  0  0  0  0  0
  141.7660   72.9680  220.8340 C   0  0  0  0  0  0  0  0  0  0  0  0
  143.1410   72.9240  220.2760 C   0  0  0  0  0  0  0  0  0  0  0  0
  143.9690   72.0290  220.4960 O   0  0  0  0  0  0  0  0  0  0  0  0
  143.5260   73.9960  219.4240 N   0  0  0  0  0  0  0  0  0  0  0  0
  143.9760   75.3100  219.8640 C   0  0  0  0  0  0  0  0  0  0  0  0
  143.3830   76.2600  218.8550 C   0  0  2  0  0  0  0  0  0  0  0  0
  142.2090   76.7760  219.3580 F   0  0  0  0  0  0  0  0  0  0  0  0
  143.1690   75.4470  217.5980 C   0  0  0  0  0  0  0  0  0  0  0  0
  143.5650   74.0450  217.9700 C   0  0  1  0  0  0  0  0  0  0  0  0
  144.9760   73.7110  217.5460 C   0  0  0  0  0  0  0  0  0  0  0  0
  145.6350   72.9370  218.4940 O   0  0  0  0  0  0  0  0  0  0  0  0
  140.2700   71.2860  223.9110 C   0  0  0  0  0  0  0  0  0  0  0  0
  139.5020   70.1600  223.6060 C   0  0  0  0  0  0  0  0  0  0  0  0
  139.2630   69.2040  224.5940 C   0  0  0  0  0  0  0  0  0  0  0  0
  139.8020   69.4130  225.8460 C   0  0  0  0  0  0  0  0  0  0  0  0
  139.5810   68.4760  226.8550 C   0  0  0  0  0  0  0  0  0  0  0  0
  140.0960   68.6480  228.1050 C   0  0  0  0  0  0  0  0  0  0  0  0
  140.8510   69.7890  228.3430 C   0  0  0  0  0  0  0  0  0  0  0  0
  141.0720   70.7280  227.3340 C   0  0  0  0  0  0  0  0  0  0  0  0
  140.5490   70.5510  226.0690 C   0  0  0  0  0  0  0  0  0  0  0  0
  140.7820   71.4770  225.1180 N   0  0  0  0  0  0  0  0  0  0  0  0
  142.1390   71.1720  222.0370 H   0  0  0  0  0  0  0  0  0  0  0  0
  141.0553   72.7459  220.0243 H   0  0  0  0  0  0  0  0  0  0  0  0
  141.6217   73.9741  221.2547 H   0  0  0  0  0  0  0  0  0  0  0  0
  143.6034   75.5318  220.8749 H   0  0  0  0  0  0  0  0  0  0  0  0
  145.0721   75.3837  219.9191 H   0  0  0  0  0  0  0  0  0  0  0  0
  144.0334   77.1194  218.6348 H   0  0  0  0  0  0  0  0  0  0  0  0
  142.1136   75.4819  217.2898 H   0  0  0  0  0  0  0  0  0  0  0  0
  143.7568   75.8319  216.7516 H   0  0  0  0  0  0  0  0  0  0  0  0
  142.8884   73.3328  217.4750 H   0  0  0  0  0  0  0  0  0  0  0  0
  144.9397   73.1557  216.5971 H   0  0  0  0  0  0  0  0  0  0  0  0
  145.5295   74.6549  217.4336 H   0  0  0  0  0  0  0  0  0  0  0  0
  144.9800   72.3470  218.9110 H   0  0  0  0  0  0  0  0  0  0  0  0
  139.0889   70.0279  222.5951 H   0  0  0  0  0  0  0  0  0  0  0  0
  138.6613   68.3084  224.3800 H   0  0  0  0  0  0  0  0  0  0  0  0
  138.9795   67.5810  226.6378 H   0  0  0  0  0  0  0  0  0  0  0  0
  139.9195   67.9076  228.8991 H   0  0  0  0  0  0  0  0  0  0  0  0
  141.2813   69.9553  229.3416 H   0  0  0  0  0  0  0  0  0  0  0  0
  141.6728   71.6236  227.5506 H   0  0  0  0  0  0  0  0  0  0  0  0
  1  2  2  0
  2  3  1  0
  3  4  1  0
  4  5  1  0
  5  6  2  0
  5  7  1  0
  7  8  1  0
  8  9  1  0
  9 10  1  0
  9 11  1  0
 11 12  1  0
 12 13  1  0
 13 14  1  0
  2 15  1  0
 15 16  2  0
 16 17  1  0
 17 18  2  0
 18 19  1  0
 19 20  2  0
 20 21  1  0
 21 22  2  0
 22 23  1  0
 23 24  2  0
 12  7  1  0
 24 15  1  0
 23 18  1  0
  3 25  1  0
  4 26  1  0
  4 27  1  0
  8 28  1  0
  8 29  1  0
  9 30  1  6
 11 31  1  0
 11 32  1  0
 12 33  1  6
 13 34  1  0
 13 35  1  0
 14 36  1  0
 16 37  1  0
 17 38  1  0
 19 39  1  0
 20 40  1  0
 21 41  1  0
 22 42  1  0
M  END
>  <smiles>  (19) 
O=C(NCC(=O)N1C[C@H](F)C[C@H]1CO)c1ccc2ccccc2n1

>  <score_type>  (19) 
oracle

>  <origin>  (19) 
autodockgpu

>  <m_score__min__energy>  (19) 
-6.8799999999999999

>  <m_primary>  (19) 
energy

>  <rmsd>  (19) 
3.2724126242271336

>  <m_score__min__rmsd>  (19) 
3.2724126242271336

>  <meeko>  (19) 
{"free_energy": -6.18, "intermolecular_energy": -7.97, "internal_energy": -1.8, "cluster_size": 21, "cluster_id": 1, "rank_in_cluster": 12}

>  <energy>  (19) 
-5.87

>  <cluster_rmsd>  (19) 
1.65

>  <cluster>  (19) 
1

$$$$

     RDKit          3D

 42 44  0  0  0  0  0  0  0  0999 V2000
  138.7010   75.5440  221.6300 O   0  0  0  0  0  0  0  0  0  0  0  0
  139.8790   75.9280  221.8590 C   0  0  0  0  0  0  0  0  0  0  0  0
  140.9430   75.0020  221.6040 N   0  0  0  0  0  0  0  0  0  0  0  0
  140.6530   73.6960  221.1060 C   0  0  0  0  0  0  0  0  0  0  0  0
  141.8350   72.8000  221.0550 C   0  0  0  0  0  0  0  0  0  0  0  0
  141.9030   71.6830  221.5870 O   0  0  0  0  0  0  0  0  0  0  0  0
  142.9710   73.2700  220.3400 N   0  0  0  0  0  0  0  0  0  0  0  0
  143.6510   72.5590  219.2650 C   0  0  0  0  0  0  0  0  0  0  0  0
  145.1090   72.8710  219.4810 C   0  0  2  0  0  0  0  0  0  0  0  0
  145.6910   71.8410  220.1860 F   0  0  0  0  0  0  0  0  0  0  0  0
  145.1440   74.1820  220.2340 C   0  0  0  0  0  0  0  0  0  0  0  0
  143.7020   74.5190  220.4950 C   0  0  1  0  0  0  0  0  0  0  0  0
  143.1430   75.4950  219.4870 C   0  0  0  0  0  0  0  0  0  0  0  0
  142.4810   76.5540  220.0970 O   0  0  0  0  0  0  0  0  0  0  0  0
  140.1930   77.2640  222.3700 C   0  0  0  0  0  0  0  0  0  0  0  0
  139.1100   78.0570  222.7570 C   0  0  0  0  0  0  0  0  0  0  0  0
  139.3420   79.3410  223.2530 C   0  0  0  0  0  0  0  0  0  0  0  0
  140.6480   79.7780  223.3400 C   0  0  0  0  0  0  0  0  0  0  0  0
  140.9120   81.0560  223.8320 C   0  0  0  0  0  0  0  0  0  0  0  0
  142.1880   81.5240  223.9320 C   0  0  0  0  0  0  0  0  0  0  0  0
  143.2200   80.6850  223.5300 C   0  0  0  0  0  0  0  0  0  0  0  0
  142.9550   79.4060  223.0390 C   0  0  0  0  0  0  0  0  0  0  0  0
  141.6620   78.9350  222.9370 C   0  0  0  0  0  0  0  0  0  0  0  0
  141.4420   77.6950  222.4580 N   0  0  0  0  0  0  0  0  0  0  0  0
  141.9250   75.3420  221.8020 H   0  0  0  0  0  0  0  0  0  0  0  0
  139.8965   73.2358  221.7585 H   0  0  0  0  0  0  0  0  0  0  0  0
  140.2978   73.8181  220.0721 H   0  0  0  0  0  0  0  0  0  0  0  0
  143.4688   71.4766  219.3366 H   0  0  0  0  0  0  0  0  0  0  0  0
  143.2978   72.8633  218.2687 H   0  0  0  0  0  0  0  0  0  0  0  0
  145.6745   72.9664  218.5423 H   0  0  0  0  0  0  0  0  0  0  0  0
  145.6923   74.0695  221.1809 H   0  0  0  0  0  0  0  0  0  0  0  0
  145.6567   74.9718  219.6653 H   0  0  0  0  0  0  0  0  0  0  0  0
  143.6109   74.9773  221.4908 H   0  0  0  0  0  0  0  0  0  0  0  0
  143.9710   75.8947  218.8832 H   0  0  0  0  0  0  0  0  0  0  0  0
  142.4164   74.9566  218.8607 H   0  0  0  0  0  0  0  0  0  0  0  0
  142.6540   76.5060  221.0560 H   0  0  0  0  0  0  0  0  0  0  0  0
  138.0828   77.6727  222.6716 H   0  0  0  0  0  0  0  0  0  0  0  0
  138.5076   79.9860  223.5656 H   0  0  0  0  0  0  0  0  0  0  0  0
  140.0752   81.6978  224.1450 H   0  0  0  0  0  0  0  0  0  0  0  0
  142.3942   82.5331  224.3184 H   0  0  0  0  0  0  0  0  0  0  0  0
  144.2608   81.0340  223.5998 H   0  0  0  0  0  0  0  0  0  0  0  0
  143.7910   78.7623  222.7280 H   0  0  0  0  0  0  0  0  0  0  0  0
  1  2  2  0
  2  3  1  0
  3  4  1  0
  4  5  1  0
  5  6  2  0
  5  7  1  0
  7  8  1  0
  8  9  1  0
  9 10  1  0
  9 11  1  0
 11 12  1  0
 12 13  1  0
 13 14  1  0
  2 15  1  0
 15 16  2  0
 16 17  1  0
 17 18  2  0
 18 19  1  0
 19 20  2  0
 20 21  1  0
 21 22  2  0
 22 23  1  0
 23 24  2  0
 12  7  1  0
 24 15  1  0
 23 18  1  0
  3 25  1  0
  4 26  1  0
  4 27  1  0
  8 28  1  0
  8 29  1  0
  9 30  1  6
 11 31  1  0
 11 32  1  0
 12 33  1  1
 13 34  1  0
 13 35  1  0
 14 36  1  0
 16 37  1  0
 17 38  1  0
 19 39  1  0
 20 40  1  0
 21 41  1  0
 22 42  1  0
M  END
>  <smiles>  (20) 
O=C(NCC(=O)N1C[C@H](F)C[C@H]1CO)c1ccc2ccccc2n1

>  <score_type>  (20) 
oracle

>  <origin>  (20) 
autodockgpu

>  <m_score__min__energy>  (20) 
-6.8799999999999999

>  <m_primary>  (20) 
energy

>  <rmsd>  (20) 
7.661571972261337

>  <m_score__min__rmsd>  (20) 
7.661571972261337

>  <meeko>  (20) 
{"free_energy": -6.06, "intermolecular_energy": -7.85, "internal_energy": -2.57, "cluster_size": 12, "cluster_id": 4, "rank_in_cluster": 6}

>  <energy>  (20) 
-5.86

>  <cluster_rmsd>  (20) 
1.61

>  <cluster>  (20) 
1

$$$$

     RDKit          3D

 42 44  0  0  0  0  0  0  0  0999 V2000
  140.4250   71.0630  221.4460 O   0  0  0  0  0  0  0  0  0  0  0  0
  140.0270   71.5490  222.5380 C   0  0  0  0  0  0  0  0  0  0  0  0
  139.6130   72.9210  222.5440 N   0  0  0  0  0  0  0  0  0  0  0  0
  139.6590   73.6890  221.3410 C   0  0  0  0  0  0  0  0  0  0  0  0
  140.8260   74.6010  221.2590 C   0  0  0  0  0  0  0  0  0  0  0  0
  140.8760   75.7380  221.7500 O   0  0  0  0  0  0  0  0  0  0  0  0
  141.9700   74.1240  220.5620 N   0  0  0  0  0  0  0  0  0  0  0  0
  141.9620   73.1270  219.4990 C   0  0  0  0  0  0  0  0  0  0  0  0
  143.2140   72.3220  219.7390 C   0  0  2  0  0  0  0  0  0  0  0  0
  142.8910   71.1900  220.4550 F   0  0  0  0  0  0  0  0  0  0  0  0
  144.1550   73.2360  220.4900 C   0  0  0  0  0  0  0  0  0  0  0  0
  143.3680   74.4950  220.7270 C   0  0  1  0  0  0  0  0  0  0  0  0
  143.6720   75.5680  219.7080 C   0  0  0  0  0  0  0  0  0  0  0  0
  142.9910   76.7500  219.9770 O   0  0  0  0  0  0  0  0  0  0  0  0
  139.9750   70.7750  223.7790 C   0  0  0  0  0  0  0  0  0  0  0  0
  139.2990   69.5540  223.7280 C   0  0  0  0  0  0  0  0  0  0  0  0
  139.2140   68.7670  224.8780 C   0  0  0  0  0  0  0  0  0  0  0  0
  139.8080   69.2360  226.0320 C   0  0  0  0  0  0  0  0  0  0  0  0
  139.7400   68.4730  227.1970 C   0  0  0  0  0  0  0  0  0  0  0  0
  140.3130   68.9020  228.3570 C   0  0  0  0  0  0  0  0  0  0  0  0
  140.9710   70.1260  228.3400 C   0  0  0  0  0  0  0  0  0  0  0  0
  141.0380   70.8890  227.1740 C   0  0  0  0  0  0  0  0  0  0  0  0
  140.4560   70.4530  226.0020 C   0  0  0  0  0  0  0  0  0  0  0  0
  140.5410   71.2140  224.8930 N   0  0  0  0  0  0  0  0  0  0  0  0
  139.2820   73.3130  223.4690 H   0  0  0  0  0  0  0  0  0  0  0  0
  139.6996   72.9957  220.4879 H   0  0  0  0  0  0  0  0  0  0  0  0
  138.7575   74.3192  221.3277 H   0  0  0  0  0  0  0  0  0  0  0  0
  141.0685   72.4892  219.5688 H   0  0  0  0  0  0  0  0  0  0  0  0
  141.9371   73.5794  218.4966 H   0  0  0  0  0  0  0  0  0  0  0  0
  143.6931   71.9786  218.8103 H   0  0  0  0  0  0  0  0  0  0  0  0
  144.4545   72.7816  221.4459 H   0  0  0  0  0  0  0  0  0  0  0  0
  145.0812   73.4273  219.9283 H   0  0  0  0  0  0  0  0  0  0  0  0
  143.6157   74.8964  221.7208 H   0  0  0  0  0  0  0  0  0  0  0  0
  144.7531   75.7709  219.7178 H   0  0  0  0  0  0  0  0  0  0  0  0
  143.3443   75.2038  218.7231 H   0  0  0  0  0  0  0  0  0  0  0  0
  142.6090   76.6820  220.8710 H   0  0  0  0  0  0  0  0  0  0  0  0
  138.8371   69.2150  222.7890 H   0  0  0  0  0  0  0  0  0  0  0  0
  138.6886   67.8007  224.8647 H   0  0  0  0  0  0  0  0  0  0  0  0
  139.2142   67.5070  227.1797 H   0  0  0  0  0  0  0  0  0  0  0  0
  140.2565   68.2997  229.2757 H   0  0  0  0  0  0  0  0  0  0  0  0
  141.4460   70.4987  229.2595 H   0  0  0  0  0  0  0  0  0  0  0  0
  141.5640   71.8549  227.1896 H   0  0  0  0  0  0  0  0  0  0  0  0
  1  2  2  0
  2  3  1  0
  3  4  1  0
  4  5  1  0
  5  6  2  0
  5  7  1  0
  7  8  1  0
  8  9  1  0
  9 10  1  0
  9 11  1  0
 11 12  1  0
 12 13  1  0
 13 14  1  0
  2 15  1  0
 15 16  2  0
 16 17  1  0
 17 18  2  0
 18 19  1  0
 19 20  2  0
 20 21  1  0
 21 22  2  0
 22 23  1  0
 23 24  2  0
 12  7  1  0
 24 15  1  0
 23 18  1  0
  3 25  1  0
  4 26  1  0
  4 27  1  0
  8 28  1  0
  8 29  1  0
  9 30  1  6
 11 31  1  0
 11 32  1  0
 12 33  1  1
 13 34  1  0
 13 35  1  0
 14 36  1  0
 16 37  1  0
 17 38  1  0
 19 39  1  0
 20 40  1  0
 21 41  1  0
 22 42  1  0
M  END
>  <smiles>  (21) 
O=C(NCC(=O)N1C[C@H](F)C[C@H]1CO)c1ccc2ccccc2n1

>  <score_type>  (21) 
oracle

>  <origin>  (21) 
autodockgpu

>  <m_score__min__energy>  (21) 
-6.8799999999999999

>  <m_primary>  (21) 
energy

>  <rmsd>  (21) 
2.7566116636801206

>  <m_score__min__rmsd>  (21) 
2.7566116636801206

>  <meeko>  (21) 
{"free_energy": -6.48, "intermolecular_energy": -8.27, "internal_energy": -1.93, "cluster_size": 21, "cluster_id": 1, "rank_in_cluster": 5}

>  <energy>  (21) 
-5.6

>  <cluster_rmsd>  (21) 
1.76

>  <cluster>  (21) 
1

$$$$

     RDKit          3D

 42 44  0  0  0  0  0  0  0  0999 V2000
  139.2970   71.0360  221.5110 O   0  0  0  0  0  0  0  0  0  0  0  0
  139.5450   71.5370  222.6400 C   0  0  0  0  0  0  0  0  0  0  0  0
  139.7010   72.9590  222.7190 N   0  0  0  0  0  0  0  0  0  0  0  0
  139.5730   73.7600  221.5430 C   0  0  0  0  0  0  0  0  0  0  0  0
  140.2400   75.0810  221.6460 C   0  0  0  0  0  0  0  0  0  0  0  0
  141.4570   75.2750  221.5230 O   0  0  0  0  0  0  0  0  0  0  0  0
  139.4080   76.2050  221.9070 N   0  0  0  0  0  0  0  0  0  0  0  0
  138.1840   76.1900  222.6980 C   0  0  0  0  0  0  0  0  0  0  0  0
  137.2670   77.1460  221.9780 C   0  0  2  0  0  0  0  0  0  0  0  0
  136.4350   76.4320  221.1450 F   0  0  0  0  0  0  0  0  0  0  0  0
  138.1710   78.0940  221.2220 C   0  0  0  0  0  0  0  0  0  0  0  0
  139.5640   77.5850  221.4700 C   0  0  1  0  0  0  0  0  0  0  0  0
  140.2650   78.3320  222.5810 C   0  0  0  0  0  0  0  0  0  0  0  0
  141.6450   78.1770  222.5240 O   0  0  0  0  0  0  0  0  0  0  0  0
  139.6790   70.7290  223.8550 C   0  0  0  0  0  0  0  0  0  0  0  0
  139.1930   69.4210  223.7950 C   0  0  0  0  0  0  0  0  0  0  0  0
  139.2910   68.6000  224.9180 C   0  0  0  0  0  0  0  0  0  0  0  0
  139.8700   69.1210  226.0560 C   0  0  0  0  0  0  0  0  0  0  0  0
  139.9820   68.3250  227.1960 C   0  0  0  0  0  0  0  0  0  0  0  0
  140.5480   68.8040  228.3400 C   0  0  0  0  0  0  0  0  0  0  0  0
  141.0110   70.1140  228.3340 C   0  0  0  0  0  0  0  0  0  0  0  0
  140.8990   70.9110  227.1930 C   0  0  0  0  0  0  0  0  0  0  0  0
  140.3250   70.4230  226.0370 C   0  0  0  0  0  0  0  0  0  0  0  0
  140.2330   71.2190  224.9540 N   0  0  0  0  0  0  0  0  0  0  0  0
  139.9090   73.3620  223.6740 H   0  0  0  0  0  0  0  0  0  0  0  0
  140.0171   73.2116  220.6992 H   0  0  0  0  0  0  0  0  0  0  0  0
  138.4994   73.9522  221.4001 H   0  0  0  0  0  0  0  0  0  0  0  0
  137.7500   75.1796  222.7262 H   0  0  0  0  0  0  0  0  0  0  0  0
  138.3555   76.4787  223.7455 H   0  0  0  0  0  0  0  0  0  0  0  0
  136.6155   77.7154  222.6572 H   0  0  0  0  0  0  0  0  0  0  0  0
  137.9383   78.0754  220.1471 H   0  0  0  0  0  0  0  0  0  0  0  0
  138.0468   79.1355  221.5533 H   0  0  0  0  0  0  0  0  0  0  0  0
  140.1627   77.7059  220.5552 H   0  0  0  0  0  0  0  0  0  0  0  0
  140.0242   79.4020  222.4963 H   0  0  0  0  0  0  0  0  0  0  0  0
  139.9166   77.9198  223.5395 H   0  0  0  0  0  0  0  0  0  0  0  0
  141.8340   77.2750  222.2050 H   0  0  0  0  0  0  0  0  0  0  0  0
  138.7364   69.0413  222.8690 H   0  0  0  0  0  0  0  0  0  0  0  0
  138.9169   67.5658  224.8967 H   0  0  0  0  0  0  0  0  0  0  0  0
  139.6066   67.2913  227.1715 H   0  0  0  0  0  0  0  0  0  0  0  0
  140.6352   68.1744  229.2378 H   0  0  0  0  0  0  0  0  0  0  0  0
  141.4728   70.5295  229.2418 H   0  0  0  0  0  0  0  0  0  0  0  0
  141.2745   71.9447  227.2160 H   0  0  0  0  0  0  0  0  0  0  0  0
  1  2  2  0
  2  3  1  0
  3  4  1  0
  4  5  1  0
  5  6  2  0
  5  7  1  0
  7  8  1  0
  8  9  1  0
  9 10  1  0
  9 11  1  0
 11 12  1  0
 12 13  1  0
 13 14  1  0
  2 15  1  0
 15 16  2  0
 16 17  1  0
 17 18  2  0
 18 19  1  0
 19 20  2  0
 20 21  1  0
 21 22  2  0
 22 23  1  0
 23 24  2  0
 12  7  1  0
 24 15  1  0
 23 18  1  0
  3 25  1  0
  4 26  1  0
  4 27  1  0
  8 28  1  0
  8 29  1  0
  9 30  1  1
 11 31  1  0
 11 32  1  0
 12 33  1  6
 13 34  1  0
 13 35  1  0
 14 36  1  0
 16 37  1  0
 17 38  1  0
 19 39  1  0
 20 40  1  0
 21 41  1  0
 22 42  1  0
M  END
>  <smiles>  (22) 
O=C(NCC(=O)N1C[C@H](F)C[C@H]1CO)c1ccc2ccccc2n1

>  <score_type>  (22) 
oracle

>  <origin>  (22) 
autodockgpu

>  <m_score__min__energy>  (22) 
-6.8799999999999999

>  <m_primary>  (22) 
energy

>  <rmsd>  (22) 
2.593434572004133

>  <m_score__min__rmsd>  (22) 
2.593434572004133

>  <meeko>  (22) 
{"free_energy": -6.18, "intermolecular_energy": -7.97, "internal_energy": -1.85, "cluster_size": 10, "cluster_id": 2, "rank_in_cluster": 4}

>  <energy>  (22) 
-6.63

>  <cluster_rmsd>  (22) 
0.0

>  <cluster>  (22) 
2

$$$$

     RDKit          3D

 42 44  0  0  0  0  0  0  0  0999 V2000
  140.2150   71.3440  221.2610 O   0  0  0  0  0  0  0  0  0  0  0  0
  140.0210   71.9370  222.3560 C   0  0  0  0  0  0  0  0  0  0  0  0
  139.7540   73.3440  222.3130 N   0  0  0  0  0  0  0  0  0  0  0  0
  139.7110   74.0290  221.0610 C   0  0  0  0  0  0  0  0  0  0  0  0
  141.0200   74.5880  220.6420 C   0  0  0  0  0  0  0  0  0  0  0  0
  141.3320   75.7860  220.6980 O   0  0  0  0  0  0  0  0  0  0  0  0
  141.9830   73.6700  220.1380 N   0  0  0  0  0  0  0  0  0  0  0  0
  142.1260   73.2700  218.7440 C   0  0  0  0  0  0  0  0  0  0  0  0
  142.4820   71.8060  218.8150 C   0  0  2  0  0  0  0  0  0  0  0  0
  141.3380   71.0560  218.6490 F   0  0  0  0  0  0  0  0  0  0  0  0
  143.1170   71.6020  220.1720 C   0  0  0  0  0  0  0  0  0  0  0  0
  143.0170   72.9380  220.8550 C   0  0  1  0  0  0  0  0  0  0  0  0
  144.2920   73.7400  220.7480 C   0  0  0  0  0  0  0  0  0  0  0  0
  144.0490   75.0600  220.3870 O   0  0  0  0  0  0  0  0  0  0  0  0
  140.0620   71.2500  223.6480 C   0  0  0  0  0  0  0  0  0  0  0  0
  139.5720   69.9420  223.6780 C   0  0  0  0  0  0  0  0  0  0  0  0
  139.5830   69.2320  224.8790 C   0  0  0  0  0  0  0  0  0  0  0  0
  140.0830   69.8600  226.0010 C   0  0  0  0  0  0  0  0  0  0  0  0
  140.1070   69.1760  227.2170 C   0  0  0  0  0  0  0  0  0  0  0  0
  140.5930   69.7630  228.3480 C   0  0  0  0  0  0  0  0  0  0  0  0
  141.0650   71.0660  228.2490 C   0  0  0  0  0  0  0  0  0  0  0  0
  141.0410   71.7500  227.0330 C   0  0  0  0  0  0  0  0  0  0  0  0
  140.5480   71.1540  225.8900 C   0  0  0  0  0  0  0  0  0  0  0  0
  140.5390   71.8420  224.7320 N   0  0  0  0  0  0  0  0  0  0  0  0
  139.5940   73.8250  223.2420 H   0  0  0  0  0  0  0  0  0  0  0  0
  139.3724   73.3217  220.2896 H   0  0  0  0  0  0  0  0  0  0  0  0
  139.0227   74.8784  221.1826 H   0  0  0  0  0  0  0  0  0  0  0  0
  141.1828   73.4163  218.1972 H   0  0  0  0  0  0  0  0  0  0  0  0
  142.8836   73.8629  218.2107 H   0  0  0  0  0  0  0  0  0  0  0  0
  143.1806   71.4910  218.0259 H   0  0  0  0  0  0  0  0  0  0  0  0
  142.5724   70.8349  220.7421 H   0  0  0  0  0  0  0  0  0  0  0  0
  144.1582   71.2562  220.0925 H   0  0  0  0  0  0  0  0  0  0  0  0
  142.8064   72.7852  221.9238 H   0  0  0  0  0  0  0  0  0  0  0  0
  144.8026   73.7267  221.7222 H   0  0  0  0  0  0  0  0  0  0  0  0
  144.9155   73.2833  219.9652 H   0  0  0  0  0  0  0  0  0  0  0  0
  143.3750   75.4190  220.9920 H   0  0  0  0  0  0  0  0  0  0  0  0
  139.1806   69.4756  222.7619 H   0  0  0  0  0  0  0  0  0  0  0  0
  139.2037   68.2007  224.9298 H   0  0  0  0  0  0  0  0  0  0  0  0
  139.7271   68.1448  227.2642 H   0  0  0  0  0  0  0  0  0  0  0  0
  140.6107   69.2231  229.3062 H   0  0  0  0  0  0  0  0  0  0  0  0
  141.4640   71.5665  229.1436 H   0  0  0  0  0  0  0  0  0  0  0  0
  141.4212   72.7811  226.9846 H   0  0  0  0  0  0  0  0  0  0  0  0
  1  2  2  0
  2  3  1  0
  3  4  1  0
  4  5  1  0
  5  6  2  0
  5  7  1  0
  7  8  1  0
  8  9  1  0
  9 10  1  0
  9 11  1  0
 11 12  1  0
 12 13  1  0
 13 14  1  0
  2 15  1  0
 15 16  2  0
 16 17  1  0
 17 18  2  0
 18 19  1  0
 19 20  2  0
 20 21  1  0
 21 22  2  0
 22 23  1  0
 23 24  2  0
 12  7  1  0
 24 15  1  0
 23 18  1  0
  3 25  1  0
  4 26  1  0
  4 27  1  0
  8 28  1  0
  8 29  1  0
  9 30  1  6
 11 31  1  0
 11 32  1  0
 12 33  1  1
 13 34  1  0
 13 35  1  0
 14 36  1  0
 16 37  1  0
 17 38  1  0
 19 39  1  0
 20 40  1  0
 21 41  1  0
 22 42  1  0
M  END
>  <smiles>  (23) 
O=C(NCC(=O)N1C[C@H](F)C[C@H]1CO)c1ccc2ccccc2n1

>  <score_type>  (23) 
oracle

>  <origin>  (23) 
autodockgpu

>  <m_score__min__energy>  (23) 
-6.8799999999999999

>  <m_primary>  (23) 
energy

>  <rmsd>  (23) 
3.089912400349572

>  <m_score__min__rmsd>  (23) 
3.089912400349572

>  <meeko>  (23) 
{"free_energy": -5.86, "intermolecular_energy": -7.65, "internal_energy": -2.2, "cluster_size": 21, "cluster_id": 1, "rank_in_cluster": 20}

>  <energy>  (23) 
-6.58

>  <cluster_rmsd>  (23) 
1.52

>  <cluster>  (23) 
2

$$$$

     RDKit          3D

 42 44  0  0  0  0  0  0  0  0999 V2000
  139.0440   74.9300  221.9600 O   0  0  0  0  0  0  0  0  0  0  0  0
  140.1460   75.5400  221.9580 C   0  0  0  0  0  0  0  0  0  0  0  0
  141.3200   74.7930  221.6140 N   0  0  0  0  0  0  0  0  0  0  0  0
  141.2170   73.4070  221.2890 C   0  0  0  0  0  0  0  0  0  0  0  0
  141.8130   73.0560  219.9760 C   0  0  0  0  0  0  0  0  0  0  0  0
  141.2490   72.3960  219.0930 O   0  0  0  0  0  0  0  0  0  0  0  0
  143.1350   73.5190  219.7220 N   0  0  0  0  0  0  0  0  0  0  0  0
  144.0510   72.9670  218.7330 C   0  0  0  0  0  0  0  0  0  0  0  0
  145.4020   73.0430  219.3990 C   0  0  2  0  0  0  0  0  0  0  0  0
  145.6900   71.8230  219.9710 F   0  0  0  0  0  0  0  0  0  0  0  0
  145.2970   74.1530  220.4210 C   0  0  0  0  0  0  0  0  0  0  0  0
  143.8640   74.6060  220.3580 C   0  0  1  0  0  0  0  0  0  0  0  0
  143.6830   75.8330  219.4960 C   0  0  0  0  0  0  0  0  0  0  0  0
  142.9030   76.7990  220.1220 O   0  0  0  0  0  0  0  0  0  0  0  0
  140.2670   76.9610  222.2890 C   0  0  0  0  0  0  0  0  0  0  0  0
  139.0760   77.6770  222.4250 C   0  0  0  0  0  0  0  0  0  0  0  0
  139.1230   79.0360  222.7400 C   0  0  0  0  0  0  0  0  0  0  0  0
  140.3610   79.6220  222.9060 C   0  0  0  0  0  0  0  0  0  0  0  0
  140.4410   80.9790  223.2210 C   0  0  0  0  0  0  0  0  0  0  0  0
  141.6460   81.5940  223.3920 C   0  0  0  0  0  0  0  0  0  0  0  0
  142.7930   80.8250  223.2430 C   0  0  0  0  0  0  0  0  0  0  0  0
  142.7120   79.4680  222.9270 C   0  0  0  0  0  0  0  0  0  0  0  0
  141.4920   78.8480  222.7540 C   0  0  0  0  0  0  0  0  0  0  0  0
  141.4500   77.5360  222.4500 N   0  0  0  0  0  0  0  0  0  0  0  0
  142.2360   75.3210  221.6170 H   0  0  0  0  0  0  0  0  0  0  0  0
  141.7318   72.8280  222.0699 H   0  0  0  0  0  0  0  0  0  0  0  0
  140.1445   73.1699  221.2288 H   0  0  0  0  0  0  0  0  0  0  0  0
  143.7898   71.9247  218.4979 H   0  0  0  0  0  0  0  0  0  0  0  0
  144.0200   73.5126  217.7784 H   0  0  0  0  0  0  0  0  0  0  0  0
  146.2200   73.2614  218.6967 H   0  0  0  0  0  0  0  0  0  0  0  0
  145.5399   73.7775  221.4260 H   0  0  0  0  0  0  0  0  0  0  0  0
  145.9993   74.9737  220.2132 H   0  0  0  0  0  0  0  0  0  0  0  0
  143.5157   74.8535  221.3717 H   0  0  0  0  0  0  0  0  0  0  0  0
  144.6719   76.2622  219.2770 H   0  0  0  0  0  0  0  0  0  0  0  0
  143.1688   75.5269  218.5730 H   0  0  0  0  0  0  0  0  0  0  0  0
  142.6230   76.4470  220.9860 H   0  0  0  0  0  0  0  0  0  0  0  0
  138.1079   77.1738  222.2849 H   0  0  0  0  0  0  0  0  0  0  0  0
  138.1995   79.6229  222.8527 H   0  0  0  0  0  0  0  0  0  0  0  0
  139.5156   81.5630  223.3334 H   0  0  0  0  0  0  0  0  0  0  0  0
  141.7076   82.6640  223.6398 H   0  0  0  0  0  0  0  0  0  0  0  0
  143.7798   81.2924  223.3760 H   0  0  0  0  0  0  0  0  0  0  0  0
  143.6367   78.8830  222.8140 H   0  0  0  0  0  0  0  0  0  0  0  0
  1  2  2  0
  2  3  1  0
  3  4  1  0
  4  5  1  0
  5  6  2  0
  5  7  1  0
  7  8  1  0
  8  9  1  0
  9 10  1  0
  9 11  1  0
 11 12  1  0
 12 13  1  0
 13 14  1  0
  2 15  1  0
 15 16  2  0
 16 17  1  0
 17 18  2  0
 18 19  1  0
 19 20  2  0
 20 21  1  0
 21 22  2  0
 22 23  1  0
 23 24  2  0
 12  7  1  0
 24 15  1  0
 23 18  1  0
  3 25  1  0
  4 26  1  0
  4 27  1  0
  8 28  1  0
  8 29  1  0
  9 30  1  6
 11 31  1  0
 11 32  1  0
 12 33  1  1
 13 34  1  0
 13 35  1  0
 14 36  1  0
 16 37  1  0
 17 38  1  0
 19 39  1  0
 20 40  1  0
 21 41  1  0
 22 42  1  0
M  END
>  <smiles>  (24) 
O=C(NCC(=O)N1C[C@H](F)C[C@H]1CO)c1ccc2ccccc2n1

>  <score_type>  (24) 
oracle

>  <origin>  (24) 
autodockgpu

>  <m_score__min__energy>  (24) 
-6.8799999999999999

>  <m_primary>  (24) 
energy

>  <rmsd>  (24) 
7.692397822679905

>  <m_score__min__rmsd>  (24) 
7.692397822679905

>  <meeko>  (24) 
{"free_energy": -5.97, "intermolecular_energy": -7.76, "internal_energy": -2.52, "cluster_size": 12, "cluster_id": 4, "rank_in_cluster": 9}

>  <energy>  (24) 
-6.46

>  <cluster_rmsd>  (24) 
0.49

>  <cluster>  (24) 
2

$$$$

     RDKit          3D

 42 44  0  0  0  0  0  0  0  0999 V2000
  140.4520   71.1140  221.3190 O   0  0  0  0  0  0  0  0  0  0  0  0
  140.1400   71.6780  222.4010 C   0  0  0  0  0  0  0  0  0  0  0  0
  139.8640   73.0840  222.3640 N   0  0  0  0  0  0  0  0  0  0  0  0
  139.9460   73.7980  221.1300 C   0  0  0  0  0  0  0  0  0  0  0  0
  140.2600   75.2390  221.2950 C   0  0  0  0  0  0  0  0  0  0  0  0
  140.2270   75.8550  222.3680 O   0  0  0  0  0  0  0  0  0  0  0  0
  140.6260   75.9570  220.1230 N   0  0  0  0  0  0  0  0  0  0  0  0
  139.7200   76.3550  219.0530 C   0  0  0  0  0  0  0  0  0  0  0  0
  140.5350   76.1860  217.7970 C   0  0  2  0  0  0  0  0  0  0  0  0
  140.2500   74.9600  217.2360 F   0  0  0  0  0  0  0  0  0  0  0  0
  141.9810   76.3070  218.2230 C   0  0  0  0  0  0  0  0  0  0  0  0
  141.9350   76.4510  219.7190 C   0  0  1  0  0  0  0  0  0  0  0  0
  142.0290   77.8910  220.1660 C   0  0  0  0  0  0  0  0  0  0  0  0
  141.7700   78.0340  221.5240 O   0  0  0  0  0  0  0  0  0  0  0  0
  140.0530   70.9590  223.6740 C   0  0  0  0  0  0  0  0  0  0  0  0
  139.5370   69.6620  223.6270 C   0  0  0  0  0  0  0  0  0  0  0  0
  139.4280   68.9240  224.8060 C   0  0  0  0  0  0  0  0  0  0  0  0
  139.8380   69.5140  225.9840 C   0  0  0  0  0  0  0  0  0  0  0  0
  139.7420   68.8020  227.1790 C   0  0  0  0  0  0  0  0  0  0  0  0
  140.1360   69.3510  228.3630 C   0  0  0  0  0  0  0  0  0  0  0  0
  140.6400   70.6460  228.3400 C   0  0  0  0  0  0  0  0  0  0  0  0
  140.7360   71.3590  227.1440 C   0  0  0  0  0  0  0  0  0  0  0  0
  140.3360   70.8000  225.9470 C   0  0  0  0  0  0  0  0  0  0  0  0
  140.4430   71.5160  224.8110 N   0  0  0  0  0  0  0  0  0  0  0  0
  139.6050   73.5410  223.2820 H   0  0  0  0  0  0  0  0  0  0  0  0
  140.7339   73.3390  220.5148 H   0  0  0  0  0  0  0  0  0  0  0  0
  138.9551   73.7368  220.6564 H   0  0  0  0  0  0  0  0  0  0  0  0
  138.8320   75.7062  219.0321 H   0  0  0  0  0  0  0  0  0  0  0  0
  139.3459   77.3819  219.1777 H   0  0  0  0  0  0  0  0  0  0  0  0
  140.3092   76.9414  217.0300 H   0  0  0  0  0  0  0  0  0  0  0  0
  142.5446   75.4062  217.9384 H   0  0  0  0  0  0  0  0  0  0  0  0
  142.4839   77.1584  217.7412 H   0  0  0  0  0  0  0  0  0  0  0  0
  142.7819   75.9065  220.1620 H   0  0  0  0  0  0  0  0  0  0  0  0
  143.0433   78.2619  219.9572 H   0  0  0  0  0  0  0  0  0  0  0  0
  141.2722   78.4676  219.6139 H   0  0  0  0  0  0  0  0  0  0  0  0
  141.8810   77.1620  221.9460 H   0  0  0  0  0  0  0  0  0  0  0  0
  139.2192   69.2260  222.6684 H   0  0  0  0  0  0  0  0  0  0  0  0
  139.0263   67.9000  224.7967 H   0  0  0  0  0  0  0  0  0  0  0  0
  139.3407   67.7779  227.1661 H   0  0  0  0  0  0  0  0  0  0  0  0
  140.0577   68.7880  229.3048 H   0  0  0  0  0  0  0  0  0  0  0  0
  140.9682   71.1162  229.2787 H   0  0  0  0  0  0  0  0  0  0  0  0
  141.1370   72.3832  227.1555 H   0  0  0  0  0  0  0  0  0  0  0  0
  1  2  2  0
  2  3  1  0
  3  4  1  0
  4  5  1  0
  5  6  2  0
  5  7  1  0
  7  8  1  0
  8  9  1  0
  9 10  1  0
  9 11  1  0
 11 12  1  0
 12 13  1  0
 13 14  1  0
  2 15  1  0
 15 16  2  0
 16 17  1  0
 17 18  2  0
 18 19  1  0
 19 20  2  0
 20 21  1  0
 21 22  2  0
 22 23  1  0
 23 24  2  0
 12  7  1  0
 24 15  1  0
 23 18  1  0
  3 25  1  0
  4 26  1  0
  4 27  1  0
  8 28  1  0
  8 29  1  0
  9 30  1  6
 11 31  1  0
 11 32  1  0
 12 33  1  1
 13 34  1  0
 13 35  1  0
 14 36  1  0
 16 37  1  0
 17 38  1  0
 19 39  1  0
 20 40  1  0
 21 41  1  0
 22 42  1  0
M  END
>  <smiles>  (25) 
O=C(NCC(=O)N1C[C@H](F)C[C@H]1CO)c1ccc2ccccc2n1

>  <score_type>  (25) 
oracle

>  <origin>  (25) 
autodockgpu

>  <m_score__min__energy>  (25) 
-6.8799999999999999

>  <m_primary>  (25) 
energy

>  <rmsd>  (25) 
1.3253048855548901

>  <m_score__min__rmsd>  (25) 
1.3253048855548901

>  <meeko>  (25) 
{"free_energy": -6.11, "intermolecular_energy": -7.9, "internal_energy": -1.91, "cluster_size": 21, "cluster_id": 1, "rank_in_cluster": 16}

>  <energy>  (25) 
-6.18

>  <cluster_rmsd>  (25) 
0.8

>  <cluster>  (25) 
2

$$$$

     RDKit          3D

 42 44  0  0  0  0  0  0  0  0999 V2000
  139.3570   71.0240  221.4720 O   0  0  0  0  0  0  0  0  0  0  0  0
  139.5280   71.5220  222.6160 C   0  0  0  0  0  0  0  0  0  0  0  0
  139.5800   72.9500  222.7200 N   0  0  0  0  0  0  0  0  0  0  0  0
  139.4400   73.7600  221.5520 C   0  0  0  0  0  0  0  0  0  0  0  0
  140.4290   74.8630  221.4680 C   0  0  0  0  0  0  0  0  0  0  0  0
  141.6530   74.7320  221.6090 O   0  0  0  0  0  0  0  0  0  0  0  0
  139.9220   76.1650  221.2050 N   0  0  0  0  0  0  0  0  0  0  0  0
  138.5150   76.5460  221.2100 C   0  0  0  0  0  0  0  0  0  0  0  0
  138.3980   77.5390  220.0810 C   0  0  2  0  0  0  0  0  0  0  0  0
  137.9550   76.8860  218.9520 F   0  0  0  0  0  0  0  0  0  0  0  0
  139.7790   78.1290  219.9060 C   0  0  0  0  0  0  0  0  0  0  0  0
  140.6480   77.3850  220.8820 C   0  0  1  0  0  0  0  0  0  0  0  0
  140.8500   78.1430  222.1730 C   0  0  0  0  0  0  0  0  0  0  0  0
  141.4280   77.3510  223.1580 O   0  0  0  0  0  0  0  0  0  0  0  0
  139.6730   70.7050  223.8230 C   0  0  0  0  0  0  0  0  0  0  0  0
  139.2070   69.3910  223.7510 C   0  0  0  0  0  0  0  0  0  0  0  0
  139.3160   68.5610  224.8670 C   0  0  0  0  0  0  0  0  0  0  0  0
  139.8880   69.0800  226.0100 C   0  0  0  0  0  0  0  0  0  0  0  0
  140.0120   68.2760  227.1430 C   0  0  0  0  0  0  0  0  0  0  0  0
  140.5710   68.7530  228.2910 C   0  0  0  0  0  0  0  0  0  0  0  0
  141.0150   70.0690  228.2960 C   0  0  0  0  0  0  0  0  0  0  0  0
  140.8910   70.8740  227.1630 C   0  0  0  0  0  0  0  0  0  0  0  0
  140.3240   70.3890  226.0030 C   0  0  0  0  0  0  0  0  0  0  0  0
  140.2200   71.1930  224.9270 N   0  0  0  0  0  0  0  0  0  0  0  0
  139.7240   73.3510  223.6890 H   0  0  0  0  0  0  0  0  0  0  0  0
  139.5607   73.1174  220.6674 H   0  0  0  0  0  0  0  0  0  0  0  0
  138.4442   74.2247  221.6010 H   0  0  0  0  0  0  0  0  0  0  0  0
  137.8731   75.6713  221.0287 H   0  0  0  0  0  0  0  0  0  0  0  0
  138.1949   76.9651  222.1753 H   0  0  0  0  0  0  0  0  0  0  0  0
  137.6739   78.3420  220.2830 H   0  0  0  0  0  0  0  0  0  0  0  0
  140.1364   77.9773  218.8768 H   0  0  0  0  0  0  0  0  0  0  0  0
  139.7903   79.2139  220.0872 H   0  0  0  0  0  0  0  0  0  0  0  0
  141.6383   77.2184  220.4331 H   0  0  0  0  0  0  0  0  0  0  0  0
  141.5062   79.0045  221.9798 H   0  0  0  0  0  0  0  0  0  0  0  0
  139.8628   78.4671  222.5342 H   0  0  0  0  0  0  0  0  0  0  0  0
  141.8500   76.5880  222.7220 H   0  0  0  0  0  0  0  0  0  0  0  0
  138.7572   69.0129  222.8211 H   0  0  0  0  0  0  0  0  0  0  0  0
  138.9560   67.5220  224.8364 H   0  0  0  0  0  0  0  0  0  0  0  0
  139.6518   67.2372  227.1095 H   0  0  0  0  0  0  0  0  0  0  0  0
  140.6672   68.1171  229.1834 H   0  0  0  0  0  0  0  0  0  0  0  0
  141.4714   70.4831  229.2072 H   0  0  0  0  0  0  0  0  0  0  0  0
  141.2515   71.9127  227.1955 H   0  0  0  0  0  0  0  0  0  0  0  0
  1  2  2  0
  2  3  1  0
  3  4  1  0
  4  5  1  0
  5  6  2  0
  5  7  1  0
  7  8  1  0
  8  9  1  0
  9 10  1  0
  9 11  1  0
 11 12  1  0
 12 13  1  0
 13 14  1  0
  2 15  1  0
 15 16  2  0
 16 17  1  0
 17 18  2  0
 18 19  1  0
 19 20  2  0
 20 21  1  0
 21 22  2  0
 22 23  1  0
 23 24  2  0
 12  7  1  0
 24 15  1  0
 23 18  1  0
  3 25  1  0
  4 26  1  0
  4 27  1  0
  8 28  1  0
  8 29  1  0
  9 30  1  1
 11 31  1  0
 11 32  1  0
 12 33  1  6
 13 34  1  0
 13 35  1  0
 14 36  1  0
 16 37  1  0
 17 38  1  0
 19 39  1  0
 20 40  1  0
 21 41  1  0
 22 42  1  0
M  END
>  <smiles>  (26) 
O=C(NCC(=O)N1C[C@H](F)C[C@H]1CO)c1ccc2ccccc2n1

>  <score_type>  (26) 
oracle

>  <origin>  (26) 
autodockgpu

>  <m_score__min__energy>  (26) 
-6.8799999999999999

>  <m_primary>  (26) 
energy

>  <rmsd>  (26) 
1.7926050850532613

>  <m_score__min__rmsd>  (26) 
1.7926050850532613

>  <meeko>  (26) 
{"free_energy": -6.02, "intermolecular_energy": -7.81, "internal_energy": -1.86, "cluster_size": 10, "cluster_id": 2, "rank_in_cluster": 5}

>  <energy>  (26) 
-6.02

>  <cluster_rmsd>  (26) 
1.17

>  <cluster>  (26) 
2

$$$$

     RDKit          3D

 42 44  0  0  0  0  0  0  0  0999 V2000
  139.7150   71.2510  221.2980 O   0  0  0  0  0  0  0  0  0  0  0  0
  139.7300   71.8500  222.4060 C   0  0  0  0  0  0  0  0  0  0  0  0
  139.6060   73.2770  222.3940 N   0  0  0  0  0  0  0  0  0  0  0  0
  139.4710   73.9750  221.1560 C   0  0  0  0  0  0  0  0  0  0  0  0
  140.6670   74.7710  220.7860 C   0  0  0  0  0  0  0  0  0  0  0  0
  140.7370   76.0070  220.8240 O   0  0  0  0  0  0  0  0  0  0  0  0
  141.8150   74.0500  220.3550 N   0  0  0  0  0  0  0  0  0  0  0  0
  141.8320   73.0180  219.3270 C   0  0  0  0  0  0  0  0  0  0  0  0
  142.8240   72.0040  219.8380 C   0  0  2  0  0  0  0  0  0  0  0  0
  142.1430   70.9930  220.4810 F   0  0  0  0  0  0  0  0  0  0  0  0
  143.7480   72.7610  220.7640 C   0  0  0  0  0  0  0  0  0  0  0  0
  143.1920   74.1580  220.8130 C   0  0  1  0  0  0  0  0  0  0  0  0
  143.9060   75.0990  219.8710 C   0  0  0  0  0  0  0  0  0  0  0  0
  143.4270   76.4000  219.9710 O   0  0  0  0  0  0  0  0  0  0  0  0
  139.8680   71.1490  223.6840 C   0  0  0  0  0  0  0  0  0  0  0  0
  139.4740   69.8090  223.7100 C   0  0  0  0  0  0  0  0  0  0  0  0
  139.5810   69.0850  224.8980 C   0  0  0  0  0  0  0  0  0  0  0  0
  140.0770   69.7310  226.0120 C   0  0  0  0  0  0  0  0  0  0  0  0
  140.1960   69.0340  227.2140 C   0  0  0  0  0  0  0  0  0  0  0  0
  140.6800   69.6380  228.3360 C   0  0  0  0  0  0  0  0  0  0  0  0
  141.0540   70.9720  228.2420 C   0  0  0  0  0  0  0  0  0  0  0  0
  140.9350   71.6700  227.0390 C   0  0  0  0  0  0  0  0  0  0  0  0
  140.4430   71.0560  225.9060 C   0  0  0  0  0  0  0  0  0  0  0  0
  140.3420   71.7590  224.7610 N   0  0  0  0  0  0  0  0  0  0  0  0
  139.6210   73.7630  223.3340 H   0  0  0  0  0  0  0  0  0  0  0  0
  139.2846   73.2383  220.3607 H   0  0  0  0  0  0  0  0  0  0  0  0
  138.6381   74.6835  221.2759 H   0  0  0  0  0  0  0  0  0  0  0  0
  140.8360   72.5657  219.2116 H   0  0  0  0  0  0  0  0  0  0  0  0
  142.1050   73.4132  218.3374 H   0  0  0  0  0  0  0  0  0  0  0  0
  143.4090   71.5282  219.0371 H   0  0  0  0  0  0  0  0  0  0  0  0
  143.7459   72.3087  221.7667 H   0  0  0  0  0  0  0  0  0  0  0  0
  144.7902   72.7434  220.4126 H   0  0  0  0  0  0  0  0  0  0  0  0
  143.3013   74.5570  221.8323 H   0  0  0  0  0  0  0  0  0  0  0  0
  144.9792   75.0963  220.1125 H   0  0  0  0  0  0  0  0  0  0  0  0
  143.7280   74.7499  218.8432 H   0  0  0  0  0  0  0  0  0  0  0  0
  142.8580   76.4520  220.7610 H   0  0  0  0  0  0  0  0  0  0  0  0
  139.0826   69.3285  222.8012 H   0  0  0  0  0  0  0  0  0  0  0  0
  139.2783   68.0285  224.9452 H   0  0  0  0  0  0  0  0  0  0  0  0
  139.8937   67.9772  227.2575 H   0  0  0  0  0  0  0  0  0  0  0  0
  140.7712   69.0873  229.2839 H   0  0  0  0  0  0  0  0  0  0  0  0
  141.4503   71.4869  229.1296 H   0  0  0  0  0  0  0  0  0  0  0  0
  141.2384   72.7264  226.9938 H   0  0  0  0  0  0  0  0  0  0  0  0
  1  2  2  0
  2  3  1  0
  3  4  1  0
  4  5  1  0
  5  6  2  0
  5  7  1  0
  7  8  1  0
  8  9  1  0
  9 10  1  0
  9 11  1  0
 11 12  1  0
 12 13  1  0
 13 14  1  0
  2 15  1  0
 15 16  2  0
 16 17  1  0
 17 18  2  0
 18 19  1  0
 19 20  2  0
 20 21  1  0
 21 22  2  0
 22 23  1  0
 23 24  2  0
 12  7  1  0
 24 15  1  0
 23 18  1  0
  3 25  1  0
  4 26  1  0
  4 27  1  0
  8 28  1  0
  8 29  1  0
  9 30  1  6
 11 31  1  0
 11 32  1  0
 12 33  1  1
 13 34  1  0
 13 35  1  0
 14 36  1  0
 16 37  1  0
 17 38  1  0
 19 39  1  0
 20 40  1  0
 21 41  1  0
 22 42  1  0
M  END
>  <smiles>  (27) 
O=C(NCC(=O)N1C[C@H](F)C[C@H]1CO)c1ccc2ccccc2n1

>  <score_type>  (27) 
oracle

>  <origin>  (27) 
autodockgpu

>  <m_score__min__energy>  (27) 
-6.8799999999999999

>  <m_primary>  (27) 
energy

>  <rmsd>  (27) 
2.8448888676717625

>  <m_score__min__rmsd>  (27) 
2.8448888676717625

>  <meeko>  (27) 
{"free_energy": -6.03, "intermolecular_energy": -7.82, "internal_energy": -2.15, "cluster_size": 21, "cluster_id": 1, "rank_in_cluster": 17}

>  <energy>  (27) 
-6.01

>  <cluster_rmsd>  (27) 
1.41

>  <cluster>  (27) 
2

$$$$

     RDKit          3D

 42 44  0  0  0  0  0  0  0  0999 V2000
  140.1690   71.3630  221.2400 O   0  0  0  0  0  0  0  0  0  0  0  0
  139.9910   71.9680  222.3300 C   0  0  0  0  0  0  0  0  0  0  0  0
  139.7280   73.3760  222.2760 N   0  0  0  0  0  0  0  0  0  0  0  0
  139.6750   74.0470  221.0160 C   0  0  0  0  0  0  0  0  0  0  0  0
  140.9820   74.5930  220.5750 C   0  0  0  0  0  0  0  0  0  0  0  0
  141.2910   75.7920  220.5860 O   0  0  0  0  0  0  0  0  0  0  0  0
  141.9470   73.6590  220.1060 N   0  0  0  0  0  0  0  0  0  0  0  0
  142.0660   73.1780  218.7350 C   0  0  0  0  0  0  0  0  0  0  0  0
  142.4430   71.7260  218.8840 C   0  0  2  0  0  0  0  0  0  0  0  0
  141.3060   70.9540  218.7870 F   0  0  0  0  0  0  0  0  0  0  0  0
  143.1090   71.6100  220.2370 C   0  0  0  0  0  0  0  0  0  0  0  0
  143.0050   72.9830  220.8420 C   0  0  1  0  0  0  0  0  0  0  0  0
  144.2670   73.7930  220.6600 C   0  0  0  0  0  0  0  0  0  0  0  0
  143.9950   75.1190  220.3450 O   0  0  0  0  0  0  0  0  0  0  0  0
  140.0420   71.2940  223.6290 C   0  0  0  0  0  0  0  0  0  0  0  0
  139.5650   69.9820  223.6750 C   0  0  0  0  0  0  0  0  0  0  0  0
  139.5880   69.2850  224.8830 C   0  0  0  0  0  0  0  0  0  0  0  0
  140.0860   69.9290  225.9970 C   0  0  0  0  0  0  0  0  0  0  0  0
  140.1220   69.2580  227.2190 C   0  0  0  0  0  0  0  0  0  0  0  0
  140.6060   69.8610  228.3420 C   0  0  0  0  0  0  0  0  0  0  0  0
  141.0650   71.1670  228.2280 C   0  0  0  0  0  0  0  0  0  0  0  0
  141.0290   71.8380  227.0050 C   0  0  0  0  0  0  0  0  0  0  0  0
  140.5380   71.2260  225.8710 C   0  0  0  0  0  0  0  0  0  0  0  0
  140.5180   71.9020  224.7060 N   0  0  0  0  0  0  0  0  0  0  0  0
  139.5820   73.8670  223.2010 H   0  0  0  0  0  0  0  0  0  0  0  0
  139.3232   73.3329  220.2569 H   0  0  0  0  0  0  0  0  0  0  0  0
  138.9936   74.9022  221.1360 H   0  0  0  0  0  0  0  0  0  0  0  0
  141.1095   73.2800  218.2014 H   0  0  0  0  0  0  0  0  0  0  0  0
  142.8044   73.7473  218.1513 H   0  0  0  0  0  0  0  0  0  0  0  0
  143.1294   71.3735  218.1000 H   0  0  0  0  0  0  0  0  0  0  0  0
  142.5867   70.8714  220.8628 H   0  0  0  0  0  0  0  0  0  0  0  0
  144.1528   71.2726  220.1558 H   0  0  0  0  0  0  0  0  0  0  0  0
  142.8185   72.8908  221.9221 H   0  0  0  0  0  0  0  0  0  0  0  0
  144.8465   73.7619  221.5944 H   0  0  0  0  0  0  0  0  0  0  0  0
  144.8336   73.3553  219.8249 H   0  0  0  0  0  0  0  0  0  0  0  0
  143.3280   75.4480  220.9760 H   0  0  0  0  0  0  0  0  0  0  0  0
  139.1742   69.5021  222.7656 H   0  0  0  0  0  0  0  0  0  0  0  0
  139.2193   68.2505  224.9458 H   0  0  0  0  0  0  0  0  0  0  0  0
  139.7532   68.2234  227.2779 H   0  0  0  0  0  0  0  0  0  0  0  0
  140.6321   69.3312  229.3056 H   0  0  0  0  0  0  0  0  0  0  0  0
  141.4631   71.6804  229.1157 H   0  0  0  0  0  0  0  0  0  0  0  0
  141.3985   72.8723  226.9445 H   0  0  0  0  0  0  0  0  0  0  0  0
  1  2  2  0
  2  3  1  0
  3  4  1  0
  4  5  1  0
  5  6  2  0
  5  7  1  0
  7  8  1  0
  8  9  1  0
  9 10  1  0
  9 11  1  0
 11 12  1  0
 12 13  1  0
 13 14  1  0
  2 15  1  0
 15 16  2  0
 16 17  1  0
 17 18  2  0
 18 19  1  0
 19 20  2  0
 20 21  1  0
 21 22  2  0
 22 23  1  0
 23 24  2  0
 12  7  1  0
 24 15  1  0
 23 18  1  0
  3 25  1  0
  4 26  1  0
  4 27  1  0
  8 28  1  0
  8 29  1  0
  9 30  1  6
 11 31  1  0
 11 32  1  0
 12 33  1  1
 13 34  1  0
 13 35  1  0
 14 36  1  0
 16 37  1  0
 17 38  1  0
 19 39  1  0
 20 40  1  0
 21 41  1  0
 22 42  1  0
M  END
>  <smiles>  (28) 
O=C(NCC(=O)N1C[C@H](F)C[C@H]1CO)c1ccc2ccccc2n1

>  <score_type>  (28) 
oracle

>  <origin>  (28) 
autodockgpu

>  <m_score__min__energy>  (28) 
-6.8799999999999999

>  <m_primary>  (28) 
energy

>  <rmsd>  (28) 
3.0929778139616357

>  <m_score__min__rmsd>  (28) 
3.0929778139616357

>  <meeko>  (28) 
{"free_energy": -5.87, "intermolecular_energy": -7.66, "internal_energy": -2.2, "cluster_size": 21, "cluster_id": 1, "rank_in_cluster": 19}

>  <energy>  (28) 
-5.72

>  <cluster_rmsd>  (28) 
1.97

>  <cluster>  (28) 
2

$$$$

     RDKit          3D

 42 44  0  0  0  0  0  0  0  0999 V2000
  140.3420   73.4540  222.3140 O   0  0  0  0  0  0  0  0  0  0  0  0
  140.6070   72.2320  222.4670 C   0  0  0  0  0  0  0  0  0  0  0  0
  141.2340   71.5450  221.3770 N   0  0  0  0  0  0  0  0  0  0  0  0
  141.5390   72.2430  220.1690 C   0  0  0  0  0  0  0  0  0  0  0  0
  142.9850   72.2540  219.8350 C   0  0  0  0  0  0  0  0  0  0  0  0
  143.7420   71.2780  219.9220 O   0  0  0  0  0  0  0  0  0  0  0  0
  143.5330   73.4860  219.3800 N   0  0  0  0  0  0  0  0  0  0  0  0
  144.1010   74.5260  220.2280 C   0  0  0  0  0  0  0  0  0  0  0  0
  143.6740   75.8130  219.5700 C   0  0  2  0  0  0  0  0  0  0  0  0
  142.5380   76.2820  220.1920 F   0  0  0  0  0  0  0  0  0  0  0  0
  143.4400   75.4740  218.1140 C   0  0  0  0  0  0  0  0  0  0  0  0
  143.6570   73.9890  218.0200 C   0  0  1  0  0  0  0  0  0  0  0  0
  145.0440   73.6360  217.5360 C   0  0  0  0  0  0  0  0  0  0  0  0
  145.6540   72.6860  218.3460 O   0  0  0  0  0  0  0  0  0  0  0  0
  140.3010   71.5020  223.6980 C   0  0  0  0  0  0  0  0  0  0  0  0
  139.4590   70.3930  223.5780 C   0  0  0  0  0  0  0  0  0  0  0  0
  139.1290   69.6550  224.7140 C   0  0  0  0  0  0  0  0  0  0  0  0
  139.6530   70.0560  225.9260 C   0  0  0  0  0  0  0  0  0  0  0  0
  139.3410   69.3380  227.0800 C   0  0  0  0  0  0  0  0  0  0  0  0
  139.8390   69.7040  228.2950 C   0  0  0  0  0  0  0  0  0  0  0  0
  140.6700   70.8160  228.3470 C   0  0  0  0  0  0  0  0  0  0  0  0
  140.9820   71.5340  227.1910 C   0  0  0  0  0  0  0  0  0  0  0  0
  140.4760   71.1620  225.9630 C   0  0  0  0  0  0  0  0  0  0  0  0
  140.7970   71.8770  224.8680 N   0  0  0  0  0  0  0  0  0  0  0  0
  141.4490   70.5190  221.5230 H   0  0  0  0  0  0  0  0  0  0  0  0
  140.9954   71.7613  219.3429 H   0  0  0  0  0  0  0  0  0  0  0  0
  141.2354   73.2898  220.3173 H   0  0  0  0  0  0  0  0  0  0  0  0
  143.6999   74.4585  221.2500 H   0  0  0  0  0  0  0  0  0  0  0  0
  145.1938   74.4430  220.3221 H   0  0  0  0  0  0  0  0  0  0  0  0
  144.4270   76.6108  219.6502 H   0  0  0  0  0  0  0  0  0  0  0  0
  142.4134   75.7342  217.8167 H   0  0  0  0  0  0  0  0  0  0  0  0
  144.1126   76.0327  217.4466 H   0  0  0  0  0  0  0  0  0  0  0  0
  142.9344   73.5605  217.3099 H   0  0  0  0  0  0  0  0  0  0  0  0
  144.9720   73.2368  216.5135 H   0  0  0  0  0  0  0  0  0  0  0  0
  145.6559   74.5496  217.5655 H   0  0  0  0  0  0  0  0  0  0  0  0
  144.9930   71.9990  218.5550 H   0  0  0  0  0  0  0  0  0  0  0  0
  139.0596   70.1045  222.5945 H   0  0  0  0  0  0  0  0  0  0  0  0
  138.4692   68.7774  224.6460 H   0  0  0  0  0  0  0  0  0  0  0  0
  138.6813   68.4607  227.0086 H   0  0  0  0  0  0  0  0  0  0  0  0
  139.5910   69.1373  229.2046 H   0  0  0  0  0  0  0  0  0  0  0  0
  141.0882   71.1354  229.3129 H   0  0  0  0  0  0  0  0  0  0  0  0
  141.6423   72.4110  227.2607 H   0  0  0  0  0  0  0  0  0  0  0  0
  1  2  2  0
  2  3  1  0
  3  4  1  0
  4  5  1  0
  5  6  2  0
  5  7  1  0
  7  8  1  0
  8  9  1  0
  9 10  1  0
  9 11  1  0
 11 12  1  0
 12 13  1  0
 13 14  1  0
  2 15  1  0
 15 16  2  0
 16 17  1  0
 17 18  2  0
 18 19  1  0
 19 20  2  0
 20 21  1  0
 21 22  2  0
 22 23  1  0
 23 24  2  0
 12  7  1  0
 24 15  1  0
 23 18  1  0
  3 25  1  0
  4 26  1  0
  4 27  1  0
  8 28  1  0
  8 29  1  0
  9 30  1  6
 11 31  1  0
 11 32  1  0
 12 33  1  6
 13 34  1  0
 13 35  1  0
 14 36  1  0
 16 37  1  0
 17 38  1  0
 19 39  1  0
 20 40  1  0
 21 41  1  0
 22 42  1  0
M  END
>  <smiles>  (29) 
O=C(NCC(=O)N1C[C@H](F)C[C@H]1CO)c1ccc2ccccc2n1

>  <score_type>  (29) 
oracle

>  <origin>  (29) 
autodockgpu

>  <m_score__min__energy>  (29) 
-6.8799999999999999

>  <m_primary>  (29) 
energy

>  <rmsd>  (29) 
3.4163385573077925

>  <m_score__min__rmsd>  (29) 
3.4163385573077925

>  <meeko>  (29) 
{"free_energy": -6.32, "intermolecular_energy": -8.11, "internal_energy": -1.71, "cluster_size": 21, "cluster_id": 1, "rank_in_cluster": 9}

>  <energy>  (29) 
-5.55

>  <cluster_rmsd>  (29) 
1.92

>  <cluster>  (29) 
2

$$$$

     RDKit          3D

 42 44  0  0  0  0  0  0  0  0999 V2000
  138.7140   75.5610  221.7100 O   0  0  0  0  0  0  0  0  0  0  0  0
  139.8940   75.9780  221.8600 C   0  0  0  0  0  0  0  0  0  0  0  0
  140.9630   75.0830  221.5330 N   0  0  0  0  0  0  0  0  0  0  0  0
  140.6770   73.7680  221.0560 C   0  0  0  0  0  0  0  0  0  0  0  0
  141.8590   72.8710  221.0310 C   0  0  0  0  0  0  0  0  0  0  0  0
  141.9280   71.7700  221.5950 O   0  0  0  0  0  0  0  0  0  0  0  0
  142.9950   73.3200  220.3020 N   0  0  0  0  0  0  0  0  0  0  0  0
  143.6310   72.6090  219.2000 C   0  0  0  0  0  0  0  0  0  0  0  0
  145.1030   72.8730  219.3920 C   0  0  2  0  0  0  0  0  0  0  0  0
  145.6670   71.8120  220.0670 F   0  0  0  0  0  0  0  0  0  0  0  0
  145.1920   74.1680  220.1680 C   0  0  0  0  0  0  0  0  0  0  0  0
  143.7670   74.5430  220.4650 C   0  0  1  0  0  0  0  0  0  0  0  0
  143.2190   75.5550  219.4860 C   0  0  0  0  0  0  0  0  0  0  0  0
  142.8070   76.7220  220.1180 O   0  0  0  0  0  0  0  0  0  0  0  0
  140.2030   77.3240  222.3480 C   0  0  0  0  0  0  0  0  0  0  0  0
  139.1180   78.1250  222.7110 C   0  0  0  0  0  0  0  0  0  0  0  0
  139.3460   79.4170  223.1840 C   0  0  0  0  0  0  0  0  0  0  0  0
  140.6510   79.8560  223.2750 C   0  0  0  0  0  0  0  0  0  0  0  0
  140.9120   81.1430  223.7450 C   0  0  0  0  0  0  0  0  0  0  0  0
  142.1880   81.6120  223.8480 C   0  0  0  0  0  0  0  0  0  0  0  0
  143.2220   80.7650  223.4710 C   0  0  0  0  0  0  0  0  0  0  0  0
  142.9610   79.4770  223.0010 C   0  0  0  0  0  0  0  0  0  0  0  0
  141.6690   79.0050  222.8970 C   0  0  0  0  0  0  0  0  0  0  0  0
  141.4520   77.7560  222.4390 N   0  0  0  0  0  0  0  0  0  0  0  0
  141.9470   75.4500  221.6650 H   0  0  0  0  0  0  0  0  0  0  0  0
  139.9148   73.3196  221.7103 H   0  0  0  0  0  0  0  0  0  0  0  0
  140.3308   73.8717  220.0171 H   0  0  0  0  0  0  0  0  0  0  0  0
  143.4172   71.5314  219.2555 H   0  0  0  0  0  0  0  0  0  0  0  0
  143.2672   72.9424  218.2169 H   0  0  0  0  0  0  0  0  0  0  0  0
  145.6531   72.9689  218.4443 H   0  0  0  0  0  0  0  0  0  0  0  0
  145.7556   74.0214  221.1012 H   0  0  0  0  0  0  0  0  0  0  0  0
  145.7163   74.9528  219.6030 H   0  0  0  0  0  0  0  0  0  0  0  0
  143.7093   74.9842  221.4710 H   0  0  0  0  0  0  0  0  0  0  0  0
  144.0038   75.8044  218.7567 H   0  0  0  0  0  0  0  0  0  0  0  0
  142.3431   75.1093  218.9919 H   0  0  0  0  0  0  0  0  0  0  0  0
  142.6460   76.5160  221.0570 H   0  0  0  0  0  0  0  0  0  0  0  0
  138.0913   77.7397  222.6245 H   0  0  0  0  0  0  0  0  0  0  0  0
  138.5089   80.0679  223.4764 H   0  0  0  0  0  0  0  0  0  0  0  0
  140.0731   81.7914  224.0379 H   0  0  0  0  0  0  0  0  0  0  0  0
  142.3918   82.6278  224.2176 H   0  0  0  0  0  0  0  0  0  0  0  0
  144.2624   81.1145  223.5439 H   0  0  0  0  0  0  0  0  0  0  0  0
  143.7993   78.8276  222.7087 H   0  0  0  0  0  0  0  0  0  0  0  0
  1  2  2  0
  2  3  1  0
  3  4  1  0
  4  5  1  0
  5  6  2  0
  5  7  1  0
  7  8  1  0
  8  9  1  0
  9 10  1  0
  9 11  1  0
 11 12  1  0
 12 13  1  0
 13 14  1  0
  2 15  1  0
 15 16  2  0
 16 17  1  0
 17 18  2  0
 18 19  1  0
 19 20  2  0
 20 21  1  0
 21 22  2  0
 22 23  1  0
 23 24  2  0
 12  7  1  0
 24 15  1  0
 23 18  1  0
  3 25  1  0
  4 26  1  0
  4 27  1  0
  8 28  1  0
  8 29  1  0
  9 30  1  6
 11 31  1  0
 11 32  1  0
 12 33  1  1
 13 34  1  0
 13 35  1  0
 14 36  1  0
 16 37  1  0
 17 38  1  0
 19 39  1  0
 20 40  1  0
 21 41  1  0
 22 42  1  0
M  END
>  <smiles>  (30) 
O=C(NCC(=O)N1C[C@H](F)C[C@H]1CO)c1ccc2ccccc2n1

>  <score_type>  (30) 
oracle

>  <origin>  (30) 
autodockgpu

>  <m_score__min__energy>  (30) 
-6.8799999999999999

>  <m_primary>  (30) 
energy

>  <rmsd>  (30) 
7.712422941443365

>  <m_score__min__rmsd>  (30) 
7.712422941443365

>  <meeko>  (30) 
{"free_energy": -6.07, "intermolecular_energy": -7.86, "internal_energy": -2.57, "cluster_size": 12, "cluster_id": 4, "rank_in_cluster": 5}

>  <energy>  (30) 
-5.4

>  <cluster_rmsd>  (30) 
1.95

>  <cluster>  (30) 
2

$$$$

     RDKit          3D

 42 44  0  0  0  0  0  0  0  0999 V2000
  140.3860   71.5030  221.3090 O   0  0  0  0  0  0  0  0  0  0  0  0
  140.1050   72.0560  222.4060 C   0  0  0  0  0  0  0  0  0  0  0  0
  139.7750   73.4500  222.3840 N   0  0  0  0  0  0  0  0  0  0  0  0
  139.7700   74.1670  221.1490 C   0  0  0  0  0  0  0  0  0  0  0  0
  139.4490   75.6080  221.2960 C   0  0  0  0  0  0  0  0  0  0  0  0
  138.3160   76.0660  221.4970 O   0  0  0  0  0  0  0  0  0  0  0  0
  140.5320   76.5240  221.1980 N   0  0  0  0  0  0  0  0  0  0  0  0
  141.0640   77.3300  222.2890 C   0  0  0  0  0  0  0  0  0  0  0  0
  141.4170   78.6440  221.6390 C   0  0  2  0  0  0  0  0  0  0  0  0
  140.3810   79.5320  221.8280 F   0  0  0  0  0  0  0  0  0  0  0  0
  141.6550   78.3320  220.1790 C   0  0  0  0  0  0  0  0  0  0  0  0
  141.3410   76.8680  220.0370 C   0  0  1  0  0  0  0  0  0  0  0  0
  142.5800   76.0030  220.0810 C   0  0  0  0  0  0  0  0  0  0  0  0
  143.6740   76.6310  219.4960 O   0  0  0  0  0  0  0  0  0  0  0  0
  140.1070   71.3350  223.6800 C   0  0  0  0  0  0  0  0  0  0  0  0
  139.5810   70.0410  223.6700 C   0  0  0  0  0  0  0  0  0  0  0  0
  139.5530   69.3010  224.8520 C   0  0  0  0  0  0  0  0  0  0  0  0
  140.0530   69.8860  225.9970 C   0  0  0  0  0  0  0  0  0  0  0  0
  140.0400   69.1720  227.1950 C   0  0  0  0  0  0  0  0  0  0  0  0
  140.5240   69.7160  228.3480 C   0  0  0  0  0  0  0  0  0  0  0  0
  141.0330   71.0070  228.2900 C   0  0  0  0  0  0  0  0  0  0  0  0
  141.0460   71.7220  227.0910 C   0  0  0  0  0  0  0  0  0  0  0  0
  140.5550   71.1690  225.9270 C   0  0  0  0  0  0  0  0  0  0  0  0
  140.5830   71.8860  224.7870 N   0  0  0  0  0  0  0  0  0  0  0  0
  139.5430   73.8970  223.3140 H   0  0  0  0  0  0  0  0  0  0  0  0
  140.7667   74.0783  220.6922 H   0  0  0  0  0  0  0  0  0  0  0  0
  138.9803   73.7244  220.5241 H   0  0  0  0  0  0  0  0  0  0  0  0
  140.3064   77.4737  223.0735 H   0  0  0  0  0  0  0  0  0  0  0  0
  141.9272   76.8573  222.7804 H   0  0  0  0  0  0  0  0  0  0  0  0
  142.3142   79.1129  222.0693 H   0  0  0  0  0  0  0  0  0  0  0  0
  140.9900   78.9335  219.5418 H   0  0  0  0  0  0  0  0  0  0  0  0
  142.6843   78.5655  219.8693 H   0  0  0  0  0  0  0  0  0  0  0  0
  140.8448   76.6948  219.0707 H   0  0  0  0  0  0  0  0  0  0  0  0
  142.8191   75.7779  221.1309 H   0  0  0  0  0  0  0  0  0  0  0  0
  142.3728   75.0832  219.5144 H   0  0  0  0  0  0  0  0  0  0  0  0
  144.0340   77.2700  220.1380 H   0  0  0  0  0  0  0  0  0  0  0  0
  139.1916   69.6086  222.7365 H   0  0  0  0  0  0  0  0  0  0  0  0
  139.1439   68.2801  224.8707 H   0  0  0  0  0  0  0  0  0  0  0  0
  139.6316   68.1507  227.2101 H   0  0  0  0  0  0  0  0  0  0  0  0
  140.5117   69.1515  229.2920 H   0  0  0  0  0  0  0  0  0  0  0  0
  141.4320   71.4733  229.2029 H   0  0  0  0  0  0  0  0  0  0  0  0
  141.4546   72.7432  227.0745 H   0  0  0  0  0  0  0  0  0  0  0  0
  1  2  2  0
  2  3  1  0
  3  4  1  0
  4  5  1  0
  5  6  2  0
  5  7  1  0
  7  8  1  0
  8  9  1  0
  9 10  1  0
  9 11  1  0
 11 12  1  0
 12 13  1  0
 13 14  1  0
  2 15  1  0
 15 16  2  0
 16 17  1  0
 17 18  2  0
 18 19  1  0
 19 20  2  0
 20 21  1  0
 21 22  2  0
 22 23  1  0
 23 24  2  0
 12  7  1  0
 24 15  1  0
 23 18  1  0
  3 25  1  0
  4 26  1  0
  4 27  1  0
  8 28  1  0
  8 29  1  0
  9 30  1  1
 11 31  1  0
 11 32  1  0
 12 33  1  6
 13 34  1  0
 13 35  1  0
 14 36  1  0
 16 37  1  0
 17 38  1  0
 19 39  1  0
 20 40  1  0
 21 41  1  0
 22 42  1  0
M  END
>  <smiles>  (31) 
O=C(NCC(=O)N1C[C@H](F)C[C@H]1CO)c1ccc2ccccc2n1

>  <score_type>  (31) 
oracle

>  <origin>  (31) 
autodockgpu

>  <m_score__min__energy>  (31) 
-6.8799999999999999

>  <m_primary>  (31) 
energy

>  <rmsd>  (31) 
2.526428911922049

>  <m_score__min__rmsd>  (31) 
2.526428911922049

>  <meeko>  (31) 
{"free_energy": -6.82, "intermolecular_energy": -8.61, "internal_energy": -1.0, "cluster_size": 21, "cluster_id": 1, "rank_in_cluster": 2}

>  <energy>  (31) 
-5.4

>  <cluster_rmsd>  (31) 
1.89

>  <cluster>  (31) 
2

$$$$

     RDKit          3D

 42 44  0  0  0  0  0  0  0  0999 V2000
  139.7250   69.5060  222.3070 O   0  0  0  0  0  0  0  0  0  0  0  0
  139.6120   70.7020  222.6880 C   0  0  0  0  0  0  0  0  0  0  0  0
  138.7980   70.9600  223.8390 N   0  0  0  0  0  0  0  0  0  0  0  0
  138.1490   69.8820  224.5140 C   0  0  0  0  0  0  0  0  0  0  0  0
  139.0830   68.8490  225.0260 C   0  0  0  0  0  0  0  0  0  0  0  0
  139.1080   67.6680  224.6550 O   0  0  0  0  0  0  0  0  0  0  0  0
  140.0160   69.2580  226.0190 N   0  0  0  0  0  0  0  0  0  0  0  0
  141.0450   68.4160  226.6140 C   0  0  0  0  0  0  0  0  0  0  0  0
  141.0880   68.8490  228.0570 C   0  0  2  0  0  0  0  0  0  0  0  0
  140.3130   67.9930  228.8080 F   0  0  0  0  0  0  0  0  0  0  0  0
  140.5690   70.2690  228.0770 C   0  0  0  0  0  0  0  0  0  0  0  0
  140.1680   70.5570  226.6570 C   0  0  1  0  0  0  0  0  0  0  0  0
  141.2330   71.3100  225.8960 C   0  0  0  0  0  0  0  0  0  0  0  0
  140.6880   72.2440  225.0220 O   0  0  0  0  0  0  0  0  0  0  0  0
  140.2710   71.8170  222.0060 C   0  0  0  0  0  0  0  0  0  0  0  0
  141.1870   71.4870  221.0050 C   0  0  0  0  0  0  0  0  0  0  0  0
  141.8490   72.5050  220.3170 C   0  0  0  0  0  0  0  0  0  0  0  0
  141.5690   73.8110  220.6600 C   0  0  0  0  0  0  0  0  0  0  0  0
  142.2140   74.8510  219.9910 C   0  0  0  0  0  0  0  0  0  0  0  0
  141.9640   76.1540  220.3010 C   0  0  0  0  0  0  0  0  0  0  0  0
  141.0420   76.4140  221.3070 C   0  0  0  0  0  0  0  0  0  0  0  0
  140.3960   75.3740  221.9770 C   0  0  0  0  0  0  0  0  0  0  0  0
  140.6520   74.0560  221.6610 C   0  0  0  0  0  0  0  0  0  0  0  0
  140.0100   73.0760  222.3270 N   0  0  0  0  0  0  0  0  0  0  0  0
  138.7150   71.9690  224.1440 H   0  0  0  0  0  0  0  0  0  0  0  0
  137.5865   70.2937  225.3649 H   0  0  0  0  0  0  0  0  0  0  0  0
  137.4968   69.3888  223.7783 H   0  0  0  0  0  0  0  0  0  0  0  0
  140.7740   67.3530  226.5335 H   0  0  0  0  0  0  0  0  0  0  0  0
  142.0184   68.5224  226.1129 H   0  0  0  0  0  0  0  0  0  0  0  0
  142.0992   68.8161  228.4888 H   0  0  0  0  0  0  0  0  0  0  0  0
  139.7019   70.3542  228.7484 H   0  0  0  0  0  0  0  0  0  0  0  0
  141.3237   70.9795  228.4453 H   0  0  0  0  0  0  0  0  0  0  0  0
  139.2563   71.1724  226.6547 H   0  0  0  0  0  0  0  0  0  0  0  0
  141.8807   71.8326  226.6153 H   0  0  0  0  0  0  0  0  0  0  0  0
  141.8041   70.5818  225.3014 H   0  0  0  0  0  0  0  0  0  0  0  0
  140.9390   71.9910  224.1140 H   0  0  0  0  0  0  0  0  0  0  0  0
  141.3853   70.4330  220.7606 H   0  0  0  0  0  0  0  0  0  0  0  0
  142.5740   72.2720  219.5232 H   0  0  0  0  0  0  0  0  0  0  0  0
  142.9385   74.6147  219.1978 H   0  0  0  0  0  0  0  0  0  0  0  0
  142.4749   76.9724  219.7726 H   0  0  0  0  0  0  0  0  0  0  0  0
  140.8176   77.4557  221.5798 H   0  0  0  0  0  0  0  0  0  0  0  0
  139.6709   75.6092  222.7700 H   0  0  0  0  0  0  0  0  0  0  0  0
  1  2  2  0
  2  3  1  0
  3  4  1  0
  4  5  1  0
  5  6  2  0
  5  7  1  0
  7  8  1  0
  8  9  1  0
  9 10  1  0
  9 11  1  0
 11 12  1  0
 12 13  1  0
 13 14  1  0
  2 15  1  0
 15 16  2  0
 16 17  1  0
 17 18  2  0
 18 19  1  0
 19 20  2  0
 20 21  1  0
 21 22  2  0
 22 23  1  0
 23 24  2  0
 12  7  1  0
 24 15  1  0
 23 18  1  0
  3 25  1  0
  4 26  1  0
  4 27  1  0
  8 28  1  0
  8 29  1  0
  9 30  1  1
 11 31  1  0
 11 32  1  0
 12 33  1  1
 13 34  1  0
 13 35  1  0
 14 36  1  0
 16 37  1  0
 17 38  1  0
 19 39  1  0
 20 40  1  0
 21 41  1  0
 22 42  1  0
M  END
>  <smiles>  (32) 
O=C(NCC(=O)N1C[C@H](F)C[C@H]1CO)c1ccc2ccccc2n1

>  <score_type>  (32) 
oracle

>  <origin>  (32) 
autodockgpu

>  <m_score__min__energy>  (32) 
-6.8799999999999999

>  <m_primary>  (32) 
energy

>  <rmsd>  (32) 
8.20437116394002

>  <m_score__min__rmsd>  (32) 
8.20437116394002

>  <meeko>  (32) 
{"free_energy": -5.7, "intermolecular_energy": -7.49, "internal_energy": -2.55, "cluster_size": 1, "cluster_id": 7, "rank_in_cluster": 1}

>  <energy>  (32) 
-6.39

>  <cluster_rmsd>  (32) 
0.0

>  <cluster>  (32) 
3

$$$$

     RDKit          3D

 42 44  0  0  0  0  0  0  0  0999 V2000
  139.9760   74.3730  222.3120 O   0  0  0  0  0  0  0  0  0  0  0  0
  140.2640   75.3800  221.6120 C   0  0  0  0  0  0  0  0  0  0  0  0
  140.5680   75.1660  220.2280 N   0  0  0  0  0  0  0  0  0  0  0  0
  140.5380   73.8460  219.6840 C   0  0  0  0  0  0  0  0  0  0  0  0
  141.6680   72.9930  220.1270 C   0  0  0  0  0  0  0  0  0  0  0  0
  141.5520   71.9160  220.7280 O   0  0  0  0  0  0  0  0  0  0  0  0
  142.9810   73.4560  219.8320 N   0  0  0  0  0  0  0  0  0  0  0  0
  143.9050   72.8420  218.8880 C   0  0  0  0  0  0  0  0  0  0  0  0
  145.2550   72.9940  219.5410 C   0  0  2  0  0  0  0  0  0  0  0  0
  145.5660   71.8300  220.2090 F   0  0  0  0  0  0  0  0  0  0  0  0
  145.1330   74.1810  220.4700 C   0  0  0  0  0  0  0  0  0  0  0  0
  143.6930   74.6030  220.3760 C   0  0  1  0  0  0  0  0  0  0  0  0
  143.4880   75.7540  219.4180 C   0  0  0  0  0  0  0  0  0  0  0  0
  142.7500   76.7830  219.9900 O   0  0  0  0  0  0  0  0  0  0  0  0
  140.2980   76.7400  222.1560 C   0  0  0  0  0  0  0  0  0  0  0  0
  139.0710   77.3050  222.5100 C   0  0  0  0  0  0  0  0  0  0  0  0
  139.0360   78.5980  223.0340 C   0  0  0  0  0  0  0  0  0  0  0  0
  140.2300   79.2720  223.1820 C   0  0  0  0  0  0  0  0  0  0  0  0
  140.2280   80.5660  223.7030 C   0  0  0  0  0  0  0  0  0  0  0  0
  141.3880   81.2640  223.8640 C   0  0  0  0  0  0  0  0  0  0  0  0
  142.5740   80.6450  223.4930 C   0  0  0  0  0  0  0  0  0  0  0  0
  142.5760   79.3500  222.9710 C   0  0  0  0  0  0  0  0  0  0  0  0
  141.4010   78.6460  222.8090 C   0  0  0  0  0  0  0  0  0  0  0  0
  141.4390   77.3980  222.3030 N   0  0  0  0  0  0  0  0  0  0  0  0
  140.8070   76.0230  219.6570 H   0  0  0  0  0  0  0  0  0  0  0  0
  139.5980   73.3647  219.9919 H   0  0  0  0  0  0  0  0  0  0  0  0
  140.6198   73.9464  218.5917 H   0  0  0  0  0  0  0  0  0  0  0  0
  143.6613   71.7798  218.7382 H   0  0  0  0  0  0  0  0  0  0  0  0
  143.8631   73.3088  217.8928 H   0  0  0  0  0  0  0  0  0  0  0  0
  146.0674   73.1681  218.8201 H   0  0  0  0  0  0  0  0  0  0  0  0
  145.3846   73.8923  221.5012 H   0  0  0  0  0  0  0  0  0  0  0  0
  145.8205   74.9940  220.1937 H   0  0  0  0  0  0  0  0  0  0  0  0
  143.3435   74.9254  221.3679 H   0  0  0  0  0  0  0  0  0  0  0  0
  144.4712   76.1461  219.1187 H   0  0  0  0  0  0  0  0  0  0  0  0
  142.9283   75.3771  218.5493 H   0  0  0  0  0  0  0  0  0  0  0  0
  142.9200   76.7790  220.9500 H   0  0  0  0  0  0  0  0  0  0  0  0
  138.1394   76.7354  222.3769 H   0  0  0  0  0  0  0  0  0  0  0  0
  138.0829   79.0663  223.3209 H   0  0  0  0  0  0  0  0  0  0  0  0
  139.2733   81.0316  223.9891 H   0  0  0  0  0  0  0  0  0  0  0  0
  141.3843   82.2845  224.2745 H   0  0  0  0  0  0  0  0  0  0  0  0
  143.5262   81.1827  223.6120 H   0  0  0  0  0  0  0  0  0  0  0  0
  143.5301   78.8836  222.6843 H   0  0  0  0  0  0  0  0  0  0  0  0
  1  2  2  0
  2  3  1  0
  3  4  1  0
  4  5  1  0
  5  6  2  0
  5  7  1  0
  7  8  1  0
  8  9  1  0
  9 10  1  0
  9 11  1  0
 11 12  1  0
 12 13  1  0
 13 14  1  0
  2 15  1  0
 15 16  2  0
 16 17  1  0
 17 18  2  0
 18 19  1  0
 19 20  2  0
 20 21  1  0
 21 22  2  0
 22 23  1  0
 23 24  2  0
 12  7  1  0
 24 15  1  0
 23 18  1  0
  3 25  1  0
  4 26  1  0
  4 27  1  0
  8 28  1  0
  8 29  1  0
  9 30  1  6
 11 31  1  0
 11 32  1  0
 12 33  1  1
 13 34  1  0
 13 35  1  0
 14 36  1  0
 16 37  1  0
 17 38  1  0
 19 39  1  0
 20 40  1  0
 21 41  1  0
 22 42  1  0
M  END
>  <smiles>  (33) 
O=C(NCC(=O)N1C[C@H](F)C[C@H]1CO)c1ccc2ccccc2n1

>  <score_type>  (33) 
oracle

>  <origin>  (33) 
autodockgpu

>  <m_score__min__energy>  (33) 
-6.8799999999999999

>  <m_primary>  (33) 
energy

>  <rmsd>  (33) 
7.445757558348269

>  <m_score__min__rmsd>  (33) 
7.445757558348269

>  <meeko>  (33) 
{"free_energy": -5.97, "intermolecular_energy": -7.76, "internal_energy": -2.61, "cluster_size": 12, "cluster_id": 4, "rank_in_cluster": 10}

>  <energy>  (33) 
-6.14

>  <cluster_rmsd>  (33) 
0.0

>  <cluster>  (33) 
4

$$$$

     RDKit          3D

 42 44  0  0  0  0  0  0  0  0999 V2000
  139.4280   70.9990  221.2070 O   0  0  0  0  0  0  0  0  0  0  0  0
  139.5860   71.7440  222.2110 C   0  0  0  0  0  0  0  0  0  0  0  0
  139.6060   73.1600  221.9930 N   0  0  0  0  0  0  0  0  0  0  0  0
  139.4490   73.6850  220.6750 C   0  0  0  0  0  0  0  0  0  0  0  0
  138.4400   74.7690  220.5800 C   0  0  0  0  0  0  0  0  0  0  0  0
  137.5100   74.8050  219.7630 O   0  0  0  0  0  0  0  0  0  0  0  0
  138.5610   75.8450  221.5030 N   0  0  0  0  0  0  0  0  0  0  0  0
  137.6920   76.0810  222.6490 C   0  0  0  0  0  0  0  0  0  0  0  0
  137.5560   77.5820  222.7060 C   0  0  2  0  0  0  0  0  0  0  0  0
  136.3920   77.9530  222.0700 F   0  0  0  0  0  0  0  0  0  0  0  0
  138.7890   78.1340  222.0270 C   0  0  0  0  0  0  0  0  0  0  0  0
  139.5350   76.9260  221.5310 C   0  0  1  0  0  0  0  0  0  0  0  0
  140.6450   76.5070  222.4670 C   0  0  0  0  0  0  0  0  0  0  0  0
  141.1930   75.2800  222.1090 O   0  0  0  0  0  0  0  0  0  0  0  0
  139.7480   71.2210  223.5690 C   0  0  0  0  0  0  0  0  0  0  0  0
  139.2280   69.9490  223.8180 C   0  0  0  0  0  0  0  0  0  0  0  0
  139.3500   69.3930  225.0920 C   0  0  0  0  0  0  0  0  0  0  0  0
  139.9880   70.1340  226.0650 C   0  0  0  0  0  0  0  0  0  0  0  0
  140.1260   69.6060  227.3490 C   0  0  0  0  0  0  0  0  0  0  0  0
  140.7490   70.3080  228.3380 C   0  0  0  0  0  0  0  0  0  0  0  0
  141.2440   71.5670  228.0250 C   0  0  0  0  0  0  0  0  0  0  0  0
  141.1060   72.0950  226.7400 C   0  0  0  0  0  0  0  0  0  0  0  0
  140.4740   71.3830  225.7420 C   0  0  0  0  0  0  0  0  0  0  0  0
  140.3580   71.9230  224.5130 N   0  0  0  0  0  0  0  0  0  0  0  0
  139.7390   73.7700  222.8470 H   0  0  0  0  0  0  0  0  0  0  0  0
  140.4188   74.0834  220.3423 H   0  0  0  0  0  0  0  0  0  0  0  0
  139.0940   72.8594  220.0407 H   0  0  0  0  0  0  0  0  0  0  0  0
  136.7113   75.6056  222.4996 H   0  0  0  0  0  0  0  0  0  0  0  0
  138.0978   75.6586  223.5801 H   0  0  0  0  0  0  0  0  0  0  0  0
  137.4905   77.9723  223.7323 H   0  0  0  0  0  0  0  0  0  0  0  0
  138.5083   78.7866  221.1872 H   0  0  0  0  0  0  0  0  0  0  0  0
  139.3984   78.7438  222.7101 H   0  0  0  0  0  0  0  0  0  0  0  0
  139.9874   77.1537  220.5545 H   0  0  0  0  0  0  0  0  0  0  0  0
  141.4368   77.2702  222.4430 H   0  0  0  0  0  0  0  0  0  0  0  0
  140.2189   76.4073  223.4762 H   0  0  0  0  0  0  0  0  0  0  0  0
  142.1500   75.4060  221.9740 H   0  0  0  0  0  0  0  0  0  0  0  0
  138.7257   69.3892  223.0153 H   0  0  0  0  0  0  0  0  0  0  0  0
  138.9491   68.3930  225.3139 H   0  0  0  0  0  0  0  0  0  0  0  0
  139.7250   68.6053  227.5674 H   0  0  0  0  0  0  0  0  0  0  0  0
  140.8559   69.8908  229.3502 H   0  0  0  0  0  0  0  0  0  0  0  0
  141.7526   72.1574  228.8014 H   0  0  0  0  0  0  0  0  0  0  0  0
  141.5078   73.0951  226.5199 H   0  0  0  0  0  0  0  0  0  0  0  0
  1  2  2  0
  2  3  1  0
  3  4  1  0
  4  5  1  0
  5  6  2  0
  5  7  1  0
  7  8  1  0
  8  9  1  0
  9 10  1  0
  9 11  1  0
 11 12  1  0
 12 13  1  0
 13 14  1  0
  2 15  1  0
 15 16  2  0
 16 17  1  0
 17 18  2  0
 18 19  1  0
 19 20  2  0
 20 21  1  0
 21 22  2  0
 22 23  1  0
 23 24  2  0
 12  7  1  0
 24 15  1  0
 23 18  1  0
  3 25  1  0
  4 26  1  0
  4 27  1  0
  8 28  1  0
  8 29  1  0
  9 30  1  1
 11 31  1  0
 11 32  1  0
 12 33  1  6
 13 34  1  0
 13 35  1  0
 14 36  1  0
 16 37  1  0
 17 38  1  0
 19 39  1  0
 20 40  1  0
 21 41  1  0
 22 42  1  0
M  END
>  <smiles>  (34) 
O=C(NCC(=O)N1C[C@H](F)C[C@H]1CO)c1ccc2ccccc2n1

>  <score_type>  (34) 
oracle

>  <origin>  (34) 
autodockgpu

>  <m_score__min__energy>  (34) 
-6.8799999999999999

>  <m_primary>  (34) 
energy

>  <rmsd>  (34) 
2.859961516322984

>  <m_score__min__rmsd>  (34) 
2.859961516322984

>  <meeko>  (34) 
{"free_energy": -6.01, "intermolecular_energy": -7.8, "internal_energy": -1.8, "cluster_size": 10, "cluster_id": 2, "rank_in_cluster": 6}

>  <energy>  (34) 
-6.13

>  <cluster_rmsd>  (34) 
0.11

>  <cluster>  (34) 
4

$$$$

     RDKit          3D

 42 44  0  0  0  0  0  0  0  0999 V2000
  141.0020   71.6190  221.4080 O   0  0  0  0  0  0  0  0  0  0  0  0
  140.4620   72.1310  222.4240 C   0  0  0  0  0  0  0  0  0  0  0  0
  140.0280   73.4940  222.3330 N   0  0  0  0  0  0  0  0  0  0  0  0
  140.2100   74.2250  221.1200 C   0  0  0  0  0  0  0  0  0  0  0  0
  140.8330   75.5580  221.3140 C   0  0  0  0  0  0  0  0  0  0  0  0
  141.3840   75.9390  222.3560 O   0  0  0  0  0  0  0  0  0  0  0  0
  140.7860   76.4580  220.2140 N   0  0  0  0  0  0  0  0  0  0  0  0
  139.6190   76.7250  219.3840 C   0  0  0  0  0  0  0  0  0  0  0  0
  140.1820   76.8900  217.9960 C   0  0  2  0  0  0  0  0  0  0  0  0
  140.0720   75.6940  217.3210 F   0  0  0  0  0  0  0  0  0  0  0  0
  141.6200   77.3200  218.1830 C   0  0  0  0  0  0  0  0  0  0  0  0
  141.8430   77.2980  219.6700 C   0  0  1  0  0  0  0  0  0  0  0  0
  141.7010   78.6640  220.2980 C   0  0  0  0  0  0  0  0  0  0  0  0
  141.9860   78.6450  221.6580 O   0  0  0  0  0  0  0  0  0  0  0  0
  140.2680   71.3950  223.6750 C   0  0  0  0  0  0  0  0  0  0  0  0
  139.6350   70.1530  223.5800 C   0  0  0  0  0  0  0  0  0  0  0  0
  139.4200   69.4020  224.7360 C   0  0  0  0  0  0  0  0  0  0  0  0
  139.8470   69.9230  225.9390 C   0  0  0  0  0  0  0  0  0  0  0  0
  139.6470   69.1960  227.1130 C   0  0  0  0  0  0  0  0  0  0  0  0
  140.0540   69.6780  228.3210 C   0  0  0  0  0  0  0  0  0  0  0  0
  140.6780   70.9190  228.3460 C   0  0  0  0  0  0  0  0  0  0  0  0
  140.8780   71.6470  227.1720 C   0  0  0  0  0  0  0  0  0  0  0  0
  140.4640   71.1570  225.9510 C   0  0  0  0  0  0  0  0  0  0  0  0
  140.6730   71.8850  224.8370 N   0  0  0  0  0  0  0  0  0  0  0  0
  139.5770   73.9070  223.1960 H   0  0  0  0  0  0  0  0  0  0  0  0
  140.8544   73.6345  220.4521 H   0  0  0  0  0  0  0  0  0  0  0  0
  139.2100   74.3965  220.6951 H   0  0  0  0  0  0  0  0  0  0  0  0
  138.9130   75.8822  219.4209 H   0  0  0  0  0  0  0  0  0  0  0  0
  139.0576   77.6098  219.7187 H   0  0  0  0  0  0  0  0  0  0  0  0
  139.6445   77.6394  217.3963 H   0  0  0  0  0  0  0  0  0  0  0  0
  142.3017   76.6188  217.6795 H   0  0  0  0  0  0  0  0  0  0  0  0
  141.8137   78.3129  217.7510 H   0  0  0  0  0  0  0  0  0  0  0  0
  142.8612   76.9383  219.8795 H   0  0  0  0  0  0  0  0  0  0  0  0
  142.3944   79.3575  219.7997 H   0  0  0  0  0  0  0  0  0  0  0  0
  140.6568   78.9873  220.1746 H   0  0  0  0  0  0  0  0  0  0  0  0
  142.3850   77.7810  221.8700 H   0  0  0  0  0  0  0  0  0  0  0  0
  139.3088   69.7704  222.6016 H   0  0  0  0  0  0  0  0  0  0  0  0
  138.9236   68.4215  224.6889 H   0  0  0  0  0  0  0  0  0  0  0  0
  139.1514   68.2152  227.0626 H   0  0  0  0  0  0  0  0  0  0  0  0
  139.8938   69.1036  229.2454 H   0  0  0  0  0  0  0  0  0  0  0  0
  141.0196   71.3342  229.3056 H   0  0  0  0  0  0  0  0  0  0  0  0
  141.3740   72.6276  227.2214 H   0  0  0  0  0  0  0  0  0  0  0  0
  1  2  2  0
  2  3  1  0
  3  4  1  0
  4  5  1  0
  5  6  2  0
  5  7  1  0
  7  8  1  0
  8  9  1  0
  9 10  1  0
  9 11  1  0
 11 12  1  0
 12 13  1  0
 13 14  1  0
  2 15  1  0
 15 16  2  0
 16 17  1  0
 17 18  2  0
 18 19  1  0
 19 20  2  0
 20 21  1  0
 21 22  2  0
 22 23  1  0
 23 24  2  0
 12  7  1  0
 24 15  1  0
 23 18  1  0
  3 25  1  0
  4 26  1  0
  4 27  1  0
  8 28  1  0
  8 29  1  0
  9 30  1  6
 11 31  1  0
 11 32  1  0
 12 33  1  6
 13 34  1  0
 13 35  1  0
 14 36  1  0
 16 37  1  0
 17 38  1  0
 19 39  1  0
 20 40  1  0
 21 41  1  0
 22 42  1  0
M  END
>  <smiles>  (35) 
O=C(NCC(=O)N1C[C@H](F)C[C@H]1CO)c1ccc2ccccc2n1

>  <score_type>  (35) 
oracle

>  <origin>  (35) 
autodockgpu

>  <m_score__min__energy>  (35) 
-6.8799999999999999

>  <m_primary>  (35) 
energy

>  <rmsd>  (35) 
1.528299821596555

>  <m_score__min__rmsd>  (35) 
1.528299821596555

>  <meeko>  (35) 
{"free_energy": -6.12, "intermolecular_energy": -7.9, "internal_energy": -1.72, "cluster_size": 21, "cluster_id": 1, "rank_in_cluster": 15}

>  <energy>  (35) 
-6.11

>  <cluster_rmsd>  (35) 
0.13

>  <cluster>  (35) 
4

$$$$

     RDKit          3D

 42 44  0  0  0  0  0  0  0  0999 V2000
  137.3440   70.0100  222.0010 O   0  0  0  0  0  0  0  0  0  0  0  0
  137.8590   70.8040  222.8330 C   0  0  0  0  0  0  0  0  0  0  0  0
  137.7570   72.2080  222.5660 N   0  0  0  0  0  0  0  0  0  0  0  0
  137.0880   72.6670  221.3910 C   0  0  0  0  0  0  0  0  0  0  0  0
  137.6910   73.8860  220.7980 C   0  0  0  0  0  0  0  0  0  0  0  0
  137.1090   74.6670  220.0340 O   0  0  0  0  0  0  0  0  0  0  0  0
  139.0420   74.1700  221.1410 N   0  0  0  0  0  0  0  0  0  0  0  0
  139.4890   75.2570  222.0020 C   0  0  0  0  0  0  0  0  0  0  0  0
  140.7730   75.7270  221.3670 C   0  0  2  0  0  0  0  0  0  0  0  0
  140.5060   76.8140  220.5630 F   0  0  0  0  0  0  0  0  0  0  0  0
  141.3040   74.5460  220.5870 C   0  0  0  0  0  0  0  0  0  0  0  0
  140.2570   73.4770  220.7370 C   0  0  1  0  0  0  0  0  0  0  0  0
  140.5930   72.4860  221.8270 C   0  0  0  0  0  0  0  0  0  0  0  0
  140.3810   73.0140  223.0950 O   0  0  0  0  0  0  0  0  0  0  0  0
  138.5480   70.3490  224.0420 C   0  0  0  0  0  0  0  0  0  0  0  0
  138.5140   68.9770  224.3050 C   0  0  0  0  0  0  0  0  0  0  0  0
  139.1520   68.4800  225.4420 C   0  0  0  0  0  0  0  0  0  0  0  0
  139.7980   69.3750  226.2700 C   0  0  0  0  0  0  0  0  0  0  0  0
  140.4450   68.9080  227.4140 C   0  0  0  0  0  0  0  0  0  0  0  0
  141.0940   69.7620  228.2560 C   0  0  0  0  0  0  0  0  0  0  0  0
  141.0910   71.1140  227.9370 C   0  0  0  0  0  0  0  0  0  0  0  0
  140.4430   71.5800  226.7920 C   0  0  0  0  0  0  0  0  0  0  0  0
  139.7870   70.7140  225.9420 C   0  0  0  0  0  0  0  0  0  0  0  0
  139.1720   71.1980  224.8450 N   0  0  0  0  0  0  0  0  0  0  0  0
  138.1950   72.8590  223.2740 H   0  0  0  0  0  0  0  0  0  0  0  0
  137.1169   71.8645  220.6392 H   0  0  0  0  0  0  0  0  0  0  0  0
  136.0614   72.9283  221.6874 H   0  0  0  0  0  0  0  0  0  0  0  0
  138.7456   76.0674  222.0251 H   0  0  0  0  0  0  0  0  0  0  0  0
  139.6269   74.9385  223.0458 H   0  0  0  0  0  0  0  0  0  0  0  0
  141.5238   76.0561  222.1005 H   0  0  0  0  0  0  0  0  0  0  0  0
  141.4370   74.8108  219.5277 H   0  0  0  0  0  0  0  0  0  0  0  0
  142.2866   74.2161  220.9553 H   0  0  0  0  0  0  0  0  0  0  0  0
  140.1687   72.9195  219.7929 H   0  0  0  0  0  0  0  0  0  0  0  0
  139.9607   71.5944  221.7034 H   0  0  0  0  0  0  0  0  0  0  0  0
  141.6599   72.2330  221.7387 H   0  0  0  0  0  0  0  0  0  0  0  0
  139.5500   72.6410  223.4420 H   0  0  0  0  0  0  0  0  0  0  0  0
  137.9885   68.2943  223.6211 H   0  0  0  0  0  0  0  0  0  0  0  0
  139.1403   67.4044  225.6720 H   0  0  0  0  0  0  0  0  0  0  0  0
  140.4315   67.8318  227.6410 H   0  0  0  0  0  0  0  0  0  0  0  0
  141.6032   69.3924  229.1583 H   0  0  0  0  0  0  0  0  0  0  0  0
  141.6068   71.8276  228.5963 H   0  0  0  0  0  0  0  0  0  0  0  0
  140.4556   72.6560  226.5636 H   0  0  0  0  0  0  0  0  0  0  0  0
  1  2  2  0
  2  3  1  0
  3  4  1  0
  4  5  1  0
  5  6  2  0
  5  7  1  0
  7  8  1  0
  8  9  1  0
  9 10  1  0
  9 11  1  0
 11 12  1  0
 12 13  1  0
 13 14  1  0
  2 15  1  0
 15 16  2  0
 16 17  1  0
 17 18  2  0
 18 19  1  0
 19 20  2  0
 20 21  1  0
 21 22  2  0
 22 23  1  0
 23 24  2  0
 12  7  1  0
 24 15  1  0
 23 18  1  0
  3 25  1  0
  4 26  1  0
  4 27  1  0
  8 28  1  0
  8 29  1  0
  9 30  1  1
 11 31  1  0
 11 32  1  0
 12 33  1  6
 13 34  1  0
 13 35  1  0
 14 36  1  0
 16 37  1  0
 17 38  1  0
 19 39  1  0
 20 40  1  0
 21 41  1  0
 22 42  1  0
M  END
>  <smiles>  (36) 
O=C(NCC(=O)N1C[C@H](F)C[C@H]1CO)c1ccc2ccccc2n1

>  <score_type>  (36) 
oracle

>  <origin>  (36) 
autodockgpu

>  <m_score__min__energy>  (36) 
-6.8799999999999999

>  <m_primary>  (36) 
energy

>  <rmsd>  (36) 
2.628512910445592

>  <m_score__min__rmsd>  (36) 
2.628512910445592

>  <meeko>  (36) 
{"free_energy": -5.72, "intermolecular_energy": -7.51, "internal_energy": -2.6, "cluster_size": 10, "cluster_id": 2, "rank_in_cluster": 7}

>  <energy>  (36) 
-6.08

>  <cluster_rmsd>  (36) 
0.16

>  <cluster>  (36) 
4

$$$$

     RDKit          3D

 42 44  0  0  0  0  0  0  0  0999 V2000
  137.5190   70.1060  221.8820 O   0  0  0  0  0  0  0  0  0  0  0  0
  138.0220   70.8740  222.7440 C   0  0  0  0  0  0  0  0  0  0  0  0
  137.9610   72.2850  222.4970 N   0  0  0  0  0  0  0  0  0  0  0  0
  137.3440   72.7780  221.3080 C   0  0  0  0  0  0  0  0  0  0  0  0
  138.2940   73.4180  220.3640 C   0  0  0  0  0  0  0  0  0  0  0  0
  138.1430   73.4780  219.1360 O   0  0  0  0  0  0  0  0  0  0  0  0
  139.4640   74.0030  220.9240 N   0  0  0  0  0  0  0  0  0  0  0  0
  139.4880   75.0560  221.9300 C   0  0  0  0  0  0  0  0  0  0  0  0
  140.6570   75.9210  221.5310 C   0  0  2  0  0  0  0  0  0  0  0  0
  140.1960   76.9880  220.7910 F   0  0  0  0  0  0  0  0  0  0  0  0
  141.5820   75.0240  220.7400 C   0  0  0  0  0  0  0  0  0  0  0  0
  140.8610   73.7080  220.6440 C   0  0  1  0  0  0  0  0  0  0  0  0
  141.3280   72.7150  221.6820 C   0  0  0  0  0  0  0  0  0  0  0  0
  140.5280   72.7350  222.8190 O   0  0  0  0  0  0  0  0  0  0  0  0
  138.6580   70.3840  223.9690 C   0  0  0  0  0  0  0  0  0  0  0  0
  138.5370   69.0180  224.2350 C   0  0  0  0  0  0  0  0  0  0  0  0
  139.1210   68.4880  225.3860 C   0  0  0  0  0  0  0  0  0  0  0  0
  139.8020   69.3460  226.2240 C   0  0  0  0  0  0  0  0  0  0  0  0
  140.3960   68.8470  227.3830 C   0  0  0  0  0  0  0  0  0  0  0  0
  141.0760   69.6630  228.2360 C   0  0  0  0  0  0  0  0  0  0  0  0
  141.1600   71.0120  227.9130 C   0  0  0  0  0  0  0  0  0  0  0  0
  140.5650   71.5120  226.7540 C   0  0  0  0  0  0  0  0  0  0  0  0
  139.8760   70.6830  225.8930 C   0  0  0  0  0  0  0  0  0  0  0  0
  139.3140   71.1980  224.7820 N   0  0  0  0  0  0  0  0  0  0  0  0
  138.3880   72.9140  223.2320 H   0  0  0  0  0  0  0  0  0  0  0  0
  136.8581   71.9356  220.7939 H   0  0  0  0  0  0  0  0  0  0  0  0
  136.6259   73.5524  221.6158 H   0  0  0  0  0  0  0  0  0  0  0  0
  138.5518   75.6332  221.9132 H   0  0  0  0  0  0  0  0  0  0  0  0
  139.5853   74.6607  222.9519 H   0  0  0  0  0  0  0  0  0  0  0  0
  141.1954   76.3454  222.3912 H   0  0  0  0  0  0  0  0  0  0  0  0
  141.7608   75.4407  219.7378 H   0  0  0  0  0  0  0  0  0  0  0  0
  142.5669   74.9212  221.2191 H   0  0  0  0  0  0  0  0  0  0  0  0
  141.0411   73.2662  219.6529 H   0  0  0  0  0  0  0  0  0  0  0  0
  141.3000   71.7056  221.2458 H   0  0  0  0  0  0  0  0  0  0  0  0
  142.3500   72.9911  221.9808 H   0  0  0  0  0  0  0  0  0  0  0  0
  140.4180   71.8160  223.1270 H   0  0  0  0  0  0  0  0  0  0  0  0
  137.9855   68.3652  223.5424 H   0  0  0  0  0  0  0  0  0  0  0  0
  139.0405   67.4159  225.6186 H   0  0  0  0  0  0  0  0  0  0  0  0
  140.3139   67.7744  227.6127 H   0  0  0  0  0  0  0  0  0  0  0  0
  141.5430   69.2673  229.1499 H   0  0  0  0  0  0  0  0  0  0  0  0
  141.7038   71.6961  228.5811 H   0  0  0  0  0  0  0  0  0  0  0  0
  140.6467   72.5844  226.5232 H   0  0  0  0  0  0  0  0  0  0  0  0
  1  2  2  0
  2  3  1  0
  3  4  1  0
  4  5  1  0
  5  6  2  0
  5  7  1  0
  7  8  1  0
  8  9  1  0
  9 10  1  0
  9 11  1  0
 11 12  1  0
 12 13  1  0
 13 14  1  0
  2 15  1  0
 15 16  2  0
 16 17  1  0
 17 18  2  0
 18 19  1  0
 19 20  2  0
 20 21  1  0
 21 22  2  0
 22 23  1  0
 23 24  2  0
 12  7  1  0
 24 15  1  0
 23 18  1  0
  3 25  1  0
  4 26  1  0
  4 27  1  0
  8 28  1  0
  8 29  1  0
  9 30  1  1
 11 31  1  0
 11 32  1  0
 12 33  1  6
 13 34  1  0
 13 35  1  0
 14 36  1  0
 16 37  1  0
 17 38  1  0
 19 39  1  0
 20 40  1  0
 21 41  1  0
 22 42  1  0
M  END
>  <smiles>  (37) 
O=C(NCC(=O)N1C[C@H](F)C[C@H]1CO)c1ccc2ccccc2n1

>  <score_type>  (37) 
oracle

>  <origin>  (37) 
autodockgpu

>  <m_score__min__energy>  (37) 
-6.8799999999999999

>  <m_primary>  (37) 
energy

>  <rmsd>  (37) 
2.5190594870718983

>  <m_score__min__rmsd>  (37) 
2.5190594870718983

>  <meeko>  (37) 
{"free_energy": -5.4, "intermolecular_energy": -7.19, "internal_energy": -2.76, "cluster_size": 10, "cluster_id": 2, "rank_in_cluster": 9}

>  <energy>  (37) 
-6.07

>  <cluster_rmsd>  (37) 
0.72

>  <cluster>  (37) 
4

$$$$

     RDKit          3D

 42 44  0  0  0  0  0  0  0  0999 V2000
  141.3480   72.0150  221.6440 O   0  0  0  0  0  0  0  0  0  0  0  0
  140.4960   72.3030  222.5270 C   0  0  0  0  0  0  0  0  0  0  0  0
  139.7150   73.4890  222.3370 N   0  0  0  0  0  0  0  0  0  0  0  0
  139.9130   74.3000  221.1780 C   0  0  0  0  0  0  0  0  0  0  0  0
  140.2880   75.7020  221.4870 C   0  0  0  0  0  0  0  0  0  0  0  0
  139.8290   76.3700  222.4240 O   0  0  0  0  0  0  0  0  0  0  0  0
  141.2490   76.3160  220.6360 N   0  0  0  0  0  0  0  0  0  0  0  0
  141.8180   77.6440  220.8190 C   0  0  0  0  0  0  0  0  0  0  0  0
  141.9480   78.1850  219.4180 C   0  0  2  0  0  0  0  0  0  0  0  0
  140.8530   78.9720  219.1350 F   0  0  0  0  0  0  0  0  0  0  0  0
  142.0430   76.9760  218.5150 C   0  0  0  0  0  0  0  0  0  0  0  0
  141.8720   75.7940  219.4290 C   0  0  1  0  0  0  0  0  0  0  0  0
  143.1920   75.1800  219.8340 C   0  0  0  0  0  0  0  0  0  0  0  0
  143.0410   74.2380  220.8440 O   0  0  0  0  0  0  0  0  0  0  0  0
  140.2820   71.4820  223.7200 C   0  0  0  0  0  0  0  0  0  0  0  0
  139.6190   70.2670  223.5350 C   0  0  0  0  0  0  0  0  0  0  0  0
  139.3840   69.4380  224.6330 C   0  0  0  0  0  0  0  0  0  0  0  0
  139.8210   69.8600  225.8710 C   0  0  0  0  0  0  0  0  0  0  0  0
  139.6010   69.0540  226.9880 C   0  0  0  0  0  0  0  0  0  0  0  0
  140.0180   69.4360  228.2280 C   0  0  0  0  0  0  0  0  0  0  0  0
  140.6720   70.6560  228.3440 C   0  0  0  0  0  0  0  0  0  0  0  0
  140.8920   71.4630  227.2270 C   0  0  0  0  0  0  0  0  0  0  0  0
  140.4680   71.0740  225.9730 C   0  0  0  0  0  0  0  0  0  0  0  0
  140.6970   71.8760  224.9150 N   0  0  0  0  0  0  0  0  0  0  0  0
  139.0050   73.7160  223.0880 H   0  0  0  0  0  0  0  0  0  0  0  0
  140.7149   73.8514  220.5733 H   0  0  0  0  0  0  0  0  0  0  0  0
  138.9527   74.3350  220.6427 H   0  0  0  0  0  0  0  0  0  0  0  0
  141.1486   78.2760  221.4210 H   0  0  0  0  0  0  0  0  0  0  0  0
  142.7791   77.6213  221.3535 H   0  0  0  0  0  0  0  0  0  0  0  0
  142.8346   78.8215  219.2806 H   0  0  0  0  0  0  0  0  0  0  0  0
  141.2469   76.9965  217.7562 H   0  0  0  0  0  0  0  0  0  0  0  0
  142.9973   76.9418  217.9689 H   0  0  0  0  0  0  0  0  0  0  0  0
  141.2850   75.0188  218.9148 H   0  0  0  0  0  0  0  0  0  0  0  0
  143.6400   74.6908  218.9565 H   0  0  0  0  0  0  0  0  0  0  0  0
  143.8380   75.9849  220.2146 H   0  0  0  0  0  0  0  0  0  0  0  0
  142.3100   73.6420  220.5940 H   0  0  0  0  0  0  0  0  0  0  0  0
  139.2845   69.9655  222.5314 H   0  0  0  0  0  0  0  0  0  0  0  0
  138.8650   68.4754  224.5142 H   0  0  0  0  0  0  0  0  0  0  0  0
  139.0813   68.0922  226.8658 H   0  0  0  0  0  0  0  0  0  0  0  0
  139.8425   68.7994  229.1077 H   0  0  0  0  0  0  0  0  0  0  0  0
  141.0219   70.9911  229.3316 H   0  0  0  0  0  0  0  0  0  0  0  0
  141.4118   72.4248  227.3482 H   0  0  0  0  0  0  0  0  0  0  0  0
  1  2  2  0
  2  3  1  0
  3  4  1  0
  4  5  1  0
  5  6  2  0
  5  7  1  0
  7  8  1  0
  8  9  1  0
  9 10  1  0
  9 11  1  0
 11 12  1  0
 12 13  1  0
 13 14  1  0
  2 15  1  0
 15 16  2  0
 16 17  1  0
 17 18  2  0
 18 19  1  0
 19 20  2  0
 20 21  1  0
 21 22  2  0
 22 23  1  0
 23 24  2  0
 12  7  1  0
 24 15  1  0
 23 18  1  0
  3 25  1  0
  4 26  1  0
  4 27  1  0
  8 28  1  0
  8 29  1  0
  9 30  1  1
 11 31  1  0
 11 32  1  0
 12 33  1  6
 13 34  1  0
 13 35  1  0
 14 36  1  0
 16 37  1  0
 17 38  1  0
 19 39  1  0
 20 40  1  0
 21 41  1  0
 22 42  1  0
M  END
>  <smiles>  (38) 
O=C(NCC(=O)N1C[C@H](F)C[C@H]1CO)c1ccc2ccccc2n1

>  <score_type>  (38) 
oracle

>  <origin>  (38) 
autodockgpu

>  <m_score__min__energy>  (38) 
-6.8799999999999999

>  <m_primary>  (38) 
energy

>  <rmsd>  (38) 
2.297589641569098

>  <m_score__min__rmsd>  (38) 
2.297589641569098

>  <meeko>  (38) 
{"free_energy": -6.22, "intermolecular_energy": -8.01, "internal_energy": -1.79, "cluster_size": 21, "cluster_id": 1, "rank_in_cluster": 10}

>  <energy>  (38) 
-6.06

>  <cluster_rmsd>  (38) 
0.72

>  <cluster>  (38) 
4

$$$$

     RDKit          3D

 42 44  0  0  0  0  0  0  0  0999 V2000
  138.7900   75.2340  221.7240 O   0  0  0  0  0  0  0  0  0  0  0  0
  139.9470   75.7190  221.8370 C   0  0  0  0  0  0  0  0  0  0  0  0
  141.0550   74.8970  221.4480 N   0  0  0  0  0  0  0  0  0  0  0  0
  140.8290   73.5770  220.9530 C   0  0  0  0  0  0  0  0  0  0  0  0
  142.0390   72.7190  220.9670 C   0  0  0  0  0  0  0  0  0  0  0  0
  142.1020   71.5870  221.4660 O   0  0  0  0  0  0  0  0  0  0  0  0
  143.2120   73.2470  220.3590 N   0  0  0  0  0  0  0  0  0  0  0  0
  144.0180   72.5770  219.3460 C   0  0  0  0  0  0  0  0  0  0  0  0
  145.4350   72.9540  219.6940 C   0  0  2  0  0  0  0  0  0  0  0  0
  145.9990   71.9450  220.4430 F   0  0  0  0  0  0  0  0  0  0  0  0
  145.3410   74.2580  220.4530 C   0  0  0  0  0  0  0  0  0  0  0  0
  143.8670   74.5260  220.5860 C   0  0  1  0  0  0  0  0  0  0  0  0
  143.3570   75.4850  219.5360 C   0  0  0  0  0  0  0  0  0  0  0  0
  142.8810   76.6660  220.0950 O   0  0  0  0  0  0  0  0  0  0  0  0
  140.1950   77.0700  222.3430 C   0  0  0  0  0  0  0  0  0  0  0  0
  139.0750   77.8120  222.7250 C   0  0  0  0  0  0  0  0  0  0  0  0
  139.2440   79.1070  223.2170 C   0  0  0  0  0  0  0  0  0  0  0  0
  140.5260   79.6070  223.3040 C   0  0  0  0  0  0  0  0  0  0  0  0
  140.7280   80.8990  223.7910 C   0  0  0  0  0  0  0  0  0  0  0  0
  141.9800   81.4280  223.8920 C   0  0  0  0  0  0  0  0  0  0  0  0
  143.0510   80.6380  223.4950 C   0  0  0  0  0  0  0  0  0  0  0  0
  142.8500   79.3460  223.0080 C   0  0  0  0  0  0  0  0  0  0  0  0
  141.5810   78.8130  222.9060 C   0  0  0  0  0  0  0  0  0  0  0  0
  141.4220   77.5620  222.4320 N   0  0  0  0  0  0  0  0  0  0  0  0
  142.0190   75.3210  221.5490 H   0  0  0  0  0  0  0  0  0  0  0  0
  140.0579   73.1000  221.5758 H   0  0  0  0  0  0  0  0  0  0  0  0
  140.5181   73.6767  219.9026 H   0  0  0  0  0  0  0  0  0  0  0  0
  143.8806   71.4868  219.3961 H   0  0  0  0  0  0  0  0  0  0  0  0
  143.7417   72.8732  218.3233 H   0  0  0  0  0  0  0  0  0  0  0  0
  146.0776   73.0842  218.8108 H   0  0  0  0  0  0  0  0  0  0  0  0
  145.8076   74.1626  221.4446 H   0  0  0  0  0  0  0  0  0  0  0  0
  145.8645   75.0756  219.9358 H   0  0  0  0  0  0  0  0  0  0  0  0
  143.6653   74.9696  221.5722 H   0  0  0  0  0  0  0  0  0  0  0  0
  144.1789   75.7252  218.8454 H   0  0  0  0  0  0  0  0  0  0  0  0
  142.5229   74.9988  219.0088 H   0  0  0  0  0  0  0  0  0  0  0  0
  142.7070   76.5030  221.0400 H   0  0  0  0  0  0  0  0  0  0  0  0
  138.0675   77.3790  222.6387 H   0  0  0  0  0  0  0  0  0  0  0  0
  138.3789   79.7117  223.5266 H   0  0  0  0  0  0  0  0  0  0  0  0
  139.8608   81.5016  224.0990 H   0  0  0  0  0  0  0  0  0  0  0  0
  142.1370   82.4470  224.2753 H   0  0  0  0  0  0  0  0  0  0  0  0
  144.0736   81.0370  223.5656 H   0  0  0  0  0  0  0  0  0  0  0  0
  143.7168   78.7426  222.7004 H   0  0  0  0  0  0  0  0  0  0  0  0
  1  2  2  0
  2  3  1  0
  3  4  1  0
  4  5  1  0
  5  6  2  0
  5  7  1  0
  7  8  1  0
  8  9  1  0
  9 10  1  0
  9 11  1  0
 11 12  1  0
 12 13  1  0
 13 14  1  0
  2 15  1  0
 15 16  2  0
 16 17  1  0
 17 18  2  0
 18 19  1  0
 19 20  2  0
 20 21  1  0
 21 22  2  0
 22 23  1  0
 23 24  2  0
 12  7  1  0
 24 15  1  0
 23 18  1  0
  3 25  1  0
  4 26  1  0
  4 27  1  0
  8 28  1  0
  8 29  1  0
  9 30  1  6
 11 31  1  0
 11 32  1  0
 12 33  1  1
 13 34  1  0
 13 35  1  0
 14 36  1  0
 16 37  1  0
 17 38  1  0
 19 39  1  0
 20 40  1  0
 21 41  1  0
 22 42  1  0
M  END
>  <smiles>  (39) 
O=C(NCC(=O)N1C[C@H](F)C[C@H]1CO)c1ccc2ccccc2n1

>  <score_type>  (39) 
oracle

>  <origin>  (39) 
autodockgpu

>  <m_score__min__energy>  (39) 
-6.8799999999999999

>  <m_primary>  (39) 
energy

>  <rmsd>  (39) 
7.6369857984063865

>  <m_score__min__rmsd>  (39) 
7.6369857984063865

>  <meeko>  (39) 
{"free_energy": -6.0, "intermolecular_energy": -7.79, "internal_energy": -2.58, "cluster_size": 12, "cluster_id": 4, "rank_in_cluster": 8}

>  <energy>  (39) 
-6.05

>  <cluster_rmsd>  (39) 
0.8

>  <cluster>  (39) 
4

$$$$

     RDKit          3D

 42 44  0  0  0  0  0  0  0  0999 V2000
  136.3410   77.8050  222.4400 O   0  0  0  0  0  0  0  0  0  0  0  0
  137.3650   77.1230  222.7120 C   0  0  0  0  0  0  0  0  0  0  0  0
  137.1880   75.7210  222.9500 N   0  0  0  0  0  0  0  0  0  0  0  0
  135.8860   75.1400  222.8760 C   0  0  0  0  0  0  0  0  0  0  0  0
  135.2830   74.8570  224.2020 C   0  0  0  0  0  0  0  0  0  0  0  0
  135.5930   73.9090  224.9360 O   0  0  0  0  0  0  0  0  0  0  0  0
  134.2720   75.7500  224.6550 N   0  0  0  0  0  0  0  0  0  0  0  0
  133.2370   76.3520  223.8240 C   0  0  0  0  0  0  0  0  0  0  0  0
  133.0840   77.7460  224.3780 C   0  0  2  0  0  0  0  0  0  0  0  0
  133.8390   78.6160  223.6230 F   0  0  0  0  0  0  0  0  0  0  0  0
  133.5470   77.6720  225.8150 C   0  0  0  0  0  0  0  0  0  0  0  0
  134.0300   76.2590  225.9970 C   0  0  1  0  0  0  0  0  0  0  0  0
  132.9890   75.3690  226.6350 C   0  0  0  0  0  0  0  0  0  0  0  0
  133.4600   74.0760  226.8330 O   0  0  0  0  0  0  0  0  0  0  0  0
  138.7070   77.7040  222.7910 C   0  0  0  0  0  0  0  0  0  0  0  0
  139.7660   76.8970  222.3700 C   0  0  0  0  0  0  0  0  0  0  0  0
  141.0690   77.3930  222.4200 C   0  0  0  0  0  0  0  0  0  0  0  0
  141.2600   78.6760  222.8900 C   0  0  0  0  0  0  0  0  0  0  0  0
  142.5510   79.2000  222.9530 C   0  0  0  0  0  0  0  0  0  0  0  0
  142.7790   80.4630  223.4130 C   0  0  0  0  0  0  0  0  0  0  0  0
  141.6820   81.2130  223.8170 C   0  0  0  0  0  0  0  0  0  0  0  0
  140.3900   80.6890  223.7540 C   0  0  0  0  0  0  0  0  0  0  0  0
  140.1620   79.4100  223.2890 C   0  0  0  0  0  0  0  0  0  0  0  0
  138.9020   78.9350  223.2410 N   0  0  0  0  0  0  0  0  0  0  0  0
  138.0590   75.1650  223.1760 H   0  0  0  0  0  0  0  0  0  0  0  0
  135.2260   75.8344  222.3354 H   0  0  0  0  0  0  0  0  0  0  0  0
  135.9934   74.1750  222.3591 H   0  0  0  0  0  0  0  0  0  0  0  0
  133.5513   76.3830  222.7703 H   0  0  0  0  0  0  0  0  0  0  0  0
  132.2953   75.7838  223.8454 H   0  0  0  0  0  0  0  0  0  0  0  0
  132.0488   78.1161  224.3400 H   0  0  0  0  0  0  0  0  0  0  0  0
  134.3642   78.3860  225.9950 H   0  0  0  0  0  0  0  0  0  0  0  0
  132.7435   77.9278  226.5213 H   0  0  0  0  0  0  0  0  0  0  0  0
  134.9161   76.2584  226.6488 H   0  0  0  0  0  0  0  0  0  0  0  0
  132.7045   75.7962  227.6079 H   0  0  0  0  0  0  0  0  0  0  0  0
  132.1252   75.3157  225.9560 H   0  0  0  0  0  0  0  0  0  0  0  0
  134.1270   73.8890  226.1470 H   0  0  0  0  0  0  0  0  0  0  0  0
  139.5744   75.8783  222.0019 H   0  0  0  0  0  0  0  0  0  0  0  0
  141.9207   76.7781  222.0937 H   0  0  0  0  0  0  0  0  0  0  0  0
  143.4007   78.5830  222.6256 H   0  0  0  0  0  0  0  0  0  0  0  0
  143.7980   80.8744  223.4625 H   0  0  0  0  0  0  0  0  0  0  0  0
  141.8339   82.2357  224.1924 H   0  0  0  0  0  0  0  0  0  0  0  0
  139.5396   81.3057  224.0803 H   0  0  0  0  0  0  0  0  0  0  0  0
  1  2  2  0
  2  3  1  0
  3  4  1  0
  4  5  1  0
  5  6  2  0
  5  7  1  0
  7  8  1  0
  8  9  1  0
  9 10  1  0
  9 11  1  0
 11 12  1  0
 12 13  1  0
 13 14  1  0
  2 15  1  0
 15 16  2  0
 16 17  1  0
 17 18  2  0
 18 19  1  0
 19 20  2  0
 20 21  1  0
 21 22  2  0
 22 23  1  0
 23 24  2  0
 12  7  1  0
 24 15  1  0
 23 18  1  0
  3 25  1  0
  4 26  1  0
  4 27  1  0
  8 28  1  0
  8 29  1  0
  9 30  1  1
 11 31  1  0
 11 32  1  0
 12 33  1  1
 13 34  1  0
 13 35  1  0
 14 36  1  0
 16 37  1  0
 17 38  1  0
 19 39  1  0
 20 40  1  0
 21 41  1  0
 22 42  1  0
M  END
>  <smiles>  (40) 
O=C(NCC(=O)N1C[C@H](F)C[C@H]1CO)c1ccc2ccccc2n1

>  <score_type>  (40) 
oracle

>  <origin>  (40) 
autodockgpu

>  <m_score__min__energy>  (40) 
-6.8799999999999999

>  <m_primary>  (40) 
energy

>  <rmsd>  (40) 
8.815599293321611

>  <m_score__min__rmsd>  (40) 
8.815599293321611

>  <meeko>  (40) 
{"free_energy": -5.66, "intermolecular_energy": -7.45, "internal_energy": -1.81, "cluster_size": 1, "cluster_id": 8, "rank_in_cluster": 1}

>  <energy>  (40) 
-6.0

>  <cluster_rmsd>  (40) 
0.69

>  <cluster>  (40) 
4

$$$$

     RDKit          3D

 42 44  0  0  0  0  0  0  0  0999 V2000
  140.8480   71.5660  221.3640 O   0  0  0  0  0  0  0  0  0  0  0  0
  140.3360   72.0700  222.3990 C   0  0  0  0  0  0  0  0  0  0  0  0
  139.8540   73.4160  222.3150 N   0  0  0  0  0  0  0  0  0  0  0  0
  139.9590   74.1410  221.0900 C   0  0  0  0  0  0  0  0  0  0  0  0
  141.0500   75.1470  221.0830 C   0  0  0  0  0  0  0  0  0  0  0  0
  141.0370   76.2130  221.7150 O   0  0  0  0  0  0  0  0  0  0  0  0
  142.1920   74.8560  220.2870 N   0  0  0  0  0  0  0  0  0  0  0  0
  143.1480   75.8340  219.7840 C   0  0  0  0  0  0  0  0  0  0  0  0
  143.5060   75.3290  218.4100 C   0  0  2  0  0  0  0  0  0  0  0  0
  142.7330   75.9820  217.4750 F   0  0  0  0  0  0  0  0  0  0  0  0
  143.2470   73.8390  218.4370 C   0  0  0  0  0  0  0  0  0  0  0  0
  142.6680   73.5700  219.7990 C   0  0  1  0  0  0  0  0  0  0  0  0
  143.7030   73.0720  220.7800 C   0  0  0  0  0  0  0  0  0  0  0  0
  143.5890   71.7050  221.0100 O   0  0  0  0  0  0  0  0  0  0  0  0
  140.2210   71.3400  223.6640 C   0  0  0  0  0  0  0  0  0  0  0  0
  139.6090   70.0860  223.6100 C   0  0  0  0  0  0  0  0  0  0  0  0
  139.4680   69.3400  224.7810 C   0  0  0  0  0  0  0  0  0  0  0  0
  139.9460   69.8790  225.9570 C   0  0  0  0  0  0  0  0  0  0  0  0
  139.8210   69.1580  227.1440 C   0  0  0  0  0  0  0  0  0  0  0  0
  140.2800   69.6570  228.3260 C   0  0  0  0  0  0  0  0  0  0  0  0
  140.8790   70.9100  228.3110 C   0  0  0  0  0  0  0  0  0  0  0  0
  141.0050   71.6320  227.1230 C   0  0  0  0  0  0  0  0  0  0  0  0
  140.5380   71.1250  225.9280 C   0  0  0  0  0  0  0  0  0  0  0  0
  140.6760   71.8480  224.8000 N   0  0  0  0  0  0  0  0  0  0  0  0
  139.4280   73.8240  223.1940 H   0  0  0  0  0  0  0  0  0  0  0  0
  140.1431   73.4236  220.2767 H   0  0  0  0  0  0  0  0  0  0  0  0
  139.0149   74.6903  220.9600 H   0  0  0  0  0  0  0  0  0  0  0  0
  142.6902   76.8325  219.7255 H   0  0  0  0  0  0  0  0  0  0  0  0
  144.0272   75.9378  220.4368 H   0  0  0  0  0  0  0  0  0  0  0  0
  144.5549   75.5193  218.1386 H   0  0  0  0  0  0  0  0  0  0  0  0
  142.5322   73.5564  217.6501 H   0  0  0  0  0  0  0  0  0  0  0  0
  144.1622   73.2568  218.2544 H   0  0  0  0  0  0  0  0  0  0  0  0
  141.8870   72.7999  219.7157 H   0  0  0  0  0  0  0  0  0  0  0  0
  144.7045   73.2817  220.3763 H   0  0  0  0  0  0  0  0  0  0  0  0
  143.5420   73.5916  221.7361 H   0  0  0  0  0  0  0  0  0  0  0  0
  142.6460   71.5010  221.1530 H   0  0  0  0  0  0  0  0  0  0  0  0
  139.2410   69.6894  222.6522 H   0  0  0  0  0  0  0  0  0  0  0  0
  138.9890   68.3498  224.7664 H   0  0  0  0  0  0  0  0  0  0  0  0
  139.3428   68.1676  227.1258 H   0  0  0  0  0  0  0  0  0  0  0  0
  140.1795   69.0864  229.2610 H   0  0  0  0  0  0  0  0  0  0  0  0
  141.2598   71.3398  229.2492 H   0  0  0  0  0  0  0  0  0  0  0  0
  141.4847   72.6218  227.1399 H   0  0  0  0  0  0  0  0  0  0  0  0
  1  2  2  0
  2  3  1  0
  3  4  1  0
  4  5  1  0
  5  6  2  0
  5  7  1  0
  7  8  1  0
  8  9  1  0
  9 10  1  0
  9 11  1  0
 11 12  1  0
 12 13  1  0
 13 14  1  0
  2 15  1  0
 15 16  2  0
 16 17  1  0
 17 18  2  0
 18 19  1  0
 19 20  2  0
 20 21  1  0
 21 22  2  0
 22 23  1  0
 23 24  2  0
 12  7  1  0
 24 15  1  0
 23 18  1  0
  3 25  1  0
  4 26  1  0
  4 27  1  0
  8 28  1  0
  8 29  1  0
  9 30  1  6
 11 31  1  0
 11 32  1  0
 12 33  1  6
 13 34  1  0
 13 35  1  0
 14 36  1  0
 16 37  1  0
 17 38  1  0
 19 39  1  0
 20 40  1  0
 21 41  1  0
 22 42  1  0
M  END
>  <smiles>  (41) 
O=C(NCC(=O)N1C[C@H](F)C[C@H]1CO)c1ccc2ccccc2n1

>  <score_type>  (41) 
oracle

>  <origin>  (41) 
autodockgpu

>  <m_score__min__energy>  (41) 
-6.8799999999999999

>  <m_primary>  (41) 
energy

>  <rmsd>  (41) 
2.7492789738191368

>  <m_score__min__rmsd>  (41) 
2.7492789738191368

>  <meeko>  (41) 
{"free_energy": -5.9, "intermolecular_energy": -7.69, "internal_energy": -1.92, "cluster_size": 21, "cluster_id": 1, "rank_in_cluster": 18}

>  <energy>  (41) 
-5.97

>  <cluster_rmsd>  (41) 
0.17

>  <cluster>  (41) 
4

$$$$

     RDKit          3D

 42 44  0  0  0  0  0  0  0  0999 V2000
  139.5800   70.9060  221.4040 O   0  0  0  0  0  0  0  0  0  0  0  0
  139.7170   71.4900  222.5120 C   0  0  0  0  0  0  0  0  0  0  0  0
  139.7970   72.9200  222.5070 N   0  0  0  0  0  0  0  0  0  0  0  0
  139.7210   73.6380  221.2750 C   0  0  0  0  0  0  0  0  0  0  0  0
  140.2750   75.0130  221.3490 C   0  0  0  0  0  0  0  0  0  0  0  0
  140.2990   75.7140  222.3700 O   0  0  0  0  0  0  0  0  0  0  0  0
  140.8170   75.5560  220.1520 N   0  0  0  0  0  0  0  0  0  0  0  0
  140.0860   75.7660  218.9090 C   0  0  0  0  0  0  0  0  0  0  0  0
  141.0860   75.4310  217.8310 C   0  0  2  0  0  0  0  0  0  0  0  0
  140.8930   74.1290  217.4270 F   0  0  0  0  0  0  0  0  0  0  0  0
  142.4480   75.6500  218.4500 C   0  0  0  0  0  0  0  0  0  0  0  0
  142.1710   76.0160  219.8820 C   0  0  1  0  0  0  0  0  0  0  0  0
  142.1940   77.5080  220.1140 C   0  0  0  0  0  0  0  0  0  0  0  0
  141.6520   77.8530  221.3460 O   0  0  0  0  0  0  0  0  0  0  0  0
  139.7960   70.7680  223.7840 C   0  0  0  0  0  0  0  0  0  0  0  0
  139.2650   69.4770  223.8070 C   0  0  0  0  0  0  0  0  0  0  0  0
  139.3090   68.7360  224.9880 C   0  0  0  0  0  0  0  0  0  0  0  0
  139.8840   69.3180  226.0990 C   0  0  0  0  0  0  0  0  0  0  0  0
  139.9440   68.6030  227.2950 C   0  0  0  0  0  0  0  0  0  0  0  0
  140.5030   69.1450  228.4150 C   0  0  0  0  0  0  0  0  0  0  0  0
  141.0130   70.4340  228.3250 C   0  0  0  0  0  0  0  0  0  0  0  0
  140.9530   71.1490  227.1280 C   0  0  0  0  0  0  0  0  0  0  0  0
  140.3860   70.5990  225.9970 C   0  0  0  0  0  0  0  0  0  0  0  0
  140.3450   71.3170  224.8580 N   0  0  0  0  0  0  0  0  0  0  0  0
  139.9110   73.3930  223.4460 H   0  0  0  0  0  0  0  0  0  0  0  0
  140.2821   73.0784  220.5121 H   0  0  0  0  0  0  0  0  0  0  0  0
  138.6541   73.7350  221.0255 H   0  0  0  0  0  0  0  0  0  0  0  0
  139.2130   75.0991  218.8523 H   0  0  0  0  0  0  0  0  0  0  0  0
  139.6951   76.7902  218.8178 H   0  0  0  0  0  0  0  0  0  0  0  0
  140.9805   76.0568  216.9325 H   0  0  0  0  0  0  0  0  0  0  0  0
  143.0497   74.7308  218.3954 H   0  0  0  0  0  0  0  0  0  0  0  0
  143.0185   76.4316  217.9269 H   0  0  0  0  0  0  0  0  0  0  0  0
  142.9398   75.5653  220.5268 H   0  0  0  0  0  0  0  0  0  0  0  0
  143.2363   77.8572  220.0746 H   0  0  0  0  0  0  0  0  0  0  0  0
  141.5847   77.9824  219.3306 H   0  0  0  0  0  0  0  0  0  0  0  0
  141.8630   77.1420  221.9790 H   0  0  0  0  0  0  0  0  0  0  0  0
  138.8150   69.0471  222.9000 H   0  0  0  0  0  0  0  0  0  0  0  0
  138.8971   67.7170  225.0323 H   0  0  0  0  0  0  0  0  0  0  0  0
  139.5331   67.5835  227.3358 H   0  0  0  0  0  0  0  0  0  0  0  0
  140.5484   68.5803  229.3579 H   0  0  0  0  0  0  0  0  0  0  0  0
  141.4711   70.8982  229.2108 H   0  0  0  0  0  0  0  0  0  0  0  0
  141.3647   72.1682  227.0856 H   0  0  0  0  0  0  0  0  0  0  0  0
  1  2  2  0
  2  3  1  0
  3  4  1  0
  4  5  1  0
  5  6  2  0
  5  7  1  0
  7  8  1  0
  8  9  1  0
  9 10  1  0
  9 11  1  0
 11 12  1  0
 12 13  1  0
 13 14  1  0
  2 15  1  0
 15 16  2  0
 16 17  1  0
 17 18  2  0
 18 19  1  0
 19 20  2  0
 20 21  1  0
 21 22  2  0
 22 23  1  0
 23 24  2  0
 12  7  1  0
 24 15  1  0
 23 18  1  0
  3 25  1  0
  4 26  1  0
  4 27  1  0
  8 28  1  0
  8 29  1  0
  9 30  1  6
 11 31  1  0
 11 32  1  0
 12 33  1  1
 13 34  1  0
 13 35  1  0
 14 36  1  0
 16 37  1  0
 17 38  1  0
 19 39  1  0
 20 40  1  0
 21 41  1  0
 22 42  1  0
M  END
>  <smiles>  (42) 
O=C(NCC(=O)N1C[C@H](F)C[C@H]1CO)c1ccc2ccccc2n1

>  <score_type>  (42) 
oracle

>  <origin>  (42) 
autodockgpu

>  <m_score__min__energy>  (42) 
-6.8799999999999999

>  <m_primary>  (42) 
energy

>  <rmsd>  (42) 
1.3470648094526736

>  <m_score__min__rmsd>  (42) 
1.3470648094526736

>  <meeko>  (42) 
{"free_energy": -6.14, "intermolecular_energy": -7.93, "internal_energy": -1.98, "cluster_size": 21, "cluster_id": 1, "rank_in_cluster": 13}

>  <energy>  (42) 
-5.97

>  <cluster_rmsd>  (42) 
0.82

>  <cluster>  (42) 
4

$$$$

     RDKit          3D

 42 44  0  0  0  0  0  0  0  0999 V2000
  140.9920   71.9560  222.0700 O   0  0  0  0  0  0  0  0  0  0  0  0
  140.0060   71.8440  222.8460 C   0  0  0  0  0  0  0  0  0  0  0  0
  138.8860   72.7120  222.6310 N   0  0  0  0  0  0  0  0  0  0  0  0
  138.9100   73.6620  221.5650 C   0  0  0  0  0  0  0  0  0  0  0  0
  139.8760   74.7680  221.7730 C   0  0  0  0  0  0  0  0  0  0  0  0
  141.0890   74.6240  221.9770 O   0  0  0  0  0  0  0  0  0  0  0  0
  139.3590   76.0930  221.7350 N   0  0  0  0  0  0  0  0  0  0  0  0
  138.4490   76.6770  222.7110 C   0  0  0  0  0  0  0  0  0  0  0  0
  137.5260   77.5390  221.8860 C   0  0  2  0  0  0  0  0  0  0  0  0
  136.3750   76.8330  221.6140 F   0  0  0  0  0  0  0  0  0  0  0  0
  138.2990   77.8920  220.6360 C   0  0  0  0  0  0  0  0  0  0  0  0
  139.5980   77.1440  220.7570 C   0  0  1  0  0  0  0  0  0  0  0  0
  140.7160   78.0090  221.2910 C   0  0  0  0  0  0  0  0  0  0  0  0
  141.3330   77.4380  222.3990 O   0  0  0  0  0  0  0  0  0  0  0  0
  139.9660   70.8750  223.9440 C   0  0  0  0  0  0  0  0  0  0  0  0
  139.3190   69.6640  223.6880 C   0  0  0  0  0  0  0  0  0  0  0  0
  139.2470   68.6990  224.6930 C   0  0  0  0  0  0  0  0  0  0  0  0
  139.8250   68.9840  225.9120 C   0  0  0  0  0  0  0  0  0  0  0  0
  139.7700   68.0390  226.9360 C   0  0  0  0  0  0  0  0  0  0  0  0
  140.3290   68.2850  228.1550 C   0  0  0  0  0  0  0  0  0  0  0  0
  140.9580   69.5090  228.3440 C   0  0  0  0  0  0  0  0  0  0  0  0
  141.0130   70.4540  227.3190 C   0  0  0  0  0  0  0  0  0  0  0  0
  140.4460   70.2030  226.0870 C   0  0  0  0  0  0  0  0  0  0  0  0
  140.5180   71.1380  225.1190 N   0  0  0  0  0  0  0  0  0  0  0  0
  138.0680   72.6040  223.2920 H   0  0  0  0  0  0  0  0  0  0  0  0
  139.1790   73.1360  220.6372 H   0  0  0  0  0  0  0  0  0  0  0  0
  137.9088   74.1150  221.5158 H   0  0  0  0  0  0  0  0  0  0  0  0
  137.8846   75.8926  223.2365 H   0  0  0  0  0  0  0  0  0  0  0  0
  138.9758   77.2484  223.4895 H   0  0  0  0  0  0  0  0  0  0  0  0
  137.2149   78.4590  222.4026 H   0  0  0  0  0  0  0  0  0  0  0  0
  137.7501   77.5708  219.7385 H   0  0  0  0  0  0  0  0  0  0  0  0
  138.4544   78.9766  220.5390 H   0  0  0  0  0  0  0  0  0  0  0  0
  139.9007   76.7788  219.7645 H   0  0  0  0  0  0  0  0  0  0  0  0
  141.4666   78.1481  220.4990 H   0  0  0  0  0  0  0  0  0  0  0  0
  140.2824   78.9710  221.6018 H   0  0  0  0  0  0  0  0  0  0  0  0
  141.8300   76.6550  222.0970 H   0  0  0  0  0  0  0  0  0  0  0  0
  138.8699   69.4727  222.7022 H   0  0  0  0  0  0  0  0  0  0  0  0
  138.7429   67.7371  224.5177 H   0  0  0  0  0  0  0  0  0  0  0  0
  139.2664   67.0775  226.7570 H   0  0  0  0  0  0  0  0  0  0  0  0
  140.2834   67.5389  228.9620 H   0  0  0  0  0  0  0  0  0  0  0  0
  141.4196   69.7366  229.3162 H   0  0  0  0  0  0  0  0  0  0  0  0
  141.5171   71.4155  227.4965 H   0  0  0  0  0  0  0  0  0  0  0  0
  1  2  2  0
  2  3  1  0
  3  4  1  0
  4  5  1  0
  5  6  2  0
  5  7  1  0
  7  8  1  0
  8  9  1  0
  9 10  1  0
  9 11  1  0
 11 12  1  0
 12 13  1  0
 13 14  1  0
  2 15  1  0
 15 16  2  0
 16 17  1  0
 17 18  2  0
 18 19  1  0
 19 20  2  0
 20 21  1  0
 21 22  2  0
 22 23  1  0
 23 24  2  0
 12  7  1  0
 24 15  1  0
 23 18  1  0
  3 25  1  0
  4 26  1  0
  4 27  1  0
  8 28  1  0
  8 29  1  0
  9 30  1  1
 11 31  1  0
 11 32  1  0
 12 33  1  6
 13 34  1  0
 13 35  1  0
 14 36  1  0
 16 37  1  0
 17 38  1  0
 19 39  1  0
 20 40  1  0
 21 41  1  0
 22 42  1  0
M  END
>  <smiles>  (43) 
O=C(NCC(=O)N1C[C@H](F)C[C@H]1CO)c1ccc2ccccc2n1

>  <score_type>  (43) 
oracle

>  <origin>  (43) 
autodockgpu

>  <m_score__min__energy>  (43) 
-6.8799999999999999

>  <m_primary>  (43) 
energy

>  <rmsd>  (43) 
2.52016759058347

>  <m_score__min__rmsd>  (43) 
2.52016759058347

>  <meeko>  (43) 
{"free_energy": -6.46, "intermolecular_energy": -8.25, "internal_energy": -1.59, "cluster_size": 10, "cluster_id": 2, "rank_in_cluster": 3}

>  <energy>  (43) 
-5.94

>  <cluster_rmsd>  (43) 
0.96

>  <cluster>  (43) 
4

$$$$

     RDKit          3D

 42 44  0  0  0  0  0  0  0  0999 V2000
  139.9210   74.3780  222.3220 O   0  0  0  0  0  0  0  0  0  0  0  0
  140.2730   75.3720  221.6330 C   0  0  0  0  0  0  0  0  0  0  0  0
  140.6530   75.1380  220.2720 N   0  0  0  0  0  0  0  0  0  0  0  0
  140.6250   73.8150  219.7370 C   0  0  0  0  0  0  0  0  0  0  0  0
  141.7630   72.9700  220.1760 C   0  0  0  0  0  0  0  0  0  0  0  0
  141.6580   71.9010  220.7940 O   0  0  0  0  0  0  0  0  0  0  0  0
  143.0710   73.4320  219.8570 N   0  0  0  0  0  0  0  0  0  0  0  0
  143.9630   72.8380  218.8700 C   0  0  0  0  0  0  0  0  0  0  0  0
  145.3320   72.9630  219.4890 C   0  0  2  0  0  0  0  0  0  0  0  0
  145.6520   71.7780  220.1150 F   0  0  0  0  0  0  0  0  0  0  0  0
  145.2460   74.1240  220.4530 C   0  0  0  0  0  0  0  0  0  0  0  0
  143.8070   74.5590  220.4110 C   0  0  1  0  0  0  0  0  0  0  0  0
  143.5840   75.7370  219.4920 C   0  0  0  0  0  0  0  0  0  0  0  0
  142.7750   76.7060  220.0730 O   0  0  0  0  0  0  0  0  0  0  0  0
  140.3060   76.7350  222.1670 C   0  0  0  0  0  0  0  0  0  0  0  0
  139.0790   77.2980  222.5260 C   0  0  0  0  0  0  0  0  0  0  0  0
  139.0430   78.5940  223.0420 C   0  0  0  0  0  0  0  0  0  0  0  0
  140.2360   79.2740  223.1760 C   0  0  0  0  0  0  0  0  0  0  0  0
  140.2330   80.5720  223.6890 C   0  0  0  0  0  0  0  0  0  0  0  0
  141.3910   81.2760  223.8360 C   0  0  0  0  0  0  0  0  0  0  0  0
  142.5770   80.6580  223.4600 C   0  0  0  0  0  0  0  0  0  0  0  0
  142.5800   79.3590  222.9480 C   0  0  0  0  0  0  0  0  0  0  0  0
  141.4060   78.6500  222.7990 C   0  0  0  0  0  0  0  0  0  0  0  0
  141.4450   77.3980  222.3010 N   0  0  0  0  0  0  0  0  0  0  0  0
  140.9440   75.9850  219.7080 H   0  0  0  0  0  0  0  0  0  0  0  0
  139.6899   73.3312  220.0558 H   0  0  0  0  0  0  0  0  0  0  0  0
  140.6973   73.9088  218.6434 H   0  0  0  0  0  0  0  0  0  0  0  0
  143.7072   71.7821  218.6979 H   0  0  0  0  0  0  0  0  0  0  0  0
  143.8964   73.3320  217.8894 H   0  0  0  0  0  0  0  0  0  0  0  0
  146.1254   73.1523  218.7510 H   0  0  0  0  0  0  0  0  0  0  0  0
  145.5240   73.8049  221.4683 H   0  0  0  0  0  0  0  0  0  0  0  0
  145.9322   74.9393  220.1802 H   0  0  0  0  0  0  0  0  0  0  0  0
  143.4881   74.8570  221.4207 H   0  0  0  0  0  0  0  0  0  0  0  0
  144.5579   76.1869  219.2489 H   0  0  0  0  0  0  0  0  0  0  0  0
  143.0775   75.3702  218.5871 H   0  0  0  0  0  0  0  0  0  0  0  0
  142.9310   76.6920  221.0360 H   0  0  0  0  0  0  0  0  0  0  0  0
  138.1486   76.7243  222.4029 H   0  0  0  0  0  0  0  0  0  0  0  0
  138.0904   79.0603  223.3337 H   0  0  0  0  0  0  0  0  0  0  0  0
  139.2787   81.0354  223.9800 H   0  0  0  0  0  0  0  0  0  0  0  0
  141.3865   82.2995  224.2390 H   0  0  0  0  0  0  0  0  0  0  0  0
  143.5281   81.2002  223.5673 H   0  0  0  0  0  0  0  0  0  0  0  0
  143.5338   78.8935  222.6588 H   0  0  0  0  0  0  0  0  0  0  0  0
  1  2  2  0
  2  3  1  0
  3  4  1  0
  4  5  1  0
  5  6  2  0
  5  7  1  0
  7  8  1  0
  8  9  1  0
  9 10  1  0
  9 11  1  0
 11 12  1  0
 12 13  1  0
 13 14  1  0
  2 15  1  0
 15 16  2  0
 16 17  1  0
 17 18  2  0
 18 19  1  0
 19 20  2  0
 20 21  1  0
 21 22  2  0
 22 23  1  0
 23 24  2  0
 12  7  1  0
 24 15  1  0
 23 18  1  0
  3 25  1  0
  4 26  1  0
  4 27  1  0
  8 28  1  0
  8 29  1  0
  9 30  1  6
 11 31  1  0
 11 32  1  0
 12 33  1  1
 13 34  1  0
 13 35  1  0
 14 36  1  0
 16 37  1  0
 17 38  1  0
 19 39  1  0
 20 40  1  0
 21 41  1  0
 22 42  1  0
M  END
>  <smiles>  (44) 
O=C(NCC(=O)N1C[C@H](F)C[C@H]1CO)c1ccc2ccccc2n1

>  <score_type>  (44) 
oracle

>  <origin>  (44) 
autodockgpu

>  <m_score__min__energy>  (44) 
-6.8799999999999999

>  <m_primary>  (44) 
energy

>  <rmsd>  (44) 
7.4706795207164225

>  <m_score__min__rmsd>  (44) 
7.4706795207164225

>  <meeko>  (44) 
{"free_energy": -6.05, "intermolecular_energy": -7.84, "internal_energy": -2.59, "cluster_size": 12, "cluster_id": 4, "rank_in_cluster": 7}

>  <energy>  (44) 
-5.42

>  <cluster_rmsd>  (44) 
0.74

>  <cluster>  (44) 
4

$$$$

     RDKit          3D

 42 44  0  0  0  0  0  0  0  0999 V2000
  141.2610   71.7630  221.5340 O   0  0  0  0  0  0  0  0  0  0  0  0
  140.5150   72.1810  222.4590 C   0  0  0  0  0  0  0  0  0  0  0  0
  139.8840   73.4550  222.2820 N   0  0  0  0  0  0  0  0  0  0  0  0
  140.1080   74.2060  221.0880 C   0  0  0  0  0  0  0  0  0  0  0  0
  141.1270   75.2740  221.2360 C   0  0  0  0  0  0  0  0  0  0  0  0
  141.0770   76.1950  222.0640 O   0  0  0  0  0  0  0  0  0  0  0  0
  142.2440   75.2280  220.3560 N   0  0  0  0  0  0  0  0  0  0  0  0
  142.8710   76.3790  219.7190 C   0  0  0  0  0  0  0  0  0  0  0  0
  143.2450   75.8830  218.3460 C   0  0  2  0  0  0  0  0  0  0  0  0
  142.2620   76.2450  217.4520 F   0  0  0  0  0  0  0  0  0  0  0  0
  143.3880   74.3830  218.4740 C   0  0  0  0  0  0  0  0  0  0  0  0
  143.0020   74.0750  219.8950 C   0  0  1  0  0  0  0  0  0  0  0  0
  144.2020   73.9330  220.8030 C   0  0  0  0  0  0  0  0  0  0  0  0
  145.3680   73.6770  220.0900 O   0  0  0  0  0  0  0  0  0  0  0  0
  140.2760   71.4240  223.6890 C   0  0  0  0  0  0  0  0  0  0  0  0
  139.6010   70.2080  223.5560 C   0  0  0  0  0  0  0  0  0  0  0  0
  139.3420   69.4380  224.6900 C   0  0  0  0  0  0  0  0  0  0  0  0
  139.7690   69.9160  225.9120 C   0  0  0  0  0  0  0  0  0  0  0  0
  139.5250   69.1690  227.0650 C   0  0  0  0  0  0  0  0  0  0  0  0
  139.9300   69.6080  228.2900 C   0  0  0  0  0  0  0  0  0  0  0  0
  140.5970   70.8260  228.3530 C   0  0  0  0  0  0  0  0  0  0  0  0
  140.8410   71.5730  227.2000 C   0  0  0  0  0  0  0  0  0  0  0  0
  140.4290   71.1260  225.9620 C   0  0  0  0  0  0  0  0  0  0  0  0
  140.6810   71.8720  224.8680 N   0  0  0  0  0  0  0  0  0  0  0  0
  139.2620   73.7910  223.0690 H   0  0  0  0  0  0  0  0  0  0  0  0
  140.4420   73.5144  220.3006 H   0  0  0  0  0  0  0  0  0  0  0  0
  139.1582   74.7012  220.8375 H   0  0  0  0  0  0  0  0  0  0  0  0
  142.1652   77.2200  219.6512 H   0  0  0  0  0  0  0  0  0  0  0  0
  143.7385   76.7523  220.2831 H   0  0  0  0  0  0  0  0  0  0  0  0
  144.1840   76.3160  217.9708 H   0  0  0  0  0  0  0  0  0  0  0  0
  142.7161   73.8692  217.7708 H   0  0  0  0  0  0  0  0  0  0  0  0
  144.4079   74.0437  218.2401 H   0  0  0  0  0  0  0  0  0  0  0  0
  142.4459   73.1263  219.9233 H   0  0  0  0  0  0  0  0  0  0  0  0
  144.3305   74.8667  221.3702 H   0  0  0  0  0  0  0  0  0  0  0  0
  144.0207   73.0808  221.4745 H   0  0  0  0  0  0  0  0  0  0  0  0
  145.6760   74.5180  219.7050 H   0  0  0  0  0  0  0  0  0  0  0  0
  139.2761   69.8603  222.5642 H   0  0  0  0  0  0  0  0  0  0  0  0
  138.8124   68.4770  224.6123 H   0  0  0  0  0  0  0  0  0  0  0  0
  138.9960   68.2080  226.9837 H   0  0  0  0  0  0  0  0  0  0  0  0
  139.7357   69.0185  229.1981 H   0  0  0  0  0  0  0  0  0  0  0  0
  140.9378   71.2069  229.3271 H   0  0  0  0  0  0  0  0  0  0  0  0
  141.3705   72.5339  227.2797 H   0  0  0  0  0  0  0  0  0  0  0  0
  1  2  2  0
  2  3  1  0
  3  4  1  0
  4  5  1  0
  5  6  2  0
  5  7  1  0
  7  8  1  0
  8  9  1  0
  9 10  1  0
  9 11  1  0
 11 12  1  0
 12 13  1  0
 13 14  1  0
  2 15  1  0
 15 16  2  0
 16 17  1  0
 17 18  2  0
 18 19  1  0
 19 20  2  0
 20 21  1  0
 21 22  2  0
 22 23  1  0
 23 24  2  0
 12  7  1  0
 24 15  1  0
 23 18  1  0
  3 25  1  0
  4 26  1  0
  4 27  1  0
  8 28  1  0
  8 29  1  0
  9 30  1  6
 11 31  1  0
 11 32  1  0
 12 33  1  6
 13 34  1  0
 13 35  1  0
 14 36  1  0
 16 37  1  0
 17 38  1  0
 19 39  1  0
 20 40  1  0
 21 41  1  0
 22 42  1  0
M  END
>  <smiles>  (45) 
O=C(NCC(=O)N1C[C@H](F)C[C@H]1CO)c1ccc2ccccc2n1

>  <score_type>  (45) 
oracle

>  <origin>  (45) 
autodockgpu

>  <m_score__min__energy>  (45) 
-6.8799999999999999

>  <m_primary>  (45) 
energy

>  <rmsd>  (45) 
2.6555661066879277

>  <m_score__min__rmsd>  (45) 
2.6555661066879277

>  <meeko>  (45) 
{"free_energy": -6.88, "intermolecular_energy": -8.67, "internal_energy": -1.11, "cluster_size": 21, "cluster_id": 1, "rank_in_cluster": 1}

>  <energy>  (45) 
-5.74

>  <cluster_rmsd>  (45) 
0.0

>  <cluster>  (45) 
5

$$$$

     RDKit          3D

 42 44  0  0  0  0  0  0  0  0999 V2000
  140.7440   73.4390  222.3490 O   0  0  0  0  0  0  0  0  0  0  0  0
  140.6270   72.1860  222.3960 C   0  0  0  0  0  0  0  0  0  0  0  0
  140.7540   71.4580  221.1690 N   0  0  0  0  0  0  0  0  0  0  0  0
  141.0060   72.1510  219.9460 C   0  0  0  0  0  0  0  0  0  0  0  0
  142.3000   71.7960  219.3140 C   0  0  0  0  0  0  0  0  0  0  0  0
  142.4970   70.7950  218.6120 O   0  0  0  0  0  0  0  0  0  0  0  0
  143.3920   72.6810  219.5380 N   0  0  0  0  0  0  0  0  0  0  0  0
  144.5360   72.8580  218.6530 C   0  0  0  0  0  0  0  0  0  0  0  0
  145.7010   73.0470  219.5900 C   0  0  2  0  0  0  0  0  0  0  0  0
  146.3430   71.8400  219.7600 F   0  0  0  0  0  0  0  0  0  0  0  0
  145.1140   73.5780  220.8780 C   0  0  0  0  0  0  0  0  0  0  0  0
  143.6270   73.5850  220.6540 C   0  0  1  0  0  0  0  0  0  0  0  0
  143.1090   74.9450  220.2470 C   0  0  0  0  0  0  0  0  0  0  0  0
  141.9960   75.3230  220.9880 O   0  0  0  0  0  0  0  0  0  0  0  0
  140.3700   71.4600  223.6420 C   0  0  0  0  0  0  0  0  0  0  0  0
  139.6030   70.2970  223.5430 C   0  0  0  0  0  0  0  0  0  0  0  0
  139.3220   69.5600  224.6940 C   0  0  0  0  0  0  0  0  0  0  0  0
  139.8190   70.0170  225.8970 C   0  0  0  0  0  0  0  0  0  0  0  0
  139.5560   69.3020  227.0650 C   0  0  0  0  0  0  0  0  0  0  0  0
  140.0290   69.7220  228.2720 C   0  0  0  0  0  0  0  0  0  0  0  0
  140.7850   70.8870  228.3020 C   0  0  0  0  0  0  0  0  0  0  0  0
  141.0490   71.6030  227.1330 C   0  0  0  0  0  0  0  0  0  0  0  0
  140.5680   71.1750  225.9120 C   0  0  0  0  0  0  0  0  0  0  0  0
  140.8410   71.8900  224.8030 N   0  0  0  0  0  0  0  0  0  0  0  0
  140.6540   70.4060  221.2280 H   0  0  0  0  0  0  0  0  0  0  0  0
  140.1976   71.9127  219.2391 H   0  0  0  0  0  0  0  0  0  0  0  0
  141.0504   73.2232  220.1879 H   0  0  0  0  0  0  0  0  0  0  0  0
  144.6827   71.9689  218.0222 H   0  0  0  0  0  0  0  0  0  0  0  0
  144.4082   73.7049  217.9627 H   0  0  0  0  0  0  0  0  0  0  0  0
  146.4541   73.7513  219.2070 H   0  0  0  0  0  0  0  0  0  0  0  0
  145.3749   72.9217  221.7213 H   0  0  0  0  0  0  0  0  0  0  0  0
  145.4992   74.5780  221.1264 H   0  0  0  0  0  0  0  0  0  0  0  0
  143.1181   73.2971  221.5858 H   0  0  0  0  0  0  0  0  0  0  0  0
  143.9056   75.6882  220.3991 H   0  0  0  0  0  0  0  0  0  0  0  0
  142.8101   74.8914  219.1897 H   0  0  0  0  0  0  0  0  0  0  0  0
  142.1680   75.1040  221.9230 H   0  0  0  0  0  0  0  0  0  0  0  0
  139.2235   69.9647  222.5655 H   0  0  0  0  0  0  0  0  0  0  0  0
  138.7209   68.6401  224.6435 H   0  0  0  0  0  0  0  0  0  0  0  0
  138.9556   68.3819  227.0110 H   0  0  0  0  0  0  0  0  0  0  0  0
  139.8191   69.1571  229.1922 H   0  0  0  0  0  0  0  0  0  0  0  0
  141.1816   71.2508  229.2613 H   0  0  0  0  0  0  0  0  0  0  0  0
  141.6499   72.5229  227.1857 H   0  0  0  0  0  0  0  0  0  0  0  0
  1  2  2  0
  2  3  1  0
  3  4  1  0
  4  5  1  0
  5  6  2  0
  5  7  1  0
  7  8  1  0
  8  9  1  0
  9 10  1  0
  9 11  1  0
 11 12  1  0
 12 13  1  0
 13 14  1  0
  2 15  1  0
 15 16  2  0
 16 17  1  0
 17 18  2  0
 18 19  1  0
 19 20  2  0
 20 21  1  0
 21 22  2  0
 22 23  1  0
 23 24  2  0
 12  7  1  0
 24 15  1  0
 23 18  1  0
  3 25  1  0
  4 26  1  0
  4 27  1  0
  8 28  1  0
  8 29  1  0
  9 30  1  6
 11 31  1  0
 11 32  1  0
 12 33  1  1
 13 34  1  0
 13 35  1  0
 14 36  1  0
 16 37  1  0
 17 38  1  0
 19 39  1  0
 20 40  1  0
 21 41  1  0
 22 42  1  0
M  END
>  <smiles>  (46) 
O=C(NCC(=O)N1C[C@H](F)C[C@H]1CO)c1ccc2ccccc2n1

>  <score_type>  (46) 
oracle

>  <origin>  (46) 
autodockgpu

>  <m_score__min__energy>  (46) 
-6.8799999999999999

>  <m_primary>  (46) 
energy

>  <rmsd>  (46) 
3.8441010504743347

>  <m_score__min__rmsd>  (46) 
3.8441010504743347

>  <meeko>  (46) 
{"free_energy": -6.39, "intermolecular_energy": -8.18, "internal_energy": -1.66, "cluster_size": 1, "cluster_id": 3, "rank_in_cluster": 1}

>  <energy>  (46) 
-5.71

>  <cluster_rmsd>  (46) 
0.0

>  <cluster>  (46) 
6

$$$$

     RDKit          3D

 42 44  0  0  0  0  0  0  0  0999 V2000
  138.9640   75.0300  221.8750 O   0  0  0  0  0  0  0  0  0  0  0  0
  140.0910   75.5760  222.0130 C   0  0  0  0  0  0  0  0  0  0  0  0
  141.2530   74.7870  221.7290 N   0  0  0  0  0  0  0  0  0  0  0  0
  141.1130   73.4310  221.3060 C   0  0  0  0  0  0  0  0  0  0  0  0
  141.6650   73.1680  219.9530 C   0  0  0  0  0  0  0  0  0  0  0  0
  141.0380   72.6510  219.0190 O   0  0  0  0  0  0  0  0  0  0  0  0
  143.0180   73.5440  219.7240 N   0  0  0  0  0  0  0  0  0  0  0  0
  143.8660   73.0450  218.6490 C   0  0  0  0  0  0  0  0  0  0  0  0
  145.2280   72.9180  219.2830 C   0  0  2  0  0  0  0  0  0  0  0  0
  145.4160   71.6160  219.6910 F   0  0  0  0  0  0  0  0  0  0  0  0
  145.2390   73.8950  220.4370 C   0  0  0  0  0  0  0  0  0  0  0  0
  143.8510   74.4750  220.4700 C   0  0  1  0  0  0  0  0  0  0  0  0
  143.7660   75.8120  219.7730 C   0  0  0  0  0  0  0  0  0  0  0  0
  142.6190   76.5130  220.1270 O   0  0  0  0  0  0  0  0  0  0  0  0
  140.2510   76.9660  222.4470 C   0  0  0  0  0  0  0  0  0  0  0  0
  139.0800   77.6780  222.7160 C   0  0  0  0  0  0  0  0  0  0  0  0
  139.1650   79.0060  223.1340 C   0  0  0  0  0  0  0  0  0  0  0  0
  140.4180   79.5680  223.2650 C   0  0  0  0  0  0  0  0  0  0  0  0
  140.5350   80.8950  223.6800 C   0  0  0  0  0  0  0  0  0  0  0  0
  141.7560   81.4850  223.8210 C   0  0  0  0  0  0  0  0  0  0  0  0
  142.8810   80.7220  223.5370 C   0  0  0  0  0  0  0  0  0  0  0  0
  142.7630   79.3950  223.1210 C   0  0  0  0  0  0  0  0  0  0  0  0
  141.5270   78.8000  222.9790 C   0  0  0  0  0  0  0  0  0  0  0  0
  141.4490   77.5170  222.5760 N   0  0  0  0  0  0  0  0  0  0  0  0
  142.1910   75.2630  221.8510 H   0  0  0  0  0  0  0  0  0  0  0  0
  141.6378   72.7865  222.0265 H   0  0  0  0  0  0  0  0  0  0  0  0
  140.0348   73.2181  221.2603 H   0  0  0  0  0  0  0  0  0  0  0  0
  143.5090   72.0678  218.2918 H   0  0  0  0  0  0  0  0  0  0  0  0
  143.8692   73.7084  217.7716 H   0  0  0  0  0  0  0  0  0  0  0  0
  146.0507   73.1508  218.5910 H   0  0  0  0  0  0  0  0  0  0  0  0
  145.4637   73.3762  221.3806 H   0  0  0  0  0  0  0  0  0  0  0  0
  146.0083   74.6715  220.3134 H   0  0  0  0  0  0  0  0  0  0  0  0
  143.5427   74.6219  221.5156 H   0  0  0  0  0  0  0  0  0  0  0  0
  144.6469   76.4114  220.0464 H   0  0  0  0  0  0  0  0  0  0  0  0
  143.7301   75.6279  218.6891 H   0  0  0  0  0  0  0  0  0  0  0  0
  142.7880   76.9560  220.9790 H   0  0  0  0  0  0  0  0  0  0  0  0
  138.0985   77.1953  222.5992 H   0  0  0  0  0  0  0  0  0  0  0  0
  138.2582   79.5889  223.3531 H   0  0  0  0  0  0  0  0  0  0  0  0
  139.6261   81.4753  223.8972 H   0  0  0  0  0  0  0  0  0  0  0  0
  141.8470   82.5310  224.1489 H   0  0  0  0  0  0  0  0  0  0  0  0
  143.8801   81.1702  223.6415 H   0  0  0  0  0  0  0  0  0  0  0  0
  143.6711   78.8139  222.9027 H   0  0  0  0  0  0  0  0  0  0  0  0
  1  2  2  0
  2  3  1  0
  3  4  1  0
  4  5  1  0
  5  6  2  0
  5  7  1  0
  7  8  1  0
  8  9  1  0
  9 10  1  0
  9 11  1  0
 11 12  1  0
 12 13  1  0
 13 14  1  0
  2 15  1  0
 15 16  2  0
 16 17  1  0
 17 18  2  0
 18 19  1  0
 19 20  2  0
 20 21  1  0
 21 22  2  0
 22 23  1  0
 23 24  2  0
 12  7  1  0
 24 15  1  0
 23 18  1  0
  3 25  1  0
  4 26  1  0
  4 27  1  0
  8 28  1  0
  8 29  1  0
  9 30  1  6
 11 31  1  0
 11 32  1  0
 12 33  1  1
 13 34  1  0
 13 35  1  0
 14 36  1  0
 16 37  1  0
 17 38  1  0
 19 39  1  0
 20 40  1  0
 21 41  1  0
 22 42  1  0
M  END
>  <smiles>  (47) 
O=C(NCC(=O)N1C[C@H](F)C[C@H]1CO)c1ccc2ccccc2n1

>  <score_type>  (47) 
oracle

>  <origin>  (47) 
autodockgpu

>  <m_score__min__energy>  (47) 
-6.8799999999999999

>  <m_primary>  (47) 
energy

>  <rmsd>  (47) 
7.604491413416604

>  <m_score__min__rmsd>  (47) 
7.604491413416604

>  <meeko>  (47) 
{"free_energy": -6.08, "intermolecular_energy": -7.87, "internal_energy": -2.7, "cluster_size": 12, "cluster_id": 4, "rank_in_cluster": 4}

>  <energy>  (47) 
-5.57

>  <cluster_rmsd>  (47) 
1.58

>  <cluster>  (47) 
6

$$$$

     RDKit          3D

 42 44  0  0  0  0  0  0  0  0999 V2000
  141.3300   72.0670  221.6590 O   0  0  0  0  0  0  0  0  0  0  0  0
  140.4670   72.3380  222.5360 C   0  0  0  0  0  0  0  0  0  0  0  0
  139.6660   73.5100  222.3430 N   0  0  0  0  0  0  0  0  0  0  0  0
  139.8570   74.3270  221.1870 C   0  0  0  0  0  0  0  0  0  0  0  0
  141.0920   75.1480  221.2340 C   0  0  0  0  0  0  0  0  0  0  0  0
  142.2450   74.6990  221.2090 O   0  0  0  0  0  0  0  0  0  0  0  0
  140.9250   76.5590  221.3160 N   0  0  0  0  0  0  0  0  0  0  0  0
  141.0620   77.3610  222.5240 C   0  0  0  0  0  0  0  0  0  0  0  0
  139.9900   78.4120  222.3930 C   0  0  2  0  0  0  0  0  0  0  0  0
  138.8750   78.0080  223.0940 F   0  0  0  0  0  0  0  0  0  0  0  0
  139.7250   78.5490  220.9100 C   0  0  0  0  0  0  0  0  0  0  0  0
  140.5940   77.5070  220.2620 C   0  0  1  0  0  0  0  0  0  0  0  0
  141.8930   78.0770  219.7440 C   0  0  0  0  0  0  0  0  0  0  0  0
  142.9340   77.1590  219.8260 O   0  0  0  0  0  0  0  0  0  0  0  0
  140.2590   71.5110  223.7260 C   0  0  0  0  0  0  0  0  0  0  0  0
  139.5820   70.3040  223.5410 C   0  0  0  0  0  0  0  0  0  0  0  0
  139.3520   69.4700  224.6350 C   0  0  0  0  0  0  0  0  0  0  0  0
  139.8080   69.8780  225.8710 C   0  0  0  0  0  0  0  0  0  0  0  0
  139.5940   69.0660  226.9850 C   0  0  0  0  0  0  0  0  0  0  0  0
  140.0290   69.4360  228.2230 C   0  0  0  0  0  0  0  0  0  0  0  0
  140.6960   70.6490  228.3390 C   0  0  0  0  0  0  0  0  0  0  0  0
  140.9100   71.4610  227.2250 C   0  0  0  0  0  0  0  0  0  0  0  0
  140.4680   71.0850  225.9730 C   0  0  0  0  0  0  0  0  0  0  0  0
  140.6920   71.8930  224.9190 N   0  0  0  0  0  0  0  0  0  0  0  0
  138.9460   73.7220  223.0890 H   0  0  0  0  0  0  0  0  0  0  0  0
  139.9083   73.6729  220.3041 H   0  0  0  0  0  0  0  0  0  0  0  0
  139.0083   75.0254  221.1433 H   0  0  0  0  0  0  0  0  0  0  0  0
  140.8980   76.7461  223.4213 H   0  0  0  0  0  0  0  0  0  0  0  0
  142.0672   77.7951  222.6300 H   0  0  0  0  0  0  0  0  0  0  0  0
  140.2857   79.3863  222.8093 H   0  0  0  0  0  0  0  0  0  0  0  0
  138.6643   78.3607  220.6877 H   0  0  0  0  0  0  0  0  0  0  0  0
  139.9488   79.5611  220.5419 H   0  0  0  0  0  0  0  0  0  0  0  0
  140.0582   77.0663  219.4083 H   0  0  0  0  0  0  0  0  0  0  0  0
  141.7585   78.3684  218.6919 H   0  0  0  0  0  0  0  0  0  0  0  0
  142.1555   78.9449  220.3668 H   0  0  0  0  0  0  0  0  0  0  0  0
  142.8810   76.7190  220.6940 H   0  0  0  0  0  0  0  0  0  0  0  0
  139.2325   70.0129  222.5395 H   0  0  0  0  0  0  0  0  0  0  0  0
  138.8218   68.5137  224.5153 H   0  0  0  0  0  0  0  0  0  0  0  0
  139.0645   68.1096  226.8623 H   0  0  0  0  0  0  0  0  0  0  0  0
  139.8576   68.7954  229.1007 H   0  0  0  0  0  0  0  0  0  0  0  0
  141.0610   70.9743  229.3244 H   0  0  0  0  0  0  0  0  0  0  0  0
  141.4400   72.4172  227.3467 H   0  0  0  0  0  0  0  0  0  0  0  0
  1  2  2  0
  2  3  1  0
  3  4  1  0
  4  5  1  0
  5  6  2  0
  5  7  1  0
  7  8  1  0
  8  9  1  0
  9 10  1  0
  9 11  1  0
 11 12  1  0
 12 13  1  0
 13 14  1  0
  2 15  1  0
 15 16  2  0
 16 17  1  0
 17 18  2  0
 18 19  1  0
 19 20  2  0
 20 21  1  0
 21 22  2  0
 22 23  1  0
 23 24  2  0
 12  7  1  0
 24 15  1  0
 23 18  1  0
  3 25  1  0
  4 26  1  0
  4 27  1  0
  8 28  1  0
  8 29  1  0
  9 30  1  1
 11 31  1  0
 11 32  1  0
 12 33  1  6
 13 34  1  0
 13 35  1  0
 14 36  1  0
 16 37  1  0
 17 38  1  0
 19 39  1  0
 20 40  1  0
 21 41  1  0
 22 42  1  0
M  END
>  <smiles>  (48) 
O=C(NCC(=O)N1C[C@H](F)C[C@H]1CO)c1ccc2ccccc2n1

>  <score_type>  (48) 
oracle

>  <origin>  (48) 
autodockgpu

>  <m_score__min__energy>  (48) 
-6.8799999999999999

>  <m_primary>  (48) 
energy

>  <rmsd>  (48) 
2.703387456091149

>  <m_score__min__rmsd>  (48) 
2.703387456091149

>  <meeko>  (48) 
{"free_energy": -6.58, "intermolecular_energy": -8.37, "internal_energy": -1.63, "cluster_size": 10, "cluster_id": 2, "rank_in_cluster": 2}

>  <energy>  (48) 
-5.47

>  <cluster_rmsd>  (48) 
1.04

>  <cluster>  (48) 
6

$$$$

     RDKit          3D

 42 44  0  0  0  0  0  0  0  0999 V2000
  140.3280   71.0310  221.4110 O   0  0  0  0  0  0  0  0  0  0  0  0
  140.0530   71.5420  222.5300 C   0  0  0  0  0  0  0  0  0  0  0  0
  139.8100   72.9530  222.5750 N   0  0  0  0  0  0  0  0  0  0  0  0
  139.8820   73.7320  221.3810 C   0  0  0  0  0  0  0  0  0  0  0  0
  141.0430   74.6550  221.3400 C   0  0  0  0  0  0  0  0  0  0  0  0
  141.1620   75.6780  222.0280 O   0  0  0  0  0  0  0  0  0  0  0  0
  142.0940   74.3320  220.4370 N   0  0  0  0  0  0  0  0  0  0  0  0
  141.9760   73.4600  219.2750 C   0  0  0  0  0  0  0  0  0  0  0  0
  143.2850   72.7140  219.2390 C   0  0  2  0  0  0  0  0  0  0  0  0
  143.1240   71.4920  219.8530 F   0  0  0  0  0  0  0  0  0  0  0  0
  144.2830   73.5960  219.9560 C   0  0  0  0  0  0  0  0  0  0  0  0
  143.4820   74.7690  220.4490 C   0  0  1  0  0  0  0  0  0  0  0  0
  143.5840   75.9660  219.5330 C   0  0  0  0  0  0  0  0  0  0  0  0
  142.7650   77.0100  219.9460 O   0  0  0  0  0  0  0  0  0  0  0  0
  139.9750   70.7560  223.7630 C   0  0  0  0  0  0  0  0  0  0  0  0
  139.2950   69.5390  223.6900 C   0  0  0  0  0  0  0  0  0  0  0  0
  139.1860   68.7430  224.8300 C   0  0  0  0  0  0  0  0  0  0  0  0
  139.7610   69.1980  225.9990 C   0  0  0  0  0  0  0  0  0  0  0  0
  139.6690   68.4260  227.1560 C   0  0  0  0  0  0  0  0  0  0  0  0
  140.2240   68.8430  228.3300 C   0  0  0  0  0  0  0  0  0  0  0  0
  140.8860   70.0640  228.3350 C   0  0  0  0  0  0  0  0  0  0  0  0
  140.9780   70.8370  227.1770 C   0  0  0  0  0  0  0  0  0  0  0  0
  140.4150   70.4130  225.9910 C   0  0  0  0  0  0  0  0  0  0  0  0
  140.5230   71.1840  224.8910 N   0  0  0  0  0  0  0  0  0  0  0  0
  139.5800   73.3650  223.5220 H   0  0  0  0  0  0  0  0  0  0  0  0
  139.9525   73.0470  220.5232 H   0  0  0  0  0  0  0  0  0  0  0  0
  138.9755   74.3542  221.3480 H   0  0  0  0  0  0  0  0  0  0  0  0
  141.1330   72.7634  219.3938 H   0  0  0  0  0  0  0  0  0  0  0  0
  141.7831   74.0181  218.3469 H   0  0  0  0  0  0  0  0  0  0  0  0
  143.6375   72.5076  218.2176 H   0  0  0  0  0  0  0  0  0  0  0  0
  144.7390   73.0572  220.7997 H   0  0  0  0  0  0  0  0  0  0  0  0
  145.1079   73.9064  219.2977 H   0  0  0  0  0  0  0  0  0  0  0  0
  143.8534   75.0717  221.4392 H   0  0  0  0  0  0  0  0  0  0  0  0
  144.6267   76.3162  219.5213 H   0  0  0  0  0  0  0  0  0  0  0  0
  143.2570   75.6546  218.5300 H   0  0  0  0  0  0  0  0  0  0  0  0
  142.5680   76.8830  220.8930 H   0  0  0  0  0  0  0  0  0  0  0  0
  138.8483   69.2102  222.7401 H   0  0  0  0  0  0  0  0  0  0  0  0
  138.6565   67.7794  224.7982 H   0  0  0  0  0  0  0  0  0  0  0  0
  139.1390   67.4627  227.1215 H   0  0  0  0  0  0  0  0  0  0  0  0
  140.1498   68.2328  229.2422 H   0  0  0  0  0  0  0  0  0  0  0  0
  141.3449   70.4273  229.2664 H   0  0  0  0  0  0  0  0  0  0  0  0
  141.5081   71.8003  227.2103 H   0  0  0  0  0  0  0  0  0  0  0  0
  1  2  2  0
  2  3  1  0
  3  4  1  0
  4  5  1  0
  5  6  2  0
  5  7  1  0
  7  8  1  0
  8  9  1  0
  9 10  1  0
  9 11  1  0
 11 12  1  0
 12 13  1  0
 13 14  1  0
  2 15  1  0
 15 16  2  0
 16 17  1  0
 17 18  2  0
 18 19  1  0
 19 20  2  0
 20 21  1  0
 21 22  2  0
 22 23  1  0
 23 24  2  0
 12  7  1  0
 24 15  1  0
 23 18  1  0
  3 25  1  0
  4 26  1  0
  4 27  1  0
  8 28  1  0
  8 29  1  0
  9 30  1  6
 11 31  1  0
 11 32  1  0
 12 33  1  1
 13 34  1  0
 13 35  1  0
 14 36  1  0
 16 37  1  0
 17 38  1  0
 19 39  1  0
 20 40  1  0
 21 41  1  0
 22 42  1  0
M  END
>  <smiles>  (49) 
O=C(NCC(=O)N1C[C@H](F)C[C@H]1CO)c1ccc2ccccc2n1

>  <score_type>  (49) 
oracle

>  <origin>  (49) 
autodockgpu

>  <m_score__min__energy>  (49) 
-6.8799999999999999

>  <m_primary>  (49) 
energy

>  <rmsd>  (49) 
2.614781528215523

>  <m_score__min__rmsd>  (49) 
2.614781528215523

>  <meeko>  (49) 
{"free_energy": -6.46, "intermolecular_energy": -8.25, "internal_energy": -1.91, "cluster_size": 21, "cluster_id": 1, "rank_in_cluster": 6}

>  <energy>  (49) 
-5.7

>  <cluster_rmsd>  (49) 
0.0

>  <cluster>  (49) 
7

$$$$

     RDKit          3D

 42 44  0  0  0  0  0  0  0  0999 V2000
  137.3480   70.5680  221.4820 O   0  0  0  0  0  0  0  0  0  0  0  0
  137.8450   71.2580  222.4120 C   0  0  0  0  0  0  0  0  0  0  0  0
  137.7570   72.6840  222.3020 N   0  0  0  0  0  0  0  0  0  0  0  0
  137.1240   73.2790  221.1690 C   0  0  0  0  0  0  0  0  0  0  0  0
  138.0270   74.1380  220.3640 C   0  0  0  0  0  0  0  0  0  0  0  0
  137.9050   74.3560  219.1510 O   0  0  0  0  0  0  0  0  0  0  0  0
  139.1110   74.7540  221.0480 N   0  0  0  0  0  0  0  0  0  0  0  0
  138.9980   75.6040  222.2260 C   0  0  0  0  0  0  0  0  0  0  0  0
  140.0490   76.6660  222.0170 C   0  0  2  0  0  0  0  0  0  0  0  0
  139.4570   77.7830  221.4690 F   0  0  0  0  0  0  0  0  0  0  0  0
  141.0830   76.0490  221.1020 C   0  0  0  0  0  0  0  0  0  0  0  0
  140.5360   74.6920  220.7550 C   0  0  1  0  0  0  0  0  0  0  0  0
  141.1230   73.5940  221.6120 C   0  0  0  0  0  0  0  0  0  0  0  0
  140.3080   73.2860  222.6950 O   0  0  0  0  0  0  0  0  0  0  0  0
  138.4970   70.6630  223.5800 C   0  0  0  0  0  0  0  0  0  0  0  0
  138.3330   69.2870  223.7570 C   0  0  0  0  0  0  0  0  0  0  0  0
  138.9300   68.6600  224.8510 C   0  0  0  0  0  0  0  0  0  0  0  0
  139.6660   69.4340  225.7230 C   0  0  0  0  0  0  0  0  0  0  0  0
  140.2750   68.8360  226.8260 C   0  0  0  0  0  0  0  0  0  0  0  0
  141.0100   69.5680  227.7110 C   0  0  0  0  0  0  0  0  0  0  0  0
  141.1340   70.9320  227.4770 C   0  0  0  0  0  0  0  0  0  0  0  0
  140.5250   71.5300  226.3730 C   0  0  0  0  0  0  0  0  0  0  0  0
  139.7810   70.7870  225.4800 C   0  0  0  0  0  0  0  0  0  0  0  0
  139.2060   71.3960  224.4250 N   0  0  0  0  0  0  0  0  0  0  0  0
  138.1790   73.2470  223.0920 H   0  0  0  0  0  0  0  0  0  0  0  0
  136.7420   72.4751  220.5227 H   0  0  0  0  0  0  0  0  0  0  0  0
  136.3216   73.9265  221.5523 H   0  0  0  0  0  0  0  0  0  0  0  0
  137.9960   76.0535  222.2883 H   0  0  0  0  0  0  0  0  0  0  0  0
  139.1420   75.0468  223.1635 H   0  0  0  0  0  0  0  0  0  0  0  0
  140.5279   76.9919  222.9521 H   0  0  0  0  0  0  0  0  0  0  0  0
  141.2093   76.6584  220.1950 H   0  0  0  0  0  0  0  0  0  0  0  0
  142.0719   75.9859  221.5795 H   0  0  0  0  0  0  0  0  0  0  0  0
  140.7739   74.4624  219.7059 H   0  0  0  0  0  0  0  0  0  0  0  0
  141.2500   72.6920  220.9954 H   0  0  0  0  0  0  0  0  0  0  0  0
  142.0882   73.9481  222.0033 H   0  0  0  0  0  0  0  0  0  0  0  0
  140.2720   72.3150  222.7780 H   0  0  0  0  0  0  0  0  0  0  0  0
  137.7380   68.7027  223.0397 H   0  0  0  0  0  0  0  0  0  0  0  0
  138.8167   67.5780  225.0134 H   0  0  0  0  0  0  0  0  0  0  0  0
  140.1602   67.7536  226.9850 H   0  0  0  0  0  0  0  0  0  0  0  0
  141.4887   69.0946  228.5809 H   0  0  0  0  0  0  0  0  0  0  0  0
  141.7211   71.5498  228.1725 H   0  0  0  0  0  0  0  0  0  0  0  0
  140.6401   72.6121  226.2121 H   0  0  0  0  0  0  0  0  0  0  0  0
  1  2  2  0
  2  3  1  0
  3  4  1  0
  4  5  1  0
  5  6  2  0
  5  7  1  0
  7  8  1  0
  8  9  1  0
  9 10  1  0
  9 11  1  0
 11 12  1  0
 12 13  1  0
 13 14  1  0
  2 15  1  0
 15 16  2  0
 16 17  1  0
 17 18  2  0
 18 19  1  0
 19 20  2  0
 20 21  1  0
 21 22  2  0
 22 23  1  0
 23 24  2  0
 12  7  1  0
 24 15  1  0
 23 18  1  0
  3 25  1  0
  4 26  1  0
  4 27  1  0
  8 28  1  0
  8 29  1  0
  9 30  1  1
 11 31  1  0
 11 32  1  0
 12 33  1  6
 13 34  1  0
 13 35  1  0
 14 36  1  0
 16 37  1  0
 17 38  1  0
 19 39  1  0
 20 40  1  0
 21 41  1  0
 22 42  1  0
M  END
>  <smiles>  (50) 
O=C(NCC(=O)N1C[C@H](F)C[C@H]1CO)c1ccc2ccccc2n1

>  <score_type>  (50) 
oracle

>  <origin>  (50) 
autodockgpu

>  <m_score__min__energy>  (50) 
-6.8799999999999999

>  <m_primary>  (50) 
energy

>  <rmsd>  (50) 
2.428743534933783

>  <m_score__min__rmsd>  (50) 
2.428743534933783

>  <meeko>  (50) 
{"free_energy": -5.4, "intermolecular_energy": -7.19, "internal_energy": -2.75, "cluster_size": 10, "cluster_id": 2, "rank_in_cluster": 10}

>  <energy>  (50) 
-5.66

>  <cluster_rmsd>  (50) 
0.0

>  <cluster>  (50) 
8

$$$$
