
     RDKit          3D

 69 74  0  0  0  0  0  0  0  0999 V2000
  139.4470   71.2130  221.9220 O   0  0  0  0  0  0  0  0  0  0  0  0
  140.1050   72.0760  222.5740 C   0  0  0  0  0  0  0  0  0  0  0  0
  140.2050   71.8500  223.9800 N   0  0  0  0  0  0  0  0  0  0  0  0
  139.5480   70.6700  224.4980 C   0  0  0  0  0  0  0  0  0  0  0  0
  140.4510   69.8880  225.4280 C   0  0  2  0  0  0  0  0  0  0  0  0
  139.6690   69.5710  226.6690 C   0  0  0  0  0  0  0  0  0  0  0  0
  140.3040   70.2140  227.8930 C   0  0  0  0  0  0  0  0  0  0  0  0
  140.5650   71.6570  227.5620 C   0  0  0  0  0  0  0  0  0  0  0  0
  141.4900   71.8220  226.4780 N   0  0  0  0  0  0  0  0  0  0  0  0
  141.7250   70.6150  225.7380 C   0  0  0  0  0  0  0  0  0  0  0  0
  140.7150   73.2180  221.9270 C   0  0  0  0  0  0  0  0  0  0  0  0
  141.6830   73.0700  221.0000 N   0  0  0  0  0  0  0  0  0  0  0  0
  142.2190   74.1790  220.4260 C   0  0  0  0  0  0  0  0  0  0  0  0
  143.2460   74.0930  219.4390 N   0  0  0  0  0  0  0  0  0  0  0  0
  144.5990   73.6340  219.7700 C   0  0  0  0  0  0  0  0  0  0  0  0
  144.9880   72.7160  218.6040 C   0  0  0  0  0  0  0  0  0  0  0  0
  145.1850   73.6840  217.4640 C   0  0  0  0  0  0  0  0  0  0  0  0
  146.3430   73.6890  216.7160 C   0  0  0  0  0  0  0  0  0  0  0  0
  146.4870   74.5970  215.6720 C   0  0  0  0  0  0  0  0  0  0  0  0
  145.4390   75.4710  215.4280 C   0  0  0  0  0  0  0  0  0  0  0  0
  144.2740   75.4480  216.1980 C   0  0  0  0  0  0  0  0  0  0  0  0
  144.1330   74.5470  217.2340 C   0  0  0  0  0  0  0  0  0  0  0  0
  142.9180   74.4760  218.0880 C   0  0  0  0  0  0  0  0  0  0  0  0
  141.7900   75.4050  220.7780 N   0  0  0  0  0  0  0  0  0  0  0  0
  140.8310   75.5410  221.6970 C   0  0  0  0  0  0  0  0  0  0  0  0
  140.3860   76.8390  222.0600 N   0  0  0  0  0  0  0  0  0  0  0  0
  139.2530   77.4140  221.3920 C   0  0  0  0  0  0  0  0  0  0  0  0
  138.9920   78.8250  221.8090 C   0  0  0  0  0  0  0  0  0  0  0  0
  140.2700   79.5750  221.8890 C   0  0  0  0  0  0  0  0  0  0  0  0
  140.4700   80.8200  221.3700 C   0  0  0  0  0  0  0  0  0  0  0  0
  141.7080   81.4290  221.5020 C   0  0  0  0  0  0  0  0  0  0  0  0
  142.7620   80.7930  222.1590 C   0  0  0  0  0  0  0  0  0  0  0  0
  142.5620   79.5270  222.6890 C   0  0  0  0  0  0  0  0  0  0  0  0
  141.3220   78.9480  222.5420 C   0  0  0  0  0  0  0  0  0  0  0  0
  141.0480   77.5940  223.0860 C   0  0  0  0  0  0  0  0  0  0  0  0
  140.3010   74.4460  222.2640 N   0  0  0  0  0  0  0  0  0  0  0  0
  140.7350   72.5300  224.5620 H   0  0  0  0  0  0  0  0  0  0  0  0
  138.6476   70.9770  225.0504 H   0  0  0  0  0  0  0  0  0  0  0  0
  139.2878   70.0219  223.6481 H   0  0  0  0  0  0  0  0  0  0  0  0
  140.7665   68.9572  224.9340 H   0  0  0  0  0  0  0  0  0  0  0  0
  138.6431   69.9510  226.5545 H   0  0  0  0  0  0  0  0  0  0  0  0
  139.6626   68.4801  226.8099 H   0  0  0  0  0  0  0  0  0  0  0  0
  139.6200   70.1435  228.7516 H   0  0  0  0  0  0  0  0  0  0  0  0
  141.2409   69.7018  228.1573 H   0  0  0  0  0  0  0  0  0  0  0  0
  139.6120   72.1318  227.2857 H   0  0  0  0  0  0  0  0  0  0  0  0
  141.0120   72.1244  228.4518 H   0  0  0  0  0  0  0  0  0  0  0  0
  141.2500   72.6000  225.8290 H   0  0  0  0  0  0  0  0  0  0  0  0
  142.2271   70.8700  224.7931 H   0  0  0  0  0  0  0  0  0  0  0  0
  142.3508   69.9545  226.3561 H   0  0  0  0  0  0  0  0  0  0  0  0
  145.2917   74.4854  219.8426 H   0  0  0  0  0  0  0  0  0  0  0  0
  144.6404   73.1183  220.7407 H   0  0  0  0  0  0  0  0  0  0  0  0
  145.9168   72.1691  218.8238 H   0  0  0  0  0  0  0  0  0  0  0  0
  144.2362   71.9417  218.3913 H   0  0  0  0  0  0  0  0  0  0  0  0
  147.1503   72.9775  216.9439 H   0  0  0  0  0  0  0  0  0  0  0  0
  147.4013   74.6207  215.0609 H   0  0  0  0  0  0  0  0  0  0  0  0
  145.5270   76.1997  214.6087 H   0  0  0  0  0  0  0  0  0  0  0  0
  143.4608   76.1549  215.9766 H   0  0  0  0  0  0  0  0  0  0  0  0
  142.4333   75.4633  218.1036 H   0  0  0  0  0  0  0  0  0  0  0  0
  142.2429   73.7163  217.6671 H   0  0  0  0  0  0  0  0  0  0  0  0
  139.4374   77.3960  220.3077 H   0  0  0  0  0  0  0  0  0  0  0  0
  138.3693   76.8183  221.6646 H   0  0  0  0  0  0  0  0  0  0  0  0
  138.3325   79.3066  221.0721 H   0  0  0  0  0  0  0  0  0  0  0  0
  138.5100   78.8261  222.7978 H   0  0  0  0  0  0  0  0  0  0  0  0
  139.6521   81.3389  220.8487 H   0  0  0  0  0  0  0  0  0  0  0  0
  141.8627   82.4333  221.0806 H   0  0  0  0  0  0  0  0  0  0  0  0
  143.7389   81.2893  222.2553 H   0  0  0  0  0  0  0  0  0  0  0  0
  143.3728   78.9997  223.2129 H   0  0  0  0  0  0  0  0  0  0  0  0
  141.9926   77.1028  223.3626 H   0  0  0  0  0  0  0  0  0  0  0  0
  140.4173   77.6595  223.9848 H   0  0  0  0  0  0  0  0  0  0  0  0
  1  2  2  0
  2  3  1  0
  3  4  1  0
  4  5  1  0
  5  6  1  0
  6  7  1  0
  7  8  1  0
  8  9  1  0
  9 10  1  0
  2 11  1  0
 11 12  2  0
 12 13  1  0
 13 14  1  0
 14 15  1  0
 15 16  1  0
 16 17  1  0
 17 18  2  0
 18 19  1  0
 19 20  2  0
 20 21  1  0
 21 22  2  0
 22 23  1  0
 13 24  2  0
 24 25  1  0
 25 26  1  0
 26 27  1  0
 27 28  1  0
 28 29  1  0
 29 30  2  0
 30 31  1  0
 31 32  2  0
 32 33  1  0
 33 34  2  0
 34 35  1  0
 25 36  2  0
 10  5  1  0
 36 11  1  0
 23 14  1  0
 35 26  1  0
 22 17  1  0
 34 29  1  0
  3 37  1  0
  4 38  1  0
  4 39  1  0
  5 40  1  6
  6 41  1  0
  6 42  1  0
  7 43  1  0
  7 44  1  0
  8 45  1  0
  8 46  1  0
  9 47  1  0
 10 48  1  0
 10 49  1  0
 15 50  1  0
 15 51  1  0
 16 52  1  0
 16 53  1  0
 18 54  1  0
 19 55  1  0
 20 56  1  0
 21 57  1  0
 23 58  1  0
 23 59  1  0
 27 60  1  0
 27 61  1  0
 28 62  1  0
 28 63  1  0
 30 64  1  0
 31 65  1  0
 32 66  1  0
 33 67  1  0
 35 68  1  0
 35 69  1  0
M  END
>  <smiles>  (1) 
O=C(NCC1CCCNC1)c1nc(N2CCc3ccccc3C2)nc(N2CCc3ccccc3C2)n1

>  <score_type>  (1) 
oracle

>  <origin>  (1) 
autodockgpu

>  <m_score__min__energy>  (1) 
-10.33

>  <m_primary>  (1) 
energy

>  <rmsd>  (1) 
8.368240038745068

>  <m_score__min__rmsd>  (1) 
8.368240038745068

>  <meeko>  (1) 
{"free_energy": -9.08, "intermolecular_energy": -10.58, "internal_energy": -1.58, "cluster_size": 4, "cluster_id": 3, "rank_in_cluster": 4}

>  <energy>  (1) 
-10.33

>  <cluster_rmsd>  (1) 
0.0

>  <cluster>  (1) 
1

$$$$

     RDKit          3D

 69 74  0  0  0  0  0  0  0  0999 V2000
  138.7510   76.5620  221.5780 O   0  0  0  0  0  0  0  0  0  0  0  0
  140.0010   76.3950  221.6890 C   0  0  0  0  0  0  0  0  0  0  0  0
  140.7730   77.5840  221.8680 N   0  0  0  0  0  0  0  0  0  0  0  0
  140.0450   78.8340  221.9010 C   0  0  0  0  0  0  0  0  0  0  0  0
  140.3100   79.6020  223.1780 C   0  0  2  0  0  0  0  0  0  0  0  0
  140.6000   81.0270  222.8050 C   0  0  0  0  0  0  0  0  0  0  0  0
  142.0090   81.4230  223.2210 C   0  0  0  0  0  0  0  0  0  0  0  0
  142.9440   80.3520  222.7320 C   0  0  0  0  0  0  0  0  0  0  0  0
  142.6810   79.0710  223.3210 N   0  0  0  0  0  0  0  0  0  0  0  0
  141.4140   79.0000  223.9930 C   0  0  0  0  0  0  0  0  0  0  0  0
  140.6030   75.0810  221.6360 C   0  0  0  0  0  0  0  0  0  0  0  0
  140.1030   74.0480  222.3450 N   0  0  0  0  0  0  0  0  0  0  0  0
  140.7090   72.8350  222.2560 C   0  0  0  0  0  0  0  0  0  0  0  0
  140.2320   71.7010  222.9790 N   0  0  0  0  0  0  0  0  0  0  0  0
  138.9790   71.0290  222.6220 C   0  0  0  0  0  0  0  0  0  0  0  0
  139.2980   69.5340  222.7390 C   0  0  0  0  0  0  0  0  0  0  0  0
  139.4250   69.3310  224.2280 C   0  0  0  0  0  0  0  0  0  0  0  0
  138.7150   68.3490  224.8850 C   0  0  0  0  0  0  0  0  0  0  0  0
  138.8600   68.1940  226.2600 C   0  0  0  0  0  0  0  0  0  0  0  0
  139.7290   69.0500  226.9180 C   0  0  0  0  0  0  0  0  0  0  0  0
  140.4400   70.0380  226.2330 C   0  0  0  0  0  0  0  0  0  0  0  0
  140.2950   70.1910  224.8690 C   0  0  0  0  0  0  0  0  0  0  0  0
  141.0230   71.2240  224.0850 C   0  0  0  0  0  0  0  0  0  0  0  0
  141.7920   72.6690  221.4740 N   0  0  0  0  0  0  0  0  0  0  0  0
  142.2800   73.6980  220.7770 C   0  0  0  0  0  0  0  0  0  0  0  0
  143.4220   73.5110  219.9560 N   0  0  0  0  0  0  0  0  0  0  0  0
  143.4880   74.1550  218.6740 C   0  0  0  0  0  0  0  0  0  0  0  0
  144.6980   73.7600  217.8910 C   0  0  0  0  0  0  0  0  0  0  0  0
  144.9190   72.2970  218.0040 C   0  0  0  0  0  0  0  0  0  0  0  0
  145.2010   71.4740  216.9530 C   0  0  0  0  0  0  0  0  0  0  0  0
  145.3890   70.1190  217.1730 C   0  0  0  0  0  0  0  0  0  0  0  0
  145.2960   69.5720  218.4520 C   0  0  0  0  0  0  0  0  0  0  0  0
  145.0100   70.4050  219.5240 C   0  0  0  0  0  0  0  0  0  0  0  0
  144.8280   71.7470  219.2750 C   0  0  0  0  0  0  0  0  0  0  0  0
  144.5190   72.6890  220.3800 C   0  0  0  0  0  0  0  0  0  0  0  0
  141.6810   74.8960  220.8640 N   0  0  0  0  0  0  0  0  0  0  0  0
  141.8050   77.5020  221.9640 H   0  0  0  0  0  0  0  0  0  0  0  0
  140.3547   79.4498  221.0438 H   0  0  0  0  0  0  0  0  0  0  0  0
  138.9698   78.6062  221.8544 H   0  0  0  0  0  0  0  0  0  0  0  0
  139.4208   79.5548  223.8239 H   0  0  0  0  0  0  0  0  0  0  0  0
  140.5011   81.1410  221.7154 H   0  0  0  0  0  0  0  0  0  0  0  0
  139.8840   81.6788  223.3270 H   0  0  0  0  0  0  0  0  0  0  0  0
  142.2761   82.3895  222.7688 H   0  0  0  0  0  0  0  0  0  0  0  0
  142.0753   81.5247  224.3143 H   0  0  0  0  0  0  0  0  0  0  0  0
  142.8382   80.2650  221.6406 H   0  0  0  0  0  0  0  0  0  0  0  0
  143.9636   80.6459  223.0219 H   0  0  0  0  0  0  0  0  0  0  0  0
  142.7830   78.2700  222.6630 H   0  0  0  0  0  0  0  0  0  0  0  0
  141.1751   77.9443  224.1893 H   0  0  0  0  0  0  0  0  0  0  0  0
  141.4944   79.5714  224.9295 H   0  0  0  0  0  0  0  0  0  0  0  0
  138.1749   71.3106  223.3178 H   0  0  0  0  0  0  0  0  0  0  0  0
  138.6286   71.3044  221.6163 H   0  0  0  0  0  0  0  0  0  0  0  0
  138.4833   68.9221  222.3244 H   0  0  0  0  0  0  0  0  0  0  0  0
  140.1992   69.2377  222.1822 H   0  0  0  0  0  0  0  0  0  0  0  0
  138.0360   67.6901  224.3240 H   0  0  0  0  0  0  0  0  0  0  0  0
  138.3037   67.4182  226.8065 H   0  0  0  0  0  0  0  0  0  0  0  0
  139.8619   68.9489  228.0053 H   0  0  0  0  0  0  0  0  0  0  0  0
  141.1221   70.7006  226.7860 H   0  0  0  0  0  0  0  0  0  0  0  0
  141.2625   72.0709  224.7449 H   0  0  0  0  0  0  0  0  0  0  0  0
  141.9406   70.7697  223.6830 H   0  0  0  0  0  0  0  0  0  0  0  0
  142.5916   73.8832  218.0972 H   0  0  0  0  0  0  0  0  0  0  0  0
  143.5458   75.2393  218.8498 H   0  0  0  0  0  0  0  0  0  0  0  0
  144.5508   74.0258  216.8338 H   0  0  0  0  0  0  0  0  0  0  0  0
  145.5755   74.2901  218.2897 H   0  0  0  0  0  0  0  0  0  0  0  0
  145.2788   71.8844  215.9354 H   0  0  0  0  0  0  0  0  0  0  0  0
  145.6163   69.4614  216.3210 H   0  0  0  0  0  0  0  0  0  0  0  0
  145.4474   68.4939  218.6092 H   0  0  0  0  0  0  0  0  0  0  0  0
  144.9308   70.0042  220.5453 H   0  0  0  0  0  0  0  0  0  0  0  0
  144.2397   72.1279  221.2840 H   0  0  0  0  0  0  0  0  0  0  0  0
  145.3968   73.3084  220.6162 H   0  0  0  0  0  0  0  0  0  0  0  0
  1  2  2  0
  2  3  1  0
  3  4  1  0
  4  5  1  0
  5  6  1  0
  6  7  1  0
  7  8  1  0
  8  9  1  0
  9 10  1  0
  2 11  1  0
 11 12  2  0
 12 13  1  0
 13 14  1  0
 14 15  1  0
 15 16  1  0
 16 17  1  0
 17 18  2  0
 18 19  1  0
 19 20  2  0
 20 21  1  0
 21 22  2  0
 22 23  1  0
 13 24  2  0
 24 25  1  0
 25 26  1  0
 26 27  1  0
 27 28  1  0
 28 29  1  0
 29 30  2  0
 30 31  1  0
 31 32  2  0
 32 33  1  0
 33 34  2  0
 34 35  1  0
 25 36  2  0
 10  5  1  0
 36 11  1  0
 23 14  1  0
 35 26  1  0
 22 17  1  0
 34 29  1  0
  3 37  1  0
  4 38  1  0
  4 39  1  0
  5 40  1  1
  6 41  1  0
  6 42  1  0
  7 43  1  0
  7 44  1  0
  8 45  1  0
  8 46  1  0
  9 47  1  0
 10 48  1  0
 10 49  1  0
 15 50  1  0
 15 51  1  0
 16 52  1  0
 16 53  1  0
 18 54  1  0
 19 55  1  0
 20 56  1  0
 21 57  1  0
 23 58  1  0
 23 59  1  0
 27 60  1  0
 27 61  1  0
 28 62  1  0
 28 63  1  0
 30 64  1  0
 31 65  1  0
 32 66  1  0
 33 67  1  0
 35 68  1  0
 35 69  1  0
M  END
>  <smiles>  (2) 
O=C(NCC1CCCNC1)c1nc(N2CCc3ccccc3C2)nc(N2CCc3ccccc3C2)n1

>  <score_type>  (2) 
oracle

>  <origin>  (2) 
autodockgpu

>  <m_score__min__energy>  (2) 
-10.33

>  <m_primary>  (2) 
energy

>  <rmsd>  (2) 
4.633818366018994

>  <m_score__min__rmsd>  (2) 
4.633818366018994

>  <meeko>  (2) 
{"free_energy": -9.47, "intermolecular_energy": -10.96, "internal_energy": -1.62, "cluster_size": 25, "cluster_id": 1, "rank_in_cluster": 13}

>  <energy>  (2) 
-10.27

>  <cluster_rmsd>  (2) 
0.7

>  <cluster>  (2) 
1

$$$$

     RDKit          3D

 69 74  0  0  0  0  0  0  0  0999 V2000
  144.1280   75.1640  219.5080 O   0  0  0  0  0  0  0  0  0  0  0  0
  142.9450   74.7550  219.3170 C   0  0  0  0  0  0  0  0  0  0  0  0
  142.6540   74.2910  217.9980 N   0  0  0  0  0  0  0  0  0  0  0  0
  143.7350   74.3410  217.0370 C   0  0  0  0  0  0  0  0  0  0  0  0
  144.3580   72.9790  216.8210 C   0  0  2  0  0  0  0  0  0  0  0  0
  143.5250   71.9710  217.5590 C   0  0  0  0  0  0  0  0  0  0  0  0
  144.3380   71.2840  218.6470 C   0  0  0  0  0  0  0  0  0  0  0  0
  145.0310   72.3560  219.4410 C   0  0  0  0  0  0  0  0  0  0  0  0
  145.9530   73.1230  218.6540 N   0  0  0  0  0  0  0  0  0  0  0  0
  145.7960   72.9310  217.2400 C   0  0  0  0  0  0  0  0  0  0  0  0
  141.9560   74.7600  220.3720 C   0  0  0  0  0  0  0  0  0  0  0  0
  141.4520   73.6130  220.8710 N   0  0  0  0  0  0  0  0  0  0  0  0
  140.5250   73.6770  221.8630 C   0  0  0  0  0  0  0  0  0  0  0  0
  139.9520   72.5030  222.4360 N   0  0  0  0  0  0  0  0  0  0  0  0
  138.6390   72.0010  222.0170 C   0  0  0  0  0  0  0  0  0  0  0  0
  138.8210   70.4810  221.9250 C   0  0  0  0  0  0  0  0  0  0  0  0
  138.9400   70.0680  223.3710 C   0  0  0  0  0  0  0  0  0  0  0  0
  138.1480   69.0740  223.9040 C   0  0  0  0  0  0  0  0  0  0  0  0
  138.2880   68.7210  225.2420 C   0  0  0  0  0  0  0  0  0  0  0  0
  139.2370   69.3990  225.9920 C   0  0  0  0  0  0  0  0  0  0  0  0
  140.0300   70.4020  225.4320 C   0  0  0  0  0  0  0  0  0  0  0  0
  139.8900   70.7510  224.1040 C   0  0  0  0  0  0  0  0  0  0  0  0
  140.7040   71.8120  223.4520 C   0  0  0  0  0  0  0  0  0  0  0  0
  140.1170   74.8690  222.3370 N   0  0  0  0  0  0  0  0  0  0  0  0
  140.6210   75.9990  221.8360 C   0  0  0  0  0  0  0  0  0  0  0  0
  140.1830   77.2490  222.3450 N   0  0  0  0  0  0  0  0  0  0  0  0
  138.8670   77.7250  222.0240 C   0  0  0  0  0  0  0  0  0  0  0  0
  138.6100   79.1040  222.5380 C   0  0  0  0  0  0  0  0  0  0  0  0
  139.7940   79.9650  222.2950 C   0  0  0  0  0  0  0  0  0  0  0  0
  139.7400   81.2270  221.7790 C   0  0  0  0  0  0  0  0  0  0  0  0
  140.9120   81.9430  221.5930 C   0  0  0  0  0  0  0  0  0  0  0  0
  142.1540   81.4000  221.9230 C   0  0  0  0  0  0  0  0  0  0  0  0
  142.2130   80.1180  222.4480 C   0  0  0  0  0  0  0  0  0  0  0  0
  141.0320   79.4300  222.6220 C   0  0  0  0  0  0  0  0  0  0  0  0
  141.0310   78.0540  223.1780 C   0  0  0  0  0  0  0  0  0  0  0  0
  141.5370   75.9350  220.8570 N   0  0  0  0  0  0  0  0  0  0  0  0
  141.6970   73.9450  217.7870 H   0  0  0  0  0  0  0  0  0  0  0  0
  143.3420   74.7090  216.0778 H   0  0  0  0  0  0  0  0  0  0  0  0
  144.5114   75.0138  217.4302 H   0  0  0  0  0  0  0  0  0  0  0  0
  144.3661   72.7475  215.7457 H   0  0  0  0  0  0  0  0  0  0  0  0
  142.6665   72.4817  218.0196 H   0  0  0  0  0  0  0  0  0  0  0  0
  143.1815   71.2090  216.8439 H   0  0  0  0  0  0  0  0  0  0  0  0
  143.6725   70.7028  219.3022 H   0  0  0  0  0  0  0  0  0  0  0  0
  145.0724   70.5952  218.2041 H   0  0  0  0  0  0  0  0  0  0  0  0
  144.2703   73.0356  219.8526 H   0  0  0  0  0  0  0  0  0  0  0  0
  145.6074   71.8592  220.2353 H   0  0  0  0  0  0  0  0  0  0  0  0
  145.9620   74.1400  218.8800 H   0  0  0  0  0  0  0  0  0  0  0  0
  146.3462   73.7232  216.7112 H   0  0  0  0  0  0  0  0  0  0  0  0
  146.1894   71.9353  216.9876 H   0  0  0  0  0  0  0  0  0  0  0  0
  137.8697   72.2562  222.7606 H   0  0  0  0  0  0  0  0  0  0  0  0
  138.3071   72.4411  221.0651 H   0  0  0  0  0  0  0  0  0  0  0  0
  137.9508   70.0063  221.4481 H   0  0  0  0  0  0  0  0  0  0  0  0
  139.6868   70.1832  221.3154 H   0  0  0  0  0  0  0  0  0  0  0  0
  137.4072   68.5612  223.2729 H   0  0  0  0  0  0  0  0  0  0  0  0
  137.6672   67.9311  225.6899 H   0  0  0  0  0  0  0  0  0  0  0  0
  139.3680   69.1404  227.0531 H   0  0  0  0  0  0  0  0  0  0  0  0
  140.7740   70.9195  226.0554 H   0  0  0  0  0  0  0  0  0  0  0  0
  141.0243   72.5367  224.2150 H   0  0  0  0  0  0  0  0  0  0  0  0
  141.5737   71.3365  222.9751 H   0  0  0  0  0  0  0  0  0  0  0  0
  138.7521   77.7304  220.9300 H   0  0  0  0  0  0  0  0  0  0  0  0
  138.1437   77.0511  222.5064 H   0  0  0  0  0  0  0  0  0  0  0  0
  137.7378   79.5292  222.0198 H   0  0  0  0  0  0  0  0  0  0  0  0
  138.4145   79.0557  223.6194 H   0  0  0  0  0  0  0  0  0  0  0  0
  138.7710   81.6739  221.5120 H   0  0  0  0  0  0  0  0  0  0  0  0
  140.8619   82.9600  221.1768 H   0  0  0  0  0  0  0  0  0  0  0  0
  143.0749   81.9816  221.7687 H   0  0  0  0  0  0  0  0  0  0  0  0
  143.1770   79.6624  222.7184 H   0  0  0  0  0  0  0  0  0  0  0  0
  142.0533   77.6480  223.1758 H   0  0  0  0  0  0  0  0  0  0  0  0
  140.6633   78.0569  224.2147 H   0  0  0  0  0  0  0  0  0  0  0  0
  1  2  2  0
  2  3  1  0
  3  4  1  0
  4  5  1  0
  5  6  1  0
  6  7  1  0
  7  8  1  0
  8  9  1  0
  9 10  1  0
  2 11  1  0
 11 12  2  0
 12 13  1  0
 13 14  1  0
 14 15  1  0
 15 16  1  0
 16 17  1  0
 17 18  2  0
 18 19  1  0
 19 20  2  0
 20 21  1  0
 21 22  2  0
 22 23  1  0
 13 24  2  0
 24 25  1  0
 25 26  1  0
 26 27  1  0
 27 28  1  0
 28 29  1  0
 29 30  2  0
 30 31  1  0
 31 32  2  0
 32 33  1  0
 33 34  2  0
 34 35  1  0
 25 36  2  0
 10  5  1  0
 36 11  1  0
 23 14  1  0
 35 26  1  0
 22 17  1  0
 34 29  1  0
  3 37  1  0
  4 38  1  0
  4 39  1  0
  5 40  1  6
  6 41  1  0
  6 42  1  0
  7 43  1  0
  7 44  1  0
  8 45  1  0
  8 46  1  0
  9 47  1  0
 10 48  1  0
 10 49  1  0
 15 50  1  0
 15 51  1  0
 16 52  1  0
 16 53  1  0
 18 54  1  0
 19 55  1  0
 20 56  1  0
 21 57  1  0
 23 58  1  0
 23 59  1  0
 27 60  1  0
 27 61  1  0
 28 62  1  0
 28 63  1  0
 30 64  1  0
 31 65  1  0
 32 66  1  0
 33 67  1  0
 35 68  1  0
 35 69  1  0
M  END
>  <smiles>  (3) 
O=C(NCC1CCCNC1)c1nc(N2CCc3ccccc3C2)nc(N2CCc3ccccc3C2)n1

>  <score_type>  (3) 
oracle

>  <origin>  (3) 
autodockgpu

>  <m_score__min__energy>  (3) 
-10.33

>  <m_primary>  (3) 
energy

>  <rmsd>  (3) 
5.941824489148285

>  <m_score__min__rmsd>  (3) 
5.941824489148285

>  <meeko>  (3) 
{"free_energy": -8.76, "intermolecular_energy": -10.26, "internal_energy": -1.91, "cluster_size": 6, "cluster_id": 6, "rank_in_cluster": 1}

>  <energy>  (3) 
-10.18

>  <cluster_rmsd>  (3) 
0.72

>  <cluster>  (3) 
1

$$$$

     RDKit          3D

 69 74  0  0  0  0  0  0  0  0999 V2000
  140.7660   76.4020  220.4150 O   0  0  0  0  0  0  0  0  0  0  0  0
  140.3150   75.6930  221.3610 C   0  0  0  0  0  0  0  0  0  0  0  0
  139.5080   76.3780  222.3200 N   0  0  0  0  0  0  0  0  0  0  0  0
  139.3000   77.7930  222.1040 C   0  0  0  0  0  0  0  0  0  0  0  0
  140.0110   78.6300  223.1460 C   0  0  2  0  0  0  0  0  0  0  0  0
  139.7980   80.0750  222.7990 C   0  0  0  0  0  0  0  0  0  0  0  0
  141.1210   80.7650  222.5010 C   0  0  0  0  0  0  0  0  0  0  0  0
  141.8740   79.9010  221.5280 C   0  0  0  0  0  0  0  0  0  0  0  0
  142.1900   78.6080  222.0610 N   0  0  0  0  0  0  0  0  0  0  0  0
  141.4670   78.2900  223.2600 C   0  0  0  0  0  0  0  0  0  0  0  0
  140.6020   74.2780  221.4590 C   0  0  0  0  0  0  0  0  0  0  0  0
  140.2670   73.5650  222.5530 N   0  0  0  0  0  0  0  0  0  0  0  0
  140.5600   72.2390  222.5900 C   0  0  0  0  0  0  0  0  0  0  0  0
  140.2340   71.4260  223.7160 N   0  0  0  0  0  0  0  0  0  0  0  0
  139.0750   70.5280  223.7110 C   0  0  0  0  0  0  0  0  0  0  0  0
  139.5820   69.2430  224.3760 C   0  0  0  0  0  0  0  0  0  0  0  0
  139.7380   69.6500  225.8200 C   0  0  0  0  0  0  0  0  0  0  0  0
  139.1600   68.9240  226.8400 C   0  0  0  0  0  0  0  0  0  0  0  0
  139.3280   69.3320  228.1590 C   0  0  0  0  0  0  0  0  0  0  0  0
  140.0830   70.4710  228.3920 C   0  0  0  0  0  0  0  0  0  0  0  0
  140.6600   71.1910  227.3440 C   0  0  0  0  0  0  0  0  0  0  0  0
  140.4930   70.7850  226.0350 C   0  0  0  0  0  0  0  0  0  0  0  0
  141.0820   71.5110  224.8780 C   0  0  0  0  0  0  0  0  0  0  0  0
  141.1770   71.6480  221.5490 N   0  0  0  0  0  0  0  0  0  0  0  0
  141.5060   72.3630  220.4710 C   0  0  0  0  0  0  0  0  0  0  0  0
  142.1560   71.7290  219.3800 N   0  0  0  0  0  0  0  0  0  0  0  0
  141.5250   70.6170  218.7270 C   0  0  0  0  0  0  0  0  0  0  0  0
  142.3920   69.9940  217.6810 C   0  0  0  0  0  0  0  0  0  0  0  0
  143.7840   69.8740  218.1820 C   0  0  0  0  0  0  0  0  0  0  0  0
  144.5550   68.7550  218.0640 C   0  0  0  0  0  0  0  0  0  0  0  0
  145.8450   68.7530  218.5700 C   0  0  0  0  0  0  0  0  0  0  0  0
  146.3780   69.8770  219.2020 C   0  0  0  0  0  0  0  0  0  0  0  0
  145.5980   71.0170  219.3230 C   0  0  0  0  0  0  0  0  0  0  0  0
  144.3200   70.9890  218.8110 C   0  0  0  0  0  0  0  0  0  0  0  0
  143.4360   72.1780  218.9110 C   0  0  0  0  0  0  0  0  0  0  0  0
  141.2150   73.6730  220.4340 N   0  0  0  0  0  0  0  0  0  0  0  0
  139.1130   75.8410  223.1190 H   0  0  0  0  0  0  0  0  0  0  0  0
  139.6837   78.0617  221.1087 H   0  0  0  0  0  0  0  0  0  0  0  0
  138.2215   77.9960  222.1793 H   0  0  0  0  0  0  0  0  0  0  0  0
  139.5881   78.4148  224.1384 H   0  0  0  0  0  0  0  0  0  0  0  0
  139.1505   80.1403  221.9122 H   0  0  0  0  0  0  0  0  0  0  0  0
  139.3271   80.5759  223.6577 H   0  0  0  0  0  0  0  0  0  0  0  0
  140.9366   81.7552  222.0589 H   0  0  0  0  0  0  0  0  0  0  0  0
  141.7017   80.9036  223.4249 H   0  0  0  0  0  0  0  0  0  0  0  0
  141.2580   79.7683  220.6263 H   0  0  0  0  0  0  0  0  0  0  0  0
  142.8242   80.4072  221.3027 H   0  0  0  0  0  0  0  0  0  0  0  0
  142.1040   77.8300  221.3730 H   0  0  0  0  0  0  0  0  0  0  0  0
  141.5654   77.2126  223.4586 H   0  0  0  0  0  0  0  0  0  0  0  0
  141.8916   78.8868  224.0807 H   0  0  0  0  0  0  0  0  0  0  0  0
  138.2443   70.9621  224.2868 H   0  0  0  0  0  0  0  0  0  0  0  0
  138.6885   70.3496  222.6967 H   0  0  0  0  0  0  0  0  0  0  0  0
  138.8506   68.4280  224.2713 H   0  0  0  0  0  0  0  0  0  0  0  0
  140.5117   68.8604  223.9296 H   0  0  0  0  0  0  0  0  0  0  0  0
  138.5682   68.0254  226.6113 H   0  0  0  0  0  0  0  0  0  0  0  0
  138.8768   68.7695  228.9897 H   0  0  0  0  0  0  0  0  0  0  0  0
  140.2309   70.8155  229.4261 H   0  0  0  0  0  0  0  0  0  0  0  0
  141.2536   72.0907  227.5635 H   0  0  0  0  0  0  0  0  0  0  0  0
  141.2130   72.5691  225.1487 H   0  0  0  0  0  0  0  0  0  0  0  0
  142.0494   71.0473  224.6348 H   0  0  0  0  0  0  0  0  0  0  0  0
  141.2838   69.8555  219.4833 H   0  0  0  0  0  0  0  0  0  0  0  0
  140.6209   70.9949  218.2271 H   0  0  0  0  0  0  0  0  0  0  0  0
  142.0055   68.9938  217.4356 H   0  0  0  0  0  0  0  0  0  0  0  0
  142.3849   70.6272  216.7816 H   0  0  0  0  0  0  0  0  0  0  0  0
  144.1544   67.8579  217.5692 H   0  0  0  0  0  0  0  0  0  0  0  0
  146.4612   67.8471  218.4715 H   0  0  0  0  0  0  0  0  0  0  0  0
  147.4037   69.8590  219.5991 H   0  0  0  0  0  0  0  0  0  0  0  0
  145.9897   71.9196  219.8148 H   0  0  0  0  0  0  0  0  0  0  0  0
  143.8618   72.9034  219.6198 H   0  0  0  0  0  0  0  0  0  0  0  0
  143.3379   72.6698  217.9320 H   0  0  0  0  0  0  0  0  0  0  0  0
  1  2  2  0
  2  3  1  0
  3  4  1  0
  4  5  1  0
  5  6  1  0
  6  7  1  0
  7  8  1  0
  8  9  1  0
  9 10  1  0
  2 11  1  0
 11 12  2  0
 12 13  1  0
 13 14  1  0
 14 15  1  0
 15 16  1  0
 16 17  1  0
 17 18  2  0
 18 19  1  0
 19 20  2  0
 20 21  1  0
 21 22  2  0
 22 23  1  0
 13 24  2  0
 24 25  1  0
 25 26  1  0
 26 27  1  0
 27 28  1  0
 28 29  1  0
 29 30  2  0
 30 31  1  0
 31 32  2  0
 32 33  1  0
 33 34  2  0
 34 35  1  0
 25 36  2  0
 10  5  1  0
 36 11  1  0
 23 14  1  0
 35 26  1  0
 22 17  1  0
 34 29  1  0
  3 37  1  0
  4 38  1  0
  4 39  1  0
  5 40  1  1
  6 41  1  0
  6 42  1  0
  7 43  1  0
  7 44  1  0
  8 45  1  0
  8 46  1  0
  9 47  1  0
 10 48  1  0
 10 49  1  0
 15 50  1  0
 15 51  1  0
 16 52  1  0
 16 53  1  0
 18 54  1  0
 19 55  1  0
 20 56  1  0
 21 57  1  0
 23 58  1  0
 23 59  1  0
 27 60  1  0
 27 61  1  0
 28 62  1  0
 28 63  1  0
 30 64  1  0
 31 65  1  0
 32 66  1  0
 33 67  1  0
 35 68  1  0
 35 69  1  0
M  END
>  <smiles>  (4) 
O=C(NCC1CCCNC1)c1nc(N2CCc3ccccc3C2)nc(N2CCc3ccccc3C2)n1

>  <score_type>  (4) 
oracle

>  <origin>  (4) 
autodockgpu

>  <m_score__min__energy>  (4) 
-10.33

>  <m_primary>  (4) 
energy

>  <rmsd>  (4) 
4.161697445698073

>  <m_score__min__rmsd>  (4) 
4.161697445698073

>  <meeko>  (4) 
{"free_energy": -9.03, "intermolecular_energy": -10.52, "internal_energy": -1.92, "cluster_size": 25, "cluster_id": 1, "rank_in_cluster": 20}

>  <energy>  (4) 
-10.18

>  <cluster_rmsd>  (4) 
0.75

>  <cluster>  (4) 
1

$$$$

     RDKit          3D

 69 74  0  0  0  0  0  0  0  0999 V2000
  138.5450   76.3450  221.9280 O   0  0  0  0  0  0  0  0  0  0  0  0
  139.7780   76.0620  221.9170 C   0  0  0  0  0  0  0  0  0  0  0  0
  140.6710   77.1720  222.0290 N   0  0  0  0  0  0  0  0  0  0  0  0
  140.0690   78.4830  222.1420 C   0  0  0  0  0  0  0  0  0  0  0  0
  140.5170   79.1990  223.3970 C   0  0  2  0  0  0  0  0  0  0  0  0
  140.4950   80.6740  223.1180 C   0  0  0  0  0  0  0  0  0  0  0  0
  141.8880   81.2730  223.2420 C   0  0  0  0  0  0  0  0  0  0  0  0
  142.8260   80.4090  222.4450 C   0  0  0  0  0  0  0  0  0  0  0  0
  142.9050   79.0660  222.9430 N   0  0  0  0  0  0  0  0  0  0  0  0
  141.8620   78.7390  223.8740 C   0  0  0  0  0  0  0  0  0  0  0  0
  140.2480   74.6990  221.7970 C   0  0  0  0  0  0  0  0  0  0  0  0
  139.9400   73.7640  222.7190 N   0  0  0  0  0  0  0  0  0  0  0  0
  140.4080   72.4990  222.5550 C   0  0  0  0  0  0  0  0  0  0  0  0
  140.1200   71.4620  223.4920 N   0  0  0  0  0  0  0  0  0  0  0  0
  138.8720   70.6940  223.4350 C   0  0  0  0  0  0  0  0  0  0  0  0
  139.3010   69.2460  223.7030 C   0  0  0  0  0  0  0  0  0  0  0  0
  139.6650   69.2670  225.1660 C   0  0  0  0  0  0  0  0  0  0  0  0
  139.1270   68.3620  226.0560 C   0  0  0  0  0  0  0  0  0  0  0  0
  139.4890   68.4140  227.3980 C   0  0  0  0  0  0  0  0  0  0  0  0
  140.3920   69.3920  227.7860 C   0  0  0  0  0  0  0  0  0  0  0  0
  140.9250   70.2990  226.8680 C   0  0  0  0  0  0  0  0  0  0  0  0
  140.5650   70.2460  225.5360 C   0  0  0  0  0  0  0  0  0  0  0  0
  141.0980   71.1840  224.5130 C   0  0  0  0  0  0  0  0  0  0  0  0
  141.1680   72.1860  221.4890 N   0  0  0  0  0  0  0  0  0  0  0  0
  141.4670   73.1190  220.5820 C   0  0  0  0  0  0  0  0  0  0  0  0
  142.2690   72.7770  219.4620 N   0  0  0  0  0  0  0  0  0  0  0  0
  141.6890   72.0460  218.3710 C   0  0  0  0  0  0  0  0  0  0  0  0
  142.6940   71.6660  217.3320 C   0  0  0  0  0  0  0  0  0  0  0  0
  143.9350   71.1760  217.9820 C   0  0  0  0  0  0  0  0  0  0  0  0
  144.6090   70.0490  217.6130 C   0  0  0  0  0  0  0  0  0  0  0  0
  145.7600   69.6840  218.2920 C   0  0  0  0  0  0  0  0  0  0  0  0
  146.2510   70.4480  219.3510 C   0  0  0  0  0  0  0  0  0  0  0  0
  145.5690   71.5950  219.7290 C   0  0  0  0  0  0  0  0  0  0  0  0
  144.4270   71.9320  219.0360 C   0  0  0  0  0  0  0  0  0  0  0  0
  143.6540   73.1480  219.3950 C   0  0  0  0  0  0  0  0  0  0  0  0
  141.0040   74.3680  220.7440 N   0  0  0  0  0  0  0  0  0  0  0  0
  141.6960   76.9940  222.0250 H   0  0  0  0  0  0  0  0  0  0  0  0
  140.3570   79.0840  221.2668 H   0  0  0  0  0  0  0  0  0  0  0  0
  138.9775   78.3556  222.1914 H   0  0  0  0  0  0  0  0  0  0  0  0
  139.8260   78.9605  224.2190 H   0  0  0  0  0  0  0  0  0  0  0  0
  140.1209   80.8415  222.0972 H   0  0  0  0  0  0  0  0  0  0  0  0
  139.8376   81.1602  223.8538 H   0  0  0  0  0  0  0  0  0  0  0  0
  141.8924   82.2984  222.8437 H   0  0  0  0  0  0  0  0  0  0  0  0
  142.1997   81.3121  224.2962 H   0  0  0  0  0  0  0  0  0  0  0  0
  142.4746   80.3772  221.4031 H   0  0  0  0  0  0  0  0  0  0  0  0
  143.8303   80.8507  222.5242 H   0  0  0  0  0  0  0  0  0  0  0  0
  142.9630   78.3390  222.1990 H   0  0  0  0  0  0  0  0  0  0  0  0
  141.8364   77.6477  224.0093 H   0  0  0  0  0  0  0  0  0  0  0  0
  142.0798   79.2531  224.8217 H   0  0  0  0  0  0  0  0  0  0  0  0
  138.1669   71.0397  224.2053 H   0  0  0  0  0  0  0  0  0  0  0  0
  138.3551   70.8059  222.4705 H   0  0  0  0  0  0  0  0  0  0  0  0
  138.4741   68.5464  223.5111 H   0  0  0  0  0  0  0  0  0  0  0  0
  140.1245   68.9103  223.0556 H   0  0  0  0  0  0  0  0  0  0  0  0
  138.4138   67.6012  225.7060 H   0  0  0  0  0  0  0  0  0  0  0  0
  139.0729   67.7031  228.1270 H   0  0  0  0  0  0  0  0  0  0  0  0
  140.6955   69.4548  228.8414 H   0  0  0  0  0  0  0  0  0  0  0  0
  141.6387   71.0633  227.2092 H   0  0  0  0  0  0  0  0  0  0  0  0
  141.3797   72.1269  225.0046 H   0  0  0  0  0  0  0  0  0  0  0  0
  141.9715   70.7153  224.0362 H   0  0  0  0  0  0  0  0  0  0  0  0
  141.2286   71.1289  218.7672 H   0  0  0  0  0  0  0  0  0  0  0  0
  140.9459   72.6997  217.8909 H   0  0  0  0  0  0  0  0  0  0  0  0
  142.2776   70.8711  216.6958 H   0  0  0  0  0  0  0  0  0  0  0  0
  142.9312   72.5481  216.7192 H   0  0  0  0  0  0  0  0  0  0  0  0
  144.2402   69.4326  216.7799 H   0  0  0  0  0  0  0  0  0  0  0  0
  146.2978   68.7732  217.9900 H   0  0  0  0  0  0  0  0  0  0  0  0
  147.1670   70.1447  219.8792 H   0  0  0  0  0  0  0  0  0  0  0  0
  145.9302   72.2189  220.5598 H   0  0  0  0  0  0  0  0  0  0  0  0
  143.9877   73.5302  220.3710 H   0  0  0  0  0  0  0  0  0  0  0  0
  143.8067   73.9385  218.6454 H   0  0  0  0  0  0  0  0  0  0  0  0
  1  2  2  0
  2  3  1  0
  3  4  1  0
  4  5  1  0
  5  6  1  0
  6  7  1  0
  7  8  1  0
  8  9  1  0
  9 10  1  0
  2 11  1  0
 11 12  2  0
 12 13  1  0
 13 14  1  0
 14 15  1  0
 15 16  1  0
 16 17  1  0
 17 18  2  0
 18 19  1  0
 19 20  2  0
 20 21  1  0
 21 22  2  0
 22 23  1  0
 13 24  2  0
 24 25  1  0
 25 26  1  0
 26 27  1  0
 27 28  1  0
 28 29  1  0
 29 30  2  0
 30 31  1  0
 31 32  2  0
 32 33  1  0
 33 34  2  0
 34 35  1  0
 25 36  2  0
 10  5  1  0
 36 11  1  0
 23 14  1  0
 35 26  1  0
 22 17  1  0
 34 29  1  0
  3 37  1  0
  4 38  1  0
  4 39  1  0
  5 40  1  1
  6 41  1  0
  6 42  1  0
  7 43  1  0
  7 44  1  0
  8 45  1  0
  8 46  1  0
  9 47  1  0
 10 48  1  0
 10 49  1  0
 15 50  1  0
 15 51  1  0
 16 52  1  0
 16 53  1  0
 18 54  1  0
 19 55  1  0
 20 56  1  0
 21 57  1  0
 23 58  1  0
 23 59  1  0
 27 60  1  0
 27 61  1  0
 28 62  1  0
 28 63  1  0
 30 64  1  0
 31 65  1  0
 32 66  1  0
 33 67  1  0
 35 68  1  0
 35 69  1  0
M  END
>  <smiles>  (5) 
O=C(NCC1CCCNC1)c1nc(N2CCc3ccccc3C2)nc(N2CCc3ccccc3C2)n1

>  <score_type>  (5) 
oracle

>  <origin>  (5) 
autodockgpu

>  <m_score__min__energy>  (5) 
-10.33

>  <m_primary>  (5) 
energy

>  <rmsd>  (5) 
4.58891576239968

>  <m_score__min__rmsd>  (5) 
4.58891576239968

>  <meeko>  (5) 
{"free_energy": -9.89, "intermolecular_energy": -11.38, "internal_energy": -1.25, "cluster_size": 25, "cluster_id": 1, "rank_in_cluster": 9}

>  <energy>  (5) 
-10.15

>  <cluster_rmsd>  (5) 
0.35

>  <cluster>  (5) 
1

$$$$

     RDKit          3D

 69 74  0  0  0  0  0  0  0  0999 V2000
  138.9060   77.4110  222.7670 O   0  0  0  0  0  0  0  0  0  0  0  0
  139.7510   77.1750  221.8550 C   0  0  0  0  0  0  0  0  0  0  0  0
  140.1110   78.2900  221.0390 N   0  0  0  0  0  0  0  0  0  0  0  0
  139.4750   79.5530  221.3440 C   0  0  0  0  0  0  0  0  0  0  0  0
  140.4500   80.5400  221.9500 C   0  0  2  0  0  0  0  0  0  0  0  0
  141.8380   80.0940  221.5920 C   0  0  0  0  0  0  0  0  0  0  0  0
  142.6410   79.7580  222.8400 C   0  0  0  0  0  0  0  0  0  0  0  0
  141.7980   78.8510  223.6920 C   0  0  0  0  0  0  0  0  0  0  0  0
  140.5830   79.4730  224.1340 N   0  0  0  0  0  0  0  0  0  0  0  0
  140.2730   80.6860  223.4320 C   0  0  0  0  0  0  0  0  0  0  0  0
  140.3120   75.8560  221.6560 C   0  0  0  0  0  0  0  0  0  0  0  0
  139.8050   74.7740  222.2800 N   0  0  0  0  0  0  0  0  0  0  0  0
  140.3710   73.5590  222.0560 C   0  0  0  0  0  0  0  0  0  0  0  0
  139.8850   72.3730  222.6830 N   0  0  0  0  0  0  0  0  0  0  0  0
  138.5950   71.7800  222.3200 C   0  0  0  0  0  0  0  0  0  0  0  0
  138.8650   70.2710  222.2740 C   0  0  0  0  0  0  0  0  0  0  0  0
  139.0470   69.9170  223.7290 C   0  0  0  0  0  0  0  0  0  0  0  0
  138.3310   68.8970  224.3170 C   0  0  0  0  0  0  0  0  0  0  0  0
  138.5280   68.6010  225.6620 C   0  0  0  0  0  0  0  0  0  0  0  0
  139.4540   69.3600  226.3610 C   0  0  0  0  0  0  0  0  0  0  0  0
  140.1700   70.3880  225.7450 C   0  0  0  0  0  0  0  0  0  0  0  0
  139.9730   70.6810  224.4110 C   0  0  0  0  0  0  0  0  0  0  0  0
  140.7040   71.7640  223.7010 C   0  0  0  0  0  0  0  0  0  0  0  0
  141.4230   73.4410  221.2230 N   0  0  0  0  0  0  0  0  0  0  0  0
  141.9170   74.5190  220.6100 C   0  0  0  0  0  0  0  0  0  0  0  0
  143.0250   74.3810  219.7340 N   0  0  0  0  0  0  0  0  0  0  0  0
  142.8750   74.7030  218.3430 C   0  0  0  0  0  0  0  0  0  0  0  0
  144.0980   74.3910  217.5430 C   0  0  0  0  0  0  0  0  0  0  0  0
  144.6470   73.0730  217.9480 C   0  0  0  0  0  0  0  0  0  0  0  0
  145.0470   72.1020  217.0790 C   0  0  0  0  0  0  0  0  0  0  0  0
  145.5460   70.9050  217.5690 C   0  0  0  0  0  0  0  0  0  0  0  0
  145.6480   70.6690  218.9400 C   0  0  0  0  0  0  0  0  0  0  0  0
  145.2420   71.6550  219.8270 C   0  0  0  0  0  0  0  0  0  0  0  0
  144.7510   72.8330  219.3110 C   0  0  0  0  0  0  0  0  0  0  0  0
  144.3000   73.9250  220.2100 C   0  0  0  0  0  0  0  0  0  0  0  0
  141.3570   75.7180  220.8320 N   0  0  0  0  0  0  0  0  0  0  0  0
  140.8010   78.1500  220.2730 H   0  0  0  0  0  0  0  0  0  0  0  0
  139.0667   79.9796  220.4159 H   0  0  0  0  0  0  0  0  0  0  0  0
  138.6766   79.3662  222.0772 H   0  0  0  0  0  0  0  0  0  0  0  0
  140.2587   81.5422  221.5388 H   0  0  0  0  0  0  0  0  0  0  0  0
  141.7754   79.2008  220.9531 H   0  0  0  0  0  0  0  0  0  0  0  0
  142.3434   80.9134  221.0598 H   0  0  0  0  0  0  0  0  0  0  0  0
  143.5746   79.2484  222.5595 H   0  0  0  0  0  0  0  0  0  0  0  0
  142.9008   80.6741  223.3906 H   0  0  0  0  0  0  0  0  0  0  0  0
  141.5415   77.9563  223.1056 H   0  0  0  0  0  0  0  0  0  0  0  0
  142.3850   78.5981  224.5873 H   0  0  0  0  0  0  0  0  0  0  0  0
  139.7570   78.8390  224.1380 H   0  0  0  0  0  0  0  0  0  0  0  0
  139.2277   80.9588  223.6394 H   0  0  0  0  0  0  0  0  0  0  0  0
  140.9654   81.4662  223.7810 H   0  0  0  0  0  0  0  0  0  0  0  0
  137.8322   72.0155  223.0767 H   0  0  0  0  0  0  0  0  0  0  0  0
  138.2118   72.1656  221.3637 H   0  0  0  0  0  0  0  0  0  0  0  0
  138.0123   69.7294  221.8386 H   0  0  0  0  0  0  0  0  0  0  0  0
  139.7305   70.0033  221.6501 H   0  0  0  0  0  0  0  0  0  0  0  0
  137.6062   68.3189  223.7250 H   0  0  0  0  0  0  0  0  0  0  0  0
  137.9681   67.7922  226.1542 H   0  0  0  0  0  0  0  0  0  0  0  0
  139.6286   69.1472  227.4260 H   0  0  0  0  0  0  0  0  0  0  0  0
  140.8983   70.9701  226.3287 H   0  0  0  0  0  0  0  0  0  0  0  0
  140.9998   72.5331  224.4296 H   0  0  0  0  0  0  0  0  0  0  0  0
  141.5881   71.3242  223.2162 H   0  0  0  0  0  0  0  0  0  0  0  0
  142.0320   74.1247  217.9369 H   0  0  0  0  0  0  0  0  0  0  0  0
  142.6981   75.7863  218.2702 H   0  0  0  0  0  0  0  0  0  0  0  0
  143.8374   74.3643  216.4746 H   0  0  0  0  0  0  0  0  0  0  0  0
  144.8552   75.1683  217.7231 H   0  0  0  0  0  0  0  0  0  0  0  0
  144.9742   72.2674  215.9939 H   0  0  0  0  0  0  0  0  0  0  0  0
  145.8680   70.1258  216.8625 H   0  0  0  0  0  0  0  0  0  0  0  0
  146.0452   69.7134  219.3128 H   0  0  0  0  0  0  0  0  0  0  0  0
  145.3105   71.4998  220.9138 H   0  0  0  0  0  0  0  0  0  0  0  0
  144.2032   73.5479  221.2388 H   0  0  0  0  0  0  0  0  0  0  0  0
  145.0286   74.7491  220.2121 H   0  0  0  0  0  0  0  0  0  0  0  0
  1  2  2  0
  2  3  1  0
  3  4  1  0
  4  5  1  0
  5  6  1  0
  6  7  1  0
  7  8  1  0
  8  9  1  0
  9 10  1  0
  2 11  1  0
 11 12  2  0
 12 13  1  0
 13 14  1  0
 14 15  1  0
 15 16  1  0
 16 17  1  0
 17 18  2  0
 18 19  1  0
 19 20  2  0
 20 21  1  0
 21 22  2  0
 22 23  1  0
 13 24  2  0
 24 25  1  0
 25 26  1  0
 26 27  1  0
 27 28  1  0
 28 29  1  0
 29 30  2  0
 30 31  1  0
 31 32  2  0
 32 33  1  0
 33 34  2  0
 34 35  1  0
 25 36  2  0
 10  5  1  0
 36 11  1  0
 23 14  1  0
 35 26  1  0
 22 17  1  0
 34 29  1  0
  3 37  1  0
  4 38  1  0
  4 39  1  0
  5 40  1  6
  6 41  1  0
  6 42  1  0
  7 43  1  0
  7 44  1  0
  8 45  1  0
  8 46  1  0
  9 47  1  0
 10 48  1  0
 10 49  1  0
 15 50  1  0
 15 51  1  0
 16 52  1  0
 16 53  1  0
 18 54  1  0
 19 55  1  0
 20 56  1  0
 21 57  1  0
 23 58  1  0
 23 59  1  0
 27 60  1  0
 27 61  1  0
 28 62  1  0
 28 63  1  0
 30 64  1  0
 31 65  1  0
 32 66  1  0
 33 67  1  0
 35 68  1  0
 35 69  1  0
M  END
>  <smiles>  (6) 
O=C(NCC1CCCNC1)c1nc(N2CCc3ccccc3C2)nc(N2CCc3ccccc3C2)n1

>  <score_type>  (6) 
oracle

>  <origin>  (6) 
autodockgpu

>  <m_score__min__energy>  (6) 
-10.33

>  <m_primary>  (6) 
energy

>  <rmsd>  (6) 
4.263521812655728

>  <m_score__min__rmsd>  (6) 
4.263521812655728

>  <meeko>  (6) 
{"free_energy": -8.43, "intermolecular_energy": -9.92, "internal_energy": -2.19, "cluster_size": 2, "cluster_id": 2, "rank_in_cluster": 2}

>  <energy>  (6) 
-10.05

>  <cluster_rmsd>  (6) 
0.87

>  <cluster>  (6) 
1

$$$$

     RDKit          3D

 69 74  0  0  0  0  0  0  0  0999 V2000
  138.8030   75.9440  221.3010 O   0  0  0  0  0  0  0  0  0  0  0  0
  139.9850   75.5710  221.5600 C   0  0  0  0  0  0  0  0  0  0  0  0
  140.9290   76.6170  221.7950 N   0  0  0  0  0  0  0  0  0  0  0  0
  140.4330   77.9730  221.7110 C   0  0  0  0  0  0  0  0  0  0  0  0
  140.4510   78.6610  223.0590 C   0  0  2  0  0  0  0  0  0  0  0  0
  139.9670   80.0690  222.8640 C   0  0  0  0  0  0  0  0  0  0  0  0
  141.0480   81.0740  223.2320 C   0  0  0  0  0  0  0  0  0  0  0  0
  142.3140   80.6510  222.5390 C   0  0  0  0  0  0  0  0  0  0  0  0
  142.7800   79.3640  222.9660 N   0  0  0  0  0  0  0  0  0  0  0  0
  141.8020   78.6190  223.7080 C   0  0  0  0  0  0  0  0  0  0  0  0
  140.3490   74.1720  221.6120 C   0  0  0  0  0  0  0  0  0  0  0  0
  140.0670   73.4100  222.6880 N   0  0  0  0  0  0  0  0  0  0  0  0
  140.4320   72.1010  222.6810 C   0  0  0  0  0  0  0  0  0  0  0  0
  140.1640   71.2390  223.7860 N   0  0  0  0  0  0  0  0  0  0  0  0
  138.9350   70.4440  223.8650 C   0  0  0  0  0  0  0  0  0  0  0  0
  139.3950   69.0760  224.3830 C   0  0  0  0  0  0  0  0  0  0  0  0
  139.7530   69.3630  225.8200 C   0  0  0  0  0  0  0  0  0  0  0  0
  139.2320   68.6160  226.8550 C   0  0  0  0  0  0  0  0  0  0  0  0
  139.5880   68.9110  228.1670 C   0  0  0  0  0  0  0  0  0  0  0  0
  140.4660   69.9630  228.3770 C   0  0  0  0  0  0  0  0  0  0  0  0
  140.9820   70.7060  227.3140 C   0  0  0  0  0  0  0  0  0  0  0  0
  140.6290   70.4120  226.0120 C   0  0  0  0  0  0  0  0  0  0  0  0
  141.1450   71.1680  224.8400 C   0  0  0  0  0  0  0  0  0  0  0  0
  141.0670   71.5760  221.6160 N   0  0  0  0  0  0  0  0  0  0  0  0
  141.3430   72.3390  220.5560 C   0  0  0  0  0  0  0  0  0  0  0  0
  142.0120   71.7740  219.4400 N   0  0  0  0  0  0  0  0  0  0  0  0
  141.4060   70.6850  218.7250 C   0  0  0  0  0  0  0  0  0  0  0  0
  142.2920   70.1330  217.6560 C   0  0  0  0  0  0  0  0  0  0  0  0
  143.6830   70.0120  218.1620 C   0  0  0  0  0  0  0  0  0  0  0  0
  144.4740   68.9140  217.9930 C   0  0  0  0  0  0  0  0  0  0  0  0
  145.7600   68.9090  218.5090 C   0  0  0  0  0  0  0  0  0  0  0  0
  146.2680   70.0080  219.2020 C   0  0  0  0  0  0  0  0  0  0  0  0
  145.4670   71.1260  219.3750 C   0  0  0  0  0  0  0  0  0  0  0  0
  144.1930   71.1020  218.8520 C   0  0  0  0  0  0  0  0  0  0  0  0
  143.2870   72.2690  219.0060 C   0  0  0  0  0  0  0  0  0  0  0  0
  140.9810   73.6320  220.5630 N   0  0  0  0  0  0  0  0  0  0  0  0
  141.9140   76.3640  222.0110 H   0  0  0  0  0  0  0  0  0  0  0  0
  141.0651   78.5410  221.0126 H   0  0  0  0  0  0  0  0  0  0  0  0
  139.3914   77.9356  221.3594 H   0  0  0  0  0  0  0  0  0  0  0  0
  139.7840   78.1254  223.7506 H   0  0  0  0  0  0  0  0  0  0  0  0
  139.6884   80.2106  221.8093 H   0  0  0  0  0  0  0  0  0  0  0  0
  139.0982   80.2342  223.5181 H   0  0  0  0  0  0  0  0  0  0  0  0
  140.7549   82.0801  222.8974 H   0  0  0  0  0  0  0  0  0  0  0  0
  141.1944   81.1036  224.3218 H   0  0  0  0  0  0  0  0  0  0  0  0
  142.1260   80.6147  221.4558 H   0  0  0  0  0  0  0  0  0  0  0  0
  143.0918   81.3855  222.7948 H   0  0  0  0  0  0  0  0  0  0  0  0
  143.1730   78.7780  222.2000 H   0  0  0  0  0  0  0  0  0  0  0  0
  142.1306   77.5714  223.7761 H   0  0  0  0  0  0  0  0  0  0  0  0
  141.7135   79.0746  224.7053 H   0  0  0  0  0  0  0  0  0  0  0  0
  138.2191   70.9032  224.5626 H   0  0  0  0  0  0  0  0  0  0  0  0
  138.4201   70.3725  222.8956 H   0  0  0  0  0  0  0  0  0  0  0  0
  138.5847   68.3350  224.3174 H   0  0  0  0  0  0  0  0  0  0  0  0
  140.2280   68.6500  223.8045 H   0  0  0  0  0  0  0  0  0  0  0  0
  138.5373   67.7896  226.6441 H   0  0  0  0  0  0  0  0  0  0  0  0
  139.1863   68.3290  229.0096 H   0  0  0  0  0  0  0  0  0  0  0  0
  140.7629   70.2181  229.4050 H   0  0  0  0  0  0  0  0  0  0  0  0
  141.6771   71.5344  227.5157 H   0  0  0  0  0  0  0  0  0  0  0  0
  141.4030   72.1889  225.1581 H   0  0  0  0  0  0  0  0  0  0  0  0
  142.0313   70.6438  224.4531 H   0  0  0  0  0  0  0  0  0  0  0  0
  141.1734   69.8813  219.4391 H   0  0  0  0  0  0  0  0  0  0  0  0
  140.4987   71.0715  218.2378 H   0  0  0  0  0  0  0  0  0  0  0  0
  141.9258   69.1401  217.3559 H   0  0  0  0  0  0  0  0  0  0  0  0
  142.2802   70.8120  216.7907 H   0  0  0  0  0  0  0  0  0  0  0  0
  144.0930   68.0367  217.4497 H   0  0  0  0  0  0  0  0  0  0  0  0
  146.3932   68.0204  218.3694 H   0  0  0  0  0  0  0  0  0  0  0  0
  147.2910   69.9877  219.6059 H   0  0  0  0  0  0  0  0  0  0  0  0
  145.8389   72.0089  219.9156 H   0  0  0  0  0  0  0  0  0  0  0  0
  143.6944   72.9639  219.7551 H   0  0  0  0  0  0  0  0  0  0  0  0
  143.1876   72.8094  218.0530 H   0  0  0  0  0  0  0  0  0  0  0  0
  1  2  2  0
  2  3  1  0
  3  4  1  0
  4  5  1  0
  5  6  1  0
  6  7  1  0
  7  8  1  0
  8  9  1  0
  9 10  1  0
  2 11  1  0
 11 12  2  0
 12 13  1  0
 13 14  1  0
 14 15  1  0
 15 16  1  0
 16 17  1  0
 17 18  2  0
 18 19  1  0
 19 20  2  0
 20 21  1  0
 21 22  2  0
 22 23  1  0
 13 24  2  0
 24 25  1  0
 25 26  1  0
 26 27  1  0
 27 28  1  0
 28 29  1  0
 29 30  2  0
 30 31  1  0
 31 32  2  0
 32 33  1  0
 33 34  2  0
 34 35  1  0
 25 36  2  0
 10  5  1  0
 36 11  1  0
 23 14  1  0
 35 26  1  0
 22 17  1  0
 34 29  1  0
  3 37  1  0
  4 38  1  0
  4 39  1  0
  5 40  1  1
  6 41  1  0
  6 42  1  0
  7 43  1  0
  7 44  1  0
  8 45  1  0
  8 46  1  0
  9 47  1  0
 10 48  1  0
 10 49  1  0
 15 50  1  0
 15 51  1  0
 16 52  1  0
 16 53  1  0
 18 54  1  0
 19 55  1  0
 20 56  1  0
 21 57  1  0
 23 58  1  0
 23 59  1  0
 27 60  1  0
 27 61  1  0
 28 62  1  0
 28 63  1  0
 30 64  1  0
 31 65  1  0
 32 66  1  0
 33 67  1  0
 35 68  1  0
 35 69  1  0
M  END
>  <smiles>  (7) 
O=C(NCC1CCCNC1)c1nc(N2CCc3ccccc3C2)nc(N2CCc3ccccc3C2)n1

>  <score_type>  (7) 
oracle

>  <origin>  (7) 
autodockgpu

>  <m_score__min__energy>  (7) 
-10.33

>  <m_primary>  (7) 
energy

>  <rmsd>  (7) 
4.246236754332219

>  <m_score__min__rmsd>  (7) 
4.246236754332219

>  <meeko>  (7) 
{"free_energy": -10.27, "intermolecular_energy": -11.76, "internal_energy": -1.01, "cluster_size": 25, "cluster_id": 1, "rank_in_cluster": 2}

>  <energy>  (7) 
-9.94

>  <cluster_rmsd>  (7) 
1.01

>  <cluster>  (7) 
1

$$$$

     RDKit          3D

 69 74  0  0  0  0  0  0  0  0999 V2000
  141.4600   77.6420  220.6470 O   0  0  0  0  0  0  0  0  0  0  0  0
  140.9410   76.7690  221.4020 C   0  0  0  0  0  0  0  0  0  0  0  0
  139.9730   77.2500  222.3350 N   0  0  0  0  0  0  0  0  0  0  0  0
  139.6970   78.6700  222.3130 C   0  0  0  0  0  0  0  0  0  0  0  0
  140.2790   79.3730  223.5200 C   0  0  2  0  0  0  0  0  0  0  0  0
  140.3640   80.8380  223.2030 C   0  0  0  0  0  0  0  0  0  0  0  0
  141.8070   81.3190  223.2280 C   0  0  0  0  0  0  0  0  0  0  0  0
  142.6180   80.3610  222.4000 C   0  0  0  0  0  0  0  0  0  0  0  0
  142.6150   79.0270  222.9290 N   0  0  0  0  0  0  0  0  0  0  0  0
  141.6070   78.8110  223.9290 C   0  0  0  0  0  0  0  0  0  0  0  0
  141.3100   75.3720  221.3190 C   0  0  0  0  0  0  0  0  0  0  0  0
  140.6240   74.4220  221.9850 N   0  0  0  0  0  0  0  0  0  0  0  0
  141.0160   73.1250  221.8700 C   0  0  0  0  0  0  0  0  0  0  0  0
  140.3350   72.0700  222.5480 N   0  0  0  0  0  0  0  0  0  0  0  0
  139.0250   71.5850  222.1030 C   0  0  0  0  0  0  0  0  0  0  0  0
  139.1190   70.0590  222.2250 C   0  0  0  0  0  0  0  0  0  0  0  0
  139.1170   69.8390  223.7170 C   0  0  0  0  0  0  0  0  0  0  0  0
  138.2310   68.9680  224.3150 C   0  0  0  0  0  0  0  0  0  0  0  0
  138.2610   68.7930  225.6950 C   0  0  0  0  0  0  0  0  0  0  0  0
  139.1980   69.5160  226.4180 C   0  0  0  0  0  0  0  0  0  0  0  0
  140.0860   70.3920  225.7910 C   0  0  0  0  0  0  0  0  0  0  0  0
  140.0560   70.5650  224.4220 C   0  0  0  0  0  0  0  0  0  0  0  0
  140.9740   71.4840  223.6990 C   0  0  0  0  0  0  0  0  0  0  0  0
  142.0730   72.7980  221.1030 N   0  0  0  0  0  0  0  0  0  0  0  0
  142.7460   73.7470  220.4480 C   0  0  0  0  0  0  0  0  0  0  0  0
  143.8580   73.3890  219.6420 N   0  0  0  0  0  0  0  0  0  0  0  0
  144.0070   73.9730  218.3390 C   0  0  0  0  0  0  0  0  0  0  0  0
  145.1610   73.4020  217.5800 C   0  0  0  0  0  0  0  0  0  0  0  0
  145.1970   71.9270  217.7460 C   0  0  0  0  0  0  0  0  0  0  0  0
  145.3770   71.0380  216.7270 C   0  0  0  0  0  0  0  0  0  0  0  0
  145.3940   69.6790  216.9960 C   0  0  0  0  0  0  0  0  0  0  0  0
  145.2300   69.1950  218.2940 C   0  0  0  0  0  0  0  0  0  0  0  0
  145.0470   70.0950  219.3330 C   0  0  0  0  0  0  0  0  0  0  0  0
  145.0350   71.4400  219.0350 C   0  0  0  0  0  0  0  0  0  0  0  0
  144.8430   72.4520  220.1040 C   0  0  0  0  0  0  0  0  0  0  0  0
  142.3580   75.0270  220.5620 N   0  0  0  0  0  0  0  0  0  0  0  0
  139.5170   76.5730  222.9790 H   0  0  0  0  0  0  0  0  0  0  0  0
  140.1352   79.1041  221.4022 H   0  0  0  0  0  0  0  0  0  0  0  0
  138.6057   78.8071  222.3300 H   0  0  0  0  0  0  0  0  0  0  0  0
  139.6215   79.2124  224.3872 H   0  0  0  0  0  0  0  0  0  0  0  0
  139.9435   81.0143  222.2020 H   0  0  0  0  0  0  0  0  0  0  0  0
  139.7962   81.3943  223.9633 H   0  0  0  0  0  0  0  0  0  0  0  0
  141.8727   82.3314  222.8028 H   0  0  0  0  0  0  0  0  0  0  0  0
  142.1853   81.3547  224.2603 H   0  0  0  0  0  0  0  0  0  0  0  0
  142.2011   80.3363  221.3824 H   0  0  0  0  0  0  0  0  0  0  0  0
  143.6587   80.7171  222.4066 H   0  0  0  0  0  0  0  0  0  0  0  0
  142.5660   78.2820  222.2030 H   0  0  0  0  0  0  0  0  0  0  0  0
  141.4984   77.7291  224.0956 H   0  0  0  0  0  0  0  0  0  0  0  0
  141.9248   79.3258  224.8477 H   0  0  0  0  0  0  0  0  0  0  0  0
  138.2252   71.9781  222.7478 H   0  0  0  0  0  0  0  0  0  0  0  0
  138.7845   71.9089  221.0796 H   0  0  0  0  0  0  0  0  0  0  0  0
  138.2546   69.5702  221.7518 H   0  0  0  0  0  0  0  0  0  0  0  0
  140.0034   69.6371  221.7251 H   0  0  0  0  0  0  0  0  0  0  0  0
  137.5036   68.4139  223.7037 H   0  0  0  0  0  0  0  0  0  0  0  0
  137.5648   68.1042  226.1958 H   0  0  0  0  0  0  0  0  0  0  0  0
  139.2425   69.3965  227.5106 H   0  0  0  0  0  0  0  0  0  0  0  0
  140.8171   70.9501  226.3943 H   0  0  0  0  0  0  0  0  0  0  0  0
  141.2867   72.2875  224.3821 H   0  0  0  0  0  0  0  0  0  0  0  0
  141.8425   70.9038  223.3539 H   0  0  0  0  0  0  0  0  0  0  0  0
  143.0855   73.7941  217.7656 H   0  0  0  0  0  0  0  0  0  0  0  0
  144.1983   75.0475  218.4762 H   0  0  0  0  0  0  0  0  0  0  0  0
  145.0519   73.6461  216.5130 H   0  0  0  0  0  0  0  0  0  0  0  0
  146.0965   73.8322  217.9670 H   0  0  0  0  0  0  0  0  0  0  0  0
  145.5081   71.3987  215.6961 H   0  0  0  0  0  0  0  0  0  0  0  0
  145.5397   68.9676  216.1697 H   0  0  0  0  0  0  0  0  0  0  0  0
  145.2456   68.1129  218.4909 H   0  0  0  0  0  0  0  0  0  0  0  0
  144.9150   69.7444  220.3672 H   0  0  0  0  0  0  0  0  0  0  0  0
  144.4928   71.9631  221.0250 H   0  0  0  0  0  0  0  0  0  0  0  0
  145.7906   72.9649  220.3255 H   0  0  0  0  0  0  0  0  0  0  0  0
  1  2  2  0
  2  3  1  0
  3  4  1  0
  4  5  1  0
  5  6  1  0
  6  7  1  0
  7  8  1  0
  8  9  1  0
  9 10  1  0
  2 11  1  0
 11 12  2  0
 12 13  1  0
 13 14  1  0
 14 15  1  0
 15 16  1  0
 16 17  1  0
 17 18  2  0
 18 19  1  0
 19 20  2  0
 20 21  1  0
 21 22  2  0
 22 23  1  0
 13 24  2  0
 24 25  1  0
 25 26  1  0
 26 27  1  0
 27 28  1  0
 28 29  1  0
 29 30  2  0
 30 31  1  0
 31 32  2  0
 32 33  1  0
 33 34  2  0
 34 35  1  0
 25 36  2  0
 10  5  1  0
 36 11  1  0
 23 14  1  0
 35 26  1  0
 22 17  1  0
 34 29  1  0
  3 37  1  0
  4 38  1  0
  4 39  1  0
  5 40  1  1
  6 41  1  0
  6 42  1  0
  7 43  1  0
  7 44  1  0
  8 45  1  0
  8 46  1  0
  9 47  1  0
 10 48  1  0
 10 49  1  0
 15 50  1  0
 15 51  1  0
 16 52  1  0
 16 53  1  0
 18 54  1  0
 19 55  1  0
 20 56  1  0
 21 57  1  0
 23 58  1  0
 23 59  1  0
 27 60  1  0
 27 61  1  0
 28 62  1  0
 28 63  1  0
 30 64  1  0
 31 65  1  0
 32 66  1  0
 33 67  1  0
 35 68  1  0
 35 69  1  0
M  END
>  <smiles>  (8) 
O=C(NCC1CCCNC1)c1nc(N2CCc3ccccc3C2)nc(N2CCc3ccccc3C2)n1

>  <score_type>  (8) 
oracle

>  <origin>  (8) 
autodockgpu

>  <m_score__min__energy>  (8) 
-10.33

>  <m_primary>  (8) 
energy

>  <rmsd>  (8) 
4.8016958985099025

>  <m_score__min__rmsd>  (8) 
4.8016958985099025

>  <meeko>  (8) 
{"free_energy": -8.84, "intermolecular_energy": -10.34, "internal_energy": -1.97, "cluster_size": 25, "cluster_id": 1, "rank_in_cluster": 23}

>  <energy>  (8) 
-9.93

>  <cluster_rmsd>  (8) 
1.19

>  <cluster>  (8) 
1

$$$$

     RDKit          3D

 69 74  0  0  0  0  0  0  0  0999 V2000
  138.6010   76.3640  222.1320 O   0  0  0  0  0  0  0  0  0  0  0  0
  139.8230   76.0830  221.9610 C   0  0  0  0  0  0  0  0  0  0  0  0
  140.7180   77.1960  221.9220 N   0  0  0  0  0  0  0  0  0  0  0  0
  140.1310   78.5090  222.0790 C   0  0  0  0  0  0  0  0  0  0  0  0
  140.5110   79.1390  223.4010 C   0  0  2  0  0  0  0  0  0  0  0  0
  140.4570   80.6290  223.2330 C   0  0  0  0  0  0  0  0  0  0  0  0
  141.8270   81.2530  223.4560 C   0  0  0  0  0  0  0  0  0  0  0  0
  142.8170   80.4770  222.6320 C   0  0  0  0  0  0  0  0  0  0  0  0
  142.9170   79.1030  223.0300 N   0  0  0  0  0  0  0  0  0  0  0  0
  141.8510   78.6790  223.8930 C   0  0  0  0  0  0  0  0  0  0  0  0
  140.2790   74.7170  221.8170 C   0  0  0  0  0  0  0  0  0  0  0  0
  139.9520   73.7660  222.7150 N   0  0  0  0  0  0  0  0  0  0  0  0
  140.4080   72.5000  222.5280 C   0  0  0  0  0  0  0  0  0  0  0  0
  140.0990   71.4460  223.4400 N   0  0  0  0  0  0  0  0  0  0  0  0
  138.8430   70.6940  223.3550 C   0  0  0  0  0  0  0  0  0  0  0  0
  139.2520   69.2360  223.5940 C   0  0  0  0  0  0  0  0  0  0  0  0
  139.6040   69.2210  225.0610 C   0  0  0  0  0  0  0  0  0  0  0  0
  139.0480   68.3030  225.9260 C   0  0  0  0  0  0  0  0  0  0  0  0
  139.3990   68.3210  227.2720 C   0  0  0  0  0  0  0  0  0  0  0  0
  140.3090   69.2800  227.6890 C   0  0  0  0  0  0  0  0  0  0  0  0
  140.8610   70.2000  226.7960 C   0  0  0  0  0  0  0  0  0  0  0  0
  140.5130   70.1810  225.4600 C   0  0  0  0  0  0  0  0  0  0  0  0
  141.0660   71.1350  224.4630 C   0  0  0  0  0  0  0  0  0  0  0  0
  141.1740   72.2010  221.4620 N   0  0  0  0  0  0  0  0  0  0  0  0
  141.4920   73.1500  220.5790 C   0  0  0  0  0  0  0  0  0  0  0  0
  142.3010   72.8230  219.4590 N   0  0  0  0  0  0  0  0  0  0  0  0
  141.7240   72.1200  218.3480 C   0  0  0  0  0  0  0  0  0  0  0  0
  142.7340   71.7520  217.3100 C   0  0  0  0  0  0  0  0  0  0  0  0
  143.9650   71.2380  217.9610 C   0  0  0  0  0  0  0  0  0  0  0  0
  144.6310   70.1120  217.5750 C   0  0  0  0  0  0  0  0  0  0  0  0
  145.7740   69.7220  218.2560 C   0  0  0  0  0  0  0  0  0  0  0  0
  146.2610   70.4600  219.3350 C   0  0  0  0  0  0  0  0  0  0  0  0
  145.5870   71.6050  219.7300 C   0  0  0  0  0  0  0  0  0  0  0  0
  144.4550   71.9670  219.0350 C   0  0  0  0  0  0  0  0  0  0  0  0
  143.6900   73.1830  219.4110 C   0  0  0  0  0  0  0  0  0  0  0  0
  141.0420   74.4010  220.7630 N   0  0  0  0  0  0  0  0  0  0  0  0
  141.7330   77.0190  221.7830 H   0  0  0  0  0  0  0  0  0  0  0  0
  140.4823   79.1563  221.2619 H   0  0  0  0  0  0  0  0  0  0  0  0
  139.0367   78.3999  222.0538 H   0  0  0  0  0  0  0  0  0  0  0  0
  139.7972   78.8212  224.1753 H   0  0  0  0  0  0  0  0  0  0  0  0
  140.1163   80.8640  222.2138 H   0  0  0  0  0  0  0  0  0  0  0  0
  139.7592   81.0405  223.9771 H   0  0  0  0  0  0  0  0  0  0  0  0
  141.8165   82.3058  223.1372 H   0  0  0  0  0  0  0  0  0  0  0  0
  142.0991   81.2195  224.5213 H   0  0  0  0  0  0  0  0  0  0  0  0
  142.5037   80.5155  221.5783 H   0  0  0  0  0  0  0  0  0  0  0  0
  143.8047   80.9374  222.7818 H   0  0  0  0  0  0  0  0  0  0  0  0
  143.0230   78.4360  222.2370 H   0  0  0  0  0  0  0  0  0  0  0  0
  141.8520   77.5802  223.9446 H   0  0  0  0  0  0  0  0  0  0  0  0
  142.0196   79.1249  224.8843 H   0  0  0  0  0  0  0  0  0  0  0  0
  138.1351   71.0308  224.1267 H   0  0  0  0  0  0  0  0  0  0  0  0
  138.3365   70.8334  222.3886 H   0  0  0  0  0  0  0  0  0  0  0  0
  138.4184   68.5509  223.3800 H   0  0  0  0  0  0  0  0  0  0  0  0
  140.0766   68.9043  222.9459 H   0  0  0  0  0  0  0  0  0  0  0  0
  138.3291   67.5586  225.5532 H   0  0  0  0  0  0  0  0  0  0  0  0
  138.9690   67.5987  227.9815 H   0  0  0  0  0  0  0  0  0  0  0  0
  140.6030   69.3169  228.7483 H   0  0  0  0  0  0  0  0  0  0  0  0
  141.5807   70.9478  227.1605 H   0  0  0  0  0  0  0  0  0  0  0  0
  141.3538   72.0636  224.9776 H   0  0  0  0  0  0  0  0  0  0  0  0
  141.9389   70.6677  223.9837 H   0  0  0  0  0  0  0  0  0  0  0  0
  141.2517   71.1993  218.7213 H   0  0  0  0  0  0  0  0  0  0  0  0
  140.9914   72.7907  217.8752 H   0  0  0  0  0  0  0  0  0  0  0  0
  142.3161   70.9737  216.6546 H   0  0  0  0  0  0  0  0  0  0  0  0
  142.9841   72.6438  216.7166 H   0  0  0  0  0  0  0  0  0  0  0  0
  144.2628   69.5159  216.7270 H   0  0  0  0  0  0  0  0  0  0  0  0
  146.3070   68.8133  217.9394 H   0  0  0  0  0  0  0  0  0  0  0  0
  147.1688   70.1372  219.8659 H   0  0  0  0  0  0  0  0  0  0  0  0
  145.9470   72.2084  220.5763 H   0  0  0  0  0  0  0  0  0  0  0  0
  144.0186   73.5432  220.3970 H   0  0  0  0  0  0  0  0  0  0  0  0
  143.8563   73.9865  218.6784 H   0  0  0  0  0  0  0  0  0  0  0  0
  1  2  2  0
  2  3  1  0
  3  4  1  0
  4  5  1  0
  5  6  1  0
  6  7  1  0
  7  8  1  0
  8  9  1  0
  9 10  1  0
  2 11  1  0
 11 12  2  0
 12 13  1  0
 13 14  1  0
 14 15  1  0
 15 16  1  0
 16 17  1  0
 17 18  2  0
 18 19  1  0
 19 20  2  0
 20 21  1  0
 21 22  2  0
 22 23  1  0
 13 24  2  0
 24 25  1  0
 25 26  1  0
 26 27  1  0
 27 28  1  0
 28 29  1  0
 29 30  2  0
 30 31  1  0
 31 32  2  0
 32 33  1  0
 33 34  2  0
 34 35  1  0
 25 36  2  0
 10  5  1  0
 36 11  1  0
 23 14  1  0
 35 26  1  0
 22 17  1  0
 34 29  1  0
  3 37  1  0
  4 38  1  0
  4 39  1  0
  5 40  1  1
  6 41  1  0
  6 42  1  0
  7 43  1  0
  7 44  1  0
  8 45  1  0
  8 46  1  0
  9 47  1  0
 10 48  1  0
 10 49  1  0
 15 50  1  0
 15 51  1  0
 16 52  1  0
 16 53  1  0
 18 54  1  0
 19 55  1  0
 20 56  1  0
 21 57  1  0
 23 58  1  0
 23 59  1  0
 27 60  1  0
 27 61  1  0
 28 62  1  0
 28 63  1  0
 30 64  1  0
 31 65  1  0
 32 66  1  0
 33 67  1  0
 35 68  1  0
 35 69  1  0
M  END
>  <smiles>  (9) 
O=C(NCC1CCCNC1)c1nc(N2CCc3ccccc3C2)nc(N2CCc3ccccc3C2)n1

>  <score_type>  (9) 
oracle

>  <origin>  (9) 
autodockgpu

>  <m_score__min__energy>  (9) 
-10.33

>  <m_primary>  (9) 
energy

>  <rmsd>  (9) 
4.618195475990986

>  <m_score__min__rmsd>  (9) 
4.618195475990986

>  <meeko>  (9) 
{"free_energy": -9.93, "intermolecular_energy": -11.42, "internal_energy": -1.22, "cluster_size": 25, "cluster_id": 1, "rank_in_cluster": 8}

>  <energy>  (9) 
-9.89

>  <cluster_rmsd>  (9) 
1.15

>  <cluster>  (9) 
1

$$$$

     RDKit          3D

 69 74  0  0  0  0  0  0  0  0999 V2000
  140.3330   69.9780  218.9030 O   0  0  0  0  0  0  0  0  0  0  0  0
  141.2100   70.1980  219.7880 C   0  0  0  0  0  0  0  0  0  0  0  0
  142.3710   69.3670  219.7320 N   0  0  0  0  0  0  0  0  0  0  0  0
  142.4130   68.3770  218.6780 C   0  0  0  0  0  0  0  0  0  0  0  0
  143.7150   68.4300  217.9100 C   0  0  2  0  0  0  0  0  0  0  0  0
  144.2190   67.0240  217.7600 C   0  0  0  0  0  0  0  0  0  0  0  0
  145.5620   66.8500  218.4520 C   0  0  0  0  0  0  0  0  0  0  0  0
  145.4350   67.4190  219.8380 C   0  0  0  0  0  0  0  0  0  0  0  0
  145.1460   68.8240  219.8390 N   0  0  0  0  0  0  0  0  0  0  0  0
  144.7300   69.3230  218.5590 C   0  0  0  0  0  0  0  0  0  0  0  0
  141.0420   71.2270  220.7910 C   0  0  0  0  0  0  0  0  0  0  0  0
  141.2170   72.5310  220.4990 N   0  0  0  0  0  0  0  0  0  0  0  0
  141.0440   73.4550  221.4810 C   0  0  0  0  0  0  0  0  0  0  0  0
  141.2140   74.8510  221.2400 N   0  0  0  0  0  0  0  0  0  0  0  0
  142.1200   75.3510  220.2010 C   0  0  0  0  0  0  0  0  0  0  0  0
  141.3460   76.4960  219.5370 C   0  0  0  0  0  0  0  0  0  0  0  0
  141.3580   77.5700  220.5970 C   0  0  0  0  0  0  0  0  0  0  0  0
  141.7870   78.8500  220.3210 C   0  0  0  0  0  0  0  0  0  0  0  0
  141.7820   79.8120  221.3260 C   0  0  0  0  0  0  0  0  0  0  0  0
  141.3370   79.4310  222.5820 C   0  0  0  0  0  0  0  0  0  0  0  0
  140.9050   78.1280  222.8400 C   0  0  0  0  0  0  0  0  0  0  0  0
  140.9110   77.1750  221.8420 C   0  0  0  0  0  0  0  0  0  0  0  0
  140.4640   75.7730  222.0560 C   0  0  0  0  0  0  0  0  0  0  0  0
  140.7040   73.0710  222.7260 N   0  0  0  0  0  0  0  0  0  0  0  0
  140.5340   71.7760  223.0050 C   0  0  0  0  0  0  0  0  0  0  0  0
  140.1750   71.3840  224.3210 N   0  0  0  0  0  0  0  0  0  0  0  0
  140.8890   71.9260  225.4430 C   0  0  0  0  0  0  0  0  0  0  0  0
  140.4660   71.3210  226.7420 C   0  0  0  0  0  0  0  0  0  0  0  0
  140.3150   69.8520  226.5930 C   0  0  0  0  0  0  0  0  0  0  0  0
  140.8070   68.9300  227.4700 C   0  0  0  0  0  0  0  0  0  0  0  0
  140.6070   67.5800  227.2310 C   0  0  0  0  0  0  0  0  0  0  0  0
  139.9100   67.1380  226.1070 C   0  0  0  0  0  0  0  0  0  0  0  0
  139.4070   68.0710  225.2130 C   0  0  0  0  0  0  0  0  0  0  0  0
  139.6210   69.4060  225.4760 C   0  0  0  0  0  0  0  0  0  0  0  0
  139.1080   70.4530  224.5570 C   0  0  0  0  0  0  0  0  0  0  0  0
  140.7040   70.8650  222.0350 N   0  0  0  0  0  0  0  0  0  0  0  0
  143.1230   69.5060  220.4370 H   0  0  0  0  0  0  0  0  0  0  0  0
  142.3028   67.3774  219.1237 H   0  0  0  0  0  0  0  0  0  0  0  0
  141.5929   68.5893  217.9763 H   0  0  0  0  0  0  0  0  0  0  0  0
  143.5361   68.8734  216.9193 H   0  0  0  0  0  0  0  0  0  0  0  0
  143.4912   66.3312  218.2076 H   0  0  0  0  0  0  0  0  0  0  0  0
  144.3463   66.8097  216.6886 H   0  0  0  0  0  0  0  0  0  0  0  0
  145.8204   65.7822  218.5069 H   0  0  0  0  0  0  0  0  0  0  0  0
  146.3553   67.3674  217.8926 H   0  0  0  0  0  0  0  0  0  0  0  0
  144.6225   66.8929  220.3605 H   0  0  0  0  0  0  0  0  0  0  0  0
  146.4026   67.2801  220.3424 H   0  0  0  0  0  0  0  0  0  0  0  0
  144.4730   69.1200  220.5760 H   0  0  0  0  0  0  0  0  0  0  0  0
  144.2896   70.3220  218.6935 H   0  0  0  0  0  0  0  0  0  0  0  0
  145.6145   69.3622  217.9062 H   0  0  0  0  0  0  0  0  0  0  0  0
  143.0558   75.7205  220.6458 H   0  0  0  0  0  0  0  0  0  0  0  0
  142.4070   74.5682  219.4835 H   0  0  0  0  0  0  0  0  0  0  0  0
  141.8520   76.8374  218.6219 H   0  0  0  0  0  0  0  0  0  0  0  0
  140.3323   76.2091  219.2206 H   0  0  0  0  0  0  0  0  0  0  0  0
  142.1322   79.1103  219.3095 H   0  0  0  0  0  0  0  0  0  0  0  0
  142.1199   80.8404  221.1303 H   0  0  0  0  0  0  0  0  0  0  0  0
  141.3237   80.1721  223.3948 H   0  0  0  0  0  0  0  0  0  0  0  0
  140.5567   77.8590  223.8481 H   0  0  0  0  0  0  0  0  0  0  0  0
  140.6050   75.5101  223.1148 H   0  0  0  0  0  0  0  0  0  0  0  0
  139.4033   75.7011  221.7737 H   0  0  0  0  0  0  0  0  0  0  0  0
  141.9634   71.7381  225.3005 H   0  0  0  0  0  0  0  0  0  0  0  0
  140.6671   73.0024  225.4897 H   0  0  0  0  0  0  0  0  0  0  0  0
  141.2270   71.5331  227.5075 H   0  0  0  0  0  0  0  0  0  0  0  0
  139.5012   71.7541  227.0447 H   0  0  0  0  0  0  0  0  0  0  0  0
  141.3600   69.2570  228.3629 H   0  0  0  0  0  0  0  0  0  0  0  0
  141.0061   66.8419  227.9423 H   0  0  0  0  0  0  0  0  0  0  0  0
  139.7610   66.0623  225.9317 H   0  0  0  0  0  0  0  0  0  0  0  0
  138.8520   67.7535  224.3179 H   0  0  0  0  0  0  0  0  0  0  0  0
  138.7916   69.9965  223.6075 H   0  0  0  0  0  0  0  0  0  0  0  0
  138.2402   70.9640  224.9995 H   0  0  0  0  0  0  0  0  0  0  0  0
  1  2  2  0
  2  3  1  0
  3  4  1  0
  4  5  1  0
  5  6  1  0
  6  7  1  0
  7  8  1  0
  8  9  1  0
  9 10  1  0
  2 11  1  0
 11 12  2  0
 12 13  1  0
 13 14  1  0
 14 15  1  0
 15 16  1  0
 16 17  1  0
 17 18  2  0
 18 19  1  0
 19 20  2  0
 20 21  1  0
 21 22  2  0
 22 23  1  0
 13 24  2  0
 24 25  1  0
 25 26  1  0
 26 27  1  0
 27 28  1  0
 28 29  1  0
 29 30  2  0
 30 31  1  0
 31 32  2  0
 32 33  1  0
 33 34  2  0
 34 35  1  0
 25 36  2  0
 10  5  1  0
 36 11  1  0
 23 14  1  0
 35 26  1  0
 22 17  1  0
 34 29  1  0
  3 37  1  0
  4 38  1  0
  4 39  1  0
  5 40  1  6
  6 41  1  0
  6 42  1  0
  7 43  1  0
  7 44  1  0
  8 45  1  0
  8 46  1  0
  9 47  1  0
 10 48  1  0
 10 49  1  0
 15 50  1  0
 15 51  1  0
 16 52  1  0
 16 53  1  0
 18 54  1  0
 19 55  1  0
 20 56  1  0
 21 57  1  0
 23 58  1  0
 23 59  1  0
 27 60  1  0
 27 61  1  0
 28 62  1  0
 28 63  1  0
 30 64  1  0
 31 65  1  0
 32 66  1  0
 33 67  1  0
 35 68  1  0
 35 69  1  0
M  END
>  <smiles>  (10) 
O=C(NCC1CCCNC1)c1nc(N2CCc3ccccc3C2)nc(N2CCc3ccccc3C2)n1

>  <score_type>  (10) 
oracle

>  <origin>  (10) 
autodockgpu

>  <m_score__min__energy>  (10) 
-10.33

>  <m_primary>  (10) 
energy

>  <rmsd>  (10) 
8.751207566299415

>  <m_score__min__rmsd>  (10) 
8.751207566299415

>  <meeko>  (10) 
{"free_energy": -9.36, "intermolecular_energy": -10.85, "internal_energy": -1.55, "cluster_size": 5, "cluster_id": 4, "rank_in_cluster": 1}

>  <energy>  (10) 
-9.84

>  <cluster_rmsd>  (10) 
1.22

>  <cluster>  (10) 
1

$$$$

     RDKit          3D

 69 74  0  0  0  0  0  0  0  0999 V2000
  141.5370   77.6880  220.6430 O   0  0  0  0  0  0  0  0  0  0  0  0
  140.9600   76.8260  221.3680 C   0  0  0  0  0  0  0  0  0  0  0  0
  139.9550   77.3290  222.2500 N   0  0  0  0  0  0  0  0  0  0  0  0
  139.7120   78.7550  222.2150 C   0  0  0  0  0  0  0  0  0  0  0  0
  140.2420   79.4450  223.4530 C   0  0  2  0  0  0  0  0  0  0  0  0
  140.3870   80.9060  223.1390 C   0  0  0  0  0  0  0  0  0  0  0  0
  141.8400   81.3450  223.2490 C   0  0  0  0  0  0  0  0  0  0  0  0
  142.6710   80.3610  222.4730 C   0  0  0  0  0  0  0  0  0  0  0  0
  142.5980   79.0300  223.0020 N   0  0  0  0  0  0  0  0  0  0  0  0
  141.5270   78.8460  223.9400 C   0  0  0  0  0  0  0  0  0  0  0  0
  141.3030   75.4220  221.3040 C   0  0  0  0  0  0  0  0  0  0  0  0
  140.5870   74.4910  221.9670 N   0  0  0  0  0  0  0  0  0  0  0  0
  140.9540   73.1860  221.8700 C   0  0  0  0  0  0  0  0  0  0  0  0
  140.2410   72.1510  222.5450 N   0  0  0  0  0  0  0  0  0  0  0  0
  138.8740   71.7790  222.1640 C   0  0  0  0  0  0  0  0  0  0  0  0
  138.8650   70.2470  222.2160 C   0  0  0  0  0  0  0  0  0  0  0  0
  138.9370   69.9600  223.6950 C   0  0  0  0  0  0  0  0  0  0  0  0
  138.0290   69.1260  224.3120 C   0  0  0  0  0  0  0  0  0  0  0  0
  138.1290   68.8860  225.6780 C   0  0  0  0  0  0  0  0  0  0  0  0
  139.1580   69.5070  226.3700 C   0  0  0  0  0  0  0  0  0  0  0  0
  140.0670   70.3480  225.7250 C   0  0  0  0  0  0  0  0  0  0  0  0
  139.9670   70.5850  224.3690 C   0  0  0  0  0  0  0  0  0  0  0  0
  140.9040   71.4700  223.6280 C   0  0  0  0  0  0  0  0  0  0  0  0
  142.0160   72.8310  221.1230 N   0  0  0  0  0  0  0  0  0  0  0  0
  142.7190   73.7600  220.4710 C   0  0  0  0  0  0  0  0  0  0  0  0
  143.8370   73.3730  219.6870 N   0  0  0  0  0  0  0  0  0  0  0  0
  144.0430   73.9740  218.4000 C   0  0  0  0  0  0  0  0  0  0  0  0
  145.1930   73.3720  217.6590 C   0  0  0  0  0  0  0  0  0  0  0  0
  145.1670   71.8940  217.7980 C   0  0  0  0  0  0  0  0  0  0  0  0
  145.3380   71.0180  216.7660 C   0  0  0  0  0  0  0  0  0  0  0  0
  145.2940   69.6540  217.0100 C   0  0  0  0  0  0  0  0  0  0  0  0
  145.0760   69.1530  218.2930 C   0  0  0  0  0  0  0  0  0  0  0  0
  144.9020   70.0410  219.3440 C   0  0  0  0  0  0  0  0  0  0  0  0
  144.9510   71.3900  219.0720 C   0  0  0  0  0  0  0  0  0  0  0  0
  144.7710   72.3890  220.1560 C   0  0  0  0  0  0  0  0  0  0  0  0
  142.3560   75.0490  220.5670 N   0  0  0  0  0  0  0  0  0  0  0  0
  139.4510   76.6620  222.8690 H   0  0  0  0  0  0  0  0  0  0  0  0
  140.2091   79.1794  221.3302 H   0  0  0  0  0  0  0  0  0  0  0  0
  138.6247   78.9160  222.1724 H   0  0  0  0  0  0  0  0  0  0  0  0
  139.5309   79.3065  224.2807 H   0  0  0  0  0  0  0  0  0  0  0  0
  140.0318   81.0909  222.1145 H   0  0  0  0  0  0  0  0  0  0  0  0
  139.7910   81.4812  223.8628 H   0  0  0  0  0  0  0  0  0  0  0  0
  141.9604   82.3534  222.8264 H   0  0  0  0  0  0  0  0  0  0  0  0
  142.1569   81.3733  224.3020 H   0  0  0  0  0  0  0  0  0  0  0  0
  142.3155   80.3451  221.4322 H   0  0  0  0  0  0  0  0  0  0  0  0
  143.7193   80.6869  222.5423 H   0  0  0  0  0  0  0  0  0  0  0  0
  142.5710   78.2840  222.2760 H   0  0  0  0  0  0  0  0  0  0  0  0
  141.3775   77.7681  224.1007 H   0  0  0  0  0  0  0  0  0  0  0  0
  141.8047   79.3541  224.8753 H   0  0  0  0  0  0  0  0  0  0  0  0
  138.1451   72.1965  222.8742 H   0  0  0  0  0  0  0  0  0  0  0  0
  138.5960   72.1657  221.1724 H   0  0  0  0  0  0  0  0  0  0  0  0
  137.9407   69.8415  221.7787 H   0  0  0  0  0  0  0  0  0  0  0  0
  139.6847   69.7880  221.6439 H   0  0  0  0  0  0  0  0  0  0  0  0
  137.2281   68.6520  223.7256 H   0  0  0  0  0  0  0  0  0  0  0  0
  137.4156   68.2255  226.1926 H   0  0  0  0  0  0  0  0  0  0  0  0
  139.2604   69.3331  227.4513 H   0  0  0  0  0  0  0  0  0  0  0  0
  140.8710   70.8265  226.3035 H   0  0  0  0  0  0  0  0  0  0  0  0
  141.3145   72.2177  224.3226 H   0  0  0  0  0  0  0  0  0  0  0  0
  141.7060   70.8471  223.2050 H   0  0  0  0  0  0  0  0  0  0  0  0
  143.1304   73.8424  217.8002 H   0  0  0  0  0  0  0  0  0  0  0  0
  144.2732   75.0372  218.5631 H   0  0  0  0  0  0  0  0  0  0  0  0
  145.1208   73.6393  216.5944 H   0  0  0  0  0  0  0  0  0  0  0  0
  146.1344   73.7581  218.0768 H   0  0  0  0  0  0  0  0  0  0  0  0
  145.5098   71.3920  215.7459 H   0  0  0  0  0  0  0  0  0  0  0  0
  145.4339   68.9525  216.1743 H   0  0  0  0  0  0  0  0  0  0  0  0
  145.0425   68.0677  218.4691 H   0  0  0  0  0  0  0  0  0  0  0  0
  144.7294   69.6774  220.3677 H   0  0  0  0  0  0  0  0  0  0  0  0
  144.3771   71.8974  221.0578 H   0  0  0  0  0  0  0  0  0  0  0  0
  145.7319   72.8590  220.4124 H   0  0  0  0  0  0  0  0  0  0  0  0
  1  2  2  0
  2  3  1  0
  3  4  1  0
  4  5  1  0
  5  6  1  0
  6  7  1  0
  7  8  1  0
  8  9  1  0
  9 10  1  0
  2 11  1  0
 11 12  2  0
 12 13  1  0
 13 14  1  0
 14 15  1  0
 15 16  1  0
 16 17  1  0
 17 18  2  0
 18 19  1  0
 19 20  2  0
 20 21  1  0
 21 22  2  0
 22 23  1  0
 13 24  2  0
 24 25  1  0
 25 26  1  0
 26 27  1  0
 27 28  1  0
 28 29  1  0
 29 30  2  0
 30 31  1  0
 31 32  2  0
 32 33  1  0
 33 34  2  0
 34 35  1  0
 25 36  2  0
 10  5  1  0
 36 11  1  0
 23 14  1  0
 35 26  1  0
 22 17  1  0
 34 29  1  0
  3 37  1  0
  4 38  1  0
  4 39  1  0
  5 40  1  1
  6 41  1  0
  6 42  1  0
  7 43  1  0
  7 44  1  0
  8 45  1  0
  8 46  1  0
  9 47  1  0
 10 48  1  0
 10 49  1  0
 15 50  1  0
 15 51  1  0
 16 52  1  0
 16 53  1  0
 18 54  1  0
 19 55  1  0
 20 56  1  0
 21 57  1  0
 23 58  1  0
 23 59  1  0
 27 60  1  0
 27 61  1  0
 28 62  1  0
 28 63  1  0
 30 64  1  0
 31 65  1  0
 32 66  1  0
 33 67  1  0
 35 68  1  0
 35 69  1  0
M  END
>  <smiles>  (11) 
O=C(NCC1CCCNC1)c1nc(N2CCc3ccccc3C2)nc(N2CCc3ccccc3C2)n1

>  <score_type>  (11) 
oracle

>  <origin>  (11) 
autodockgpu

>  <m_score__min__energy>  (11) 
-10.33

>  <m_primary>  (11) 
energy

>  <rmsd>  (11) 
4.802255277422351

>  <m_score__min__rmsd>  (11) 
4.802255277422351

>  <meeko>  (11) 
{"free_energy": -8.8, "intermolecular_energy": -10.29, "internal_energy": -1.98, "cluster_size": 25, "cluster_id": 1, "rank_in_cluster": 24}

>  <energy>  (11) 
-9.62

>  <cluster_rmsd>  (11) 
1.8

>  <cluster>  (11) 
1

$$$$

     RDKit          3D

 69 74  0  0  0  0  0  0  0  0999 V2000
  139.0640   75.9770  221.7390 O   0  0  0  0  0  0  0  0  0  0  0  0
  140.2430   75.5490  221.5770 C   0  0  0  0  0  0  0  0  0  0  0  0
  141.2420   76.5460  221.3570 N   0  0  0  0  0  0  0  0  0  0  0  0
  140.7960   77.9220  221.3440 C   0  0  0  0  0  0  0  0  0  0  0  0
  140.6430   78.4760  222.7440 C   0  0  2  0  0  0  0  0  0  0  0  0
  139.8950   79.7740  222.6460 C   0  0  0  0  0  0  0  0  0  0  0  0
  140.7460   80.9320  223.1440 C   0  0  0  0  0  0  0  0  0  0  0  0
  142.0890   80.8290  222.4750 C   0  0  0  0  0  0  0  0  0  0  0  0
  142.7880   79.6230  222.8130 N   0  0  0  0  0  0  0  0  0  0  0  0
  141.9580   78.6380  223.4460 C   0  0  0  0  0  0  0  0  0  0  0  0
  140.5540   74.1360  221.6140 C   0  0  0  0  0  0  0  0  0  0  0  0
  140.2380   73.3730  222.6800 N   0  0  0  0  0  0  0  0  0  0  0  0
  140.5530   72.0510  222.6590 C   0  0  0  0  0  0  0  0  0  0  0  0
  140.2490   71.1870  223.7530 N   0  0  0  0  0  0  0  0  0  0  0  0
  139.0170   70.3930  223.7900 C   0  0  0  0  0  0  0  0  0  0  0  0
  139.4590   69.0230  224.3200 C   0  0  0  0  0  0  0  0  0  0  0  0
  139.7700   69.3070  225.7680 C   0  0  0  0  0  0  0  0  0  0  0  0
  139.2150   68.5580  226.7840 C   0  0  0  0  0  0  0  0  0  0  0  0
  139.5270   68.8510  228.1080 C   0  0  0  0  0  0  0  0  0  0  0  0
  140.3990   69.9020  228.3480 C   0  0  0  0  0  0  0  0  0  0  0  0
  140.9500   70.6470  227.3040 C   0  0  0  0  0  0  0  0  0  0  0  0
  140.6400   70.3550  225.9910 C   0  0  0  0  0  0  0  0  0  0  0  0
  141.1940   71.1130  224.8380 C   0  0  0  0  0  0  0  0  0  0  0  0
  141.1710   71.5140  221.5900 N   0  0  0  0  0  0  0  0  0  0  0  0
  141.4790   72.2780  220.5400 C   0  0  0  0  0  0  0  0  0  0  0  0
  142.1300   71.7010  219.4180 N   0  0  0  0  0  0  0  0  0  0  0  0
  141.4930   70.6350  218.6990 C   0  0  0  0  0  0  0  0  0  0  0  0
  142.3610   70.0630  217.6250 C   0  0  0  0  0  0  0  0  0  0  0  0
  143.7480   69.9000  218.1270 C   0  0  0  0  0  0  0  0  0  0  0  0
  144.5080   68.7810  217.9500 C   0  0  0  0  0  0  0  0  0  0  0  0
  145.7940   68.7370  218.4630 C   0  0  0  0  0  0  0  0  0  0  0  0
  146.3340   69.8170  219.1610 C   0  0  0  0  0  0  0  0  0  0  0  0
  145.5650   70.9560  219.3430 C   0  0  0  0  0  0  0  0  0  0  0  0
  144.2900   70.9720  218.8220 C   0  0  0  0  0  0  0  0  0  0  0  0
  143.4180   72.1630  218.9850 C   0  0  0  0  0  0  0  0  0  0  0  0
  141.1680   73.5840  220.5610 N   0  0  0  0  0  0  0  0  0  0  0  0
  142.2280   76.2460  221.2180 H   0  0  0  0  0  0  0  0  0  0  0  0
  141.5330   78.5301  220.7989 H   0  0  0  0  0  0  0  0  0  0  0  0
  139.8126   77.9583  220.8524 H   0  0  0  0  0  0  0  0  0  0  0  0
  140.0774   77.7610  223.3595 H   0  0  0  0  0  0  0  0  0  0  0  0
  139.6222   79.9536  221.5956 H   0  0  0  0  0  0  0  0  0  0  0  0
  138.9931   79.7071  223.2721 H   0  0  0  0  0  0  0  0  0  0  0  0
  140.2688   81.8880  222.8824 H   0  0  0  0  0  0  0  0  0  0  0  0
  140.8546   80.8896  224.2378 H   0  0  0  0  0  0  0  0  0  0  0  0
  141.9417   80.8560  221.3853 H   0  0  0  0  0  0  0  0  0  0  0  0
  142.6991   81.6744  222.8257 H   0  0  0  0  0  0  0  0  0  0  0  0
  143.3100   79.1970  222.0190 H   0  0  0  0  0  0  0  0  0  0  0  0
  142.4851   77.6725  223.4398 H   0  0  0  0  0  0  0  0  0  0  0  0
  141.7553   78.9743  224.4735 H   0  0  0  0  0  0  0  0  0  0  0  0
  138.2791   70.8514  224.4648 H   0  0  0  0  0  0  0  0  0  0  0  0
  138.5339   70.3242  222.8042 H   0  0  0  0  0  0  0  0  0  0  0  0
  138.6507   68.2828  224.2265 H   0  0  0  0  0  0  0  0  0  0  0  0
  140.3100   68.5974  223.7681 H   0  0  0  0  0  0  0  0  0  0  0  0
  138.5280   67.7318  226.5487 H   0  0  0  0  0  0  0  0  0  0  0  0
  139.0965   68.2687  228.9360 H   0  0  0  0  0  0  0  0  0  0  0  0
  140.6628   70.1547  229.3856 H   0  0  0  0  0  0  0  0  0  0  0  0
  141.6381   71.4750  227.5299 H   0  0  0  0  0  0  0  0  0  0  0  0
  141.4419   72.1331  225.1665 H   0  0  0  0  0  0  0  0  0  0  0  0
  142.0919   70.5887  224.4791 H   0  0  0  0  0  0  0  0  0  0  0  0
  141.2386   69.8345  219.4093 H   0  0  0  0  0  0  0  0  0  0  0  0
  140.5966   71.0503  218.2152 H   0  0  0  0  0  0  0  0  0  0  0  0
  141.9660   69.0824  217.3209 H   0  0  0  0  0  0  0  0  0  0  0  0
  142.3667   70.7463  216.7630 H   0  0  0  0  0  0  0  0  0  0  0  0
  144.1016   67.9178  217.4025 H   0  0  0  0  0  0  0  0  0  0  0  0
  146.4017   67.8318  218.3169 H   0  0  0  0  0  0  0  0  0  0  0  0
  147.3570   69.7657  219.5620 H   0  0  0  0  0  0  0  0  0  0  0  0
  145.9626   71.8242  219.8891 H   0  0  0  0  0  0  0  0  0  0  0  0
  143.8460   72.8412  219.7380 H   0  0  0  0  0  0  0  0  0  0  0  0
  143.3326   72.7125  218.0359 H   0  0  0  0  0  0  0  0  0  0  0  0
  1  2  2  0
  2  3  1  0
  3  4  1  0
  4  5  1  0
  5  6  1  0
  6  7  1  0
  7  8  1  0
  8  9  1  0
  9 10  1  0
  2 11  1  0
 11 12  2  0
 12 13  1  0
 13 14  1  0
 14 15  1  0
 15 16  1  0
 16 17  1  0
 17 18  2  0
 18 19  1  0
 19 20  2  0
 20 21  1  0
 21 22  2  0
 22 23  1  0
 13 24  2  0
 24 25  1  0
 25 26  1  0
 26 27  1  0
 27 28  1  0
 28 29  1  0
 29 30  2  0
 30 31  1  0
 31 32  2  0
 32 33  1  0
 33 34  2  0
 34 35  1  0
 25 36  2  0
 10  5  1  0
 36 11  1  0
 23 14  1  0
 35 26  1  0
 22 17  1  0
 34 29  1  0
  3 37  1  0
  4 38  1  0
  4 39  1  0
  5 40  1  1
  6 41  1  0
  6 42  1  0
  7 43  1  0
  7 44  1  0
  8 45  1  0
  8 46  1  0
  9 47  1  0
 10 48  1  0
 10 49  1  0
 15 50  1  0
 15 51  1  0
 16 52  1  0
 16 53  1  0
 18 54  1  0
 19 55  1  0
 20 56  1  0
 21 57  1  0
 23 58  1  0
 23 59  1  0
 27 60  1  0
 27 61  1  0
 28 62  1  0
 28 63  1  0
 30 64  1  0
 31 65  1  0
 32 66  1  0
 33 67  1  0
 35 68  1  0
 35 69  1  0
M  END
>  <smiles>  (12) 
O=C(NCC1CCCNC1)c1nc(N2CCc3ccccc3C2)nc(N2CCc3ccccc3C2)n1

>  <score_type>  (12) 
oracle

>  <origin>  (12) 
autodockgpu

>  <m_score__min__energy>  (12) 
-10.33

>  <m_primary>  (12) 
energy

>  <rmsd>  (12) 
4.095416160725685

>  <m_score__min__rmsd>  (12) 
4.095416160725685

>  <meeko>  (12) 
{"free_energy": -10.18, "intermolecular_energy": -11.68, "internal_energy": -1.07, "cluster_size": 25, "cluster_id": 1, "rank_in_cluster": 3}

>  <energy>  (12) 
-9.49

>  <cluster_rmsd>  (12) 
1.31

>  <cluster>  (12) 
1

$$$$

     RDKit          3D

 69 74  0  0  0  0  0  0  0  0999 V2000
  140.1250   71.8760  225.0120 O   0  0  0  0  0  0  0  0  0  0  0  0
  140.1380   71.3010  223.8850 C   0  0  0  0  0  0  0  0  0  0  0  0
  139.5820   69.9860  223.8510 N   0  0  0  0  0  0  0  0  0  0  0  0
  139.0700   69.4640  225.1000 C   0  0  0  0  0  0  0  0  0  0  0  0
  140.0980   68.6160  225.8170 C   0  0  2  0  0  0  0  0  0  0  0  0
  139.4950   68.1590  227.1130 C   0  0  0  0  0  0  0  0  0  0  0  0
  140.2840   68.6940  228.2990 C   0  0  0  0  0  0  0  0  0  0  0  0
  140.4820   70.1690  228.0840 C   0  0  0  0  0  0  0  0  0  0  0  0
  141.2500   70.4620  226.9090 N   0  0  0  0  0  0  0  0  0  0  0  0
  141.3950   69.3390  226.0260 C   0  0  0  0  0  0  0  0  0  0  0  0
  140.6850   71.9410  222.7080 C   0  0  0  0  0  0  0  0  0  0  0  0
  140.7130   73.2840  222.5850 N   0  0  0  0  0  0  0  0  0  0  0  0
  141.2390   73.8300  221.4570 C   0  0  0  0  0  0  0  0  0  0  0  0
  141.2990   75.2430  221.2620 N   0  0  0  0  0  0  0  0  0  0  0  0
  141.9330   75.8330  220.0800 C   0  0  0  0  0  0  0  0  0  0  0  0
  140.9900   76.9690  219.6650 C   0  0  0  0  0  0  0  0  0  0  0  0
  141.1950   77.9920  220.7540 C   0  0  0  0  0  0  0  0  0  0  0  0
  141.5040   79.3030  220.4620 C   0  0  0  0  0  0  0  0  0  0  0  0
  141.6850   80.2170  221.4950 C   0  0  0  0  0  0  0  0  0  0  0  0
  141.5420   79.7570  222.7960 C   0  0  0  0  0  0  0  0  0  0  0  0
  141.2270   78.4250  223.0690 C   0  0  0  0  0  0  0  0  0  0  0  0
  141.0490   77.5190  222.0430 C   0  0  0  0  0  0  0  0  0  0  0  0
  140.7140   76.0890  222.2720 C   0  0  0  0  0  0  0  0  0  0  0  0
  141.7240   73.0420  220.4800 N   0  0  0  0  0  0  0  0  0  0  0  0
  141.6920   71.7140  220.6110 C   0  0  0  0  0  0  0  0  0  0  0  0
  142.2060   70.8930  219.5740 N   0  0  0  0  0  0  0  0  0  0  0  0
  141.4680   69.7370  219.1510 C   0  0  0  0  0  0  0  0  0  0  0  0
  142.2040   68.9210  218.1380 C   0  0  0  0  0  0  0  0  0  0  0  0
  143.6300   68.7940  218.5280 C   0  0  0  0  0  0  0  0  0  0  0  0
  144.3350   67.6270  218.5110 C   0  0  0  0  0  0  0  0  0  0  0  0
  145.6660   67.6230  218.8970 C   0  0  0  0  0  0  0  0  0  0  0  0
  146.3060   68.7930  219.3060 C   0  0  0  0  0  0  0  0  0  0  0  0
  145.5920   69.9820  219.3250 C   0  0  0  0  0  0  0  0  0  0  0  0
  144.2720   69.9550  218.9350 C   0  0  0  0  0  0  0  0  0  0  0  0
  143.4560   71.1950  218.9350 C   0  0  0  0  0  0  0  0  0  0  0  0
  141.1720   71.1740  221.7250 N   0  0  0  0  0  0  0  0  0  0  0  0
  139.5690   69.4690  222.9490 H   0  0  0  0  0  0  0  0  0  0  0  0
  138.7876   70.3061  225.7490 H   0  0  0  0  0  0  0  0  0  0  0  0
  138.1999   68.8298  224.8750 H   0  0  0  0  0  0  0  0  0  0  0  0
  140.3528   67.7464  225.1934 H   0  0  0  0  0  0  0  0  0  0  0  0
  138.4590   68.5232  227.1762 H   0  0  0  0  0  0  0  0  0  0  0  0
  139.5189   67.0597  227.1428 H   0  0  0  0  0  0  0  0  0  0  0  0
  139.7243   68.5223  229.2303 H   0  0  0  0  0  0  0  0  0  0  0  0
  141.2539   68.1815  228.3811 H   0  0  0  0  0  0  0  0  0  0  0  0
  139.4953   70.6454  227.9866 H   0  0  0  0  0  0  0  0  0  0  0  0
  141.0396   70.5575  228.9490 H   0  0  0  0  0  0  0  0  0  0  0  0
  140.9170   71.2940  226.3790 H   0  0  0  0  0  0  0  0  0  0  0  0
  141.7622   69.6976  225.0531 H   0  0  0  0  0  0  0  0  0  0  0  0
  142.1052   68.6357  226.4854 H   0  0  0  0  0  0  0  0  0  0  0  0
  142.9296   76.2264  220.3290 H   0  0  0  0  0  0  0  0  0  0  0  0
  142.0824   75.0984  219.2750 H   0  0  0  0  0  0  0  0  0  0  0  0
  141.2694   77.3760  218.6820 H   0  0  0  0  0  0  0  0  0  0  0  0
  139.9428   76.6484  219.5617 H   0  0  0  0  0  0  0  0  0  0  0  0
  141.6072   79.6256  219.4155 H   0  0  0  0  0  0  0  0  0  0  0  0
  141.9330   81.2684  221.2874 H   0  0  0  0  0  0  0  0  0  0  0  0
  141.6801   80.4585  223.6320 H   0  0  0  0  0  0  0  0  0  0  0  0
  141.1195   78.0939  224.1124 H   0  0  0  0  0  0  0  0  0  0  0  0
  141.0958   75.7855  223.2580 H   0  0  0  0  0  0  0  0  0  0  0  0
  139.6206   75.9780  222.2255 H   0  0  0  0  0  0  0  0  0  0  0  0
  141.2658   69.1076  220.0302 H   0  0  0  0  0  0  0  0  0  0  0  0
  140.5384   70.0903  218.6808 H   0  0  0  0  0  0  0  0  0  0  0  0
  141.7520   67.9199  218.0785 H   0  0  0  0  0  0  0  0  0  0  0  0
  142.1403   69.4178  217.1586 H   0  0  0  0  0  0  0  0  0  0  0  0
  143.8494   66.6928  218.1923 H   0  0  0  0  0  0  0  0  0  0  0  0
  146.2291   66.6782  218.8805 H   0  0  0  0  0  0  0  0  0  0  0  0
  147.3631   68.7730  219.6095 H   0  0  0  0  0  0  0  0  0  0  0  0
  146.0677   70.9214  219.6432 H   0  0  0  0  0  0  0  0  0  0  0  0
  143.9788   71.9879  219.4899 H   0  0  0  0  0  0  0  0  0  0  0  0
  143.2886   71.5469  217.9063 H   0  0  0  0  0  0  0  0  0  0  0  0
  1  2  2  0
  2  3  1  0
  3  4  1  0
  4  5  1  0
  5  6  1  0
  6  7  1  0
  7  8  1  0
  8  9  1  0
  9 10  1  0
  2 11  1  0
 11 12  2  0
 12 13  1  0
 13 14  1  0
 14 15  1  0
 15 16  1  0
 16 17  1  0
 17 18  2  0
 18 19  1  0
 19 20  2  0
 20 21  1  0
 21 22  2  0
 22 23  1  0
 13 24  2  0
 24 25  1  0
 25 26  1  0
 26 27  1  0
 27 28  1  0
 28 29  1  0
 29 30  2  0
 30 31  1  0
 31 32  2  0
 32 33  1  0
 33 34  2  0
 34 35  1  0
 25 36  2  0
 10  5  1  0
 36 11  1  0
 23 14  1  0
 35 26  1  0
 22 17  1  0
 34 29  1  0
  3 37  1  0
  4 38  1  0
  4 39  1  0
  5 40  1  6
  6 41  1  0
  6 42  1  0
  7 43  1  0
  7 44  1  0
  8 45  1  0
  8 46  1  0
  9 47  1  0
 10 48  1  0
 10 49  1  0
 15 50  1  0
 15 51  1  0
 16 52  1  0
 16 53  1  0
 18 54  1  0
 19 55  1  0
 20 56  1  0
 21 57  1  0
 23 58  1  0
 23 59  1  0
 27 60  1  0
 27 61  1  0
 28 62  1  0
 28 63  1  0
 30 64  1  0
 31 65  1  0
 32 66  1  0
 33 67  1  0
 35 68  1  0
 35 69  1  0
M  END
>  <smiles>  (13) 
O=C(NCC1CCCNC1)c1nc(N2CCc3ccccc3C2)nc(N2CCc3ccccc3C2)n1

>  <score_type>  (13) 
oracle

>  <origin>  (13) 
autodockgpu

>  <m_score__min__energy>  (13) 
-10.33

>  <m_primary>  (13) 
energy

>  <rmsd>  (13) 
9.447545712910692

>  <m_score__min__rmsd>  (13) 
9.447545712910692

>  <meeko>  (13) 
{"free_energy": -8.83, "intermolecular_energy": -10.32, "internal_energy": -1.83, "cluster_size": 3, "cluster_id": 5, "rank_in_cluster": 2}

>  <energy>  (13) 
-9.47

>  <cluster_rmsd>  (13) 
1.59

>  <cluster>  (13) 
1

$$$$

     RDKit          3D

 69 74  0  0  0  0  0  0  0  0999 V2000
  141.6320   71.9780  217.8440 O   0  0  0  0  0  0  0  0  0  0  0  0
  141.8640   71.5500  219.0130 C   0  0  0  0  0  0  0  0  0  0  0  0
  142.7380   70.4240  219.0990 N   0  0  0  0  0  0  0  0  0  0  0  0
  143.2560   69.9040  217.8520 C   0  0  0  0  0  0  0  0  0  0  0  0
  144.7570   69.7130  217.9040 C   0  0  2  0  0  0  0  0  0  0  0  0
  145.0750   68.3940  217.2610 C   0  0  0  0  0  0  0  0  0  0  0  0
  145.7250   67.4450  218.2570 C   0  0  0  0  0  0  0  0  0  0  0  0
  144.8810   67.4470  219.5020 C   0  0  0  0  0  0  0  0  0  0  0  0
  144.8230   68.7340  220.1320 N   0  0  0  0  0  0  0  0  0  0  0  0
  145.2990   69.8010  219.2990 C   0  0  0  0  0  0  0  0  0  0  0  0
  141.2760   72.1660  220.1820 C   0  0  0  0  0  0  0  0  0  0  0  0
  141.0140   71.4550  221.2970 N   0  0  0  0  0  0  0  0  0  0  0  0
  140.4620   72.0860  222.3670 C   0  0  0  0  0  0  0  0  0  0  0  0
  140.1600   71.3940  223.5770 N   0  0  0  0  0  0  0  0  0  0  0  0
  138.9610   70.5600  223.7110 C   0  0  0  0  0  0  0  0  0  0  0  0
  139.4430   69.3140  224.4630 C   0  0  0  0  0  0  0  0  0  0  0  0
  139.6970   69.8370  225.8550 C   0  0  0  0  0  0  0  0  0  0  0  0
  139.1420   69.2340  226.9640 C   0  0  0  0  0  0  0  0  0  0  0  0
  139.4010   69.7470  228.2300 C   0  0  0  0  0  0  0  0  0  0  0  0
  140.2210   70.8620  228.3210 C   0  0  0  0  0  0  0  0  0  0  0  0
  140.7730   71.4560  227.1850 C   0  0  0  0  0  0  0  0  0  0  0  0
  140.5160   70.9460  225.9280 C   0  0  0  0  0  0  0  0  0  0  0  0
  141.0730   71.5360  224.6820 C   0  0  0  0  0  0  0  0  0  0  0  0
  140.1810   73.4020  222.3110 N   0  0  0  0  0  0  0  0  0  0  0  0
  140.4440   74.0970  221.2020 C   0  0  0  0  0  0  0  0  0  0  0  0
  140.1430   75.4830  221.1550 N   0  0  0  0  0  0  0  0  0  0  0  0
  140.1130   76.1610  219.8890 C   0  0  0  0  0  0  0  0  0  0  0  0
  139.9000   77.6340  220.0280 C   0  0  0  0  0  0  0  0  0  0  0  0
  140.7290   78.1640  221.1400 C   0  0  0  0  0  0  0  0  0  0  0  0
  141.4910   79.2920  221.0650 C   0  0  0  0  0  0  0  0  0  0  0  0
  142.2280   79.6970  222.1670 C   0  0  0  0  0  0  0  0  0  0  0  0
  142.2090   78.9720  223.3580 C   0  0  0  0  0  0  0  0  0  0  0  0
  141.4350   77.8240  223.4380 C   0  0  0  0  0  0  0  0  0  0  0  0
  140.7130   77.4470  222.3270 C   0  0  0  0  0  0  0  0  0  0  0  0
  139.8660   76.2270  222.3510 C   0  0  0  0  0  0  0  0  0  0  0  0
  140.9900   73.4730  220.1460 N   0  0  0  0  0  0  0  0  0  0  0  0
  142.9620   70.0320  220.0370 H   0  0  0  0  0  0  0  0  0  0  0  0
  142.7804   68.9339  217.6456 H   0  0  0  0  0  0  0  0  0  0  0  0
  143.0307   70.6311  217.0579 H   0  0  0  0  0  0  0  0  0  0  0  0
  145.2487   70.5287  217.3537 H   0  0  0  0  0  0  0  0  0  0  0  0
  144.1442   67.9418  216.8880 H   0  0  0  0  0  0  0  0  0  0  0  0
  145.7775   68.5680  216.4327 H   0  0  0  0  0  0  0  0  0  0  0  0
  145.7689   66.4302  217.8349 H   0  0  0  0  0  0  0  0  0  0  0  0
  146.7518   67.7671  218.4850 H   0  0  0  0  0  0  0  0  0  0  0  0
  143.8591   67.1404  219.2343 H   0  0  0  0  0  0  0  0  0  0  0  0
  145.3426   66.7492  220.2161 H   0  0  0  0  0  0  0  0  0  0  0  0
  143.8870   68.9740  220.5230 H   0  0  0  0  0  0  0  0  0  0  0  0
  144.9894   70.7601  219.7398 H   0  0  0  0  0  0  0  0  0  0  0  0
  146.3947   69.7228  219.2419 H   0  0  0  0  0  0  0  0  0  0  0  0
  138.1842   71.0852  224.2862 H   0  0  0  0  0  0  0  0  0  0  0  0
  138.5116   70.3137  222.7377 H   0  0  0  0  0  0  0  0  0  0  0  0
  138.6696   68.5318  224.4692 H   0  0  0  0  0  0  0  0  0  0  0  0
  140.3280   68.8467  224.0066 H   0  0  0  0  0  0  0  0  0  0  0  0
  138.4969   68.3506  226.8475 H   0  0  0  0  0  0  0  0  0  0  0  0
  138.9698   69.2839  229.1298 H   0  0  0  0  0  0  0  0  0  0  0  0
  140.4413   71.2878  229.3110 H   0  0  0  0  0  0  0  0  0  0  0  0
  141.4194   72.3395  227.2923 H   0  0  0  0  0  0  0  0  0  0  0  0
  141.2683   72.6055  224.8492 H   0  0  0  0  0  0  0  0  0  0  0  0
  142.0022   71.0026  224.4328 H   0  0  0  0  0  0  0  0  0  0  0  0
  141.0711   75.9909  219.3760 H   0  0  0  0  0  0  0  0  0  0  0  0
  139.2665   75.7557  219.3152 H   0  0  0  0  0  0  0  0  0  0  0  0
  140.1856   78.1335  219.0905 H   0  0  0  0  0  0  0  0  0  0  0  0
  138.8389   77.8266  220.2449 H   0  0  0  0  0  0  0  0  0  0  0  0
  141.5208   79.8779  220.1345 H   0  0  0  0  0  0  0  0  0  0  0  0
  142.8401   80.6086  222.1006 H   0  0  0  0  0  0  0  0  0  0  0  0
  142.8004   79.3064  224.2231 H   0  0  0  0  0  0  0  0  0  0  0  0
  141.3986   77.2306  224.3635 H   0  0  0  0  0  0  0  0  0  0  0  0
  140.1083   75.6194  223.2354 H   0  0  0  0  0  0  0  0  0  0  0  0
  138.8008   76.4970  222.4001 H   0  0  0  0  0  0  0  0  0  0  0  0
  1  2  2  0
  2  3  1  0
  3  4  1  0
  4  5  1  0
  5  6  1  0
  6  7  1  0
  7  8  1  0
  8  9  1  0
  9 10  1  0
  2 11  1  0
 11 12  2  0
 12 13  1  0
 13 14  1  0
 14 15  1  0
 15 16  1  0
 16 17  1  0
 17 18  2  0
 18 19  1  0
 19 20  2  0
 20 21  1  0
 21 22  2  0
 22 23  1  0
 13 24  2  0
 24 25  1  0
 25 26  1  0
 26 27  1  0
 27 28  1  0
 28 29  1  0
 29 30  2  0
 30 31  1  0
 31 32  2  0
 32 33  1  0
 33 34  2  0
 34 35  1  0
 25 36  2  0
 10  5  1  0
 36 11  1  0
 23 14  1  0
 35 26  1  0
 22 17  1  0
 34 29  1  0
  3 37  1  0
  4 38  1  0
  4 39  1  0
  5 40  1  6
  6 41  1  0
  6 42  1  0
  7 43  1  0
  7 44  1  0
  8 45  1  0
  8 46  1  0
  9 47  1  0
 10 48  1  0
 10 49  1  0
 15 50  1  0
 15 51  1  0
 16 52  1  0
 16 53  1  0
 18 54  1  0
 19 55  1  0
 20 56  1  0
 21 57  1  0
 23 58  1  0
 23 59  1  0
 27 60  1  0
 27 61  1  0
 28 62  1  0
 28 63  1  0
 30 64  1  0
 31 65  1  0
 32 66  1  0
 33 67  1  0
 35 68  1  0
 35 69  1  0
M  END
>  <smiles>  (14) 
O=C(NCC1CCCNC1)c1nc(N2CCc3ccccc3C2)nc(N2CCc3ccccc3C2)n1

>  <score_type>  (14) 
oracle

>  <origin>  (14) 
autodockgpu

>  <m_score__min__energy>  (14) 
-10.33

>  <m_primary>  (14) 
energy

>  <rmsd>  (14) 
8.205713950438355

>  <m_score__min__rmsd>  (14) 
8.205713950438355

>  <meeko>  (14) 
{"free_energy": -9.27, "intermolecular_energy": -10.76, "internal_energy": -1.63, "cluster_size": 5, "cluster_id": 4, "rank_in_cluster": 2}

>  <energy>  (14) 
-9.3

>  <cluster_rmsd>  (14) 
1.78

>  <cluster>  (14) 
1

$$$$

     RDKit          3D

 69 74  0  0  0  0  0  0  0  0999 V2000
  141.0510   76.1530  220.5540 O   0  0  0  0  0  0  0  0  0  0  0  0
  140.4330   75.4640  221.4170 C   0  0  0  0  0  0  0  0  0  0  0  0
  139.4870   76.1730  222.2170 N   0  0  0  0  0  0  0  0  0  0  0  0
  139.3420   77.5890  221.9540 C   0  0  0  0  0  0  0  0  0  0  0  0
  139.9380   78.4290  223.0630 C   0  0  2  0  0  0  0  0  0  0  0  0
  139.6510   79.8690  222.7530 C   0  0  0  0  0  0  0  0  0  0  0  0
  140.9410   80.6520  222.5570 C   0  0  0  0  0  0  0  0  0  0  0  0
  141.8020   79.8740  221.6010 C   0  0  0  0  0  0  0  0  0  0  0  0
  142.1720   78.5840  222.1080 N   0  0  0  0  0  0  0  0  0  0  0  0
  141.4040   78.1770  223.2510 C   0  0  0  0  0  0  0  0  0  0  0  0
  140.6760   74.0460  221.5770 C   0  0  0  0  0  0  0  0  0  0  0  0
  140.3390   73.3980  222.7100 N   0  0  0  0  0  0  0  0  0  0  0  0
  140.5890   72.0650  222.8050 C   0  0  0  0  0  0  0  0  0  0  0  0
  140.2580   71.3180  223.9750 N   0  0  0  0  0  0  0  0  0  0  0  0
  139.2180   70.2860  223.9640 C   0  0  0  0  0  0  0  0  0  0  0  0
  139.8090   69.1360  224.7890 C   0  0  0  0  0  0  0  0  0  0  0  0
  139.7840   69.6830  226.1940 C   0  0  0  0  0  0  0  0  0  0  0  0
  139.2040   68.9810  227.2300 C   0  0  0  0  0  0  0  0  0  0  0  0
  139.2010   69.5190  228.5120 C   0  0  0  0  0  0  0  0  0  0  0  0
  139.7930   70.7590  228.6940 C   0  0  0  0  0  0  0  0  0  0  0  0
  140.3760   71.4530  227.6310 C   0  0  0  0  0  0  0  0  0  0  0  0
  140.3780   70.9180  226.3590 C   0  0  0  0  0  0  0  0  0  0  0  0
  140.9810   71.6090  225.1880 C   0  0  0  0  0  0  0  0  0  0  0  0
  141.1660   71.4060  221.7830 N   0  0  0  0  0  0  0  0  0  0  0  0
  141.4960   72.0570  220.6660 C   0  0  0  0  0  0  0  0  0  0  0  0
  142.1030   71.3510  219.5950 N   0  0  0  0  0  0  0  0  0  0  0  0
  141.4920   70.1490  219.1000 C   0  0  0  0  0  0  0  0  0  0  0  0
  142.3180   69.4690  218.0570 C   0  0  0  0  0  0  0  0  0  0  0  0
  143.7460   69.4680  218.4620 C   0  0  0  0  0  0  0  0  0  0  0  0
  144.5690   68.3820  218.3940 C   0  0  0  0  0  0  0  0  0  0  0  0
  145.8890   68.4940  218.8000 C   0  0  0  0  0  0  0  0  0  0  0  0
  146.4010   69.7000  219.2800 C   0  0  0  0  0  0  0  0  0  0  0  0
  145.5680   70.8070  219.3500 C   0  0  0  0  0  0  0  0  0  0  0  0
  144.2610   70.6650  218.9390 C   0  0  0  0  0  0  0  0  0  0  0  0
  143.3210   71.8130  218.9910 C   0  0  0  0  0  0  0  0  0  0  0  0
  141.2480   73.3730  220.5720 N   0  0  0  0  0  0  0  0  0  0  0  0
  138.9520   75.6530  222.9420 H   0  0  0  0  0  0  0  0  0  0  0  0
  139.8530   77.8303  221.0103 H   0  0  0  0  0  0  0  0  0  0  0  0
  138.2678   77.8174  221.8907 H   0  0  0  0  0  0  0  0  0  0  0  0
  139.4755   78.1505  224.0214 H   0  0  0  0  0  0  0  0  0  0  0  0
  139.0519   79.9263  221.8322 H   0  0  0  0  0  0  0  0  0  0  0  0
  139.1004   80.3066  223.5987 H   0  0  0  0  0  0  0  0  0  0  0  0
  140.7178   81.6446  222.1387 H   0  0  0  0  0  0  0  0  0  0  0  0
  141.4584   80.7924  223.5175 H   0  0  0  0  0  0  0  0  0  0  0  0
  141.2472   79.7361  220.6612 H   0  0  0  0  0  0  0  0  0  0  0  0
  142.7282   80.4474  221.4485 H   0  0  0  0  0  0  0  0  0  0  0  0
  142.1740   77.8290  221.3900 H   0  0  0  0  0  0  0  0  0  0  0  0
  141.5605   77.1012  223.4189 H   0  0  0  0  0  0  0  0  0  0  0  0
  141.7418   78.7685  224.1147 H   0  0  0  0  0  0  0  0  0  0  0  0
  138.2932   70.6611  224.4266 H   0  0  0  0  0  0  0  0  0  0  0  0
  138.9494   69.9739  222.9440 H   0  0  0  0  0  0  0  0  0  0  0  0
  139.1903   68.2303  224.7057 H   0  0  0  0  0  0  0  0  0  0  0  0
  140.8137   68.8347  224.4576 H   0  0  0  0  0  0  0  0  0  0  0  0
  138.7454   67.9989  227.0425 H   0  0  0  0  0  0  0  0  0  0  0  0
  138.7440   68.9785  229.3540 H   0  0  0  0  0  0  0  0  0  0  0  0
  139.8040   71.2069  229.6986 H   0  0  0  0  0  0  0  0  0  0  0  0
  140.8379   72.4352  227.8096 H   0  0  0  0  0  0  0  0  0  0  0  0
  140.9618   72.6946  225.3643 H   0  0  0  0  0  0  0  0  0  0  0  0
  142.0142   71.2507  225.0693 H   0  0  0  0  0  0  0  0  0  0  0  0
  141.3474   69.4556  219.9416 H   0  0  0  0  0  0  0  0  0  0  0  0
  140.5355   70.4299  218.6350 H   0  0  0  0  0  0  0  0  0  0  0  0
  141.9724   68.4315  217.9377 H   0  0  0  0  0  0  0  0  0  0  0  0
  142.2130   70.0088  217.1043 H   0  0  0  0  0  0  0  0  0  0  0  0
  144.1862   67.4216  218.0184 H   0  0  0  0  0  0  0  0  0  0  0  0
  146.5468   67.6142  218.7428 H   0  0  0  0  0  0  0  0  0  0  0  0
  147.4514   69.7720  219.5987 H   0  0  0  0  0  0  0  0  0  0  0  0
  145.9411   71.7720  219.7236 H   0  0  0  0  0  0  0  0  0  0  0  0
  143.7539   72.6250  219.5937 H   0  0  0  0  0  0  0  0  0  0  0  0
  143.1277   72.1996  217.9795 H   0  0  0  0  0  0  0  0  0  0  0  0
  1  2  2  0
  2  3  1  0
  3  4  1  0
  4  5  1  0
  5  6  1  0
  6  7  1  0
  7  8  1  0
  8  9  1  0
  9 10  1  0
  2 11  1  0
 11 12  2  0
 12 13  1  0
 13 14  1  0
 14 15  1  0
 15 16  1  0
 16 17  1  0
 17 18  2  0
 18 19  1  0
 19 20  2  0
 20 21  1  0
 21 22  2  0
 22 23  1  0
 13 24  2  0
 24 25  1  0
 25 26  1  0
 26 27  1  0
 27 28  1  0
 28 29  1  0
 29 30  2  0
 30 31  1  0
 31 32  2  0
 32 33  1  0
 33 34  2  0
 34 35  1  0
 25 36  2  0
 10  5  1  0
 36 11  1  0
 23 14  1  0
 35 26  1  0
 22 17  1  0
 34 29  1  0
  3 37  1  0
  4 38  1  0
  4 39  1  0
  5 40  1  1
  6 41  1  0
  6 42  1  0
  7 43  1  0
  7 44  1  0
  8 45  1  0
  8 46  1  0
  9 47  1  0
 10 48  1  0
 10 49  1  0
 15 50  1  0
 15 51  1  0
 16 52  1  0
 16 53  1  0
 18 54  1  0
 19 55  1  0
 20 56  1  0
 21 57  1  0
 23 58  1  0
 23 59  1  0
 27 60  1  0
 27 61  1  0
 28 62  1  0
 28 63  1  0
 30 64  1  0
 31 65  1  0
 32 66  1  0
 33 67  1  0
 35 68  1  0
 35 69  1  0
M  END
>  <smiles>  (15) 
O=C(NCC1CCCNC1)c1nc(N2CCc3ccccc3C2)nc(N2CCc3ccccc3C2)n1

>  <score_type>  (15) 
oracle

>  <origin>  (15) 
autodockgpu

>  <m_score__min__energy>  (15) 
-10.33

>  <m_primary>  (15) 
energy

>  <rmsd>  (15) 
4.056360170781957

>  <m_score__min__rmsd>  (15) 
4.056360170781957

>  <meeko>  (15) 
{"free_energy": -9.16, "intermolecular_energy": -10.65, "internal_energy": -1.88, "cluster_size": 25, "cluster_id": 1, "rank_in_cluster": 17}

>  <energy>  (15) 
-9.29

>  <cluster_rmsd>  (15) 
1.8

>  <cluster>  (15) 
1

$$$$

     RDKit          3D

 69 74  0  0  0  0  0  0  0  0999 V2000
  138.5130   76.3480  222.0820 O   0  0  0  0  0  0  0  0  0  0  0  0
  139.7470   76.0840  221.9790 C   0  0  0  0  0  0  0  0  0  0  0  0
  140.6280   77.2070  222.0220 N   0  0  0  0  0  0  0  0  0  0  0  0
  140.0160   78.5090  222.1780 C   0  0  0  0  0  0  0  0  0  0  0  0
  140.4670   79.1920  223.4510 C   0  0  2  0  0  0  0  0  0  0  0  0
  140.4440   80.6740  223.2100 C   0  0  0  0  0  0  0  0  0  0  0  0
  141.8380   81.2690  223.3470 C   0  0  0  0  0  0  0  0  0  0  0  0
  142.7730   80.4270  222.5240 C   0  0  0  0  0  0  0  0  0  0  0  0
  142.8530   79.0710  222.9860 N   0  0  0  0  0  0  0  0  0  0  0  0
  141.8130   78.7200  223.9110 C   0  0  0  0  0  0  0  0  0  0  0  0
  140.2270   74.7280  221.8260 C   0  0  0  0  0  0  0  0  0  0  0  0
  139.9160   73.7660  222.7180 N   0  0  0  0  0  0  0  0  0  0  0  0
  140.3950   72.5080  222.5240 C   0  0  0  0  0  0  0  0  0  0  0  0
  140.1040   71.4440  223.4290 N   0  0  0  0  0  0  0  0  0  0  0  0
  138.8660   70.6650  223.3330 C   0  0  0  0  0  0  0  0  0  0  0  0
  139.3050   69.2150  223.5670 C   0  0  0  0  0  0  0  0  0  0  0  0
  139.6490   69.2000  225.0360 C   0  0  0  0  0  0  0  0  0  0  0  0
  139.1070   68.2650  225.8930 C   0  0  0  0  0  0  0  0  0  0  0  0
  139.4490   68.2840  227.2410 C   0  0  0  0  0  0  0  0  0  0  0  0
  140.3360   69.2610  227.6680 C   0  0  0  0  0  0  0  0  0  0  0  0
  140.8730   70.1970  226.7830 C   0  0  0  0  0  0  0  0  0  0  0  0
  140.5330   70.1780  225.4450 C   0  0  0  0  0  0  0  0  0  0  0  0
  141.0710   71.1480  224.4560 C   0  0  0  0  0  0  0  0  0  0  0  0
  141.1680   72.2310  221.4580 N   0  0  0  0  0  0  0  0  0  0  0  0
  141.4710   73.1910  220.5810 C   0  0  0  0  0  0  0  0  0  0  0  0
  142.2870   72.8860  219.4600 N   0  0  0  0  0  0  0  0  0  0  0  0
  141.7130   72.2220  218.3230 C   0  0  0  0  0  0  0  0  0  0  0  0
  142.7300   71.8710  217.2860 C   0  0  0  0  0  0  0  0  0  0  0  0
  143.9470   71.3220  217.9340 C   0  0  0  0  0  0  0  0  0  0  0  0
  144.6030   70.1990  217.5230 C   0  0  0  0  0  0  0  0  0  0  0  0
  145.7330   69.7750  218.2040 C   0  0  0  0  0  0  0  0  0  0  0  0
  146.2180   70.4740  219.3090 C   0  0  0  0  0  0  0  0  0  0  0  0
  145.5540   71.6170  219.7300 C   0  0  0  0  0  0  0  0  0  0  0  0
  144.4350   72.0140  219.0340 C   0  0  0  0  0  0  0  0  0  0  0  0
  143.6810   73.2280  219.4370 C   0  0  0  0  0  0  0  0  0  0  0  0
  140.9980   74.4320  220.7720 N   0  0  0  0  0  0  0  0  0  0  0  0
  141.6520   77.0460  221.9410 H   0  0  0  0  0  0  0  0  0  0  0  0
  140.2927   79.1379  221.3190 H   0  0  0  0  0  0  0  0  0  0  0  0
  138.9260   78.3708  222.2313 H   0  0  0  0  0  0  0  0  0  0  0  0
  139.7786   78.9322  224.2687 H   0  0  0  0  0  0  0  0  0  0  0  0
  140.0681   80.8678  222.1946 H   0  0  0  0  0  0  0  0  0  0  0  0
  139.7876   81.1413  223.9589 H   0  0  0  0  0  0  0  0  0  0  0  0
  141.8419   82.3050  222.9772 H   0  0  0  0  0  0  0  0  0  0  0  0
  142.1526   81.2789  224.4010 H   0  0  0  0  0  0  0  0  0  0  0  0
  142.4181   80.4231  221.4828 H   0  0  0  0  0  0  0  0  0  0  0  0
  143.7777   80.8663  222.6112 H   0  0  0  0  0  0  0  0  0  0  0  0
  142.9100   78.3640  222.2240 H   0  0  0  0  0  0  0  0  0  0  0  0
  141.7877   77.6255  224.0178 H   0  0  0  0  0  0  0  0  0  0  0  0
  142.0339   79.2095  224.8710 H   0  0  0  0  0  0  0  0  0  0  0  0
  138.1465   70.9822  224.1022 H   0  0  0  0  0  0  0  0  0  0  0  0
  138.3624   70.7981  222.3641 H   0  0  0  0  0  0  0  0  0  0  0  0
  138.4876   68.5132  223.3448 H   0  0  0  0  0  0  0  0  0  0  0  0
  140.1402   68.9045  222.9220 H   0  0  0  0  0  0  0  0  0  0  0  0
  138.4068   67.5071  225.5118 H   0  0  0  0  0  0  0  0  0  0  0  0
  139.0303   67.5492  227.9444 H   0  0  0  0  0  0  0  0  0  0  0  0
  140.6230   69.2990  228.7292 H   0  0  0  0  0  0  0  0  0  0  0  0
  141.5746   70.9580  227.1554 H   0  0  0  0  0  0  0  0  0  0  0  0
  141.3364   72.0799  224.9768 H   0  0  0  0  0  0  0  0  0  0  0  0
  141.9559   70.7011  223.9794 H   0  0  0  0  0  0  0  0  0  0  0  0
  141.2253   71.2972  218.6648 H   0  0  0  0  0  0  0  0  0  0  0  0
  140.9937   72.9148  217.8618 H   0  0  0  0  0  0  0  0  0  0  0  0
  142.3094   71.1178  216.6035 H   0  0  0  0  0  0  0  0  0  0  0  0
  142.9984   72.7767  216.7223 H   0  0  0  0  0  0  0  0  0  0  0  0
  144.2365   69.6321  216.6544 H   0  0  0  0  0  0  0  0  0  0  0  0
  146.2578   68.8692  217.8663 H   0  0  0  0  0  0  0  0  0  0  0  0
  147.1154   70.1236  219.8399 H   0  0  0  0  0  0  0  0  0  0  0  0
  145.9124   72.1909  220.5973 H   0  0  0  0  0  0  0  0  0  0  0  0
  144.0034   73.5551  220.4365 H   0  0  0  0  0  0  0  0  0  0  0  0
  143.8653   74.0497  218.7293 H   0  0  0  0  0  0  0  0  0  0  0  0
  1  2  2  0
  2  3  1  0
  3  4  1  0
  4  5  1  0
  5  6  1  0
  6  7  1  0
  7  8  1  0
  8  9  1  0
  9 10  1  0
  2 11  1  0
 11 12  2  0
 12 13  1  0
 13 14  1  0
 14 15  1  0
 15 16  1  0
 16 17  1  0
 17 18  2  0
 18 19  1  0
 19 20  2  0
 20 21  1  0
 21 22  2  0
 22 23  1  0
 13 24  2  0
 24 25  1  0
 25 26  1  0
 26 27  1  0
 27 28  1  0
 28 29  1  0
 29 30  2  0
 30 31  1  0
 31 32  2  0
 32 33  1  0
 33 34  2  0
 34 35  1  0
 25 36  2  0
 10  5  1  0
 36 11  1  0
 23 14  1  0
 35 26  1  0
 22 17  1  0
 34 29  1  0
  3 37  1  0
  4 38  1  0
  4 39  1  0
  5 40  1  1
  6 41  1  0
  6 42  1  0
  7 43  1  0
  7 44  1  0
  8 45  1  0
  8 46  1  0
  9 47  1  0
 10 48  1  0
 10 49  1  0
 15 50  1  0
 15 51  1  0
 16 52  1  0
 16 53  1  0
 18 54  1  0
 19 55  1  0
 20 56  1  0
 21 57  1  0
 23 58  1  0
 23 59  1  0
 27 60  1  0
 27 61  1  0
 28 62  1  0
 28 63  1  0
 30 64  1  0
 31 65  1  0
 32 66  1  0
 33 67  1  0
 35 68  1  0
 35 69  1  0
M  END
>  <smiles>  (16) 
O=C(NCC1CCCNC1)c1nc(N2CCc3ccccc3C2)nc(N2CCc3ccccc3C2)n1

>  <score_type>  (16) 
oracle

>  <origin>  (16) 
autodockgpu

>  <m_score__min__energy>  (16) 
-10.33

>  <m_primary>  (16) 
energy

>  <rmsd>  (16) 
4.627288409346181

>  <m_score__min__rmsd>  (16) 
4.627288409346181

>  <meeko>  (16) 
{"free_energy": -9.84, "intermolecular_energy": -11.33, "internal_energy": -1.26, "cluster_size": 25, "cluster_id": 1, "rank_in_cluster": 10}

>  <energy>  (16) 
-9.27

>  <cluster_rmsd>  (16) 
1.82

>  <cluster>  (16) 
1

$$$$

     RDKit          3D

 69 74  0  0  0  0  0  0  0  0999 V2000
  140.9050   77.6460  220.6820 O   0  0  0  0  0  0  0  0  0  0  0  0
  140.5640   76.7880  221.5480 C   0  0  0  0  0  0  0  0  0  0  0  0
  139.8580   77.2950  222.6810 N   0  0  0  0  0  0  0  0  0  0  0  0
  139.6140   78.7210  222.7120 C   0  0  0  0  0  0  0  0  0  0  0  0
  140.4130   79.4030  223.8020 C   0  0  2  0  0  0  0  0  0  0  0  0
  140.4750   80.8670  223.4790 C   0  0  0  0  0  0  0  0  0  0  0  0
  141.9110   81.3160  223.2540 C   0  0  0  0  0  0  0  0  0  0  0  0
  142.5440   80.3460  222.2950 C   0  0  0  0  0  0  0  0  0  0  0  0
  142.6020   79.0090  222.8120 N   0  0  0  0  0  0  0  0  0  0  0  0
  141.7790   78.8080  223.9710 C   0  0  0  0  0  0  0  0  0  0  0  0
  140.8730   75.3830  221.3930 C   0  0  0  0  0  0  0  0  0  0  0  0
  140.3460   74.4510  222.2120 N   0  0  0  0  0  0  0  0  0  0  0  0
  140.6710   73.1450  222.0190 C   0  0  0  0  0  0  0  0  0  0  0  0
  140.1490   72.1090  222.8480 N   0  0  0  0  0  0  0  0  0  0  0  0
  138.7510   71.6770  222.7570 C   0  0  0  0  0  0  0  0  0  0  0  0
  138.8160   70.1470  222.8490 C   0  0  0  0  0  0  0  0  0  0  0  0
  139.1910   69.9120  224.2910 C   0  0  0  0  0  0  0  0  0  0  0  0
  138.4580   69.0670  225.0970 C   0  0  0  0  0  0  0  0  0  0  0  0
  138.8360   68.8760  226.4220 C   0  0  0  0  0  0  0  0  0  0  0  0
  139.9550   69.5560  226.8780 C   0  0  0  0  0  0  0  0  0  0  0  0
  140.6840   70.4060  226.0440 C   0  0  0  0  0  0  0  0  0  0  0  0
  140.3070   70.5950  224.7300 C   0  0  0  0  0  0  0  0  0  0  0  0
  141.0420   71.4880  223.7950 C   0  0  0  0  0  0  0  0  0  0  0  0
  141.5080   72.7910  221.0250 N   0  0  0  0  0  0  0  0  0  0  0  0
  142.0260   73.7220  220.2210 C   0  0  0  0  0  0  0  0  0  0  0  0
  142.9060   73.3360  219.1770 N   0  0  0  0  0  0  0  0  0  0  0  0
  142.3690   72.8550  217.9360 C   0  0  0  0  0  0  0  0  0  0  0  0
  143.4270   72.3820  216.9930 C   0  0  0  0  0  0  0  0  0  0  0  0
  144.4400   71.5830  217.7270 C   0  0  0  0  0  0  0  0  0  0  0  0
  144.9340   70.3840  217.3040 C   0  0  0  0  0  0  0  0  0  0  0  0
  145.8800   69.7220  218.0720 C   0  0  0  0  0  0  0  0  0  0  0  0
  146.3420   70.2570  219.2740 C   0  0  0  0  0  0  0  0  0  0  0  0
  145.8420   71.4770  219.7070 C   0  0  0  0  0  0  0  0  0  0  0  0
  144.9040   72.1110  218.9240 C   0  0  0  0  0  0  0  0  0  0  0  0
  144.3310   73.4180  219.3350 C   0  0  0  0  0  0  0  0  0  0  0  0
  141.7030   75.0110  220.4110 N   0  0  0  0  0  0  0  0  0  0  0  0
  139.5550   76.6310  223.4220 H   0  0  0  0  0  0  0  0  0  0  0  0
  139.8966   79.1521  221.7403 H   0  0  0  0  0  0  0  0  0  0  0  0
  138.5456   78.8813  222.9191 H   0  0  0  0  0  0  0  0  0  0  0  0
  139.9133   79.2519  224.7703 H   0  0  0  0  0  0  0  0  0  0  0  0
  139.8911   81.0590  222.5668 H   0  0  0  0  0  0  0  0  0  0  0  0
  140.0608   81.4307  224.3279 H   0  0  0  0  0  0  0  0  0  0  0  0
  141.9248   82.3295  222.8266 H   0  0  0  0  0  0  0  0  0  0  0  0
  142.4636   81.3364  224.2049 H   0  0  0  0  0  0  0  0  0  0  0  0
  141.9567   80.3378  221.3649 H   0  0  0  0  0  0  0  0  0  0  0  0
  143.5781   80.6789  222.1224 H   0  0  0  0  0  0  0  0  0  0  0  0
  142.4110   78.2700  222.1040 H   0  0  0  0  0  0  0  0  0  0  0  0
  141.6758   77.7276  224.1498 H   0  0  0  0  0  0  0  0  0  0  0  0
  142.2639   79.3085  224.8221 H   0  0  0  0  0  0  0  0  0  0  0  0
  138.1608   72.0919  223.5874 H   0  0  0  0  0  0  0  0  0  0  0  0
  138.2661   72.0205  221.8314 H   0  0  0  0  0  0  0  0  0  0  0  0
  137.8410   69.6947  222.6148 H   0  0  0  0  0  0  0  0  0  0  0  0
  139.5247   69.6986  222.1371 H   0  0  0  0  0  0  0  0  0  0  0  0
  137.5773   68.5457  224.6937 H   0  0  0  0  0  0  0  0  0  0  0  0
  138.2666   68.2083  227.0853 H   0  0  0  0  0  0  0  0  0  0  0  0
  140.2761   69.4226  227.9216 H   0  0  0  0  0  0  0  0  0  0  0  0
  141.5673   70.9300  226.4381 H   0  0  0  0  0  0  0  0  0  0  0  0
  141.5504   72.2724  224.3748 H   0  0  0  0  0  0  0  0  0  0  0  0
  141.7699   70.8807  223.2371 H   0  0  0  0  0  0  0  0  0  0  0  0
  141.6877   72.0180  218.1486 H   0  0  0  0  0  0  0  0  0  0  0  0
  141.8459   73.6939  217.4537 H   0  0  0  0  0  0  0  0  0  0  0  0
  142.9670   71.7585  216.2122 H   0  0  0  0  0  0  0  0  0  0  0  0
  143.9173   73.2530  216.5336 H   0  0  0  0  0  0  0  0  0  0  0  0
  144.5838   69.9444  216.3584 H   0  0  0  0  0  0  0  0  0  0  0  0
  146.2740   68.7551  217.7259 H   0  0  0  0  0  0  0  0  0  0  0  0
  147.0930   69.7190  219.8712 H   0  0  0  0  0  0  0  0  0  0  0  0
  146.1860   71.9254  220.6507 H   0  0  0  0  0  0  0  0  0  0  0  0
  144.5807   73.6231  220.3865 H   0  0  0  0  0  0  0  0  0  0  0  0
  144.7420   74.2311  218.7186 H   0  0  0  0  0  0  0  0  0  0  0  0
  1  2  2  0
  2  3  1  0
  3  4  1  0
  4  5  1  0
  5  6  1  0
  6  7  1  0
  7  8  1  0
  8  9  1  0
  9 10  1  0
  2 11  1  0
 11 12  2  0
 12 13  1  0
 13 14  1  0
 14 15  1  0
 15 16  1  0
 16 17  1  0
 17 18  2  0
 18 19  1  0
 19 20  2  0
 20 21  1  0
 21 22  2  0
 22 23  1  0
 13 24  2  0
 24 25  1  0
 25 26  1  0
 26 27  1  0
 27 28  1  0
 28 29  1  0
 29 30  2  0
 30 31  1  0
 31 32  2  0
 32 33  1  0
 33 34  2  0
 34 35  1  0
 25 36  2  0
 10  5  1  0
 36 11  1  0
 23 14  1  0
 35 26  1  0
 22 17  1  0
 34 29  1  0
  3 37  1  0
  4 38  1  0
  4 39  1  0
  5 40  1  1
  6 41  1  0
  6 42  1  0
  7 43  1  0
  7 44  1  0
  8 45  1  0
  8 46  1  0
  9 47  1  0
 10 48  1  0
 10 49  1  0
 15 50  1  0
 15 51  1  0
 16 52  1  0
 16 53  1  0
 18 54  1  0
 19 55  1  0
 20 56  1  0
 21 57  1  0
 23 58  1  0
 23 59  1  0
 27 60  1  0
 27 61  1  0
 28 62  1  0
 28 63  1  0
 30 64  1  0
 31 65  1  0
 32 66  1  0
 33 67  1  0
 35 68  1  0
 35 69  1  0
M  END
>  <smiles>  (17) 
O=C(NCC1CCCNC1)c1nc(N2CCc3ccccc3C2)nc(N2CCc3ccccc3C2)n1

>  <score_type>  (17) 
oracle

>  <origin>  (17) 
autodockgpu

>  <m_score__min__energy>  (17) 
-10.33

>  <m_primary>  (17) 
energy

>  <rmsd>  (17) 
4.933181134196443

>  <m_score__min__rmsd>  (17) 
4.933181134196443

>  <meeko>  (17) 
{"free_energy": -8.69, "intermolecular_energy": -10.18, "internal_energy": -1.96, "cluster_size": 25, "cluster_id": 1, "rank_in_cluster": 25}

>  <energy>  (17) 
-9.16

>  <cluster_rmsd>  (17) 
0.83

>  <cluster>  (17) 
1

$$$$

     RDKit          3D

 69 74  0  0  0  0  0  0  0  0999 V2000
  140.6230   76.4390  220.3780 O   0  0  0  0  0  0  0  0  0  0  0  0
  140.2430   75.7360  221.3600 C   0  0  0  0  0  0  0  0  0  0  0  0
  139.4910   76.4230  222.3610 N   0  0  0  0  0  0  0  0  0  0  0  0
  139.2510   77.8330  222.1430 C   0  0  0  0  0  0  0  0  0  0  0  0
  139.9990   78.6900  223.1410 C   0  0  2  0  0  0  0  0  0  0  0  0
  139.8080   80.1270  222.7470 C   0  0  0  0  0  0  0  0  0  0  0  0
  141.1390   80.7780  222.4010 C   0  0  0  0  0  0  0  0  0  0  0  0
  141.8550   79.8650  221.4450 C   0  0  0  0  0  0  0  0  0  0  0  0
  142.1560   78.5850  222.0170 N   0  0  0  0  0  0  0  0  0  0  0  0
  141.4500   78.3250  223.2400 C   0  0  0  0  0  0  0  0  0  0  0  0
  140.5540   74.3270  221.4550 C   0  0  0  0  0  0  0  0  0  0  0  0
  140.2220   73.6040  222.5440 N   0  0  0  0  0  0  0  0  0  0  0  0
  140.5390   72.2820  222.5780 C   0  0  0  0  0  0  0  0  0  0  0  0
  140.2160   71.4600  223.6990 N   0  0  0  0  0  0  0  0  0  0  0  0
  139.0510   70.5690  223.6930 C   0  0  0  0  0  0  0  0  0  0  0  0
  139.5560   69.2740  224.3410 C   0  0  0  0  0  0  0  0  0  0  0  0
  139.7270   69.6650  225.7880 C   0  0  0  0  0  0  0  0  0  0  0  0
  139.1530   68.9320  226.8040 C   0  0  0  0  0  0  0  0  0  0  0  0
  139.3340   69.3240  228.1260 C   0  0  0  0  0  0  0  0  0  0  0  0
  140.0980   70.4560  228.3650 C   0  0  0  0  0  0  0  0  0  0  0  0
  140.6710   71.1840  227.3200 C   0  0  0  0  0  0  0  0  0  0  0  0
  140.4910   70.7930  226.0090 C   0  0  0  0  0  0  0  0  0  0  0  0
  141.0740   71.5270  224.8550 C   0  0  0  0  0  0  0  0  0  0  0  0
  141.1750   71.7070  221.5410 N   0  0  0  0  0  0  0  0  0  0  0  0
  141.5010   72.4320  220.4680 C   0  0  0  0  0  0  0  0  0  0  0  0
  142.1720   71.8130  219.3810 N   0  0  0  0  0  0  0  0  0  0  0  0
  141.5660   70.6930  218.7180 C   0  0  0  0  0  0  0  0  0  0  0  0
  142.4540   70.0900  217.6780 C   0  0  0  0  0  0  0  0  0  0  0  0
  143.8430   69.9910  218.1920 C   0  0  0  0  0  0  0  0  0  0  0  0
  144.6340   68.8860  218.0770 C   0  0  0  0  0  0  0  0  0  0  0  0
  145.9190   68.9040  218.5950 C   0  0  0  0  0  0  0  0  0  0  0  0
  146.4260   70.0330  219.2370 C   0  0  0  0  0  0  0  0  0  0  0  0
  145.6260   71.1590  219.3550 C   0  0  0  0  0  0  0  0  0  0  0  0
  144.3530   71.1120  218.8300 C   0  0  0  0  0  0  0  0  0  0  0  0
  143.4490   72.2860  218.9270 C   0  0  0  0  0  0  0  0  0  0  0  0
  141.1870   73.7360  220.4340 N   0  0  0  0  0  0  0  0  0  0  0  0
  139.1550   75.8910  223.1900 H   0  0  0  0  0  0  0  0  0  0  0  0
  139.5814   78.0978  221.1278 H   0  0  0  0  0  0  0  0  0  0  0  0
  138.1745   78.0207  222.2694 H   0  0  0  0  0  0  0  0  0  0  0  0
  139.5915   78.5172  224.1480 H   0  0  0  0  0  0  0  0  0  0  0  0
  139.1453   80.1748  221.8703 H   0  0  0  0  0  0  0  0  0  0  0  0
  139.3632   80.6674  223.5956 H   0  0  0  0  0  0  0  0  0  0  0  0
  140.9668   81.7561  221.9281 H   0  0  0  0  0  0  0  0  0  0  0  0
  141.7400   80.9360  223.3087 H   0  0  0  0  0  0  0  0  0  0  0  0
  141.2186   79.7136  220.5607 H   0  0  0  0  0  0  0  0  0  0  0  0
  142.8105   80.3434  221.1839 H   0  0  0  0  0  0  0  0  0  0  0  0
  142.0400   77.7860  221.3590 H   0  0  0  0  0  0  0  0  0  0  0  0
  141.5311   77.2536  223.4758 H   0  0  0  0  0  0  0  0  0  0  0  0
  141.9019   78.9424  224.0304 H   0  0  0  0  0  0  0  0  0  0  0  0
  138.2272   71.0019  224.2795 H   0  0  0  0  0  0  0  0  0  0  0  0
  138.6555   70.4037  222.6799 H   0  0  0  0  0  0  0  0  0  0  0  0
  138.8188   68.4646  224.2343 H   0  0  0  0  0  0  0  0  0  0  0  0
  140.4796   68.8907  223.8828 H   0  0  0  0  0  0  0  0  0  0  0  0
  138.5536   68.0398  226.5701 H   0  0  0  0  0  0  0  0  0  0  0  0
  138.8861   68.7551  228.9541 H   0  0  0  0  0  0  0  0  0  0  0  0
  140.2565   70.7883  229.4016 H   0  0  0  0  0  0  0  0  0  0  0  0
  141.2717   72.0778  227.5442 H   0  0  0  0  0  0  0  0  0  0  0  0
  141.2140   72.5813  225.1357 H   0  0  0  0  0  0  0  0  0  0  0  0
  142.0360   71.0592  224.5986 H   0  0  0  0  0  0  0  0  0  0  0  0
  141.3309   69.9243  219.4689 H   0  0  0  0  0  0  0  0  0  0  0  0
  140.6598   71.0567  218.2115 H   0  0  0  0  0  0  0  0  0  0  0  0
  142.0870   69.0846  217.4241 H   0  0  0  0  0  0  0  0  0  0  0  0
  142.4452   70.7277  216.7817 H   0  0  0  0  0  0  0  0  0  0  0  0
  144.2534   67.9842  217.5751 H   0  0  0  0  0  0  0  0  0  0  0  0
  146.5519   68.0096  218.4978 H   0  0  0  0  0  0  0  0  0  0  0  0
  147.4477   70.0303  219.6447 H   0  0  0  0  0  0  0  0  0  0  0  0
  145.9977   72.0659  219.8545 H   0  0  0  0  0  0  0  0  0  0  0  0
  143.8558   73.0146  219.6437 H   0  0  0  0  0  0  0  0  0  0  0  0
  143.3527   72.7817  217.9498 H   0  0  0  0  0  0  0  0  0  0  0  0
  1  2  2  0
  2  3  1  0
  3  4  1  0
  4  5  1  0
  5  6  1  0
  6  7  1  0
  7  8  1  0
  8  9  1  0
  9 10  1  0
  2 11  1  0
 11 12  2  0
 12 13  1  0
 13 14  1  0
 14 15  1  0
 15 16  1  0
 16 17  1  0
 17 18  2  0
 18 19  1  0
 19 20  2  0
 20 21  1  0
 21 22  2  0
 22 23  1  0
 13 24  2  0
 24 25  1  0
 25 26  1  0
 26 27  1  0
 27 28  1  0
 28 29  1  0
 29 30  2  0
 30 31  1  0
 31 32  2  0
 32 33  1  0
 33 34  2  0
 34 35  1  0
 25 36  2  0
 10  5  1  0
 36 11  1  0
 23 14  1  0
 35 26  1  0
 22 17  1  0
 34 29  1  0
  3 37  1  0
  4 38  1  0
  4 39  1  0
  5 40  1  1
  6 41  1  0
  6 42  1  0
  7 43  1  0
  7 44  1  0
  8 45  1  0
  8 46  1  0
  9 47  1  0
 10 48  1  0
 10 49  1  0
 15 50  1  0
 15 51  1  0
 16 52  1  0
 16 53  1  0
 18 54  1  0
 19 55  1  0
 20 56  1  0
 21 57  1  0
 23 58  1  0
 23 59  1  0
 27 60  1  0
 27 61  1  0
 28 62  1  0
 28 63  1  0
 30 64  1  0
 31 65  1  0
 32 66  1  0
 33 67  1  0
 35 68  1  0
 35 69  1  0
M  END
>  <smiles>  (18) 
O=C(NCC1CCCNC1)c1nc(N2CCc3ccccc3C2)nc(N2CCc3ccccc3C2)n1

>  <score_type>  (18) 
oracle

>  <origin>  (18) 
autodockgpu

>  <m_score__min__energy>  (18) 
-10.33

>  <m_primary>  (18) 
energy

>  <rmsd>  (18) 
4.1652269689641255

>  <m_score__min__rmsd>  (18) 
4.1652269689641255

>  <meeko>  (18) 
{"free_energy": -8.98, "intermolecular_energy": -10.47, "internal_energy": -1.92, "cluster_size": 25, "cluster_id": 1, "rank_in_cluster": 22}

>  <energy>  (18) 
-9.11

>  <cluster_rmsd>  (18) 
0.85

>  <cluster>  (18) 
1

$$$$

     RDKit          3D

 69 74  0  0  0  0  0  0  0  0999 V2000
  138.8930   75.9350  220.3940 O   0  0  0  0  0  0  0  0  0  0  0  0
  138.9160   75.3470  221.5150 C   0  0  0  0  0  0  0  0  0  0  0  0
  138.0280   75.8640  222.5060 N   0  0  0  0  0  0  0  0  0  0  0  0
  137.2080   76.9920  222.1220 C   0  0  0  0  0  0  0  0  0  0  0  0
  135.7320   76.6750  222.2280 C   0  0  2  0  0  0  0  0  0  0  0  0
  135.2040   77.3510  223.4600 C   0  0  0  0  0  0  0  0  0  0  0  0
  134.6770   76.3310  224.4580 C   0  0  0  0  0  0  0  0  0  0  0  0
  135.7300   75.2700  224.6220 C   0  0  0  0  0  0  0  0  0  0  0  0
  135.9990   74.5600  223.4040 N   0  0  0  0  0  0  0  0  0  0  0  0
  135.4600   75.2000  222.2380 C   0  0  0  0  0  0  0  0  0  0  0  0
  139.7910   74.2230  221.7690 C   0  0  0  0  0  0  0  0  0  0  0  0
  139.5060   73.3080  222.7180 N   0  0  0  0  0  0  0  0  0  0  0  0
  140.3640   72.2720  222.9120 C   0  0  0  0  0  0  0  0  0  0  0  0
  140.1240   71.2710  223.8990 N   0  0  0  0  0  0  0  0  0  0  0  0
  138.9230   70.4300  223.8700 C   0  0  0  0  0  0  0  0  0  0  0  0
  139.4300   69.0250  224.2170 C   0  0  0  0  0  0  0  0  0  0  0  0
  139.7730   69.1420  225.6810 C   0  0  0  0  0  0  0  0  0  0  0  0
  139.2760   68.2540  226.6110 C   0  0  0  0  0  0  0  0  0  0  0  0
  139.6160   68.3960  227.9520 C   0  0  0  0  0  0  0  0  0  0  0  0
  140.4560   69.4440  228.2980 C   0  0  0  0  0  0  0  0  0  0  0  0
  140.9490   70.3310  227.3390 C   0  0  0  0  0  0  0  0  0  0  0  0
  140.6100   70.1900  226.0090 C   0  0  0  0  0  0  0  0  0  0  0  0
  141.1030   71.1030  224.9440 C   0  0  0  0  0  0  0  0  0  0  0  0
  141.4810   72.1630  222.1680 N   0  0  0  0  0  0  0  0  0  0  0  0
  141.7540   73.0740  221.2310 C   0  0  0  0  0  0  0  0  0  0  0  0
  142.9340   72.9480  220.4530 N   0  0  0  0  0  0  0  0  0  0  0  0
  143.0940   73.7480  219.2720 C   0  0  0  0  0  0  0  0  0  0  0  0
  144.3330   73.4080  218.5080 C   0  0  0  0  0  0  0  0  0  0  0  0
  144.4980   71.9350  218.4390 C   0  0  0  0  0  0  0  0  0  0  0  0
  144.8110   71.2440  217.3050 C   0  0  0  0  0  0  0  0  0  0  0  0
  144.9400   69.8650  217.3550 C   0  0  0  0  0  0  0  0  0  0  0  0
  144.7560   69.1620  218.5460 C   0  0  0  0  0  0  0  0  0  0  0  0
  144.4380   69.8610  219.7010 C   0  0  0  0  0  0  0  0  0  0  0  0
  144.3160   71.2300  219.6210 C   0  0  0  0  0  0  0  0  0  0  0  0
  143.9770   72.0330  220.8220 C   0  0  0  0  0  0  0  0  0  0  0  0
  140.9060   74.0970  221.0390 N   0  0  0  0  0  0  0  0  0  0  0  0
  138.0090   75.4170  223.4460 H   0  0  0  0  0  0  0  0  0  0  0  0
  137.4383   77.8410  222.7825 H   0  0  0  0  0  0  0  0  0  0  0  0
  137.4311   77.2358  221.0728 H   0  0  0  0  0  0  0  0  0  0  0  0
  135.2116   77.0558  221.3368 H   0  0  0  0  0  0  0  0  0  0  0  0
  136.0146   77.9278  223.9293 H   0  0  0  0  0  0  0  0  0  0  0  0
  134.3773   78.0154  223.1682 H   0  0  0  0  0  0  0  0  0  0  0  0
  134.4816   76.8182  225.4246 H   0  0  0  0  0  0  0  0  0  0  0  0
  133.7359   75.8892  224.0987 H   0  0  0  0  0  0  0  0  0  0  0  0
  136.6603   75.7479  224.9629 H   0  0  0  0  0  0  0  0  0  0  0  0
  135.3537   74.5405  225.3542 H   0  0  0  0  0  0  0  0  0  0  0  0
  137.0050   74.3340  223.2570 H   0  0  0  0  0  0  0  0  0  0  0  0
  135.9149   74.7493  221.3436 H   0  0  0  0  0  0  0  0  0  0  0  0
  134.3694   75.0565  222.2462 H   0  0  0  0  0  0  0  0  0  0  0  0
  138.1896   70.7736  224.6144 H   0  0  0  0  0  0  0  0  0  0  0  0
  138.4132   70.4621  222.8958 H   0  0  0  0  0  0  0  0  0  0  0  0
  138.6468   68.2701  224.0532 H   0  0  0  0  0  0  0  0  0  0  0  0
  140.2797   68.7044  223.5963 H   0  0  0  0  0  0  0  0  0  0  0  0
  138.6128   67.4359  226.2935 H   0  0  0  0  0  0  0  0  0  0  0  0
  139.2316   67.7006  228.7127 H   0  0  0  0  0  0  0  0  0  0  0  0
  140.7403   69.5795  229.3520 H   0  0  0  0  0  0  0  0  0  0  0  0
  141.6146   71.1508  227.6470 H   0  0  0  0  0  0  0  0  0  0  0  0
  141.3239   72.0847  225.3884 H   0  0  0  0  0  0  0  0  0  0  0  0
  142.0083   70.6615  224.5019 H   0  0  0  0  0  0  0  0  0  0  0  0
  142.2232   73.5893  218.6189 H   0  0  0  0  0  0  0  0  0  0  0  0
  143.1778   74.7975  219.5906 H   0  0  0  0  0  0  0  0  0  0  0  0
  144.2554   73.8141  217.4886 H   0  0  0  0  0  0  0  0  0  0  0  0
  145.2036   73.8455  219.0184 H   0  0  0  0  0  0  0  0  0  0  0  0
  144.9603   71.7789  216.3555 H   0  0  0  0  0  0  0  0  0  0  0  0
  145.1925   69.3137  216.4372 H   0  0  0  0  0  0  0  0  0  0  0  0
  144.8618   68.0673  218.5687 H   0  0  0  0  0  0  0  0  0  0  0  0
  144.2873   69.3355  220.6556 H   0  0  0  0  0  0  0  0  0  0  0  0
  143.6277   71.3718  221.6288 H   0  0  0  0  0  0  0  0  0  0  0  0
  144.8606   72.5799  221.1827 H   0  0  0  0  0  0  0  0  0  0  0  0
  1  2  2  0
  2  3  1  0
  3  4  1  0
  4  5  1  0
  5  6  1  0
  6  7  1  0
  7  8  1  0
  8  9  1  0
  9 10  1  0
  2 11  1  0
 11 12  2  0
 12 13  1  0
 13 14  1  0
 14 15  1  0
 15 16  1  0
 16 17  1  0
 17 18  2  0
 18 19  1  0
 19 20  2  0
 20 21  1  0
 21 22  2  0
 22 23  1  0
 13 24  2  0
 24 25  1  0
 25 26  1  0
 26 27  1  0
 27 28  1  0
 28 29  1  0
 29 30  2  0
 30 31  1  0
 31 32  2  0
 32 33  1  0
 33 34  2  0
 34 35  1  0
 25 36  2  0
 10  5  1  0
 36 11  1  0
 23 14  1  0
 35 26  1  0
 22 17  1  0
 34 29  1  0
  3 37  1  0
  4 38  1  0
  4 39  1  0
  5 40  1  6
  6 41  1  0
  6 42  1  0
  7 43  1  0
  7 44  1  0
  8 45  1  0
  8 46  1  0
  9 47  1  0
 10 48  1  0
 10 49  1  0
 15 50  1  0
 15 51  1  0
 16 52  1  0
 16 53  1  0
 18 54  1  0
 19 55  1  0
 20 56  1  0
 21 57  1  0
 23 58  1  0
 23 59  1  0
 27 60  1  0
 27 61  1  0
 28 62  1  0
 28 63  1  0
 30 64  1  0
 31 65  1  0
 32 66  1  0
 33 67  1  0
 35 68  1  0
 35 69  1  0
M  END
>  <smiles>  (19) 
O=C(NCC1CCCNC1)c1nc(N2CCc3ccccc3C2)nc(N2CCc3ccccc3C2)n1

>  <score_type>  (19) 
oracle

>  <origin>  (19) 
autodockgpu

>  <m_score__min__energy>  (19) 
-10.33

>  <m_primary>  (19) 
energy

>  <rmsd>  (19) 
5.932654667034541

>  <m_score__min__rmsd>  (19) 
5.932654667034541

>  <meeko>  (19) 
{"free_energy": -8.37, "intermolecular_energy": -9.86, "internal_energy": -1.82, "cluster_size": 1, "cluster_id": 8, "rank_in_cluster": 1}

>  <energy>  (19) 
-9.05

>  <cluster_rmsd>  (19) 
0.9

>  <cluster>  (19) 
1

$$$$

     RDKit          3D

 69 74  0  0  0  0  0  0  0  0999 V2000
  138.6230   76.8530  222.2740 O   0  0  0  0  0  0  0  0  0  0  0  0
  139.8320   76.7230  221.9210 C   0  0  0  0  0  0  0  0  0  0  0  0
  140.5630   77.9380  221.7500 N   0  0  0  0  0  0  0  0  0  0  0  0
  139.8450   79.1700  221.9970 C   0  0  0  0  0  0  0  0  0  0  0  0
  140.2520   79.8020  223.3110 C   0  0  2  0  0  0  0  0  0  0  0  0
  140.6650   81.2180  223.0320 C   0  0  0  0  0  0  0  0  0  0  0  0
  142.1270   81.4390  223.3930 C   0  0  0  0  0  0  0  0  0  0  0  0
  142.9220   80.3270  222.7670 C   0  0  0  0  0  0  0  0  0  0  0  0
  142.5610   79.0330  223.2710 N   0  0  0  0  0  0  0  0  0  0  0  0
  141.3300   79.0300  224.0100 C   0  0  0  0  0  0  0  0  0  0  0  0
  140.4280   75.4230  221.7050 C   0  0  0  0  0  0  0  0  0  0  0  0
  139.9670   74.3230  222.3340 N   0  0  0  0  0  0  0  0  0  0  0  0
  140.5660   73.1270  222.0930 C   0  0  0  0  0  0  0  0  0  0  0  0
  140.1290   71.9250  222.7250 N   0  0  0  0  0  0  0  0  0  0  0  0
  139.0490   71.1070  222.1650 C   0  0  0  0  0  0  0  0  0  0  0  0
  139.5360   69.6620  222.3300 C   0  0  0  0  0  0  0  0  0  0  0  0
  139.4420   69.4440  223.8200 C   0  0  0  0  0  0  0  0  0  0  0  0
  138.7680   68.3640  224.3480 C   0  0  0  0  0  0  0  0  0  0  0  0
  138.7040   68.1970  225.7280 C   0  0  0  0  0  0  0  0  0  0  0  0
  139.3360   69.1420  226.5220 C   0  0  0  0  0  0  0  0  0  0  0  0
  140.0140   70.2280  225.9650 C   0  0  0  0  0  0  0  0  0  0  0  0
  140.0760   70.3920  224.5970 C   0  0  0  0  0  0  0  0  0  0  0  0
  140.7830   71.5280  223.9460 C   0  0  0  0  0  0  0  0  0  0  0  0
  141.6040   73.0450  221.2390 N   0  0  0  0  0  0  0  0  0  0  0  0
  142.0540   74.1400  220.6220 C   0  0  0  0  0  0  0  0  0  0  0  0
  143.1480   74.0400  219.7240 N   0  0  0  0  0  0  0  0  0  0  0  0
  142.9720   74.4040  218.3460 C   0  0  0  0  0  0  0  0  0  0  0  0
  144.1840   74.1280  217.5170 C   0  0  0  0  0  0  0  0  0  0  0  0
  144.7510   72.8030  217.8720 C   0  0  0  0  0  0  0  0  0  0  0  0
  145.1450   71.8630  216.9660 C   0  0  0  0  0  0  0  0  0  0  0  0
  145.6620   70.6560  217.4100 C   0  0  0  0  0  0  0  0  0  0  0  0
  145.7890   70.3780  218.7710 C   0  0  0  0  0  0  0  0  0  0  0  0
  145.3900   71.3320  219.6950 C   0  0  0  0  0  0  0  0  0  0  0  0
  144.8800   72.5220  219.2250 C   0  0  0  0  0  0  0  0  0  0  0  0
  144.4350   73.5810  220.1650 C   0  0  0  0  0  0  0  0  0  0  0  0
  141.4610   75.3200  220.8600 N   0  0  0  0  0  0  0  0  0  0  0  0
  141.5600   77.8880  221.4590 H   0  0  0  0  0  0  0  0  0  0  0  0
  140.0577   79.8762  221.1809 H   0  0  0  0  0  0  0  0  0  0  0  0
  138.7712   78.9367  222.0470 H   0  0  0  0  0  0  0  0  0  0  0  0
  139.3972   79.7893  224.0032 H   0  0  0  0  0  0  0  0  0  0  0  0
  140.5222   81.4306  221.9622 H   0  0  0  0  0  0  0  0  0  0  0  0
  140.0465   81.8913  223.6437 H   0  0  0  0  0  0  0  0  0  0  0  0
  142.4674   82.4095  223.0026 H   0  0  0  0  0  0  0  0  0  0  0  0
  142.2595   81.4418  224.4850 H   0  0  0  0  0  0  0  0  0  0  0  0
  142.7508   80.3412  221.6805 H   0  0  0  0  0  0  0  0  0  0  0  0
  143.9801   80.4958  223.0158 H   0  0  0  0  0  0  0  0  0  0  0  0
  142.5480   78.2830  222.5490 H   0  0  0  0  0  0  0  0  0  0  0  0
  140.9955   77.9899  224.1381 H   0  0  0  0  0  0  0  0  0  0  0  0
  141.5164   79.5113  224.9814 H   0  0  0  0  0  0  0  0  0  0  0  0
  138.1125   71.2673  222.7193 H   0  0  0  0  0  0  0  0  0  0  0  0
  138.8348   71.3588  221.1158 H   0  0  0  0  0  0  0  0  0  0  0  0
  138.8866   68.9607  221.7855 H   0  0  0  0  0  0  0  0  0  0  0  0
  140.5466   69.4952  221.9290 H   0  0  0  0  0  0  0  0  0  0  0  0
  138.2824   67.6366  223.6809 H   0  0  0  0  0  0  0  0  0  0  0  0
  138.1704   67.3446  226.1737 H   0  0  0  0  0  0  0  0  0  0  0  0
  139.3024   69.0335  227.6161 H   0  0  0  0  0  0  0  0  0  0  0  0
  140.5037   70.9602  226.6239 H   0  0  0  0  0  0  0  0  0  0  0  0
  140.7988   72.3831  224.6377 H   0  0  0  0  0  0  0  0  0  0  0  0
  141.8054   71.2044  223.7012 H   0  0  0  0  0  0  0  0  0  0  0  0
  142.1273   73.8311  217.9359 H   0  0  0  0  0  0  0  0  0  0  0  0
  142.7847   75.4873  218.3100 H   0  0  0  0  0  0  0  0  0  0  0  0
  143.9060   74.1319  216.4527 H   0  0  0  0  0  0  0  0  0  0  0  0
  144.9374   74.9062  217.7087 H   0  0  0  0  0  0  0  0  0  0  0  0
  145.0530   72.0617  215.8880 H   0  0  0  0  0  0  0  0  0  0  0  0
  145.9785   69.9021  216.6742 H   0  0  0  0  0  0  0  0  0  0  0  0
  146.2003   69.4147  219.1069 H   0  0  0  0  0  0  0  0  0  0  0  0
  145.4785   71.1433  220.7751 H   0  0  0  0  0  0  0  0  0  0  0  0
  144.3585   73.1711  221.1829 H   0  0  0  0  0  0  0  0  0  0  0  0
  145.1565   74.4112  220.1813 H   0  0  0  0  0  0  0  0  0  0  0  0
  1  2  2  0
  2  3  1  0
  3  4  1  0
  4  5  1  0
  5  6  1  0
  6  7  1  0
  7  8  1  0
  8  9  1  0
  9 10  1  0
  2 11  1  0
 11 12  2  0
 12 13  1  0
 13 14  1  0
 14 15  1  0
 15 16  1  0
 16 17  1  0
 17 18  2  0
 18 19  1  0
 19 20  2  0
 20 21  1  0
 21 22  2  0
 22 23  1  0
 13 24  2  0
 24 25  1  0
 25 26  1  0
 26 27  1  0
 27 28  1  0
 28 29  1  0
 29 30  2  0
 30 31  1  0
 31 32  2  0
 32 33  1  0
 33 34  2  0
 34 35  1  0
 25 36  2  0
 10  5  1  0
 36 11  1  0
 23 14  1  0
 35 26  1  0
 22 17  1  0
 34 29  1  0
  3 37  1  0
  4 38  1  0
  4 39  1  0
  5 40  1  1
  6 41  1  0
  6 42  1  0
  7 43  1  0
  7 44  1  0
  8 45  1  0
  8 46  1  0
  9 47  1  0
 10 48  1  0
 10 49  1  0
 15 50  1  0
 15 51  1  0
 16 52  1  0
 16 53  1  0
 18 54  1  0
 19 55  1  0
 20 56  1  0
 21 57  1  0
 23 58  1  0
 23 59  1  0
 27 60  1  0
 27 61  1  0
 28 62  1  0
 28 63  1  0
 30 64  1  0
 31 65  1  0
 32 66  1  0
 33 67  1  0
 35 68  1  0
 35 69  1  0
M  END
>  <smiles>  (20) 
O=C(NCC1CCCNC1)c1nc(N2CCc3ccccc3C2)nc(N2CCc3ccccc3C2)n1

>  <score_type>  (20) 
oracle

>  <origin>  (20) 
autodockgpu

>  <m_score__min__energy>  (20) 
-10.33

>  <m_primary>  (20) 
energy

>  <rmsd>  (20) 
4.825478555382446

>  <m_score__min__rmsd>  (20) 
4.825478555382446

>  <meeko>  (20) 
{"free_energy": -9.27, "intermolecular_energy": -10.77, "internal_energy": -1.61, "cluster_size": 25, "cluster_id": 1, "rank_in_cluster": 16}

>  <energy>  (20) 
-9.03

>  <cluster_rmsd>  (20) 
0.93

>  <cluster>  (20) 
1

$$$$

     RDKit          3D

 69 74  0  0  0  0  0  0  0  0999 V2000
  138.7590   75.9120  221.3760 O   0  0  0  0  0  0  0  0  0  0  0  0
  139.9760   75.7010  221.6540 C   0  0  0  0  0  0  0  0  0  0  0  0
  140.7700   76.8650  221.8880 N   0  0  0  0  0  0  0  0  0  0  0  0
  140.1000   78.1430  221.7810 C   0  0  0  0  0  0  0  0  0  0  0  0
  140.2530   78.9640  223.0440 C   0  0  2  0  0  0  0  0  0  0  0  0
  140.1720   80.4130  222.6630 C   0  0  0  0  0  0  0  0  0  0  0  0
  141.4690   81.1370  222.9920 C   0  0  0  0  0  0  0  0  0  0  0  0
  142.5990   80.3150  222.4380 C   0  0  0  0  0  0  0  0  0  0  0  0
  142.6860   79.0140  223.0350 N   0  0  0  0  0  0  0  0  0  0  0  0
  141.5180   78.6490  223.7840 C   0  0  0  0  0  0  0  0  0  0  0  0
  140.5210   74.3640  221.7280 C   0  0  0  0  0  0  0  0  0  0  0  0
  140.1560   73.5070  222.7030 N   0  0  0  0  0  0  0  0  0  0  0  0
  140.7010   72.2610  222.7230 C   0  0  0  0  0  0  0  0  0  0  0  0
  140.3590   71.3060  223.7260 N   0  0  0  0  0  0  0  0  0  0  0  0
  139.0710   70.6050  223.7180 C   0  0  0  0  0  0  0  0  0  0  0  0
  139.4200   69.1570  224.0810 C   0  0  0  0  0  0  0  0  0  0  0  0
  139.7890   69.2540  225.5400 C   0  0  0  0  0  0  0  0  0  0  0  0
  139.2040   68.4400  226.4860 C   0  0  0  0  0  0  0  0  0  0  0  0
  139.5710   68.5600  227.8230 C   0  0  0  0  0  0  0  0  0  0  0  0
  140.5270   69.5110  228.1470 C   0  0  0  0  0  0  0  0  0  0  0  0
  141.1070   70.3250  227.1720 C   0  0  0  0  0  0  0  0  0  0  0  0
  140.7420   70.2050  225.8460 C   0  0  0  0  0  0  0  0  0  0  0  0
  141.3230   71.0430  224.7640 C   0  0  0  0  0  0  0  0  0  0  0  0
  141.5910   71.8920  221.7830 N   0  0  0  0  0  0  0  0  0  0  0  0
  141.9460   72.7480  220.8220 C   0  0  0  0  0  0  0  0  0  0  0  0
  142.8850   72.3470  219.8370 N   0  0  0  0  0  0  0  0  0  0  0  0
  144.2220   71.9990  220.2300 C   0  0  0  0  0  0  0  0  0  0  0  0
  145.1110   71.7150  219.0630 C   0  0  0  0  0  0  0  0  0  0  0  0
  144.8850   72.7230  217.9970 C   0  0  0  0  0  0  0  0  0  0  0  0
  145.8780   73.3690  217.3210 C   0  0  0  0  0  0  0  0  0  0  0  0
  145.5520   74.2940  216.3420 C   0  0  0  0  0  0  0  0  0  0  0  0
  144.2230   74.5820  216.0290 C   0  0  0  0  0  0  0  0  0  0  0  0
  143.2110   73.9260  216.7140 C   0  0  0  0  0  0  0  0  0  0  0  0
  143.5650   73.0120  217.6810 C   0  0  0  0  0  0  0  0  0  0  0  0
  142.5270   72.2790  218.4490 C   0  0  0  0  0  0  0  0  0  0  0  0
  141.4080   73.9770  220.8030 N   0  0  0  0  0  0  0  0  0  0  0  0
  141.7770   76.7480  222.1200 H   0  0  0  0  0  0  0  0  0  0  0  0
  140.5319   78.7023  220.9380 H   0  0  0  0  0  0  0  0  0  0  0  0
  139.0278   77.9554  221.6222 H   0  0  0  0  0  0  0  0  0  0  0  0
  139.4422   78.7129  223.7437 H   0  0  0  0  0  0  0  0  0  0  0  0
  139.9809   80.4906  221.5825 H   0  0  0  0  0  0  0  0  0  0  0  0
  139.3557   80.8801  223.2335 H   0  0  0  0  0  0  0  0  0  0  0  0
  141.4693   82.1353  222.5301 H   0  0  0  0  0  0  0  0  0  0  0  0
  141.5777   81.2616  224.0795 H   0  0  0  0  0  0  0  0  0  0  0  0
  142.4481   80.1951  221.3550 H   0  0  0  0  0  0  0  0  0  0  0  0
  143.5357   80.8458  222.6638 H   0  0  0  0  0  0  0  0  0  0  0  0
  142.9350   78.2550  222.3660 H   0  0  0  0  0  0  0  0  0  0  0  0
  141.5503   77.5685  223.9875 H   0  0  0  0  0  0  0  0  0  0  0  0
  141.5185   79.2308  224.7175 H   0  0  0  0  0  0  0  0  0  0  0  0
  138.3876   71.0387  224.4629 H   0  0  0  0  0  0  0  0  0  0  0  0
  138.5592   70.6812  222.7473 H   0  0  0  0  0  0  0  0  0  0  0  0
  138.5552   68.4931  223.9350 H   0  0  0  0  0  0  0  0  0  0  0  0
  140.2218   68.7345  223.4577 H   0  0  0  0  0  0  0  0  0  0  0  0
  138.4496   67.6981  226.1852 H   0  0  0  0  0  0  0  0  0  0  0  0
  139.1182   67.9222  228.5965 H   0  0  0  0  0  0  0  0  0  0  0  0
  140.8355   69.6267  229.1965 H   0  0  0  0  0  0  0  0  0  0  0  0
  141.8625   71.0695  227.4634 H   0  0  0  0  0  0  0  0  0  0  0  0
  141.6570   71.9994  225.1926 H   0  0  0  0  0  0  0  0  0  0  0  0
  142.1685   70.4970  224.3202 H   0  0  0  0  0  0  0  0  0  0  0  0
  144.6494   72.8354  220.8025 H   0  0  0  0  0  0  0  0  0  0  0  0
  144.1625   71.0811  220.8333 H   0  0  0  0  0  0  0  0  0  0  0  0
  146.1615   71.7560  219.3866 H   0  0  0  0  0  0  0  0  0  0  0  0
  144.8815   70.7141  218.6687 H   0  0  0  0  0  0  0  0  0  0  0  0
  146.9324   73.1568  217.5518 H   0  0  0  0  0  0  0  0  0  0  0  0
  146.3574   74.8118  215.8005 H   0  0  0  0  0  0  0  0  0  0  0  0
  143.9812   75.3194  215.2494 H   0  0  0  0  0  0  0  0  0  0  0  0
  142.1535   74.1305  216.4906 H   0  0  0  0  0  0  0  0  0  0  0  0
  141.5439   72.7468  218.2919 H   0  0  0  0  0  0  0  0  0  0  0  0
  142.4676   71.2322  218.1163 H   0  0  0  0  0  0  0  0  0  0  0  0
  1  2  2  0
  2  3  1  0
  3  4  1  0
  4  5  1  0
  5  6  1  0
  6  7  1  0
  7  8  1  0
  8  9  1  0
  9 10  1  0
  2 11  1  0
 11 12  2  0
 12 13  1  0
 13 14  1  0
 14 15  1  0
 15 16  1  0
 16 17  1  0
 17 18  2  0
 18 19  1  0
 19 20  2  0
 20 21  1  0
 21 22  2  0
 22 23  1  0
 13 24  2  0
 24 25  1  0
 25 26  1  0
 26 27  1  0
 27 28  1  0
 28 29  1  0
 29 30  2  0
 30 31  1  0
 31 32  2  0
 32 33  1  0
 33 34  2  0
 34 35  1  0
 25 36  2  0
 10  5  1  0
 36 11  1  0
 23 14  1  0
 35 26  1  0
 22 17  1  0
 34 29  1  0
  3 37  1  0
  4 38  1  0
  4 39  1  0
  5 40  1  1
  6 41  1  0
  6 42  1  0
  7 43  1  0
  7 44  1  0
  8 45  1  0
  8 46  1  0
  9 47  1  0
 10 48  1  0
 10 49  1  0
 15 50  1  0
 15 51  1  0
 16 52  1  0
 16 53  1  0
 18 54  1  0
 19 55  1  0
 20 56  1  0
 21 57  1  0
 23 58  1  0
 23 59  1  0
 27 60  1  0
 27 61  1  0
 28 62  1  0
 28 63  1  0
 30 64  1  0
 31 65  1  0
 32 66  1  0
 33 67  1  0
 35 68  1  0
 35 69  1  0
M  END
>  <smiles>  (21) 
O=C(NCC1CCCNC1)c1nc(N2CCc3ccccc3C2)nc(N2CCc3ccccc3C2)n1

>  <score_type>  (21) 
oracle

>  <origin>  (21) 
autodockgpu

>  <m_score__min__energy>  (21) 
-10.33

>  <m_primary>  (21) 
energy

>  <rmsd>  (21) 
4.264555005222212

>  <m_score__min__rmsd>  (21) 
4.264555005222212

>  <meeko>  (21) 
{"free_energy": -9.62, "intermolecular_energy": -11.11, "internal_energy": -1.19, "cluster_size": 25, "cluster_id": 1, "rank_in_cluster": 11}

>  <energy>  (21) 
-9.03

>  <cluster_rmsd>  (21) 
0.88

>  <cluster>  (21) 
1

$$$$

     RDKit          3D

 69 74  0  0  0  0  0  0  0  0999 V2000
  138.6360   76.7970  222.0490 O   0  0  0  0  0  0  0  0  0  0  0  0
  139.8780   76.6670  221.8470 C   0  0  0  0  0  0  0  0  0  0  0  0
  140.6300   77.8810  221.8000 N   0  0  0  0  0  0  0  0  0  0  0  0
  139.8930   79.1120  221.9860 C   0  0  0  0  0  0  0  0  0  0  0  0
  140.2770   79.8050  223.2760 C   0  0  2  0  0  0  0  0  0  0  0  0
  140.7060   81.2030  222.9360 C   0  0  0  0  0  0  0  0  0  0  0  0
  142.1610   81.4340  223.3160 C   0  0  0  0  0  0  0  0  0  0  0  0
  142.9610   80.2870  222.7630 C   0  0  0  0  0  0  0  0  0  0  0  0
  142.5810   79.0220  223.3230 N   0  0  0  0  0  0  0  0  0  0  0  0
  141.3360   79.0630  224.0350 C   0  0  0  0  0  0  0  0  0  0  0  0
  140.4920   75.3680  221.6750 C   0  0  0  0  0  0  0  0  0  0  0  0
  140.0260   74.2790  222.3190 N   0  0  0  0  0  0  0  0  0  0  0  0
  140.6410   73.0830  222.1190 C   0  0  0  0  0  0  0  0  0  0  0  0
  140.2010   71.8920  222.7680 N   0  0  0  0  0  0  0  0  0  0  0  0
  139.0760   71.1030  222.2550 C   0  0  0  0  0  0  0  0  0  0  0  0
  139.5320   69.6460  222.3980 C   0  0  0  0  0  0  0  0  0  0  0  0
  139.4980   69.4270  223.8910 C   0  0  0  0  0  0  0  0  0  0  0  0
  138.8190   68.3650  224.4470 C   0  0  0  0  0  0  0  0  0  0  0  0
  138.8120   68.1970  225.8280 C   0  0  0  0  0  0  0  0  0  0  0  0
  139.5020   69.1240  226.5950 C   0  0  0  0  0  0  0  0  0  0  0  0
  140.1840   70.1930  226.0100 C   0  0  0  0  0  0  0  0  0  0  0  0
  140.1900   70.3580  224.6400 C   0  0  0  0  0  0  0  0  0  0  0  0
  140.8970   71.4760  223.9600 C   0  0  0  0  0  0  0  0  0  0  0  0
  141.6990   72.9910  221.2910 N   0  0  0  0  0  0  0  0  0  0  0  0
  142.1520   74.0760  220.6580 C   0  0  0  0  0  0  0  0  0  0  0  0
  143.2680   73.9660  219.7880 N   0  0  0  0  0  0  0  0  0  0  0  0
  143.1490   74.4000  218.4240 C   0  0  0  0  0  0  0  0  0  0  0  0
  144.3720   74.1060  217.6170 C   0  0  0  0  0  0  0  0  0  0  0  0
  144.8680   72.7410  217.9260 C   0  0  0  0  0  0  0  0  0  0  0  0
  145.2460   71.8260  216.9880 C   0  0  0  0  0  0  0  0  0  0  0  0
  145.6940   70.5770  217.3900 C   0  0  0  0  0  0  0  0  0  0  0  0
  145.7680   70.2320  218.7390 C   0  0  0  0  0  0  0  0  0  0  0  0
  145.3840   71.1610  219.6950 C   0  0  0  0  0  0  0  0  0  0  0  0
  144.9440   72.3930  219.2670 C   0  0  0  0  0  0  0  0  0  0  0  0
  144.5190   73.4280  220.2430 C   0  0  0  0  0  0  0  0  0  0  0  0
  141.5440   75.2560  220.8560 N   0  0  0  0  0  0  0  0  0  0  0  0
  141.6560   77.8290  221.6360 H   0  0  0  0  0  0  0  0  0  0  0  0
  140.1053   79.7855  221.1426 H   0  0  0  0  0  0  0  0  0  0  0  0
  138.8219   78.8664  222.0343 H   0  0  0  0  0  0  0  0  0  0  0  0
  139.4078   79.8303  223.9497 H   0  0  0  0  0  0  0  0  0  0  0  0
  140.5869   81.3628  221.8542 H   0  0  0  0  0  0  0  0  0  0  0  0
  140.0797   81.9091  223.5009 H   0  0  0  0  0  0  0  0  0  0  0  0
  142.5158   82.3816  222.8846 H   0  0  0  0  0  0  0  0  0  0  0  0
  142.2712   81.4914  224.4090 H   0  0  0  0  0  0  0  0  0  0  0  0
  142.8123   80.2479  221.6738 H   0  0  0  0  0  0  0  0  0  0  0  0
  144.0148   80.4618  223.0255 H   0  0  0  0  0  0  0  0  0  0  0  0
  142.5780   78.2370  222.6380 H   0  0  0  0  0  0  0  0  0  0  0  0
  140.9922   78.0326  224.2082 H   0  0  0  0  0  0  0  0  0  0  0  0
  141.5058   79.5917  224.9846 H   0  0  0  0  0  0  0  0  0  0  0  0
  138.1691   71.2867  222.8497 H   0  0  0  0  0  0  0  0  0  0  0  0
  138.8227   71.3620  221.2164 H   0  0  0  0  0  0  0  0  0  0  0  0
  138.8414   68.9627  221.8820 H   0  0  0  0  0  0  0  0  0  0  0  0
  140.5196   69.4543  221.9532 H   0  0  0  0  0  0  0  0  0  0  0  0
  138.2844   67.6526  223.8015 H   0  0  0  0  0  0  0  0  0  0  0  0
  138.2772   67.3573  226.2959 H   0  0  0  0  0  0  0  0  0  0  0  0
  139.5123   69.0146  227.6895 H   0  0  0  0  0  0  0  0  0  0  0  0
  140.7216   70.9104  226.6474 H   0  0  0  0  0  0  0  0  0  0  0  0
  140.9647   72.3293  224.6509 H   0  0  0  0  0  0  0  0  0  0  0  0
  141.8992   71.1266  223.6711 H   0  0  0  0  0  0  0  0  0  0  0  0
  142.2920   73.8858  217.9645 H   0  0  0  0  0  0  0  0  0  0  0  0
  143.0111   75.4913  218.4331 H   0  0  0  0  0  0  0  0  0  0  0  0
  144.1265   74.1708  216.5467 H   0  0  0  0  0  0  0  0  0  0  0  0
  145.1535   74.8391  217.8655 H   0  0  0  0  0  0  0  0  0  0  0  0
  145.1957   72.0775  215.9183 H   0  0  0  0  0  0  0  0  0  0  0  0
  145.9974   69.8430  216.6289 H   0  0  0  0  0  0  0  0  0  0  0  0
  146.1260   69.2367  219.0410 H   0  0  0  0  0  0  0  0  0  0  0  0
  145.4299   70.9194  220.7672 H   0  0  0  0  0  0  0  0  0  0  0  0
  144.3933   72.9762  221.2380 H   0  0  0  0  0  0  0  0  0  0  0  0
  145.2765   74.2221  220.3185 H   0  0  0  0  0  0  0  0  0  0  0  0
  1  2  2  0
  2  3  1  0
  3  4  1  0
  4  5  1  0
  5  6  1  0
  6  7  1  0
  7  8  1  0
  8  9  1  0
  9 10  1  0
  2 11  1  0
 11 12  2  0
 12 13  1  0
 13 14  1  0
 14 15  1  0
 15 16  1  0
 16 17  1  0
 17 18  2  0
 18 19  1  0
 19 20  2  0
 20 21  1  0
 21 22  2  0
 22 23  1  0
 13 24  2  0
 24 25  1  0
 25 26  1  0
 26 27  1  0
 27 28  1  0
 28 29  1  0
 29 30  2  0
 30 31  1  0
 31 32  2  0
 32 33  1  0
 33 34  2  0
 34 35  1  0
 25 36  2  0
 10  5  1  0
 36 11  1  0
 23 14  1  0
 35 26  1  0
 22 17  1  0
 34 29  1  0
  3 37  1  0
  4 38  1  0
  4 39  1  0
  5 40  1  1
  6 41  1  0
  6 42  1  0
  7 43  1  0
  7 44  1  0
  8 45  1  0
  8 46  1  0
  9 47  1  0
 10 48  1  0
 10 49  1  0
 15 50  1  0
 15 51  1  0
 16 52  1  0
 16 53  1  0
 18 54  1  0
 19 55  1  0
 20 56  1  0
 21 57  1  0
 23 58  1  0
 23 59  1  0
 27 60  1  0
 27 61  1  0
 28 62  1  0
 28 63  1  0
 30 64  1  0
 31 65  1  0
 32 66  1  0
 33 67  1  0
 35 68  1  0
 35 69  1  0
M  END
>  <smiles>  (22) 
O=C(NCC1CCCNC1)c1nc(N2CCc3ccccc3C2)nc(N2CCc3ccccc3C2)n1

>  <score_type>  (22) 
oracle

>  <origin>  (22) 
autodockgpu

>  <m_score__min__energy>  (22) 
-10.33

>  <m_primary>  (22) 
energy

>  <rmsd>  (22) 
4.784505069913459

>  <m_score__min__rmsd>  (22) 
4.784505069913459

>  <meeko>  (22) 
{"free_energy": -9.3, "intermolecular_energy": -10.79, "internal_energy": -1.68, "cluster_size": 25, "cluster_id": 1, "rank_in_cluster": 14}

>  <energy>  (22) 
-8.98

>  <cluster_rmsd>  (22) 
0.96

>  <cluster>  (22) 
1

$$$$

     RDKit          3D

 69 74  0  0  0  0  0  0  0  0999 V2000
  136.1790   76.5710  222.9480 O   0  0  0  0  0  0  0  0  0  0  0  0
  137.0420   75.6500  222.8510 C   0  0  0  0  0  0  0  0  0  0  0  0
  136.5660   74.3250  223.0930 N   0  0  0  0  0  0  0  0  0  0  0  0
  135.1620   74.1870  223.4180 C   0  0  0  0  0  0  0  0  0  0  0  0
  134.9460   74.0150  224.9060 C   0  0  2  0  0  0  0  0  0  0  0  0
  133.5280   73.5670  225.1150 C   0  0  0  0  0  0  0  0  0  0  0  0
  132.7490   74.5880  225.9320 C   0  0  0  0  0  0  0  0  0  0  0  0
  132.9880   75.9380  225.3150 C   0  0  0  0  0  0  0  0  0  0  0  0
  134.3650   76.3350  225.3590 N   0  0  0  0  0  0  0  0  0  0  0  0
  135.2600   75.2600  225.6800 C   0  0  0  0  0  0  0  0  0  0  0  0
  138.4220   75.9290  222.5180 C   0  0  0  0  0  0  0  0  0  0  0  0
  139.2380   74.9700  222.0360 N   0  0  0  0  0  0  0  0  0  0  0  0
  140.5250   75.2890  221.7400 C   0  0  0  0  0  0  0  0  0  0  0  0
  141.4410   74.3230  221.2270 N   0  0  0  0  0  0  0  0  0  0  0  0
  141.2220   72.8830  221.3990 C   0  0  0  0  0  0  0  0  0  0  0  0
  141.5980   72.2730  220.0430 C   0  0  0  0  0  0  0  0  0  0  0  0
  143.0980   72.4260  220.0080 C   0  0  0  0  0  0  0  0  0  0  0  0
  143.9250   71.3550  219.7470 C   0  0  0  0  0  0  0  0  0  0  0  0
  145.3040   71.5360  219.7230 C   0  0  0  0  0  0  0  0  0  0  0  0
  145.7910   72.8110  219.9680 C   0  0  0  0  0  0  0  0  0  0  0  0
  144.9350   73.8830  220.2290 C   0  0  0  0  0  0  0  0  0  0  0  0
  143.5670   73.7010  220.2530 C   0  0  0  0  0  0  0  0  0  0  0  0
  142.6060   74.8020  220.5270 C   0  0  0  0  0  0  0  0  0  0  0  0
  140.9760   76.5440  221.9250 N   0  0  0  0  0  0  0  0  0  0  0  0
  140.1600   77.4860  222.4030 C   0  0  0  0  0  0  0  0  0  0  0  0
  140.6480   78.8050  222.5940 N   0  0  0  0  0  0  0  0  0  0  0  0
  139.9750   79.6860  223.5070 C   0  0  0  0  0  0  0  0  0  0  0  0
  140.5430   81.0680  223.5000 C   0  0  0  0  0  0  0  0  0  0  0  0
  140.8080   81.5000  222.1050 C   0  0  0  0  0  0  0  0  0  0  0  0
  140.4630   82.7170  221.5940 C   0  0  0  0  0  0  0  0  0  0  0  0
  140.7600   83.0160  220.2740 C   0  0  0  0  0  0  0  0  0  0  0  0
  141.4080   82.0960  219.4500 C   0  0  0  0  0  0  0  0  0  0  0  0
  141.7610   80.8580  219.9660 C   0  0  0  0  0  0  0  0  0  0  0  0
  141.4540   80.5890  221.2810 C   0  0  0  0  0  0  0  0  0  0  0  0
  141.8050   79.2810  221.8910 C   0  0  0  0  0  0  0  0  0  0  0  0
  138.8890   77.1700  222.6950 N   0  0  0  0  0  0  0  0  0  0  0  0
  137.2340   73.5320  223.0270 H   0  0  0  0  0  0  0  0  0  0  0  0
  134.6281   75.0882  223.0821 H   0  0  0  0  0  0  0  0  0  0  0  0
  134.7791   73.2896  222.9100 H   0  0  0  0  0  0  0  0  0  0  0  0
  135.6423   73.2556  225.2915 H   0  0  0  0  0  0  0  0  0  0  0  0
  133.0418   73.4429  224.1361 H   0  0  0  0  0  0  0  0  0  0  0  0
  133.5386   72.6134  225.6633 H   0  0  0  0  0  0  0  0  0  0  0  0
  131.6756   74.3486  225.9074 H   0  0  0  0  0  0  0  0  0  0  0  0
  133.0791   74.5777  226.9813 H   0  0  0  0  0  0  0  0  0  0  0  0
  132.6653   75.9058  224.2639 H   0  0  0  0  0  0  0  0  0  0  0  0
  132.4133   76.6736  225.8969 H   0  0  0  0  0  0  0  0  0  0  0  0
  134.6930   76.8320  224.5040 H   0  0  0  0  0  0  0  0  0  0  0  0
  136.2884   75.5729  225.4466 H   0  0  0  0  0  0  0  0  0  0  0  0
  135.1455   75.0318  226.7500 H   0  0  0  0  0  0  0  0  0  0  0  0
  141.8659   72.4843  222.1967 H   0  0  0  0  0  0  0  0  0  0  0  0
  140.1875   72.6490  221.6906 H   0  0  0  0  0  0  0  0  0  0  0  0
  141.3071   71.2134  219.9916 H   0  0  0  0  0  0  0  0  0  0  0  0
  141.0924   72.7568  219.1943 H   0  0  0  0  0  0  0  0  0  0  0  0
  143.4959   70.3599  219.5582 H   0  0  0  0  0  0  0  0  0  0  0  0
  145.9846   70.6968  219.5168 H   0  0  0  0  0  0  0  0  0  0  0  0
  146.8776   72.9821  219.9565 H   0  0  0  0  0  0  0  0  0  0  0  0
  145.3550   74.8821  220.4173 H   0  0  0  0  0  0  0  0  0  0  0  0
  143.1037   75.5663  221.1420 H   0  0  0  0  0  0  0  0  0  0  0  0
  142.2814   75.2248  219.5647 H   0  0  0  0  0  0  0  0  0  0  0  0
  138.9132   79.7406  223.2250 H   0  0  0  0  0  0  0  0  0  0  0  0
  140.1067   79.2780  224.5200 H   0  0  0  0  0  0  0  0  0  0  0  0
  139.8251   81.7594  223.9655 H   0  0  0  0  0  0  0  0  0  0  0  0
  141.4864   81.0739  224.0656 H   0  0  0  0  0  0  0  0  0  0  0  0
  139.9516   83.4573  222.2268 H   0  0  0  0  0  0  0  0  0  0  0  0
  140.4790   83.9989  219.8678 H   0  0  0  0  0  0  0  0  0  0  0  0
  141.6362   82.3491  218.4041 H   0  0  0  0  0  0  0  0  0  0  0  0
  142.2726   80.1109  219.3414 H   0  0  0  0  0  0  0  0  0  0  0  0
  142.0875   78.5647  221.1055 H   0  0  0  0  0  0  0  0  0  0  0  0
  142.6562   79.3918  222.5789 H   0  0  0  0  0  0  0  0  0  0  0  0
  1  2  2  0
  2  3  1  0
  3  4  1  0
  4  5  1  0
  5  6  1  0
  6  7  1  0
  7  8  1  0
  8  9  1  0
  9 10  1  0
  2 11  1  0
 11 12  2  0
 12 13  1  0
 13 14  1  0
 14 15  1  0
 15 16  1  0
 16 17  1  0
 17 18  2  0
 18 19  1  0
 19 20  2  0
 20 21  1  0
 21 22  2  0
 22 23  1  0
 13 24  2  0
 24 25  1  0
 25 26  1  0
 26 27  1  0
 27 28  1  0
 28 29  1  0
 29 30  2  0
 30 31  1  0
 31 32  2  0
 32 33  1  0
 33 34  2  0
 34 35  1  0
 25 36  2  0
 10  5  1  0
 36 11  1  0
 23 14  1  0
 35 26  1  0
 22 17  1  0
 34 29  1  0
  3 37  1  0
  4 38  1  0
  4 39  1  0
  5 40  1  1
  6 41  1  0
  6 42  1  0
  7 43  1  0
  7 44  1  0
  8 45  1  0
  8 46  1  0
  9 47  1  0
 10 48  1  0
 10 49  1  0
 15 50  1  0
 15 51  1  0
 16 52  1  0
 16 53  1  0
 18 54  1  0
 19 55  1  0
 20 56  1  0
 21 57  1  0
 23 58  1  0
 23 59  1  0
 27 60  1  0
 27 61  1  0
 28 62  1  0
 28 63  1  0
 30 64  1  0
 31 65  1  0
 32 66  1  0
 33 67  1  0
 35 68  1  0
 35 69  1  0
M  END
>  <smiles>  (23) 
O=C(NCC1CCCNC1)c1nc(N2CCc3ccccc3C2)nc(N2CCc3ccccc3C2)n1

>  <score_type>  (23) 
oracle

>  <origin>  (23) 
autodockgpu

>  <m_score__min__energy>  (23) 
-10.33

>  <m_primary>  (23) 
energy

>  <rmsd>  (23) 
7.913089398904227

>  <m_score__min__rmsd>  (23) 
7.913089398904227

>  <meeko>  (23) 
{"free_energy": -8.3, "intermolecular_energy": -9.79, "internal_energy": -1.89, "cluster_size": 3, "cluster_id": 7, "rank_in_cluster": 3}

>  <energy>  (23) 
-8.84

>  <cluster_rmsd>  (23) 
1.79

>  <cluster>  (23) 
1

$$$$

     RDKit          3D

 69 74  0  0  0  0  0  0  0  0999 V2000
  142.0220   72.8550  217.9410 O   0  0  0  0  0  0  0  0  0  0  0  0
  142.0470   72.2350  219.0440 C   0  0  0  0  0  0  0  0  0  0  0  0
  142.7970   71.0200  219.0570 N   0  0  0  0  0  0  0  0  0  0  0  0
  143.4390   70.6370  217.8190 C   0  0  0  0  0  0  0  0  0  0  0  0
  144.9380   70.8400  217.8780 C   0  0  2  0  0  0  0  0  0  0  0  0
  145.3480   70.8150  219.3220 C   0  0  0  0  0  0  0  0  0  0  0  0
  145.9580   72.1450  219.7380 C   0  0  0  0  0  0  0  0  0  0  0  0
  145.0280   73.2340  219.2780 C   0  0  0  0  0  0  0  0  0  0  0  0
  144.8790   73.2730  217.8520 N   0  0  0  0  0  0  0  0  0  0  0  0
  145.3760   72.0990  217.1930 C   0  0  0  0  0  0  0  0  0  0  0  0
  141.3550   72.7320  220.2140 C   0  0  0  0  0  0  0  0  0  0  0  0
  141.0590   71.9250  221.2530 N   0  0  0  0  0  0  0  0  0  0  0  0
  140.4080   72.4460  222.3260 C   0  0  0  0  0  0  0  0  0  0  0  0
  140.0640   71.6490  223.4580 N   0  0  0  0  0  0  0  0  0  0  0  0
  138.7620   70.9850  223.5680 C   0  0  0  0  0  0  0  0  0  0  0  0
  139.0860   69.5930  224.1250 C   0  0  0  0  0  0  0  0  0  0  0  0
  139.4840   69.8850  225.5500 C   0  0  0  0  0  0  0  0  0  0  0  0
  138.9000   69.2250  226.6100 C   0  0  0  0  0  0  0  0  0  0  0  0
  139.2940   69.5220  227.9110 C   0  0  0  0  0  0  0  0  0  0  0  0
  140.2760   70.4860  228.0840 C   0  0  0  0  0  0  0  0  0  0  0  0
  140.8550   71.1410  226.9960 C   0  0  0  0  0  0  0  0  0  0  0  0
  140.4630   70.8460  225.7060 C   0  0  0  0  0  0  0  0  0  0  0  0
  141.0420   71.5110  224.5080 C   0  0  0  0  0  0  0  0  0  0  0  0
  140.0650   73.7480  222.3490 N   0  0  0  0  0  0  0  0  0  0  0  0
  140.3630   74.5380  221.3150 C   0  0  0  0  0  0  0  0  0  0  0  0
  139.9960   75.9090  221.3520 N   0  0  0  0  0  0  0  0  0  0  0  0
  139.7480   76.6100  220.1240 C   0  0  0  0  0  0  0  0  0  0  0  0
  139.4910   78.0680  220.3330 C   0  0  0  0  0  0  0  0  0  0  0  0
  140.4520   78.6150  221.3230 C   0  0  0  0  0  0  0  0  0  0  0  0
  141.1430   79.7800  221.1680 C   0  0  0  0  0  0  0  0  0  0  0  0
  142.0170   80.1970  222.1590 C   0  0  0  0  0  0  0  0  0  0  0  0
  142.2090   79.4480  223.3200 C   0  0  0  0  0  0  0  0  0  0  0  0
  141.5070   78.2630  223.4820 C   0  0  0  0  0  0  0  0  0  0  0  0
  140.6460   77.8730  222.4800 C   0  0  0  0  0  0  0  0  0  0  0  0
  139.8680   76.6140  222.5950 C   0  0  0  0  0  0  0  0  0  0  0  0
  141.0060   74.0230  220.2550 N   0  0  0  0  0  0  0  0  0  0  0  0
  142.8490   70.4720  219.9400 H   0  0  0  0  0  0  0  0  0  0  0  0
  143.2308   69.5747  217.6235 H   0  0  0  0  0  0  0  0  0  0  0  0
  143.0389   71.2723  217.0150 H   0  0  0  0  0  0  0  0  0  0  0  0
  145.4383   70.0283  217.3295 H   0  0  0  0  0  0  0  0  0  0  0  0
  144.4630   70.6148  219.9439 H   0  0  0  0  0  0  0  0  0  0  0  0
  146.1015   70.0254  219.4590 H   0  0  0  0  0  0  0  0  0  0  0  0
  146.0673   72.1820  220.8319 H   0  0  0  0  0  0  0  0  0  0  0  0
  146.9540   72.2713  219.2885 H   0  0  0  0  0  0  0  0  0  0  0  0
  144.0394   73.0659  219.7301 H   0  0  0  0  0  0  0  0  0  0  0  0
  145.4626   74.1946  219.5917 H   0  0  0  0  0  0  0  0  0  0  0  0
  143.9100   73.4820  217.5310 H   0  0  0  0  0  0  0  0  0  0  0  0
  145.0027   72.0882  216.1583 H   0  0  0  0  0  0  0  0  0  0  0  0
  146.4751   72.1348  217.2204 H   0  0  0  0  0  0  0  0  0  0  0  0
  138.1021   71.5348  224.2552 H   0  0  0  0  0  0  0  0  0  0  0  0
  138.2343   70.9371  222.6040 H   0  0  0  0  0  0  0  0  0  0  0  0
  138.2043   68.9364  224.0869 H   0  0  0  0  0  0  0  0  0  0  0  0
  139.8663   69.0676  223.5548 H   0  0  0  0  0  0  0  0  0  0  0  0
  138.1250   68.4659  226.4279 H   0  0  0  0  0  0  0  0  0  0  0  0
  138.8420   69.0096  228.7730 H   0  0  0  0  0  0  0  0  0  0  0  0
  140.6061   70.7402  229.1021 H   0  0  0  0  0  0  0  0  0  0  0  0
  141.6319   71.9003  227.1685 H   0  0  0  0  0  0  0  0  0  0  0  0
  141.4041   72.5098  224.7932 H   0  0  0  0  0  0  0  0  0  0  0  0
  141.8676   70.8888  224.1321 H   0  0  0  0  0  0  0  0  0  0  0  0
  140.6262   76.4976  219.4712 H   0  0  0  0  0  0  0  0  0  0  0  0
  138.8451   76.1754  219.6701 H   0  0  0  0  0  0  0  0  0  0  0  0
  139.6099   78.5997  219.3774 H   0  0  0  0  0  0  0  0  0  0  0  0
  138.4667   78.2041  220.7101 H   0  0  0  0  0  0  0  0  0  0  0  0
  141.0073   80.3862  220.2602 H   0  0  0  0  0  0  0  0  0  0  0  0
  142.5709   81.1382  222.0275 H   0  0  0  0  0  0  0  0  0  0  0  0
  142.9077   79.7926  224.0965 H   0  0  0  0  0  0  0  0  0  0  0  0
  141.6344   77.6506  224.3868 H   0  0  0  0  0  0  0  0  0  0  0  0
  140.2665   76.0007  223.4167 H   0  0  0  0  0  0  0  0  0  0  0  0
  138.8110   76.8315  222.8083 H   0  0  0  0  0  0  0  0  0  0  0  0
  1  2  2  0
  2  3  1  0
  3  4  1  0
  4  5  1  0
  5  6  1  0
  6  7  1  0
  7  8  1  0
  8  9  1  0
  9 10  1  0
  2 11  1  0
 11 12  2  0
 12 13  1  0
 13 14  1  0
 14 15  1  0
 15 16  1  0
 16 17  1  0
 17 18  2  0
 18 19  1  0
 19 20  2  0
 20 21  1  0
 21 22  2  0
 22 23  1  0
 13 24  2  0
 24 25  1  0
 25 26  1  0
 26 27  1  0
 27 28  1  0
 28 29  1  0
 29 30  2  0
 30 31  1  0
 31 32  2  0
 32 33  1  0
 33 34  2  0
 34 35  1  0
 25 36  2  0
 10  5  1  0
 36 11  1  0
 23 14  1  0
 35 26  1  0
 22 17  1  0
 34 29  1  0
  3 37  1  0
  4 38  1  0
  4 39  1  0
  5 40  1  6
  6 41  1  0
  6 42  1  0
  7 43  1  0
  7 44  1  0
  8 45  1  0
  8 46  1  0
  9 47  1  0
 10 48  1  0
 10 49  1  0
 15 50  1  0
 15 51  1  0
 16 52  1  0
 16 53  1  0
 18 54  1  0
 19 55  1  0
 20 56  1  0
 21 57  1  0
 23 58  1  0
 23 59  1  0
 27 60  1  0
 27 61  1  0
 28 62  1  0
 28 63  1  0
 30 64  1  0
 31 65  1  0
 32 66  1  0
 33 67  1  0
 35 68  1  0
 35 69  1  0
M  END
>  <smiles>  (24) 
O=C(NCC1CCCNC1)c1nc(N2CCc3ccccc3C2)nc(N2CCc3ccccc3C2)n1

>  <score_type>  (24) 
oracle

>  <origin>  (24) 
autodockgpu

>  <m_score__min__energy>  (24) 
-10.33

>  <m_primary>  (24) 
energy

>  <rmsd>  (24) 
6.726332401323567

>  <m_score__min__rmsd>  (24) 
6.726332401323567

>  <meeko>  (24) 
{"free_energy": -8.52, "intermolecular_energy": -10.01, "internal_energy": -2.06, "cluster_size": 6, "cluster_id": 6, "rank_in_cluster": 5}

>  <energy>  (24) 
-8.8

>  <cluster_rmsd>  (24) 
1.8

>  <cluster>  (24) 
1

$$$$

     RDKit          3D

 69 74  0  0  0  0  0  0  0  0999 V2000
  139.6700   75.4900  220.3230 O   0  0  0  0  0  0  0  0  0  0  0  0
  140.4810   75.1200  221.2210 C   0  0  0  0  0  0  0  0  0  0  0  0
  141.1530   76.1670  221.9220 N   0  0  0  0  0  0  0  0  0  0  0  0
  140.8330   77.5230  221.5300 C   0  0  0  0  0  0  0  0  0  0  0  0
  140.5760   78.4080  222.7300 C   0  0  2  0  0  0  0  0  0  0  0  0
  139.9840   79.6950  222.2330 C   0  0  0  0  0  0  0  0  0  0  0  0
  140.8880   80.8740  222.5640 C   0  0  0  0  0  0  0  0  0  0  0  0
  142.2810   80.5140  222.1280 C   0  0  0  0  0  0  0  0  0  0  0  0
  142.8070   79.3770  222.8270 N   0  0  0  0  0  0  0  0  0  0  0  0
  141.8100   78.6380  223.5490 C   0  0  0  0  0  0  0  0  0  0  0  0
  140.7090   73.7210  221.5140 C   0  0  0  0  0  0  0  0  0  0  0  0
  141.2770   72.8960  220.6110 N   0  0  0  0  0  0  0  0  0  0  0  0
  141.4680   71.5910  220.9410 C   0  0  0  0  0  0  0  0  0  0  0  0
  142.0630   70.6650  220.0330 N   0  0  0  0  0  0  0  0  0  0  0  0
  141.2620   69.9060  219.0680 C   0  0  0  0  0  0  0  0  0  0  0  0
  142.0830   69.9440  217.7740 C   0  0  0  0  0  0  0  0  0  0  0  0
  143.2500   69.0420  218.0880 C   0  0  0  0  0  0  0  0  0  0  0  0
  143.5960   67.9960  217.2590 C   0  0  0  0  0  0  0  0  0  0  0  0
  144.6800   67.1870  217.5840 C   0  0  0  0  0  0  0  0  0  0  0  0
  145.3750   67.4750  218.7490 C   0  0  0  0  0  0  0  0  0  0  0  0
  145.0070   68.5400  219.5740 C   0  0  0  0  0  0  0  0  0  0  0  0
  143.9320   69.3420  219.2500 C   0  0  0  0  0  0  0  0  0  0  0  0
  143.4920   70.4880  220.0890 C   0  0  0  0  0  0  0  0  0  0  0  0
  141.0940   71.1320  222.1500 N   0  0  0  0  0  0  0  0  0  0  0  0
  140.5320   71.9570  223.0360 C   0  0  0  0  0  0  0  0  0  0  0  0
  140.1430   71.4610  224.3070 N   0  0  0  0  0  0  0  0  0  0  0  0
  140.8310   71.9080  225.4850 C   0  0  0  0  0  0  0  0  0  0  0  0
  140.3780   71.2020  226.7220 C   0  0  0  0  0  0  0  0  0  0  0  0
  140.2270   69.7500  226.4510 C   0  0  0  0  0  0  0  0  0  0  0  0
  140.6980   68.7590  227.2620 C   0  0  0  0  0  0  0  0  0  0  0  0
  140.5010   67.4340  226.9100 C   0  0  0  0  0  0  0  0  0  0  0  0
  139.8290   67.0860  225.7390 C   0  0  0  0  0  0  0  0  0  0  0  0
  139.3480   68.0900  224.9120 C   0  0  0  0  0  0  0  0  0  0  0  0
  139.5590   69.3990  225.2870 C   0  0  0  0  0  0  0  0  0  0  0  0
  139.0690   70.5180  224.4430 C   0  0  0  0  0  0  0  0  0  0  0  0
  140.3440   73.2460  222.7100 N   0  0  0  0  0  0  0  0  0  0  0  0
  141.8310   75.9170  222.6700 H   0  0  0  0  0  0  0  0  0  0  0  0
  141.6758   77.9363  220.9565 H   0  0  0  0  0  0  0  0  0  0  0  0
  139.9168   77.4964  220.9218 H   0  0  0  0  0  0  0  0  0  0  0  0
  139.8713   77.9069  223.4099 H   0  0  0  0  0  0  0  0  0  0  0  0
  139.8561   79.6347  221.1421 H   0  0  0  0  0  0  0  0  0  0  0  0
  139.0129   79.8481  222.7266 H   0  0  0  0  0  0  0  0  0  0  0  0
  140.5467   81.7710  222.0266 H   0  0  0  0  0  0  0  0  0  0  0  0
  140.8638   81.0890  223.6425 H   0  0  0  0  0  0  0  0  0  0  0  0
  142.2648   80.2879  221.0516 H   0  0  0  0  0  0  0  0  0  0  0  0
  142.9309   81.3718  222.3556 H   0  0  0  0  0  0  0  0  0  0  0  0
  143.3700   78.7340  222.2320 H   0  0  0  0  0  0  0  0  0  0  0  0
  142.2307   77.6636  223.8380 H   0  0  0  0  0  0  0  0  0  0  0  0
  141.5251   79.2275  224.4329 H   0  0  0  0  0  0  0  0  0  0  0  0
  141.1214   68.8697  219.4090 H   0  0  0  0  0  0  0  0  0  0  0  0
  140.2546   70.3278  218.9369 H   0  0  0  0  0  0  0  0  0  0  0  0
  141.5010   69.5568  216.9247 H   0  0  0  0  0  0  0  0  0  0  0  0
  142.3861   70.9603  217.4819 H   0  0  0  0  0  0  0  0  0  0  0  0
  143.0170   67.8019  216.3441 H   0  0  0  0  0  0  0  0  0  0  0  0
  144.9760   66.3469  216.9385 H   0  0  0  0  0  0  0  0  0  0  0  0
  146.2358   66.8503  219.0296 H   0  0  0  0  0  0  0  0  0  0  0  0
  145.5798   68.7415  220.4912 H   0  0  0  0  0  0  0  0  0  0  0  0
  143.7887   70.3023  221.1318 H   0  0  0  0  0  0  0  0  0  0  0  0
  143.9685   71.4014  219.7033 H   0  0  0  0  0  0  0  0  0  0  0  0
  141.9082   71.7289  225.3524 H   0  0  0  0  0  0  0  0  0  0  0  0
  140.6085   72.9776  225.6133 H   0  0  0  0  0  0  0  0  0  0  0  0
  141.1224   71.3485  227.5185 H   0  0  0  0  0  0  0  0  0  0  0  0
  139.4080   71.6133  227.0380 H   0  0  0  0  0  0  0  0  0  0  0  0
  141.2313   69.0110  228.1904 H   0  0  0  0  0  0  0  0  0  0  0  0
  140.8828   66.6396  227.5681 H   0  0  0  0  0  0  0  0  0  0  0  0
  139.6822   66.0284  225.4744 H   0  0  0  0  0  0  0  0  0  0  0  0
  138.8127   67.8480  223.9820 H   0  0  0  0  0  0  0  0  0  0  0  0
  138.7740   70.1400  223.4530 H   0  0  0  0  0  0  0  0  0  0  0  0
  138.1919   70.9950  224.9046 H   0  0  0  0  0  0  0  0  0  0  0  0
  1  2  2  0
  2  3  1  0
  3  4  1  0
  4  5  1  0
  5  6  1  0
  6  7  1  0
  7  8  1  0
  8  9  1  0
  9 10  1  0
  2 11  1  0
 11 12  2  0
 12 13  1  0
 13 14  1  0
 14 15  1  0
 15 16  1  0
 16 17  1  0
 17 18  2  0
 18 19  1  0
 19 20  2  0
 20 21  1  0
 21 22  2  0
 22 23  1  0
 13 24  2  0
 24 25  1  0
 25 26  1  0
 26 27  1  0
 27 28  1  0
 28 29  1  0
 29 30  2  0
 30 31  1  0
 31 32  2  0
 32 33  1  0
 33 34  2  0
 34 35  1  0
 25 36  2  0
 10  5  1  0
 36 11  1  0
 23 14  1  0
 35 26  1  0
 22 17  1  0
 34 29  1  0
  3 37  1  0
  4 38  1  0
  4 39  1  0
  5 40  1  1
  6 41  1  0
  6 42  1  0
  7 43  1  0
  7 44  1  0
  8 45  1  0
  8 46  1  0
  9 47  1  0
 10 48  1  0
 10 49  1  0
 15 50  1  0
 15 51  1  0
 16 52  1  0
 16 53  1  0
 18 54  1  0
 19 55  1  0
 20 56  1  0
 21 57  1  0
 23 58  1  0
 23 59  1  0
 27 60  1  0
 27 61  1  0
 28 62  1  0
 28 63  1  0
 30 64  1  0
 31 65  1  0
 32 66  1  0
 33 67  1  0
 35 68  1  0
 35 69  1  0
M  END
>  <smiles>  (25) 
O=C(NCC1CCCNC1)c1nc(N2CCc3ccccc3C2)nc(N2CCc3ccccc3C2)n1

>  <score_type>  (25) 
oracle

>  <origin>  (25) 
autodockgpu

>  <m_score__min__energy>  (25) 
-10.33

>  <m_primary>  (25) 
energy

>  <rmsd>  (25) 
3.973910943794936

>  <m_score__min__rmsd>  (25) 
3.973910943794936

>  <meeko>  (25) 
{"free_energy": -9.94, "intermolecular_energy": -11.43, "internal_energy": -1.01, "cluster_size": 25, "cluster_id": 1, "rank_in_cluster": 7}

>  <energy>  (25) 
-8.69

>  <cluster_rmsd>  (25) 
1.51

>  <cluster>  (25) 
1

$$$$

     RDKit          3D

 69 74  0  0  0  0  0  0  0  0999 V2000
  139.1920   75.8760  221.0920 O   0  0  0  0  0  0  0  0  0  0  0  0
  140.3500   75.4230  221.3310 C   0  0  0  0  0  0  0  0  0  0  0  0
  141.3930   76.3960  221.4100 N   0  0  0  0  0  0  0  0  0  0  0  0
  141.0120   77.7770  221.2090 C   0  0  0  0  0  0  0  0  0  0  0  0
  140.6220   78.4460  222.5100 C   0  0  2  0  0  0  0  0  0  0  0  0
  140.0230   79.7820  222.1780 C   0  0  0  0  0  0  0  0  0  0  0  0
  140.8490   80.9120  222.7740 C   0  0  0  0  0  0  0  0  0  0  0  0
  142.2860   80.6640  222.4100 C   0  0  0  0  0  0  0  0  0  0  0  0
  142.7970   79.4420  222.9600 N   0  0  0  0  0  0  0  0  0  0  0  0
  141.7730   78.5690  223.4620 C   0  0  0  0  0  0  0  0  0  0  0  0
  140.5940   74.0090  221.5110 C   0  0  0  0  0  0  0  0  0  0  0  0
  140.2800   73.3810  222.6620 N   0  0  0  0  0  0  0  0  0  0  0  0
  140.5310   72.0500  222.7750 C   0  0  0  0  0  0  0  0  0  0  0  0
  140.2240   71.3240  223.9650 N   0  0  0  0  0  0  0  0  0  0  0  0
  139.1900   70.2840  223.9890 C   0  0  0  0  0  0  0  0  0  0  0  0
  139.8020   69.1550  224.8280 C   0  0  0  0  0  0  0  0  0  0  0  0
  139.7950   69.7290  226.2220 C   0  0  0  0  0  0  0  0  0  0  0  0
  139.2360   69.0430  227.2800 C   0  0  0  0  0  0  0  0  0  0  0  0
  139.2490   69.6060  228.5520 C   0  0  0  0  0  0  0  0  0  0  0  0
  139.8360   70.8540  228.7000 C   0  0  0  0  0  0  0  0  0  0  0  0
  140.3970   71.5300  227.6150 C   0  0  0  0  0  0  0  0  0  0  0  0
  140.3830   70.9710  226.3530 C   0  0  0  0  0  0  0  0  0  0  0  0
  140.9630   71.6430  225.1600 C   0  0  0  0  0  0  0  0  0  0  0  0
  141.0860   71.3710  221.7530 N   0  0  0  0  0  0  0  0  0  0  0  0
  141.3940   72.0030  220.6180 C   0  0  0  0  0  0  0  0  0  0  0  0
  141.9780   71.2770  219.5480 N   0  0  0  0  0  0  0  0  0  0  0  0
  141.3110   70.1160  219.0290 C   0  0  0  0  0  0  0  0  0  0  0  0
  142.1140   69.4050  217.9900 C   0  0  0  0  0  0  0  0  0  0  0  0
  143.5340   69.3210  218.4150 C   0  0  0  0  0  0  0  0  0  0  0  0
  144.2970   68.1930  218.3460 C   0  0  0  0  0  0  0  0  0  0  0  0
  145.6150   68.2280  218.7730 C   0  0  0  0  0  0  0  0  0  0  0  0
  146.1840   69.3990  219.2750 C   0  0  0  0  0  0  0  0  0  0  0  0
  145.4110   70.5480  219.3460 C   0  0  0  0  0  0  0  0  0  0  0  0
  144.1050   70.4830  218.9150 C   0  0  0  0  0  0  0  0  0  0  0  0
  143.2280   71.6800  218.9680 C   0  0  0  0  0  0  0  0  0  0  0  0
  141.1450   73.3170  220.5070 N   0  0  0  0  0  0  0  0  0  0  0  0
  142.3630   76.0770  221.6040 H   0  0  0  0  0  0  0  0  0  0  0  0
  141.8612   78.3206  220.7693 H   0  0  0  0  0  0  0  0  0  0  0  0
  140.1404   77.7978  220.5383 H   0  0  0  0  0  0  0  0  0  0  0  0
  139.8838   77.8215  223.0345 H   0  0  0  0  0  0  0  0  0  0  0  0
  139.9885   79.8993  221.0848 H   0  0  0  0  0  0  0  0  0  0  0  0
  139.0091   79.8271  222.6021 H   0  0  0  0  0  0  0  0  0  0  0  0
  140.5184   81.8766  222.3613 H   0  0  0  0  0  0  0  0  0  0  0  0
  140.7271   80.9455  223.8667 H   0  0  0  0  0  0  0  0  0  0  0  0
  142.3676   80.6170  221.3140 H   0  0  0  0  0  0  0  0  0  0  0  0
  142.8804   81.4892  222.8292 H   0  0  0  0  0  0  0  0  0  0  0  0
  143.4320   78.9200  222.3200 H   0  0  0  0  0  0  0  0  0  0  0  0
  142.2062   77.5713  223.6259 H   0  0  0  0  0  0  0  0  0  0  0  0
  141.3923   78.9973  224.4009 H   0  0  0  0  0  0  0  0  0  0  0  0
  138.2692   70.6616  224.4575 H   0  0  0  0  0  0  0  0  0  0  0  0
  138.9084   69.9501  222.9794 H   0  0  0  0  0  0  0  0  0  0  0  0
  139.1887   68.2435  224.7723 H   0  0  0  0  0  0  0  0  0  0  0  0
  140.8038   68.8547  224.4871 H   0  0  0  0  0  0  0  0  0  0  0  0
  138.7816   68.0544  227.1185 H   0  0  0  0  0  0  0  0  0  0  0  0
  138.8086   69.0793  229.4114 H   0  0  0  0  0  0  0  0  0  0  0  0
  139.8600   71.3218  229.6953 H   0  0  0  0  0  0  0  0  0  0  0  0
  140.8550   72.5184  227.7674 H   0  0  0  0  0  0  0  0  0  0  0  0
  140.9390   72.7317  225.3156 H   0  0  0  0  0  0  0  0  0  0  0  0
  141.9967   71.2893  225.0322 H   0  0  0  0  0  0  0  0  0  0  0  0
  141.1166   69.4214  219.8595 H   0  0  0  0  0  0  0  0  0  0  0  0
  140.3783   70.4539  218.5537 H   0  0  0  0  0  0  0  0  0  0  0  0
  141.7143   68.3895  217.8525 H   0  0  0  0  0  0  0  0  0  0  0  0
  142.0529   69.9615  217.0431 H   0  0  0  0  0  0  0  0  0  0  0  0
  143.8682   67.2593  217.9531 H   0  0  0  0  0  0  0  0  0  0  0  0
  146.2248   67.3143  218.7150 H   0  0  0  0  0  0  0  0  0  0  0  0
  147.2317   69.4105  219.6099 H   0  0  0  0  0  0  0  0  0  0  0  0
  145.8303   71.4870  219.7365 H   0  0  0  0  0  0  0  0  0  0  0  0
  143.6948   72.4599  219.5875 H   0  0  0  0  0  0  0  0  0  0  0  0
  143.0716   72.0893  217.9590 H   0  0  0  0  0  0  0  0  0  0  0  0
  1  2  2  0
  2  3  1  0
  3  4  1  0
  4  5  1  0
  5  6  1  0
  6  7  1  0
  7  8  1  0
  8  9  1  0
  9 10  1  0
  2 11  1  0
 11 12  2  0
 12 13  1  0
 13 14  1  0
 14 15  1  0
 15 16  1  0
 16 17  1  0
 17 18  2  0
 18 19  1  0
 19 20  2  0
 20 21  1  0
 21 22  2  0
 22 23  1  0
 13 24  2  0
 24 25  1  0
 25 26  1  0
 26 27  1  0
 27 28  1  0
 28 29  1  0
 29 30  2  0
 30 31  1  0
 31 32  2  0
 32 33  1  0
 33 34  2  0
 34 35  1  0
 25 36  2  0
 10  5  1  0
 36 11  1  0
 23 14  1  0
 35 26  1  0
 22 17  1  0
 34 29  1  0
  3 37  1  0
  4 38  1  0
  4 39  1  0
  5 40  1  1
  6 41  1  0
  6 42  1  0
  7 43  1  0
  7 44  1  0
  8 45  1  0
  8 46  1  0
  9 47  1  0
 10 48  1  0
 10 49  1  0
 15 50  1  0
 15 51  1  0
 16 52  1  0
 16 53  1  0
 18 54  1  0
 19 55  1  0
 20 56  1  0
 21 57  1  0
 23 58  1  0
 23 59  1  0
 27 60  1  0
 27 61  1  0
 28 62  1  0
 28 63  1  0
 30 64  1  0
 31 65  1  0
 32 66  1  0
 33 67  1  0
 35 68  1  0
 35 69  1  0
M  END
>  <smiles>  (26) 
O=C(NCC1CCCNC1)c1nc(N2CCc3ccccc3C2)nc(N2CCc3ccccc3C2)n1

>  <score_type>  (26) 
oracle

>  <origin>  (26) 
autodockgpu

>  <m_score__min__energy>  (26) 
-10.33

>  <m_primary>  (26) 
energy

>  <rmsd>  (26) 
3.9230011857024407

>  <m_score__min__rmsd>  (26) 
3.9230011857024407

>  <meeko>  (26) 
{"free_energy": -10.15, "intermolecular_energy": -11.64, "internal_energy": -1.03, "cluster_size": 25, "cluster_id": 1, "rank_in_cluster": 5}

>  <energy>  (26) 
-9.55

>  <cluster_rmsd>  (26) 
0.0

>  <cluster>  (26) 
2

$$$$

     RDKit          3D

 69 74  0  0  0  0  0  0  0  0999 V2000
  138.7610   71.7290  221.8530 O   0  0  0  0  0  0  0  0  0  0  0  0
  139.8600   72.1090  222.3540 C   0  0  0  0  0  0  0  0  0  0  0  0
  140.4010   71.2690  223.3740 N   0  0  0  0  0  0  0  0  0  0  0  0
  139.6390   70.0880  223.7170 C   0  0  0  0  0  0  0  0  0  0  0  0
  139.1770   70.1180  225.1580 C   0  0  2  0  0  0  0  0  0  0  0  0
  140.3870   70.3150  226.0250 C   0  0  0  0  0  0  0  0  0  0  0  0
  140.5910   69.1270  226.9540 C   0  0  0  0  0  0  0  0  0  0  0  0
  140.5070   67.8800  226.1190 C   0  0  0  0  0  0  0  0  0  0  0  0
  139.2230   67.7080  225.5020 N   0  0  0  0  0  0  0  0  0  0  0  0
  138.4080   68.8890  225.5410 C   0  0  0  0  0  0  0  0  0  0  0  0
  140.5200   73.3200  221.9160 C   0  0  0  0  0  0  0  0  0  0  0  0
  140.1200   74.5350  222.3450 N   0  0  0  0  0  0  0  0  0  0  0  0
  140.7770   75.6380  221.9010 C   0  0  0  0  0  0  0  0  0  0  0  0
  140.4060   76.9530  222.3140 N   0  0  0  0  0  0  0  0  0  0  0  0
  141.3390   77.8320  223.0250 C   0  0  0  0  0  0  0  0  0  0  0  0
  141.1280   79.2110  222.3890 C   0  0  0  0  0  0  0  0  0  0  0  0
  139.7670   79.6130  222.8990 C   0  0  0  0  0  0  0  0  0  0  0  0
  139.5610   80.8250  223.5230 C   0  0  0  0  0  0  0  0  0  0  0  0
  138.2900   81.1600  223.9790 C   0  0  0  0  0  0  0  0  0  0  0  0
  137.2710   80.2410  223.7810 C   0  0  0  0  0  0  0  0  0  0  0  0
  137.5020   79.0190  223.1470 C   0  0  0  0  0  0  0  0  0  0  0  0
  138.7630   78.6880  222.6940 C   0  0  0  0  0  0  0  0  0  0  0  0
  139.0700   77.4030  222.0120 C   0  0  0  0  0  0  0  0  0  0  0  0
  141.8110   75.5190  221.0470 N   0  0  0  0  0  0  0  0  0  0  0  0
  142.1990   74.3120  220.6280 C   0  0  0  0  0  0  0  0  0  0  0  0
  143.2900   74.1980  219.7280 N   0  0  0  0  0  0  0  0  0  0  0  0
  143.1100   74.5470  218.3470 C   0  0  0  0  0  0  0  0  0  0  0  0
  144.3190   74.2580  217.5170 C   0  0  0  0  0  0  0  0  0  0  0  0
  144.8830   72.9360  217.8850 C   0  0  0  0  0  0  0  0  0  0  0  0
  145.2720   71.9840  216.9890 C   0  0  0  0  0  0  0  0  0  0  0  0
  145.7860   70.7810  217.4450 C   0  0  0  0  0  0  0  0  0  0  0  0
  145.9170   70.5180  218.8090 C   0  0  0  0  0  0  0  0  0  0  0  0
  145.5240   71.4840  219.7230 C   0  0  0  0  0  0  0  0  0  0  0  0
  145.0160   72.6700  219.2410 C   0  0  0  0  0  0  0  0  0  0  0  0
  144.5770   73.7410  220.1700 C   0  0  0  0  0  0  0  0  0  0  0  0
  141.5490   73.2220  221.0670 N   0  0  0  0  0  0  0  0  0  0  0  0
  141.3030   71.5370  223.8190 H   0  0  0  0  0  0  0  0  0  0  0  0
  138.7577   70.0297  223.0614 H   0  0  0  0  0  0  0  0  0  0  0  0
  140.2887   69.2104  223.5837 H   0  0  0  0  0  0  0  0  0  0  0  0
  138.4730   70.9514  225.2983 H   0  0  0  0  0  0  0  0  0  0  0  0
  141.2742   70.4274  225.3844 H   0  0  0  0  0  0  0  0  0  0  0  0
  140.2369   71.2168  226.6368 H   0  0  0  0  0  0  0  0  0  0  0  0
  141.5784   69.1913  227.4344 H   0  0  0  0  0  0  0  0  0  0  0  0
  139.8249   69.1167  227.7433 H   0  0  0  0  0  0  0  0  0  0  0  0
  141.2715   67.9335  225.3299 H   0  0  0  0  0  0  0  0  0  0  0  0
  140.6698   67.0223  226.7883 H   0  0  0  0  0  0  0  0  0  0  0  0
  139.2640   67.3320  224.5320 H   0  0  0  0  0  0  0  0  0  0  0  0
  137.5683   68.7637  224.8416 H   0  0  0  0  0  0  0  0  0  0  0  0
  138.0515   69.0205  226.5733 H   0  0  0  0  0  0  0  0  0  0  0  0
  141.1051   77.8595  224.0995 H   0  0  0  0  0  0  0  0  0  0  0  0
  142.3810   77.4890  222.9438 H   0  0  0  0  0  0  0  0  0  0  0  0
  141.9001   79.9214  222.7194 H   0  0  0  0  0  0  0  0  0  0  0  0
  141.1937   79.1975  221.2911 H   0  0  0  0  0  0  0  0  0  0  0  0
  140.3987   81.5247  223.6598 H   0  0  0  0  0  0  0  0  0  0  0  0
  138.1001   82.1210  224.4794 H   0  0  0  0  0  0  0  0  0  0  0  0
  136.2563   80.4805  224.1319 H   0  0  0  0  0  0  0  0  0  0  0  0
  136.6705   78.3126  223.0070 H   0  0  0  0  0  0  0  0  0  0  0  0
  138.3514   76.6400  222.3459 H   0  0  0  0  0  0  0  0  0  0  0  0
  138.9953   77.5611  220.9260 H   0  0  0  0  0  0  0  0  0  0  0  0
  142.2623   73.9719  217.9462 H   0  0  0  0  0  0  0  0  0  0  0  0
  142.9253   75.6303  218.2993 H   0  0  0  0  0  0  0  0  0  0  0  0
  144.0376   74.2508  216.4536 H   0  0  0  0  0  0  0  0  0  0  0  0
  145.0753   75.0361  217.6975 H   0  0  0  0  0  0  0  0  0  0  0  0
  145.1780   72.1706  215.9090 H   0  0  0  0  0  0  0  0  0  0  0  0
  146.0972   70.0175  216.7168 H   0  0  0  0  0  0  0  0  0  0  0  0
  146.3265   69.5574  219.1547 H   0  0  0  0  0  0  0  0  0  0  0  0
  145.6156   71.3076  220.8049 H   0  0  0  0  0  0  0  0  0  0  0  0
  144.5029   73.3432  221.1929 H   0  0  0  0  0  0  0  0  0  0  0  0
  145.3007   74.5694  220.1743 H   0  0  0  0  0  0  0  0  0  0  0  0
  1  2  2  0
  2  3  1  0
  3  4  1  0
  4  5  1  0
  5  6  1  0
  6  7  1  0
  7  8  1  0
  8  9  1  0
  9 10  1  0
  2 11  1  0
 11 12  2  0
 12 13  1  0
 13 14  1  0
 14 15  1  0
 15 16  1  0
 16 17  1  0
 17 18  2  0
 18 19  1  0
 19 20  2  0
 20 21  1  0
 21 22  2  0
 22 23  1  0
 13 24  2  0
 24 25  1  0
 25 26  1  0
 26 27  1  0
 27 28  1  0
 28 29  1  0
 29 30  2  0
 30 31  1  0
 31 32  2  0
 32 33  1  0
 33 34  2  0
 34 35  1  0
 25 36  2  0
 10  5  1  0
 36 11  1  0
 23 14  1  0
 35 26  1  0
 22 17  1  0
 34 29  1  0
  3 37  1  0
  4 38  1  0
  4 39  1  0
  5 40  1  6
  6 41  1  0
  6 42  1  0
  7 43  1  0
  7 44  1  0
  8 45  1  0
  8 46  1  0
  9 47  1  0
 10 48  1  0
 10 49  1  0
 15 50  1  0
 15 51  1  0
 16 52  1  0
 16 53  1  0
 18 54  1  0
 19 55  1  0
 20 56  1  0
 21 57  1  0
 23 58  1  0
 23 59  1  0
 27 60  1  0
 27 61  1  0
 28 62  1  0
 28 63  1  0
 30 64  1  0
 31 65  1  0
 32 66  1  0
 33 67  1  0
 35 68  1  0
 35 69  1  0
M  END
>  <smiles>  (27) 
O=C(NCC1CCCNC1)c1nc(N2CCc3ccccc3C2)nc(N2CCc3ccccc3C2)n1

>  <score_type>  (27) 
oracle

>  <origin>  (27) 
autodockgpu

>  <m_score__min__energy>  (27) 
-10.33

>  <m_primary>  (27) 
energy

>  <rmsd>  (27) 
8.728884122209152

>  <m_score__min__rmsd>  (27) 
8.728884122209152

>  <meeko>  (27) 
{"free_energy": -9.19, "intermolecular_energy": -10.69, "internal_energy": -1.0, "cluster_size": 4, "cluster_id": 3, "rank_in_cluster": 3}

>  <energy>  (27) 
-8.43

>  <cluster_rmsd>  (27) 
1.68

>  <cluster>  (27) 
2

$$$$

     RDKit          3D

 69 74  0  0  0  0  0  0  0  0999 V2000
  138.6300   76.7930  222.2190 O   0  0  0  0  0  0  0  0  0  0  0  0
  139.8520   76.6690  221.9150 C   0  0  0  0  0  0  0  0  0  0  0  0
  140.5880   77.8860  221.7890 N   0  0  0  0  0  0  0  0  0  0  0  0
  139.8600   79.1150  222.0210 C   0  0  0  0  0  0  0  0  0  0  0  0
  140.2610   79.7660  223.3270 C   0  0  2  0  0  0  0  0  0  0  0  0
  140.6730   81.1790  223.0290 C   0  0  0  0  0  0  0  0  0  0  0  0
  142.1320   81.4090  223.3910 C   0  0  0  0  0  0  0  0  0  0  0  0
  142.9320   80.2890  222.7850 C   0  0  0  0  0  0  0  0  0  0  0  0
  142.5720   79.0020  223.3070 N   0  0  0  0  0  0  0  0  0  0  0  0
  141.3380   79.0070  224.0410 C   0  0  0  0  0  0  0  0  0  0  0  0
  140.4590   75.3720  221.7090 C   0  0  0  0  0  0  0  0  0  0  0  0
  140.0000   74.2710  222.3390 N   0  0  0  0  0  0  0  0  0  0  0  0
  140.6090   73.0780  222.1070 C   0  0  0  0  0  0  0  0  0  0  0  0
  140.1750   71.8760  222.7400 N   0  0  0  0  0  0  0  0  0  0  0  0
  139.0970   71.0540  222.1820 C   0  0  0  0  0  0  0  0  0  0  0  0
  139.5880   69.6110  222.3490 C   0  0  0  0  0  0  0  0  0  0  0  0
  139.4950   69.3940  223.8390 C   0  0  0  0  0  0  0  0  0  0  0  0
  138.8240   68.3130  224.3690 C   0  0  0  0  0  0  0  0  0  0  0  0
  138.7610   68.1480  225.7490 C   0  0  0  0  0  0  0  0  0  0  0  0
  139.3890   69.0970  226.5420 C   0  0  0  0  0  0  0  0  0  0  0  0
  140.0650   70.1830  225.9840 C   0  0  0  0  0  0  0  0  0  0  0  0
  140.1270   70.3460  224.6150 C   0  0  0  0  0  0  0  0  0  0  0  0
  140.8300   71.4820  223.9620 C   0  0  0  0  0  0  0  0  0  0  0  0
  141.6530   72.9990  221.2610 N   0  0  0  0  0  0  0  0  0  0  0  0
  142.0990   74.0950  220.6420 C   0  0  0  0  0  0  0  0  0  0  0  0
  143.2010   73.9980  219.7520 N   0  0  0  0  0  0  0  0  0  0  0  0
  143.0380   74.3800  218.3770 C   0  0  0  0  0  0  0  0  0  0  0  0
  144.2550   74.1060  217.5550 C   0  0  0  0  0  0  0  0  0  0  0  0
  144.8110   72.7730  217.8990 C   0  0  0  0  0  0  0  0  0  0  0  0
  145.2060   71.8410  216.9850 C   0  0  0  0  0  0  0  0  0  0  0  0
  145.7110   70.6260  217.4180 C   0  0  0  0  0  0  0  0  0  0  0  0
  145.8260   70.3310  218.7770 C   0  0  0  0  0  0  0  0  0  0  0  0
  145.4250   71.2760  219.7090 C   0  0  0  0  0  0  0  0  0  0  0  0
  144.9270   72.4750  219.2490 C   0  0  0  0  0  0  0  0  0  0  0  0
  144.4810   73.5260  220.1980 C   0  0  0  0  0  0  0  0  0  0  0  0
  141.4980   75.2730  220.8710 N   0  0  0  0  0  0  0  0  0  0  0  0
  141.5970   77.8400  221.5400 H   0  0  0  0  0  0  0  0  0  0  0  0
  140.0673   79.8130  221.1965 H   0  0  0  0  0  0  0  0  0  0  0  0
  138.7881   78.8735  222.0735 H   0  0  0  0  0  0  0  0  0  0  0  0
  139.4035   79.7609  224.0160 H   0  0  0  0  0  0  0  0  0  0  0  0
  140.5333   81.3757  221.9558 H   0  0  0  0  0  0  0  0  0  0  0  0
  140.0514   81.8594  223.6296 H   0  0  0  0  0  0  0  0  0  0  0  0
  142.4713   82.3740  222.9866 H   0  0  0  0  0  0  0  0  0  0  0  0
  142.2608   81.4292  224.4832 H   0  0  0  0  0  0  0  0  0  0  0  0
  142.7651   80.2863  221.6977 H   0  0  0  0  0  0  0  0  0  0  0  0
  143.9887   80.4639  223.0356 H   0  0  0  0  0  0  0  0  0  0  0  0
  142.5620   78.2410  222.5950 H   0  0  0  0  0  0  0  0  0  0  0  0
  141.0054   77.9681  224.1830 H   0  0  0  0  0  0  0  0  0  0  0  0
  141.5195   79.5031  225.0059 H   0  0  0  0  0  0  0  0  0  0  0  0
  138.1604   71.2126  222.7366 H   0  0  0  0  0  0  0  0  0  0  0  0
  138.8815   71.3035  221.1326 H   0  0  0  0  0  0  0  0  0  0  0  0
  138.9406   68.9072  221.8054 H   0  0  0  0  0  0  0  0  0  0  0  0
  140.5992   69.4470  221.9483 H   0  0  0  0  0  0  0  0  0  0  0  0
  138.3400   67.5833  223.7032 H   0  0  0  0  0  0  0  0  0  0  0  0
  138.2311   67.2939  226.1960 H   0  0  0  0  0  0  0  0  0  0  0  0
  139.3534   68.9912  227.6363 H   0  0  0  0  0  0  0  0  0  0  0  0
  140.5535   70.9166  226.6422 H   0  0  0  0  0  0  0  0  0  0  0  0
  140.8438   72.3383  224.6524 H   0  0  0  0  0  0  0  0  0  0  0  0
  141.8530   71.1601  223.7171 H   0  0  0  0  0  0  0  0  0  0  0  0
  142.1930   73.8176  217.9532 H   0  0  0  0  0  0  0  0  0  0  0  0
  142.8574   75.4648  218.3524 H   0  0  0  0  0  0  0  0  0  0  0  0
  143.9859   74.1242  216.4886 H   0  0  0  0  0  0  0  0  0  0  0  0
  145.0116   74.8771  217.7622 H   0  0  0  0  0  0  0  0  0  0  0  0
  145.1239   72.0532  215.9088 H   0  0  0  0  0  0  0  0  0  0  0  0
  146.0277   69.8787  216.6756 H   0  0  0  0  0  0  0  0  0  0  0  0
  146.2295   69.3615  219.1046 H   0  0  0  0  0  0  0  0  0  0  0  0
  145.5025   71.0735  220.7874 H   0  0  0  0  0  0  0  0  0  0  0  0
  144.3936   73.1047  221.2104 H   0  0  0  0  0  0  0  0  0  0  0  0
  145.2075   74.3513  220.2301 H   0  0  0  0  0  0  0  0  0  0  0  0
  1  2  2  0
  2  3  1  0
  3  4  1  0
  4  5  1  0
  5  6  1  0
  6  7  1  0
  7  8  1  0
  8  9  1  0
  9 10  1  0
  2 11  1  0
 11 12  2  0
 12 13  1  0
 13 14  1  0
 14 15  1  0
 15 16  1  0
 16 17  1  0
 17 18  2  0
 18 19  1  0
 19 20  2  0
 20 21  1  0
 21 22  2  0
 22 23  1  0
 13 24  2  0
 24 25  1  0
 25 26  1  0
 26 27  1  0
 27 28  1  0
 28 29  1  0
 29 30  2  0
 30 31  1  0
 31 32  2  0
 32 33  1  0
 33 34  2  0
 34 35  1  0
 25 36  2  0
 10  5  1  0
 36 11  1  0
 23 14  1  0
 35 26  1  0
 22 17  1  0
 34 29  1  0
  3 37  1  0
  4 38  1  0
  4 39  1  0
  5 40  1  1
  6 41  1  0
  6 42  1  0
  7 43  1  0
  7 44  1  0
  8 45  1  0
  8 46  1  0
  9 47  1  0
 10 48  1  0
 10 49  1  0
 15 50  1  0
 15 51  1  0
 16 52  1  0
 16 53  1  0
 18 54  1  0
 19 55  1  0
 20 56  1  0
 21 57  1  0
 23 58  1  0
 23 59  1  0
 27 60  1  0
 27 61  1  0
 28 62  1  0
 28 63  1  0
 30 64  1  0
 31 65  1  0
 32 66  1  0
 33 67  1  0
 35 68  1  0
 35 69  1  0
M  END
>  <smiles>  (28) 
O=C(NCC1CCCNC1)c1nc(N2CCc3ccccc3C2)nc(N2CCc3ccccc3C2)n1

>  <score_type>  (28) 
oracle

>  <origin>  (28) 
autodockgpu

>  <m_score__min__energy>  (28) 
-10.33

>  <m_primary>  (28) 
energy

>  <rmsd>  (28) 
4.807261957916538

>  <m_score__min__rmsd>  (28) 
4.807261957916538

>  <meeko>  (28) 
{"free_energy": -9.29, "intermolecular_energy": -10.79, "internal_energy": -1.64, "cluster_size": 25, "cluster_id": 1, "rank_in_cluster": 15}

>  <energy>  (28) 
-9.36

>  <cluster_rmsd>  (28) 
0.0

>  <cluster>  (28) 
3

$$$$

     RDKit          3D

 69 74  0  0  0  0  0  0  0  0999 V2000
  136.1220   73.8830  220.8280 O   0  0  0  0  0  0  0  0  0  0  0  0
  136.7930   73.9890  221.8960 C   0  0  0  0  0  0  0  0  0  0  0  0
  136.1790   73.4570  223.0700 N   0  0  0  0  0  0  0  0  0  0  0  0
  134.8690   72.8630  222.9090 C   0  0  0  0  0  0  0  0  0  0  0  0
  133.8160   73.6010  223.7060 C   0  0  2  0  0  0  0  0  0  0  0  0
  133.5230   74.8910  222.9970 C   0  0  0  0  0  0  0  0  0  0  0  0
  133.8750   76.0860  223.8710 C   0  0  0  0  0  0  0  0  0  0  0  0
  135.2630   75.8640  224.4050 C   0  0  0  0  0  0  0  0  0  0  0  0
  135.3600   74.6980  225.2350 N   0  0  0  0  0  0  0  0  0  0  0  0
  134.2250   73.8250  225.1310 C   0  0  0  0  0  0  0  0  0  0  0  0
  138.0980   74.6110  221.9180 C   0  0  0  0  0  0  0  0  0  0  0  0
  139.2010   73.9500  221.5120 N   0  0  0  0  0  0  0  0  0  0  0  0
  140.4020   74.5850  221.5540 C   0  0  0  0  0  0  0  0  0  0  0  0
  141.6080   73.9440  221.1400 N   0  0  0  0  0  0  0  0  0  0  0  0
  141.7680   72.4870  221.1990 C   0  0  0  0  0  0  0  0  0  0  0  0
  142.4750   72.1250  219.8870 C   0  0  0  0  0  0  0  0  0  0  0  0
  143.8670   72.6680  220.0950 C   0  0  0  0  0  0  0  0  0  0  0  0
  144.9830   71.8790  219.9090 C   0  0  0  0  0  0  0  0  0  0  0  0
  146.2500   72.4160  220.1090 C   0  0  0  0  0  0  0  0  0  0  0  0
  146.3340   73.7460  220.4940 C   0  0  0  0  0  0  0  0  0  0  0  0
  145.1910   74.5270  220.6750 C   0  0  0  0  0  0  0  0  0  0  0  0
  143.9340   73.9930  220.4760 C   0  0  0  0  0  0  0  0  0  0  0  0
  142.6820   74.7740  220.6550 C   0  0  0  0  0  0  0  0  0  0  0  0
  140.4870   75.8540  221.9950 N   0  0  0  0  0  0  0  0  0  0  0  0
  139.3900   76.5000  222.3950 C   0  0  0  0  0  0  0  0  0  0  0  0
  139.4920   77.8380  222.8580 N   0  0  0  0  0  0  0  0  0  0  0  0
  138.2990   78.6030  223.0870 C   0  0  0  0  0  0  0  0  0  0  0  0
  138.5860   80.0220  223.4560 C   0  0  0  0  0  0  0  0  0  0  0  0
  139.6650   80.5630  222.5920 C   0  0  0  0  0  0  0  0  0  0  0  0
  139.6260   81.7800  221.9760 C   0  0  0  0  0  0  0  0  0  0  0  0
  140.6910   82.1850  221.1890 C   0  0  0  0  0  0  0  0  0  0  0  0
  141.8110   81.3730  221.0090 C   0  0  0  0  0  0  0  0  0  0  0  0
  141.8550   80.1350  221.6340 C   0  0  0  0  0  0  0  0  0  0  0  0
  140.7810   79.7590  222.4100 C   0  0  0  0  0  0  0  0  0  0  0  0
  140.7690   78.4460  223.1030 C   0  0  0  0  0  0  0  0  0  0  0  0
  138.2040   75.8730  222.3530 N   0  0  0  0  0  0  0  0  0  0  0  0
  136.6880   73.5190  223.9750 H   0  0  0  0  0  0  0  0  0  0  0  0
  134.5940   72.8904  221.8443 H   0  0  0  0  0  0  0  0  0  0  0  0
  134.9149   71.8280  223.2788 H   0  0  0  0  0  0  0  0  0  0  0  0
  132.9049   72.9873  223.7635 H   0  0  0  0  0  0  0  0  0  0  0  0
  134.1157   74.9354  222.0714 H   0  0  0  0  0  0  0  0  0  0  0  0
  132.4477   74.9288  222.7684 H   0  0  0  0  0  0  0  0  0  0  0  0
  133.8459   77.0093  223.2738 H   0  0  0  0  0  0  0  0  0  0  0  0
  133.1547   76.1873  224.6962 H   0  0  0  0  0  0  0  0  0  0  0  0
  135.9521   75.7488  223.5553 H   0  0  0  0  0  0  0  0  0  0  0  0
  135.5220   76.7345  225.0256 H   0  0  0  0  0  0  0  0  0  0  0  0
  136.2410   74.1580  225.1080 H   0  0  0  0  0  0  0  0  0  0  0  0
  134.4803   72.8555  225.5836 H   0  0  0  0  0  0  0  0  0  0  0  0
  133.3825   74.2999  225.6551 H   0  0  0  0  0  0  0  0  0  0  0  0
  142.3825   72.1980  222.0644 H   0  0  0  0  0  0  0  0  0  0  0  0
  140.8067   71.9649  221.3140 H   0  0  0  0  0  0  0  0  0  0  0  0
  142.4935   71.0358  219.7346 H   0  0  0  0  0  0  0  0  0  0  0  0
  141.9765   72.5357  218.9966 H   0  0  0  0  0  0  0  0  0  0  0  0
  144.8711   70.8282  219.6034 H   0  0  0  0  0  0  0  0  0  0  0  0
  147.1548   71.8069  219.9667 H   0  0  0  0  0  0  0  0  0  0  0  0
  147.3240   74.1957  220.6605 H   0  0  0  0  0  0  0  0  0  0  0  0
  145.2934   75.5791  220.9794 H   0  0  0  0  0  0  0  0  0  0  0  0
  142.8647   75.5818  221.3790 H   0  0  0  0  0  0  0  0  0  0  0  0
  142.3877   75.1842  219.6777 H   0  0  0  0  0  0  0  0  0  0  0  0
  137.6933   78.5937  222.1688 H   0  0  0  0  0  0  0  0  0  0  0  0
  137.7653   78.1416  223.9310 H   0  0  0  0  0  0  0  0  0  0  0  0
  137.6755   80.6245  223.3220 H   0  0  0  0  0  0  0  0  0  0  0  0
  138.9096   80.0635  224.5065 H   0  0  0  0  0  0  0  0  0  0  0  0
  138.7526   82.4363  222.1040 H   0  0  0  0  0  0  0  0  0  0  0  0
  140.6531   83.1674  220.6955 H   0  0  0  0  0  0  0  0  0  0  0  0
  142.6482   81.7097  220.3799 H   0  0  0  0  0  0  0  0  0  0  0  0
  142.7242   79.4717  221.5130 H   0  0  0  0  0  0  0  0  0  0  0  0
  141.5714   77.8058  222.7076 H   0  0  0  0  0  0  0  0  0  0  0  0
  140.9338   78.5773  224.1826 H   0  0  0  0  0  0  0  0  0  0  0  0
  1  2  2  0
  2  3  1  0
  3  4  1  0
  4  5  1  0
  5  6  1  0
  6  7  1  0
  7  8  1  0
  8  9  1  0
  9 10  1  0
  2 11  1  0
 11 12  2  0
 12 13  1  0
 13 14  1  0
 14 15  1  0
 15 16  1  0
 16 17  1  0
 17 18  2  0
 18 19  1  0
 19 20  2  0
 20 21  1  0
 21 22  2  0
 22 23  1  0
 13 24  2  0
 24 25  1  0
 25 26  1  0
 26 27  1  0
 27 28  1  0
 28 29  1  0
 29 30  2  0
 30 31  1  0
 31 32  2  0
 32 33  1  0
 33 34  2  0
 34 35  1  0
 25 36  2  0
 10  5  1  0
 36 11  1  0
 23 14  1  0
 35 26  1  0
 22 17  1  0
 34 29  1  0
  3 37  1  0
  4 38  1  0
  4 39  1  0
  5 40  1  1
  6 41  1  0
  6 42  1  0
  7 43  1  0
  7 44  1  0
  8 45  1  0
  8 46  1  0
  9 47  1  0
 10 48  1  0
 10 49  1  0
 15 50  1  0
 15 51  1  0
 16 52  1  0
 16 53  1  0
 18 54  1  0
 19 55  1  0
 20 56  1  0
 21 57  1  0
 23 58  1  0
 23 59  1  0
 27 60  1  0
 27 61  1  0
 28 62  1  0
 28 63  1  0
 30 64  1  0
 31 65  1  0
 32 66  1  0
 33 67  1  0
 35 68  1  0
 35 69  1  0
M  END
>  <smiles>  (29) 
O=C(NCC1CCCNC1)c1nc(N2CCc3ccccc3C2)nc(N2CCc3ccccc3C2)n1

>  <score_type>  (29) 
oracle

>  <origin>  (29) 
autodockgpu

>  <m_score__min__energy>  (29) 
-10.33

>  <m_primary>  (29) 
energy

>  <rmsd>  (29) 
7.311419437063757

>  <m_score__min__rmsd>  (29) 
7.311419437063757

>  <meeko>  (29) 
{"free_energy": -8.47, "intermolecular_energy": -9.96, "internal_energy": -1.78, "cluster_size": 3, "cluster_id": 7, "rank_in_cluster": 1}

>  <energy>  (29) 
-9.31

>  <cluster_rmsd>  (29) 
0.24

>  <cluster>  (29) 
3

$$$$

     RDKit          3D

 69 74  0  0  0  0  0  0  0  0999 V2000
  136.0420   73.5010  219.3650 O   0  0  0  0  0  0  0  0  0  0  0  0
  136.5730   72.6160  220.0980 C   0  0  0  0  0  0  0  0  0  0  0  0
  136.0090   71.3080  220.0000 N   0  0  0  0  0  0  0  0  0  0  0  0
  134.9040   71.1420  219.0810 C   0  0  0  0  0  0  0  0  0  0  0  0
  133.7290   70.4480  219.7360 C   0  0  2  0  0  0  0  0  0  0  0  0
  133.3180   71.2660  220.9260 C   0  0  0  0  0  0  0  0  0  0  0  0
  133.4760   70.4730  222.2140 C   0  0  0  0  0  0  0  0  0  0  0  0
  134.8520   69.8660  222.2060 C   0  0  0  0  0  0  0  0  0  0  0  0
  135.0490   68.9460  221.1240 N   0  0  0  0  0  0  0  0  0  0  0  0
  134.0360   69.0290  220.1110 C   0  0  0  0  0  0  0  0  0  0  0  0
  137.6800   72.9190  220.9790 C   0  0  0  0  0  0  0  0  0  0  0  0
  138.2970   74.1180  220.9490 N   0  0  0  0  0  0  0  0  0  0  0  0
  139.3320   74.3470  221.8000 C   0  0  0  0  0  0  0  0  0  0  0  0
  140.0280   75.5920  221.8210 N   0  0  0  0  0  0  0  0  0  0  0  0
  141.4170   75.7090  221.3660 C   0  0  0  0  0  0  0  0  0  0  0  0
  141.4470   77.0130  220.5590 C   0  0  0  0  0  0  0  0  0  0  0  0
  141.3090   78.0720  221.6240 C   0  0  0  0  0  0  0  0  0  0  0  0
  142.1990   79.1200  221.7170 C   0  0  0  0  0  0  0  0  0  0  0  0
  142.0370   80.0770  222.7130 C   0  0  0  0  0  0  0  0  0  0  0  0
  140.9660   79.9300  223.5820 C   0  0  0  0  0  0  0  0  0  0  0  0
  140.0750   78.8610  223.4680 C   0  0  0  0  0  0  0  0  0  0  0  0
  140.2370   77.9110  222.4800 C   0  0  0  0  0  0  0  0  0  0  0  0
  139.3230   76.7510  222.3090 C   0  0  0  0  0  0  0  0  0  0  0  0
  139.7340   73.3900  222.6580 N   0  0  0  0  0  0  0  0  0  0  0  0
  139.1170   72.2060  222.6790 C   0  0  0  0  0  0  0  0  0  0  0  0
  139.5500   71.2060  223.5870 N   0  0  0  0  0  0  0  0  0  0  0  0
  138.6790   70.1090  223.9030 C   0  0  0  0  0  0  0  0  0  0  0  0
  139.2380   69.2140  224.9610 C   0  0  0  0  0  0  0  0  0  0  0  0
  139.8380   70.0270  226.0480 C   0  0  0  0  0  0  0  0  0  0  0  0
  139.6340   69.8090  227.3790 C   0  0  0  0  0  0  0  0  0  0  0  0
  140.2450   70.6330  228.3110 C   0  0  0  0  0  0  0  0  0  0  0  0
  141.0700   71.6860  227.9170 C   0  0  0  0  0  0  0  0  0  0  0  0
  141.2810   71.9100  226.5650 C   0  0  0  0  0  0  0  0  0  0  0  0
  140.6600   71.0760  225.6620 C   0  0  0  0  0  0  0  0  0  0  0  0
  140.8460   71.2660  224.2010 C   0  0  0  0  0  0  0  0  0  0  0  0
  138.0950   71.9810  221.8390 N   0  0  0  0  0  0  0  0  0  0  0  0
  136.4090   70.5440  220.5820 H   0  0  0  0  0  0  0  0  0  0  0  0
  134.5814   72.1330  218.7290 H   0  0  0  0  0  0  0  0  0  0  0  0
  135.2467   70.5176  218.2427 H   0  0  0  0  0  0  0  0  0  0  0  0
  132.8976   70.3810  219.0189 H   0  0  0  0  0  0  0  0  0  0  0  0
  133.9479   72.1663  220.9784 H   0  0  0  0  0  0  0  0  0  0  0  0
  132.2593   71.5421  220.8124 H   0  0  0  0  0  0  0  0  0  0  0  0
  133.3649   71.1400  223.0816 H   0  0  0  0  0  0  0  0  0  0  0  0
  132.7074   69.6891  222.2828 H   0  0  0  0  0  0  0  0  0  0  0  0
  135.5921   70.6750  222.1182 H   0  0  0  0  0  0  0  0  0  0  0  0
  134.9704   69.3034  223.1438 H   0  0  0  0  0  0  0  0  0  0  0  0
  135.9950   68.9940  220.6910 H   0  0  0  0  0  0  0  0  0  0  0  0
  134.3845   68.4929  219.2159 H   0  0  0  0  0  0  0  0  0  0  0  0
  133.1167   68.5782  220.5131 H   0  0  0  0  0  0  0  0  0  0  0  0
  142.1037   75.7663  222.2234 H   0  0  0  0  0  0  0  0  0  0  0  0
  141.7373   74.8409  220.7711 H   0  0  0  0  0  0  0  0  0  0  0  0
  142.3972   77.1201  220.0153 H   0  0  0  0  0  0  0  0  0  0  0  0
  140.6624   77.0658  219.7898 H   0  0  0  0  0  0  0  0  0  0  0  0
  143.0346   79.1993  221.0060 H   0  0  0  0  0  0  0  0  0  0  0  0
  142.7347   80.9220  222.8084 H   0  0  0  0  0  0  0  0  0  0  0  0
  140.8151   80.6726  224.3793 H   0  0  0  0  0  0  0  0  0  0  0  0
  139.2351   78.7751  224.1731 H   0  0  0  0  0  0  0  0  0  0  0  0
  138.8663   76.5093  223.2801 H   0  0  0  0  0  0  0  0  0  0  0  0
  138.5531   77.0231  221.5719 H   0  0  0  0  0  0  0  0  0  0  0  0
  137.7184   70.5128  224.2553 H   0  0  0  0  0  0  0  0  0  0  0  0
  138.5577   69.5079  222.9898 H   0  0  0  0  0  0  0  0  0  0  0  0
  138.4314   68.5910  225.3748 H   0  0  0  0  0  0  0  0  0  0  0  0
  140.0147   68.5729  224.5185 H   0  0  0  0  0  0  0  0  0  0  0  0
  138.9877   68.9832  227.7110 H   0  0  0  0  0  0  0  0  0  0  0  0
  140.0758   70.4528  229.3829 H   0  0  0  0  0  0  0  0  0  0  0  0
  141.5475   72.3309  228.6694 H   0  0  0  0  0  0  0  0  0  0  0  0
  141.9271   72.7319  226.2228 H   0  0  0  0  0  0  0  0  0  0  0  0
  141.3085   72.2448  224.0059 H   0  0  0  0  0  0  0  0  0  0  0  0
  141.5043   70.4860  223.7908 H   0  0  0  0  0  0  0  0  0  0  0  0
  1  2  2  0
  2  3  1  0
  3  4  1  0
  4  5  1  0
  5  6  1  0
  6  7  1  0
  7  8  1  0
  8  9  1  0
  9 10  1  0
  2 11  1  0
 11 12  2  0
 12 13  1  0
 13 14  1  0
 14 15  1  0
 15 16  1  0
 16 17  1  0
 17 18  2  0
 18 19  1  0
 19 20  2  0
 20 21  1  0
 21 22  2  0
 22 23  1  0
 13 24  2  0
 24 25  1  0
 25 26  1  0
 26 27  1  0
 27 28  1  0
 28 29  1  0
 29 30  2  0
 30 31  1  0
 31 32  2  0
 32 33  1  0
 33 34  2  0
 34 35  1  0
 25 36  2  0
 10  5  1  0
 36 11  1  0
 23 14  1  0
 35 26  1  0
 22 17  1  0
 34 29  1  0
  3 37  1  0
  4 38  1  0
  4 39  1  0
  5 40  1  6
  6 41  1  0
  6 42  1  0
  7 43  1  0
  7 44  1  0
  8 45  1  0
  8 46  1  0
  9 47  1  0
 10 48  1  0
 10 49  1  0
 15 50  1  0
 15 51  1  0
 16 52  1  0
 16 53  1  0
 18 54  1  0
 19 55  1  0
 20 56  1  0
 21 57  1  0
 23 58  1  0
 23 59  1  0
 27 60  1  0
 27 61  1  0
 28 62  1  0
 28 63  1  0
 30 64  1  0
 31 65  1  0
 32 66  1  0
 33 67  1  0
 35 68  1  0
 35 69  1  0
M  END
>  <smiles>  (30) 
O=C(NCC1CCCNC1)c1nc(N2CCc3ccccc3C2)nc(N2CCc3ccccc3C2)n1

>  <score_type>  (30) 
oracle

>  <origin>  (30) 
autodockgpu

>  <m_score__min__energy>  (30) 
-10.33

>  <m_primary>  (30) 
energy

>  <rmsd>  (30) 
8.514556107442823

>  <m_score__min__rmsd>  (30) 
8.514556107442823

>  <meeko>  (30) 
{"free_energy": -8.03, "intermolecular_energy": -9.52, "internal_energy": -2.04, "cluster_size": 1, "cluster_id": 9, "rank_in_cluster": 1}

>  <energy>  (30) 
-9.19

>  <cluster_rmsd>  (30) 
1.49

>  <cluster>  (30) 
3

$$$$

     RDKit          3D

 69 74  0  0  0  0  0  0  0  0999 V2000
  138.5630   76.2700  221.7310 O   0  0  0  0  0  0  0  0  0  0  0  0
  139.7960   75.9990  221.8320 C   0  0  0  0  0  0  0  0  0  0  0  0
  140.6640   77.1180  222.0170 N   0  0  0  0  0  0  0  0  0  0  0  0
  140.0430   78.4240  222.0680 C   0  0  0  0  0  0  0  0  0  0  0  0
  140.4370   79.1840  223.3160 C   0  0  2  0  0  0  0  0  0  0  0  0
  140.4250   80.6480  222.9850 C   0  0  0  0  0  0  0  0  0  0  0  0
  141.8110   81.2550  223.1470 C   0  0  0  0  0  0  0  0  0  0  0  0
  142.7820   80.3670  222.4190 C   0  0  0  0  0  0  0  0  0  0  0  0
  142.8420   79.0420  222.9660 N   0  0  0  0  0  0  0  0  0  0  0  0
  141.7620   78.7440  223.8630 C   0  0  0  0  0  0  0  0  0  0  0  0
  140.2870   74.6400  221.7630 C   0  0  0  0  0  0  0  0  0  0  0  0
  139.9530   73.7220  222.6920 N   0  0  0  0  0  0  0  0  0  0  0  0
  140.4430   72.4600  222.5760 C   0  0  0  0  0  0  0  0  0  0  0  0
  140.1290   71.4400  223.5240 N   0  0  0  0  0  0  0  0  0  0  0  0
  138.8720   70.6890  223.4630 C   0  0  0  0  0  0  0  0  0  0  0  0
  139.2770   69.2390  223.7550 C   0  0  0  0  0  0  0  0  0  0  0  0
  139.6240   69.2750  225.2220 C   0  0  0  0  0  0  0  0  0  0  0  0
  139.0630   68.3900  226.1170 C   0  0  0  0  0  0  0  0  0  0  0  0
  139.4100   68.4550  227.4630 C   0  0  0  0  0  0  0  0  0  0  0  0
  140.3220   69.4260  227.8480 C   0  0  0  0  0  0  0  0  0  0  0  0
  140.8790   70.3120  226.9240 C   0  0  0  0  0  0  0  0  0  0  0  0
  140.5340   70.2470  225.5900 C   0  0  0  0  0  0  0  0  0  0  0  0
  141.0920   71.1630  224.5600 C   0  0  0  0  0  0  0  0  0  0  0  0
  141.2500   72.1340  221.5490 N   0  0  0  0  0  0  0  0  0  0  0  0
  141.5750   73.0500  220.6340 C   0  0  0  0  0  0  0  0  0  0  0  0
  142.4260   72.6940  219.5560 N   0  0  0  0  0  0  0  0  0  0  0  0
  143.7150   72.1230  219.8280 C   0  0  0  0  0  0  0  0  0  0  0  0
  144.5280   71.9180  218.5900 C   0  0  0  0  0  0  0  0  0  0  0  0
  144.4070   73.1010  217.7020 C   0  0  0  0  0  0  0  0  0  0  0  0
  145.4580   73.7160  217.0860 C   0  0  0  0  0  0  0  0  0  0  0  0
  145.2300   74.8170  216.2760 C   0  0  0  0  0  0  0  0  0  0  0  0
  143.9420   75.3150  216.0750 C   0  0  0  0  0  0  0  0  0  0  0  0
  142.8720   74.6920  216.6980 C   0  0  0  0  0  0  0  0  0  0  0  0
  143.1290   73.6000  217.4970 C   0  0  0  0  0  0  0  0  0  0  0  0
  142.0240   72.8920  218.1920 C   0  0  0  0  0  0  0  0  0  0  0  0
  141.0900   74.2960  220.7490 N   0  0  0  0  0  0  0  0  0  0  0  0
  141.6870   76.9500  222.1060 H   0  0  0  0  0  0  0  0  0  0  0  0
  140.3553   79.0017  221.1855 H   0  0  0  0  0  0  0  0  0  0  0  0
  138.9520   78.2841  222.0824 H   0  0  0  0  0  0  0  0  0  0  0  0
  139.7129   78.9725  224.1166 H   0  0  0  0  0  0  0  0  0  0  0  0
  140.0944   80.7788  221.9440 H   0  0  0  0  0  0  0  0  0  0  0  0
  139.7363   81.1577  223.6749 H   0  0  0  0  0  0  0  0  0  0  0  0
  141.8307   82.2665  222.7151 H   0  0  0  0  0  0  0  0  0  0  0  0
  142.0785   81.3306  224.2113 H   0  0  0  0  0  0  0  0  0  0  0  0
  142.4736   80.2985  221.3654 H   0  0  0  0  0  0  0  0  0  0  0  0
  143.7817   80.8139  222.5236 H   0  0  0  0  0  0  0  0  0  0  0  0
  142.9320   78.2900  222.2500 H   0  0  0  0  0  0  0  0  0  0  0  0
  141.7322   77.6578  224.0338 H   0  0  0  0  0  0  0  0  0  0  0  0
  141.9398   79.2907  224.8008 H   0  0  0  0  0  0  0  0  0  0  0  0
  138.1632   71.0549  224.2205 H   0  0  0  0  0  0  0  0  0  0  0  0
  138.3679   70.7951  222.4911 H   0  0  0  0  0  0  0  0  0  0  0  0
  138.4425   68.5486  223.5626 H   0  0  0  0  0  0  0  0  0  0  0  0
  140.1030   68.8828  223.1219 H   0  0  0  0  0  0  0  0  0  0  0  0
  138.3433   67.6346  225.7686 H   0  0  0  0  0  0  0  0  0  0  0  0
  138.9757   67.7598  228.1966 H   0  0  0  0  0  0  0  0  0  0  0  0
  140.6134   69.4999  228.9061 H   0  0  0  0  0  0  0  0  0  0  0  0
  141.6005   71.0698  227.2633 H   0  0  0  0  0  0  0  0  0  0  0  0
  141.3815   72.1087  225.0414 H   0  0  0  0  0  0  0  0  0  0  0  0
  141.9642   70.6756  224.0999 H   0  0  0  0  0  0  0  0  0  0  0  0
  144.2637   72.7976  220.5017 H   0  0  0  0  0  0  0  0  0  0  0  0
  143.5515   71.1361  220.2854 H   0  0  0  0  0  0  0  0  0  0  0  0
  145.5832   71.7763  218.8664 H   0  0  0  0  0  0  0  0  0  0  0  0
  144.1590   71.0283  218.0587 H   0  0  0  0  0  0  0  0  0  0  0  0
  146.4812   73.3396  217.2317 H   0  0  0  0  0  0  0  0  0  0  0  0
  146.0811   75.3081  215.7817 H   0  0  0  0  0  0  0  0  0  0  0  0
  143.7780   76.1910  215.4302 H   0  0  0  0  0  0  0  0  0  0  0  0
  141.8449   75.0600  216.5580 H   0  0  0  0  0  0  0  0  0  0  0  0
  141.1076   73.4993  218.1553 H   0  0  0  0  0  0  0  0  0  0  0  0
  141.8172   71.9271  217.7061 H   0  0  0  0  0  0  0  0  0  0  0  0
  1  2  2  0
  2  3  1  0
  3  4  1  0
  4  5  1  0
  5  6  1  0
  6  7  1  0
  7  8  1  0
  8  9  1  0
  9 10  1  0
  2 11  1  0
 11 12  2  0
 12 13  1  0
 13 14  1  0
 14 15  1  0
 15 16  1  0
 16 17  1  0
 17 18  2  0
 18 19  1  0
 19 20  2  0
 20 21  1  0
 21 22  2  0
 22 23  1  0
 13 24  2  0
 24 25  1  0
 25 26  1  0
 26 27  1  0
 27 28  1  0
 28 29  1  0
 29 30  2  0
 30 31  1  0
 31 32  2  0
 32 33  1  0
 33 34  2  0
 34 35  1  0
 25 36  2  0
 10  5  1  0
 36 11  1  0
 23 14  1  0
 35 26  1  0
 22 17  1  0
 34 29  1  0
  3 37  1  0
  4 38  1  0
  4 39  1  0
  5 40  1  1
  6 41  1  0
  6 42  1  0
  7 43  1  0
  7 44  1  0
  8 45  1  0
  8 46  1  0
  9 47  1  0
 10 48  1  0
 10 49  1  0
 15 50  1  0
 15 51  1  0
 16 52  1  0
 16 53  1  0
 18 54  1  0
 19 55  1  0
 20 56  1  0
 21 57  1  0
 23 58  1  0
 23 59  1  0
 27 60  1  0
 27 61  1  0
 28 62  1  0
 28 63  1  0
 30 64  1  0
 31 65  1  0
 32 66  1  0
 33 67  1  0
 35 68  1  0
 35 69  1  0
M  END
>  <smiles>  (31) 
O=C(NCC1CCCNC1)c1nc(N2CCc3ccccc3C2)nc(N2CCc3ccccc3C2)n1

>  <score_type>  (31) 
oracle

>  <origin>  (31) 
autodockgpu

>  <m_score__min__energy>  (31) 
-10.33

>  <m_primary>  (31) 
energy

>  <rmsd>  (31) 
4.513001906491403

>  <m_score__min__rmsd>  (31) 
4.513001906491403

>  <meeko>  (31) 
{"free_energy": -9.55, "intermolecular_energy": -11.04, "internal_energy": -1.25, "cluster_size": 2, "cluster_id": 2, "rank_in_cluster": 1}

>  <energy>  (31) 
-9.08

>  <cluster_rmsd>  (31) 
1.29

>  <cluster>  (31) 
3

$$$$

     RDKit          3D

 69 74  0  0  0  0  0  0  0  0999 V2000
  141.3400   71.6410  217.8700 O   0  0  0  0  0  0  0  0  0  0  0  0
  141.7670   71.3900  219.0350 C   0  0  0  0  0  0  0  0  0  0  0  0
  142.8020   70.4110  219.1190 N   0  0  0  0  0  0  0  0  0  0  0  0
  143.2430   69.8200  217.8740 C   0  0  0  0  0  0  0  0  0  0  0  0
  144.7500   69.6900  217.8170 C   0  0  2  0  0  0  0  0  0  0  0  0
  145.0740   68.3400  217.2450 C   0  0  0  0  0  0  0  0  0  0  0  0
  145.8410   67.4930  218.2500 C   0  0  0  0  0  0  0  0  0  0  0  0
  145.0990   67.5560  219.5560 C   0  0  0  0  0  0  0  0  0  0  0  0
  145.0340   68.8840  220.0960 N   0  0  0  0  0  0  0  0  0  0  0  0
  145.3960   69.9030  219.1520 C   0  0  0  0  0  0  0  0  0  0  0  0
  141.2350   72.0580  220.2030 C   0  0  0  0  0  0  0  0  0  0  0  0
  140.9800   71.3850  221.3440 N   0  0  0  0  0  0  0  0  0  0  0  0
  140.4810   72.0630  222.4100 C   0  0  0  0  0  0  0  0  0  0  0  0
  140.1890   71.4130  223.6460 N   0  0  0  0  0  0  0  0  0  0  0  0
  139.0380   70.5170  223.7950 C   0  0  0  0  0  0  0  0  0  0  0  0
  139.5730   69.3400  224.6190 C   0  0  0  0  0  0  0  0  0  0  0  0
  139.7600   69.9440  225.9880 C   0  0  0  0  0  0  0  0  0  0  0  0
  139.2140   69.3640  227.1130 C   0  0  0  0  0  0  0  0  0  0  0  0
  139.4100   69.9520  228.3580 C   0  0  0  0  0  0  0  0  0  0  0  0
  140.1600   71.1170  228.4110 C   0  0  0  0  0  0  0  0  0  0  0  0
  140.7050   71.6870  227.2600 C   0  0  0  0  0  0  0  0  0  0  0  0
  140.5100   71.1030  226.0250 C   0  0  0  0  0  0  0  0  0  0  0  0
  141.0640   71.6640  224.7640 C   0  0  0  0  0  0  0  0  0  0  0  0
  140.2440   73.3860  222.3270 N   0  0  0  0  0  0  0  0  0  0  0  0
  140.4990   74.0430  221.1930 C   0  0  0  0  0  0  0  0  0  0  0  0
  140.2460   75.4370  221.1170 N   0  0  0  0  0  0  0  0  0  0  0  0
  140.3320   76.1060  219.8500 C   0  0  0  0  0  0  0  0  0  0  0  0
  140.1540   77.5860  219.9650 C   0  0  0  0  0  0  0  0  0  0  0  0
  140.9140   78.0980  221.1330 C   0  0  0  0  0  0  0  0  0  0  0  0
  141.7140   79.2030  221.1100 C   0  0  0  0  0  0  0  0  0  0  0  0
  142.3790   79.5920  222.2620 C   0  0  0  0  0  0  0  0  0  0  0  0
  142.2490   78.8760  223.4520 C   0  0  0  0  0  0  0  0  0  0  0  0
  141.4360   77.7530  223.4790 C   0  0  0  0  0  0  0  0  0  0  0  0
  140.7870   77.3900  222.3190 C   0  0  0  0  0  0  0  0  0  0  0  0
  139.9040   76.1970  222.2860 C   0  0  0  0  0  0  0  0  0  0  0  0
  140.9930   73.3720  220.1400 N   0  0  0  0  0  0  0  0  0  0  0  0
  143.1890   70.1670  220.0540 H   0  0  0  0  0  0  0  0  0  0  0  0
  142.7953   68.8200  217.7761 H   0  0  0  0  0  0  0  0  0  0  0  0
  142.9249   70.4775  217.0515 H   0  0  0  0  0  0  0  0  0  0  0  0
  145.1607   70.4805  217.1717 H   0  0  0  0  0  0  0  0  0  0  0  0
  144.1375   67.8264  216.9818 H   0  0  0  0  0  0  0  0  0  0  0  0
  145.7010   68.4785  216.3519 H   0  0  0  0  0  0  0  0  0  0  0  0
  145.8955   66.4519  217.8992 H   0  0  0  0  0  0  0  0  0  0  0  0
  146.8675   67.8698  218.3698 H   0  0  0  0  0  0  0  0  0  0  0  0
  144.0737   67.1915  219.3954 H   0  0  0  0  0  0  0  0  0  0  0  0
  145.6461   66.9318  220.2778 H   0  0  0  0  0  0  0  0  0  0  0  0
  144.1220   69.1170  220.5440 H   0  0  0  0  0  0  0  0  0  0  0  0
  145.0808   70.8802  219.5466 H   0  0  0  0  0  0  0  0  0  0  0  0
  146.4862   69.8622  219.0110 H   0  0  0  0  0  0  0  0  0  0  0  0
  138.2178   71.0224  224.3258 H   0  0  0  0  0  0  0  0  0  0  0  0
  138.6281   70.1973  222.8256 H   0  0  0  0  0  0  0  0  0  0  0  0
  138.8470   68.5140  224.6467 H   0  0  0  0  0  0  0  0  0  0  0  0
  140.4953   68.9050  224.2067 H   0  0  0  0  0  0  0  0  0  0  0  0
  138.6251   68.4390  227.0263 H   0  0  0  0  0  0  0  0  0  0  0  0
  138.9844   69.5078  229.2699 H   0  0  0  0  0  0  0  0  0  0  0  0
  140.3293   71.6032  229.3831 H   0  0  0  0  0  0  0  0  0  0  0  0
  141.2962   72.6114  227.3378 H   0  0  0  0  0  0  0  0  0  0  0  0
  141.1915   72.7502  224.8815 H   0  0  0  0  0  0  0  0  0  0  0  0
  142.0294   71.1763  224.5636 H   0  0  0  0  0  0  0  0  0  0  0  0
  141.3204   75.9036  219.4117 H   0  0  0  0  0  0  0  0  0  0  0  0
  139.5191   75.7222  219.2161 H   0  0  0  0  0  0  0  0  0  0  0  0
  140.5237   78.0699  219.0489 H   0  0  0  0  0  0  0  0  0  0  0  0
  139.0862   77.8125  220.1007 H   0  0  0  0  0  0  0  0  0  0  0  0
  141.8305   79.7820  220.1820 H   0  0  0  0  0  0  0  0  0  0  0  0
  143.0226   80.4837  222.2374 H   0  0  0  0  0  0  0  0  0  0  0  0
  142.7845   79.1980  224.3573 H   0  0  0  0  0  0  0  0  0  0  0  0
  141.3125   77.1675  224.4020 H   0  0  0  0  0  0  0  0  0  0  0  0
  140.0617   75.5884  223.1886 H   0  0  0  0  0  0  0  0  0  0  0  0
  138.8468   76.4992  222.2551 H   0  0  0  0  0  0  0  0  0  0  0  0
  1  2  2  0
  2  3  1  0
  3  4  1  0
  4  5  1  0
  5  6  1  0
  6  7  1  0
  7  8  1  0
  8  9  1  0
  9 10  1  0
  2 11  1  0
 11 12  2  0
 12 13  1  0
 13 14  1  0
 14 15  1  0
 15 16  1  0
 16 17  1  0
 17 18  2  0
 18 19  1  0
 19 20  2  0
 20 21  1  0
 21 22  2  0
 22 23  1  0
 13 24  2  0
 24 25  1  0
 25 26  1  0
 26 27  1  0
 27 28  1  0
 28 29  1  0
 29 30  2  0
 30 31  1  0
 31 32  2  0
 32 33  1  0
 33 34  2  0
 34 35  1  0
 25 36  2  0
 10  5  1  0
 36 11  1  0
 23 14  1  0
 35 26  1  0
 22 17  1  0
 34 29  1  0
  3 37  1  0
  4 38  1  0
  4 39  1  0
  5 40  1  6
  6 41  1  0
  6 42  1  0
  7 43  1  0
  7 44  1  0
  8 45  1  0
  8 46  1  0
  9 47  1  0
 10 48  1  0
 10 49  1  0
 15 50  1  0
 15 51  1  0
 16 52  1  0
 16 53  1  0
 18 54  1  0
 19 55  1  0
 20 56  1  0
 21 57  1  0
 23 58  1  0
 23 59  1  0
 27 60  1  0
 27 61  1  0
 28 62  1  0
 28 63  1  0
 30 64  1  0
 31 65  1  0
 32 66  1  0
 33 67  1  0
 35 68  1  0
 35 69  1  0
M  END
>  <smiles>  (32) 
O=C(NCC1CCCNC1)c1nc(N2CCc3ccccc3C2)nc(N2CCc3ccccc3C2)n1

>  <score_type>  (32) 
oracle

>  <origin>  (32) 
autodockgpu

>  <m_score__min__energy>  (32) 
-10.33

>  <m_primary>  (32) 
energy

>  <rmsd>  (32) 
8.220964344927351

>  <m_score__min__rmsd>  (32) 
8.220964344927351

>  <meeko>  (32) 
{"free_energy": -9.24, "intermolecular_energy": -10.74, "internal_energy": -1.59, "cluster_size": 5, "cluster_id": 4, "rank_in_cluster": 3}

>  <energy>  (32) 
-9.36

>  <cluster_rmsd>  (32) 
0.0

>  <cluster>  (32) 
4

$$$$

     RDKit          3D

 69 74  0  0  0  0  0  0  0  0999 V2000
  140.8600   76.1470  220.4820 O   0  0  0  0  0  0  0  0  0  0  0  0
  140.3480   75.4660  221.4170 C   0  0  0  0  0  0  0  0  0  0  0  0
  139.4900   76.1800  222.3080 N   0  0  0  0  0  0  0  0  0  0  0  0
  139.3060   77.5910  222.0440 C   0  0  0  0  0  0  0  0  0  0  0  0
  139.9790   78.4510  223.0910 C   0  0  2  0  0  0  0  0  0  0  0  0
  139.7200   79.8880  222.7420 C   0  0  0  0  0  0  0  0  0  0  0  0
  141.0210   80.6220  222.4560 C   0  0  0  0  0  0  0  0  0  0  0  0
  141.8120   79.7850  221.4900 C   0  0  0  0  0  0  0  0  0  0  0  0
  142.1670   78.5030  222.0260 N   0  0  0  0  0  0  0  0  0  0  0  0
  141.4450   78.1610  223.2180 C   0  0  0  0  0  0  0  0  0  0  0  0
  140.6180   74.0530  221.5690 C   0  0  0  0  0  0  0  0  0  0  0  0
  140.2860   73.3890  222.6950 N   0  0  0  0  0  0  0  0  0  0  0  0
  140.5640   72.0610  222.7810 C   0  0  0  0  0  0  0  0  0  0  0  0
  140.2400   71.2990  223.9430 N   0  0  0  0  0  0  0  0  0  0  0  0
  139.1580   70.3080  223.9400 C   0  0  0  0  0  0  0  0  0  0  0  0
  139.7280   69.1160  224.7180 C   0  0  0  0  0  0  0  0  0  0  0  0
  139.7690   69.6270  226.1370 C   0  0  0  0  0  0  0  0  0  0  0  0
  139.1940   68.9230  227.1730 C   0  0  0  0  0  0  0  0  0  0  0  0
  139.2530   69.4280  228.4680 C   0  0  0  0  0  0  0  0  0  0  0  0
  139.9010   70.6390  228.6590 C   0  0  0  0  0  0  0  0  0  0  0  0
  140.4770   71.3350  227.5950 C   0  0  0  0  0  0  0  0  0  0  0  0
  140.4180   70.8340  226.3110 C   0  0  0  0  0  0  0  0  0  0  0  0
  141.0110   71.5290  225.1390 C   0  0  0  0  0  0  0  0  0  0  0  0
  141.1620   71.4210  221.7590 N   0  0  0  0  0  0  0  0  0  0  0  0
  141.4870   72.0880  220.6490 C   0  0  0  0  0  0  0  0  0  0  0  0
  142.1160   71.4020  219.5770 N   0  0  0  0  0  0  0  0  0  0  0  0
  141.5310   70.1950  219.0660 C   0  0  0  0  0  0  0  0  0  0  0  0
  142.3790   69.5390  218.0240 C   0  0  0  0  0  0  0  0  0  0  0  0
  143.8030   69.5590  218.4430 C   0  0  0  0  0  0  0  0  0  0  0  0
  144.6440   68.4880  218.3730 C   0  0  0  0  0  0  0  0  0  0  0  0
  145.9580   68.6200  218.7930 C   0  0  0  0  0  0  0  0  0  0  0  0
  146.4440   69.8290  219.2880 C   0  0  0  0  0  0  0  0  0  0  0  0
  145.5920   70.9210  219.3610 C   0  0  0  0  0  0  0  0  0  0  0  0
  144.2910   70.7610  218.9360 C   0  0  0  0  0  0  0  0  0  0  0  0
  143.3310   71.8920  218.9900 C   0  0  0  0  0  0  0  0  0  0  0  0
  141.2120   73.3990  220.5630 N   0  0  0  0  0  0  0  0  0  0  0  0
  139.0440   75.6670  223.0950 H   0  0  0  0  0  0  0  0  0  0  0  0
  139.7350   77.8279  221.0592 H   0  0  0  0  0  0  0  0  0  0  0  0
  138.2273   77.8053  222.0673 H   0  0  0  0  0  0  0  0  0  0  0  0
  139.5551   78.2210  224.0797 H   0  0  0  0  0  0  0  0  0  0  0  0
  139.0786   79.9315  221.8494 H   0  0  0  0  0  0  0  0  0  0  0  0
  139.2246   80.3725  223.5963 H   0  0  0  0  0  0  0  0  0  0  0  0
  140.8071   81.6056  222.0123 H   0  0  0  0  0  0  0  0  0  0  0  0
  141.5882   80.7794  223.3853 H   0  0  0  0  0  0  0  0  0  0  0  0
  141.2094   79.6318  220.5826 H   0  0  0  0  0  0  0  0  0  0  0  0
  142.7464   80.3235  221.2736 H   0  0  0  0  0  0  0  0  0  0  0  0
  142.1130   77.7230  221.3370 H   0  0  0  0  0  0  0  0  0  0  0  0
  141.5784   77.0876  223.4181 H   0  0  0  0  0  0  0  0  0  0  0  0
  141.8416   78.7723  224.0420 H   0  0  0  0  0  0  0  0  0  0  0  0
  138.2635   70.7073  224.4405 H   0  0  0  0  0  0  0  0  0  0  0  0
  138.8455   70.0325  222.9219 H   0  0  0  0  0  0  0  0  0  0  0  0
  139.0715   68.2375  224.6327 H   0  0  0  0  0  0  0  0  0  0  0  0
  140.7094   68.7850  224.3473 H   0  0  0  0  0  0  0  0  0  0  0  0
  138.6902   67.9651  226.9766 H   0  0  0  0  0  0  0  0  0  0  0  0
  138.8012   68.8853  229.3114 H   0  0  0  0  0  0  0  0  0  0  0  0
  139.9625   71.0611  229.6729 H   0  0  0  0  0  0  0  0  0  0  0  0
  140.9835   72.2933  227.7823 H   0  0  0  0  0  0  0  0  0  0  0  0
  141.0418   72.6096  225.3422 H   0  0  0  0  0  0  0  0  0  0  0  0
  142.0241   71.1318  224.9784 H   0  0  0  0  0  0  0  0  0  0  0  0
  141.3909   69.4914  219.8999 H   0  0  0  0  0  0  0  0  0  0  0  0
  140.5739   70.4633  218.5949 H   0  0  0  0  0  0  0  0  0  0  0  0
  142.0527   68.4969  217.8916 H   0  0  0  0  0  0  0  0  0  0  0  0
  142.2736   70.0859  217.0754 H   0  0  0  0  0  0  0  0  0  0  0  0
  144.2814   67.5245  217.9853 H   0  0  0  0  0  0  0  0  0  0  0  0
  146.6317   67.7524  218.7345 H   0  0  0  0  0  0  0  0  0  0  0  0
  147.4902   69.9160  219.6166 H   0  0  0  0  0  0  0  0  0  0  0  0
  145.9452   71.8884  219.7476 H   0  0  0  0  0  0  0  0  0  0  0  0
  143.7435   72.7052  219.6053 H   0  0  0  0  0  0  0  0  0  0  0  0
  143.1410   72.2862  217.9808 H   0  0  0  0  0  0  0  0  0  0  0  0
  1  2  2  0
  2  3  1  0
  3  4  1  0
  4  5  1  0
  5  6  1  0
  6  7  1  0
  7  8  1  0
  8  9  1  0
  9 10  1  0
  2 11  1  0
 11 12  2  0
 12 13  1  0
 13 14  1  0
 14 15  1  0
 15 16  1  0
 16 17  1  0
 17 18  2  0
 18 19  1  0
 19 20  2  0
 20 21  1  0
 21 22  2  0
 22 23  1  0
 13 24  2  0
 24 25  1  0
 25 26  1  0
 26 27  1  0
 27 28  1  0
 28 29  1  0
 29 30  2  0
 30 31  1  0
 31 32  2  0
 32 33  1  0
 33 34  2  0
 34 35  1  0
 25 36  2  0
 10  5  1  0
 36 11  1  0
 23 14  1  0
 35 26  1  0
 22 17  1  0
 34 29  1  0
  3 37  1  0
  4 38  1  0
  4 39  1  0
  5 40  1  1
  6 41  1  0
  6 42  1  0
  7 43  1  0
  7 44  1  0
  8 45  1  0
  8 46  1  0
  9 47  1  0
 10 48  1  0
 10 49  1  0
 15 50  1  0
 15 51  1  0
 16 52  1  0
 16 53  1  0
 18 54  1  0
 19 55  1  0
 20 56  1  0
 21 57  1  0
 23 58  1  0
 23 59  1  0
 27 60  1  0
 27 61  1  0
 28 62  1  0
 28 63  1  0
 30 64  1  0
 31 65  1  0
 32 66  1  0
 33 67  1  0
 35 68  1  0
 35 69  1  0
M  END
>  <smiles>  (33) 
O=C(NCC1CCCNC1)c1nc(N2CCc3ccccc3C2)nc(N2CCc3ccccc3C2)n1

>  <score_type>  (33) 
oracle

>  <origin>  (33) 
autodockgpu

>  <m_score__min__energy>  (33) 
-10.33

>  <m_primary>  (33) 
energy

>  <rmsd>  (33) 
4.059170888777225

>  <m_score__min__rmsd>  (33) 
4.059170888777225

>  <meeko>  (33) 
{"free_energy": -9.11, "intermolecular_energy": -10.6, "internal_energy": -1.9, "cluster_size": 25, "cluster_id": 1, "rank_in_cluster": 18}

>  <energy>  (33) 
-9.27

>  <cluster_rmsd>  (33) 
1.21

>  <cluster>  (33) 
4

$$$$

     RDKit          3D

 69 74  0  0  0  0  0  0  0  0999 V2000
  141.0140   70.7510  218.4080 O   0  0  0  0  0  0  0  0  0  0  0  0
  141.0090   70.4290  219.6320 C   0  0  0  0  0  0  0  0  0  0  0  0
  141.1360   69.0330  219.9080 N   0  0  0  0  0  0  0  0  0  0  0  0
  141.2550   68.1520  218.7660 C   0  0  0  0  0  0  0  0  0  0  0  0
  142.6860   67.7120  218.5450 C   0  0  2  0  0  0  0  0  0  0  0  0
  143.4970   68.1760  219.7200 C   0  0  0  0  0  0  0  0  0  0  0  0
  144.5750   69.1570  219.2830 C   0  0  0  0  0  0  0  0  0  0  0  0
  143.9210   70.1930  218.4120 C   0  0  0  0  0  0  0  0  0  0  0  0
  143.3550   69.6390  217.2170 N   0  0  0  0  0  0  0  0  0  0  0  0
  143.2460   68.2080  217.2460 C   0  0  0  0  0  0  0  0  0  0  0  0
  140.8810   71.4170  220.6810 C   0  0  0  0  0  0  0  0  0  0  0  0
  141.0150   72.7350  220.4280 N   0  0  0  0  0  0  0  0  0  0  0  0
  140.8840   73.6190  221.4520 C   0  0  0  0  0  0  0  0  0  0  0  0
  141.0140   75.0260  221.2530 N   0  0  0  0  0  0  0  0  0  0  0  0
  140.0780   75.9800  221.8550 C   0  0  0  0  0  0  0  0  0  0  0  0
  140.9670   77.1260  222.3550 C   0  0  0  0  0  0  0  0  0  0  0  0
  141.4130   77.7890  221.0750 C   0  0  0  0  0  0  0  0  0  0  0  0
  141.2620   79.1450  220.8760 C   0  0  0  0  0  0  0  0  0  0  0  0
  141.6860   79.7190  219.6820 C   0  0  0  0  0  0  0  0  0  0  0  0
  142.2540   78.8850  218.7310 C   0  0  0  0  0  0  0  0  0  0  0  0
  142.3990   77.5140  218.9540 C   0  0  0  0  0  0  0  0  0  0  0  0
  141.9770   76.9460  220.1390 C   0  0  0  0  0  0  0  0  0  0  0  0
  142.1030   75.4940  220.4330 C   0  0  0  0  0  0  0  0  0  0  0  0
  140.6260   73.1830  222.6990 N   0  0  0  0  0  0  0  0  0  0  0  0
  140.4950   71.8760  222.9400 C   0  0  0  0  0  0  0  0  0  0  0  0
  140.2220   71.4300  224.2590 N   0  0  0  0  0  0  0  0  0  0  0  0
  141.0340   71.8940  225.3480 C   0  0  0  0  0  0  0  0  0  0  0  0
  140.6890   71.2380  226.6460 C   0  0  0  0  0  0  0  0  0  0  0  0
  140.4800   69.7830  226.4390 C   0  0  0  0  0  0  0  0  0  0  0  0
  141.0060   68.8060  227.2310 C   0  0  0  0  0  0  0  0  0  0  0  0
  140.7460   67.4750  226.9440 C   0  0  0  0  0  0  0  0  0  0  0  0
  139.9530   67.1090  225.8570 C   0  0  0  0  0  0  0  0  0  0  0  0
  139.4160   68.1000  225.0490 C   0  0  0  0  0  0  0  0  0  0  0  0
  139.6920   69.4140  225.3580 C   0  0  0  0  0  0  0  0  0  0  0  0
  139.1470   70.5190  224.5300 C   0  0  0  0  0  0  0  0  0  0  0  0
  140.6240   71.0040  221.9280 N   0  0  0  0  0  0  0  0  0  0  0  0
  141.1360   68.7150  220.8980 H   0  0  0  0  0  0  0  0  0  0  0  0
  140.6307   67.2623  218.9356 H   0  0  0  0  0  0  0  0  0  0  0  0
  140.9236   68.7019  217.8728 H   0  0  0  0  0  0  0  0  0  0  0  0
  142.7235   66.6151  218.4717 H   0  0  0  0  0  0  0  0  0  0  0  0
  142.8322   68.6704  220.4436 H   0  0  0  0  0  0  0  0  0  0  0  0
  143.9825   67.3020  220.1787 H   0  0  0  0  0  0  0  0  0  0  0  0
  145.0244   69.6376  220.1645 H   0  0  0  0  0  0  0  0  0  0  0  0
  145.3712   68.6355  218.7315 H   0  0  0  0  0  0  0  0  0  0  0  0
  143.1197   70.6802  218.9870 H   0  0  0  0  0  0  0  0  0  0  0  0
  144.6993   70.9086  218.1082 H   0  0  0  0  0  0  0  0  0  0  0  0
  142.4440   70.0630  216.9410 H   0  0  0  0  0  0  0  0  0  0  0  0
  142.5844   67.8859  216.4284 H   0  0  0  0  0  0  0  0  0  0  0  0
  144.2563   67.7886  217.1302 H   0  0  0  0  0  0  0  0  0  0  0  0
  139.3586   76.3439  221.1067 H   0  0  0  0  0  0  0  0  0  0  0  0
  139.4826   75.5292  222.6626 H   0  0  0  0  0  0  0  0  0  0  0  0
  140.3959   77.8244  222.9844 H   0  0  0  0  0  0  0  0  0  0  0  0
  141.8038   76.7850  222.9823 H   0  0  0  0  0  0  0  0  0  0  0  0
  140.8079   79.7706  221.6586 H   0  0  0  0  0  0  0  0  0  0  0  0
  141.5745   80.7978  219.4985 H   0  0  0  0  0  0  0  0  0  0  0  0
  142.5986   79.3134  217.7783 H   0  0  0  0  0  0  0  0  0  0  0  0
  142.8538   76.8809  218.1779 H   0  0  0  0  0  0  0  0  0  0  0  0
  142.1026   74.9358  219.4852 H   0  0  0  0  0  0  0  0  0  0  0  0
  143.0428   75.3326  220.9813 H   0  0  0  0  0  0  0  0  0  0  0  0
  142.0882   71.6821  225.1160 H   0  0  0  0  0  0  0  0  0  0  0  0
  140.8512   72.9727  225.4623 H   0  0  0  0  0  0  0  0  0  0  0  0
  141.5111   71.3900  227.3609 H   0  0  0  0  0  0  0  0  0  0  0  0
  139.7641   71.6833  227.0413 H   0  0  0  0  0  0  0  0  0  0  0  0
  141.6339   69.0727  228.0939 H   0  0  0  0  0  0  0  0  0  0  0  0
  141.1739   66.6916  227.5868 H   0  0  0  0  0  0  0  0  0  0  0  0
  139.7559   66.0481  225.6432 H   0  0  0  0  0  0  0  0  0  0  0  0
  138.7863   67.8437  224.1842 H   0  0  0  0  0  0  0  0  0  0  0  0
  138.7478   70.1187  223.5864 H   0  0  0  0  0  0  0  0  0  0  0  0
  138.3307   71.0319  225.0597 H   0  0  0  0  0  0  0  0  0  0  0  0
  1  2  2  0
  2  3  1  0
  3  4  1  0
  4  5  1  0
  5  6  1  0
  6  7  1  0
  7  8  1  0
  8  9  1  0
  9 10  1  0
  2 11  1  0
 11 12  2  0
 12 13  1  0
 13 14  1  0
 14 15  1  0
 15 16  1  0
 16 17  1  0
 17 18  2  0
 18 19  1  0
 19 20  2  0
 20 21  1  0
 21 22  2  0
 22 23  1  0
 13 24  2  0
 24 25  1  0
 25 26  1  0
 26 27  1  0
 27 28  1  0
 28 29  1  0
 29 30  2  0
 30 31  1  0
 31 32  2  0
 32 33  1  0
 33 34  2  0
 34 35  1  0
 25 36  2  0
 10  5  1  0
 36 11  1  0
 23 14  1  0
 35 26  1  0
 22 17  1  0
 34 29  1  0
  3 37  1  0
  4 38  1  0
  4 39  1  0
  5 40  1  6
  6 41  1  0
  6 42  1  0
  7 43  1  0
  7 44  1  0
  8 45  1  0
  8 46  1  0
  9 47  1  0
 10 48  1  0
 10 49  1  0
 15 50  1  0
 15 51  1  0
 16 52  1  0
 16 53  1  0
 18 54  1  0
 19 55  1  0
 20 56  1  0
 21 57  1  0
 23 58  1  0
 23 59  1  0
 27 60  1  0
 27 61  1  0
 28 62  1  0
 28 63  1  0
 30 64  1  0
 31 65  1  0
 32 66  1  0
 33 67  1  0
 35 68  1  0
 35 69  1  0
M  END
>  <smiles>  (34) 
O=C(NCC1CCCNC1)c1nc(N2CCc3ccccc3C2)nc(N2CCc3ccccc3C2)n1

>  <score_type>  (34) 
oracle

>  <origin>  (34) 
autodockgpu

>  <m_score__min__energy>  (34) 
-10.33

>  <m_primary>  (34) 
energy

>  <rmsd>  (34) 
8.292794104581194

>  <m_score__min__rmsd>  (34) 
8.292794104581194

>  <meeko>  (34) 
{"free_energy": -7.95, "intermolecular_energy": -9.44, "internal_energy": -2.13, "cluster_size": 5, "cluster_id": 4, "rank_in_cluster": 5}

>  <energy>  (34) 
-9.24

>  <cluster_rmsd>  (34) 
1.17

>  <cluster>  (34) 
4

$$$$

     RDKit          3D

 69 74  0  0  0  0  0  0  0  0999 V2000
  138.4770   76.2180  221.8190 O   0  0  0  0  0  0  0  0  0  0  0  0
  139.7290   76.0660  221.9200 C   0  0  0  0  0  0  0  0  0  0  0  0
  140.4920   77.2650  222.0650 N   0  0  0  0  0  0  0  0  0  0  0  0
  139.7530   78.5090  222.0800 C   0  0  0  0  0  0  0  0  0  0  0  0
  140.1610   79.3890  223.2420 C   0  0  2  0  0  0  0  0  0  0  0  0
  140.2880   80.7950  222.7310 C   0  0  0  0  0  0  0  0  0  0  0  0
  141.7130   81.3040  222.8840 C   0  0  0  0  0  0  0  0  0  0  0  0
  142.6320   80.2540  222.3230 C   0  0  0  0  0  0  0  0  0  0  0  0
  142.5560   79.0100  223.0330 N   0  0  0  0  0  0  0  0  0  0  0  0
  141.4200   78.9180  223.9050 C   0  0  0  0  0  0  0  0  0  0  0  0
  140.3430   74.7560  221.8880 C   0  0  0  0  0  0  0  0  0  0  0  0
  139.9390   73.7680  222.7120 N   0  0  0  0  0  0  0  0  0  0  0  0
  140.5520   72.5570  222.6380 C   0  0  0  0  0  0  0  0  0  0  0  0
  140.1740   71.4690  223.4800 N   0  0  0  0  0  0  0  0  0  0  0  0
  138.9050   70.7570  223.2990 C   0  0  0  0  0  0  0  0  0  0  0  0
  139.2650   69.2780  223.4830 C   0  0  0  0  0  0  0  0  0  0  0  0
  139.5460   69.1810  224.9620 C   0  0  0  0  0  0  0  0  0  0  0  0
  138.9250   68.2370  225.7520 C   0  0  0  0  0  0  0  0  0  0  0  0
  139.2110   68.1800  227.1120 C   0  0  0  0  0  0  0  0  0  0  0  0
  140.1240   69.0920  227.6190 C   0  0  0  0  0  0  0  0  0  0  0  0
  140.7420   70.0390  226.8010 C   0  0  0  0  0  0  0  0  0  0  0  0
  140.4570   70.0950  225.4510 C   0  0  0  0  0  0  0  0  0  0  0  0
  141.0810   71.0810  224.5300 C   0  0  0  0  0  0  0  0  0  0  0  0
  141.5470   72.3500  221.7550 N   0  0  0  0  0  0  0  0  0  0  0  0
  141.9400   73.3350  220.9440 C   0  0  0  0  0  0  0  0  0  0  0  0
  142.9900   73.1040  220.0180 N   0  0  0  0  0  0  0  0  0  0  0  0
  142.8810   73.6130  218.6800 C   0  0  0  0  0  0  0  0  0  0  0  0
  144.0130   73.1810  217.8040 C   0  0  0  0  0  0  0  0  0  0  0  0
  144.3140   71.7460  218.0340 C   0  0  0  0  0  0  0  0  0  0  0  0
  144.5140   70.8290  217.0450 C   0  0  0  0  0  0  0  0  0  0  0  0
  144.7890   69.5120  217.3740 C   0  0  0  0  0  0  0  0  0  0  0  0
  144.8660   69.0980  218.7040 C   0  0  0  0  0  0  0  0  0  0  0  0
  144.6640   70.0270  219.7130 C   0  0  0  0  0  0  0  0  0  0  0  0
  144.3930   71.3290  219.3560 C   0  0  0  0  0  0  0  0  0  0  0  0
  144.1660   72.3690  220.3910 C   0  0  0  0  0  0  0  0  0  0  0  0
  141.3340   74.5300  221.0170 N   0  0  0  0  0  0  0  0  0  0  0  0
  141.5260   77.1950  222.1510 H   0  0  0  0  0  0  0  0  0  0  0  0
  139.9438   79.0482  221.1404 H   0  0  0  0  0  0  0  0  0  0  0  0
  138.6844   78.2716  222.1885 H   0  0  0  0  0  0  0  0  0  0  0  0
  139.3902   79.3409  224.0253 H   0  0  0  0  0  0  0  0  0  0  0  0
  140.0103   80.8174  221.6669 H   0  0  0  0  0  0  0  0  0  0  0  0
  139.6197   81.4427  223.3174 H   0  0  0  0  0  0  0  0  0  0  0  0
  141.8366   82.2460  222.3297 H   0  0  0  0  0  0  0  0  0  0  0  0
  141.9441   81.4950  223.9423 H   0  0  0  0  0  0  0  0  0  0  0  0
  142.3612   80.0755  221.2719 H   0  0  0  0  0  0  0  0  0  0  0  0
  143.6615   80.6287  222.4220 H   0  0  0  0  0  0  0  0  0  0  0  0
  142.6100   78.1680  222.4220 H   0  0  0  0  0  0  0  0  0  0  0  0
  141.2899   77.8688  224.2086 H   0  0  0  0  0  0  0  0  0  0  0  0
  141.6073   79.5648  224.7748 H   0  0  0  0  0  0  0  0  0  0  0  0
  138.1698   71.0749  224.0529 H   0  0  0  0  0  0  0  0  0  0  0  0
  138.4490   70.9576  222.3183 H   0  0  0  0  0  0  0  0  0  0  0  0
  138.4254   68.6277  223.1962 H   0  0  0  0  0  0  0  0  0  0  0  0
  140.1110   68.9558  222.8581 H   0  0  0  0  0  0  0  0  0  0  0  0
  138.2064   67.5319  225.3086 H   0  0  0  0  0  0  0  0  0  0  0  0
  138.7290   67.4362  227.7635 H   0  0  0  0  0  0  0  0  0  0  0  0
  140.3670   69.0686  228.6916 H   0  0  0  0  0  0  0  0  0  0  0  0
  141.4627   70.7473  227.2357 H   0  0  0  0  0  0  0  0  0  0  0  0
  141.3673   71.9748  225.1037 H   0  0  0  0  0  0  0  0  0  0  0  0
  141.9633   70.6129  224.0690 H   0  0  0  0  0  0  0  0  0  0  0  0
  141.9391   73.2515  218.2417 H   0  0  0  0  0  0  0  0  0  0  0  0
  142.9072   74.7111  218.7392 H   0  0  0  0  0  0  0  0  0  0  0  0
  143.7356   73.3306  216.7501 H   0  0  0  0  0  0  0  0  0  0  0  0
  144.9040   73.7797  218.0440 H   0  0  0  0  0  0  0  0  0  0  0  0
  144.4572   71.1340  215.9897 H   0  0  0  0  0  0  0  0  0  0  0  0
  144.9499   68.7780  216.5707 H   0  0  0  0  0  0  0  0  0  0  0  0
  145.0842   68.0480  218.9489 H   0  0  0  0  0  0  0  0  0  0  0  0
  144.7188   69.7317  220.7712 H   0  0  0  0  0  0  0  0  0  0  0  0
  144.0165   71.8951  221.3724 H   0  0  0  0  0  0  0  0  0  0  0  0
  145.0347   73.0401  220.4611 H   0  0  0  0  0  0  0  0  0  0  0  0
  1  2  2  0
  2  3  1  0
  3  4  1  0
  4  5  1  0
  5  6  1  0
  6  7  1  0
  7  8  1  0
  8  9  1  0
  9 10  1  0
  2 11  1  0
 11 12  2  0
 12 13  1  0
 13 14  1  0
 14 15  1  0
 15 16  1  0
 16 17  1  0
 17 18  2  0
 18 19  1  0
 19 20  2  0
 20 21  1  0
 21 22  2  0
 22 23  1  0
 13 24  2  0
 24 25  1  0
 25 26  1  0
 26 27  1  0
 27 28  1  0
 28 29  1  0
 29 30  2  0
 30 31  1  0
 31 32  2  0
 32 33  1  0
 33 34  2  0
 34 35  1  0
 25 36  2  0
 10  5  1  0
 36 11  1  0
 23 14  1  0
 35 26  1  0
 22 17  1  0
 34 29  1  0
  3 37  1  0
  4 38  1  0
  4 39  1  0
  5 40  1  1
  6 41  1  0
  6 42  1  0
  7 43  1  0
  7 44  1  0
  8 45  1  0
  8 46  1  0
  9 47  1  0
 10 48  1  0
 10 49  1  0
 15 50  1  0
 15 51  1  0
 16 52  1  0
 16 53  1  0
 18 54  1  0
 19 55  1  0
 20 56  1  0
 21 57  1  0
 23 58  1  0
 23 59  1  0
 27 60  1  0
 27 61  1  0
 28 62  1  0
 28 63  1  0
 30 64  1  0
 31 65  1  0
 32 66  1  0
 33 67  1  0
 35 68  1  0
 35 69  1  0
M  END
>  <smiles>  (35) 
O=C(NCC1CCCNC1)c1nc(N2CCc3ccccc3C2)nc(N2CCc3ccccc3C2)n1

>  <score_type>  (35) 
oracle

>  <origin>  (35) 
autodockgpu

>  <m_score__min__energy>  (35) 
-10.33

>  <m_primary>  (35) 
energy

>  <rmsd>  (35) 
4.4786829253882745

>  <m_score__min__rmsd>  (35) 
4.4786829253882745

>  <meeko>  (35) 
{"free_energy": -9.49, "intermolecular_energy": -10.98, "internal_energy": -1.57, "cluster_size": 25, "cluster_id": 1, "rank_in_cluster": 12}

>  <energy>  (35) 
-9.23

>  <cluster_rmsd>  (35) 
1.21

>  <cluster>  (35) 
4

$$$$

     RDKit          3D

 69 74  0  0  0  0  0  0  0  0999 V2000
  144.4190   75.0230  219.7960 O   0  0  0  0  0  0  0  0  0  0  0  0
  143.1960   74.9710  219.4720 C   0  0  0  0  0  0  0  0  0  0  0  0
  142.9260   74.9610  218.0700 N   0  0  0  0  0  0  0  0  0  0  0  0
  144.0700   75.0110  217.1850 C   0  0  0  0  0  0  0  0  0  0  0  0
  144.4540   73.6350  216.6880 C   0  0  2  0  0  0  0  0  0  0  0  0
  143.4410   72.6580  217.2100 C   0  0  0  0  0  0  0  0  0  0  0  0
  144.0940   71.6320  218.1240 C   0  0  0  0  0  0  0  0  0  0  0  0
  144.9390   72.3820  219.1160 C   0  0  0  0  0  0  0  0  0  0  0  0
  146.0000   73.1220  218.4970 N   0  0  0  0  0  0  0  0  0  0  0  0
  145.8520   73.2530  217.0750 C   0  0  0  0  0  0  0  0  0  0  0  0
  142.1450   74.9260  220.4640 C   0  0  0  0  0  0  0  0  0  0  0  0
  141.6270   73.7550  220.8900 N   0  0  0  0  0  0  0  0  0  0  0  0
  140.6410   73.7730  221.8250 C   0  0  0  0  0  0  0  0  0  0  0  0
  140.0500   72.5720  222.3180 N   0  0  0  0  0  0  0  0  0  0  0  0
  138.8160   72.0250  221.7430 C   0  0  0  0  0  0  0  0  0  0  0  0
  139.0660   70.5150  221.6640 C   0  0  0  0  0  0  0  0  0  0  0  0
  139.0290   70.0910  223.1120 C   0  0  0  0  0  0  0  0  0  0  0  0
  138.2180   69.0620  223.5400 C   0  0  0  0  0  0  0  0  0  0  0  0
  138.2120   68.7000  224.8830 C   0  0  0  0  0  0  0  0  0  0  0  0
  139.0390   69.4050  225.7450 C   0  0  0  0  0  0  0  0  0  0  0  0
  139.8530   70.4440  225.2890 C   0  0  0  0  0  0  0  0  0  0  0  0
  139.8580   70.8020  223.9560 C   0  0  0  0  0  0  0  0  0  0  0  0
  140.7020   71.8980  223.4130 C   0  0  0  0  0  0  0  0  0  0  0  0
  140.1890   74.9420  222.3170 N   0  0  0  0  0  0  0  0  0  0  0  0
  140.7080   76.0950  221.8890 C   0  0  0  0  0  0  0  0  0  0  0  0
  140.2230   77.3210  222.4150 N   0  0  0  0  0  0  0  0  0  0  0  0
  138.8500   77.6880  222.2100 C   0  0  0  0  0  0  0  0  0  0  0  0
  138.5360   79.0560  222.7240 C   0  0  0  0  0  0  0  0  0  0  0  0
  139.6230   79.9980  222.3570 C   0  0  0  0  0  0  0  0  0  0  0  0
  139.4260   81.2390  221.8280 C   0  0  0  0  0  0  0  0  0  0  0  0
  140.5170   82.0360  221.5220 C   0  0  0  0  0  0  0  0  0  0  0  0
  141.8220   81.5970  221.7430 C   0  0  0  0  0  0  0  0  0  0  0  0
  142.0270   80.3350  222.2810 C   0  0  0  0  0  0  0  0  0  0  0  0
  140.9240   79.5650  222.5760 C   0  0  0  0  0  0  0  0  0  0  0  0
  141.0790   78.2060  223.1530 C   0  0  0  0  0  0  0  0  0  0  0  0
  141.6820   76.0770  220.9660 N   0  0  0  0  0  0  0  0  0  0  0  0
  141.9370   74.9200  217.7490 H   0  0  0  0  0  0  0  0  0  0  0  0
  143.8248   75.6464  216.3212 H   0  0  0  0  0  0  0  0  0  0  0  0
  144.9211   75.4219  217.7479 H   0  0  0  0  0  0  0  0  0  0  0  0
  144.4502   73.6301  215.5880 H   0  0  0  0  0  0  0  0  0  0  0  0
  142.6715   73.2048  217.7747 H   0  0  0  0  0  0  0  0  0  0  0  0
  142.9904   72.1305  216.3564 H   0  0  0  0  0  0  0  0  0  0  0  0
  143.3213   71.0530  218.6510 H   0  0  0  0  0  0  0  0  0  0  0  0
  144.7107   70.9317  217.5415 H   0  0  0  0  0  0  0  0  0  0  0  0
  144.2952   73.0844  219.6657 H   0  0  0  0  0  0  0  0  0  0  0  0
  145.3998   71.6405  219.7852 H   0  0  0  0  0  0  0  0  0  0  0  0
  146.1780   74.0530  218.9270 H   0  0  0  0  0  0  0  0  0  0  0  0
  146.5443   74.0287  216.7159 H   0  0  0  0  0  0  0  0  0  0  0  0
  146.0761   72.2774  216.6189 H   0  0  0  0  0  0  0  0  0  0  0  0
  137.9548   72.2431  222.3916 H   0  0  0  0  0  0  0  0  0  0  0  0
  138.5824   72.4623  220.7610 H   0  0  0  0  0  0  0  0  0  0  0  0
  138.2773   70.0131  221.0844 H   0  0  0  0  0  0  0  0  0  0  0  0
  140.0087   70.2565  221.1596 H   0  0  0  0  0  0  0  0  0  0  0  0
  137.5776   68.5288  222.8219 H   0  0  0  0  0  0  0  0  0  0  0  0
  137.5733   67.8826  225.2490 H   0  0  0  0  0  0  0  0  0  0  0  0
  139.0540   69.1395  226.8124 H   0  0  0  0  0  0  0  0  0  0  0  0
  140.4970   70.9828  225.9996 H   0  0  0  0  0  0  0  0  0  0  0  0
  140.9015   72.6259  224.2132 H   0  0  0  0  0  0  0  0  0  0  0  0
  141.6397   71.4601  223.0404 H   0  0  0  0  0  0  0  0  0  0  0  0
  138.6353   77.6593  221.1316 H   0  0  0  0  0  0  0  0  0  0  0  0
  138.2279   76.9725  222.7677 H   0  0  0  0  0  0  0  0  0  0  0  0
  137.5895   79.4024  222.2833 H   0  0  0  0  0  0  0  0  0  0  0  0
  138.4455   79.0182  223.8196 H   0  0  0  0  0  0  0  0  0  0  0  0
  138.4052   81.6058  221.6450 H   0  0  0  0  0  0  0  0  0  0  0  0
  140.3504   83.0363  221.0957 H   0  0  0  0  0  0  0  0  0  0  0  0
  142.6771   82.2426  221.4941 H   0  0  0  0  0  0  0  0  0  0  0  0
  143.0439   79.9591  222.4671 H   0  0  0  0  0  0  0  0  0  0  0  0
  142.1250   77.8775  223.0634 H   0  0  0  0  0  0  0  0  0  0  0  0
  140.8080   78.2057  224.2191 H   0  0  0  0  0  0  0  0  0  0  0  0
  1  2  2  0
  2  3  1  0
  3  4  1  0
  4  5  1  0
  5  6  1  0
  6  7  1  0
  7  8  1  0
  8  9  1  0
  9 10  1  0
  2 11  1  0
 11 12  2  0
 12 13  1  0
 13 14  1  0
 14 15  1  0
 15 16  1  0
 16 17  1  0
 17 18  2  0
 18 19  1  0
 19 20  2  0
 20 21  1  0
 21 22  2  0
 22 23  1  0
 13 24  2  0
 24 25  1  0
 25 26  1  0
 26 27  1  0
 27 28  1  0
 28 29  1  0
 29 30  2  0
 30 31  1  0
 31 32  2  0
 32 33  1  0
 33 34  2  0
 34 35  1  0
 25 36  2  0
 10  5  1  0
 36 11  1  0
 23 14  1  0
 35 26  1  0
 22 17  1  0
 34 29  1  0
  3 37  1  0
  4 38  1  0
  4 39  1  0
  5 40  1  6
  6 41  1  0
  6 42  1  0
  7 43  1  0
  7 44  1  0
  8 45  1  0
  8 46  1  0
  9 47  1  0
 10 48  1  0
 10 49  1  0
 15 50  1  0
 15 51  1  0
 16 52  1  0
 16 53  1  0
 18 54  1  0
 19 55  1  0
 20 56  1  0
 21 57  1  0
 23 58  1  0
 23 59  1  0
 27 60  1  0
 27 61  1  0
 28 62  1  0
 28 63  1  0
 30 64  1  0
 31 65  1  0
 32 66  1  0
 33 67  1  0
 35 68  1  0
 35 69  1  0
M  END
>  <smiles>  (36) 
O=C(NCC1CCCNC1)c1nc(N2CCc3ccccc3C2)nc(N2CCc3ccccc3C2)n1

>  <score_type>  (36) 
oracle

>  <origin>  (36) 
autodockgpu

>  <m_score__min__energy>  (36) 
-10.33

>  <m_primary>  (36) 
energy

>  <rmsd>  (36) 
5.87126570242918

>  <m_score__min__rmsd>  (36) 
5.87126570242918

>  <meeko>  (36) 
{"free_energy": -8.72, "intermolecular_energy": -10.22, "internal_energy": -1.79, "cluster_size": 6, "cluster_id": 6, "rank_in_cluster": 2}

>  <energy>  (36) 
-7.95

>  <cluster_rmsd>  (36) 
1.16

>  <cluster>  (36) 
4

$$$$

     RDKit          3D

 69 74  0  0  0  0  0  0  0  0999 V2000
  141.1190   76.3460  220.5280 O   0  0  0  0  0  0  0  0  0  0  0  0
  140.4740   75.6180  221.3370 C   0  0  0  0  0  0  0  0  0  0  0  0
  139.5050   76.2910  222.1420 N   0  0  0  0  0  0  0  0  0  0  0  0
  139.3720   77.7180  221.9440 C   0  0  0  0  0  0  0  0  0  0  0  0
  139.9170   78.5000  223.1190 C   0  0  2  0  0  0  0  0  0  0  0  0
  139.6910   79.9590  222.8450 C   0  0  0  0  0  0  0  0  0  0  0  0
  141.0120   80.7090  222.7600 C   0  0  0  0  0  0  0  0  0  0  0  0
  141.9110   79.9400  221.8320 C   0  0  0  0  0  0  0  0  0  0  0  0
  142.2110   78.6220  222.3140 N   0  0  0  0  0  0  0  0  0  0  0  0
  141.3610   78.1990  223.3900 C   0  0  0  0  0  0  0  0  0  0  0  0
  140.7080   74.1930  221.4350 C   0  0  0  0  0  0  0  0  0  0  0  0
  140.3400   73.4920  222.5270 N   0  0  0  0  0  0  0  0  0  0  0  0
  140.5850   72.1560  222.5640 C   0  0  0  0  0  0  0  0  0  0  0  0
  140.2210   71.3550  223.6880 N   0  0  0  0  0  0  0  0  0  0  0  0
  139.0150   70.5210  223.6840 C   0  0  0  0  0  0  0  0  0  0  0  0
  139.4570   69.2060  224.3390 C   0  0  0  0  0  0  0  0  0  0  0  0
  139.6430   69.5950  225.7840 C   0  0  0  0  0  0  0  0  0  0  0  0
  139.0330   68.8950  226.8030 C   0  0  0  0  0  0  0  0  0  0  0  0
  139.2310   69.2850  228.1230 C   0  0  0  0  0  0  0  0  0  0  0  0
  140.0480   70.3800  228.3580 C   0  0  0  0  0  0  0  0  0  0  0  0
  140.6570   71.0750  227.3110 C   0  0  0  0  0  0  0  0  0  0  0  0
  140.4600   70.6870  226.0010 C   0  0  0  0  0  0  0  0  0  0  0  0
  141.0800   71.3870  224.8450 C   0  0  0  0  0  0  0  0  0  0  0  0
  141.1860   71.5440  221.5260 N   0  0  0  0  0  0  0  0  0  0  0  0
  141.5470   72.2470  220.4510 C   0  0  0  0  0  0  0  0  0  0  0  0
  142.1790   71.5910  219.3630 N   0  0  0  0  0  0  0  0  0  0  0  0
  141.5180   70.4940  218.7140 C   0  0  0  0  0  0  0  0  0  0  0  0
  142.3680   69.8420  217.6720 C   0  0  0  0  0  0  0  0  0  0  0  0
  143.7560   69.6850  218.1750 C   0  0  0  0  0  0  0  0  0  0  0  0
  144.4950   68.5440  218.0620 C   0  0  0  0  0  0  0  0  0  0  0  0
  145.7840   68.5080  218.5700 C   0  0  0  0  0  0  0  0  0  0  0  0
  146.3480   69.6180  219.1980 C   0  0  0  0  0  0  0  0  0  0  0  0
  145.6000   70.7800  219.3130 C   0  0  0  0  0  0  0  0  0  0  0  0
  144.3220   70.7870  218.8000 C   0  0  0  0  0  0  0  0  0  0  0  0
  143.4730   72.0010  218.8940 C   0  0  0  0  0  0  0  0  0  0  0  0
  141.3040   73.5670  220.4140 N   0  0  0  0  0  0  0  0  0  0  0  0
  138.9470   75.7380  222.8240 H   0  0  0  0  0  0  0  0  0  0  0  0
  139.9251   78.0051  221.0376 H   0  0  0  0  0  0  0  0  0  0  0  0
  138.3018   77.9517  221.8438 H   0  0  0  0  0  0  0  0  0  0  0  0
  139.3853   78.2012  224.0344 H   0  0  0  0  0  0  0  0  0  0  0  0
  139.1541   80.0669  221.8910 H   0  0  0  0  0  0  0  0  0  0  0  0
  139.0998   80.3830  223.6701 H   0  0  0  0  0  0  0  0  0  0  0  0
  140.8437   81.7220  222.3657 H   0  0  0  0  0  0  0  0  0  0  0  0
  141.4703   80.7994  223.7559 H   0  0  0  0  0  0  0  0  0  0  0  0
  141.4145   79.8522  220.8543 H   0  0  0  0  0  0  0  0  0  0  0  0
  142.8607   80.4903  221.7593 H   0  0  0  0  0  0  0  0  0  0  0  0
  142.2400   77.8940  221.5700 H   0  0  0  0  0  0  0  0  0  0  0  0
  141.4773   77.1140  223.5286 H   0  0  0  0  0  0  0  0  0  0  0  0
  141.6585   78.7506  224.2940 H   0  0  0  0  0  0  0  0  0  0  0  0
  138.2119   70.9954  224.2671 H   0  0  0  0  0  0  0  0  0  0  0  0
  138.6134   70.3702  222.6711 H   0  0  0  0  0  0  0  0  0  0  0  0
  138.6826   68.4318  224.2341 H   0  0  0  0  0  0  0  0  0  0  0  0
  140.3624   68.7773  223.8846 H   0  0  0  0  0  0  0  0  0  0  0  0
  138.3921   68.0312  226.5728 H   0  0  0  0  0  0  0  0  0  0  0  0
  138.7551   68.7426  228.9532 H   0  0  0  0  0  0  0  0  0  0  0  0
  140.2206   70.7091  229.3933 H   0  0  0  0  0  0  0  0  0  0  0  0
  141.2998   71.9398  227.5323 H   0  0  0  0  0  0  0  0  0  0  0  0
  141.2697   72.4348  225.1210 H   0  0  0  0  0  0  0  0  0  0  0  0
  142.0195   70.8734  224.5928 H   0  0  0  0  0  0  0  0  0  0  0  0
  141.2546   69.7431  219.4734 H   0  0  0  0  0  0  0  0  0  0  0  0
  140.6257   70.8950  218.2110 H   0  0  0  0  0  0  0  0  0  0  0  0
  141.9536   68.8520  217.4309 H   0  0  0  0  0  0  0  0  0  0  0  0
  142.3797   70.4711  216.7697 H   0  0  0  0  0  0  0  0  0  0  0  0
  144.0699   67.6567  217.5700 H   0  0  0  0  0  0  0  0  0  0  0  0
  146.3744   67.5847  218.4759 H   0  0  0  0  0  0  0  0  0  0  0  0
  147.3722   69.5725  219.5967 H   0  0  0  0  0  0  0  0  0  0  0  0
  146.0168   71.6732  219.8014 H   0  0  0  0  0  0  0  0  0  0  0  0
  143.9187   72.7165  219.6007 H   0  0  0  0  0  0  0  0  0  0  0  0
  143.3906   72.4915  217.9129 H   0  0  0  0  0  0  0  0  0  0  0  0
  1  2  2  0
  2  3  1  0
  3  4  1  0
  4  5  1  0
  5  6  1  0
  6  7  1  0
  7  8  1  0
  8  9  1  0
  9 10  1  0
  2 11  1  0
 11 12  2  0
 12 13  1  0
 13 14  1  0
 14 15  1  0
 15 16  1  0
 16 17  1  0
 17 18  2  0
 18 19  1  0
 19 20  2  0
 20 21  1  0
 21 22  2  0
 22 23  1  0
 13 24  2  0
 24 25  1  0
 25 26  1  0
 26 27  1  0
 27 28  1  0
 28 29  1  0
 29 30  2  0
 30 31  1  0
 31 32  2  0
 32 33  1  0
 33 34  2  0
 34 35  1  0
 25 36  2  0
 10  5  1  0
 36 11  1  0
 23 14  1  0
 35 26  1  0
 22 17  1  0
 34 29  1  0
  3 37  1  0
  4 38  1  0
  4 39  1  0
  5 40  1  1
  6 41  1  0
  6 42  1  0
  7 43  1  0
  7 44  1  0
  8 45  1  0
  8 46  1  0
  9 47  1  0
 10 48  1  0
 10 49  1  0
 15 50  1  0
 15 51  1  0
 16 52  1  0
 16 53  1  0
 18 54  1  0
 19 55  1  0
 20 56  1  0
 21 57  1  0
 23 58  1  0
 23 59  1  0
 27 60  1  0
 27 61  1  0
 28 62  1  0
 28 63  1  0
 30 64  1  0
 31 65  1  0
 32 66  1  0
 33 67  1  0
 35 68  1  0
 35 69  1  0
M  END
>  <smiles>  (37) 
O=C(NCC1CCCNC1)c1nc(N2CCc3ccccc3C2)nc(N2CCc3ccccc3C2)n1

>  <score_type>  (37) 
oracle

>  <origin>  (37) 
autodockgpu

>  <m_score__min__energy>  (37) 
-10.33

>  <m_primary>  (37) 
energy

>  <rmsd>  (37) 
4.131198172872815

>  <m_score__min__rmsd>  (37) 
4.131198172872815

>  <meeko>  (37) 
{"free_energy": -9.05, "intermolecular_energy": -10.54, "internal_energy": -1.88, "cluster_size": 25, "cluster_id": 1, "rank_in_cluster": 19}

>  <energy>  (37) 
-8.97

>  <cluster_rmsd>  (37) 
0.0

>  <cluster>  (37) 
5

$$$$

     RDKit          3D

 69 74  0  0  0  0  0  0  0  0999 V2000
  138.9880   75.9580  221.4970 O   0  0  0  0  0  0  0  0  0  0  0  0
  140.1820   75.5560  221.6140 C   0  0  0  0  0  0  0  0  0  0  0  0
  141.1760   76.5770  221.7060 N   0  0  0  0  0  0  0  0  0  0  0  0
  140.7100   77.9460  221.6540 C   0  0  0  0  0  0  0  0  0  0  0  0
  140.7840   78.6160  223.0090 C   0  0  2  0  0  0  0  0  0  0  0  0
  139.8880   79.8190  222.9770 C   0  0  0  0  0  0  0  0  0  0  0  0
  140.6840   81.0980  223.1930 C   0  0  0  0  0  0  0  0  0  0  0  0
  141.8630   81.0610  222.2610 C   0  0  0  0  0  0  0  0  0  0  0  0
  142.7510   79.9670  222.5300 N   0  0  0  0  0  0  0  0  0  0  0  0
  142.1870   78.9730  223.3980 C   0  0  0  0  0  0  0  0  0  0  0  0
  140.5120   74.1470  221.6530 C   0  0  0  0  0  0  0  0  0  0  0  0
  140.2150   73.3830  222.7230 N   0  0  0  0  0  0  0  0  0  0  0  0
  140.5480   72.0650  222.7030 C   0  0  0  0  0  0  0  0  0  0  0  0
  140.2620   71.2000  223.8010 N   0  0  0  0  0  0  0  0  0  0  0  0
  139.0270   70.4130  223.8640 C   0  0  0  0  0  0  0  0  0  0  0  0
  139.4720   69.0400  224.3800 C   0  0  0  0  0  0  0  0  0  0  0  0
  139.8170   69.3180  225.8220 C   0  0  0  0  0  0  0  0  0  0  0  0
  139.2800   68.5690  226.8480 C   0  0  0  0  0  0  0  0  0  0  0  0
  139.6230   68.8560  228.1650 C   0  0  0  0  0  0  0  0  0  0  0  0
  140.5060   69.9020  228.3890 C   0  0  0  0  0  0  0  0  0  0  0  0
  141.0390   70.6460  227.3350 C   0  0  0  0  0  0  0  0  0  0  0  0
  140.6980   70.3600  226.0290 C   0  0  0  0  0  0  0  0  0  0  0  0
  141.2310   71.1180  224.8660 C   0  0  0  0  0  0  0  0  0  0  0  0
  141.1660   71.5340  221.6320 N   0  0  0  0  0  0  0  0  0  0  0  0
  141.4570   72.3000  220.5780 C   0  0  0  0  0  0  0  0  0  0  0  0
  142.1090   71.7290  219.4540 N   0  0  0  0  0  0  0  0  0  0  0  0
  141.4870   70.6450  218.7480 C   0  0  0  0  0  0  0  0  0  0  0  0
  142.3560   70.0840  217.6690 C   0  0  0  0  0  0  0  0  0  0  0  0
  143.7510   69.9530  218.1580 C   0  0  0  0  0  0  0  0  0  0  0  0
  144.5320   68.8490  217.9810 C   0  0  0  0  0  0  0  0  0  0  0  0
  145.8240   68.8340  218.4820 C   0  0  0  0  0  0  0  0  0  0  0  0
  146.3480   69.9290  219.1680 C   0  0  0  0  0  0  0  0  0  0  0  0
  145.5580   71.0540  219.3500 C   0  0  0  0  0  0  0  0  0  0  0  0
  144.2780   71.0400  218.8410 C   0  0  0  0  0  0  0  0  0  0  0  0
  143.3830   72.2140  219.0050 C   0  0  0  0  0  0  0  0  0  0  0  0
  141.1270   73.6010  220.5970 N   0  0  0  0  0  0  0  0  0  0  0  0
  142.1740   76.3000  221.8040 H   0  0  0  0  0  0  0  0  0  0  0  0
  141.3346   78.5081  220.9441 H   0  0  0  0  0  0  0  0  0  0  0  0
  139.6578   77.9374  221.3335 H   0  0  0  0  0  0  0  0  0  0  0  0
  140.4427   77.9127  223.7829 H   0  0  0  0  0  0  0  0  0  0  0  0
  139.3866   79.8682  221.9991 H   0  0  0  0  0  0  0  0  0  0  0  0
  139.1478   79.7262  223.7854 H   0  0  0  0  0  0  0  0  0  0  0  0
  140.0562   81.9731  222.9694 H   0  0  0  0  0  0  0  0  0  0  0  0
  141.0192   81.1732  224.2380 H   0  0  0  0  0  0  0  0  0  0  0  0
  141.4926   80.9674  221.2295 H   0  0  0  0  0  0  0  0  0  0  0  0
  142.4305   81.9917  222.4083 H   0  0  0  0  0  0  0  0  0  0  0  0
  143.1440   79.5180  221.6760 H   0  0  0  0  0  0  0  0  0  0  0  0
  142.8094   78.0672  223.3517 H   0  0  0  0  0  0  0  0  0  0  0  0
  142.1613   79.3876  224.4165 H   0  0  0  0  0  0  0  0  0  0  0  0
  138.3073   70.8739  224.5565 H   0  0  0  0  0  0  0  0  0  0  0  0
  138.5216   70.3495  222.8890 H   0  0  0  0  0  0  0  0  0  0  0  0
  138.6573   68.3050  224.3025 H   0  0  0  0  0  0  0  0  0  0  0  0
  140.3079   68.6109  223.8081 H   0  0  0  0  0  0  0  0  0  0  0  0
  138.5830   67.7476  226.6256 H   0  0  0  0  0  0  0  0  0  0  0  0
  139.2081   68.2732  229.0006 H   0  0  0  0  0  0  0  0  0  0  0  0
  140.7929   70.1510  229.4213 H   0  0  0  0  0  0  0  0  0  0  0  0
  141.7378   71.4685  227.5477 H   0  0  0  0  0  0  0  0  0  0  0  0
  141.4916   72.1359  225.1916 H   0  0  0  0  0  0  0  0  0  0  0  0
  142.1180   70.5898  224.4863 H   0  0  0  0  0  0  0  0  0  0  0  0
  141.2563   69.8441  219.4659 H   0  0  0  0  0  0  0  0  0  0  0  0
  140.5775   71.0384  218.2706 H   0  0  0  0  0  0  0  0  0  0  0  0
  141.9784   69.0935  217.3752 H   0  0  0  0  0  0  0  0  0  0  0  0
  142.3390   70.7616  216.8026 H   0  0  0  0  0  0  0  0  0  0  0  0
  144.1380   67.9742  217.4429 H   0  0  0  0  0  0  0  0  0  0  0  0
  146.4486   67.9404  218.3356 H   0  0  0  0  0  0  0  0  0  0  0  0
  147.3754   69.9008  219.5600 H   0  0  0  0  0  0  0  0  0  0  0  0
  145.9430   71.9338  219.8863 H   0  0  0  0  0  0  0  0  0  0  0  0
  143.8044   72.9059  219.7491 H   0  0  0  0  0  0  0  0  0  0  0  0
  143.2768   72.7548  218.0530 H   0  0  0  0  0  0  0  0  0  0  0  0
  1  2  2  0
  2  3  1  0
  3  4  1  0
  4  5  1  0
  5  6  1  0
  6  7  1  0
  7  8  1  0
  8  9  1  0
  9 10  1  0
  2 11  1  0
 11 12  2  0
 12 13  1  0
 13 14  1  0
 14 15  1  0
 15 16  1  0
 16 17  1  0
 17 18  2  0
 18 19  1  0
 19 20  2  0
 20 21  1  0
 21 22  2  0
 22 23  1  0
 13 24  2  0
 24 25  1  0
 25 26  1  0
 26 27  1  0
 27 28  1  0
 28 29  1  0
 29 30  2  0
 30 31  1  0
 31 32  2  0
 32 33  1  0
 33 34  2  0
 34 35  1  0
 25 36  2  0
 10  5  1  0
 36 11  1  0
 23 14  1  0
 35 26  1  0
 22 17  1  0
 34 29  1  0
  3 37  1  0
  4 38  1  0
  4 39  1  0
  5 40  1  1
  6 41  1  0
  6 42  1  0
  7 43  1  0
  7 44  1  0
  8 45  1  0
  8 46  1  0
  9 47  1  0
 10 48  1  0
 10 49  1  0
 15 50  1  0
 15 51  1  0
 16 52  1  0
 16 53  1  0
 18 54  1  0
 19 55  1  0
 20 56  1  0
 21 57  1  0
 23 58  1  0
 23 59  1  0
 27 60  1  0
 27 61  1  0
 28 62  1  0
 28 63  1  0
 30 64  1  0
 31 65  1  0
 32 66  1  0
 33 67  1  0
 35 68  1  0
 35 69  1  0
M  END
>  <smiles>  (38) 
O=C(NCC1CCCNC1)c1nc(N2CCc3ccccc3C2)nc(N2CCc3ccccc3C2)n1

>  <score_type>  (38) 
oracle

>  <origin>  (38) 
autodockgpu

>  <m_score__min__energy>  (38) 
-10.33

>  <m_primary>  (38) 
energy

>  <rmsd>  (38) 
4.269575687272803

>  <m_score__min__rmsd>  (38) 
4.269575687272803

>  <meeko>  (38) 
{"free_energy": -10.18, "intermolecular_energy": -11.68, "internal_energy": -1.0, "cluster_size": 25, "cluster_id": 1, "rank_in_cluster": 4}

>  <energy>  (38) 
-8.83

>  <cluster_rmsd>  (38) 
0.36

>  <cluster>  (38) 
5

$$$$

     RDKit          3D

 69 74  0  0  0  0  0  0  0  0999 V2000
  139.7710   70.9290  221.9920 O   0  0  0  0  0  0  0  0  0  0  0  0
  140.1390   71.9320  222.6720 C   0  0  0  0  0  0  0  0  0  0  0  0
  140.0000   71.8070  224.0870 N   0  0  0  0  0  0  0  0  0  0  0  0
  139.4580   70.5600  224.5810 C   0  0  0  0  0  0  0  0  0  0  0  0
  140.4240   69.8600  225.5130 C   0  0  2  0  0  0  0  0  0  0  0  0
  139.6960   69.5650  226.7930 C   0  0  0  0  0  0  0  0  0  0  0  0
  140.3400   70.2890  227.9660 C   0  0  0  0  0  0  0  0  0  0  0  0
  140.5260   71.7260  227.5650 C   0  0  0  0  0  0  0  0  0  0  0  0
  141.4080   71.8820  226.4440 N   0  0  0  0  0  0  0  0  0  0  0  0
  141.6730   70.6540  225.7500 C   0  0  0  0  0  0  0  0  0  0  0  0
  140.6650   73.1260  222.0470 C   0  0  0  0  0  0  0  0  0  0  0  0
  140.1780   74.3480  222.3410 N   0  0  0  0  0  0  0  0  0  0  0  0
  140.7120   75.4350  221.7240 C   0  0  0  0  0  0  0  0  0  0  0  0
  140.2430   76.7570  221.9880 N   0  0  0  0  0  0  0  0  0  0  0  0
  138.9270   77.2160  221.5320 C   0  0  0  0  0  0  0  0  0  0  0  0
  138.3670   78.0120  222.7170 C   0  0  0  0  0  0  0  0  0  0  0  0
  139.2200   79.2550  222.7210 C   0  0  0  0  0  0  0  0  0  0  0  0
  138.6580   80.5150  222.7220 C   0  0  0  0  0  0  0  0  0  0  0  0
  139.4790   81.6370  222.7260 C   0  0  0  0  0  0  0  0  0  0  0  0
  140.8510   81.4340  222.7300 C   0  0  0  0  0  0  0  0  0  0  0  0
  141.3990   80.1500  222.7300 C   0  0  0  0  0  0  0  0  0  0  0  0
  140.5830   79.0360  222.7250 C   0  0  0  0  0  0  0  0  0  0  0  0
  141.1070   77.6450  222.7240 C   0  0  0  0  0  0  0  0  0  0  0  0
  141.7110   75.2920  220.8330 N   0  0  0  0  0  0  0  0  0  0  0  0
  142.1860   74.0770  220.5480 C   0  0  0  0  0  0  0  0  0  0  0  0
  143.2400   73.9380  219.6080 N   0  0  0  0  0  0  0  0  0  0  0  0
  142.9800   74.1610  218.2130 C   0  0  0  0  0  0  0  0  0  0  0  0
  144.1630   73.8590  217.3510 C   0  0  0  0  0  0  0  0  0  0  0  0
  144.8080   72.5990  217.7980 C   0  0  0  0  0  0  0  0  0  0  0  0
  145.2020   71.5940  216.9640 C   0  0  0  0  0  0  0  0  0  0  0  0
  145.7950   70.4580  217.4910 C   0  0  0  0  0  0  0  0  0  0  0  0
  146.0010   70.3170  218.8640 C   0  0  0  0  0  0  0  0  0  0  0  0
  145.6020   71.3370  219.7150 C   0  0  0  0  0  0  0  0  0  0  0  0
  145.0150   72.4540  219.1630 C   0  0  0  0  0  0  0  0  0  0  0  0
  144.5660   73.5780  220.0220 C   0  0  0  0  0  0  0  0  0  0  0  0
  141.6590   73.0040  221.1590 N   0  0  0  0  0  0  0  0  0  0  0  0
  140.2870   72.6030  224.6920 H   0  0  0  0  0  0  0  0  0  0  0  0
  138.5248   70.7675  225.1251 H   0  0  0  0  0  0  0  0  0  0  0  0
  139.2738   69.9010  223.7197 H   0  0  0  0  0  0  0  0  0  0  0  0
  140.7649   68.9231  225.0482 H   0  0  0  0  0  0  0  0  0  0  0  0
  138.6510   69.8947  226.6967 H   0  0  0  0  0  0  0  0  0  0  0  0
  139.7428   68.4822  226.9812 H   0  0  0  0  0  0  0  0  0  0  0  0
  139.6872   70.2273  228.8492 H   0  0  0  0  0  0  0  0  0  0  0  0
  141.3068   69.8301  228.2202 H   0  0  0  0  0  0  0  0  0  0  0  0
  139.5446   72.1468  227.3009 H   0  0  0  0  0  0  0  0  0  0  0  0
  140.9797   72.2513  228.4183 H   0  0  0  0  0  0  0  0  0  0  0  0
  141.1140   72.6190  225.7700 H   0  0  0  0  0  0  0  0  0  0  0  0
  142.1345   70.8876  224.7792 H   0  0  0  0  0  0  0  0  0  0  0  0
  142.3455   70.0492  226.3761 H   0  0  0  0  0  0  0  0  0  0  0  0
  139.0251   77.8577  220.6440 H   0  0  0  0  0  0  0  0  0  0  0  0
  138.2710   76.3826  221.2402 H   0  0  0  0  0  0  0  0  0  0  0  0
  137.3067   78.2601  222.5614 H   0  0  0  0  0  0  0  0  0  0  0  0
  138.4013   77.4586  223.6670 H   0  0  0  0  0  0  0  0  0  0  0  0
  137.5642   80.6315  222.7196 H   0  0  0  0  0  0  0  0  0  0  0  0
  139.0546   82.6518  222.7260 H   0  0  0  0  0  0  0  0  0  0  0  0
  141.5229   82.3049  222.7332 H   0  0  0  0  0  0  0  0  0  0  0  0
  142.4918   80.0244  222.7340 H   0  0  0  0  0  0  0  0  0  0  0  0
  142.1046   77.6389  222.2606 H   0  0  0  0  0  0  0  0  0  0  0  0
  141.1575   77.2939  223.7652 H   0  0  0  0  0  0  0  0  0  0  0  0
  142.1447   73.5158  217.9031 H   0  0  0  0  0  0  0  0  0  0  0  0
  142.7393   75.2268  218.0858 H   0  0  0  0  0  0  0  0  0  0  0  0
  143.8346   73.7497  216.3069 H   0  0  0  0  0  0  0  0  0  0  0  0
  144.8872   74.6832  217.4298 H   0  0  0  0  0  0  0  0  0  0  0  0
  145.0497   71.6850  215.8784 H   0  0  0  0  0  0  0  0  0  0  0  0
  146.1098   69.6508  216.8133 H   0  0  0  0  0  0  0  0  0  0  0  0
  146.4737   69.4088  219.2661 H   0  0  0  0  0  0  0  0  0  0  0  0
  145.7504   71.2560  220.8019 H   0  0  0  0  0  0  0  0  0  0  0  0
  144.5575   73.2641  221.0762 H   0  0  0  0  0  0  0  0  0  0  0  0
  145.2476   74.4357  219.9233 H   0  0  0  0  0  0  0  0  0  0  0  0
  1  2  2  0
  2  3  1  0
  3  4  1  0
  4  5  1  0
  5  6  1  0
  6  7  1  0
  7  8  1  0
  8  9  1  0
  9 10  1  0
  2 11  1  0
 11 12  2  0
 12 13  1  0
 13 14  1  0
 14 15  1  0
 15 16  1  0
 16 17  1  0
 17 18  2  0
 18 19  1  0
 19 20  2  0
 20 21  1  0
 21 22  2  0
 22 23  1  0
 13 24  2  0
 24 25  1  0
 25 26  1  0
 26 27  1  0
 27 28  1  0
 28 29  1  0
 29 30  2  0
 30 31  1  0
 31 32  2  0
 32 33  1  0
 33 34  2  0
 34 35  1  0
 25 36  2  0
 10  5  1  0
 36 11  1  0
 23 14  1  0
 35 26  1  0
 22 17  1  0
 34 29  1  0
  3 37  1  0
  4 38  1  0
  4 39  1  0
  5 40  1  6
  6 41  1  0
  6 42  1  0
  7 43  1  0
  7 44  1  0
  8 45  1  0
  8 46  1  0
  9 47  1  0
 10 48  1  0
 10 49  1  0
 15 50  1  0
 15 51  1  0
 16 52  1  0
 16 53  1  0
 18 54  1  0
 19 55  1  0
 20 56  1  0
 21 57  1  0
 23 58  1  0
 23 59  1  0
 27 60  1  0
 27 61  1  0
 28 62  1  0
 28 63  1  0
 30 64  1  0
 31 65  1  0
 32 66  1  0
 33 67  1  0
 35 68  1  0
 35 69  1  0
M  END
>  <smiles>  (39) 
O=C(NCC1CCCNC1)c1nc(N2CCc3ccccc3C2)nc(N2CCc3ccccc3C2)n1

>  <score_type>  (39) 
oracle

>  <origin>  (39) 
autodockgpu

>  <m_score__min__energy>  (39) 
-10.33

>  <m_primary>  (39) 
energy

>  <rmsd>  (39) 
8.404386869497353

>  <m_score__min__rmsd>  (39) 
8.404386869497353

>  <meeko>  (39) 
{"free_energy": -9.31, "intermolecular_energy": -10.81, "internal_energy": -1.59, "cluster_size": 4, "cluster_id": 3, "rank_in_cluster": 2}

>  <energy>  (39) 
-8.71

>  <cluster_rmsd>  (39) 
0.74

>  <cluster>  (39) 
5

$$$$

     RDKit          3D

 69 74  0  0  0  0  0  0  0  0999 V2000
  141.3760   71.8030  217.8720 O   0  0  0  0  0  0  0  0  0  0  0  0
  141.7960   71.5440  219.0370 C   0  0  0  0  0  0  0  0  0  0  0  0
  142.8640   70.5990  219.1160 N   0  0  0  0  0  0  0  0  0  0  0  0
  143.3420   70.0490  217.8650 C   0  0  0  0  0  0  0  0  0  0  0  0
  144.8330   69.7920  217.8990 C   0  0  2  0  0  0  0  0  0  0  0  0
  145.0830   68.4550  217.2620 C   0  0  0  0  0  0  0  0  0  0  0  0
  145.7030   67.4850  218.2560 C   0  0  0  0  0  0  0  0  0  0  0  0
  144.8780   67.5340  219.5130 C   0  0  0  0  0  0  0  0  0  0  0  0
  144.8850   68.8280  220.1330 N   0  0  0  0  0  0  0  0  0  0  0  0
  145.3980   69.8660  219.2850 C   0  0  0  0  0  0  0  0  0  0  0  0
  141.2260   72.1680  220.2110 C   0  0  0  0  0  0  0  0  0  0  0  0
  140.9700   71.4610  221.3310 N   0  0  0  0  0  0  0  0  0  0  0  0
  140.4340   72.1000  222.4040 C   0  0  0  0  0  0  0  0  0  0  0  0
  140.1390   71.4130  223.6190 N   0  0  0  0  0  0  0  0  0  0  0  0
  138.9220   70.6120  223.7770 C   0  0  0  0  0  0  0  0  0  0  0  0
  139.3860   69.3510  224.5170 C   0  0  0  0  0  0  0  0  0  0  0  0
  139.6840   69.8650  225.9040 C   0  0  0  0  0  0  0  0  0  0  0  0
  139.1370   69.2740  227.0230 C   0  0  0  0  0  0  0  0  0  0  0  0
  139.4360   69.7770  228.2850 C   0  0  0  0  0  0  0  0  0  0  0  0
  140.2870   70.8690  228.3600 C   0  0  0  0  0  0  0  0  0  0  0  0
  140.8310   71.4510  227.2130 C   0  0  0  0  0  0  0  0  0  0  0  0
  140.5330   70.9510  225.9610 C   0  0  0  0  0  0  0  0  0  0  0  0
  141.0800   71.5290  224.7050 C   0  0  0  0  0  0  0  0  0  0  0  0
  140.1630   73.4180  222.3470 N   0  0  0  0  0  0  0  0  0  0  0  0
  140.4190   74.1080  221.2330 C   0  0  0  0  0  0  0  0  0  0  0  0
  140.1280   75.4960  221.1860 N   0  0  0  0  0  0  0  0  0  0  0  0
  140.0970   76.1720  219.9190 C   0  0  0  0  0  0  0  0  0  0  0  0
  139.8950   77.6460  220.0570 C   0  0  0  0  0  0  0  0  0  0  0  0
  140.7340   78.1720  221.1630 C   0  0  0  0  0  0  0  0  0  0  0  0
  141.5040   79.2950  221.0820 C   0  0  0  0  0  0  0  0  0  0  0  0
  142.2500   79.6950  222.1790 C   0  0  0  0  0  0  0  0  0  0  0  0
  142.2320   78.9730  223.3720 C   0  0  0  0  0  0  0  0  0  0  0  0
  141.4500   77.8310  223.4580 C   0  0  0  0  0  0  0  0  0  0  0  0
  140.7190   77.4570  222.3520 C   0  0  0  0  0  0  0  0  0  0  0  0
  139.8630   76.2440  222.3820 C   0  0  0  0  0  0  0  0  0  0  0  0
  140.9490   73.4770  220.1740 N   0  0  0  0  0  0  0  0  0  0  0  0
  143.2470   70.3500  220.0510 H   0  0  0  0  0  0  0  0  0  0  0  0
  142.8211   69.0998  217.6709 H   0  0  0  0  0  0  0  0  0  0  0  0
  143.1386   70.7806  217.0692 H   0  0  0  0  0  0  0  0  0  0  0  0
  145.3527   70.5814  217.3363 H   0  0  0  0  0  0  0  0  0  0  0  0
  144.1279   68.0425  216.9048 H   0  0  0  0  0  0  0  0  0  0  0  0
  145.7815   68.5915  216.4233 H   0  0  0  0  0  0  0  0  0  0  0  0
  145.6947   66.4662  217.8412 H   0  0  0  0  0  0  0  0  0  0  0  0
  146.7464   67.7620  218.4672 H   0  0  0  0  0  0  0  0  0  0  0  0
  143.8400   67.2700  219.2625 H   0  0  0  0  0  0  0  0  0  0  0  0
  145.3194   66.8226  220.2266 H   0  0  0  0  0  0  0  0  0  0  0  0
  143.9680   69.1120  220.5350 H   0  0  0  0  0  0  0  0  0  0  0  0
  145.1389   70.8416  219.7221 H   0  0  0  0  0  0  0  0  0  0  0  0
  146.4882   69.7376  219.2138 H   0  0  0  0  0  0  0  0  0  0  0  0
  138.1721   71.1567  224.3694 H   0  0  0  0  0  0  0  0  0  0  0  0
  138.4457   70.3800  222.8130 H   0  0  0  0  0  0  0  0  0  0  0  0
  138.5918   68.5902  224.5390 H   0  0  0  0  0  0  0  0  0  0  0  0
  140.2477   68.8602  224.0410 H   0  0  0  0  0  0  0  0  0  0  0  0
  138.4667   68.4081  226.9183 H   0  0  0  0  0  0  0  0  0  0  0  0
  139.0116   69.3236  229.1929 H   0  0  0  0  0  0  0  0  0  0  0  0
  140.5395   71.2866  229.3458 H   0  0  0  0  0  0  0  0  0  0  0  0
  141.5035   72.3163  227.3079 H   0  0  0  0  0  0  0  0  0  0  0  0
  141.3071   72.5926  224.8697 H   0  0  0  0  0  0  0  0  0  0  0  0
  141.9899   70.9727  224.4355 H   0  0  0  0  0  0  0  0  0  0  0  0
  141.0515   75.9944  219.4019 H   0  0  0  0  0  0  0  0  0  0  0  0
  139.2453   75.7717  219.3494 H   0  0  0  0  0  0  0  0  0  0  0  0
  140.1785   78.1421  219.1171 H   0  0  0  0  0  0  0  0  0  0  0  0
  138.8366   77.8461  220.2800 H   0  0  0  0  0  0  0  0  0  0  0  0
  141.5326   79.8799  220.1508 H   0  0  0  0  0  0  0  0  0  0  0  0
  142.8695   80.6011  222.1074 H   0  0  0  0  0  0  0  0  0  0  0  0
  142.8302   79.3050  224.2334 H   0  0  0  0  0  0  0  0  0  0  0  0
  141.4144   77.2395  224.3848 H   0  0  0  0  0  0  0  0  0  0  0  0
  140.1051   75.6359  223.2661 H   0  0  0  0  0  0  0  0  0  0  0  0
  138.8002   76.5225  222.4359 H   0  0  0  0  0  0  0  0  0  0  0  0
  1  2  2  0
  2  3  1  0
  3  4  1  0
  4  5  1  0
  5  6  1  0
  6  7  1  0
  7  8  1  0
  8  9  1  0
  9 10  1  0
  2 11  1  0
 11 12  2  0
 12 13  1  0
 13 14  1  0
 14 15  1  0
 15 16  1  0
 16 17  1  0
 17 18  2  0
 18 19  1  0
 19 20  2  0
 20 21  1  0
 21 22  2  0
 22 23  1  0
 13 24  2  0
 24 25  1  0
 25 26  1  0
 26 27  1  0
 27 28  1  0
 28 29  1  0
 29 30  2  0
 30 31  1  0
 31 32  2  0
 32 33  1  0
 33 34  2  0
 34 35  1  0
 25 36  2  0
 10  5  1  0
 36 11  1  0
 23 14  1  0
 35 26  1  0
 22 17  1  0
 34 29  1  0
  3 37  1  0
  4 38  1  0
  4 39  1  0
  5 40  1  6
  6 41  1  0
  6 42  1  0
  7 43  1  0
  7 44  1  0
  8 45  1  0
  8 46  1  0
  9 47  1  0
 10 48  1  0
 10 49  1  0
 15 50  1  0
 15 51  1  0
 16 52  1  0
 16 53  1  0
 18 54  1  0
 19 55  1  0
 20 56  1  0
 21 57  1  0
 23 58  1  0
 23 59  1  0
 27 60  1  0
 27 61  1  0
 28 62  1  0
 28 63  1  0
 30 64  1  0
 31 65  1  0
 32 66  1  0
 33 67  1  0
 35 68  1  0
 35 69  1  0
M  END
>  <smiles>  (40) 
O=C(NCC1CCCNC1)c1nc(N2CCc3ccccc3C2)nc(N2CCc3ccccc3C2)n1

>  <score_type>  (40) 
oracle

>  <origin>  (40) 
autodockgpu

>  <m_score__min__energy>  (40) 
-10.33

>  <m_primary>  (40) 
energy

>  <rmsd>  (40) 
8.160472603117103

>  <m_score__min__rmsd>  (40) 
8.160472603117103

>  <meeko>  (40) 
{"free_energy": -9.23, "intermolecular_energy": -10.72, "internal_energy": -1.59, "cluster_size": 5, "cluster_id": 4, "rank_in_cluster": 4}

>  <energy>  (40) 
-8.76

>  <cluster_rmsd>  (40) 
0.0

>  <cluster>  (40) 
6

$$$$

     RDKit          3D

 69 74  0  0  0  0  0  0  0  0999 V2000
  140.2420   70.6820  221.9960 O   0  0  0  0  0  0  0  0  0  0  0  0
  140.3470   71.7580  222.6530 C   0  0  0  0  0  0  0  0  0  0  0  0
  139.9490   71.6900  224.0230 N   0  0  0  0  0  0  0  0  0  0  0  0
  139.4750   70.4100  224.5010 C   0  0  0  0  0  0  0  0  0  0  0  0
  140.4490   69.7790  225.4740 C   0  0  2  0  0  0  0  0  0  0  0  0
  139.7020   69.4760  226.7400 C   0  0  0  0  0  0  0  0  0  0  0  0
  140.2780   70.2570  227.9130 C   0  0  0  0  0  0  0  0  0  0  0  0
  140.4030   71.6920  227.4840 C   0  0  0  0  0  0  0  0  0  0  0  0
  141.3060   71.8680  226.3830 N   0  0  0  0  0  0  0  0  0  0  0  0
  141.6500   70.6400  225.7240 C   0  0  0  0  0  0  0  0  0  0  0  0
  140.8380   72.9770  222.0490 C   0  0  0  0  0  0  0  0  0  0  0  0
  140.2960   74.1770  222.3410 N   0  0  0  0  0  0  0  0  0  0  0  0
  140.7990   75.2900  221.7430 C   0  0  0  0  0  0  0  0  0  0  0  0
  140.2730   76.5890  222.0070 N   0  0  0  0  0  0  0  0  0  0  0  0
  138.9470   76.9970  221.5320 C   0  0  0  0  0  0  0  0  0  0  0  0
  138.3350   77.7620  222.7110 C   0  0  0  0  0  0  0  0  0  0  0  0
  139.1370   79.0390  222.7370 C   0  0  0  0  0  0  0  0  0  0  0  0
  138.5250   80.2750  222.7360 C   0  0  0  0  0  0  0  0  0  0  0  0
  139.2990   81.4300  222.7610 C   0  0  0  0  0  0  0  0  0  0  0  0
  140.6780   81.2820  222.7860 C   0  0  0  0  0  0  0  0  0  0  0  0
  141.2770   80.0210  222.7880 C   0  0  0  0  0  0  0  0  0  0  0  0
  140.5080   78.8760  222.7630 C   0  0  0  0  0  0  0  0  0  0  0  0
  141.0880   77.5070  222.7630 C   0  0  0  0  0  0  0  0  0  0  0  0
  141.8210   75.1930  220.8730 N   0  0  0  0  0  0  0  0  0  0  0  0
  142.3500   74.0000  220.5890 C   0  0  0  0  0  0  0  0  0  0  0  0
  143.4280   73.9110  219.6700 N   0  0  0  0  0  0  0  0  0  0  0  0
  143.2450   74.3530  218.3160 C   0  0  0  0  0  0  0  0  0  0  0  0
  144.4350   74.0810  217.4550 C   0  0  0  0  0  0  0  0  0  0  0  0
  144.9610   72.7200  217.7310 C   0  0  0  0  0  0  0  0  0  0  0  0
  145.3090   71.8160  216.7710 C   0  0  0  0  0  0  0  0  0  0  0  0
  145.7900   70.5710  217.1430 C   0  0  0  0  0  0  0  0  0  0  0  0
  145.9260   70.2170  218.4850 C   0  0  0  0  0  0  0  0  0  0  0  0
  145.5730   71.1340  219.4640 C   0  0  0  0  0  0  0  0  0  0  0  0
  145.0990   72.3630  219.0650 C   0  0  0  0  0  0  0  0  0  0  0  0
  144.7040   73.3860  220.0660 C   0  0  0  0  0  0  0  0  0  0  0  0
  141.8540   72.9020  221.1810 N   0  0  0  0  0  0  0  0  0  0  0  0
  140.0150   72.5480  224.6090 H   0  0  0  0  0  0  0  0  0  0  0  0
  138.5089   70.5541  225.0069 H   0  0  0  0  0  0  0  0  0  0  0  0
  139.3712   69.7383  223.6361 H   0  0  0  0  0  0  0  0  0  0  0  0
  140.8486   68.8501  225.0411 H   0  0  0  0  0  0  0  0  0  0  0  0
  138.6451   69.7512  226.6088 H   0  0  0  0  0  0  0  0  0  0  0  0
  139.7964   68.4012  226.9542 H   0  0  0  0  0  0  0  0  0  0  0  0
  139.6057   70.1817  228.7804 H   0  0  0  0  0  0  0  0  0  0  0  0
  141.2592   69.8528  228.2025 H   0  0  0  0  0  0  0  0  0  0  0  0
  139.4093   72.0570  227.1850 H   0  0  0  0  0  0  0  0  0  0  0  0
  140.8069   72.2578  228.3364 H   0  0  0  0  0  0  0  0  0  0  0  0
  140.9940   72.5750  225.6850 H   0  0  0  0  0  0  0  0  0  0  0  0
  142.1245   70.8756  224.7600 H   0  0  0  0  0  0  0  0  0  0  0  0
  142.3351   70.0835  226.3805 H   0  0  0  0  0  0  0  0  0  0  0  0
  139.0335   77.6477  220.6493 H   0  0  0  0  0  0  0  0  0  0  0  0
  138.3306   76.1391  221.2251 H   0  0  0  0  0  0  0  0  0  0  0  0
  137.2684   77.9680  222.5382 H   0  0  0  0  0  0  0  0  0  0  0  0
  138.3753   77.2045  223.6584 H   0  0  0  0  0  0  0  0  0  0  0  0
  137.4275   80.3469  222.7155 H   0  0  0  0  0  0  0  0  0  0  0  0
  138.8337   82.4267  222.7610 H   0  0  0  0  0  0  0  0  0  0  0  0
  141.3143   82.1791  222.8047 H   0  0  0  0  0  0  0  0  0  0  0  0
  142.3738   79.9396  222.8097 H   0  0  0  0  0  0  0  0  0  0  0  0
  142.0927   77.5443  222.3167 H   0  0  0  0  0  0  0  0  0  0  0  0
  141.1350   77.1516  223.8029 H   0  0  0  0  0  0  0  0  0  0  0  0
  142.3756   73.8309  217.8898 H   0  0  0  0  0  0  0  0  0  0  0  0
  143.0940   75.4423  218.3396 H   0  0  0  0  0  0  0  0  0  0  0  0
  144.1427   74.1509  216.3969 H   0  0  0  0  0  0  0  0  0  0  0  0
  145.2173   74.8221  217.6756 H   0  0  0  0  0  0  0  0  0  0  0  0
  145.2083   72.0740  215.7064 H   0  0  0  0  0  0  0  0  0  0  0  0
  146.0703   69.8469  216.3638 H   0  0  0  0  0  0  0  0  0  0  0  0
  146.3081   69.2238  218.7634 H   0  0  0  0  0  0  0  0  0  0  0  0
  145.6694   70.8855  220.5312 H   0  0  0  0  0  0  0  0  0  0  0  0
  144.6275   72.9260  221.0623 H   0  0  0  0  0  0  0  0  0  0  0  0
  145.4541   74.1892  220.1140 H   0  0  0  0  0  0  0  0  0  0  0  0
  1  2  2  0
  2  3  1  0
  3  4  1  0
  4  5  1  0
  5  6  1  0
  6  7  1  0
  7  8  1  0
  8  9  1  0
  9 10  1  0
  2 11  1  0
 11 12  2  0
 12 13  1  0
 13 14  1  0
 14 15  1  0
 15 16  1  0
 16 17  1  0
 17 18  2  0
 18 19  1  0
 19 20  2  0
 20 21  1  0
 21 22  2  0
 22 23  1  0
 13 24  2  0
 24 25  1  0
 25 26  1  0
 26 27  1  0
 27 28  1  0
 28 29  1  0
 29 30  2  0
 30 31  1  0
 31 32  2  0
 32 33  1  0
 33 34  2  0
 34 35  1  0
 25 36  2  0
 10  5  1  0
 36 11  1  0
 23 14  1  0
 35 26  1  0
 22 17  1  0
 34 29  1  0
  3 37  1  0
  4 38  1  0
  4 39  1  0
  5 40  1  6
  6 41  1  0
  6 42  1  0
  7 43  1  0
  7 44  1  0
  8 45  1  0
  8 46  1  0
  9 47  1  0
 10 48  1  0
 10 49  1  0
 15 50  1  0
 15 51  1  0
 16 52  1  0
 16 53  1  0
 18 54  1  0
 19 55  1  0
 20 56  1  0
 21 57  1  0
 23 58  1  0
 23 59  1  0
 27 60  1  0
 27 61  1  0
 28 62  1  0
 28 63  1  0
 30 64  1  0
 31 65  1  0
 32 66  1  0
 33 67  1  0
 35 68  1  0
 35 69  1  0
M  END
>  <smiles>  (41) 
O=C(NCC1CCCNC1)c1nc(N2CCc3ccccc3C2)nc(N2CCc3ccccc3C2)n1

>  <score_type>  (41) 
oracle

>  <origin>  (41) 
autodockgpu

>  <m_score__min__energy>  (41) 
-10.33

>  <m_primary>  (41) 
energy

>  <rmsd>  (41) 
8.422715829013248

>  <m_score__min__rmsd>  (41) 
8.422715829013248

>  <meeko>  (41) 
{"free_energy": -9.36, "intermolecular_energy": -10.85, "internal_energy": -1.56, "cluster_size": 4, "cluster_id": 3, "rank_in_cluster": 1}

>  <energy>  (41) 
-8.72

>  <cluster_rmsd>  (41) 
0.4

>  <cluster>  (41) 
6

$$$$

     RDKit          3D

 69 74  0  0  0  0  0  0  0  0999 V2000
  141.1100   76.3200  220.5390 O   0  0  0  0  0  0  0  0  0  0  0  0
  140.4580   75.5980  221.3490 C   0  0  0  0  0  0  0  0  0  0  0  0
  139.4840   76.2780  222.1420 N   0  0  0  0  0  0  0  0  0  0  0  0
  139.3530   77.7030  221.9310 C   0  0  0  0  0  0  0  0  0  0  0  0
  139.8920   78.4960  223.1030 C   0  0  2  0  0  0  0  0  0  0  0  0
  139.6670   79.9520  222.8150 C   0  0  0  0  0  0  0  0  0  0  0  0
  140.9890   80.7010  222.7330 C   0  0  0  0  0  0  0  0  0  0  0  0
  141.8940   79.9240  221.8170 C   0  0  0  0  0  0  0  0  0  0  0  0
  142.1910   78.6100  222.3110 N   0  0  0  0  0  0  0  0  0  0  0  0
  141.3330   78.1960  223.3850 C   0  0  0  0  0  0  0  0  0  0  0  0
  140.6920   74.1740  221.4610 C   0  0  0  0  0  0  0  0  0  0  0  0
  140.3240   73.4840  222.5600 N   0  0  0  0  0  0  0  0  0  0  0  0
  140.5680   72.1480  222.6100 C   0  0  0  0  0  0  0  0  0  0  0  0
  140.2050   71.3590  223.7420 N   0  0  0  0  0  0  0  0  0  0  0  0
  138.9930   70.5330  223.7520 C   0  0  0  0  0  0  0  0  0  0  0  0
  139.4290   69.2200  224.4140 C   0  0  0  0  0  0  0  0  0  0  0  0
  139.6270   69.6190  225.8550 C   0  0  0  0  0  0  0  0  0  0  0  0
  139.0170   68.9310  226.8830 C   0  0  0  0  0  0  0  0  0  0  0  0
  139.2250   69.3300  228.1990 C   0  0  0  0  0  0  0  0  0  0  0  0
  140.0520   70.4210  228.4200 C   0  0  0  0  0  0  0  0  0  0  0  0
  140.6590   71.1030  227.3640 C   0  0  0  0  0  0  0  0  0  0  0  0
  140.4520   70.7060  226.0590 C   0  0  0  0  0  0  0  0  0  0  0  0
  141.0710   71.3930  224.8940 C   0  0  0  0  0  0  0  0  0  0  0  0
  141.1670   71.5250  221.5780 N   0  0  0  0  0  0  0  0  0  0  0  0
  141.5270   72.2180  220.4940 C   0  0  0  0  0  0  0  0  0  0  0  0
  142.1580   71.5500  219.4130 N   0  0  0  0  0  0  0  0  0  0  0  0
  141.5070   70.4300  218.7930 C   0  0  0  0  0  0  0  0  0  0  0  0
  142.3550   69.7720  217.7530 C   0  0  0  0  0  0  0  0  0  0  0  0
  143.7510   69.6460  218.2430 C   0  0  0  0  0  0  0  0  0  0  0  0
  144.5060   68.5150  218.1440 C   0  0  0  0  0  0  0  0  0  0  0  0
  145.8010   68.5090  218.6370 C   0  0  0  0  0  0  0  0  0  0  0  0
  146.3550   69.6400  219.2370 C   0  0  0  0  0  0  0  0  0  0  0  0
  145.5900   70.7930  219.3390 C   0  0  0  0  0  0  0  0  0  0  0  0
  144.3070   70.7690  218.8400 C   0  0  0  0  0  0  0  0  0  0  0  0
  143.4390   71.9720  218.9210 C   0  0  0  0  0  0  0  0  0  0  0  0
  141.2860   73.5370  220.4450 N   0  0  0  0  0  0  0  0  0  0  0  0
  138.9220   75.7310  222.8250 H   0  0  0  0  0  0  0  0  0  0  0  0
  139.9115   77.9818  221.0253 H   0  0  0  0  0  0  0  0  0  0  0  0
  138.2834   77.9361  221.8229 H   0  0  0  0  0  0  0  0  0  0  0  0
  139.3555   78.2063  224.0186 H   0  0  0  0  0  0  0  0  0  0  0  0
  139.1368   80.0516  221.8564 H   0  0  0  0  0  0  0  0  0  0  0  0
  139.0694   80.3831  223.6317 H   0  0  0  0  0  0  0  0  0  0  0  0
  140.8239   81.7109  222.3295 H   0  0  0  0  0  0  0  0  0  0  0  0
  141.4406   80.7993  223.7312 H   0  0  0  0  0  0  0  0  0  0  0  0
  141.4037   79.8284  220.8369 H   0  0  0  0  0  0  0  0  0  0  0  0
  142.8443   80.4736  221.7465 H   0  0  0  0  0  0  0  0  0  0  0  0
  142.2230   77.8750  221.5740 H   0  0  0  0  0  0  0  0  0  0  0  0
  141.4473   77.1120  223.5326 H   0  0  0  0  0  0  0  0  0  0  0  0
  141.6251   78.7545  224.2865 H   0  0  0  0  0  0  0  0  0  0  0  0
  138.1970   71.0176  224.3364 H   0  0  0  0  0  0  0  0  0  0  0  0
  138.5845   70.3772  222.7426 H   0  0  0  0  0  0  0  0  0  0  0  0
  138.6481   68.4510  224.3200 H   0  0  0  0  0  0  0  0  0  0  0  0
  140.3282   68.7808  223.9573 H   0  0  0  0  0  0  0  0  0  0  0  0
  138.3686   68.0701  226.6629 H   0  0  0  0  0  0  0  0  0  0  0  0
  138.7496   68.7981  229.0363 H   0  0  0  0  0  0  0  0  0  0  0  0
  140.2340   70.7569  229.4515 H   0  0  0  0  0  0  0  0  0  0  0  0
  141.3087   71.9653  227.5744 H   0  0  0  0  0  0  0  0  0  0  0  0
  141.2702   72.4413  225.1611 H   0  0  0  0  0  0  0  0  0  0  0  0
  142.0051   70.8704  224.6403 H   0  0  0  0  0  0  0  0  0  0  0  0
  141.2652   69.6896  219.5697 H   0  0  0  0  0  0  0  0  0  0  0  0
  140.6022   70.8068  218.2937 H   0  0  0  0  0  0  0  0  0  0  0  0
  141.9535   68.7714  217.5349 H   0  0  0  0  0  0  0  0  0  0  0  0
  142.3464   70.3841  216.8391 H   0  0  0  0  0  0  0  0  0  0  0  0
  144.0891   67.6116  217.6750 H   0  0  0  0  0  0  0  0  0  0  0  0
  146.4048   67.5933  218.5535 H   0  0  0  0  0  0  0  0  0  0  0  0
  147.3844   69.6180  219.6240 H   0  0  0  0  0  0  0  0  0  0  0  0
  145.9975   71.7018  219.8060 H   0  0  0  0  0  0  0  0  0  0  0  0
  143.8811   72.7080  219.6086 H   0  0  0  0  0  0  0  0  0  0  0  0
  143.3373   72.4426  217.9320 H   0  0  0  0  0  0  0  0  0  0  0  0
  1  2  2  0
  2  3  1  0
  3  4  1  0
  4  5  1  0
  5  6  1  0
  6  7  1  0
  7  8  1  0
  8  9  1  0
  9 10  1  0
  2 11  1  0
 11 12  2  0
 12 13  1  0
 13 14  1  0
 14 15  1  0
 15 16  1  0
 16 17  1  0
 17 18  2  0
 18 19  1  0
 19 20  2  0
 20 21  1  0
 21 22  2  0
 22 23  1  0
 13 24  2  0
 24 25  1  0
 25 26  1  0
 26 27  1  0
 27 28  1  0
 28 29  1  0
 29 30  2  0
 30 31  1  0
 31 32  2  0
 32 33  1  0
 33 34  2  0
 34 35  1  0
 25 36  2  0
 10  5  1  0
 36 11  1  0
 23 14  1  0
 35 26  1  0
 22 17  1  0
 34 29  1  0
  3 37  1  0
  4 38  1  0
  4 39  1  0
  5 40  1  1
  6 41  1  0
  6 42  1  0
  7 43  1  0
  7 44  1  0
  8 45  1  0
  8 46  1  0
  9 47  1  0
 10 48  1  0
 10 49  1  0
 15 50  1  0
 15 51  1  0
 16 52  1  0
 16 53  1  0
 18 54  1  0
 19 55  1  0
 20 56  1  0
 21 57  1  0
 23 58  1  0
 23 59  1  0
 27 60  1  0
 27 61  1  0
 28 62  1  0
 28 63  1  0
 30 64  1  0
 31 65  1  0
 32 66  1  0
 33 67  1  0
 35 68  1  0
 35 69  1  0
M  END
>  <smiles>  (42) 
O=C(NCC1CCCNC1)c1nc(N2CCc3ccccc3C2)nc(N2CCc3ccccc3C2)n1

>  <score_type>  (42) 
oracle

>  <origin>  (42) 
autodockgpu

>  <m_score__min__energy>  (42) 
-10.33

>  <m_primary>  (42) 
energy

>  <rmsd>  (42) 
4.114738948385447

>  <m_score__min__rmsd>  (42) 
4.114738948385447

>  <meeko>  (42) 
{"free_energy": -9.03, "intermolecular_energy": -10.52, "internal_energy": -1.88, "cluster_size": 25, "cluster_id": 1, "rank_in_cluster": 21}

>  <energy>  (42) 
-8.72

>  <cluster_rmsd>  (42) 
1.02

>  <cluster>  (42) 
6

$$$$

     RDKit          3D

 69 74  0  0  0  0  0  0  0  0999 V2000
  139.5560   71.8780  224.6560 O   0  0  0  0  0  0  0  0  0  0  0  0
  140.0110   71.2250  223.6720 C   0  0  0  0  0  0  0  0  0  0  0  0
  139.8950   69.8040  223.7620 N   0  0  0  0  0  0  0  0  0  0  0  0
  139.2750   69.2760  224.9580 C   0  0  0  0  0  0  0  0  0  0  0  0
  140.2990   68.7020  225.9140 C   0  0  2  0  0  0  0  0  0  0  0  0
  139.5900   68.3520  227.1900 C   0  0  0  0  0  0  0  0  0  0  0  0
  140.1360   69.1620  228.3570 C   0  0  0  0  0  0  0  0  0  0  0  0
  140.1680   70.6040  227.9310 C   0  0  0  0  0  0  0  0  0  0  0  0
  141.0430   70.8360  226.8180 N   0  0  0  0  0  0  0  0  0  0  0  0
  141.4500   69.6330  226.1500 C   0  0  0  0  0  0  0  0  0  0  0  0
  140.6110   71.8820  222.5310 C   0  0  0  0  0  0  0  0  0  0  0  0
  140.6990   73.2260  222.4580 N   0  0  0  0  0  0  0  0  0  0  0  0
  141.2740   73.7890  221.3620 C   0  0  0  0  0  0  0  0  0  0  0  0
  141.3990   75.2030  221.2210 N   0  0  0  0  0  0  0  0  0  0  0  0
  142.2120   75.8040  220.1590 C   0  0  0  0  0  0  0  0  0  0  0  0
  141.3680   76.9790  219.6490 C   0  0  0  0  0  0  0  0  0  0  0  0
  141.4420   77.9660  220.7870 C   0  0  0  0  0  0  0  0  0  0  0  0
  141.8250   79.2750  220.5820 C   0  0  0  0  0  0  0  0  0  0  0  0
  141.8800   80.1550  221.6570 C   0  0  0  0  0  0  0  0  0  0  0  0
  141.5400   79.6660  222.9100 C   0  0  0  0  0  0  0  0  0  0  0  0
  141.1540   78.3380  223.0950 C   0  0  0  0  0  0  0  0  0  0  0  0
  141.1000   77.4650  222.0270 C   0  0  0  0  0  0  0  0  0  0  0  0
  140.6970   76.0400  222.1620 C   0  0  0  0  0  0  0  0  0  0  0  0
  141.7460   73.0150  220.3670 N   0  0  0  0  0  0  0  0  0  0  0  0
  141.6530   71.6860  220.4490 C   0  0  0  0  0  0  0  0  0  0  0  0
  142.1550   70.8820  219.3930 N   0  0  0  0  0  0  0  0  0  0  0  0
  141.3210   69.8650  218.8170 C   0  0  0  0  0  0  0  0  0  0  0  0
  142.0390   69.0340  217.8030 C   0  0  0  0  0  0  0  0  0  0  0  0
  143.3970   68.6940  218.2970 C   0  0  0  0  0  0  0  0  0  0  0  0
  143.9510   67.4490  218.2410 C   0  0  0  0  0  0  0  0  0  0  0  0
  145.2300   67.2440  218.7330 C   0  0  0  0  0  0  0  0  0  0  0  0
  145.9700   68.2880  219.2880 C   0  0  0  0  0  0  0  0  0  0  0  0
  145.4110   69.5560  219.3460 C   0  0  0  0  0  0  0  0  0  0  0  0
  144.1380   69.7290  218.8500 C   0  0  0  0  0  0  0  0  0  0  0  0
  143.4850   71.0630  218.8850 C   0  0  0  0  0  0  0  0  0  0  0  0
  141.0870   71.1300  221.5310 N   0  0  0  0  0  0  0  0  0  0  0  0
  140.2540   69.2200  222.9800 H   0  0  0  0  0  0  0  0  0  0  0  0
  138.7299   70.0863  225.4642 H   0  0  0  0  0  0  0  0  0  0  0  0
  138.5921   68.4664  224.6609 H   0  0  0  0  0  0  0  0  0  0  0  0
  140.7470   67.7999  225.4718 H   0  0  0  0  0  0  0  0  0  0  0  0
  138.5169   68.5647  227.0753 H   0  0  0  0  0  0  0  0  0  0  0  0
  139.7509   67.2841  227.3988 H   0  0  0  0  0  0  0  0  0  0  0  0
  139.4829   69.0440  229.2342 H   0  0  0  0  0  0  0  0  0  0  0  0
  141.1439   68.8164  228.6304 H   0  0  0  0  0  0  0  0  0  0  0  0
  139.1500   70.9092  227.6472 H   0  0  0  0  0  0  0  0  0  0  0  0
  140.5488   71.1914  228.7795 H   0  0  0  0  0  0  0  0  0  0  0  0
  140.6790   71.5250  226.1270 H   0  0  0  0  0  0  0  0  0  0  0  0
  141.8955   69.8992  225.1801 H   0  0  0  0  0  0  0  0  0  0  0  0
  142.1765   69.1168  226.7947 H   0  0  0  0  0  0  0  0  0  0  0  0
  143.1729   76.1600  220.5590 H   0  0  0  0  0  0  0  0  0  0  0  0
  142.4560   75.0866  219.3617 H   0  0  0  0  0  0  0  0  0  0  0  0
  141.7956   77.4034  218.7287 H   0  0  0  0  0  0  0  0  0  0  0  0
  140.3383   76.6932  219.3881 H   0  0  0  0  0  0  0  0  0  0  0  0
  142.0861   79.6217  219.5712 H   0  0  0  0  0  0  0  0  0  0  0  0
  142.1828   81.2034  221.5187 H   0  0  0  0  0  0  0  0  0  0  0  0
  141.5755   80.3410  223.7778 H   0  0  0  0  0  0  0  0  0  0  0  0
  140.8900   77.9831  224.1021 H   0  0  0  0  0  0  0  0  0  0  0  0
  140.9241   75.6991  223.1829 H   0  0  0  0  0  0  0  0  0  0  0  0
  139.6192   75.9642  221.9556 H   0  0  0  0  0  0  0  0  0  0  0  0
  140.9632   69.2061  219.6219 H   0  0  0  0  0  0  0  0  0  0  0  0
  140.4894   70.3697  218.3034 H   0  0  0  0  0  0  0  0  0  0  0  0
  141.4735   68.1075  217.6244 H   0  0  0  0  0  0  0  0  0  0  0  0
  142.1270   69.6030  216.8657 H   0  0  0  0  0  0  0  0  0  0  0  0
  143.3851   66.6114  217.8072 H   0  0  0  0  0  0  0  0  0  0  0  0
  145.6708   66.2373  218.6849 H   0  0  0  0  0  0  0  0  0  0  0  0
  146.9839   68.1080  219.6747 H   0  0  0  0  0  0  0  0  0  0  0  0
  145.9693   70.4004  219.7764 H   0  0  0  0  0  0  0  0  0  0  0  0
  144.0492   71.7396  219.5436 H   0  0  0  0  0  0  0  0  0  0  0  0
  143.4571   71.5059  217.8785 H   0  0  0  0  0  0  0  0  0  0  0  0
  1  2  2  0
  2  3  1  0
  3  4  1  0
  4  5  1  0
  5  6  1  0
  6  7  1  0
  7  8  1  0
  8  9  1  0
  9 10  1  0
  2 11  1  0
 11 12  2  0
 12 13  1  0
 13 14  1  0
 14 15  1  0
 15 16  1  0
 16 17  1  0
 17 18  2  0
 18 19  1  0
 19 20  2  0
 20 21  1  0
 21 22  2  0
 22 23  1  0
 13 24  2  0
 24 25  1  0
 25 26  1  0
 26 27  1  0
 27 28  1  0
 28 29  1  0
 29 30  2  0
 30 31  1  0
 31 32  2  0
 32 33  1  0
 33 34  2  0
 34 35  1  0
 25 36  2  0
 10  5  1  0
 36 11  1  0
 23 14  1  0
 35 26  1  0
 22 17  1  0
 34 29  1  0
  3 37  1  0
  4 38  1  0
  4 39  1  0
  5 40  1  6
  6 41  1  0
  6 42  1  0
  7 43  1  0
  7 44  1  0
  8 45  1  0
  8 46  1  0
  9 47  1  0
 10 48  1  0
 10 49  1  0
 15 50  1  0
 15 51  1  0
 16 52  1  0
 16 53  1  0
 18 54  1  0
 19 55  1  0
 20 56  1  0
 21 57  1  0
 23 58  1  0
 23 59  1  0
 27 60  1  0
 27 61  1  0
 28 62  1  0
 28 63  1  0
 30 64  1  0
 31 65  1  0
 32 66  1  0
 33 67  1  0
 35 68  1  0
 35 69  1  0
M  END
>  <smiles>  (43) 
O=C(NCC1CCCNC1)c1nc(N2CCc3ccccc3C2)nc(N2CCc3ccccc3C2)n1

>  <score_type>  (43) 
oracle

>  <origin>  (43) 
autodockgpu

>  <m_score__min__energy>  (43) 
-10.33

>  <m_primary>  (43) 
energy

>  <rmsd>  (43) 
9.337572602514152

>  <m_score__min__rmsd>  (43) 
9.337572602514152

>  <meeko>  (43) 
{"free_energy": -8.97, "intermolecular_energy": -10.46, "internal_energy": -1.99, "cluster_size": 3, "cluster_id": 5, "rank_in_cluster": 1}

>  <energy>  (43) 
-8.69

>  <cluster_rmsd>  (43) 
0.33

>  <cluster>  (43) 
6

$$$$

     RDKit          3D

 69 74  0  0  0  0  0  0  0  0999 V2000
  139.2410   75.5610  220.6790 O   0  0  0  0  0  0  0  0  0  0  0  0
  140.2550   75.1830  221.3360 C   0  0  0  0  0  0  0  0  0  0  0  0
  141.0870   76.2230  221.8490 N   0  0  0  0  0  0  0  0  0  0  0  0
  140.6810   77.5830  221.5630 C   0  0  0  0  0  0  0  0  0  0  0  0
  140.5150   78.3960  222.8280 C   0  0  2  0  0  0  0  0  0  0  0  0
  139.8020   79.6670  222.4680 C   0  0  0  0  0  0  0  0  0  0  0  0
  140.6730   80.8810  222.7560 C   0  0  0  0  0  0  0  0  0  0  0  0
  142.0240   80.6240  222.1500 C   0  0  0  0  0  0  0  0  0  0  0  0
  142.6870   79.4900  222.7270 N   0  0  0  0  0  0  0  0  0  0  0  0
  141.8200   78.6620  223.5160 C   0  0  0  0  0  0  0  0  0  0  0  0
  140.5460   73.7810  221.5480 C   0  0  0  0  0  0  0  0  0  0  0  0
  140.3700   73.2000  222.7520 N   0  0  0  0  0  0  0  0  0  0  0  0
  140.6600   71.8800  222.8940 C   0  0  0  0  0  0  0  0  0  0  0  0
  140.4970   71.2020  224.1390 N   0  0  0  0  0  0  0  0  0  0  0  0
  141.3070   71.5400  225.3140 C   0  0  0  0  0  0  0  0  0  0  0  0
  140.3140   71.5230  226.4820 C   0  0  0  0  0  0  0  0  0  0  0  0
  140.0070   70.0550  226.6430 C   0  0  0  0  0  0  0  0  0  0  0  0
  140.1260   69.4240  227.8630 C   0  0  0  0  0  0  0  0  0  0  0  0
  139.8340   68.0690  227.9710 C   0  0  0  0  0  0  0  0  0  0  0  0
  139.4290   67.4020  226.8250 C   0  0  0  0  0  0  0  0  0  0  0  0
  139.3140   68.0610  225.5990 C   0  0  0  0  0  0  0  0  0  0  0  0
  139.6050   69.4060  225.4930 C   0  0  0  0  0  0  0  0  0  0  0  0
  139.5030   70.1610  224.2160 C   0  0  0  0  0  0  0  0  0  0  0  0
  141.1160   71.1660  221.8470 N   0  0  0  0  0  0  0  0  0  0  0  0
  141.2870   71.7510  220.6600 C   0  0  0  0  0  0  0  0  0  0  0  0
  141.7680   70.9880  219.5640 N   0  0  0  0  0  0  0  0  0  0  0  0
  140.8460   70.2200  218.7750 C   0  0  0  0  0  0  0  0  0  0  0  0
  141.5290   69.3850  217.7400 C   0  0  0  0  0  0  0  0  0  0  0  0
  142.7320   68.7390  218.3220 C   0  0  0  0  0  0  0  0  0  0  0  0
  143.0590   67.4250  218.1590 C   0  0  0  0  0  0  0  0  0  0  0  0
  144.2080   66.9250  218.7500 C   0  0  0  0  0  0  0  0  0  0  0  0
  145.0450   67.7400  219.5120 C   0  0  0  0  0  0  0  0  0  0  0  0
  144.7160   69.0770  219.6800 C   0  0  0  0  0  0  0  0  0  0  0  0
  143.5680   69.5450  219.0810 C   0  0  0  0  0  0  0  0  0  0  0  0
  143.1630   70.9660  219.2250 C   0  0  0  0  0  0  0  0  0  0  0  0
  141.0000   73.0550  220.5200 N   0  0  0  0  0  0  0  0  0  0  0  0
  141.9330   75.9660  222.3960 H   0  0  0  0  0  0  0  0  0  0  0  0
  141.4465   78.0582  220.9319 H   0  0  0  0  0  0  0  0  0  0  0  0
  139.7098   77.5494  221.0475 H   0  0  0  0  0  0  0  0  0  0  0  0
  139.9201   77.8230  223.5544 H   0  0  0  0  0  0  0  0  0  0  0  0
  139.5531   79.6488  221.3967 H   0  0  0  0  0  0  0  0  0  0  0  0
  138.8874   79.7398  223.0749 H   0  0  0  0  0  0  0  0  0  0  0  0
  140.2249   81.7794  222.3065 H   0  0  0  0  0  0  0  0  0  0  0  0
  140.7605   81.0457  223.8401 H   0  0  0  0  0  0  0  0  0  0  0  0
  141.8972   80.4457  221.0720 H   0  0  0  0  0  0  0  0  0  0  0  0
  142.6484   81.5078  222.3474 H   0  0  0  0  0  0  0  0  0  0  0  0
  143.2120   78.9090  222.0410 H   0  0  0  0  0  0  0  0  0  0  0  0
  142.3227   77.7023  223.7065 H   0  0  0  0  0  0  0  0  0  0  0  0
  141.6059   79.1935  224.4550 H   0  0  0  0  0  0  0  0  0  0  0  0
  142.1004   70.7936  225.4672 H   0  0  0  0  0  0  0  0  0  0  0  0
  141.8124   72.5113  225.2085 H   0  0  0  0  0  0  0  0  0  0  0  0
  140.7698   71.9343  227.3948 H   0  0  0  0  0  0  0  0  0  0  0  0
  139.4191   72.1362  226.2999 H   0  0  0  0  0  0  0  0  0  0  0  0
  140.4509   69.9907  228.7480 H   0  0  0  0  0  0  0  0  0  0  0  0
  139.9214   67.5437  228.9335 H   0  0  0  0  0  0  0  0  0  0  0  0
  139.1928   66.3292  226.8827 H   0  0  0  0  0  0  0  0  0  0  0  0
  138.9883   67.5025  224.7090 H   0  0  0  0  0  0  0  0  0  0  0  0
  139.6479   69.4652  223.3764 H   0  0  0  0  0  0  0  0  0  0  0  0
  138.5083   70.6283  224.1689 H   0  0  0  0  0  0  0  0  0  0  0  0
  140.2780   69.5566  219.4438 H   0  0  0  0  0  0  0  0  0  0  0  0
  140.1881   70.9280  218.2497 H   0  0  0  0  0  0  0  0  0  0  0  0
  140.8360   68.6093  217.3823 H   0  0  0  0  0  0  0  0  0  0  0  0
  141.8344   70.0278  216.9013 H   0  0  0  0  0  0  0  0  0  0  0  0
  142.4134   66.7651  217.5609 H   0  0  0  0  0  0  0  0  0  0  0  0
  144.4653   65.8640  218.6156 H   0  0  0  0  0  0  0  0  0  0  0  0
  145.9543   67.3278  219.9738 H   0  0  0  0  0  0  0  0  0  0  0  0
  145.3551   69.7454  220.2757 H   0  0  0  0  0  0  0  0  0  0  0  0
  143.7503   71.4444  220.0226 H   0  0  0  0  0  0  0  0  0  0  0  0
  143.3416   71.5152  218.2888 H   0  0  0  0  0  0  0  0  0  0  0  0
  1  2  2  0
  2  3  1  0
  3  4  1  0
  4  5  1  0
  5  6  1  0
  6  7  1  0
  7  8  1  0
  8  9  1  0
  9 10  1  0
  2 11  1  0
 11 12  2  0
 12 13  1  0
 13 14  1  0
 14 15  1  0
 15 16  1  0
 16 17  1  0
 17 18  2  0
 18 19  1  0
 19 20  2  0
 20 21  1  0
 21 22  2  0
 22 23  1  0
 13 24  2  0
 24 25  1  0
 25 26  1  0
 26 27  1  0
 27 28  1  0
 28 29  1  0
 29 30  2  0
 30 31  1  0
 31 32  2  0
 32 33  1  0
 33 34  2  0
 34 35  1  0
 25 36  2  0
 10  5  1  0
 36 11  1  0
 23 14  1  0
 35 26  1  0
 22 17  1  0
 34 29  1  0
  3 37  1  0
  4 38  1  0
  4 39  1  0
  5 40  1  1
  6 41  1  0
  6 42  1  0
  7 43  1  0
  7 44  1  0
  8 45  1  0
  8 46  1  0
  9 47  1  0
 10 48  1  0
 10 49  1  0
 15 50  1  0
 15 51  1  0
 16 52  1  0
 16 53  1  0
 18 54  1  0
 19 55  1  0
 20 56  1  0
 21 57  1  0
 23 58  1  0
 23 59  1  0
 27 60  1  0
 27 61  1  0
 28 62  1  0
 28 63  1  0
 30 64  1  0
 31 65  1  0
 32 66  1  0
 33 67  1  0
 35 68  1  0
 35 69  1  0
M  END
>  <smiles>  (44) 
O=C(NCC1CCCNC1)c1nc(N2CCc3ccccc3C2)nc(N2CCc3ccccc3C2)n1

>  <score_type>  (44) 
oracle

>  <origin>  (44) 
autodockgpu

>  <m_score__min__energy>  (44) 
-10.33

>  <m_primary>  (44) 
energy

>  <rmsd>  (44) 
3.9858093124822744

>  <m_score__min__rmsd>  (44) 
3.9858093124822744

>  <meeko>  (44) 
{"free_energy": -10.05, "intermolecular_energy": -11.54, "internal_energy": -1.0, "cluster_size": 25, "cluster_id": 1, "rank_in_cluster": 6}

>  <energy>  (44) 
-8.52

>  <cluster_rmsd>  (44) 
1.82

>  <cluster>  (44) 
6

$$$$

     RDKit          3D

 69 74  0  0  0  0  0  0  0  0999 V2000
  143.7480   75.4360  219.0470 O   0  0  0  0  0  0  0  0  0  0  0  0
  142.7680   74.6370  219.1100 C   0  0  0  0  0  0  0  0  0  0  0  0
  142.6180   73.7500  218.0010 N   0  0  0  0  0  0  0  0  0  0  0  0
  143.5940   73.8650  216.9380 C   0  0  0  0  0  0  0  0  0  0  0  0
  144.5340   72.6800  216.9100 C   0  0  2  0  0  0  0  0  0  0  0  0
  143.9240   71.5890  217.7410 C   0  0  0  0  0  0  0  0  0  0  0  0
  144.8120   71.2450  218.9280 C   0  0  0  0  0  0  0  0  0  0  0  0
  145.1820   72.5360  219.6050 C   0  0  0  0  0  0  0  0  0  0  0  0
  145.9400   73.4110  218.7580 N   0  0  0  0  0  0  0  0  0  0  0  0
  145.9160   73.0300  217.3740 C   0  0  0  0  0  0  0  0  0  0  0  0
  141.8620   74.6280  220.2380 C   0  0  0  0  0  0  0  0  0  0  0  0
  141.3980   73.4740  220.7590 N   0  0  0  0  0  0  0  0  0  0  0  0
  140.5490   73.5250  221.8190 C   0  0  0  0  0  0  0  0  0  0  0  0
  140.0200   72.3430  222.4190 N   0  0  0  0  0  0  0  0  0  0  0  0
  138.8020   71.7010  221.9170 C   0  0  0  0  0  0  0  0  0  0  0  0
  139.1170   70.2000  221.9520 C   0  0  0  0  0  0  0  0  0  0  0  0
  139.1260   69.8920  223.4280 C   0  0  0  0  0  0  0  0  0  0  0  0
  138.3700   68.8670  223.9550 C   0  0  0  0  0  0  0  0  0  0  0  0
  138.4050   68.6140  225.3220 C   0  0  0  0  0  0  0  0  0  0  0  0
  139.2160   69.4200  226.1070 C   0  0  0  0  0  0  0  0  0  0  0  0
  139.9750   70.4530  225.5530 C   0  0  0  0  0  0  0  0  0  0  0  0
  139.9380   70.7030  224.1960 C   0  0  0  0  0  0  0  0  0  0  0  0
  140.7230   71.7880  223.5480 C   0  0  0  0  0  0  0  0  0  0  0  0
  140.1780   74.7110  222.3380 N   0  0  0  0  0  0  0  0  0  0  0  0
  140.6420   75.8470  221.8150 C   0  0  0  0  0  0  0  0  0  0  0  0
  140.2440   77.0910  222.3710 N   0  0  0  0  0  0  0  0  0  0  0  0
  138.9080   77.5700  222.1540 C   0  0  0  0  0  0  0  0  0  0  0  0
  138.6910   78.9430  222.7050 C   0  0  0  0  0  0  0  0  0  0  0  0
  139.8560   79.8070  222.3870 C   0  0  0  0  0  0  0  0  0  0  0  0
  139.7650   81.0750  221.8940 C   0  0  0  0  0  0  0  0  0  0  0  0
  140.9210   81.7940  221.6310 C   0  0  0  0  0  0  0  0  0  0  0  0
  142.1830   81.2470  221.8610 C   0  0  0  0  0  0  0  0  0  0  0  0
  142.2790   79.9570  222.3630 C   0  0  0  0  0  0  0  0  0  0  0  0
  141.1140   79.2670  222.6140 C   0  0  0  0  0  0  0  0  0  0  0  0
  141.1520   77.8840  223.1500 C   0  0  0  0  0  0  0  0  0  0  0  0
  141.4810   75.7960  220.7680 N   0  0  0  0  0  0  0  0  0  0  0  0
  141.8290   73.0730  218.0020 H   0  0  0  0  0  0  0  0  0  0  0  0
  143.0664   73.9242  215.9746 H   0  0  0  0  0  0  0  0  0  0  0  0
  144.1907   74.7715  217.1173 H   0  0  0  0  0  0  0  0  0  0  0  0
  144.6588   72.3386  215.8718 H   0  0  0  0  0  0  0  0  0  0  0  0
  142.9436   71.9240  218.1106 H   0  0  0  0  0  0  0  0  0  0  0  0
  143.8141   70.6916  217.1144 H   0  0  0  0  0  0  0  0  0  0  0  0
  144.2669   70.5960  219.6292 H   0  0  0  0  0  0  0  0  0  0  0  0
  145.7136   70.7099  218.5951 H   0  0  0  0  0  0  0  0  0  0  0  0
  144.2585   73.0519  219.9065 H   0  0  0  0  0  0  0  0  0  0  0  0
  145.8119   72.2866  220.4716 H   0  0  0  0  0  0  0  0  0  0  0  0
  145.6940   74.4180  218.8570 H   0  0  0  0  0  0  0  0  0  0  0  0
  146.2919   73.8680  216.7687 H   0  0  0  0  0  0  0  0  0  0  0  0
  146.5490   72.1381  217.2569 H   0  0  0  0  0  0  0  0  0  0  0  0
  137.9443   71.9336  222.5653 H   0  0  0  0  0  0  0  0  0  0  0  0
  138.5309   72.0483  220.9091 H   0  0  0  0  0  0  0  0  0  0  0  0
  138.3404   69.6204  221.4315 H   0  0  0  0  0  0  0  0  0  0  0  0
  140.0606   69.9423  221.4487 H   0  0  0  0  0  0  0  0  0  0  0  0
  137.7407   68.2508  223.2961 H   0  0  0  0  0  0  0  0  0  0  0  0
  137.8097   67.8023  225.7656 H   0  0  0  0  0  0  0  0  0  0  0  0
  139.2624   69.2414  227.1914 H   0  0  0  0  0  0  0  0  0  0  0  0
  140.6084   71.0733  226.2042 H   0  0  0  0  0  0  0  0  0  0  0  0
  140.9058   72.5856  224.2831 H   0  0  0  0  0  0  0  0  0  0  0  0
  141.6720   71.3624  223.1899 H   0  0  0  0  0  0  0  0  0  0  0  0
  138.7128   77.5902  221.0717 H   0  0  0  0  0  0  0  0  0  0  0  0
  138.2215   76.8891  222.6784 H   0  0  0  0  0  0  0  0  0  0  0  0
  137.7837   79.3757  222.2583 H   0  0  0  0  0  0  0  0  0  0  0  0
  138.5752   78.8800  223.7971 H   0  0  0  0  0  0  0  0  0  0  0  0
  138.7792   81.5254  221.7058 H   0  0  0  0  0  0  0  0  0  0  0  0
  140.8411   82.8163  221.2330 H   0  0  0  0  0  0  0  0  0  0  0  0
  143.0906   81.8306  221.6472 H   0  0  0  0  0  0  0  0  0  0  0  0
  143.2598   79.4976  222.5554 H   0  0  0  0  0  0  0  0  0  0  0  0
  142.1708   77.4776  223.0671 H   0  0  0  0  0  0  0  0  0  0  0  0
  140.8617   77.8730  224.2109 H   0  0  0  0  0  0  0  0  0  0  0  0
  1  2  2  0
  2  3  1  0
  3  4  1  0
  4  5  1  0
  5  6  1  0
  6  7  1  0
  7  8  1  0
  8  9  1  0
  9 10  1  0
  2 11  1  0
 11 12  2  0
 12 13  1  0
 13 14  1  0
 14 15  1  0
 15 16  1  0
 16 17  1  0
 17 18  2  0
 18 19  1  0
 19 20  2  0
 20 21  1  0
 21 22  2  0
 22 23  1  0
 13 24  2  0
 24 25  1  0
 25 26  1  0
 26 27  1  0
 27 28  1  0
 28 29  1  0
 29 30  2  0
 30 31  1  0
 31 32  2  0
 32 33  1  0
 33 34  2  0
 34 35  1  0
 25 36  2  0
 10  5  1  0
 36 11  1  0
 23 14  1  0
 35 26  1  0
 22 17  1  0
 34 29  1  0
  3 37  1  0
  4 38  1  0
  4 39  1  0
  5 40  1  6
  6 41  1  0
  6 42  1  0
  7 43  1  0
  7 44  1  0
  8 45  1  0
  8 46  1  0
  9 47  1  0
 10 48  1  0
 10 49  1  0
 15 50  1  0
 15 51  1  0
 16 52  1  0
 16 53  1  0
 18 54  1  0
 19 55  1  0
 20 56  1  0
 21 57  1  0
 23 58  1  0
 23 59  1  0
 27 60  1  0
 27 61  1  0
 28 62  1  0
 28 63  1  0
 30 64  1  0
 31 65  1  0
 32 66  1  0
 33 67  1  0
 35 68  1  0
 35 69  1  0
M  END
>  <smiles>  (45) 
O=C(NCC1CCCNC1)c1nc(N2CCc3ccccc3C2)nc(N2CCc3ccccc3C2)n1

>  <score_type>  (45) 
oracle

>  <origin>  (45) 
autodockgpu

>  <m_score__min__energy>  (45) 
-10.33

>  <m_primary>  (45) 
energy

>  <rmsd>  (45) 
6.0172480882255135

>  <m_score__min__rmsd>  (45) 
6.0172480882255135

>  <meeko>  (45) 
{"free_energy": -8.69, "intermolecular_energy": -10.18, "internal_energy": -2.02, "cluster_size": 6, "cluster_id": 6, "rank_in_cluster": 4}

>  <energy>  (45) 
-8.52

>  <cluster_rmsd>  (45) 
1.84

>  <cluster>  (45) 
6

$$$$

     RDKit          3D

 69 74  0  0  0  0  0  0  0  0999 V2000
  136.1700   76.5430  222.8950 O   0  0  0  0  0  0  0  0  0  0  0  0
  137.0380   75.6250  222.8290 C   0  0  0  0  0  0  0  0  0  0  0  0
  136.5660   74.3040  223.0960 N   0  0  0  0  0  0  0  0  0  0  0  0
  135.1600   74.1650  223.4090 C   0  0  0  0  0  0  0  0  0  0  0  0
  134.9280   74.0210  224.8980 C   0  0  2  0  0  0  0  0  0  0  0  0
  133.5090   73.5760  225.1010 C   0  0  0  0  0  0  0  0  0  0  0  0
  132.7210   74.6110  225.8900 C   0  0  0  0  0  0  0  0  0  0  0  0
  132.9640   75.9500  225.2500 C   0  0  0  0  0  0  0  0  0  0  0  0
  134.3400   76.3490  225.3000 N   0  0  0  0  0  0  0  0  0  0  0  0
  135.2330   75.2810  225.6510 C   0  0  0  0  0  0  0  0  0  0  0  0
  138.4200   75.9030  222.5050 C   0  0  0  0  0  0  0  0  0  0  0  0
  139.2390   74.9440  222.0270 N   0  0  0  0  0  0  0  0  0  0  0  0
  140.5280   75.2630  221.7380 C   0  0  0  0  0  0  0  0  0  0  0  0
  141.4470   74.2960  221.2300 N   0  0  0  0  0  0  0  0  0  0  0  0
  141.2410   72.8580  221.4240 C   0  0  0  0  0  0  0  0  0  0  0  0
  141.6070   72.2320  220.0730 C   0  0  0  0  0  0  0  0  0  0  0  0
  143.1060   72.3960  220.0220 C   0  0  0  0  0  0  0  0  0  0  0  0
  143.9390   71.3270  219.7670 C   0  0  0  0  0  0  0  0  0  0  0  0
  145.3160   71.5190  219.7270 C   0  0  0  0  0  0  0  0  0  0  0  0
  145.7960   72.8010  219.9490 C   0  0  0  0  0  0  0  0  0  0  0  0
  144.9340   73.8700  220.2040 C   0  0  0  0  0  0  0  0  0  0  0  0
  143.5680   73.6780  220.2440 C   0  0  0  0  0  0  0  0  0  0  0  0
  142.6010   74.7750  220.5120 C   0  0  0  0  0  0  0  0  0  0  0  0
  140.9790   76.5170  221.9280 N   0  0  0  0  0  0  0  0  0  0  0  0
  140.1610   77.4590  222.4020 C   0  0  0  0  0  0  0  0  0  0  0  0
  140.6480   78.7780  222.5980 N   0  0  0  0  0  0  0  0  0  0  0  0
  139.9680   79.6580  223.5060 C   0  0  0  0  0  0  0  0  0  0  0  0
  140.5380   81.0400  223.5050 C   0  0  0  0  0  0  0  0  0  0  0  0
  140.8150   81.4730  222.1120 C   0  0  0  0  0  0  0  0  0  0  0  0
  140.4750   82.6900  221.5990 C   0  0  0  0  0  0  0  0  0  0  0  0
  140.7840   82.9890  220.2810 C   0  0  0  0  0  0  0  0  0  0  0  0
  141.4380   82.0690  219.4620 C   0  0  0  0  0  0  0  0  0  0  0  0
  141.7850   80.8310  219.9810 C   0  0  0  0  0  0  0  0  0  0  0  0
  141.4660   80.5610  221.2930 C   0  0  0  0  0  0  0  0  0  0  0  0
  141.8110   79.2530  221.9050 C   0  0  0  0  0  0  0  0  0  0  0  0
  138.8870   77.1440  222.6870 N   0  0  0  0  0  0  0  0  0  0  0  0
  137.2400   73.5120  223.0560 H   0  0  0  0  0  0  0  0  0  0  0  0
  134.6252   75.0566  223.0497 H   0  0  0  0  0  0  0  0  0  0  0  0
  134.7877   73.2554  222.9150 H   0  0  0  0  0  0  0  0  0  0  0  0
  135.6204   73.2694  225.3050 H   0  0  0  0  0  0  0  0  0  0  0  0
  133.0330   73.4327  224.1197 H   0  0  0  0  0  0  0  0  0  0  0  0
  133.5149   72.6332  225.6676 H   0  0  0  0  0  0  0  0  0  0  0  0
  131.6483   74.3694  225.8593 H   0  0  0  0  0  0  0  0  0  0  0  0
  133.0411   74.6213  226.9424 H   0  0  0  0  0  0  0  0  0  0  0  0
  132.6514   75.8978  224.1966 H   0  0  0  0  0  0  0  0  0  0  0  0
  132.3827   76.6957  225.8121 H   0  0  0  0  0  0  0  0  0  0  0  0
  134.6760   76.8300  224.4390 H   0  0  0  0  0  0  0  0  0  0  0  0
  136.2635   75.5905  225.4221 H   0  0  0  0  0  0  0  0  0  0  0  0
  135.1079   75.0734  226.7240 H   0  0  0  0  0  0  0  0  0  0  0  0
  141.8964   72.4753  222.2202 H   0  0  0  0  0  0  0  0  0  0  0  0
  140.2114   72.6205  221.7298 H   0  0  0  0  0  0  0  0  0  0  0  0
  141.3235   71.1697  220.0390 H   0  0  0  0  0  0  0  0  0  0  0  0
  141.0892   72.6995  219.2225 H   0  0  0  0  0  0  0  0  0  0  0  0
  143.5160   70.3261  219.5958 H   0  0  0  0  0  0  0  0  0  0  0  0
  146.0011   70.6822  219.5261 H   0  0  0  0  0  0  0  0  0  0  0  0
  146.8810   72.9802  219.9237 H   0  0  0  0  0  0  0  0  0  0  0  0
  145.3480   74.8747  220.3746 H   0  0  0  0  0  0  0  0  0  0  0  0
  143.0983   75.5517  221.1115 H   0  0  0  0  0  0  0  0  0  0  0  0
  142.2637   75.1820  219.5473 H   0  0  0  0  0  0  0  0  0  0  0  0
  138.9087   79.7139  223.2150 H   0  0  0  0  0  0  0  0  0  0  0  0
  140.0901   79.2488  224.5197 H   0  0  0  0  0  0  0  0  0  0  0  0
  139.8172   81.7319  223.9652 H   0  0  0  0  0  0  0  0  0  0  0  0
  141.4767   81.0443  224.0784 H   0  0  0  0  0  0  0  0  0  0  0  0
  139.9584   83.4303  222.2275 H   0  0  0  0  0  0  0  0  0  0  0  0
  140.5076   83.9723  219.8728 H   0  0  0  0  0  0  0  0  0  0  0  0
  141.6754   82.3221  218.4182 H   0  0  0  0  0  0  0  0  0  0  0  0
  142.3018   80.0839  219.3607 H   0  0  0  0  0  0  0  0  0  0  0  0
  142.0994   78.5367  221.1215 H   0  0  0  0  0  0  0  0  0  0  0  0
  142.6567   79.3627  222.5998 H   0  0  0  0  0  0  0  0  0  0  0  0
  1  2  2  0
  2  3  1  0
  3  4  1  0
  4  5  1  0
  5  6  1  0
  6  7  1  0
  7  8  1  0
  8  9  1  0
  9 10  1  0
  2 11  1  0
 11 12  2  0
 12 13  1  0
 13 14  1  0
 14 15  1  0
 15 16  1  0
 16 17  1  0
 17 18  2  0
 18 19  1  0
 19 20  2  0
 20 21  1  0
 21 22  2  0
 22 23  1  0
 13 24  2  0
 24 25  1  0
 25 26  1  0
 26 27  1  0
 27 28  1  0
 28 29  1  0
 29 30  2  0
 30 31  1  0
 31 32  2  0
 32 33  1  0
 33 34  2  0
 34 35  1  0
 25 36  2  0
 10  5  1  0
 36 11  1  0
 23 14  1  0
 35 26  1  0
 22 17  1  0
 34 29  1  0
  3 37  1  0
  4 38  1  0
  4 39  1  0
  5 40  1  1
  6 41  1  0
  6 42  1  0
  7 43  1  0
  7 44  1  0
  8 45  1  0
  8 46  1  0
  9 47  1  0
 10 48  1  0
 10 49  1  0
 15 50  1  0
 15 51  1  0
 16 52  1  0
 16 53  1  0
 18 54  1  0
 19 55  1  0
 20 56  1  0
 21 57  1  0
 23 58  1  0
 23 59  1  0
 27 60  1  0
 27 61  1  0
 28 62  1  0
 28 63  1  0
 30 64  1  0
 31 65  1  0
 32 66  1  0
 33 67  1  0
 35 68  1  0
 35 69  1  0
M  END
>  <smiles>  (46) 
O=C(NCC1CCCNC1)c1nc(N2CCc3ccccc3C2)nc(N2CCc3ccccc3C2)n1

>  <score_type>  (46) 
oracle

>  <origin>  (46) 
autodockgpu

>  <m_score__min__energy>  (46) 
-10.33

>  <m_primary>  (46) 
energy

>  <rmsd>  (46) 
7.909848379913442

>  <m_score__min__rmsd>  (46) 
7.909848379913442

>  <meeko>  (46) 
{"free_energy": -8.32, "intermolecular_energy": -9.81, "internal_energy": -1.88, "cluster_size": 3, "cluster_id": 7, "rank_in_cluster": 2}

>  <energy>  (46) 
-8.47

>  <cluster_rmsd>  (46) 
0.0

>  <cluster>  (46) 
7

$$$$

     RDKit          3D

 69 74  0  0  0  0  0  0  0  0999 V2000
  139.6910   75.7330  220.2420 O   0  0  0  0  0  0  0  0  0  0  0  0
  140.4920   75.3340  221.1370 C   0  0  0  0  0  0  0  0  0  0  0  0
  141.1560   76.3580  221.8790 N   0  0  0  0  0  0  0  0  0  0  0  0
  140.8410   77.7260  221.5260 C   0  0  0  0  0  0  0  0  0  0  0  0
  140.5940   78.5780  222.7510 C   0  0  2  0  0  0  0  0  0  0  0  0
  140.1430   79.9320  222.2860 C   0  0  0  0  0  0  0  0  0  0  0  0
  141.1240   81.0120  222.7200 C   0  0  0  0  0  0  0  0  0  0  0  0
  142.5030   80.5490  222.3400 C   0  0  0  0  0  0  0  0  0  0  0  0
  142.8900   79.3420  223.0120 N   0  0  0  0  0  0  0  0  0  0  0  0
  141.7950   78.6640  223.6450 C   0  0  0  0  0  0  0  0  0  0  0  0
  140.7170   73.9270  221.3880 C   0  0  0  0  0  0  0  0  0  0  0  0
  140.3790   73.3570  222.5620 N   0  0  0  0  0  0  0  0  0  0  0  0
  140.6120   72.0300  222.7420 C   0  0  0  0  0  0  0  0  0  0  0  0
  140.2790   71.3660  223.9600 N   0  0  0  0  0  0  0  0  0  0  0  0
  139.1730   70.4060  224.0380 C   0  0  0  0  0  0  0  0  0  0  0  0
  139.7190   69.2610  224.9000 C   0  0  0  0  0  0  0  0  0  0  0  0
  139.7850   69.8760  226.2760 C   0  0  0  0  0  0  0  0  0  0  0  0
  139.2010   69.2660  227.3660 C   0  0  0  0  0  0  0  0  0  0  0  0
  139.2840   69.8640  228.6180 C   0  0  0  0  0  0  0  0  0  0  0  0
  139.9630   71.0690  228.7140 C   0  0  0  0  0  0  0  0  0  0  0  0
  140.5480   71.6690  227.5970 C   0  0  0  0  0  0  0  0  0  0  0  0
  140.4650   71.0740  226.3550 C   0  0  0  0  0  0  0  0  0  0  0  0
  141.0660   71.6650  225.1300 C   0  0  0  0  0  0  0  0  0  0  0  0
  141.1730   71.2980  221.7620 N   0  0  0  0  0  0  0  0  0  0  0  0
  141.5050   71.8710  220.6030 C   0  0  0  0  0  0  0  0  0  0  0  0
  142.0950   71.0890  219.5760 N   0  0  0  0  0  0  0  0  0  0  0  0
  141.4890   69.8450  219.1940 C   0  0  0  0  0  0  0  0  0  0  0  0
  142.2980   69.0930  218.1880 C   0  0  0  0  0  0  0  0  0  0  0  0
  143.7360   69.1410  218.5560 C   0  0  0  0  0  0  0  0  0  0  0  0
  144.5710   68.0620  218.5540 C   0  0  0  0  0  0  0  0  0  0  0  0
  145.8990   68.2220  218.9160 C   0  0  0  0  0  0  0  0  0  0  0  0
  146.4050   69.4670  219.2860 C   0  0  0  0  0  0  0  0  0  0  0  0
  145.5600   70.5670  219.2880 C   0  0  0  0  0  0  0  0  0  0  0  0
  144.2450   70.3780  218.9230 C   0  0  0  0  0  0  0  0  0  0  0  0
  143.2910   71.5160  218.9080 C   0  0  0  0  0  0  0  0  0  0  0  0
  141.2730   73.1820  220.4250 N   0  0  0  0  0  0  0  0  0  0  0  0
  141.8260   76.0840  222.6260 H   0  0  0  0  0  0  0  0  0  0  0  0
  141.6832   78.1510  220.9603 H   0  0  0  0  0  0  0  0  0  0  0  0
  139.9221   77.7208  220.9214 H   0  0  0  0  0  0  0  0  0  0  0  0
  139.8120   78.1113  223.3680 H   0  0  0  0  0  0  0  0  0  0  0  0
  140.0722   79.9303  221.1883 H   0  0  0  0  0  0  0  0  0  0  0  0
  139.1623   80.1482  222.7348 H   0  0  0  0  0  0  0  0  0  0  0  0
  140.8913   81.9580  222.2091 H   0  0  0  0  0  0  0  0  0  0  0  0
  141.0577   81.1824  223.8047 H   0  0  0  0  0  0  0  0  0  0  0  0
  142.5269   80.3701  221.2549 H   0  0  0  0  0  0  0  0  0  0  0  0
  143.2105   81.3360  222.6400 H   0  0  0  0  0  0  0  0  0  0  0  0
  143.4290   78.6780  222.4180 H   0  0  0  0  0  0  0  0  0  0  0  0
  142.1139   77.6452  223.9101 H   0  0  0  0  0  0  0  0  0  0  0  0
  141.5118   79.2382  224.5395 H   0  0  0  0  0  0  0  0  0  0  0  0
  138.2929   70.8644  224.5125 H   0  0  0  0  0  0  0  0  0  0  0  0
  138.8457   70.0631  223.0454 H   0  0  0  0  0  0  0  0  0  0  0  0
  139.0395   68.3961  224.8854 H   0  0  0  0  0  0  0  0  0  0  0  0
  140.6884   68.8775  224.5489 H   0  0  0  0  0  0  0  0  0  0  0  0
  138.6713   68.3095  227.2452 H   0  0  0  0  0  0  0  0  0  0  0  0
  138.8265   69.3970  229.5027 H   0  0  0  0  0  0  0  0  0  0  0  0
  140.0427   71.5640  229.6931 H   0  0  0  0  0  0  0  0  0  0  0  0
  141.0801   72.6252  227.7084 H   0  0  0  0  0  0  0  0  0  0  0  0
  141.1255   72.7566  225.2517 H   0  0  0  0  0  0  0  0  0  0  0  0
  142.0678   71.2318  224.9928 H   0  0  0  0  0  0  0  0  0  0  0  0
  141.3742   69.2195  220.0915 H   0  0  0  0  0  0  0  0  0  0  0  0
  140.5180   70.0771  218.7322 H   0  0  0  0  0  0  0  0  0  0  0  0
  141.9635   68.0454  218.1608 H   0  0  0  0  0  0  0  0  0  0  0  0
  142.1625   69.5531  217.1981 H   0  0  0  0  0  0  0  0  0  0  0  0
  144.1920   67.0702  218.2665 H   0  0  0  0  0  0  0  0  0  0  0  0
  146.5676   67.3485  218.9113 H   0  0  0  0  0  0  0  0  0  0  0  0
  147.4613   69.5758  219.5728 H   0  0  0  0  0  0  0  0  0  0  0  0
  145.9297   71.5630  219.5732 H   0  0  0  0  0  0  0  0  0  0  0  0
  143.7271   72.3779  219.4343 H   0  0  0  0  0  0  0  0  0  0  0  0
  143.0685   71.8197  217.8744 H   0  0  0  0  0  0  0  0  0  0  0  0
  1  2  2  0
  2  3  1  0
  3  4  1  0
  4  5  1  0
  5  6  1  0
  6  7  1  0
  7  8  1  0
  8  9  1  0
  9 10  1  0
  2 11  1  0
 11 12  2  0
 12 13  1  0
 13 14  1  0
 14 15  1  0
 15 16  1  0
 16 17  1  0
 17 18  2  0
 18 19  1  0
 19 20  2  0
 20 21  1  0
 21 22  2  0
 22 23  1  0
 13 24  2  0
 24 25  1  0
 25 26  1  0
 26 27  1  0
 27 28  1  0
 28 29  1  0
 29 30  2  0
 30 31  1  0
 31 32  2  0
 32 33  1  0
 33 34  2  0
 34 35  1  0
 25 36  2  0
 10  5  1  0
 36 11  1  0
 23 14  1  0
 35 26  1  0
 22 17  1  0
 34 29  1  0
  3 37  1  0
  4 38  1  0
  4 39  1  0
  5 40  1  1
  6 41  1  0
  6 42  1  0
  7 43  1  0
  7 44  1  0
  8 45  1  0
  8 46  1  0
  9 47  1  0
 10 48  1  0
 10 49  1  0
 15 50  1  0
 15 51  1  0
 16 52  1  0
 16 53  1  0
 18 54  1  0
 19 55  1  0
 20 56  1  0
 21 57  1  0
 23 58  1  0
 23 59  1  0
 27 60  1  0
 27 61  1  0
 28 62  1  0
 28 63  1  0
 30 64  1  0
 31 65  1  0
 32 66  1  0
 33 67  1  0
 35 68  1  0
 35 69  1  0
M  END
>  <smiles>  (47) 
O=C(NCC1CCCNC1)c1nc(N2CCc3ccccc3C2)nc(N2CCc3ccccc3C2)n1

>  <score_type>  (47) 
oracle

>  <origin>  (47) 
autodockgpu

>  <m_score__min__energy>  (47) 
-10.33

>  <m_primary>  (47) 
energy

>  <rmsd>  (47) 
4.022079939809386

>  <m_score__min__rmsd>  (47) 
4.022079939809386

>  <meeko>  (47) 
{"free_energy": -10.33, "intermolecular_energy": -11.82, "internal_energy": -0.99, "cluster_size": 25, "cluster_id": 1, "rank_in_cluster": 1}

>  <energy>  (47) 
-8.32

>  <cluster_rmsd>  (47) 
1.41

>  <cluster>  (47) 
7

$$$$

     RDKit          3D

 69 74  0  0  0  0  0  0  0  0999 V2000
  141.9230   72.7570  217.9600 O   0  0  0  0  0  0  0  0  0  0  0  0
  142.0210   72.1940  219.0900 C   0  0  0  0  0  0  0  0  0  0  0  0
  142.8490   71.0320  219.1350 N   0  0  0  0  0  0  0  0  0  0  0  0
  143.4790   70.6320  217.8950 C   0  0  0  0  0  0  0  0  0  0  0  0
  144.9610   70.9400  217.8940 C   0  0  2  0  0  0  0  0  0  0  0  0
  145.4390   70.9040  219.3160 C   0  0  0  0  0  0  0  0  0  0  0  0
  145.9730   72.2620  219.7470 C   0  0  0  0  0  0  0  0  0  0  0  0
  144.9480   73.2930  219.3640 C   0  0  0  0  0  0  0  0  0  0  0  0
  144.7290   73.3620  217.9480 N   0  0  0  0  0  0  0  0  0  0  0  0
  145.2760   72.2470  217.2300 C   0  0  0  0  0  0  0  0  0  0  0  0
  141.3330   72.7010  220.2570 C   0  0  0  0  0  0  0  0  0  0  0  0
  141.0370   71.9030  221.3030 N   0  0  0  0  0  0  0  0  0  0  0  0
  140.3900   72.4330  222.3740 C   0  0  0  0  0  0  0  0  0  0  0  0
  140.0470   71.6450  223.5130 N   0  0  0  0  0  0  0  0  0  0  0  0
  138.7450   70.9830  223.6300 C   0  0  0  0  0  0  0  0  0  0  0  0
  139.0700   69.5960  224.1980 C   0  0  0  0  0  0  0  0  0  0  0  0
  139.4690   69.8990  225.6200 C   0  0  0  0  0  0  0  0  0  0  0  0
  138.8860   69.2480  226.6860 C   0  0  0  0  0  0  0  0  0  0  0  0
  139.2830   69.5550  227.9840 C   0  0  0  0  0  0  0  0  0  0  0  0
  140.2650   70.5200  228.1470 C   0  0  0  0  0  0  0  0  0  0  0  0
  140.8430   71.1660  227.0530 C   0  0  0  0  0  0  0  0  0  0  0  0
  140.4490   70.8600  225.7660 C   0  0  0  0  0  0  0  0  0  0  0  0
  141.0260   71.5150  224.5630 C   0  0  0  0  0  0  0  0  0  0  0  0
  140.0490   73.7360  222.3880 N   0  0  0  0  0  0  0  0  0  0  0  0
  140.3460   74.5180  221.3470 C   0  0  0  0  0  0  0  0  0  0  0  0
  139.9820   75.8890  221.3730 N   0  0  0  0  0  0  0  0  0  0  0  0
  139.7360   76.5830  220.1400 C   0  0  0  0  0  0  0  0  0  0  0  0
  139.4820   78.0420  220.3390 C   0  0  0  0  0  0  0  0  0  0  0  0
  140.4410   78.5940  221.3280 C   0  0  0  0  0  0  0  0  0  0  0  0
  141.1350   79.7570  221.1660 C   0  0  0  0  0  0  0  0  0  0  0  0
  142.0080   80.1790  222.1560 C   0  0  0  0  0  0  0  0  0  0  0  0
  142.1960   79.4380  223.3220 C   0  0  0  0  0  0  0  0  0  0  0  0
  141.4920   78.2540  223.4900 C   0  0  0  0  0  0  0  0  0  0  0  0
  140.6320   77.8600  222.4900 C   0  0  0  0  0  0  0  0  0  0  0  0
  139.8520   76.6020  222.6120 C   0  0  0  0  0  0  0  0  0  0  0  0
  140.9860   73.9930  220.2900 N   0  0  0  0  0  0  0  0  0  0  0  0
  142.9630   70.5310  220.0390 H   0  0  0  0  0  0  0  0  0  0  0  0
  143.3400   69.5495  217.7577 H   0  0  0  0  0  0  0  0  0  0  0  0
  143.0112   71.1971  217.0754 H   0  0  0  0  0  0  0  0  0  0  0  0
  145.4912   70.1818  217.2991 H   0  0  0  0  0  0  0  0  0  0  0  0
  144.6005   70.6232  219.9702 H   0  0  0  0  0  0  0  0  0  0  0  0
  146.2522   70.1673  219.3935 H   0  0  0  0  0  0  0  0  0  0  0  0
  146.1305   72.2754  220.8356 H   0  0  0  0  0  0  0  0  0  0  0  0
  146.9357   72.4726  219.2583 H   0  0  0  0  0  0  0  0  0  0  0  0
  143.9963   73.0411  219.8547 H   0  0  0  0  0  0  0  0  0  0  0  0
  145.3281   74.2731  219.6878 H   0  0  0  0  0  0  0  0  0  0  0  0
  143.7340   73.5100  217.6780 H   0  0  0  0  0  0  0  0  0  0  0  0
  144.8557   72.2389  216.2135 H   0  0  0  0  0  0  0  0  0  0  0  0
  146.3698   72.3613  217.2084 H   0  0  0  0  0  0  0  0  0  0  0  0
  138.0862   71.5386  224.3136 H   0  0  0  0  0  0  0  0  0  0  0  0
  138.2156   70.9276  222.6674 H   0  0  0  0  0  0  0  0  0  0  0  0
  138.1885   68.9388  224.1658 H   0  0  0  0  0  0  0  0  0  0  0  0
  139.8503   69.0667  223.6314 H   0  0  0  0  0  0  0  0  0  0  0  0
  138.1097   68.4885  226.5113 H   0  0  0  0  0  0  0  0  0  0  0  0
  138.8330   69.0493  228.8510 H   0  0  0  0  0  0  0  0  0  0  0  0
  140.5964   70.7827  229.1624 H   0  0  0  0  0  0  0  0  0  0  0  0
  141.6203   71.9266  227.2181 H   0  0  0  0  0  0  0  0  0  0  0  0
  141.3885   72.5159  224.8400 H   0  0  0  0  0  0  0  0  0  0  0  0
  141.8509   70.8895  224.1910 H   0  0  0  0  0  0  0  0  0  0  0  0
  140.6143   76.4646  219.4885 H   0  0  0  0  0  0  0  0  0  0  0  0
  138.8323   76.1474  219.6887 H   0  0  0  0  0  0  0  0  0  0  0  0
  139.6047   78.5672  219.3803 H   0  0  0  0  0  0  0  0  0  0  0  0
  138.4570   78.1823  220.7128 H   0  0  0  0  0  0  0  0  0  0  0  0
  141.0023   80.3572  220.2537 H   0  0  0  0  0  0  0  0  0  0  0  0
  142.5642   81.1181  222.0191 H   0  0  0  0  0  0  0  0  0  0  0  0
  142.8929   79.7872  224.0982 H   0  0  0  0  0  0  0  0  0  0  0  0
  141.6179   77.6464  224.3983 H   0  0  0  0  0  0  0  0  0  0  0  0
  140.2483   75.9936  223.4383 H   0  0  0  0  0  0  0  0  0  0  0  0
  138.7949   76.8217  222.8223 H   0  0  0  0  0  0  0  0  0  0  0  0
  1  2  2  0
  2  3  1  0
  3  4  1  0
  4  5  1  0
  5  6  1  0
  6  7  1  0
  7  8  1  0
  8  9  1  0
  9 10  1  0
  2 11  1  0
 11 12  2  0
 12 13  1  0
 13 14  1  0
 14 15  1  0
 15 16  1  0
 16 17  1  0
 17 18  2  0
 18 19  1  0
 19 20  2  0
 20 21  1  0
 21 22  2  0
 22 23  1  0
 13 24  2  0
 24 25  1  0
 25 26  1  0
 26 27  1  0
 27 28  1  0
 28 29  1  0
 29 30  2  0
 30 31  1  0
 31 32  2  0
 32 33  1  0
 33 34  2  0
 34 35  1  0
 25 36  2  0
 10  5  1  0
 36 11  1  0
 23 14  1  0
 35 26  1  0
 22 17  1  0
 34 29  1  0
  3 37  1  0
  4 38  1  0
  4 39  1  0
  5 40  1  6
  6 41  1  0
  6 42  1  0
  7 43  1  0
  7 44  1  0
  8 45  1  0
  8 46  1  0
  9 47  1  0
 10 48  1  0
 10 49  1  0
 15 50  1  0
 15 51  1  0
 16 52  1  0
 16 53  1  0
 18 54  1  0
 19 55  1  0
 20 56  1  0
 21 57  1  0
 23 58  1  0
 23 59  1  0
 27 60  1  0
 27 61  1  0
 28 62  1  0
 28 63  1  0
 30 64  1  0
 31 65  1  0
 32 66  1  0
 33 67  1  0
 35 68  1  0
 35 69  1  0
M  END
>  <smiles>  (48) 
O=C(NCC1CCCNC1)c1nc(N2CCc3ccccc3C2)nc(N2CCc3ccccc3C2)n1

>  <score_type>  (48) 
oracle

>  <origin>  (48) 
autodockgpu

>  <m_score__min__energy>  (48) 
-10.33

>  <m_primary>  (48) 
energy

>  <rmsd>  (48) 
6.670547278266556

>  <m_score__min__rmsd>  (48) 
6.670547278266556

>  <meeko>  (48) 
{"free_energy": -8.52, "intermolecular_energy": -10.01, "internal_energy": -2.03, "cluster_size": 6, "cluster_id": 6, "rank_in_cluster": 6}

>  <energy>  (48) 
-8.3

>  <cluster_rmsd>  (48) 
1.42

>  <cluster>  (48) 
7

$$$$

     RDKit          3D

 69 74  0  0  0  0  0  0  0  0999 V2000
  139.8810   71.8800  224.7830 O   0  0  0  0  0  0  0  0  0  0  0  0
  140.0620   71.2010  223.7300 C   0  0  0  0  0  0  0  0  0  0  0  0
  139.6910   69.8240  223.8060 N   0  0  0  0  0  0  0  0  0  0  0  0
  139.1540   69.3640  225.0680 C   0  0  0  0  0  0  0  0  0  0  0  0
  140.2110   68.6880  225.9150 C   0  0  2  0  0  0  0  0  0  0  0  0
  139.5880   68.3350  227.2340 C   0  0  0  0  0  0  0  0  0  0  0  0
  140.2820   69.0630  228.3760 C   0  0  0  0  0  0  0  0  0  0  0  0
  140.3770   70.5150  227.9970 C   0  0  0  0  0  0  0  0  0  0  0  0
  141.1710   70.7330  226.8230 N   0  0  0  0  0  0  0  0  0  0  0  0
  141.4390   69.5320  226.0830 C   0  0  0  0  0  0  0  0  0  0  0  0
  140.6120   71.7890  222.5280 C   0  0  0  0  0  0  0  0  0  0  0  0
  140.6650   73.1260  222.3580 N   0  0  0  0  0  0  0  0  0  0  0  0
  141.1930   73.6230  221.2090 C   0  0  0  0  0  0  0  0  0  0  0  0
  141.2790   75.0270  220.9650 N   0  0  0  0  0  0  0  0  0  0  0  0
  140.2590   75.9590  221.4540 C   0  0  0  0  0  0  0  0  0  0  0  0
  141.0560   77.1610  221.9750 C   0  0  0  0  0  0  0  0  0  0  0  0
  141.5730   77.7970  220.7080 C   0  0  0  0  0  0  0  0  0  0  0  0
  141.3810   79.1360  220.4430 C   0  0  0  0  0  0  0  0  0  0  0  0
  141.8730   79.6850  219.2640 C   0  0  0  0  0  0  0  0  0  0  0  0
  142.5480   78.8430  218.3930 C   0  0  0  0  0  0  0  0  0  0  0  0
  142.7330   77.4900  218.6810 C   0  0  0  0  0  0  0  0  0  0  0  0
  142.2440   76.9460  219.8520 C   0  0  0  0  0  0  0  0  0  0  0  0
  142.4080   75.5130  220.2130 C   0  0  0  0  0  0  0  0  0  0  0  0
  141.6550   72.7930  220.2550 N   0  0  0  0  0  0  0  0  0  0  0  0
  141.5980   71.4710  220.4330 C   0  0  0  0  0  0  0  0  0  0  0  0
  142.0880   70.6050  219.4210 N   0  0  0  0  0  0  0  0  0  0  0  0
  141.2750   69.5130  218.9650 C   0  0  0  0  0  0  0  0  0  0  0  0
  141.9850   68.6340  217.9870 C   0  0  0  0  0  0  0  0  0  0  0  0
  143.3770   68.3890  218.4420 C   0  0  0  0  0  0  0  0  0  0  0  0
  143.9820   67.1670  218.4580 C   0  0  0  0  0  0  0  0  0  0  0  0
  145.2890   67.0530  218.9050 C   0  0  0  0  0  0  0  0  0  0  0  0
  146.0050   68.1670  219.3420 C   0  0  0  0  0  0  0  0  0  0  0  0
  145.3940   69.4120  219.3270 C   0  0  0  0  0  0  0  0  0  0  0  0
  144.0950   69.4940  218.8780 C   0  0  0  0  0  0  0  0  0  0  0  0
  143.3860   70.7980  218.8390 C   0  0  0  0  0  0  0  0  0  0  0  0
  141.0770   70.9800  221.5690 N   0  0  0  0  0  0  0  0  0  0  0  0
  139.8200   69.2220  222.9680 H   0  0  0  0  0  0  0  0  0  0  0  0
  138.7532   70.2268  225.6202 H   0  0  0  0  0  0  0  0  0  0  0  0
  138.3637   68.6289  224.8560 H   0  0  0  0  0  0  0  0  0  0  0  0
  140.5578   67.7761  225.4069 H   0  0  0  0  0  0  0  0  0  0  0  0
  138.5257   68.6202  227.2181 H   0  0  0  0  0  0  0  0  0  0  0  0
  139.6933   67.2517  227.3930 H   0  0  0  0  0  0  0  0  0  0  0  0
  139.6969   68.9541  229.3011 H   0  0  0  0  0  0  0  0  0  0  0  0
  141.2833   68.6426  228.5509 H   0  0  0  0  0  0  0  0  0  0  0  0
  139.3623   70.8965  227.8106 H   0  0  0  0  0  0  0  0  0  0  0  0
  140.8654   71.0428  228.8294 H   0  0  0  0  0  0  0  0  0  0  0  0
  140.7990   71.4700  226.1880 H   0  0  0  0  0  0  0  0  0  0  0  0
  141.8202   69.8058  225.0881 H   0  0  0  0  0  0  0  0  0  0  0  0
  142.1795   68.9449  226.6460 H   0  0  0  0  0  0  0  0  0  0  0  0
  139.5864   76.2625  220.6382 H   0  0  0  0  0  0  0  0  0  0  0  0
  139.6211   75.5115  222.2305 H   0  0  0  0  0  0  0  0  0  0  0  0
  140.4079   77.8550  222.5303 H   0  0  0  0  0  0  0  0  0  0  0  0
  141.8545   76.8812  222.6779 H   0  0  0  0  0  0  0  0  0  0  0  0
  140.8400   79.7685  221.1622 H   0  0  0  0  0  0  0  0  0  0  0  0
  141.7317   80.7505  219.0302 H   0  0  0  0  0  0  0  0  0  0  0  0
  142.9471   79.2513  217.4528 H   0  0  0  0  0  0  0  0  0  0  0  0
  143.2739   76.8505  217.9679 H   0  0  0  0  0  0  0  0  0  0  0  0
  142.5056   74.9208  219.2912 H   0  0  0  0  0  0  0  0  0  0  0  0
  143.3080   75.4145  220.8378 H   0  0  0  0  0  0  0  0  0  0  0  0
  140.9808   68.9064  219.8342 H   0  0  0  0  0  0  0  0  0  0  0  0
  140.4007   69.9412  218.4529 H   0  0  0  0  0  0  0  0  0  0  0  0
  141.4536   67.6742  217.9072 H   0  0  0  0  0  0  0  0  0  0  0  0
  142.0079   69.1304  217.0057 H   0  0  0  0  0  0  0  0  0  0  0  0
  143.4350   66.2754  218.1175 H   0  0  0  0  0  0  0  0  0  0  0  0
  145.7710   66.0643  218.9153 H   0  0  0  0  0  0  0  0  0  0  0  0
  147.0415   68.0596  219.6942 H   0  0  0  0  0  0  0  0  0  0  0  0
  145.9327   70.3097  219.6647 H   0  0  0  0  0  0  0  0  0  0  0  0
  143.9478   71.5476  219.4157 H   0  0  0  0  0  0  0  0  0  0  0  0
  143.2950   71.1569  217.8032 H   0  0  0  0  0  0  0  0  0  0  0  0
  1  2  2  0
  2  3  1  0
  3  4  1  0
  4  5  1  0
  5  6  1  0
  6  7  1  0
  7  8  1  0
  8  9  1  0
  9 10  1  0
  2 11  1  0
 11 12  2  0
 12 13  1  0
 13 14  1  0
 14 15  1  0
 15 16  1  0
 16 17  1  0
 17 18  2  0
 18 19  1  0
 19 20  2  0
 20 21  1  0
 21 22  2  0
 22 23  1  0
 13 24  2  0
 24 25  1  0
 25 26  1  0
 26 27  1  0
 27 28  1  0
 28 29  1  0
 29 30  2  0
 30 31  1  0
 31 32  2  0
 32 33  1  0
 33 34  2  0
 34 35  1  0
 25 36  2  0
 10  5  1  0
 36 11  1  0
 23 14  1  0
 35 26  1  0
 22 17  1  0
 34 29  1  0
  3 37  1  0
  4 38  1  0
  4 39  1  0
  5 40  1  6
  6 41  1  0
  6 42  1  0
  7 43  1  0
  7 44  1  0
  8 45  1  0
  8 46  1  0
  9 47  1  0
 10 48  1  0
 10 49  1  0
 15 50  1  0
 15 51  1  0
 16 52  1  0
 16 53  1  0
 18 54  1  0
 19 55  1  0
 20 56  1  0
 21 57  1  0
 23 58  1  0
 23 59  1  0
 27 60  1  0
 27 61  1  0
 28 62  1  0
 28 63  1  0
 30 64  1  0
 31 65  1  0
 32 66  1  0
 33 67  1  0
 35 68  1  0
 35 69  1  0
M  END
>  <smiles>  (49) 
O=C(NCC1CCCNC1)c1nc(N2CCc3ccccc3C2)nc(N2CCc3ccccc3C2)n1

>  <score_type>  (49) 
oracle

>  <origin>  (49) 
autodockgpu

>  <m_score__min__energy>  (49) 
-10.33

>  <m_primary>  (49) 
energy

>  <rmsd>  (49) 
9.375440676676867

>  <m_score__min__rmsd>  (49) 
9.375440676676867

>  <meeko>  (49) 
{"free_energy": -8.71, "intermolecular_energy": -10.21, "internal_energy": -1.92, "cluster_size": 3, "cluster_id": 5, "rank_in_cluster": 3}

>  <energy>  (49) 
-8.37

>  <cluster_rmsd>  (49) 
0.0

>  <cluster>  (49) 
8

$$$$

     RDKit          3D

 69 74  0  0  0  0  0  0  0  0999 V2000
  143.5240   74.7770  218.3330 O   0  0  0  0  0  0  0  0  0  0  0  0
  142.5930   73.9810  218.6500 C   0  0  0  0  0  0  0  0  0  0  0  0
  142.4530   72.8270  217.8200 N   0  0  0  0  0  0  0  0  0  0  0  0
  143.3830   72.7000  216.7190 C   0  0  0  0  0  0  0  0  0  0  0  0
  144.4710   71.6910  217.0170 C   0  0  2  0  0  0  0  0  0  0  0  0
  144.1050   70.9840  218.2900 C   0  0  0  0  0  0  0  0  0  0  0  0
  145.1480   71.2310  219.3700 C   0  0  0  0  0  0  0  0  0  0  0  0
  145.4030   72.7120  219.4240 C   0  0  0  0  0  0  0  0  0  0  0  0
  145.9420   73.2290  218.2000 N   0  0  0  0  0  0  0  0  0  0  0  0
  145.8300   72.3180  217.0960 C   0  0  0  0  0  0  0  0  0  0  0  0
  141.7280   74.2290  219.7830 C   0  0  0  0  0  0  0  0  0  0  0  0
  141.2770   73.2230  220.5590 N   0  0  0  0  0  0  0  0  0  0  0  0
  140.4670   73.5160  221.6110 C   0  0  0  0  0  0  0  0  0  0  0  0
  139.9540   72.5000  222.4720 N   0  0  0  0  0  0  0  0  0  0  0  0
  138.5250   72.1770  222.5180 C   0  0  0  0  0  0  0  0  0  0  0  0
  138.4800   70.6450  222.5750 C   0  0  0  0  0  0  0  0  0  0  0  0
  138.9810   70.3450  223.9660 C   0  0  0  0  0  0  0  0  0  0  0  0
  138.2710   69.5370  224.8280 C   0  0  0  0  0  0  0  0  0  0  0  0
  138.7670   69.2830  226.1030 C   0  0  0  0  0  0  0  0  0  0  0  0
  139.9760   69.8660  226.4530 C   0  0  0  0  0  0  0  0  0  0  0  0
  140.6790   70.6800  225.5630 C   0  0  0  0  0  0  0  0  0  0  0  0
  140.1860   70.9310  224.2990 C   0  0  0  0  0  0  0  0  0  0  0  0
  140.8880   71.7900  223.3080 C   0  0  0  0  0  0  0  0  0  0  0  0
  140.1230   74.7910  221.8720 N   0  0  0  0  0  0  0  0  0  0  0  0
  140.5750   75.7800  221.0970 C   0  0  0  0  0  0  0  0  0  0  0  0
  140.2050   77.1200  221.3830 N   0  0  0  0  0  0  0  0  0  0  0  0
  139.9170   78.0220  220.3030 C   0  0  0  0  0  0  0  0  0  0  0  0
  139.6620   79.4190  220.7710 C   0  0  0  0  0  0  0  0  0  0  0  0
  140.6500   79.7930  221.8140 C   0  0  0  0  0  0  0  0  0  0  0  0
  141.3320   80.9740  221.8440 C   0  0  0  0  0  0  0  0  0  0  0  0
  142.2340   81.2190  222.8670 C   0  0  0  0  0  0  0  0  0  0  0  0
  142.4630   80.2810  223.8730 C   0  0  0  0  0  0  0  0  0  0  0  0
  141.7710   79.0790  223.8460 C   0  0  0  0  0  0  0  0  0  0  0  0
  140.8810   78.8630  222.8180 C   0  0  0  0  0  0  0  0  0  0  0  0
  140.1120   77.5960  222.7340 C   0  0  0  0  0  0  0  0  0  0  0  0
  141.3750   75.4900  220.0590 N   0  0  0  0  0  0  0  0  0  0  0  0
  141.7020   72.1410  218.0360 H   0  0  0  0  0  0  0  0  0  0  0  0
  142.8326   72.3763  215.8233 H   0  0  0  0  0  0  0  0  0  0  0  0
  143.8586   73.6787  216.5580 H   0  0  0  0  0  0  0  0  0  0  0  0
  144.5367   70.9690  216.1897 H   0  0  0  0  0  0  0  0  0  0  0  0
  143.1302   71.3546  218.6398 H   0  0  0  0  0  0  0  0  0  0  0  0
  144.0571   69.9035  218.0895 H   0  0  0  0  0  0  0  0  0  0  0  0
  144.7722   70.8792  220.3421 H   0  0  0  0  0  0  0  0  0  0  0  0
  146.0765   70.6867  219.1428 H   0  0  0  0  0  0  0  0  0  0  0  0
  144.4526   73.2247  219.6335 H   0  0  0  0  0  0  0  0  0  0  0  0
  146.1467   72.8909  220.2145 H   0  0  0  0  0  0  0  0  0  0  0  0
  145.5690   74.1640  217.9320 H   0  0  0  0  0  0  0  0  0  0  0  0
  146.0219   72.8671  216.1624 H   0  0  0  0  0  0  0  0  0  0  0  0
  146.5656   71.5138  217.2450 H   0  0  0  0  0  0  0  0  0  0  0  0
  138.0562   72.6134  223.4123 H   0  0  0  0  0  0  0  0  0  0  0  0
  137.9767   72.5800  221.6537 H   0  0  0  0  0  0  0  0  0  0  0  0
  137.4540   70.2737  222.4352 H   0  0  0  0  0  0  0  0  0  0  0  0
  139.0752   70.1631  221.7854 H   0  0  0  0  0  0  0  0  0  0  0  0
  137.3157   69.0946  224.5091 H   0  0  0  0  0  0  0  0  0  0  0  0
  138.2191   68.6418  226.8092 H   0  0  0  0  0  0  0  0  0  0  0  0
  140.3905   69.6826  227.4553 H   0  0  0  0  0  0  0  0  0  0  0  0
  141.6357   71.1258  225.8726 H   0  0  0  0  0  0  0  0  0  0  0  0
  141.5129   72.5186  223.8452 H   0  0  0  0  0  0  0  0  0  0  0  0
  141.5052   71.1442  222.6661 H   0  0  0  0  0  0  0  0  0  0  0  0
  140.7751   78.0324  219.6148 H   0  0  0  0  0  0  0  0  0  0  0  0
  139.0023   77.6654  219.8069 H   0  0  0  0  0  0  0  0  0  0  0  0
  139.7512   80.1103  219.9200 H   0  0  0  0  0  0  0  0  0  0  0  0
  138.6488   79.4786  221.1952 H   0  0  0  0  0  0  0  0  0  0  0  0
  141.1668   81.7279  221.0602 H   0  0  0  0  0  0  0  0  0  0  0  0
  142.7807   82.1733  222.8859 H   0  0  0  0  0  0  0  0  0  0  0  0
  143.1830   80.4914  224.6776 H   0  0  0  0  0  0  0  0  0  0  0  0
  141.9291   78.3188  224.6251 H   0  0  0  0  0  0  0  0  0  0  0  0
  140.5379   76.8524  223.4237 H   0  0  0  0  0  0  0  0  0  0  0  0
  139.0612   77.7629  223.0130 H   0  0  0  0  0  0  0  0  0  0  0  0
  1  2  2  0
  2  3  1  0
  3  4  1  0
  4  5  1  0
  5  6  1  0
  6  7  1  0
  7  8  1  0
  8  9  1  0
  9 10  1  0
  2 11  1  0
 11 12  2  0
 12 13  1  0
 13 14  1  0
 14 15  1  0
 15 16  1  0
 16 17  1  0
 17 18  2  0
 18 19  1  0
 19 20  2  0
 20 21  1  0
 21 22  2  0
 22 23  1  0
 13 24  2  0
 24 25  1  0
 25 26  1  0
 26 27  1  0
 27 28  1  0
 28 29  1  0
 29 30  2  0
 30 31  1  0
 31 32  2  0
 32 33  1  0
 33 34  2  0
 34 35  1  0
 25 36  2  0
 10  5  1  0
 36 11  1  0
 23 14  1  0
 35 26  1  0
 22 17  1  0
 34 29  1  0
  3 37  1  0
  4 38  1  0
  4 39  1  0
  5 40  1  6
  6 41  1  0
  6 42  1  0
  7 43  1  0
  7 44  1  0
  8 45  1  0
  8 46  1  0
  9 47  1  0
 10 48  1  0
 10 49  1  0
 15 50  1  0
 15 51  1  0
 16 52  1  0
 16 53  1  0
 18 54  1  0
 19 55  1  0
 20 56  1  0
 21 57  1  0
 23 58  1  0
 23 59  1  0
 27 60  1  0
 27 61  1  0
 28 62  1  0
 28 63  1  0
 30 64  1  0
 31 65  1  0
 32 66  1  0
 33 67  1  0
 35 68  1  0
 35 69  1  0
M  END
>  <smiles>  (50) 
O=C(NCC1CCCNC1)c1nc(N2CCc3ccccc3C2)nc(N2CCc3ccccc3C2)n1

>  <score_type>  (50) 
oracle

>  <origin>  (50) 
autodockgpu

>  <m_score__min__energy>  (50) 
-10.33

>  <m_primary>  (50) 
energy

>  <rmsd>  (50) 
6.394249249661265

>  <m_score__min__rmsd>  (50) 
6.394249249661265

>  <meeko>  (50) 
{"free_energy": -8.72, "intermolecular_energy": -10.21, "internal_energy": -2.0, "cluster_size": 6, "cluster_id": 6, "rank_in_cluster": 3}

>  <energy>  (50) 
-8.03

>  <cluster_rmsd>  (50) 
0.0

>  <cluster>  (50) 
9

$$$$

     RDKit          3D

 69 74  0  0  0  0  0  0  0  0999 V2000
  139.5170   75.5180  220.2690 O   0  0  0  0  0  0  0  0  0  0  0  0
  140.4100   75.1310  221.0930 C   0  0  0  0  0  0  0  0  0  0  0  0
  141.1440   76.1640  221.7410 N   0  0  0  0  0  0  0  0  0  0  0  0
  140.8000   77.5280  221.3970 C   0  0  0  0  0  0  0  0  0  0  0  0
  141.0790   78.5070  222.5240 C   0  0  1  0  0  0  0  0  0  0  0  0
  142.2280   79.3630  222.0550 C   0  0  0  0  0  0  0  0  0  0  0  0
  142.1460   80.7960  222.4940 C   0  0  0  0  0  0  0  0  0  0  0  0
  141.4030   80.7810  223.8320 C   0  0  0  0  0  0  0  0  0  0  0  0
  140.0340   80.4960  223.5360 N   0  0  0  0  0  0  0  0  0  0  0  0
  139.8270   79.2970  222.7770 C   0  0  0  0  0  0  0  0  0  0  0  0
  140.6750   73.7340  221.3660 C   0  0  0  0  0  0  0  0  0  0  0  0
  140.3690   73.1520  222.5400 N   0  0  0  0  0  0  0  0  0  0  0  0
  140.6480   71.8420  222.7220 C   0  0  0  0  0  0  0  0  0  0  0  0
  140.3170   71.2340  223.9780 N   0  0  0  0  0  0  0  0  0  0  0  0
  139.2970   70.2290  223.9790 C   0  0  0  0  0  0  0  0  0  0  0  0
  139.7160   69.1400  224.9750 C   0  0  0  0  0  0  0  0  0  0  0  0
  139.7740   69.8270  226.3020 C   0  0  0  0  0  0  0  0  0  0  0  0
  139.2020   69.2510  227.4360 C   0  0  0  0  0  0  0  0  0  0  0  0
  139.3090   69.9650  228.6160 C   0  0  0  0  0  0  0  0  0  0  0  0
  139.9430   71.1860  228.7030 C   0  0  0  0  0  0  0  0  0  0  0  0
  140.5040   71.7330  227.5550 C   0  0  0  0  0  0  0  0  0  0  0  0
  140.4180   71.0460  226.3410 C   0  0  0  0  0  0  0  0  0  0  0  0
  141.0370   71.6820  225.1500 C   0  0  0  0  0  0  0  0  0  0  0  0
  141.2260   71.1470  221.7190 N   0  0  0  0  0  0  0  0  0  0  0  0
  141.5410   71.7060  220.5360 C   0  0  0  0  0  0  0  0  0  0  0  0
  142.1470   70.9070  219.5360 N   0  0  0  0  0  0  0  0  0  0  0  0
  141.4950   69.7090  219.1010 C   0  0  0  0  0  0  0  0  0  0  0  0
  142.2230   69.1040  217.9240 C   0  0  0  0  0  0  0  0  0  0  0  0
  143.6580   68.9560  218.2700 C   0  0  0  0  0  0  0  0  0  0  0  0
  144.3720   67.8050  218.0990 C   0  0  0  0  0  0  0  0  0  0  0  0
  145.7040   67.8150  218.4670 C   0  0  0  0  0  0  0  0  0  0  0  0
  146.3240   68.9330  218.9920 C   0  0  0  0  0  0  0  0  0  0  0  0
  145.6000   70.1000  219.1660 C   0  0  0  0  0  0  0  0  0  0  0  0
  144.2810   70.0860  218.8000 C   0  0  0  0  0  0  0  0  0  0  0  0
  143.4210   71.2900  218.9480 C   0  0  0  0  0  0  0  0  0  0  0  0
  141.2570   73.0110  220.3750 N   0  0  0  0  0  0  0  0  0  0  0  0
  141.8880   75.9430  222.4260 H   0  0  0  0  0  0  0  0  0  0  0  0
  141.3884   77.8277  220.5173 H   0  0  0  0  0  0  0  0  0  0  0  0
  139.7193   77.5560  221.1937 H   0  0  0  0  0  0  0  0  0  0  0  0
  141.3530   78.0248  223.4739 H   0  0  0  0  0  0  0  0  0  0  0  0
  143.1612   78.9342  222.4491 H   0  0  0  0  0  0  0  0  0  0  0  0
  142.1919   79.3663  220.9556 H   0  0  0  0  0  0  0  0  0  0  0  0
  143.1547   81.2160  222.6208 H   0  0  0  0  0  0  0  0  0  0  0  0
  141.6270   81.4181  221.7499 H   0  0  0  0  0  0  0  0  0  0  0  0
  141.8193   80.0028  224.4885 H   0  0  0  0  0  0  0  0  0  0  0  0
  141.5039   81.7448  224.3525 H   0  0  0  0  0  0  0  0  0  0  0  0
  139.3870   80.6270  224.3410 H   0  0  0  0  0  0  0  0  0  0  0  0
  139.1205   78.6578  223.3269 H   0  0  0  0  0  0  0  0  0  0  0  0
  139.4434   79.6066  221.7936 H   0  0  0  0  0  0  0  0  0  0  0  0
  138.3374   70.6695  224.2873 H   0  0  0  0  0  0  0  0  0  0  0  0
  139.1744   69.8035  222.9720 H   0  0  0  0  0  0  0  0  0  0  0  0
  138.9749   68.3273  224.9930 H   0  0  0  0  0  0  0  0  0  0  0  0
  140.6796   68.6832  224.7050 H   0  0  0  0  0  0  0  0  0  0  0  0
  138.6913   68.2776  227.3942 H   0  0  0  0  0  0  0  0  0  0  0  0
  138.8671   69.5381  229.5284 H   0  0  0  0  0  0  0  0  0  0  0  0
  140.0038   71.7179  229.6639 H   0  0  0  0  0  0  0  0  0  0  0  0
  141.0153   72.7058  227.6019 H   0  0  0  0  0  0  0  0  0  0  0  0
  140.9690   72.7767  225.2339 H   0  0  0  0  0  0  0  0  0  0  0  0
  142.0983   71.4023  225.0761 H   0  0  0  0  0  0  0  0  0  0  0  0
  141.4809   68.9844  219.9285 H   0  0  0  0  0  0  0  0  0  0  0  0
  140.4682   69.9561  218.7935 H   0  0  0  0  0  0  0  0  0  0  0  0
  141.7953   68.1172  217.6930 H   0  0  0  0  0  0  0  0  0  0  0  0
  142.1173   69.7570  217.0451 H   0  0  0  0  0  0  0  0  0  0  0  0
  143.9033   66.9011  217.6828 H   0  0  0  0  0  0  0  0  0  0  0  0
  146.2945   66.8961  218.3368 H   0  0  0  0  0  0  0  0  0  0  0  0
  147.3876   68.8957  219.2703 H   0  0  0  0  0  0  0  0  0  0  0  0
  146.0670   71.0046  219.5827 H   0  0  0  0  0  0  0  0  0  0  0  0
  143.9215   72.0200  219.6011 H   0  0  0  0  0  0  0  0  0  0  0  0
  143.2478   71.7404  217.9595 H   0  0  0  0  0  0  0  0  0  0  0  0
  1  2  2  0
  2  3  1  0
  3  4  1  0
  4  5  1  0
  5  6  1  0
  6  7  1  0
  7  8  1  0
  8  9  1  0
  9 10  1  0
  2 11  1  0
 11 12  2  0
 12 13  1  0
 13 14  1  0
 14 15  1  0
 15 16  1  0
 16 17  1  0
 17 18  2  0
 18 19  1  0
 19 20  2  0
 20 21  1  0
 21 22  2  0
 22 23  1  0
 13 24  2  0
 24 25  1  0
 25 26  1  0
 26 27  1  0
 27 28  1  0
 28 29  1  0
 29 30  2  0
 30 31  1  0
 31 32  2  0
 32 33  1  0
 33 34  2  0
 34 35  1  0
 25 36  2  0
 10  5  1  0
 36 11  1  0
 23 14  1  0
 35 26  1  0
 22 17  1  0
 34 29  1  0
  3 37  1  0
  4 38  1  0
  4 39  1  0
  5 40  1  1
  6 41  1  0
  6 42  1  0
  7 43  1  0
  7 44  1  0
  8 45  1  0
  8 46  1  0
  9 47  1  0
 10 48  1  0
 10 49  1  0
 15 50  1  0
 15 51  1  0
 16 52  1  0
 16 53  1  0
 18 54  1  0
 19 55  1  0
 20 56  1  0
 21 57  1  0
 23 58  1  0
 23 59  1  0
 27 60  1  0
 27 61  1  0
 28 62  1  0
 28 63  1  0
 30 64  1  0
 31 65  1  0
 32 66  1  0
 33 67  1  0
 35 68  1  0
 35 69  1  0
M  END
>  <smiles>  (51) 
O=C(NCC1CCCNC1)c1nc(N2CCc3ccccc3C2)nc(N2CCc3ccccc3C2)n1

>  <score_type>  (51) 
oracle

>  <origin>  (51) 
autodockgpu

>  <m_score__min__energy>  (51) 
-10.369999999999999

>  <m_primary>  (51) 
energy

>  <rmsd>  (51) 
4.036458155651288

>  <m_score__min__rmsd>  (51) 
4.036458155651288

>  <meeko>  (51) 
{"free_energy": -9.58, "intermolecular_energy": -11.07, "internal_energy": -0.91, "cluster_size": 7, "cluster_id": 3, "rank_in_cluster": 1}

>  <energy>  (51) 
-10.37

>  <cluster_rmsd>  (51) 
0.0

>  <cluster>  (51) 
1

$$$$

     RDKit          3D

 69 74  0  0  0  0  0  0  0  0999 V2000
  139.9470   72.2540  224.3890 O   0  0  0  0  0  0  0  0  0  0  0  0
  140.2790   71.7550  223.2640 C   0  0  0  0  0  0  0  0  0  0  0  0
  139.8950   70.4000  223.0500 N   0  0  0  0  0  0  0  0  0  0  0  0
  139.1770   69.7460  224.1240 C   0  0  0  0  0  0  0  0  0  0  0  0
  140.1010   69.1500  225.1720 C   0  0  1  0  0  0  0  0  0  0  0  0
  140.2130   70.1850  226.2630 C   0  0  0  0  0  0  0  0  0  0  0  0
  140.3030   69.6110  227.6470 C   0  0  0  0  0  0  0  0  0  0  0  0
  140.9950   68.2550  227.4940 C   0  0  0  0  0  0  0  0  0  0  0  0
  140.0440   67.3790  226.8840 N   0  0  0  0  0  0  0  0  0  0  0  0
  139.4960   67.8600  225.6490 C   0  0  0  0  0  0  0  0  0  0  0  0
  141.0000   72.5000  222.2540 C   0  0  0  0  0  0  0  0  0  0  0  0
  141.8690   71.9210  221.4050 N   0  0  0  0  0  0  0  0  0  0  0  0
  142.5060   72.6840  220.4880 C   0  0  0  0  0  0  0  0  0  0  0  0
  143.4280   72.0550  219.5880 N   0  0  0  0  0  0  0  0  0  0  0  0
  143.5380   72.5960  218.2670 C   0  0  0  0  0  0  0  0  0  0  0  0
  145.0150   72.5270  217.8570 C   0  0  0  0  0  0  0  0  0  0  0  0
  145.3520   71.0710  217.8550 C   0  0  0  0  0  0  0  0  0  0  0  0
  146.0590   70.4980  216.7970 C   0  0  0  0  0  0  0  0  0  0  0  0
  146.3210   69.1430  216.8900 C   0  0  0  0  0  0  0  0  0  0  0  0
  145.9210   68.3680  217.9570 C   0  0  0  0  0  0  0  0  0  0  0  0
  145.2190   68.9690  218.9950 C   0  0  0  0  0  0  0  0  0  0  0  0
  144.9310   70.3360  218.9430 C   0  0  0  0  0  0  0  0  0  0  0  0
  144.1780   70.9200  220.0820 C   0  0  0  0  0  0  0  0  0  0  0  0
  142.2550   74.0100  220.4460 N   0  0  0  0  0  0  0  0  0  0  0  0
  141.3920   74.6120  221.2850 C   0  0  0  0  0  0  0  0  0  0  0  0
  141.1860   76.0090  221.1750 N   0  0  0  0  0  0  0  0  0  0  0  0
  141.6320   76.6970  220.0030 C   0  0  0  0  0  0  0  0  0  0  0  0
  141.1690   78.1350  220.0190 C   0  0  0  0  0  0  0  0  0  0  0  0
  141.5650   78.7530  221.3070 C   0  0  0  0  0  0  0  0  0  0  0  0
  142.2160   79.9480  221.4150 C   0  0  0  0  0  0  0  0  0  0  0  0
  142.5220   80.4010  222.6840 C   0  0  0  0  0  0  0  0  0  0  0  0
  142.1950   79.6960  223.8260 C   0  0  0  0  0  0  0  0  0  0  0  0
  141.5350   78.4840  223.7170 C   0  0  0  0  0  0  0  0  0  0  0  0
  141.2340   78.0390  222.4590 C   0  0  0  0  0  0  0  0  0  0  0  0
  140.5260   76.7500  222.2390 C   0  0  0  0  0  0  0  0  0  0  0  0
  140.7680   73.8370  222.1910 N   0  0  0  0  0  0  0  0  0  0  0  0
  140.1220   69.9130  222.1670 H   0  0  0  0  0  0  0  0  0  0  0  0
  138.5235   70.4848  224.6109 H   0  0  0  0  0  0  0  0  0  0  0  0
  138.6005   68.9199  223.6822 H   0  0  0  0  0  0  0  0  0  0  0  0
  141.1070   68.9135  224.7950 H   0  0  0  0  0  0  0  0  0  0  0  0
  141.1166   70.7846  226.0785 H   0  0  0  0  0  0  0  0  0  0  0  0
  139.2907   70.7834  226.2277 H   0  0  0  0  0  0  0  0  0  0  0  0
  140.8951   70.2715  228.2975 H   0  0  0  0  0  0  0  0  0  0  0  0
  139.3091   69.5078  228.1070 H   0  0  0  0  0  0  0  0  0  0  0  0
  141.8853   68.3529  226.8555 H   0  0  0  0  0  0  0  0  0  0  0  0
  141.3258   67.8657  228.4682 H   0  0  0  0  0  0  0  0  0  0  0  0
  140.3280   66.3770  226.8800 H   0  0  0  0  0  0  0  0  0  0  0  0
  139.6606   67.0945  224.8764 H   0  0  0  0  0  0  0  0  0  0  0  0
  138.4291   68.0573  225.8302 H   0  0  0  0  0  0  0  0  0  0  0  0
  142.9271   72.0057  217.5682 H   0  0  0  0  0  0  0  0  0  0  0  0
  143.1799   73.6359  218.2451 H   0  0  0  0  0  0  0  0  0  0  0  0
  145.1579   72.9577  216.8549 H   0  0  0  0  0  0  0  0  0  0  0  0
  145.6594   73.0978  218.5417 H   0  0  0  0  0  0  0  0  0  0  0  0
  146.3909   71.0933  215.9335 H   0  0  0  0  0  0  0  0  0  0  0  0
  146.8759   68.6603  216.0720 H   0  0  0  0  0  0  0  0  0  0  0  0
  146.1532   67.2932  217.9866 H   0  0  0  0  0  0  0  0  0  0  0  0
  144.8902   68.3696  219.8567 H   0  0  0  0  0  0  0  0  0  0  0  0
  143.4892   70.1699  220.4978 H   0  0  0  0  0  0  0  0  0  0  0  0
  144.8707   71.2362  220.8758 H   0  0  0  0  0  0  0  0  0  0  0  0
  142.7311   76.6720  219.9659 H   0  0  0  0  0  0  0  0  0  0  0  0
  141.2087   76.1991  219.1182 H   0  0  0  0  0  0  0  0  0  0  0  0
  141.6366   78.6827  219.1875 H   0  0  0  0  0  0  0  0  0  0  0  0
  140.0755   78.1756  219.9069 H   0  0  0  0  0  0  0  0  0  0  0  0
  142.4877   80.5304  220.5223 H   0  0  0  0  0  0  0  0  0  0  0  0
  143.0472   81.3618  222.7891 H   0  0  0  0  0  0  0  0  0  0  0  0
  142.4576   80.0955  224.8167 H   0  0  0  0  0  0  0  0  0  0  0  0
  141.2627   77.9005  224.6088 H   0  0  0  0  0  0  0  0  0  0  0  0
  140.5467   76.1576  223.1656 H   0  0  0  0  0  0  0  0  0  0  0  0
  139.4824   76.9491  221.9540 H   0  0  0  0  0  0  0  0  0  0  0  0
  1  2  2  0
  2  3  1  0
  3  4  1  0
  4  5  1  0
  5  6  1  0
  6  7  1  0
  7  8  1  0
  8  9  1  0
  9 10  1  0
  2 11  1  0
 11 12  2  0
 12 13  1  0
 13 14  1  0
 14 15  1  0
 15 16  1  0
 16 17  1  0
 17 18  2  0
 18 19  1  0
 19 20  2  0
 20 21  1  0
 21 22  2  0
 22 23  1  0
 13 24  2  0
 24 25  1  0
 25 26  1  0
 26 27  1  0
 27 28  1  0
 28 29  1  0
 29 30  2  0
 30 31  1  0
 31 32  2  0
 32 33  1  0
 33 34  2  0
 34 35  1  0
 25 36  2  0
 10  5  1  0
 36 11  1  0
 23 14  1  0
 35 26  1  0
 22 17  1  0
 34 29  1  0
  3 37  1  0
  4 38  1  0
  4 39  1  0
  5 40  1  6
  6 41  1  0
  6 42  1  0
  7 43  1  0
  7 44  1  0
  8 45  1  0
  8 46  1  0
  9 47  1  0
 10 48  1  0
 10 49  1  0
 15 50  1  0
 15 51  1  0
 16 52  1  0
 16 53  1  0
 18 54  1  0
 19 55  1  0
 20 56  1  0
 21 57  1  0
 23 58  1  0
 23 59  1  0
 27 60  1  0
 27 61  1  0
 28 62  1  0
 28 63  1  0
 30 64  1  0
 31 65  1  0
 32 66  1  0
 33 67  1  0
 35 68  1  0
 35 69  1  0
M  END
>  <smiles>  (52) 
O=C(NCC1CCCNC1)c1nc(N2CCc3ccccc3C2)nc(N2CCc3ccccc3C2)n1

>  <score_type>  (52) 
oracle

>  <origin>  (52) 
autodockgpu

>  <m_score__min__energy>  (52) 
-10.369999999999999

>  <m_primary>  (52) 
energy

>  <rmsd>  (52) 
9.250552644477565

>  <m_score__min__rmsd>  (52) 
9.250552644477565

>  <meeko>  (52) 
{"free_energy": -9.67, "intermolecular_energy": -11.16, "internal_energy": -1.05, "cluster_size": 35, "cluster_id": 1, "rank_in_cluster": 22}

>  <energy>  (52) 
-10.36

>  <cluster_rmsd>  (52) 
0.05

>  <cluster>  (52) 
1

$$$$

     RDKit          3D

 69 74  0  0  0  0  0  0  0  0999 V2000
  140.1710   72.2440  224.6260 O   0  0  0  0  0  0  0  0  0  0  0  0
  140.2850   71.8020  223.4360 C   0  0  0  0  0  0  0  0  0  0  0  0
  139.6760   70.5400  223.1820 N   0  0  0  0  0  0  0  0  0  0  0  0
  139.0010   69.9040  224.2940 C   0  0  0  0  0  0  0  0  0  0  0  0
  139.9590   69.2080  225.2450 C   0  0  1  0  0  0  0  0  0  0  0  0
  140.2360   70.1930  226.3510 C   0  0  0  0  0  0  0  0  0  0  0  0
  140.3950   69.5680  227.7060 C   0  0  0  0  0  0  0  0  0  0  0  0
  140.9700   68.1720  227.4570 C   0  0  0  0  0  0  0  0  0  0  0  0
  139.9100   67.3870  226.9040 N   0  0  0  0  0  0  0  0  0  0  0  0
  139.3010   67.9490  225.7330 C   0  0  0  0  0  0  0  0  0  0  0  0
  140.9850   72.5220  222.3930 C   0  0  0  0  0  0  0  0  0  0  0  0
  141.8370   71.9220  221.5410 N   0  0  0  0  0  0  0  0  0  0  0  0
  142.4550   72.6610  220.5930 C   0  0  0  0  0  0  0  0  0  0  0  0
  143.3600   72.0100  219.6910 N   0  0  0  0  0  0  0  0  0  0  0  0
  143.4940   72.5590  218.3760 C   0  0  0  0  0  0  0  0  0  0  0  0
  144.9700   72.4450  217.9710 C   0  0  0  0  0  0  0  0  0  0  0  0
  145.2590   70.9780  217.9580 C   0  0  0  0  0  0  0  0  0  0  0  0
  145.9510   70.3920  216.8980 C   0  0  0  0  0  0  0  0  0  0  0  0
  146.1680   69.0280  216.9800 C   0  0  0  0  0  0  0  0  0  0  0  0
  145.7380   68.2570  218.0380 C   0  0  0  0  0  0  0  0  0  0  0  0
  145.0510   68.8720  219.0780 C   0  0  0  0  0  0  0  0  0  0  0  0
  144.8090   70.2480  219.0370 C   0  0  0  0  0  0  0  0  0  0  0  0
  144.0690   70.8470  220.1780 C   0  0  0  0  0  0  0  0  0  0  0  0
  142.2010   73.9860  220.5210 N   0  0  0  0  0  0  0  0  0  0  0  0
  141.3540   74.6080  221.3610 C   0  0  0  0  0  0  0  0  0  0  0  0
  141.1440   76.0020  221.2200 N   0  0  0  0  0  0  0  0  0  0  0  0
  141.5860   76.6630  220.0310 C   0  0  0  0  0  0  0  0  0  0  0  0
  141.1180   78.1000  220.0140 C   0  0  0  0  0  0  0  0  0  0  0  0
  141.5150   78.7490  221.2870 C   0  0  0  0  0  0  0  0  0  0  0  0
  142.1640   79.9490  221.3650 C   0  0  0  0  0  0  0  0  0  0  0  0
  142.4710   80.4310  222.6230 C   0  0  0  0  0  0  0  0  0  0  0  0
  142.1480   79.7520  223.7820 C   0  0  0  0  0  0  0  0  0  0  0  0
  141.4910   78.5360  223.7030 C   0  0  0  0  0  0  0  0  0  0  0  0
  141.1890   78.0610  222.4550 C   0  0  0  0  0  0  0  0  0  0  0  0
  140.4840   76.7650  222.2680 C   0  0  0  0  0  0  0  0  0  0  0  0
  140.7490   73.8560  222.2990 N   0  0  0  0  0  0  0  0  0  0  0  0
  139.7180   70.1040  222.2460 H   0  0  0  0  0  0  0  0  0  0  0  0
  138.4462   70.6715  224.8536 H   0  0  0  0  0  0  0  0  0  0  0  0
  138.3310   69.1366  223.8791 H   0  0  0  0  0  0  0  0  0  0  0  0
  140.9111   68.9134  224.7794 H   0  0  0  0  0  0  0  0  0  0  0  0
  141.1638   70.7318  226.1086 H   0  0  0  0  0  0  0  0  0  0  0  0
  139.3606   70.8565  226.4098 H   0  0  0  0  0  0  0  0  0  0  0  0
  141.0852   70.1620  228.3231 H   0  0  0  0  0  0  0  0  0  0  0  0
  139.4371   69.5209  228.2448 H   0  0  0  0  0  0  0  0  0  0  0  0
  141.8101   68.2281  226.7491 H   0  0  0  0  0  0  0  0  0  0  0  0
  141.3493   67.7269  228.3887 H   0  0  0  0  0  0  0  0  0  0  0  0
  140.1170   66.3680  226.8480 H   0  0  0  0  0  0  0  0  0  0  0  0
  139.3455   67.2012  224.9275 H   0  0  0  0  0  0  0  0  0  0  0  0
  138.2698   68.2155  226.0080 H   0  0  0  0  0  0  0  0  0  0  0  0
  142.8670   71.9958  217.6692 H   0  0  0  0  0  0  0  0  0  0  0  0
  143.1709   73.6104  218.3627 H   0  0  0  0  0  0  0  0  0  0  0  0
  145.1311   72.8791  216.9732 H   0  0  0  0  0  0  0  0  0  0  0  0
  145.6301   72.9887  218.6629 H   0  0  0  0  0  0  0  0  0  0  0  0
  146.3058   70.9837  216.0413 H   0  0  0  0  0  0  0  0  0  0  0  0
  146.7106   68.5347  216.1601 H   0  0  0  0  0  0  0  0  0  0  0  0
  145.9348   67.1750  218.0591 H   0  0  0  0  0  0  0  0  0  0  0  0
  144.6980   68.2763  219.9327 H   0  0  0  0  0  0  0  0  0  0  0  0
  143.3535   70.1165  220.5834 H   0  0  0  0  0  0  0  0  0  0  0  0
  144.7676   71.1331  220.9780 H   0  0  0  0  0  0  0  0  0  0  0  0
  142.6851   76.6406  219.9926 H   0  0  0  0  0  0  0  0  0  0  0  0
  141.1633   76.1428  219.1589 H   0  0  0  0  0  0  0  0  0  0  0  0
  141.5821   78.6296  219.1690 H   0  0  0  0  0  0  0  0  0  0  0  0
  140.0242   78.1347  219.9030 H   0  0  0  0  0  0  0  0  0  0  0  0
  142.4325   80.5113  220.4585 H   0  0  0  0  0  0  0  0  0  0  0  0
  142.9942   81.3951  222.7051 H   0  0  0  0  0  0  0  0  0  0  0  0
  142.4115   80.1754  224.7625 H   0  0  0  0  0  0  0  0  0  0  0  0
  141.2218   77.9728  224.6087 H   0  0  0  0  0  0  0  0  0  0  0  0
  140.5091   76.1947  223.2083 H   0  0  0  0  0  0  0  0  0  0  0  0
  139.4387   76.9536  221.9820 H   0  0  0  0  0  0  0  0  0  0  0  0
  1  2  2  0
  2  3  1  0
  3  4  1  0
  4  5  1  0
  5  6  1  0
  6  7  1  0
  7  8  1  0
  8  9  1  0
  9 10  1  0
  2 11  1  0
 11 12  2  0
 12 13  1  0
 13 14  1  0
 14 15  1  0
 15 16  1  0
 16 17  1  0
 17 18  2  0
 18 19  1  0
 19 20  2  0
 20 21  1  0
 21 22  2  0
 22 23  1  0
 13 24  2  0
 24 25  1  0
 25 26  1  0
 26 27  1  0
 27 28  1  0
 28 29  1  0
 29 30  2  0
 30 31  1  0
 31 32  2  0
 32 33  1  0
 33 34  2  0
 34 35  1  0
 25 36  2  0
 10  5  1  0
 36 11  1  0
 23 14  1  0
 35 26  1  0
 22 17  1  0
 34 29  1  0
  3 37  1  0
  4 38  1  0
  4 39  1  0
  5 40  1  6
  6 41  1  0
  6 42  1  0
  7 43  1  0
  7 44  1  0
  8 45  1  0
  8 46  1  0
  9 47  1  0
 10 48  1  0
 10 49  1  0
 15 50  1  0
 15 51  1  0
 16 52  1  0
 16 53  1  0
 18 54  1  0
 19 55  1  0
 20 56  1  0
 21 57  1  0
 23 58  1  0
 23 59  1  0
 27 60  1  0
 27 61  1  0
 28 62  1  0
 28 63  1  0
 30 64  1  0
 31 65  1  0
 32 66  1  0
 33 67  1  0
 35 68  1  0
 35 69  1  0
M  END
>  <smiles>  (53) 
O=C(NCC1CCCNC1)c1nc(N2CCc3ccccc3C2)nc(N2CCc3ccccc3C2)n1

>  <score_type>  (53) 
oracle

>  <origin>  (53) 
autodockgpu

>  <m_score__min__energy>  (53) 
-10.369999999999999

>  <m_primary>  (53) 
energy

>  <rmsd>  (53) 
9.272552845709587

>  <m_score__min__rmsd>  (53) 
9.272552845709587

>  <meeko>  (53) 
{"free_energy": -9.8, "intermolecular_energy": -11.29, "internal_energy": -0.92, "cluster_size": 35, "cluster_id": 1, "rank_in_cluster": 17}

>  <energy>  (53) 
-10.35

>  <cluster_rmsd>  (53) 
0.17

>  <cluster>  (53) 
1

$$$$

     RDKit          3D

 69 74  0  0  0  0  0  0  0  0999 V2000
  138.9700   71.1860  222.5090 O   0  0  0  0  0  0  0  0  0  0  0  0
  139.9680   71.8790  222.8930 C   0  0  0  0  0  0  0  0  0  0  0  0
  140.2820   71.7980  224.2800 N   0  0  0  0  0  0  0  0  0  0  0  0
  139.4390   70.9460  225.0930 C   0  0  0  0  0  0  0  0  0  0  0  0
  140.2320   69.9360  225.9040 C   0  0  1  0  0  0  0  0  0  0  0  0
  140.8170   70.7010  227.0630 C   0  0  0  0  0  0  0  0  0  0  0  0
  140.8800   69.9220  228.3450 C   0  0  0  0  0  0  0  0  0  0  0  0
  141.0540   68.4580  227.9360 C   0  0  0  0  0  0  0  0  0  0  0  0
  139.7970   68.0310  227.4050 N   0  0  0  0  0  0  0  0  0  0  0  0
  139.2940   68.8450  226.3360 C   0  0  0  0  0  0  0  0  0  0  0  0
  140.7480   72.7020  221.9930 C   0  0  0  0  0  0  0  0  0  0  0  0
  141.6630   72.1910  221.1490 N   0  0  0  0  0  0  0  0  0  0  0  0
  142.3530   73.0230  220.3380 C   0  0  0  0  0  0  0  0  0  0  0  0
  143.3250   72.4650  219.4430 N   0  0  0  0  0  0  0  0  0  0  0  0
  143.3000   72.9040  218.0800 C   0  0  0  0  0  0  0  0  0  0  0  0
  144.7520   73.0220  217.6010 C   0  0  0  0  0  0  0  0  0  0  0  0
  145.3070   71.6370  217.6940 C   0  0  0  0  0  0  0  0  0  0  0  0
  146.0520   71.0890  216.6490 C   0  0  0  0  0  0  0  0  0  0  0  0
  146.5220   69.8010  216.8320 C   0  0  0  0  0  0  0  0  0  0  0  0
  146.2870   69.0670  217.9750 C   0  0  0  0  0  0  0  0  0  0  0  0
  145.5420   69.6420  218.9970 C   0  0  0  0  0  0  0  0  0  0  0  0
  145.0470   70.9410  218.8550 C   0  0  0  0  0  0  0  0  0  0  0  0
  144.2580   71.5000  219.9840 C   0  0  0  0  0  0  0  0  0  0  0  0
  142.1070   74.3490  220.3930 N   0  0  0  0  0  0  0  0  0  0  0  0
  141.1980   74.8840  221.2280 C   0  0  0  0  0  0  0  0  0  0  0  0
  141.0010   76.2870  221.2250 N   0  0  0  0  0  0  0  0  0  0  0  0
  141.2750   77.0340  220.0350 C   0  0  0  0  0  0  0  0  0  0  0  0
  140.8430   78.4730  220.1970 C   0  0  0  0  0  0  0  0  0  0  0  0
  141.4420   79.0170  221.4390 C   0  0  0  0  0  0  0  0  0  0  0  0
  142.1220   80.1990  221.5070 C   0  0  0  0  0  0  0  0  0  0  0  0
  142.6270   80.5800  222.7360 C   0  0  0  0  0  0  0  0  0  0  0  0
  142.4660   79.8160  223.8770 C   0  0  0  0  0  0  0  0  0  0  0  0
  141.7770   78.6180  223.8080 C   0  0  0  0  0  0  0  0  0  0  0  0
  141.2790   78.2440  222.5890 C   0  0  0  0  0  0  0  0  0  0  0  0
  140.5250   76.9750  222.4140 C   0  0  0  0  0  0  0  0  0  0  0  0
  140.5220   74.0410  222.0280 N   0  0  0  0  0  0  0  0  0  0  0  0
  141.0750   72.3260  224.6810 H   0  0  0  0  0  0  0  0  0  0  0  0
  138.8633   71.5783  225.7849 H   0  0  0  0  0  0  0  0  0  0  0  0
  138.7826   70.3831  224.4131 H   0  0  0  0  0  0  0  0  0  0  0  0
  141.0470   69.4562  225.3422 H   0  0  0  0  0  0  0  0  0  0  0  0
  141.8390   71.0064  226.7942 H   0  0  0  0  0  0  0  0  0  0  0  0
  140.1508   71.5570  227.2455 H   0  0  0  0  0  0  0  0  0  0  0  0
  141.7345   70.2538  228.9531 H   0  0  0  0  0  0  0  0  0  0  0  0
  139.9741   70.0676  228.9518 H   0  0  0  0  0  0  0  0  0  0  0  0
  141.8395   68.3682  227.1712 H   0  0  0  0  0  0  0  0  0  0  0  0
  141.3534   67.8388  228.7944 H   0  0  0  0  0  0  0  0  0  0  0  0
  139.7270   67.0030  227.2480 H   0  0  0  0  0  0  0  0  0  0  0  0
  139.0970   68.1956  225.4703 H   0  0  0  0  0  0  0  0  0  0  0  0
  138.3853   69.3377  226.7122 H   0  0  0  0  0  0  0  0  0  0  0  0
  142.7596   72.1728  217.4608 H   0  0  0  0  0  0  0  0  0  0  0  0
  142.7872   73.8736  217.9971 H   0  0  0  0  0  0  0  0  0  0  0  0
  144.7879   73.3834  216.5627 H   0  0  0  0  0  0  0  0  0  0  0  0
  145.3282   73.7382  218.2052 H   0  0  0  0  0  0  0  0  0  0  0  0
  146.2552   71.6527  215.7265 H   0  0  0  0  0  0  0  0  0  0  0  0
  147.1120   69.3399  216.0262 H   0  0  0  0  0  0  0  0  0  0  0  0
  146.6819   68.0453  218.0760 H   0  0  0  0  0  0  0  0  0  0  0  0
  145.3418   69.0747  219.9179 H   0  0  0  0  0  0  0  0  0  0  0  0
  143.7085   70.6931  220.4910 H   0  0  0  0  0  0  0  0  0  0  0  0
  144.9247   71.9812  220.7148 H   0  0  0  0  0  0  0  0  0  0  0  0
  142.3551   77.0021  219.8292 H   0  0  0  0  0  0  0  0  0  0  0  0
  140.7144   76.5880  219.2003 H   0  0  0  0  0  0  0  0  0  0  0  0
  141.1863   79.0611  219.3331 H   0  0  0  0  0  0  0  0  0  0  0  0
  139.7460   78.5284  220.2569 H   0  0  0  0  0  0  0  0  0  0  0  0
  142.2631   80.8264  220.6146 H   0  0  0  0  0  0  0  0  0  0  0  0
  143.1789   81.5287  222.8091 H   0  0  0  0  0  0  0  0  0  0  0  0
  142.8837   80.1589  224.8351 H   0  0  0  0  0  0  0  0  0  0  0  0
  141.6347   77.9896  224.6995 H   0  0  0  0  0  0  0  0  0  0  0  0
  140.6779   76.3335  223.2944 H   0  0  0  0  0  0  0  0  0  0  0  0
  139.4535   77.1980  222.3036 H   0  0  0  0  0  0  0  0  0  0  0  0
  1  2  2  0
  2  3  1  0
  3  4  1  0
  4  5  1  0
  5  6  1  0
  6  7  1  0
  7  8  1  0
  8  9  1  0
  9 10  1  0
  2 11  1  0
 11 12  2  0
 12 13  1  0
 13 14  1  0
 14 15  1  0
 15 16  1  0
 16 17  1  0
 17 18  2  0
 18 19  1  0
 19 20  2  0
 20 21  1  0
 21 22  2  0
 22 23  1  0
 13 24  2  0
 24 25  1  0
 25 26  1  0
 26 27  1  0
 27 28  1  0
 28 29  1  0
 29 30  2  0
 30 31  1  0
 31 32  2  0
 32 33  1  0
 33 34  2  0
 34 35  1  0
 25 36  2  0
 10  5  1  0
 36 11  1  0
 23 14  1  0
 35 26  1  0
 22 17  1  0
 34 29  1  0
  3 37  1  0
  4 38  1  0
  4 39  1  0
  5 40  1  6
  6 41  1  0
  6 42  1  0
  7 43  1  0
  7 44  1  0
  8 45  1  0
  8 46  1  0
  9 47  1  0
 10 48  1  0
 10 49  1  0
 15 50  1  0
 15 51  1  0
 16 52  1  0
 16 53  1  0
 18 54  1  0
 19 55  1  0
 20 56  1  0
 21 57  1  0
 23 58  1  0
 23 59  1  0
 27 60  1  0
 27 61  1  0
 28 62  1  0
 28 63  1  0
 30 64  1  0
 31 65  1  0
 32 66  1  0
 33 67  1  0
 35 68  1  0
 35 69  1  0
M  END
>  <smiles>  (54) 
O=C(NCC1CCCNC1)c1nc(N2CCc3ccccc3C2)nc(N2CCc3ccccc3C2)n1

>  <score_type>  (54) 
oracle

>  <origin>  (54) 
autodockgpu

>  <m_score__min__energy>  (54) 
-10.369999999999999

>  <m_primary>  (54) 
energy

>  <rmsd>  (54) 
9.222062576903637

>  <m_score__min__rmsd>  (54) 
9.222062576903637

>  <meeko>  (54) 
{"free_energy": -10.12, "intermolecular_energy": -11.61, "internal_energy": -0.94, "cluster_size": 35, "cluster_id": 1, "rank_in_cluster": 13}

>  <energy>  (54) 
-10.35

>  <cluster_rmsd>  (54) 
0.14

>  <cluster>  (54) 
1

$$$$

     RDKit          3D

 69 74  0  0  0  0  0  0  0  0999 V2000
  141.3170   75.8780  220.5080 O   0  0  0  0  0  0  0  0  0  0  0  0
  140.6790   75.2190  221.3930 C   0  0  0  0  0  0  0  0  0  0  0  0
  139.7990   75.9780  222.2160 N   0  0  0  0  0  0  0  0  0  0  0  0
  139.7260   77.4010  221.9590 C   0  0  0  0  0  0  0  0  0  0  0  0
  140.9300   78.1580  222.4930 C   0  0  1  0  0  0  0  0  0  0  0  0
  141.5890   78.7900  221.2940 C   0  0  0  0  0  0  0  0  0  0  0  0
  142.1780   80.1450  221.5590 C   0  0  0  0  0  0  0  0  0  0  0  0
  142.5980   80.1370  223.0300 C   0  0  0  0  0  0  0  0  0  0  0  0
  141.3950   80.1950  223.7990 N   0  0  0  0  0  0  0  0  0  0  0  0
  140.4420   79.1670  223.4930 C   0  0  0  0  0  0  0  0  0  0  0  0
  140.8260   73.7890  221.5670 C   0  0  0  0  0  0  0  0  0  0  0  0
  140.5010   73.1590  222.7100 N   0  0  0  0  0  0  0  0  0  0  0  0
  140.6670   71.8200  222.7980 C   0  0  0  0  0  0  0  0  0  0  0  0
  140.3170   71.1600  224.0220 N   0  0  0  0  0  0  0  0  0  0  0  0
  139.3550   70.1020  223.9520 C   0  0  0  0  0  0  0  0  0  0  0  0
  139.7910   69.0100  224.9380 C   0  0  0  0  0  0  0  0  0  0  0  0
  139.7550   69.6620  226.2830 C   0  0  0  0  0  0  0  0  0  0  0  0
  139.1670   69.0240  227.3760 C   0  0  0  0  0  0  0  0  0  0  0  0
  139.1850   69.7100  228.5770 C   0  0  0  0  0  0  0  0  0  0  0  0
  139.7460   70.9600  228.7230 C   0  0  0  0  0  0  0  0  0  0  0  0
  140.3240   71.5680  227.6150 C   0  0  0  0  0  0  0  0  0  0  0  0
  140.3280   70.9120  226.3820 C   0  0  0  0  0  0  0  0  0  0  0  0
  140.9610   71.6140  225.2350 C   0  0  0  0  0  0  0  0  0  0  0  0
  141.1530   71.1460  221.7340 N   0  0  0  0  0  0  0  0  0  0  0  0
  141.4840   71.7540  220.5800 C   0  0  0  0  0  0  0  0  0  0  0  0
  141.9890   70.9740  219.5110 N   0  0  0  0  0  0  0  0  0  0  0  0
  141.0920   70.1620  218.7470 C   0  0  0  0  0  0  0  0  0  0  0  0
  141.8040   69.5490  217.5630 C   0  0  0  0  0  0  0  0  0  0  0  0
  143.0300   68.8640  218.0420 C   0  0  0  0  0  0  0  0  0  0  0  0
  143.3700   67.5830  217.7110 C   0  0  0  0  0  0  0  0  0  0  0  0
  144.5440   67.0760  218.2340 C   0  0  0  0  0  0  0  0  0  0  0  0
  145.3700   67.8110  219.0630 C   0  0  0  0  0  0  0  0  0  0  0  0
  145.0250   69.1080  219.3980 C   0  0  0  0  0  0  0  0  0  0  0  0
  143.8610   69.6070  218.8800 C   0  0  0  0  0  0  0  0  0  0  0  0
  143.4060   70.9900  219.1820 C   0  0  0  0  0  0  0  0  0  0  0  0
  141.3140   73.0870  220.5120 N   0  0  0  0  0  0  0  0  0  0  0  0
  139.2400   75.5270  222.9600 H   0  0  0  0  0  0  0  0  0  0  0  0
  139.6651   77.5592  220.8721 H   0  0  0  0  0  0  0  0  0  0  0  0
  138.8358   77.7861  222.4779 H   0  0  0  0  0  0  0  0  0  0  0  0
  141.6616   77.5203  223.0108 H   0  0  0  0  0  0  0  0  0  0  0  0
  142.3952   78.1241  220.9524 H   0  0  0  0  0  0  0  0  0  0  0  0
  140.8025   78.9294  220.5377 H   0  0  0  0  0  0  0  0  0  0  0  0
  143.0512   80.3161  220.9123 H   0  0  0  0  0  0  0  0  0  0  0  0
  141.4564   80.9481  221.3486 H   0  0  0  0  0  0  0  0  0  0  0  0
  143.1522   79.2154  223.2614 H   0  0  0  0  0  0  0  0  0  0  0  0
  143.2563   80.9880  223.2590 H   0  0  0  0  0  0  0  0  0  0  0  0
  141.5450   80.3700  224.8150 H   0  0  0  0  0  0  0  0  0  0  0  0
  140.1932   78.6379  224.4247 H   0  0  0  0  0  0  0  0  0  0  0  0
  139.5709   79.6652  223.0425 H   0  0  0  0  0  0  0  0  0  0  0  0
  138.3601   70.4812  224.2286 H   0  0  0  0  0  0  0  0  0  0  0  0
  139.2990   69.6988  222.9301 H   0  0  0  0  0  0  0  0  0  0  0  0
  139.0957   68.1583  224.9031 H   0  0  0  0  0  0  0  0  0  0  0  0
  140.7889   68.6137  224.6989 H   0  0  0  0  0  0  0  0  0  0  0  0
  138.7123   68.0263  227.2870 H   0  0  0  0  0  0  0  0  0  0  0  0
  138.7294   69.2346  229.4582 H   0  0  0  0  0  0  0  0  0  0  0  0
  139.7365   71.4675  229.6989 H   0  0  0  0  0  0  0  0  0  0  0  0
  140.7781   72.5655  227.7091 H   0  0  0  0  0  0  0  0  0  0  0  0
  140.8289   72.7006  225.3435 H   0  0  0  0  0  0  0  0  0  0  0  0
  142.0384   71.3948  225.2005 H   0  0  0  0  0  0  0  0  0  0  0  0
  140.6978   69.3588  219.3869 H   0  0  0  0  0  0  0  0  0  0  0  0
  140.2704   70.7934  218.3778 H   0  0  0  0  0  0  0  0  0  0  0  0
  141.1425   68.8209  217.0707 H   0  0  0  0  0  0  0  0  0  0  0  0
  142.0735   70.3349  216.8421 H   0  0  0  0  0  0  0  0  0  0  0  0
  142.7317   66.9767  217.0515 H   0  0  0  0  0  0  0  0  0  0  0  0
  144.8330   66.0454  217.9802 H   0  0  0  0  0  0  0  0  0  0  0  0
  146.2971   67.3669  219.4545 H   0  0  0  0  0  0  0  0  0  0  0  0
  145.6629   69.7158  220.0565 H   0  0  0  0  0  0  0  0  0  0  0  0
  143.9761   71.3852  220.0357 H   0  0  0  0  0  0  0  0  0  0  0  0
  143.5708   71.6301  218.3028 H   0  0  0  0  0  0  0  0  0  0  0  0
  1  2  2  0
  2  3  1  0
  3  4  1  0
  4  5  1  0
  5  6  1  0
  6  7  1  0
  7  8  1  0
  8  9  1  0
  9 10  1  0
  2 11  1  0
 11 12  2  0
 12 13  1  0
 13 14  1  0
 14 15  1  0
 15 16  1  0
 16 17  1  0
 17 18  2  0
 18 19  1  0
 19 20  2  0
 20 21  1  0
 21 22  2  0
 22 23  1  0
 13 24  2  0
 24 25  1  0
 25 26  1  0
 26 27  1  0
 27 28  1  0
 28 29  1  0
 29 30  2  0
 30 31  1  0
 31 32  2  0
 32 33  1  0
 33 34  2  0
 34 35  1  0
 25 36  2  0
 10  5  1  0
 36 11  1  0
 23 14  1  0
 35 26  1  0
 22 17  1  0
 34 29  1  0
  3 37  1  0
  4 38  1  0
  4 39  1  0
  5 40  1  1
  6 41  1  0
  6 42  1  0
  7 43  1  0
  7 44  1  0
  8 45  1  0
  8 46  1  0
  9 47  1  0
 10 48  1  0
 10 49  1  0
 15 50  1  0
 15 51  1  0
 16 52  1  0
 16 53  1  0
 18 54  1  0
 19 55  1  0
 20 56  1  0
 21 57  1  0
 23 58  1  0
 23 59  1  0
 27 60  1  0
 27 61  1  0
 28 62  1  0
 28 63  1  0
 30 64  1  0
 31 65  1  0
 32 66  1  0
 33 67  1  0
 35 68  1  0
 35 69  1  0
M  END
>  <smiles>  (55) 
O=C(NCC1CCCNC1)c1nc(N2CCc3ccccc3C2)nc(N2CCc3ccccc3C2)n1

>  <score_type>  (55) 
oracle

>  <origin>  (55) 
autodockgpu

>  <m_score__min__energy>  (55) 
-10.369999999999999

>  <m_primary>  (55) 
energy

>  <rmsd>  (55) 
3.6465219757742076

>  <m_score__min__rmsd>  (55) 
3.6465219757742076

>  <meeko>  (55) 
{"free_energy": -9.03, "intermolecular_energy": -10.52, "internal_energy": -1.12, "cluster_size": 7, "cluster_id": 3, "rank_in_cluster": 5}

>  <energy>  (55) 
-10.33

>  <cluster_rmsd>  (55) 
0.12

>  <cluster>  (55) 
1

$$$$

     RDKit          3D

 69 74  0  0  0  0  0  0  0  0999 V2000
  139.8770   70.4290  222.0520 O   0  0  0  0  0  0  0  0  0  0  0  0
  140.0550   71.5210  222.6850 C   0  0  0  0  0  0  0  0  0  0  0  0
  139.6460   71.5200  224.0490 N   0  0  0  0  0  0  0  0  0  0  0  0
  139.0790   70.2900  224.5620 C   0  0  0  0  0  0  0  0  0  0  0  0
  140.0050   69.5720  225.5280 C   0  0  1  0  0  0  0  0  0  0  0  0
  140.3520   70.5770  226.5960 C   0  0  0  0  0  0  0  0  0  0  0  0
  140.4890   69.9900  227.9710 C   0  0  0  0  0  0  0  0  0  0  0  0
  140.9770   68.5550  227.7660 C   0  0  0  0  0  0  0  0  0  0  0  0
  139.8670   67.8160  227.2510 N   0  0  0  0  0  0  0  0  0  0  0  0
  139.2800   68.3720  226.0670 C   0  0  0  0  0  0  0  0  0  0  0  0
  140.6340   72.6990  222.0750 C   0  0  0  0  0  0  0  0  0  0  0  0
  140.1730   73.9410  222.3090 N   0  0  0  0  0  0  0  0  0  0  0  0
  140.7650   74.9920  221.7010 C   0  0  0  0  0  0  0  0  0  0  0  0
  140.2640   76.3110  221.9600 N   0  0  0  0  0  0  0  0  0  0  0  0
  138.9950   76.6600  221.3950 C   0  0  0  0  0  0  0  0  0  0  0  0
  138.2500   77.5210  222.4230 C   0  0  0  0  0  0  0  0  0  0  0  0
  139.0970   78.7400  222.5990 C   0  0  0  0  0  0  0  0  0  0  0  0
  138.5310   80.0160  222.5960 C   0  0  0  0  0  0  0  0  0  0  0  0
  139.4000   81.0790  222.7660 C   0  0  0  0  0  0  0  0  0  0  0  0
  140.7590   80.9240  222.9330 C   0  0  0  0  0  0  0  0  0  0  0  0
  141.2910   79.6400  222.9320 C   0  0  0  0  0  0  0  0  0  0  0  0
  140.4500   78.5370  222.7630 C   0  0  0  0  0  0  0  0  0  0  0  0
  141.0800   77.1900  222.7700 C   0  0  0  0  0  0  0  0  0  0  0  0
  141.8090   74.7720  220.8720 N   0  0  0  0  0  0  0  0  0  0  0  0
  142.2880   73.5390  220.6220 C   0  0  0  0  0  0  0  0  0  0  0  0
  143.3850   73.3940  219.7390 N   0  0  0  0  0  0  0  0  0  0  0  0
  143.2950   73.9190  218.4110 C   0  0  0  0  0  0  0  0  0  0  0  0
  144.6230   73.8030  217.7000 C   0  0  0  0  0  0  0  0  0  0  0  0
  145.1000   72.4020  217.7970 C   0  0  0  0  0  0  0  0  0  0  0  0
  145.5340   71.6650  216.7330 C   0  0  0  0  0  0  0  0  0  0  0  0
  145.9500   70.3700  216.9760 C   0  0  0  0  0  0  0  0  0  0  0  0
  145.9410   69.8080  218.2390 C   0  0  0  0  0  0  0  0  0  0  0  0
  145.5010   70.5560  219.3180 C   0  0  0  0  0  0  0  0  0  0  0  0
  145.0900   71.8380  219.0730 C   0  0  0  0  0  0  0  0  0  0  0  0
  144.6000   72.7180  220.1670 C   0  0  0  0  0  0  0  0  0  0  0  0
  141.6840   72.5050  221.2360 N   0  0  0  0  0  0  0  0  0  0  0  0
  139.7530   72.3620  224.6410 H   0  0  0  0  0  0  0  0  0  0  0  0
  138.1409   70.5271  225.0852 H   0  0  0  0  0  0  0  0  0  0  0  0
  138.9111   69.6206  223.7054 H   0  0  0  0  0  0  0  0  0  0  0  0
  140.9325   69.2054  225.0639 H   0  0  0  0  0  0  0  0  0  0  0  0
  141.3072   71.0512  226.3264 H   0  0  0  0  0  0  0  0  0  0  0  0
  139.5184   71.2934  226.6393 H   0  0  0  0  0  0  0  0  0  0  0  0
  141.2202   70.5625  228.5606 H   0  0  0  0  0  0  0  0  0  0  0  0
  139.5360   70.0186  228.5197 H   0  0  0  0  0  0  0  0  0  0  0  0
  141.8109   68.5365  227.0489 H   0  0  0  0  0  0  0  0  0  0  0  0
  141.3395   68.1206  228.7093 H   0  0  0  0  0  0  0  0  0  0  0  0
  140.0140   66.7850  227.2290 H   0  0  0  0  0  0  0  0  0  0  0  0
  139.2714   67.5951  225.2883 H   0  0  0  0  0  0  0  0  0  0  0  0
  138.2698   68.7092  226.3423 H   0  0  0  0  0  0  0  0  0  0  0  0
  139.1422   77.2293  220.4653 H   0  0  0  0  0  0  0  0  0  0  0  0
  138.4163   75.7553  221.1572 H   0  0  0  0  0  0  0  0  0  0  0  0
  137.2531   77.7947  222.0472 H   0  0  0  0  0  0  0  0  0  0  0  0
  138.0950   76.9870  223.3721 H   0  0  0  0  0  0  0  0  0  0  0  0
  137.4495   80.1685  222.4652 H   0  0  0  0  0  0  0  0  0  0  0  0
  138.9857   82.0980  222.7680 H   0  0  0  0  0  0  0  0  0  0  0  0
  141.4108   81.8003  223.0647 H   0  0  0  0  0  0  0  0  0  0  0  0
  142.3730   79.4922  223.0641 H   0  0  0  0  0  0  0  0  0  0  0  0
  142.0947   77.2502  222.3496 H   0  0  0  0  0  0  0  0  0  0  0  0
  141.1506   76.8063  223.7985 H   0  0  0  0  0  0  0  0  0  0  0  0
  142.5348   73.3551  217.8505 H   0  0  0  0  0  0  0  0  0  0  0  0
  143.0163   74.9815  218.4688 H   0  0  0  0  0  0  0  0  0  0  0  0
  144.5007   74.0789  216.6422 H   0  0  0  0  0  0  0  0  0  0  0  0
  145.3552   74.4787  218.1661 H   0  0  0  0  0  0  0  0  0  0  0  0
  145.5519   72.0874  215.7175 H   0  0  0  0  0  0  0  0  0  0  0  0
  146.3026   69.7615  216.1302 H   0  0  0  0  0  0  0  0  0  0  0  0
  146.2815   68.7724  218.3860 H   0  0  0  0  0  0  0  0  0  0  0  0
  145.4826   70.1353  220.3342 H   0  0  0  0  0  0  0  0  0  0  0  0
  144.3866   72.1102  221.0586 H   0  0  0  0  0  0  0  0  0  0  0  0
  145.3698   73.4658  220.4083 H   0  0  0  0  0  0  0  0  0  0  0  0
  1  2  2  0
  2  3  1  0
  3  4  1  0
  4  5  1  0
  5  6  1  0
  6  7  1  0
  7  8  1  0
  8  9  1  0
  9 10  1  0
  2 11  1  0
 11 12  2  0
 12 13  1  0
 13 14  1  0
 14 15  1  0
 15 16  1  0
 16 17  1  0
 17 18  2  0
 18 19  1  0
 19 20  2  0
 20 21  1  0
 21 22  2  0
 22 23  1  0
 13 24  2  0
 24 25  1  0
 25 26  1  0
 26 27  1  0
 27 28  1  0
 28 29  1  0
 29 30  2  0
 30 31  1  0
 31 32  2  0
 32 33  1  0
 33 34  2  0
 34 35  1  0
 25 36  2  0
 10  5  1  0
 36 11  1  0
 23 14  1  0
 35 26  1  0
 22 17  1  0
 34 29  1  0
  3 37  1  0
  4 38  1  0
  4 39  1  0
  5 40  1  6
  6 41  1  0
  6 42  1  0
  7 43  1  0
  7 44  1  0
  8 45  1  0
  8 46  1  0
  9 47  1  0
 10 48  1  0
 10 49  1  0
 15 50  1  0
 15 51  1  0
 16 52  1  0
 16 53  1  0
 18 54  1  0
 19 55  1  0
 20 56  1  0
 21 57  1  0
 23 58  1  0
 23 59  1  0
 27 60  1  0
 27 61  1  0
 28 62  1  0
 28 63  1  0
 30 64  1  0
 31 65  1  0
 32 66  1  0
 33 67  1  0
 35 68  1  0
 35 69  1  0
M  END
>  <smiles>  (56) 
O=C(NCC1CCCNC1)c1nc(N2CCc3ccccc3C2)nc(N2CCc3ccccc3C2)n1

>  <score_type>  (56) 
oracle

>  <origin>  (56) 
autodockgpu

>  <m_score__min__energy>  (56) 
-10.369999999999999

>  <m_primary>  (56) 
energy

>  <rmsd>  (56) 
9.160700545260061

>  <m_score__min__rmsd>  (56) 
9.160700545260061

>  <meeko>  (56) 
{"free_energy": -9.85, "intermolecular_energy": -11.34, "internal_energy": -1.03, "cluster_size": 35, "cluster_id": 1, "rank_in_cluster": 15}

>  <energy>  (56) 
-10.32

>  <cluster_rmsd>  (56) 
0.15

>  <cluster>  (56) 
1

$$$$

     RDKit          3D

 69 74  0  0  0  0  0  0  0  0999 V2000
  138.5680   72.2140  223.0070 O   0  0  0  0  0  0  0  0  0  0  0  0
  139.8330   72.0780  222.9310 C   0  0  0  0  0  0  0  0  0  0  0  0
  140.4050   71.1050  223.8000 N   0  0  0  0  0  0  0  0  0  0  0  0
  139.4940   70.3850  224.6660 C   0  0  0  0  0  0  0  0  0  0  0  0
  140.2090   69.6230  225.7690 C   0  0  1  0  0  0  0  0  0  0  0  0
  140.2950   70.5680  226.9390 C   0  0  0  0  0  0  0  0  0  0  0  0
  140.1470   69.9050  228.2770 C   0  0  0  0  0  0  0  0  0  0  0  0
  140.7030   68.4890  228.1050 C   0  0  0  0  0  0  0  0  0  0  0  0
  139.7470   67.7690  227.3240 N   0  0  0  0  0  0  0  0  0  0  0  0
  139.4140   68.3850  226.0730 C   0  0  0  0  0  0  0  0  0  0  0  0
  140.6550   72.8520  222.0250 C   0  0  0  0  0  0  0  0  0  0  0  0
  141.5580   72.2890  221.2010 N   0  0  0  0  0  0  0  0  0  0  0  0
  142.2900   73.0780  220.3840 C   0  0  0  0  0  0  0  0  0  0  0  0
  143.2480   72.4650  219.5090 N   0  0  0  0  0  0  0  0  0  0  0  0
  143.3200   72.9480  218.1630 C   0  0  0  0  0  0  0  0  0  0  0  0
  144.7970   72.9530  217.7480 C   0  0  0  0  0  0  0  0  0  0  0  0
  145.2250   71.5220  217.8150 C   0  0  0  0  0  0  0  0  0  0  0  0
  145.9640   70.9440  216.7820 C   0  0  0  0  0  0  0  0  0  0  0  0
  146.3120   69.6150  216.9380 C   0  0  0  0  0  0  0  0  0  0  0  0
  145.9650   68.8690  218.0430 C   0  0  0  0  0  0  0  0  0  0  0  0
  145.2290   69.4740  219.0550 C   0  0  0  0  0  0  0  0  0  0  0  0
  144.8550   70.8150  218.9390 C   0  0  0  0  0  0  0  0  0  0  0  0
  144.0690   71.4050  220.0530 C   0  0  0  0  0  0  0  0  0  0  0  0
  142.0970   74.4140  220.4120 N   0  0  0  0  0  0  0  0  0  0  0  0
  141.2020   75.0000  221.2280 C   0  0  0  0  0  0  0  0  0  0  0  0
  141.0620   76.4100  221.1970 N   0  0  0  0  0  0  0  0  0  0  0  0
  141.5450   77.1410  220.0660 C   0  0  0  0  0  0  0  0  0  0  0  0
  141.1490   78.5960  220.1630 C   0  0  0  0  0  0  0  0  0  0  0  0
  141.5690   79.1210  221.4850 C   0  0  0  0  0  0  0  0  0  0  0  0
  142.2750   80.2760  221.6610 C   0  0  0  0  0  0  0  0  0  0  0  0
  142.5970   80.6420  222.9540 C   0  0  0  0  0  0  0  0  0  0  0  0
  142.2320   79.8890  224.0540 C   0  0  0  0  0  0  0  0  0  0  0  0
  141.5160   78.7180  223.8760 C   0  0  0  0  0  0  0  0  0  0  0  0
  141.2000   78.3590  222.5940 C   0  0  0  0  0  0  0  0  0  0  0  0
  140.4330   77.1190  222.3010 C   0  0  0  0  0  0  0  0  0  0  0  0
  140.4830   74.1990  222.0350 N   0  0  0  0  0  0  0  0  0  0  0  0
  141.4230   70.9260  223.8080 H   0  0  0  0  0  0  0  0  0  0  0  0
  138.8038   71.1064  225.1276 H   0  0  0  0  0  0  0  0  0  0  0  0
  138.9605   69.6488  224.0468 H   0  0  0  0  0  0  0  0  0  0  0  0
  141.2231   69.2951  225.4968 H   0  0  0  0  0  0  0  0  0  0  0  0
  141.2746   71.0674  226.9079 H   0  0  0  0  0  0  0  0  0  0  0  0
  139.4550   71.2712  226.8399 H   0  0  0  0  0  0  0  0  0  0  0  0
  140.7201   70.4513  229.0406 H   0  0  0  0  0  0  0  0  0  0  0  0
  139.0980   69.8905  228.6077 H   0  0  0  0  0  0  0  0  0  0  0  0
  141.6715   68.5218  227.5844 H   0  0  0  0  0  0  0  0  0  0  0  0
  140.8659   68.0049  229.0792 H   0  0  0  0  0  0  0  0  0  0  0  0
  139.9190   66.7420  227.2780 H   0  0  0  0  0  0  0  0  0  0  0  0
  139.5914   67.6545  225.2700 H   0  0  0  0  0  0  0  0  0  0  0  0
  138.3602   68.6931  226.1412 H   0  0  0  0  0  0  0  0  0  0  0  0
  142.7458   72.2875  217.4967 H   0  0  0  0  0  0  0  0  0  0  0  0
  142.8968   73.9610  218.0939 H   0  0  0  0  0  0  0  0  0  0  0  0
  144.9095   73.3423  216.7254 H   0  0  0  0  0  0  0  0  0  0  0  0
  145.4062   73.5964  218.3998 H   0  0  0  0  0  0  0  0  0  0  0  0
  146.2549   71.5166  215.8890 H   0  0  0  0  0  0  0  0  0  0  0  0
  146.8943   69.1296  216.1409 H   0  0  0  0  0  0  0  0  0  0  0  0
  146.2650   67.8137  218.1229 H   0  0  0  0  0  0  0  0  0  0  0  0
  144.9413   68.8974  219.9465 H   0  0  0  0  0  0  0  0  0  0  0  0
  143.4299   70.6340  220.5081 H   0  0  0  0  0  0  0  0  0  0  0  0
  144.7422   71.8022  220.8270 H   0  0  0  0  0  0  0  0  0  0  0  0
  142.6419   77.0668  220.0294 H   0  0  0  0  0  0  0  0  0  0  0  0
  141.1035   76.7139  219.1535 H   0  0  0  0  0  0  0  0  0  0  0  0
  141.6444   79.1676  219.3643 H   0  0  0  0  0  0  0  0  0  0  0  0
  140.0590   78.6938  220.0523 H   0  0  0  0  0  0  0  0  0  0  0  0
  142.5772   80.8943  220.8029 H   0  0  0  0  0  0  0  0  0  0  0  0
  143.1664   81.5694  223.1142 H   0  0  0  0  0  0  0  0  0  0  0  0
  142.5092   80.2188  225.0661 H   0  0  0  0  0  0  0  0  0  0  0  0
  141.2123   78.0990  224.7331 H   0  0  0  0  0  0  0  0  0  0  0  0
  140.4229   76.4747  223.1925 H   0  0  0  0  0  0  0  0  0  0  0  0
  139.4005   77.3821  222.0275 H   0  0  0  0  0  0  0  0  0  0  0  0
  1  2  2  0
  2  3  1  0
  3  4  1  0
  4  5  1  0
  5  6  1  0
  6  7  1  0
  7  8  1  0
  8  9  1  0
  9 10  1  0
  2 11  1  0
 11 12  2  0
 12 13  1  0
 13 14  1  0
 14 15  1  0
 15 16  1  0
 16 17  1  0
 17 18  2  0
 18 19  1  0
 19 20  2  0
 20 21  1  0
 21 22  2  0
 22 23  1  0
 13 24  2  0
 24 25  1  0
 25 26  1  0
 26 27  1  0
 27 28  1  0
 28 29  1  0
 29 30  2  0
 30 31  1  0
 31 32  2  0
 32 33  1  0
 33 34  2  0
 34 35  1  0
 25 36  2  0
 10  5  1  0
 36 11  1  0
 23 14  1  0
 35 26  1  0
 22 17  1  0
 34 29  1  0
  3 37  1  0
  4 38  1  0
  4 39  1  0
  5 40  1  6
  6 41  1  0
  6 42  1  0
  7 43  1  0
  7 44  1  0
  8 45  1  0
  8 46  1  0
  9 47  1  0
 10 48  1  0
 10 49  1  0
 15 50  1  0
 15 51  1  0
 16 52  1  0
 16 53  1  0
 18 54  1  0
 19 55  1  0
 20 56  1  0
 21 57  1  0
 23 58  1  0
 23 59  1  0
 27 60  1  0
 27 61  1  0
 28 62  1  0
 28 63  1  0
 30 64  1  0
 31 65  1  0
 32 66  1  0
 33 67  1  0
 35 68  1  0
 35 69  1  0
M  END
>  <smiles>  (57) 
O=C(NCC1CCCNC1)c1nc(N2CCc3ccccc3C2)nc(N2CCc3ccccc3C2)n1

>  <score_type>  (57) 
oracle

>  <origin>  (57) 
autodockgpu

>  <m_score__min__energy>  (57) 
-10.369999999999999

>  <m_primary>  (57) 
energy

>  <rmsd>  (57) 
9.284247885964865

>  <m_score__min__rmsd>  (57) 
9.284247885964865

>  <meeko>  (57) 
{"free_energy": -10.3, "intermolecular_energy": -11.79, "internal_energy": -0.97, "cluster_size": 35, "cluster_id": 1, "rank_in_cluster": 7}

>  <energy>  (57) 
-10.3

>  <cluster_rmsd>  (57) 
0.22

>  <cluster>  (57) 
1

$$$$

     RDKit          3D

 69 74  0  0  0  0  0  0  0  0999 V2000
  138.5910   71.9810  222.8850 O   0  0  0  0  0  0  0  0  0  0  0  0
  139.8610   72.0500  222.9720 C   0  0  0  0  0  0  0  0  0  0  0  0
  140.4500   71.3100  224.0360 N   0  0  0  0  0  0  0  0  0  0  0  0
  139.5510   70.5680  224.8950 C   0  0  0  0  0  0  0  0  0  0  0  0
  140.2800   69.6220  225.8340 C   0  0  1  0  0  0  0  0  0  0  0  0
  140.7140   70.4570  227.0110 C   0  0  0  0  0  0  0  0  0  0  0  0
  140.6600   69.7390  228.3270 C   0  0  0  0  0  0  0  0  0  0  0  0
  140.9190   68.2650  228.0100 C   0  0  0  0  0  0  0  0  0  0  0  0
  139.7400   67.7720  227.3690 N   0  0  0  0  0  0  0  0  0  0  0  0
  139.3320   68.5210  226.2150 C   0  0  0  0  0  0  0  0  0  0  0  0
  140.6710   72.8250  222.0560 C   0  0  0  0  0  0  0  0  0  0  0  0
  141.5750   72.2650  221.2320 N   0  0  0  0  0  0  0  0  0  0  0  0
  142.2950   73.0540  220.4040 C   0  0  0  0  0  0  0  0  0  0  0  0
  143.2550   72.4450  219.5300 N   0  0  0  0  0  0  0  0  0  0  0  0
  143.3130   72.9150  218.1790 C   0  0  0  0  0  0  0  0  0  0  0  0
  144.7880   72.9330  217.7550 C   0  0  0  0  0  0  0  0  0  0  0  0
  145.2330   71.5080  217.8320 C   0  0  0  0  0  0  0  0  0  0  0  0
  145.9720   70.9290  216.8010 C   0  0  0  0  0  0  0  0  0  0  0  0
  146.3360   69.6050  216.9670 C   0  0  0  0  0  0  0  0  0  0  0  0
  146.0030   68.8650  218.0820 C   0  0  0  0  0  0  0  0  0  0  0  0
  145.2670   69.4720  219.0920 C   0  0  0  0  0  0  0  0  0  0  0  0
  144.8770   70.8080  218.9650 C   0  0  0  0  0  0  0  0  0  0  0  0
  144.0910   71.3990  220.0790 C   0  0  0  0  0  0  0  0  0  0  0  0
  142.0900   74.3890  220.4240 N   0  0  0  0  0  0  0  0  0  0  0  0
  141.1920   74.9730  221.2390 C   0  0  0  0  0  0  0  0  0  0  0  0
  141.0380   76.3800  221.1990 N   0  0  0  0  0  0  0  0  0  0  0  0
  141.5120   77.1080  220.0610 C   0  0  0  0  0  0  0  0  0  0  0  0
  141.1020   78.5600  220.1480 C   0  0  0  0  0  0  0  0  0  0  0  0
  141.5190   79.0990  221.4650 C   0  0  0  0  0  0  0  0  0  0  0  0
  142.2140   80.2620  221.6310 C   0  0  0  0  0  0  0  0  0  0  0  0
  142.5350   80.6400  222.9210 C   0  0  0  0  0  0  0  0  0  0  0  0
  142.1800   79.8920  224.0270 C   0  0  0  0  0  0  0  0  0  0  0  0
  141.4750   78.7130  223.8590 C   0  0  0  0  0  0  0  0  0  0  0  0
  141.1600   78.3420  222.5800 C   0  0  0  0  0  0  0  0  0  0  0  0
  140.4050   77.0920  222.2980 C   0  0  0  0  0  0  0  0  0  0  0  0
  140.4850   74.1710  222.0560 N   0  0  0  0  0  0  0  0  0  0  0  0
  141.4740   71.3080  224.1840 H   0  0  0  0  0  0  0  0  0  0  0  0
  138.9706   71.2826  225.4971 H   0  0  0  0  0  0  0  0  0  0  0  0
  138.9031   69.9582  224.2482 H   0  0  0  0  0  0  0  0  0  0  0  0
  141.1644   69.1451  225.3863 H   0  0  0  0  0  0  0  0  0  0  0  0
  141.7500   70.7842  226.8387 H   0  0  0  0  0  0  0  0  0  0  0  0
  140.0078   71.2975  227.0801 H   0  0  0  0  0  0  0  0  0  0  0  0
  141.4337   70.1262  229.0063 H   0  0  0  0  0  0  0  0  0  0  0  0
  139.6898   69.8809  228.8255 H   0  0  0  0  0  0  0  0  0  0  0  0
  141.7850   68.1676  227.3387 H   0  0  0  0  0  0  0  0  0  0  0  0
  141.1411   67.6955  228.9245 H   0  0  0  0  0  0  0  0  0  0  0  0
  139.7160   66.7370  227.2550 H   0  0  0  0  0  0  0  0  0  0  0  0
  139.2475   67.8279  225.3650 H   0  0  0  0  0  0  0  0  0  0  0  0
  138.3745   68.9994  226.4686 H   0  0  0  0  0  0  0  0  0  0  0  0
  142.7426   72.2410  217.5229 H   0  0  0  0  0  0  0  0  0  0  0  0
  142.8773   73.9221  218.1021 H   0  0  0  0  0  0  0  0  0  0  0  0
  144.8900   73.3144  216.7283 H   0  0  0  0  0  0  0  0  0  0  0  0
  145.3935   73.5890  218.3976 H   0  0  0  0  0  0  0  0  0  0  0  0
  146.2514   71.4966  215.9011 H   0  0  0  0  0  0  0  0  0  0  0  0
  146.9193   69.1188  216.1712 H   0  0  0  0  0  0  0  0  0  0  0  0
  146.3143   67.8137  218.1701 H   0  0  0  0  0  0  0  0  0  0  0  0
  144.9914   68.9014  219.9911 H   0  0  0  0  0  0  0  0  0  0  0  0
  143.4632   70.6251  220.5447 H   0  0  0  0  0  0  0  0  0  0  0  0
  144.7640   71.8103  220.8457 H   0  0  0  0  0  0  0  0  0  0  0  0
  142.6095   77.0442  220.0229 H   0  0  0  0  0  0  0  0  0  0  0  0
  141.0728   76.6700  219.1526 H   0  0  0  0  0  0  0  0  0  0  0  0
  141.5905   79.1304  219.3442 H   0  0  0  0  0  0  0  0  0  0  0  0
  140.0109   78.6463  220.0387 H   0  0  0  0  0  0  0  0  0  0  0  0
  142.5084   80.8771  220.7679 H   0  0  0  0  0  0  0  0  0  0  0  0
  143.0957   81.5740  223.0733 H   0  0  0  0  0  0  0  0  0  0  0  0
  142.4563   80.2318  225.0360 H   0  0  0  0  0  0  0  0  0  0  0  0
  141.1790   78.0973  224.7211 H   0  0  0  0  0  0  0  0  0  0  0  0
  140.4029   76.4549  223.1947 H   0  0  0  0  0  0  0  0  0  0  0  0
  139.3697   77.3432  222.0239 H   0  0  0  0  0  0  0  0  0  0  0  0
  1  2  2  0
  2  3  1  0
  3  4  1  0
  4  5  1  0
  5  6  1  0
  6  7  1  0
  7  8  1  0
  8  9  1  0
  9 10  1  0
  2 11  1  0
 11 12  2  0
 12 13  1  0
 13 14  1  0
 14 15  1  0
 15 16  1  0
 16 17  1  0
 17 18  2  0
 18 19  1  0
 19 20  2  0
 20 21  1  0
 21 22  2  0
 22 23  1  0
 13 24  2  0
 24 25  1  0
 25 26  1  0
 26 27  1  0
 27 28  1  0
 28 29  1  0
 29 30  2  0
 30 31  1  0
 31 32  2  0
 32 33  1  0
 33 34  2  0
 34 35  1  0
 25 36  2  0
 10  5  1  0
 36 11  1  0
 23 14  1  0
 35 26  1  0
 22 17  1  0
 34 29  1  0
  3 37  1  0
  4 38  1  0
  4 39  1  0
  5 40  1  6
  6 41  1  0
  6 42  1  0
  7 43  1  0
  7 44  1  0
  8 45  1  0
  8 46  1  0
  9 47  1  0
 10 48  1  0
 10 49  1  0
 15 50  1  0
 15 51  1  0
 16 52  1  0
 16 53  1  0
 18 54  1  0
 19 55  1  0
 20 56  1  0
 21 57  1  0
 23 58  1  0
 23 59  1  0
 27 60  1  0
 27 61  1  0
 28 62  1  0
 28 63  1  0
 30 64  1  0
 31 65  1  0
 32 66  1  0
 33 67  1  0
 35 68  1  0
 35 69  1  0
M  END
>  <smiles>  (58) 
O=C(NCC1CCCNC1)c1nc(N2CCc3ccccc3C2)nc(N2CCc3ccccc3C2)n1

>  <score_type>  (58) 
oracle

>  <origin>  (58) 
autodockgpu

>  <m_score__min__energy>  (58) 
-10.369999999999999

>  <m_primary>  (58) 
energy

>  <rmsd>  (58) 
9.334894460510359

>  <m_score__min__rmsd>  (58) 
9.334894460510359

>  <meeko>  (58) 
{"free_energy": -10.36, "intermolecular_energy": -11.86, "internal_energy": -0.93, "cluster_size": 35, "cluster_id": 1, "rank_in_cluster": 2}

>  <energy>  (58) 
-10.29

>  <cluster_rmsd>  (58) 
0.23

>  <cluster>  (58) 
1

$$$$

     RDKit          3D

 69 74  0  0  0  0  0  0  0  0999 V2000
  138.7830   72.2470  222.6090 O   0  0  0  0  0  0  0  0  0  0  0  0
  140.0540   72.2430  222.7010 C   0  0  0  0  0  0  0  0  0  0  0  0
  140.6090   71.2700  223.5800 N   0  0  0  0  0  0  0  0  0  0  0  0
  139.6770   70.3990  224.2660 C   0  0  0  0  0  0  0  0  0  0  0  0
  140.3060   69.6750  225.4430 C   0  0  1  0  0  0  0  0  0  0  0  0
  140.4910   70.7130  226.5190 C   0  0  0  0  0  0  0  0  0  0  0  0
  140.2740   70.2000  227.9130 C   0  0  0  0  0  0  0  0  0  0  0  0
  140.6750   68.7240  227.8820 C   0  0  0  0  0  0  0  0  0  0  0  0
  139.6480   68.0370  227.1620 N   0  0  0  0  0  0  0  0  0  0  0  0
  139.3830   68.5630  225.8550 C   0  0  0  0  0  0  0  0  0  0  0  0
  140.8980   73.1620  221.9670 C   0  0  0  0  0  0  0  0  0  0  0  0
  140.7660   74.4980  222.0530 N   0  0  0  0  0  0  0  0  0  0  0  0
  141.5910   75.2930  221.3360 C   0  0  0  0  0  0  0  0  0  0  0  0
  141.4410   76.7150  221.4380 N   0  0  0  0  0  0  0  0  0  0  0  0
  141.6770   77.4920  220.2580 C   0  0  0  0  0  0  0  0  0  0  0  0
  140.6510   78.6330  220.2380 C   0  0  0  0  0  0  0  0  0  0  0  0
  140.9400   79.4390  221.4630 C   0  0  0  0  0  0  0  0  0  0  0  0
  141.0100   80.8320  221.4070 C   0  0  0  0  0  0  0  0  0  0  0  0
  141.2830   81.4870  222.5940 C   0  0  0  0  0  0  0  0  0  0  0  0
  141.4810   80.8310  223.7900 C   0  0  0  0  0  0  0  0  0  0  0  0
  141.4040   79.4430  223.8120 C   0  0  0  0  0  0  0  0  0  0  0  0
  141.1310   78.7400  222.6350 C   0  0  0  0  0  0  0  0  0  0  0  0
  141.0620   77.2590  222.7240 C   0  0  0  0  0  0  0  0  0  0  0  0
  142.5310   74.7260  220.5490 N   0  0  0  0  0  0  0  0  0  0  0  0
  142.6820   73.3930  220.4450 C   0  0  0  0  0  0  0  0  0  0  0  0
  143.6920   72.8780  219.5960 N   0  0  0  0  0  0  0  0  0  0  0  0
  143.7610   73.3190  218.2360 C   0  0  0  0  0  0  0  0  0  0  0  0
  145.0000   72.7780  217.5620 C   0  0  0  0  0  0  0  0  0  0  0  0
  145.0500   71.3080  217.7560 C   0  0  0  0  0  0  0  0  0  0  0  0
  145.2540   70.4100  216.7490 C   0  0  0  0  0  0  0  0  0  0  0  0
  145.2750   69.0680  217.0800 C   0  0  0  0  0  0  0  0  0  0  0  0
  145.1010   68.6170  218.3740 C   0  0  0  0  0  0  0  0  0  0  0  0
  144.8940   69.5280  219.3950 C   0  0  0  0  0  0  0  0  0  0  0  0
  144.8730   70.8560  219.0630 C   0  0  0  0  0  0  0  0  0  0  0  0
  144.6580   71.9100  220.0900 C   0  0  0  0  0  0  0  0  0  0  0  0
  141.8510   72.6180  221.1660 N   0  0  0  0  0  0  0  0  0  0  0  0
  141.6310   71.1930  223.7170 H   0  0  0  0  0  0  0  0  0  0  0  0
  138.8360   71.0047  224.6346 H   0  0  0  0  0  0  0  0  0  0  0  0
  139.3456   69.6359  223.5464 H   0  0  0  0  0  0  0  0  0  0  0  0
  141.2796   69.2172  225.2138 H   0  0  0  0  0  0  0  0  0  0  0  0
  141.5177   71.1017  226.4504 H   0  0  0  0  0  0  0  0  0  0  0  0
  139.7295   71.4875  226.3452 H   0  0  0  0  0  0  0  0  0  0  0  0
  140.9027   70.7527  228.6266 H   0  0  0  0  0  0  0  0  0  0  0  0
  139.2296   70.3288  228.2334 H   0  0  0  0  0  0  0  0  0  0  0  0
  141.6419   68.6040  227.3714 H   0  0  0  0  0  0  0  0  0  0  0  0
  140.7838   68.3209  228.8997 H   0  0  0  0  0  0  0  0  0  0  0  0
  139.7100   66.9990  227.2160 H   0  0  0  0  0  0  0  0  0  0  0  0
  139.4813   67.7446  225.1267 H   0  0  0  0  0  0  0  0  0  0  0  0
  138.3683   68.9867  225.8831 H   0  0  0  0  0  0  0  0  0  0  0  0
  142.6963   77.9050  220.2790 H   0  0  0  0  0  0  0  0  0  0  0  0
  141.5759   76.8670  219.3585 H   0  0  0  0  0  0  0  0  0  0  0  0
  140.7743   79.2472  219.3338 H   0  0  0  0  0  0  0  0  0  0  0  0
  139.6173   78.2572  220.2267 H   0  0  0  0  0  0  0  0  0  0  0  0
  140.8558   81.3810  220.4663 H   0  0  0  0  0  0  0  0  0  0  0  0
  141.3452   82.5852  222.5832 H   0  0  0  0  0  0  0  0  0  0  0  0
  141.6959   81.3950  224.7096 H   0  0  0  0  0  0  0  0  0  0  0  0
  141.5579   78.8983  224.7552 H   0  0  0  0  0  0  0  0  0  0  0  0
  141.7537   76.8992  223.4999 H   0  0  0  0  0  0  0  0  0  0  0  0
  140.0432   76.9394  222.9885 H   0  0  0  0  0  0  0  0  0  0  0  0
  142.8714   72.9635  217.6954 H   0  0  0  0  0  0  0  0  0  0  0  0
  143.8019   74.4182  218.2220 H   0  0  0  0  0  0  0  0  0  0  0  0
  144.9654   73.0075  216.4868 H   0  0  0  0  0  0  0  0  0  0  0  0
  145.8956   73.2423  218.0006 H   0  0  0  0  0  0  0  0  0  0  0  0
  145.3967   70.7424  215.7102 H   0  0  0  0  0  0  0  0  0  0  0  0
  145.4368   68.3296  216.2809 H   0  0  0  0  0  0  0  0  0  0  0  0
  145.1268   67.5391  218.5918 H   0  0  0  0  0  0  0  0  0  0  0  0
  144.7517   69.1974  220.4345 H   0  0  0  0  0  0  0  0  0  0  0  0
  144.2766   71.4498  221.0134 H   0  0  0  0  0  0  0  0  0  0  0  0
  145.6112   72.4174  220.2998 H   0  0  0  0  0  0  0  0  0  0  0  0
  1  2  2  0
  2  3  1  0
  3  4  1  0
  4  5  1  0
  5  6  1  0
  6  7  1  0
  7  8  1  0
  8  9  1  0
  9 10  1  0
  2 11  1  0
 11 12  2  0
 12 13  1  0
 13 14  1  0
 14 15  1  0
 15 16  1  0
 16 17  1  0
 17 18  2  0
 18 19  1  0
 19 20  2  0
 20 21  1  0
 21 22  2  0
 22 23  1  0
 13 24  2  0
 24 25  1  0
 25 26  1  0
 26 27  1  0
 27 28  1  0
 28 29  1  0
 29 30  2  0
 30 31  1  0
 31 32  2  0
 32 33  1  0
 33 34  2  0
 34 35  1  0
 25 36  2  0
 10  5  1  0
 36 11  1  0
 23 14  1  0
 35 26  1  0
 22 17  1  0
 34 29  1  0
  3 37  1  0
  4 38  1  0
  4 39  1  0
  5 40  1  6
  6 41  1  0
  6 42  1  0
  7 43  1  0
  7 44  1  0
  8 45  1  0
  8 46  1  0
  9 47  1  0
 10 48  1  0
 10 49  1  0
 15 50  1  0
 15 51  1  0
 16 52  1  0
 16 53  1  0
 18 54  1  0
 19 55  1  0
 20 56  1  0
 21 57  1  0
 23 58  1  0
 23 59  1  0
 27 60  1  0
 27 61  1  0
 28 62  1  0
 28 63  1  0
 30 64  1  0
 31 65  1  0
 32 66  1  0
 33 67  1  0
 35 68  1  0
 35 69  1  0
M  END
>  <smiles>  (59) 
O=C(NCC1CCCNC1)c1nc(N2CCc3ccccc3C2)nc(N2CCc3ccccc3C2)n1

>  <score_type>  (59) 
oracle

>  <origin>  (59) 
autodockgpu

>  <m_score__min__energy>  (59) 
-10.369999999999999

>  <m_primary>  (59) 
energy

>  <rmsd>  (59) 
9.016472881511698

>  <m_score__min__rmsd>  (59) 
9.016472881511698

>  <meeko>  (59) 
{"free_energy": -9.71, "intermolecular_energy": -11.2, "internal_energy": -0.98, "cluster_size": 35, "cluster_id": 1, "rank_in_cluster": 20}

>  <energy>  (59) 
-10.27

>  <cluster_rmsd>  (59) 
0.24

>  <cluster>  (59) 
1

$$$$

     RDKit          3D

 69 74  0  0  0  0  0  0  0  0999 V2000
  138.6300   71.7520  222.6240 O   0  0  0  0  0  0  0  0  0  0  0  0
  139.8480   72.0560  222.8460 C   0  0  0  0  0  0  0  0  0  0  0  0
  140.4140   71.5200  224.0370 N   0  0  0  0  0  0  0  0  0  0  0  0
  139.5510   70.6970  224.8590 C   0  0  0  0  0  0  0  0  0  0  0  0
  140.3240   69.8070  225.8170 C   0  0  1  0  0  0  0  0  0  0  0  0
  140.6820   70.6780  226.9950 C   0  0  0  0  0  0  0  0  0  0  0  0
  140.6530   69.9670  228.3160 C   0  0  0  0  0  0  0  0  0  0  0  0
  141.0140   68.5100  228.0150 C   0  0  0  0  0  0  0  0  0  0  0  0
  139.8810   67.9370  227.3580 N   0  0  0  0  0  0  0  0  0  0  0  0
  139.4450   68.6490  226.1920 C   0  0  0  0  0  0  0  0  0  0  0  0
  140.6250   72.8910  221.9540 C   0  0  0  0  0  0  0  0  0  0  0  0
  140.6670   74.2320  222.0660 N   0  0  0  0  0  0  0  0  0  0  0  0
  141.4140   74.9450  221.1950 C   0  0  0  0  0  0  0  0  0  0  0  0
  141.4510   76.3730  221.3250 N   0  0  0  0  0  0  0  0  0  0  0  0
  141.8600   77.1320  220.1820 C   0  0  0  0  0  0  0  0  0  0  0  0
  141.0000   78.4020  220.1330 C   0  0  0  0  0  0  0  0  0  0  0  0
  141.3220   79.1390  221.3930 C   0  0  0  0  0  0  0  0  0  0  0  0
  141.5820   80.5100  221.3780 C   0  0  0  0  0  0  0  0  0  0  0  0
  141.8700   81.1000  222.5950 C   0  0  0  0  0  0  0  0  0  0  0  0
  141.9060   80.4010  223.7830 C   0  0  0  0  0  0  0  0  0  0  0  0
  141.6410   79.0360  223.7640 C   0  0  0  0  0  0  0  0  0  0  0  0
  141.3470   78.3990  222.5560 C   0  0  0  0  0  0  0  0  0  0  0  0
  141.0730   76.9390  222.6020 C   0  0  0  0  0  0  0  0  0  0  0  0
  142.1030   74.2950  220.2320 N   0  0  0  0  0  0  0  0  0  0  0  0
  142.0770   72.9560  220.1000 C   0  0  0  0  0  0  0  0  0  0  0  0
  142.8280   72.3520  219.0620 N   0  0  0  0  0  0  0  0  0  0  0  0
  142.1450   71.6730  218.0030 C   0  0  0  0  0  0  0  0  0  0  0  0
  143.1180   71.2510  216.9260 C   0  0  0  0  0  0  0  0  0  0  0  0
  144.2300   70.4950  217.5530 C   0  0  0  0  0  0  0  0  0  0  0  0
  144.6740   69.2810  217.1130 C   0  0  0  0  0  0  0  0  0  0  0  0
  145.7220   68.6940  217.7970 C   0  0  0  0  0  0  0  0  0  0  0  0
  146.3220   69.2870  218.8910 C   0  0  0  0  0  0  0  0  0  0  0  0
  145.8720   70.5170  219.3370 C   0  0  0  0  0  0  0  0  0  0  0  0
  144.8340   71.0950  218.6570 C   0  0  0  0  0  0  0  0  0  0  0  0
  144.2810   72.4150  219.0600 C   0  0  0  0  0  0  0  0  0  0  0  0
  141.3270   72.2630  220.9750 N   0  0  0  0  0  0  0  0  0  0  0  0
  141.3960   71.7130  224.2980 H   0  0  0  0  0  0  0  0  0  0  0  0
  138.8918   71.3547  225.4446 H   0  0  0  0  0  0  0  0  0  0  0  0
  138.9795   70.0411  224.1858 H   0  0  0  0  0  0  0  0  0  0  0  0
  141.2447   69.3857  225.3871 H   0  0  0  0  0  0  0  0  0  0  0  0
  141.6969   71.0718  226.8372 H   0  0  0  0  0  0  0  0  0  0  0  0
  139.9209   71.4705  227.0454 H   0  0  0  0  0  0  0  0  0  0  0  0
  141.3879   70.4090  229.0049 H   0  0  0  0  0  0  0  0  0  0  0  0
  139.6672   70.0482  228.7973 H   0  0  0  0  0  0  0  0  0  0  0  0
  141.8961   68.4650  227.3593 H   0  0  0  0  0  0  0  0  0  0  0  0
  141.2572   67.9624  228.9375 H   0  0  0  0  0  0  0  0  0  0  0  0
  139.9280   66.9010  227.2520 H   0  0  0  0  0  0  0  0  0  0  0  0
  139.4208   67.9456  225.3466 H   0  0  0  0  0  0  0  0  0  0  0  0
  138.4543   69.0655  226.4264 H   0  0  0  0  0  0  0  0  0  0  0  0
  142.9224   77.4023  220.2724 H   0  0  0  0  0  0  0  0  0  0  0  0
  141.7302   76.5431  219.2620 H   0  0  0  0  0  0  0  0  0  0  0  0
  141.2585   79.0097  219.2533 H   0  0  0  0  0  0  0  0  0  0  0  0
  139.9275   78.1708  220.0533 H   0  0  0  0  0  0  0  0  0  0  0  0
  141.5590   81.0921  220.4449 H   0  0  0  0  0  0  0  0  0  0  0  0
  142.0806   82.1794  222.6164 H   0  0  0  0  0  0  0  0  0  0  0  0
  142.1399   80.9134  224.7279 H   0  0  0  0  0  0  0  0  0  0  0  0
  141.6629   78.4581  224.6997 H   0  0  0  0  0  0  0  0  0  0  0  0
  141.6624   76.4737  223.4058 H   0  0  0  0  0  0  0  0  0  0  0  0
  140.0066   76.7562  222.8005 H   0  0  0  0  0  0  0  0  0  0  0  0
  141.6457   70.7808  218.4087 H   0  0  0  0  0  0  0  0  0  0  0  0
  141.4044   72.3571  217.5631 H   0  0  0  0  0  0  0  0  0  0  0  0
  142.6036   70.6116  216.1935 H   0  0  0  0  0  0  0  0  0  0  0  0
  143.5141   72.1394  216.4124 H   0  0  0  0  0  0  0  0  0  0  0  0
  144.2137   68.7873  216.2445 H   0  0  0  0  0  0  0  0  0  0  0  0
  146.0929   67.7159  217.4567 H   0  0  0  0  0  0  0  0  0  0  0  0
  147.1539   68.7835  219.4053 H   0  0  0  0  0  0  0  0  0  0  0  0
  146.3311   71.0119  220.2055 H   0  0  0  0  0  0  0  0  0  0  0  0
  144.6383   72.6697  220.0687 H   0  0  0  0  0  0  0  0  0  0  0  0
  144.6136   73.1846  218.3479 H   0  0  0  0  0  0  0  0  0  0  0  0
  1  2  2  0
  2  3  1  0
  3  4  1  0
  4  5  1  0
  5  6  1  0
  6  7  1  0
  7  8  1  0
  8  9  1  0
  9 10  1  0
  2 11  1  0
 11 12  2  0
 12 13  1  0
 13 14  1  0
 14 15  1  0
 15 16  1  0
 16 17  1  0
 17 18  2  0
 18 19  1  0
 19 20  2  0
 20 21  1  0
 21 22  2  0
 22 23  1  0
 13 24  2  0
 24 25  1  0
 25 26  1  0
 26 27  1  0
 27 28  1  0
 28 29  1  0
 29 30  2  0
 30 31  1  0
 31 32  2  0
 32 33  1  0
 33 34  2  0
 34 35  1  0
 25 36  2  0
 10  5  1  0
 36 11  1  0
 23 14  1  0
 35 26  1  0
 22 17  1  0
 34 29  1  0
  3 37  1  0
  4 38  1  0
  4 39  1  0
  5 40  1  6
  6 41  1  0
  6 42  1  0
  7 43  1  0
  7 44  1  0
  8 45  1  0
  8 46  1  0
  9 47  1  0
 10 48  1  0
 10 49  1  0
 15 50  1  0
 15 51  1  0
 16 52  1  0
 16 53  1  0
 18 54  1  0
 19 55  1  0
 20 56  1  0
 21 57  1  0
 23 58  1  0
 23 59  1  0
 27 60  1  0
 27 61  1  0
 28 62  1  0
 28 63  1  0
 30 64  1  0
 31 65  1  0
 32 66  1  0
 33 67  1  0
 35 68  1  0
 35 69  1  0
M  END
>  <smiles>  (60) 
O=C(NCC1CCCNC1)c1nc(N2CCc3ccccc3C2)nc(N2CCc3ccccc3C2)n1

>  <score_type>  (60) 
oracle

>  <origin>  (60) 
autodockgpu

>  <m_score__min__energy>  (60) 
-10.369999999999999

>  <m_primary>  (60) 
energy

>  <rmsd>  (60) 
9.212786851131273

>  <m_score__min__rmsd>  (60) 
9.212786851131273

>  <meeko>  (60) 
{"free_energy": -9.81, "intermolecular_energy": -11.3, "internal_energy": -0.9, "cluster_size": 35, "cluster_id": 1, "rank_in_cluster": 16}

>  <energy>  (60) 
-10.19

>  <cluster_rmsd>  (60) 
0.26

>  <cluster>  (60) 
1

$$$$

     RDKit          3D

 69 74  0  0  0  0  0  0  0  0999 V2000
  139.4370   71.0920  221.7290 O   0  0  0  0  0  0  0  0  0  0  0  0
  140.1180   71.9130  222.4270 C   0  0  0  0  0  0  0  0  0  0  0  0
  140.2410   71.5980  223.8100 N   0  0  0  0  0  0  0  0  0  0  0  0
  139.5840   70.3910  224.2670 C   0  0  0  0  0  0  0  0  0  0  0  0
  140.3100   69.7280  225.4250 C   0  0  1  0  0  0  0  0  0  0  0  0
  140.4630   70.7910  226.4820 C   0  0  0  0  0  0  0  0  0  0  0  0
  140.3390   70.2820  227.8880 C   0  0  0  0  0  0  0  0  0  0  0  0
  140.8440   68.8380  227.8560 C   0  0  0  0  0  0  0  0  0  0  0  0
  139.8420   68.0700  227.1860 N   0  0  0  0  0  0  0  0  0  0  0  0
  139.4870   68.5590  225.8850 C   0  0  0  0  0  0  0  0  0  0  0  0
  140.7360   73.0970  221.8670 C   0  0  0  0  0  0  0  0  0  0  0  0
  141.6880   73.0400  220.9180 N   0  0  0  0  0  0  0  0  0  0  0  0
  142.2200   74.1890  220.4440 C   0  0  0  0  0  0  0  0  0  0  0  0
  143.2330   74.1150  219.4320 N   0  0  0  0  0  0  0  0  0  0  0  0
  144.5050   73.5750  219.8060 C   0  0  0  0  0  0  0  0  0  0  0  0
  145.0200   72.7360  218.6300 C   0  0  0  0  0  0  0  0  0  0  0  0
  145.1740   73.7020  217.5000 C   0  0  0  0  0  0  0  0  0  0  0  0
  146.3240   73.7070  216.7100 C   0  0  0  0  0  0  0  0  0  0  0  0
  146.3700   74.6390  215.6890 C   0  0  0  0  0  0  0  0  0  0  0  0
  145.3510   75.5320  215.4350 C   0  0  0  0  0  0  0  0  0  0  0  0
  144.2190   75.5000  216.2400 C   0  0  0  0  0  0  0  0  0  0  0  0
  144.1300   74.5760  217.2840 C   0  0  0  0  0  0  0  0  0  0  0  0
  142.8940   74.5920  218.1090 C   0  0  0  0  0  0  0  0  0  0  0  0
  141.7820   75.3680  220.9350 N   0  0  0  0  0  0  0  0  0  0  0  0
  140.8320   75.4510  221.8850 C   0  0  0  0  0  0  0  0  0  0  0  0
  140.4290   76.7280  222.3470 N   0  0  0  0  0  0  0  0  0  0  0  0
  139.1230   77.2150  222.0220 C   0  0  0  0  0  0  0  0  0  0  0  0
  138.8420   78.5100  222.7470 C   0  0  0  0  0  0  0  0  0  0  0  0
  139.9550   79.4570  222.4890 C   0  0  0  0  0  0  0  0  0  0  0  0
  139.7820   80.7460  222.0740 C   0  0  0  0  0  0  0  0  0  0  0  0
  140.9150   81.5130  221.8740 C   0  0  0  0  0  0  0  0  0  0  0  0
  142.1910   81.0240  222.0780 C   0  0  0  0  0  0  0  0  0  0  0  0
  142.3660   79.7170  222.4990 C   0  0  0  0  0  0  0  0  0  0  0  0
  141.2420   78.9610  222.6960 C   0  0  0  0  0  0  0  0  0  0  0  0
  141.3270   77.5470  223.1470 C   0  0  0  0  0  0  0  0  0  0  0  0
  140.3150   74.2970  222.3440 N   0  0  0  0  0  0  0  0  0  0  0  0
  140.7750   72.2070  224.4530 H   0  0  0  0  0  0  0  0  0  0  0  0
  138.5647   70.6471  224.5916 H   0  0  0  0  0  0  0  0  0  0  0  0
  139.5785   69.6791  223.4284 H   0  0  0  0  0  0  0  0  0  0  0  0
  141.3038   69.3372  225.1611 H   0  0  0  0  0  0  0  0  0  0  0  0
  141.4557   71.2508  226.3678 H   0  0  0  0  0  0  0  0  0  0  0  0
  139.6419   71.5073  226.3314 H   0  0  0  0  0  0  0  0  0  0  0  0
  140.9539   70.8876  228.5700 H   0  0  0  0  0  0  0  0  0  0  0  0
  139.3015   70.3396  228.2489 H   0  0  0  0  0  0  0  0  0  0  0  0
  141.7959   68.7808  227.3077 H   0  0  0  0  0  0  0  0  0  0  0  0
  141.0221   68.4573  228.8725 H   0  0  0  0  0  0  0  0  0  0  0  0
  139.9810   67.0390  227.2470 H   0  0  0  0  0  0  0  0  0  0  0  0
  139.6145   67.7404  225.1614 H   0  0  0  0  0  0  0  0  0  0  0  0
  138.4463   68.9092  225.9503 H   0  0  0  0  0  0  0  0  0  0  0  0
  145.2101   74.3916  220.0207 H   0  0  0  0  0  0  0  0  0  0  0  0
  144.4093   72.9543  220.7091 H   0  0  0  0  0  0  0  0  0  0  0  0
  145.9875   72.2754  218.8788 H   0  0  0  0  0  0  0  0  0  0  0  0
  144.3337   71.9139  218.3786 H   0  0  0  0  0  0  0  0  0  0  0  0
  147.1519   73.0055  216.8900 H   0  0  0  0  0  0  0  0  0  0  0  0
  147.2636   74.6691  215.0482 H   0  0  0  0  0  0  0  0  0  0  0  0
  145.4325   76.2560  214.6109 H   0  0  0  0  0  0  0  0  0  0  0  0
  143.3928   76.2023  216.0553 H   0  0  0  0  0  0  0  0  0  0  0  0
  142.5002   75.6172  218.1714 H   0  0  0  0  0  0  0  0  0  0  0  0
  142.1245   73.9491  217.6567 H   0  0  0  0  0  0  0  0  0  0  0  0
  139.0612   77.3873  220.9373 H   0  0  0  0  0  0  0  0  0  0  0  0
  138.3786   76.4668  222.3319 H   0  0  0  0  0  0  0  0  0  0  0  0
  137.8984   78.9408  222.3809 H   0  0  0  0  0  0  0  0  0  0  0  0
  138.7564   78.3212  223.8273 H   0  0  0  0  0  0  0  0  0  0  0  0
  138.7769   81.1598  221.9047 H   0  0  0  0  0  0  0  0  0  0  0  0
  140.7957   82.5540  221.5391 H   0  0  0  0  0  0  0  0  0  0  0  0
  143.0642   81.6706  221.9066 H   0  0  0  0  0  0  0  0  0  0  0  0
  143.3703   79.3016  222.6688 H   0  0  0  0  0  0  0  0  0  0  0  0
  142.3587   77.1850  223.0264 H   0  0  0  0  0  0  0  0  0  0  0  0
  141.0371   77.4819  224.2061 H   0  0  0  0  0  0  0  0  0  0  0  0
  1  2  2  0
  2  3  1  0
  3  4  1  0
  4  5  1  0
  5  6  1  0
  6  7  1  0
  7  8  1  0
  8  9  1  0
  9 10  1  0
  2 11  1  0
 11 12  2  0
 12 13  1  0
 13 14  1  0
 14 15  1  0
 15 16  1  0
 16 17  1  0
 17 18  2  0
 18 19  1  0
 19 20  2  0
 20 21  1  0
 21 22  2  0
 22 23  1  0
 13 24  2  0
 24 25  1  0
 25 26  1  0
 26 27  1  0
 27 28  1  0
 28 29  1  0
 29 30  2  0
 30 31  1  0
 31 32  2  0
 32 33  1  0
 33 34  2  0
 34 35  1  0
 25 36  2  0
 10  5  1  0
 36 11  1  0
 23 14  1  0
 35 26  1  0
 22 17  1  0
 34 29  1  0
  3 37  1  0
  4 38  1  0
  4 39  1  0
  5 40  1  6
  6 41  1  0
  6 42  1  0
  7 43  1  0
  7 44  1  0
  8 45  1  0
  8 46  1  0
  9 47  1  0
 10 48  1  0
 10 49  1  0
 15 50  1  0
 15 51  1  0
 16 52  1  0
 16 53  1  0
 18 54  1  0
 19 55  1  0
 20 56  1  0
 21 57  1  0
 23 58  1  0
 23 59  1  0
 27 60  1  0
 27 61  1  0
 28 62  1  0
 28 63  1  0
 30 64  1  0
 31 65  1  0
 32 66  1  0
 33 67  1  0
 35 68  1  0
 35 69  1  0
M  END
>  <smiles>  (61) 
O=C(NCC1CCCNC1)c1nc(N2CCc3ccccc3C2)nc(N2CCc3ccccc3C2)n1

>  <score_type>  (61) 
oracle

>  <origin>  (61) 
autodockgpu

>  <m_score__min__energy>  (61) 
-10.369999999999999

>  <m_primary>  (61) 
energy

>  <rmsd>  (61) 
8.988091172126214

>  <m_score__min__rmsd>  (61) 
8.988091172126214

>  <meeko>  (61) 
{"free_energy": -9.75, "intermolecular_energy": -11.25, "internal_energy": -0.97, "cluster_size": 35, "cluster_id": 1, "rank_in_cluster": 18}

>  <energy>  (61) 
-10.15

>  <cluster_rmsd>  (61) 
0.28

>  <cluster>  (61) 
1

$$$$

     RDKit          3D

 69 74  0  0  0  0  0  0  0  0999 V2000
  140.2850   70.2990  222.1950 O   0  0  0  0  0  0  0  0  0  0  0  0
  140.0560   71.4670  222.6490 C   0  0  0  0  0  0  0  0  0  0  0  0
  139.2090   71.5330  223.7910 N   0  0  0  0  0  0  0  0  0  0  0  0
  138.7040   70.2770  224.3060 C   0  0  0  0  0  0  0  0  0  0  0  0
  139.6990   69.5690  225.2100 C   0  0  1  0  0  0  0  0  0  0  0  0
  140.3010   70.6400  226.0840 C   0  0  0  0  0  0  0  0  0  0  0  0
  140.5950   70.1940  227.4860 C   0  0  0  0  0  0  0  0  0  0  0  0
  140.9080   68.7000  227.3940 C   0  0  0  0  0  0  0  0  0  0  0  0
  139.6670   68.0380  227.1400 N   0  0  0  0  0  0  0  0  0  0  0  0
  138.9560   68.5230  225.9930 C   0  0  0  0  0  0  0  0  0  0  0  0
  140.6140   72.6650  222.0570 C   0  0  0  0  0  0  0  0  0  0  0  0
  140.1410   73.8960  222.3230 N   0  0  0  0  0  0  0  0  0  0  0  0
  140.7130   74.9670  221.7310 C   0  0  0  0  0  0  0  0  0  0  0  0
  140.1990   76.2740  222.0240 N   0  0  0  0  0  0  0  0  0  0  0  0
  138.8600   76.5680  221.6100 C   0  0  0  0  0  0  0  0  0  0  0  0
  138.2120   77.4260  222.7040 C   0  0  0  0  0  0  0  0  0  0  0  0
  139.0300   78.6770  222.7550 C   0  0  0  0  0  0  0  0  0  0  0  0
  138.4230   79.9320  222.7970 C   0  0  0  0  0  0  0  0  0  0  0  0
  139.2670   81.0270  222.8430 C   0  0  0  0  0  0  0  0  0  0  0  0
  140.6410   80.9210  222.8490 C   0  0  0  0  0  0  0  0  0  0  0  0
  141.2150   79.6560  222.8070 C   0  0  0  0  0  0  0  0  0  0  0  0
  140.4000   78.5220  222.7590 C   0  0  0  0  0  0  0  0  0  0  0  0
  141.0730   77.1980  222.7150 C   0  0  0  0  0  0  0  0  0  0  0  0
  141.7470   74.7770  220.8840 N   0  0  0  0  0  0  0  0  0  0  0  0
  142.2380   73.5560  220.6020 C   0  0  0  0  0  0  0  0  0  0  0  0
  143.3260   73.4430  219.7010 N   0  0  0  0  0  0  0  0  0  0  0  0
  143.1830   73.9220  218.3600 C   0  0  0  0  0  0  0  0  0  0  0  0
  144.5020   73.8560  217.6270 C   0  0  0  0  0  0  0  0  0  0  0  0
  145.0560   72.4860  217.7560 C   0  0  0  0  0  0  0  0  0  0  0  0
  145.5100   71.7420  216.7060 C   0  0  0  0  0  0  0  0  0  0  0  0
  146.0000   70.4790  216.9780 C   0  0  0  0  0  0  0  0  0  0  0  0
  146.0440   69.9560  218.2570 C   0  0  0  0  0  0  0  0  0  0  0  0
  145.5840   70.7110  219.3220 C   0  0  0  0  0  0  0  0  0  0  0  0
  145.1000   71.9610  219.0480 C   0  0  0  0  0  0  0  0  0  0  0  0
  144.5830   72.8470  220.1250 C   0  0  0  0  0  0  0  0  0  0  0  0
  141.6550   72.5020  221.2000 N   0  0  0  0  0  0  0  0  0  0  0  0
  138.9680   72.4390  224.2290 H   0  0  0  0  0  0  0  0  0  0  0  0
  137.7870   70.4758  224.8802 H   0  0  0  0  0  0  0  0  0  0  0  0
  138.5119   69.6193  223.4455 H   0  0  0  0  0  0  0  0  0  0  0  0
  140.5045   69.0530  224.6669 H   0  0  0  0  0  0  0  0  0  0  0  0
  141.2425   70.9731  225.6230 H   0  0  0  0  0  0  0  0  0  0  0  0
  139.5553   71.4453  226.1575 H   0  0  0  0  0  0  0  0  0  0  0  0
  141.4598   70.7420  227.8883 H   0  0  0  0  0  0  0  0  0  0  0  0
  139.7458   70.3880  228.1578 H   0  0  0  0  0  0  0  0  0  0  0  0
  141.6146   68.5101  226.5726 H   0  0  0  0  0  0  0  0  0  0  0  0
  141.3705   68.3335  228.3223 H   0  0  0  0  0  0  0  0  0  0  0  0
  139.7110   67.0000  227.2250 H   0  0  0  0  0  0  0  0  0  0  0  0
  138.7527   67.6717  225.3267 H   0  0  0  0  0  0  0  0  0  0  0  0
  138.0367   68.9981  226.3660 H   0  0  0  0  0  0  0  0  0  0  0  0
  138.8746   77.1212  220.6593 H   0  0  0  0  0  0  0  0  0  0  0  0
  138.2900   75.6392  221.4604 H   0  0  0  0  0  0  0  0  0  0  0  0
  137.1682   77.6576  222.4454 H   0  0  0  0  0  0  0  0  0  0  0  0
  138.1902   76.9084  223.6744 H   0  0  0  0  0  0  0  0  0  0  0  0
  137.3289   80.0453  222.7937 H   0  0  0  0  0  0  0  0  0  0  0  0
  138.8196   82.0313  222.8764 H   0  0  0  0  0  0  0  0  0  0  0  0
  141.2720   81.8213  222.8863 H   0  0  0  0  0  0  0  0  0  0  0  0
  142.3096   79.5476  222.8116 H   0  0  0  0  0  0  0  0  0  0  0  0
  142.0280   77.2826  222.1757 H   0  0  0  0  0  0  0  0  0  0  0  0
  141.2780   76.8398  223.7346 H   0  0  0  0  0  0  0  0  0  0  0  0
  142.4445   73.3012  217.8315 H   0  0  0  0  0  0  0  0  0  0  0  0
  142.8477   74.9692  218.3919 H   0  0  0  0  0  0  0  0  0  0  0  0
  144.3459   74.0925  216.5641 H   0  0  0  0  0  0  0  0  0  0  0  0
  145.2047   74.5841  218.0584 H   0  0  0  0  0  0  0  0  0  0  0  0
  145.4867   72.1342  215.6785 H   0  0  0  0  0  0  0  0  0  0  0  0
  146.3699   69.8651  216.1435 H   0  0  0  0  0  0  0  0  0  0  0  0
  146.4426   68.9450  218.4274 H   0  0  0  0  0  0  0  0  0  0  0  0
  145.6067   70.3206  220.3502 H   0  0  0  0  0  0  0  0  0  0  0  0
  144.4191   72.2565  221.0384 H   0  0  0  0  0  0  0  0  0  0  0  0
  145.3154   73.6421  220.3288 H   0  0  0  0  0  0  0  0  0  0  0  0
  1  2  2  0
  2  3  1  0
  3  4  1  0
  4  5  1  0
  5  6  1  0
  6  7  1  0
  7  8  1  0
  8  9  1  0
  9 10  1  0
  2 11  1  0
 11 12  2  0
 12 13  1  0
 13 14  1  0
 14 15  1  0
 15 16  1  0
 16 17  1  0
 17 18  2  0
 18 19  1  0
 19 20  2  0
 20 21  1  0
 21 22  2  0
 22 23  1  0
 13 24  2  0
 24 25  1  0
 25 26  1  0
 26 27  1  0
 27 28  1  0
 28 29  1  0
 29 30  2  0
 30 31  1  0
 31 32  2  0
 32 33  1  0
 33 34  2  0
 34 35  1  0
 25 36  2  0
 10  5  1  0
 36 11  1  0
 23 14  1  0
 35 26  1  0
 22 17  1  0
 34 29  1  0
  3 37  1  0
  4 38  1  0
  4 39  1  0
  5 40  1  6
  6 41  1  0
  6 42  1  0
  7 43  1  0
  7 44  1  0
  8 45  1  0
  8 46  1  0
  9 47  1  0
 10 48  1  0
 10 49  1  0
 15 50  1  0
 15 51  1  0
 16 52  1  0
 16 53  1  0
 18 54  1  0
 19 55  1  0
 20 56  1  0
 21 57  1  0
 23 58  1  0
 23 59  1  0
 27 60  1  0
 27 61  1  0
 28 62  1  0
 28 63  1  0
 30 64  1  0
 31 65  1  0
 32 66  1  0
 33 67  1  0
 35 68  1  0
 35 69  1  0
M  END
>  <smiles>  (62) 
O=C(NCC1CCCNC1)c1nc(N2CCc3ccccc3C2)nc(N2CCc3ccccc3C2)n1

>  <score_type>  (62) 
oracle

>  <origin>  (62) 
autodockgpu

>  <m_score__min__energy>  (62) 
-10.369999999999999

>  <m_primary>  (62) 
energy

>  <rmsd>  (62) 
8.927510084738786

>  <m_score__min__rmsd>  (62) 
8.927510084738786

>  <meeko>  (62) 
{"free_energy": -9.67, "intermolecular_energy": -11.16, "internal_energy": -1.18, "cluster_size": 35, "cluster_id": 1, "rank_in_cluster": 24}

>  <energy>  (62) 
-10.13

>  <cluster_rmsd>  (62) 
0.31

>  <cluster>  (62) 
1

$$$$

     RDKit          3D

 69 74  0  0  0  0  0  0  0  0999 V2000
  140.3650   70.4200  221.9820 O   0  0  0  0  0  0  0  0  0  0  0  0
  140.2390   71.5830  222.4900 C   0  0  0  0  0  0  0  0  0  0  0  0
  139.5020   71.6500  223.7070 N   0  0  0  0  0  0  0  0  0  0  0  0
  138.9820   70.4030  224.2270 C   0  0  0  0  0  0  0  0  0  0  0  0
  139.9280   69.7350  225.2100 C   0  0  1  0  0  0  0  0  0  0  0  0
  140.3630   70.8140  226.1670 C   0  0  0  0  0  0  0  0  0  0  0  0
  140.5460   70.3450  227.5810 C   0  0  0  0  0  0  0  0  0  0  0  0
  140.9710   68.8780  227.4830 C   0  0  0  0  0  0  0  0  0  0  0  0
  139.8110   68.1430  227.0870 N   0  0  0  0  0  0  0  0  0  0  0  0
  139.1860   68.6170  225.8860 C   0  0  0  0  0  0  0  0  0  0  0  0
  140.8020   72.7710  221.8850 C   0  0  0  0  0  0  0  0  0  0  0  0
  141.7650   72.7220  220.9460 N   0  0  0  0  0  0  0  0  0  0  0  0
  142.2420   73.8760  220.4280 C   0  0  0  0  0  0  0  0  0  0  0  0
  143.2680   73.8100  219.4270 N   0  0  0  0  0  0  0  0  0  0  0  0
  144.5150   73.2100  219.7960 C   0  0  0  0  0  0  0  0  0  0  0  0
  145.0190   72.4050  218.5910 C   0  0  0  0  0  0  0  0  0  0  0  0
  145.2230   73.4140  217.5060 C   0  0  0  0  0  0  0  0  0  0  0  0
  146.3850   73.4130  216.7330 C   0  0  0  0  0  0  0  0  0  0  0  0
  146.4790   74.3860  215.7550 C   0  0  0  0  0  0  0  0  0  0  0  0
  145.4950   75.3240  215.5270 C   0  0  0  0  0  0  0  0  0  0  0  0
  144.3500   75.2970  216.3130 C   0  0  0  0  0  0  0  0  0  0  0  0
  144.2130   74.3320  217.3140 C   0  0  0  0  0  0  0  0  0  0  0  0
  142.9660   74.3560  218.1220 C   0  0  0  0  0  0  0  0  0  0  0  0
  141.7410   75.0510  220.8640 N   0  0  0  0  0  0  0  0  0  0  0  0
  140.7780   75.1250  221.8010 C   0  0  0  0  0  0  0  0  0  0  0  0
  140.3070   76.3990  222.2050 N   0  0  0  0  0  0  0  0  0  0  0  0
  139.0380   76.8630  221.7320 C   0  0  0  0  0  0  0  0  0  0  0  0
  138.6580   78.1580  222.4100 C   0  0  0  0  0  0  0  0  0  0  0  0
  139.7780   79.1210  222.2710 C   0  0  0  0  0  0  0  0  0  0  0  0
  139.6340   80.4040  221.8280 C   0  0  0  0  0  0  0  0  0  0  0  0
  140.7700   81.1870  221.7500 C   0  0  0  0  0  0  0  0  0  0  0  0
  142.0220   80.7210  222.1000 C   0  0  0  0  0  0  0  0  0  0  0  0
  142.1680   79.4200  222.5480 C   0  0  0  0  0  0  0  0  0  0  0  0
  141.0410   78.6470  222.6240 C   0  0  0  0  0  0  0  0  0  0  0  0
  141.0960   77.2370  223.0940 C   0  0  0  0  0  0  0  0  0  0  0  0
  140.3160   73.9670  222.3060 N   0  0  0  0  0  0  0  0  0  0  0  0
  139.3490   72.5510  224.1910 H   0  0  0  0  0  0  0  0  0  0  0  0
  138.0293   70.6055  224.7383 H   0  0  0  0  0  0  0  0  0  0  0  0
  138.8510   69.7183  223.3761 H   0  0  0  0  0  0  0  0  0  0  0  0
  140.8180   69.2922  224.7390 H   0  0  0  0  0  0  0  0  0  0  0  0
  141.3204   71.2238  225.8128 H   0  0  0  0  0  0  0  0  0  0  0  0
  139.5587   71.5642  226.1844 H   0  0  0  0  0  0  0  0  0  0  0  0
  141.3257   70.9368  228.0828 H   0  0  0  0  0  0  0  0  0  0  0  0
  139.6230   70.4604  228.1681 H   0  0  0  0  0  0  0  0  0  0  0  0
  141.7677   68.7628  226.7333 H   0  0  0  0  0  0  0  0  0  0  0  0
  141.3631   68.5133  228.4439 H   0  0  0  0  0  0  0  0  0  0  0  0
  139.9180   67.1090  227.1500 H   0  0  0  0  0  0  0  0  0  0  0  0
  139.1102   67.7763  225.1807 H   0  0  0  0  0  0  0  0  0  0  0  0
  138.2033   69.0174  226.1758 H   0  0  0  0  0  0  0  0  0  0  0  0
  145.2443   73.9912  220.0564 H   0  0  0  0  0  0  0  0  0  0  0  0
  144.3841   72.5549  220.6699 H   0  0  0  0  0  0  0  0  0  0  0  0
  145.9663   71.9007  218.8324 H   0  0  0  0  0  0  0  0  0  0  0  0
  144.3090   71.6189  218.2945 H   0  0  0  0  0  0  0  0  0  0  0  0
  147.1854   72.6757  216.8936 H   0  0  0  0  0  0  0  0  0  0  0  0
  147.3828   74.4128  215.1286 H   0  0  0  0  0  0  0  0  0  0  0  0
  145.6143   76.0801  214.7370 H   0  0  0  0  0  0  0  0  0  0  0  0
  143.5514   76.0351  216.1474 H   0  0  0  0  0  0  0  0  0  0  0  0
  142.6074   75.3909  218.2243 H   0  0  0  0  0  0  0  0  0  0  0  0
  142.1814   73.7613  217.6313 H   0  0  0  0  0  0  0  0  0  0  0  0
  139.0952   77.0271  220.6458 H   0  0  0  0  0  0  0  0  0  0  0  0
  138.2751   76.1050  221.9632 H   0  0  0  0  0  0  0  0  0  0  0  0
  137.7551   78.5712  221.9368 H   0  0  0  0  0  0  0  0  0  0  0  0
  138.4547   77.9747  223.4754 H   0  0  0  0  0  0  0  0  0  0  0  0
  138.6484   80.8007  221.5431 H   0  0  0  0  0  0  0  0  0  0  0  0
  140.6731   82.2235  221.3947 H   0  0  0  0  0  0  0  0  0  0  0  0
  142.8988   81.3808  222.0230 H   0  0  0  0  0  0  0  0  0  0  0  0
  143.1531   79.0218  222.8325 H   0  0  0  0  0  0  0  0  0  0  0  0
  142.1401   76.8908  223.0937 H   0  0  0  0  0  0  0  0  0  0  0  0
  140.6894   77.1742  224.1142 H   0  0  0  0  0  0  0  0  0  0  0  0
  1  2  2  0
  2  3  1  0
  3  4  1  0
  4  5  1  0
  5  6  1  0
  6  7  1  0
  7  8  1  0
  8  9  1  0
  9 10  1  0
  2 11  1  0
 11 12  2  0
 12 13  1  0
 13 14  1  0
 14 15  1  0
 15 16  1  0
 16 17  1  0
 17 18  2  0
 18 19  1  0
 19 20  2  0
 20 21  1  0
 21 22  2  0
 22 23  1  0
 13 24  2  0
 24 25  1  0
 25 26  1  0
 26 27  1  0
 27 28  1  0
 28 29  1  0
 29 30  2  0
 30 31  1  0
 31 32  2  0
 32 33  1  0
 33 34  2  0
 34 35  1  0
 25 36  2  0
 10  5  1  0
 36 11  1  0
 23 14  1  0
 35 26  1  0
 22 17  1  0
 34 29  1  0
  3 37  1  0
  4 38  1  0
  4 39  1  0
  5 40  1  6
  6 41  1  0
  6 42  1  0
  7 43  1  0
  7 44  1  0
  8 45  1  0
  8 46  1  0
  9 47  1  0
 10 48  1  0
 10 49  1  0
 15 50  1  0
 15 51  1  0
 16 52  1  0
 16 53  1  0
 18 54  1  0
 19 55  1  0
 20 56  1  0
 21 57  1  0
 23 58  1  0
 23 59  1  0
 27 60  1  0
 27 61  1  0
 28 62  1  0
 28 63  1  0
 30 64  1  0
 31 65  1  0
 32 66  1  0
 33 67  1  0
 35 68  1  0
 35 69  1  0
M  END
>  <smiles>  (63) 
O=C(NCC1CCCNC1)c1nc(N2CCc3ccccc3C2)nc(N2CCc3ccccc3C2)n1

>  <score_type>  (63) 
oracle

>  <origin>  (63) 
autodockgpu

>  <m_score__min__energy>  (63) 
-10.369999999999999

>  <m_primary>  (63) 
energy

>  <rmsd>  (63) 
8.865313600142732

>  <m_score__min__rmsd>  (63) 
8.865313600142732

>  <meeko>  (63) 
{"free_energy": -9.39, "intermolecular_energy": -10.89, "internal_energy": -1.26, "cluster_size": 35, "cluster_id": 1, "rank_in_cluster": 32}

>  <energy>  (63) 
-10.12

>  <cluster_rmsd>  (63) 
0.33

>  <cluster>  (63) 
1

$$$$

     RDKit          3D

 69 74  0  0  0  0  0  0  0  0999 V2000
  140.3230   70.2180  222.3990 O   0  0  0  0  0  0  0  0  0  0  0  0
  139.9170   71.3970  222.6610 C   0  0  0  0  0  0  0  0  0  0  0  0
  138.8870   71.4950  223.6390 N   0  0  0  0  0  0  0  0  0  0  0  0
  138.4180   70.2550  224.2230 C   0  0  0  0  0  0  0  0  0  0  0  0
  139.4730   69.5680  225.0730 C   0  0  1  0  0  0  0  0  0  0  0  0
  140.0800   70.6460  225.9340 C   0  0  0  0  0  0  0  0  0  0  0  0
  140.4490   70.1930  227.3160 C   0  0  0  0  0  0  0  0  0  0  0  0
  140.8050   68.7110  227.1890 C   0  0  0  0  0  0  0  0  0  0  0  0
  139.5760   68.0120  226.9800 N   0  0  0  0  0  0  0  0  0  0  0  0
  138.8000   68.4900  225.8720 C   0  0  0  0  0  0  0  0  0  0  0  0
  140.4560   72.5760  222.0160 C   0  0  0  0  0  0  0  0  0  0  0  0
  140.0460   73.8210  222.3180 N   0  0  0  0  0  0  0  0  0  0  0  0
  140.5960   74.8740  221.6730 C   0  0  0  0  0  0  0  0  0  0  0  0
  140.1500   76.1960  222.0050 N   0  0  0  0  0  0  0  0  0  0  0  0
  138.8370   76.5790  221.5810 C   0  0  0  0  0  0  0  0  0  0  0  0
  138.2190   77.4330  222.6950 C   0  0  0  0  0  0  0  0  0  0  0  0
  139.1030   78.6330  222.8030 C   0  0  0  0  0  0  0  0  0  0  0  0
  138.5660   79.9180  222.8810 C   0  0  0  0  0  0  0  0  0  0  0  0
  139.4680   80.9630  222.9770 C   0  0  0  0  0  0  0  0  0  0  0  0
  140.8340   80.7800  223.0000 C   0  0  0  0  0  0  0  0  0  0  0  0
  141.3370   79.4870  222.9210 C   0  0  0  0  0  0  0  0  0  0  0  0
  140.4620   78.4020  222.8220 C   0  0  0  0  0  0  0  0  0  0  0  0
  141.0620   77.0450  222.7410 C   0  0  0  0  0  0  0  0  0  0  0  0
  141.5460   74.6510  220.7400 N   0  0  0  0  0  0  0  0  0  0  0  0
  141.9720   73.4150  220.4200 C   0  0  0  0  0  0  0  0  0  0  0  0
  142.9720   73.2670  219.4280 N   0  0  0  0  0  0  0  0  0  0  0  0
  142.6170   73.3830  218.0470 C   0  0  0  0  0  0  0  0  0  0  0  0
  143.8500   73.3570  217.1740 C   0  0  0  0  0  0  0  0  0  0  0  0
  144.6610   72.1650  217.5230 C   0  0  0  0  0  0  0  0  0  0  0  0
  145.1450   71.2740  216.6090 C   0  0  0  0  0  0  0  0  0  0  0  0
  145.8870   70.2080  217.0820 C   0  0  0  0  0  0  0  0  0  0  0  0
  146.1490   70.0200  218.4250 C   0  0  0  0  0  0  0  0  0  0  0  0
  145.6570   70.9230  219.3520 C   0  0  0  0  0  0  0  0  0  0  0  0
  144.9230   71.9770  218.8800 C   0  0  0  0  0  0  0  0  0  0  0  0
  144.3530   72.9990  219.7980 C   0  0  0  0  0  0  0  0  0  0  0  0
  141.4120   72.3800  221.0720 N   0  0  0  0  0  0  0  0  0  0  0  0
  138.4960   72.4120  223.9160 H   0  0  0  0  0  0  0  0  0  0  0  0
  137.5445   70.4726  224.8552 H   0  0  0  0  0  0  0  0  0  0  0  0
  138.1646   69.5749  223.3964 H   0  0  0  0  0  0  0  0  0  0  0  0
  140.2692   69.0846  224.4879 H   0  0  0  0  0  0  0  0  0  0  0  0
  140.9898   71.0134  225.4368 H   0  0  0  0  0  0  0  0  0  0  0  0
  139.3139   71.4267  226.0508 H   0  0  0  0  0  0  0  0  0  0  0  0
  141.3127   70.7636  227.6881 H   0  0  0  0  0  0  0  0  0  0  0  0
  139.6247   70.3513  228.0270 H   0  0  0  0  0  0  0  0  0  0  0  0
  141.4804   68.5548  226.3349 H   0  0  0  0  0  0  0  0  0  0  0  0
  141.3192   68.3480  228.0911 H   0  0  0  0  0  0  0  0  0  0  0  0
  139.6560   66.9760  227.0490 H   0  0  0  0  0  0  0  0  0  0  0  0
  138.5938   67.6416  225.2029 H   0  0  0  0  0  0  0  0  0  0  0  0
  137.8843   68.9312  226.2925 H   0  0  0  0  0  0  0  0  0  0  0  0
  138.8990   77.1636  220.6512 H   0  0  0  0  0  0  0  0  0  0  0  0
  138.2189   75.6896  221.3889 H   0  0  0  0  0  0  0  0  0  0  0  0
  137.1941   77.7313  222.4292 H   0  0  0  0  0  0  0  0  0  0  0  0
  138.1523   76.8839  223.6458 H   0  0  0  0  0  0  0  0  0  0  0  0
  137.4799   80.0919  222.8669 H   0  0  0  0  0  0  0  0  0  0  0  0
  139.0761   81.9890  223.0379 H   0  0  0  0  0  0  0  0  0  0  0  0
  141.5134   81.6415  223.0794 H   0  0  0  0  0  0  0  0  0  0  0  0
  142.4238   79.3176  222.9364 H   0  0  0  0  0  0  0  0  0  0  0  0
  142.0290   77.0950  222.2191 H   0  0  0  0  0  0  0  0  0  0  0  0
  141.2303   76.6408  223.7501 H   0  0  0  0  0  0  0  0  0  0  0  0
  141.9616   72.5438  217.7710 H   0  0  0  0  0  0  0  0  0  0  0  0
  142.0965   74.3401  217.8951 H   0  0  0  0  0  0  0  0  0  0  0  0
  143.5525   73.3044  216.1163 H   0  0  0  0  0  0  0  0  0  0  0  0
  144.4410   74.2704  217.3366 H   0  0  0  0  0  0  0  0  0  0  0  0
  144.9513   71.4000  215.5335 H   0  0  0  0  0  0  0  0  0  0  0  0
  146.2849   69.4800  216.3597 H   0  0  0  0  0  0  0  0  0  0  0  0
  146.7455   69.1572  218.7564 H   0  0  0  0  0  0  0  0  0  0  0  0
  145.8490   70.7978  220.4279 H   0  0  0  0  0  0  0  0  0  0  0  0
  144.3896   72.6245  220.8316 H   0  0  0  0  0  0  0  0  0  0  0  0
  144.9392   73.9267  219.7231 H   0  0  0  0  0  0  0  0  0  0  0  0
  1  2  2  0
  2  3  1  0
  3  4  1  0
  4  5  1  0
  5  6  1  0
  6  7  1  0
  7  8  1  0
  8  9  1  0
  9 10  1  0
  2 11  1  0
 11 12  2  0
 12 13  1  0
 13 14  1  0
 14 15  1  0
 15 16  1  0
 16 17  1  0
 17 18  2  0
 18 19  1  0
 19 20  2  0
 20 21  1  0
 21 22  2  0
 22 23  1  0
 13 24  2  0
 24 25  1  0
 25 26  1  0
 26 27  1  0
 27 28  1  0
 28 29  1  0
 29 30  2  0
 30 31  1  0
 31 32  2  0
 32 33  1  0
 33 34  2  0
 34 35  1  0
 25 36  2  0
 10  5  1  0
 36 11  1  0
 23 14  1  0
 35 26  1  0
 22 17  1  0
 34 29  1  0
  3 37  1  0
  4 38  1  0
  4 39  1  0
  5 40  1  6
  6 41  1  0
  6 42  1  0
  7 43  1  0
  7 44  1  0
  8 45  1  0
  8 46  1  0
  9 47  1  0
 10 48  1  0
 10 49  1  0
 15 50  1  0
 15 51  1  0
 16 52  1  0
 16 53  1  0
 18 54  1  0
 19 55  1  0
 20 56  1  0
 21 57  1  0
 23 58  1  0
 23 59  1  0
 27 60  1  0
 27 61  1  0
 28 62  1  0
 28 63  1  0
 30 64  1  0
 31 65  1  0
 32 66  1  0
 33 67  1  0
 35 68  1  0
 35 69  1  0
M  END
>  <smiles>  (64) 
O=C(NCC1CCCNC1)c1nc(N2CCc3ccccc3C2)nc(N2CCc3ccccc3C2)n1

>  <score_type>  (64) 
oracle

>  <origin>  (64) 
autodockgpu

>  <m_score__min__energy>  (64) 
-10.369999999999999

>  <m_primary>  (64) 
energy

>  <rmsd>  (64) 
8.869358179505364

>  <m_score__min__rmsd>  (64) 
8.869358179505364

>  <meeko>  (64) 
{"free_energy": -9.21, "intermolecular_energy": -10.7, "internal_energy": -1.18, "cluster_size": 35, "cluster_id": 1, "rank_in_cluster": 34}

>  <energy>  (64) 
-9.89

>  <cluster_rmsd>  (64) 
1.29

>  <cluster>  (64) 
1

$$$$

     RDKit          3D

 69 74  0  0  0  0  0  0  0  0999 V2000
  139.9330   70.9170  221.7500 O   0  0  0  0  0  0  0  0  0  0  0  0
  140.3530   71.9310  222.3980 C   0  0  0  0  0  0  0  0  0  0  0  0
  140.1970   71.8710  223.8120 N   0  0  0  0  0  0  0  0  0  0  0  0
  139.5850   70.6760  224.3540 C   0  0  0  0  0  0  0  0  0  0  0  0
  140.3580   70.0960  225.5250 C   0  0  1  0  0  0  0  0  0  0  0  0
  140.4990   71.2150  226.5250 C   0  0  0  0  0  0  0  0  0  0  0  0
  140.4230   70.7730  227.9570 C   0  0  0  0  0  0  0  0  0  0  0  0
  140.9760   69.3470  227.9830 C   0  0  0  0  0  0  0  0  0  0  0  0
  139.9850   68.5140  227.3770 N   0  0  0  0  0  0  0  0  0  0  0  0
  139.5860   68.9250  226.0620 C   0  0  0  0  0  0  0  0  0  0  0  0
  140.9540   73.0810  221.7560 C   0  0  0  0  0  0  0  0  0  0  0  0
  141.9260   72.9730  220.8320 N   0  0  0  0  0  0  0  0  0  0  0  0
  142.4390   74.0930  220.2770 C   0  0  0  0  0  0  0  0  0  0  0  0
  143.4750   73.9630  219.2930 N   0  0  0  0  0  0  0  0  0  0  0  0
  144.7040   73.3540  219.7010 C   0  0  0  0  0  0  0  0  0  0  0  0
  145.2040   72.4880  218.5380 C   0  0  0  0  0  0  0  0  0  0  0  0
  145.4430   73.4450  217.4140 C   0  0  0  0  0  0  0  0  0  0  0  0
  146.6130   73.3870  216.6570 C   0  0  0  0  0  0  0  0  0  0  0  0
  146.7390   74.3160  215.6390 C   0  0  0  0  0  0  0  0  0  0  0  0
  145.7790   75.2640  215.3600 C   0  0  0  0  0  0  0  0  0  0  0  0
  144.6240   75.2950  216.1330 C   0  0  0  0  0  0  0  0  0  0  0  0
  144.4550   74.3750  217.1710 C   0  0  0  0  0  0  0  0  0  0  0  0
  143.1990   74.4600  217.9620 C   0  0  0  0  0  0  0  0  0  0  0  0
  141.9630   75.2960  220.6620 N   0  0  0  0  0  0  0  0  0  0  0  0
  140.9910   75.4310  221.5830 C   0  0  0  0  0  0  0  0  0  0  0  0
  140.5480   76.7300  221.9330 N   0  0  0  0  0  0  0  0  0  0  0  0
  139.5790   77.3880  221.1100 C   0  0  0  0  0  0  0  0  0  0  0  0
  139.1280   78.6810  221.7490 C   0  0  0  0  0  0  0  0  0  0  0  0
  140.3230   79.4900  222.0930 C   0  0  0  0  0  0  0  0  0  0  0  0
  140.4790   80.8050  221.7620 C   0  0  0  0  0  0  0  0  0  0  0  0
  141.6480   81.4300  222.1500 C   0  0  0  0  0  0  0  0  0  0  0  0
  142.6450   80.7790  222.8510 C   0  0  0  0  0  0  0  0  0  0  0  0
  142.4870   79.4460  223.1870 C   0  0  0  0  0  0  0  0  0  0  0  0
  141.3280   78.8300  222.8010 C   0  0  0  0  0  0  0  0  0  0  0  0
  141.0660   77.4000  223.1150 C   0  0  0  0  0  0  0  0  0  0  0  0
  140.4940   74.3040  222.1260 N   0  0  0  0  0  0  0  0  0  0  0  0
  140.5090   72.6480  224.4190 H   0  0  0  0  0  0  0  0  0  0  0  0
  138.5686   70.9249  224.6931 H   0  0  0  0  0  0  0  0  0  0  0  0
  139.5762   69.9185  223.5564 H   0  0  0  0  0  0  0  0  0  0  0  0
  141.3582   69.7252  225.2563 H   0  0  0  0  0  0  0  0  0  0  0  0
  141.4732   71.7001  226.3649 H   0  0  0  0  0  0  0  0  0  0  0  0
  139.6514   71.8962  226.3589 H   0  0  0  0  0  0  0  0  0  0  0  0
  141.0318   71.4316  228.5940 H   0  0  0  0  0  0  0  0  0  0  0  0
  139.3924   70.8146  228.3394 H   0  0  0  0  0  0  0  0  0  0  0  0
  141.9160   69.2939  227.4142 H   0  0  0  0  0  0  0  0  0  0  0  0
  141.1911   69.0235  229.0121 H   0  0  0  0  0  0  0  0  0  0  0  0
  140.1610   67.4930  227.4860 H   0  0  0  0  0  0  0  0  0  0  0  0
  139.7260   68.0756  225.3772 H   0  0  0  0  0  0  0  0  0  0  0  0
  138.5357   69.2437  226.1343 H   0  0  0  0  0  0  0  0  0  0  0  0
  145.4468   74.1304  219.9363 H   0  0  0  0  0  0  0  0  0  0  0  0
  144.5496   72.7395  220.6002 H   0  0  0  0  0  0  0  0  0  0  0  0
  146.1370   71.9741  218.8126 H   0  0  0  0  0  0  0  0  0  0  0  0
  144.4802   71.7055  218.2661 H   0  0  0  0  0  0  0  0  0  0  0  0
  147.3957   72.6409  216.8588 H   0  0  0  0  0  0  0  0  0  0  0  0
  147.6499   74.2966  215.0227 H   0  0  0  0  0  0  0  0  0  0  0  0
  145.9238   75.9833  214.5405 H   0  0  0  0  0  0  0  0  0  0  0  0
  143.8440   76.0429  215.9277 H   0  0  0  0  0  0  0  0  0  0  0  0
  142.8619   75.5057  218.0163 H   0  0  0  0  0  0  0  0  0  0  0  0
  142.4069   73.8624  217.4873 H   0  0  0  0  0  0  0  0  0  0  0  0
  140.0264   77.6064  220.1291 H   0  0  0  0  0  0  0  0  0  0  0  0
  138.7071   76.7278  220.9922 H   0  0  0  0  0  0  0  0  0  0  0  0
  138.4944   79.2396  221.0444 H   0  0  0  0  0  0  0  0  0  0  0  0
  138.5499   78.4647  222.6595 H   0  0  0  0  0  0  0  0  0  0  0  0
  139.7008   81.3481  221.2056 H   0  0  0  0  0  0  0  0  0  0  0  0
  141.7911   82.4893  221.8903 H   0  0  0  0  0  0  0  0  0  0  0  0
  143.5595   81.3175  223.1404 H   0  0  0  0  0  0  0  0  0  0  0  0
  143.2642   78.9019  223.7437 H   0  0  0  0  0  0  0  0  0  0  0  0
  142.0026   76.9163  223.4295 H   0  0  0  0  0  0  0  0  0  0  0  0
  140.3272   77.3329  223.9272 H   0  0  0  0  0  0  0  0  0  0  0  0
  1  2  2  0
  2  3  1  0
  3  4  1  0
  4  5  1  0
  5  6  1  0
  6  7  1  0
  7  8  1  0
  8  9  1  0
  9 10  1  0
  2 11  1  0
 11 12  2  0
 12 13  1  0
 13 14  1  0
 14 15  1  0
 15 16  1  0
 16 17  1  0
 17 18  2  0
 18 19  1  0
 19 20  2  0
 20 21  1  0
 21 22  2  0
 22 23  1  0
 13 24  2  0
 24 25  1  0
 25 26  1  0
 26 27  1  0
 27 28  1  0
 28 29  1  0
 29 30  2  0
 30 31  1  0
 31 32  2  0
 32 33  1  0
 33 34  2  0
 34 35  1  0
 25 36  2  0
 10  5  1  0
 36 11  1  0
 23 14  1  0
 35 26  1  0
 22 17  1  0
 34 29  1  0
  3 37  1  0
  4 38  1  0
  4 39  1  0
  5 40  1  6
  6 41  1  0
  6 42  1  0
  7 43  1  0
  7 44  1  0
  8 45  1  0
  8 46  1  0
  9 47  1  0
 10 48  1  0
 10 49  1  0
 15 50  1  0
 15 51  1  0
 16 52  1  0
 16 53  1  0
 18 54  1  0
 19 55  1  0
 20 56  1  0
 21 57  1  0
 23 58  1  0
 23 59  1  0
 27 60  1  0
 27 61  1  0
 28 62  1  0
 28 63  1  0
 30 64  1  0
 31 65  1  0
 32 66  1  0
 33 67  1  0
 35 68  1  0
 35 69  1  0
M  END
>  <smiles>  (65) 
O=C(NCC1CCCNC1)c1nc(N2CCc3ccccc3C2)nc(N2CCc3ccccc3C2)n1

>  <score_type>  (65) 
oracle

>  <origin>  (65) 
autodockgpu

>  <m_score__min__energy>  (65) 
-10.369999999999999

>  <m_primary>  (65) 
energy

>  <rmsd>  (65) 
8.81195019365717

>  <m_score__min__rmsd>  (65) 
8.81195019365717

>  <meeko>  (65) 
{"free_energy": -9.62, "intermolecular_energy": -11.12, "internal_energy": -1.02, "cluster_size": 35, "cluster_id": 1, "rank_in_cluster": 25}

>  <energy>  (65) 
-9.85

>  <cluster_rmsd>  (65) 
1.27

>  <cluster>  (65) 
1

$$$$

     RDKit          3D

 69 74  0  0  0  0  0  0  0  0999 V2000
  138.7720   76.2870  222.4950 O   0  0  0  0  0  0  0  0  0  0  0  0
  139.6750   75.9000  221.6820 C   0  0  0  0  0  0  0  0  0  0  0  0
  140.0790   76.8550  220.7060 N   0  0  0  0  0  0  0  0  0  0  0  0
  139.4260   78.1470  220.7440 C   0  0  0  0  0  0  0  0  0  0  0  0
  140.2760   79.2170  221.4070 C   0  0  1  0  0  0  0  0  0  0  0  0
  139.6990   79.4100  222.7860 C   0  0  0  0  0  0  0  0  0  0  0  0
  140.7220   79.6930  223.8460 C   0  0  0  0  0  0  0  0  0  0  0  0
  141.8660   80.4250  223.1400 C   0  0  0  0  0  0  0  0  0  0  0  0
  142.5430   79.4500  222.3440 N   0  0  0  0  0  0  0  0  0  0  0  0
  141.6990   78.7360  221.4300 C   0  0  0  0  0  0  0  0  0  0  0  0
  140.2650   74.5790  221.7310 C   0  0  0  0  0  0  0  0  0  0  0  0
  139.9660   73.6850  222.6910 N   0  0  0  0  0  0  0  0  0  0  0  0
  140.5580   72.4700  222.6720 C   0  0  0  0  0  0  0  0  0  0  0  0
  140.2310   71.5260  223.7000 N   0  0  0  0  0  0  0  0  0  0  0  0
  139.0950   70.6810  223.4860 C   0  0  0  0  0  0  0  0  0  0  0  0
  139.4340   69.2930  224.0460 C   0  0  0  0  0  0  0  0  0  0  0  0
  139.6590   69.5070  225.5080 C   0  0  0  0  0  0  0  0  0  0  0  0
  139.0880   68.6560  226.4550 C   0  0  0  0  0  0  0  0  0  0  0  0
  139.3560   68.9380  227.7830 C   0  0  0  0  0  0  0  0  0  0  0  0
  140.1420   69.9960  228.1860 C   0  0  0  0  0  0  0  0  0  0  0  0
  140.6960   70.8240  227.2180 C   0  0  0  0  0  0  0  0  0  0  0  0
  140.4520   70.5770  225.8640 C   0  0  0  0  0  0  0  0  0  0  0  0
  141.0720   71.4990  224.8780 C   0  0  0  0  0  0  0  0  0  0  0  0
  141.4370   72.1820  221.6880 N   0  0  0  0  0  0  0  0  0  0  0  0
  141.7520   73.0590  220.7170 C   0  0  0  0  0  0  0  0  0  0  0  0
  142.6850   72.6790  219.7220 N   0  0  0  0  0  0  0  0  0  0  0  0
  143.9550   72.1470  220.1130 C   0  0  0  0  0  0  0  0  0  0  0  0
  144.7210   71.6560  218.9070 C   0  0  0  0  0  0  0  0  0  0  0  0
  144.7720   72.7400  217.8950 C   0  0  0  0  0  0  0  0  0  0  0  0
  145.9150   73.1570  217.2760 C   0  0  0  0  0  0  0  0  0  0  0  0
  145.8090   74.1800  216.3530 C   0  0  0  0  0  0  0  0  0  0  0  0
  144.6040   74.7810  216.0430 C   0  0  0  0  0  0  0  0  0  0  0  0
  143.4450   74.3580  216.6700 C   0  0  0  0  0  0  0  0  0  0  0  0
  143.5540   73.3450  217.5840 C   0  0  0  0  0  0  0  0  0  0  0  0
  142.3670   72.8220  218.3100 C   0  0  0  0  0  0  0  0  0  0  0  0
  141.1530   74.2630  220.7540 N   0  0  0  0  0  0  0  0  0  0  0  0
  140.8060   76.6300  220.0050 H   0  0  0  0  0  0  0  0  0  0  0  0
  139.2075   78.4608  219.7126 H   0  0  0  0  0  0  0  0  0  0  0  0
  138.5082   78.0367  221.3402 H   0  0  0  0  0  0  0  0  0  0  0  0
  140.2709   80.1806  220.8764 H   0  0  0  0  0  0  0  0  0  0  0  0
  138.9959   80.2552  222.7506 H   0  0  0  0  0  0  0  0  0  0  0  0
  139.2126   78.4624  223.0608 H   0  0  0  0  0  0  0  0  0  0  0  0
  140.2907   80.3273  224.6344 H   0  0  0  0  0  0  0  0  0  0  0  0
  141.0709   78.7678  224.3278 H   0  0  0  0  0  0  0  0  0  0  0  0
  141.4670   81.2264  222.5009 H   0  0  0  0  0  0  0  0  0  0  0  0
  142.5494   80.8887  223.8666 H   0  0  0  0  0  0  0  0  0  0  0  0
  143.4470   79.7790  221.9440 H   0  0  0  0  0  0  0  0  0  0  0  0
  142.1166   78.8435  220.4180 H   0  0  0  0  0  0  0  0  0  0  0  0
  141.6753   77.6903  221.7704 H   0  0  0  0  0  0  0  0  0  0  0  0
  138.2186   71.0920  224.0085 H   0  0  0  0  0  0  0  0  0  0  0  0
  138.8592   70.6167  222.4135 H   0  0  0  0  0  0  0  0  0  0  0  0
  138.5991   68.5959  223.8818 H   0  0  0  0  0  0  0  0  0  0  0  0
  140.3141   68.8538  223.5536 H   0  0  0  0  0  0  0  0  0  0  0  0
  138.4570   67.8043  226.1609 H   0  0  0  0  0  0  0  0  0  0  0  0
  138.9205   68.2860  228.5546 H   0  0  0  0  0  0  0  0  0  0  0  0
  140.3272   70.1813  229.2544 H   0  0  0  0  0  0  0  0  0  0  0  0
  141.3268   71.6741  227.5170 H   0  0  0  0  0  0  0  0  0  0  0  0
  141.1461   72.5092  225.3069 H   0  0  0  0  0  0  0  0  0  0  0  0
  142.0838   71.1552  224.6172 H   0  0  0  0  0  0  0  0  0  0  0  0
  144.5372   72.9337  220.6151 H   0  0  0  0  0  0  0  0  0  0  0  0
  143.7895   71.3008  220.7961 H   0  0  0  0  0  0  0  0  0  0  0  0
  145.7434   71.3816  219.2058 H   0  0  0  0  0  0  0  0  0  0  0  0
  144.2207   70.7733  218.4822 H   0  0  0  0  0  0  0  0  0  0  0  0
  146.8867   72.6947  217.5040 H   0  0  0  0  0  0  0  0  0  0  0  0
  146.7199   74.5297  215.8450 H   0  0  0  0  0  0  0  0  0  0  0  0
  144.5661   75.5922  215.3010 H   0  0  0  0  0  0  0  0  0  0  0  0
  142.4724   74.8187  216.4423 H   0  0  0  0  0  0  0  0  0  0  0  0
  141.5275   73.5230  218.1926 H   0  0  0  0  0  0  0  0  0  0  0  0
  142.0875   71.8417  217.8965 H   0  0  0  0  0  0  0  0  0  0  0  0
  1  2  2  0
  2  3  1  0
  3  4  1  0
  4  5  1  0
  5  6  1  0
  6  7  1  0
  7  8  1  0
  8  9  1  0
  9 10  1  0
  2 11  1  0
 11 12  2  0
 12 13  1  0
 13 14  1  0
 14 15  1  0
 15 16  1  0
 16 17  1  0
 17 18  2  0
 18 19  1  0
 19 20  2  0
 20 21  1  0
 21 22  2  0
 22 23  1  0
 13 24  2  0
 24 25  1  0
 25 26  1  0
 26 27  1  0
 27 28  1  0
 28 29  1  0
 29 30  2  0
 30 31  1  0
 31 32  2  0
 32 33  1  0
 33 34  2  0
 34 35  1  0
 25 36  2  0
 10  5  1  0
 36 11  1  0
 23 14  1  0
 35 26  1  0
 22 17  1  0
 34 29  1  0
  3 37  1  0
  4 38  1  0
  4 39  1  0
  5 40  1  6
  6 41  1  0
  6 42  1  0
  7 43  1  0
  7 44  1  0
  8 45  1  0
  8 46  1  0
  9 47  1  0
 10 48  1  0
 10 49  1  0
 15 50  1  0
 15 51  1  0
 16 52  1  0
 16 53  1  0
 18 54  1  0
 19 55  1  0
 20 56  1  0
 21 57  1  0
 23 58  1  0
 23 59  1  0
 27 60  1  0
 27 61  1  0
 28 62  1  0
 28 63  1  0
 30 64  1  0
 31 65  1  0
 32 66  1  0
 33 67  1  0
 35 68  1  0
 35 69  1  0
M  END
>  <smiles>  (66) 
O=C(NCC1CCCNC1)c1nc(N2CCc3ccccc3C2)nc(N2CCc3ccccc3C2)n1

>  <score_type>  (66) 
oracle

>  <origin>  (66) 
autodockgpu

>  <m_score__min__energy>  (66) 
-10.369999999999999

>  <m_primary>  (66) 
energy

>  <rmsd>  (66) 
3.902749106561868

>  <m_score__min__rmsd>  (66) 
3.902749106561868

>  <meeko>  (66) 
{"free_energy": -8.85, "intermolecular_energy": -10.34, "internal_energy": -1.39, "cluster_size": 1, "cluster_id": 5, "rank_in_cluster": 1}

>  <energy>  (66) 
-9.81

>  <cluster_rmsd>  (66) 
0.74

>  <cluster>  (66) 
1

$$$$

     RDKit          3D

 69 74  0  0  0  0  0  0  0  0999 V2000
  140.2220   70.2090  222.5370 O   0  0  0  0  0  0  0  0  0  0  0  0
  140.3100   71.4610  222.7560 C   0  0  0  0  0  0  0  0  0  0  0  0
  139.6810   71.9280  223.9450 N   0  0  0  0  0  0  0  0  0  0  0  0
  139.0150   70.9380  224.7660 C   0  0  0  0  0  0  0  0  0  0  0  0
  139.9720   70.1890  225.6770 C   0  0  1  0  0  0  0  0  0  0  0  0
  140.4810   71.2030  226.6690 C   0  0  0  0  0  0  0  0  0  0  0  0
  140.6990   70.6570  228.0490 C   0  0  0  0  0  0  0  0  0  0  0  0
  141.0670   69.1830  227.8630 C   0  0  0  0  0  0  0  0  0  0  0  0
  139.8670   68.5090  227.4760 N   0  0  0  0  0  0  0  0  0  0  0  0
  139.2160   69.0650  226.3250 C   0  0  0  0  0  0  0  0  0  0  0  0
  141.0030   72.3690  221.8660 C   0  0  0  0  0  0  0  0  0  0  0  0
  141.9280   71.9540  220.9810 N   0  0  0  0  0  0  0  0  0  0  0  0
  142.5340   72.8610  220.1830 C   0  0  0  0  0  0  0  0  0  0  0  0
  143.5180   72.4060  219.2440 N   0  0  0  0  0  0  0  0  0  0  0  0
  143.5950   73.0840  217.9850 C   0  0  0  0  0  0  0  0  0  0  0  0
  145.0770   73.1830  217.5990 C   0  0  0  0  0  0  0  0  0  0  0  0
  145.5390   71.7680  217.4610 C   0  0  0  0  0  0  0  0  0  0  0  0
  146.3060   71.3660  216.3660 C   0  0  0  0  0  0  0  0  0  0  0  0
  146.6840   70.0360  216.3300 C   0  0  0  0  0  0  0  0  0  0  0  0
  146.3410   69.1270  217.3080 C   0  0  0  0  0  0  0  0  0  0  0  0
  145.5780   69.5600  218.3850 C   0  0  0  0  0  0  0  0  0  0  0  0
  145.1720   70.8950  218.4620 C   0  0  0  0  0  0  0  0  0  0  0  0
  144.3580   71.2960  219.6390 C   0  0  0  0  0  0  0  0  0  0  0  0
  142.1950   74.1630  220.2910 N   0  0  0  0  0  0  0  0  0  0  0  0
  141.2740   74.6020  221.1680 C   0  0  0  0  0  0  0  0  0  0  0  0
  140.9770   75.9870  221.2200 N   0  0  0  0  0  0  0  0  0  0  0  0
  141.1300   76.7840  220.0420 C   0  0  0  0  0  0  0  0  0  0  0  0
  140.6060   78.1820  220.2720 C   0  0  0  0  0  0  0  0  0  0  0  0
  141.2320   78.7340  221.4990 C   0  0  0  0  0  0  0  0  0  0  0  0
  141.8280   79.9610  221.5690 C   0  0  0  0  0  0  0  0  0  0  0  0
  142.3690   80.3430  222.7810 C   0  0  0  0  0  0  0  0  0  0  0  0
  142.3270   79.5380  223.9040 C   0  0  0  0  0  0  0  0  0  0  0  0
  141.7220   78.2950  223.8320 C   0  0  0  0  0  0  0  0  0  0  0  0
  141.1870   77.9200  222.6300 C   0  0  0  0  0  0  0  0  0  0  0  0
  140.5180   76.6040  222.4540 C   0  0  0  0  0  0  0  0  0  0  0  0
  140.6820   73.6850  221.9550 N   0  0  0  0  0  0  0  0  0  0  0  0
  139.7010   72.9290  224.2040 H   0  0  0  0  0  0  0  0  0  0  0  0
  138.2626   71.4454  225.3876 H   0  0  0  0  0  0  0  0  0  0  0  0
  138.5562   70.2014  224.0900 H   0  0  0  0  0  0  0  0  0  0  0  0
  140.8273   69.7404  225.1505 H   0  0  0  0  0  0  0  0  0  0  0  0
  141.4388   71.5973  226.2987 H   0  0  0  0  0  0  0  0  0  0  0  0
  139.7056   71.9785  226.7546 H   0  0  0  0  0  0  0  0  0  0  0  0
  141.5175   71.1957  228.5488 H   0  0  0  0  0  0  0  0  0  0  0  0
  139.8028   70.7737  228.6760 H   0  0  0  0  0  0  0  0  0  0  0  0
  141.8311   69.0785  227.0786 H   0  0  0  0  0  0  0  0  0  0  0  0
  141.4806   68.7571  228.7890 H   0  0  0  0  0  0  0  0  0  0  0  0
  139.9390   67.4700  227.4840 H   0  0  0  0  0  0  0  0  0  0  0  0
  139.0836   68.2643  225.5824 H   0  0  0  0  0  0  0  0  0  0  0  0
  138.2602   69.4841  226.6724 H   0  0  0  0  0  0  0  0  0  0  0  0
  143.0455   72.5165  217.2195 H   0  0  0  0  0  0  0  0  0  0  0  0
  143.1481   74.0864  218.0590 H   0  0  0  0  0  0  0  0  0  0  0  0
  145.1929   73.7216  216.6469 H   0  0  0  0  0  0  0  0  0  0  0  0
  145.6620   73.7363  218.3485 H   0  0  0  0  0  0  0  0  0  0  0  0
  146.5949   72.0709  215.5725 H   0  0  0  0  0  0  0  0  0  0  0  0
  147.2878   69.6865  215.4795 H   0  0  0  0  0  0  0  0  0  0  0  0
  146.6655   68.0784  217.2368 H   0  0  0  0  0  0  0  0  0  0  0  0
  145.2933   68.8520  219.1773 H   0  0  0  0  0  0  0  0  0  0  0  0
  143.7325   70.4521  219.9654 H   0  0  0  0  0  0  0  0  0  0  0  0
  145.0115   71.5893  220.4738 H   0  0  0  0  0  0  0  0  0  0  0  0
  142.1965   76.8369  219.7778 H   0  0  0  0  0  0  0  0  0  0  0  0
  140.5571   76.3213  219.2249 H   0  0  0  0  0  0  0  0  0  0  0  0
  140.8588   78.8175  219.4105 H   0  0  0  0  0  0  0  0  0  0  0  0
  139.5128   78.1554  220.3909 H   0  0  0  0  0  0  0  0  0  0  0  0
  141.8755   80.6218  220.6909 H   0  0  0  0  0  0  0  0  0  0  0  0
  142.8530   81.3280  222.8557 H   0  0  0  0  0  0  0  0  0  0  0  0
  142.7716   79.8831  224.8491 H   0  0  0  0  0  0  0  0  0  0  0  0
  141.6732   77.6330  224.7091 H   0  0  0  0  0  0  0  0  0  0  0  0
  140.7646   75.9509  223.3041 H   0  0  0  0  0  0  0  0  0  0  0  0
  139.4288   76.7502  222.4072 H   0  0  0  0  0  0  0  0  0  0  0  0
  1  2  2  0
  2  3  1  0
  3  4  1  0
  4  5  1  0
  5  6  1  0
  6  7  1  0
  7  8  1  0
  8  9  1  0
  9 10  1  0
  2 11  1  0
 11 12  2  0
 12 13  1  0
 13 14  1  0
 14 15  1  0
 15 16  1  0
 16 17  1  0
 17 18  2  0
 18 19  1  0
 19 20  2  0
 20 21  1  0
 21 22  2  0
 22 23  1  0
 13 24  2  0
 24 25  1  0
 25 26  1  0
 26 27  1  0
 27 28  1  0
 28 29  1  0
 29 30  2  0
 30 31  1  0
 31 32  2  0
 32 33  1  0
 33 34  2  0
 34 35  1  0
 25 36  2  0
 10  5  1  0
 36 11  1  0
 23 14  1  0
 35 26  1  0
 22 17  1  0
 34 29  1  0
  3 37  1  0
  4 38  1  0
  4 39  1  0
  5 40  1  6
  6 41  1  0
  6 42  1  0
  7 43  1  0
  7 44  1  0
  8 45  1  0
  8 46  1  0
  9 47  1  0
 10 48  1  0
 10 49  1  0
 15 50  1  0
 15 51  1  0
 16 52  1  0
 16 53  1  0
 18 54  1  0
 19 55  1  0
 20 56  1  0
 21 57  1  0
 23 58  1  0
 23 59  1  0
 27 60  1  0
 27 61  1  0
 28 62  1  0
 28 63  1  0
 30 64  1  0
 31 65  1  0
 32 66  1  0
 33 67  1  0
 35 68  1  0
 35 69  1  0
M  END
>  <smiles>  (67) 
O=C(NCC1CCCNC1)c1nc(N2CCc3ccccc3C2)nc(N2CCc3ccccc3C2)n1

>  <score_type>  (67) 
oracle

>  <origin>  (67) 
autodockgpu

>  <m_score__min__energy>  (67) 
-10.369999999999999

>  <m_primary>  (67) 
energy

>  <rmsd>  (67) 
8.899585141460804

>  <m_score__min__rmsd>  (67) 
8.899585141460804

>  <meeko>  (67) 
{"free_energy": -9.32, "intermolecular_energy": -10.81, "internal_energy": -1.24, "cluster_size": 35, "cluster_id": 1, "rank_in_cluster": 33}

>  <energy>  (67) 
-9.8

>  <cluster_rmsd>  (67) 
0.85

>  <cluster>  (67) 
1

$$$$

     RDKit          3D

 69 74  0  0  0  0  0  0  0  0999 V2000
  139.0610   75.9640  220.9600 O   0  0  0  0  0  0  0  0  0  0  0  0
  140.1550   75.5640  221.4760 C   0  0  0  0  0  0  0  0  0  0  0  0
  141.0140   76.5840  221.9760 N   0  0  0  0  0  0  0  0  0  0  0  0
  140.5540   77.9510  221.8430 C   0  0  0  0  0  0  0  0  0  0  0  0
  141.1530   78.8780  222.8860 C   0  0  1  0  0  0  0  0  0  0  0  0
  142.5700   79.1410  222.4430 C   0  0  0  0  0  0  0  0  0  0  0  0
  143.0530   80.5330  222.7260 C   0  0  0  0  0  0  0  0  0  0  0  0
  142.3090   80.9870  223.9830 C   0  0  0  0  0  0  0  0  0  0  0  0
  140.9560   81.2310  223.5900 N   0  0  0  0  0  0  0  0  0  0  0  0
  140.3160   80.1240  222.9400 C   0  0  0  0  0  0  0  0  0  0  0  0
  140.5210   74.1660  221.5600 C   0  0  0  0  0  0  0  0  0  0  0  0
  140.2290   73.4010  222.6280 N   0  0  0  0  0  0  0  0  0  0  0  0
  140.6040   72.1020  222.6340 C   0  0  0  0  0  0  0  0  0  0  0  0
  140.2860   71.2980  223.7780 N   0  0  0  0  0  0  0  0  0  0  0  0
  139.2090   70.3630  223.6520 C   0  0  0  0  0  0  0  0  0  0  0  0
  139.6010   69.0940  224.4200 C   0  0  0  0  0  0  0  0  0  0  0  0
  139.7520   69.5290  225.8420 C   0  0  0  0  0  0  0  0  0  0  0  0
  139.1910   68.7900  226.8840 C   0  0  0  0  0  0  0  0  0  0  0  0
  139.3870   69.2760  228.1640 C   0  0  0  0  0  0  0  0  0  0  0  0
  140.0960   70.4270  228.4340 C   0  0  0  0  0  0  0  0  0  0  0  0
  140.6430   71.1390  227.3740 C   0  0  0  0  0  0  0  0  0  0  0  0
  140.4690   70.6850  226.0640 C   0  0  0  0  0  0  0  0  0  0  0  0
  141.0780   71.4920  224.9740 C   0  0  0  0  0  0  0  0  0  0  0  0
  141.2620   71.6020  221.5670 N   0  0  0  0  0  0  0  0  0  0  0  0
  141.5650   72.3470  220.4870 C   0  0  0  0  0  0  0  0  0  0  0  0
  142.2600   71.7460  219.4090 N   0  0  0  0  0  0  0  0  0  0  0  0
  141.6120   70.7350  218.6300 C   0  0  0  0  0  0  0  0  0  0  0  0
  142.4610   70.3520  217.4400 C   0  0  0  0  0  0  0  0  0  0  0  0
  143.8250   70.0120  217.9140 C   0  0  0  0  0  0  0  0  0  0  0  0
  144.4940   68.8730  217.5660 C   0  0  0  0  0  0  0  0  0  0  0  0
  145.7610   68.6900  218.0850 C   0  0  0  0  0  0  0  0  0  0  0  0
  146.3610   69.6060  218.9280 C   0  0  0  0  0  0  0  0  0  0  0  0
  145.6830   70.7590  219.2810 C   0  0  0  0  0  0  0  0  0  0  0  0
  144.4280   70.9370  218.7650 C   0  0  0  0  0  0  0  0  0  0  0  0
  143.6210   72.1440  219.0850 C   0  0  0  0  0  0  0  0  0  0  0  0
  141.1850   73.6370  220.5000 N   0  0  0  0  0  0  0  0  0  0  0  0
  141.9230   76.3530  222.4120 H   0  0  0  0  0  0  0  0  0  0  0  0
  140.8316   78.3196  220.8444 H   0  0  0  0  0  0  0  0  0  0  0  0
  139.4637   77.9490  221.9890 H   0  0  0  0  0  0  0  0  0  0  0  0
  141.1658   78.4550  223.9014 H   0  0  0  0  0  0  0  0  0  0  0  0
  143.2316   78.4334  222.9641 H   0  0  0  0  0  0  0  0  0  0  0  0
  142.5888   79.0152  221.3504 H   0  0  0  0  0  0  0  0  0  0  0  0
  144.1387   80.5328  222.9030 H   0  0  0  0  0  0  0  0  0  0  0  0
  142.8622   81.2071  221.8779 H   0  0  0  0  0  0  0  0  0  0  0  0
  142.3454   80.2001  224.7508 H   0  0  0  0  0  0  0  0  0  0  0  0
  142.7673   81.8907  224.4111 H   0  0  0  0  0  0  0  0  0  0  0  0
  140.3810   81.7110  224.3140 H   0  0  0  0  0  0  0  0  0  0  0  0
  139.3879   79.8936  223.4837 H   0  0  0  0  0  0  0  0  0  0  0  0
  140.1336   80.4293  221.8991 H   0  0  0  0  0  0  0  0  0  0  0  0
  138.2898   70.7905  224.0790 H   0  0  0  0  0  0  0  0  0  0  0  0
  139.0225   70.1305  222.5932 H   0  0  0  0  0  0  0  0  0  0  0  0
  138.8140   68.3306  224.3314 H   0  0  0  0  0  0  0  0  0  0  0  0
  140.5245   68.6437  224.0270 H   0  0  0  0  0  0  0  0  0  0  0  0
  138.6217   67.8676  226.6970 H   0  0  0  0  0  0  0  0  0  0  0  0
  138.9561   68.7169  229.0076 H   0  0  0  0  0  0  0  0  0  0  0  0
  140.2261   70.7751  229.4693 H   0  0  0  0  0  0  0  0  0  0  0  0
  141.2130   72.0600  227.5659 H   0  0  0  0  0  0  0  0  0  0  0  0
  141.0785   72.5561  225.2529 H   0  0  0  0  0  0  0  0  0  0  0  0
  142.1172   71.1763  224.7996 H   0  0  0  0  0  0  0  0  0  0  0  0
  141.4470   69.8463  219.2570 H   0  0  0  0  0  0  0  0  0  0  0  0
  140.6514   71.1294  218.2670 H   0  0  0  0  0  0  0  0  0  0  0  0
  142.0177   69.4813  216.9348 H   0  0  0  0  0  0  0  0  0  0  0  0
  142.5107   71.1917  216.7312 H   0  0  0  0  0  0  0  0  0  0  0  0
  144.0399   68.1279  216.8962 H   0  0  0  0  0  0  0  0  0  0  0  0
  146.3147   67.7783  217.8164 H   0  0  0  0  0  0  0  0  0  0  0  0
  147.3730   69.4192  219.3165 H   0  0  0  0  0  0  0  0  0  0  0  0
  146.1356   71.5047  219.9512 H   0  0  0  0  0  0  0  0  0  0  0  0
  144.0656   72.6645  219.9461 H   0  0  0  0  0  0  0  0  0  0  0  0
  143.6086   72.8176  218.2155 H   0  0  0  0  0  0  0  0  0  0  0  0
  1  2  2  0
  2  3  1  0
  3  4  1  0
  4  5  1  0
  5  6  1  0
  6  7  1  0
  7  8  1  0
  8  9  1  0
  9 10  1  0
  2 11  1  0
 11 12  2  0
 12 13  1  0
 13 14  1  0
 14 15  1  0
 15 16  1  0
 16 17  1  0
 17 18  2  0
 18 19  1  0
 19 20  2  0
 20 21  1  0
 21 22  2  0
 22 23  1  0
 13 24  2  0
 24 25  1  0
 25 26  1  0
 26 27  1  0
 27 28  1  0
 28 29  1  0
 29 30  2  0
 30 31  1  0
 31 32  2  0
 32 33  1  0
 33 34  2  0
 34 35  1  0
 25 36  2  0
 10  5  1  0
 36 11  1  0
 23 14  1  0
 35 26  1  0
 22 17  1  0
 34 29  1  0
  3 37  1  0
  4 38  1  0
  4 39  1  0
  5 40  1  1
  6 41  1  0
  6 42  1  0
  7 43  1  0
  7 44  1  0
  8 45  1  0
  8 46  1  0
  9 47  1  0
 10 48  1  0
 10 49  1  0
 15 50  1  0
 15 51  1  0
 16 52  1  0
 16 53  1  0
 18 54  1  0
 19 55  1  0
 20 56  1  0
 21 57  1  0
 23 58  1  0
 23 59  1  0
 27 60  1  0
 27 61  1  0
 28 62  1  0
 28 63  1  0
 30 64  1  0
 31 65  1  0
 32 66  1  0
 33 67  1  0
 35 68  1  0
 35 69  1  0
M  END
>  <smiles>  (68) 
O=C(NCC1CCCNC1)c1nc(N2CCc3ccccc3C2)nc(N2CCc3ccccc3C2)n1

>  <score_type>  (68) 
oracle

>  <origin>  (68) 
autodockgpu

>  <m_score__min__energy>  (68) 
-10.369999999999999

>  <m_primary>  (68) 
energy

>  <rmsd>  (68) 
4.304414755848521

>  <m_score__min__rmsd>  (68) 
4.304414755848521

>  <meeko>  (68) 
{"free_energy": -9.57, "intermolecular_energy": -11.06, "internal_energy": -0.91, "cluster_size": 7, "cluster_id": 3, "rank_in_cluster": 2}

>  <energy>  (68) 
-9.75

>  <cluster_rmsd>  (68) 
1.83

>  <cluster>  (68) 
1

$$$$

     RDKit          3D

 69 74  0  0  0  0  0  0  0  0999 V2000
  140.3420   70.7680  221.7540 O   0  0  0  0  0  0  0  0  0  0  0  0
  140.4680   71.8980  222.3310 C   0  0  0  0  0  0  0  0  0  0  0  0
  139.9980   71.9650  223.6730 N   0  0  0  0  0  0  0  0  0  0  0  0
  139.4320   70.7530  224.2300 C   0  0  0  0  0  0  0  0  0  0  0  0
  140.2760   70.1700  225.3500 C   0  0  1  0  0  0  0  0  0  0  0  0
  140.4970   71.2930  226.3310 C   0  0  0  0  0  0  0  0  0  0  0  0
  140.5130   70.8590  227.7680 C   0  0  0  0  0  0  0  0  0  0  0  0
  141.0490   69.4260  227.7660 C   0  0  0  0  0  0  0  0  0  0  0  0
  140.0090   68.6030  227.2320 N   0  0  0  0  0  0  0  0  0  0  0  0
  139.5270   69.0120  225.9450 C   0  0  0  0  0  0  0  0  0  0  0  0
  141.0510   73.0520  221.6800 C   0  0  0  0  0  0  0  0  0  0  0  0
  142.0120   72.9510  220.7430 N   0  0  0  0  0  0  0  0  0  0  0  0
  142.5090   74.0750  220.1800 C   0  0  0  0  0  0  0  0  0  0  0  0
  143.5310   73.9530  219.1820 N   0  0  0  0  0  0  0  0  0  0  0  0
  144.7520   73.3050  219.5590 C   0  0  0  0  0  0  0  0  0  0  0  0
  145.2210   72.4640  218.3660 C   0  0  0  0  0  0  0  0  0  0  0  0
  145.4690   73.4490  217.2680 C   0  0  0  0  0  0  0  0  0  0  0  0
  146.6300   73.3890  216.4970 C   0  0  0  0  0  0  0  0  0  0  0  0
  146.7660   74.3450  215.5060 C   0  0  0  0  0  0  0  0  0  0  0  0
  145.8230   75.3210  215.2650 C   0  0  0  0  0  0  0  0  0  0  0  0
  144.6780   75.3530  216.0510 C   0  0  0  0  0  0  0  0  0  0  0  0
  144.4990   74.4070  217.0640 C   0  0  0  0  0  0  0  0  0  0  0  0
  143.2540   74.4940  217.8690 C   0  0  0  0  0  0  0  0  0  0  0  0
  142.0290   75.2750  220.5720 N   0  0  0  0  0  0  0  0  0  0  0  0
  141.0690   75.4020  221.5070 C   0  0  0  0  0  0  0  0  0  0  0  0
  140.6210   76.6980  221.8620 N   0  0  0  0  0  0  0  0  0  0  0  0
  139.6990   77.3820  221.0090 C   0  0  0  0  0  0  0  0  0  0  0  0
  139.2290   78.6660  221.6520 C   0  0  0  0  0  0  0  0  0  0  0  0
  140.4130   79.4560  222.0710 C   0  0  0  0  0  0  0  0  0  0  0  0
  140.5960   80.7760  221.7750 C   0  0  0  0  0  0  0  0  0  0  0  0
  141.7510   81.3820  222.2320 C   0  0  0  0  0  0  0  0  0  0  0  0
  142.7070   80.7060  222.9660 C   0  0  0  0  0  0  0  0  0  0  0  0
  142.5210   79.3680  223.2660 C   0  0  0  0  0  0  0  0  0  0  0  0
  141.3770   78.7710  222.8110 C   0  0  0  0  0  0  0  0  0  0  0  0
  141.0870   77.3380  223.0820 C   0  0  0  0  0  0  0  0  0  0  0  0
  140.5880   74.2720  222.0560 N   0  0  0  0  0  0  0  0  0  0  0  0
  140.0590   72.8410  224.2200 H   0  0  0  0  0  0  0  0  0  0  0  0
  138.4318   70.9821  224.6264 H   0  0  0  0  0  0  0  0  0  0  0  0
  139.3901   70.0060  223.4236 H   0  0  0  0  0  0  0  0  0  0  0  0
  141.2515   69.7854  225.0175 H   0  0  0  0  0  0  0  0  0  0  0  0
  141.4635   71.7658  226.1024 H   0  0  0  0  0  0  0  0  0  0  0  0
  139.6482   71.9835  226.2182 H   0  0  0  0  0  0  0  0  0  0  0  0
  141.1715   71.5132  228.3582 H   0  0  0  0  0  0  0  0  0  0  0  0
  139.5111   70.9153  228.2186 H   0  0  0  0  0  0  0  0  0  0  0  0
  141.9484   69.3578  227.1363 H   0  0  0  0  0  0  0  0  0  0  0  0
  141.3283   69.1049  228.7804 H   0  0  0  0  0  0  0  0  0  0  0  0
  140.1790   67.5800  227.3350 H   0  0  0  0  0  0  0  0  0  0  0  0
  139.6093   68.1573  225.2575 H   0  0  0  0  0  0  0  0  0  0  0  0
  138.4881   69.3447  226.0861 H   0  0  0  0  0  0  0  0  0  0  0  0
  145.5139   74.0579  219.8092 H   0  0  0  0  0  0  0  0  0  0  0  0
  144.5933   72.6674  220.4412 H   0  0  0  0  0  0  0  0  0  0  0  0
  146.1455   71.9224  218.6150 H   0  0  0  0  0  0  0  0  0  0  0  0
  144.4778   71.7055  218.0790 H   0  0  0  0  0  0  0  0  0  0  0  0
  147.3984   72.6207  216.6682 H   0  0  0  0  0  0  0  0  0  0  0  0
  147.6704   74.3252  214.8802 H   0  0  0  0  0  0  0  0  0  0  0  0
  145.9743   76.0608  214.4651 H   0  0  0  0  0  0  0  0  0  0  0  0
  143.9122   76.1230  215.8760 H   0  0  0  0  0  0  0  0  0  0  0  0
  142.9391   75.5443  217.9570 H   0  0  0  0  0  0  0  0  0  0  0  0
  142.4458   73.9262  217.3848 H   0  0  0  0  0  0  0  0  0  0  0  0
  140.1947   77.6160  220.0553 H   0  0  0  0  0  0  0  0  0  0  0  0
  138.8278   76.7329  220.8369 H   0  0  0  0  0  0  0  0  0  0  0  0
  138.6358   79.2452  220.9291 H   0  0  0  0  0  0  0  0  0  0  0  0
  138.6051   78.4369  222.5285 H   0  0  0  0  0  0  0  0  0  0  0  0
  139.8503   81.3376  221.1932 H   0  0  0  0  0  0  0  0  0  0  0  0
  141.9159   82.4450  222.0022 H   0  0  0  0  0  0  0  0  0  0  0  0
  143.6115   81.2290  223.3101 H   0  0  0  0  0  0  0  0  0  0  0  0
  143.2652   78.8052  223.8486 H   0  0  0  0  0  0  0  0  0  0  0  0
  142.0026   76.8384  223.4313 H   0  0  0  0  0  0  0  0  0  0  0  0
  140.3092   77.2616  223.8560 H   0  0  0  0  0  0  0  0  0  0  0  0
  1  2  2  0
  2  3  1  0
  3  4  1  0
  4  5  1  0
  5  6  1  0
  6  7  1  0
  7  8  1  0
  8  9  1  0
  9 10  1  0
  2 11  1  0
 11 12  2  0
 12 13  1  0
 13 14  1  0
 14 15  1  0
 15 16  1  0
 16 17  1  0
 17 18  2  0
 18 19  1  0
 19 20  2  0
 20 21  1  0
 21 22  2  0
 22 23  1  0
 13 24  2  0
 24 25  1  0
 25 26  1  0
 26 27  1  0
 27 28  1  0
 28 29  1  0
 29 30  2  0
 30 31  1  0
 31 32  2  0
 32 33  1  0
 33 34  2  0
 34 35  1  0
 25 36  2  0
 10  5  1  0
 36 11  1  0
 23 14  1  0
 35 26  1  0
 22 17  1  0
 34 29  1  0
  3 37  1  0
  4 38  1  0
  4 39  1  0
  5 40  1  6
  6 41  1  0
  6 42  1  0
  7 43  1  0
  7 44  1  0
  8 45  1  0
  8 46  1  0
  9 47  1  0
 10 48  1  0
 10 49  1  0
 15 50  1  0
 15 51  1  0
 16 52  1  0
 16 53  1  0
 18 54  1  0
 19 55  1  0
 20 56  1  0
 21 57  1  0
 23 58  1  0
 23 59  1  0
 27 60  1  0
 27 61  1  0
 28 62  1  0
 28 63  1  0
 30 64  1  0
 31 65  1  0
 32 66  1  0
 33 67  1  0
 35 68  1  0
 35 69  1  0
M  END
>  <smiles>  (69) 
O=C(NCC1CCCNC1)c1nc(N2CCc3ccccc3C2)nc(N2CCc3ccccc3C2)n1

>  <score_type>  (69) 
oracle

>  <origin>  (69) 
autodockgpu

>  <m_score__min__energy>  (69) 
-10.369999999999999

>  <m_primary>  (69) 
energy

>  <rmsd>  (69) 
8.675065284945

>  <m_score__min__rmsd>  (69) 
8.675065284945

>  <meeko>  (69) 
{"free_energy": -9.58, "intermolecular_energy": -11.07, "internal_energy": -1.13, "cluster_size": 35, "cluster_id": 1, "rank_in_cluster": 29}

>  <energy>  (69) 
-9.75

>  <cluster_rmsd>  (69) 
1.79

>  <cluster>  (69) 
1

$$$$

     RDKit          3D

 69 74  0  0  0  0  0  0  0  0999 V2000
  138.7600   76.0740  222.4040 O   0  0  0  0  0  0  0  0  0  0  0  0
  139.6800   75.6680  221.6210 C   0  0  0  0  0  0  0  0  0  0  0  0
  140.1190   76.6060  220.6430 N   0  0  0  0  0  0  0  0  0  0  0  0
  139.4790   77.9050  220.6470 C   0  0  0  0  0  0  0  0  0  0  0  0
  140.3010   78.9650  221.3590 C   0  0  1  0  0  0  0  0  0  0  0  0
  139.6980   79.1040  222.7330 C   0  0  0  0  0  0  0  0  0  0  0  0
  140.7000   79.3670  223.8190 C   0  0  0  0  0  0  0  0  0  0  0  0
  141.8430   80.1390  223.1570 C   0  0  0  0  0  0  0  0  0  0  0  0
  142.5490   79.2010  222.3400 N   0  0  0  0  0  0  0  0  0  0  0  0
  141.7310   78.5040  221.3900 C   0  0  0  0  0  0  0  0  0  0  0  0
  140.2550   74.3420  221.7030 C   0  0  0  0  0  0  0  0  0  0  0  0
  139.9730   73.4880  222.7040 N   0  0  0  0  0  0  0  0  0  0  0  0
  140.5500   72.2660  222.7130 C   0  0  0  0  0  0  0  0  0  0  0  0
  140.2400   71.3650  223.7860 N   0  0  0  0  0  0  0  0  0  0  0  0
  139.1290   70.4800  223.6070 C   0  0  0  0  0  0  0  0  0  0  0  0
  139.5010   69.1310  224.2360 C   0  0  0  0  0  0  0  0  0  0  0  0
  139.7100   69.4230  225.6880 C   0  0  0  0  0  0  0  0  0  0  0  0
  139.1560   68.6040  226.6730 C   0  0  0  0  0  0  0  0  0  0  0  0
  139.4060   68.9580  227.9860 C   0  0  0  0  0  0  0  0  0  0  0  0
  140.1610   70.0560  228.3410 C   0  0  0  0  0  0  0  0  0  0  0  0
  140.7000   70.8500  227.3360 C   0  0  0  0  0  0  0  0  0  0  0  0
  140.4710   70.5300  225.9950 C   0  0  0  0  0  0  0  0  0  0  0  0
  141.0730   71.4190  224.9670 C   0  0  0  0  0  0  0  0  0  0  0  0
  141.3960   71.9300  221.7170 N   0  0  0  0  0  0  0  0  0  0  0  0
  141.6940   72.7660  220.7050 C   0  0  0  0  0  0  0  0  0  0  0  0
  142.5940   72.3370  219.6990 N   0  0  0  0  0  0  0  0  0  0  0  0
  142.2200   72.4590  218.3230 C   0  0  0  0  0  0  0  0  0  0  0  0
  143.3800   72.1010  217.4220 C   0  0  0  0  0  0  0  0  0  0  0  0
  143.9070   70.7730  217.8220 C   0  0  0  0  0  0  0  0  0  0  0  0
  144.1360   69.7460  216.9510 C   0  0  0  0  0  0  0  0  0  0  0  0
  144.6300   68.5640  217.4690 C   0  0  0  0  0  0  0  0  0  0  0  0
  144.8940   68.3920  218.8140 C   0  0  0  0  0  0  0  0  0  0  0  0
  144.6600   69.4320  219.6970 C   0  0  0  0  0  0  0  0  0  0  0  0
  144.1710   70.6010  219.1810 C   0  0  0  0  0  0  0  0  0  0  0  0
  143.8890   71.7760  220.0480 C   0  0  0  0  0  0  0  0  0  0  0  0
  141.1110   73.9780  220.7130 N   0  0  0  0  0  0  0  0  0  0  0  0
  140.8620   76.3640  219.9650 H   0  0  0  0  0  0  0  0  0  0  0  0
  139.3225   78.2227  219.6056 H   0  0  0  0  0  0  0  0  0  0  0  0
  138.5281   77.8035  221.1905 H   0  0  0  0  0  0  0  0  0  0  0  0
  140.2901   79.9456  220.8608 H   0  0  0  0  0  0  0  0  0  0  0  0
  138.9828   79.9395  222.7133 H   0  0  0  0  0  0  0  0  0  0  0  0
  139.2208   78.1413  222.9685 H   0  0  0  0  0  0  0  0  0  0  0  0
  140.2463   79.9680  224.6208 H   0  0  0  0  0  0  0  0  0  0  0  0
  141.0557   78.4315  224.2755 H   0  0  0  0  0  0  0  0  0  0  0  0
  141.4417   80.9550  222.5381 H   0  0  0  0  0  0  0  0  0  0  0  0
  142.5071   80.5885  223.9100 H   0  0  0  0  0  0  0  0  0  0  0  0
  143.4540   79.5560  221.9670 H   0  0  0  0  0  0  0  0  0  0  0  0
  142.1631   78.6498  220.3890 H   0  0  0  0  0  0  0  0  0  0  0  0
  141.7179   77.4476  221.6964 H   0  0  0  0  0  0  0  0  0  0  0  0
  138.2381   70.8919  224.1036 H   0  0  0  0  0  0  0  0  0  0  0  0
  138.9028   70.3571  222.5375 H   0  0  0  0  0  0  0  0  0  0  0  0
  138.6862   68.4043  224.1015 H   0  0  0  0  0  0  0  0  0  0  0  0
  140.3958   68.6919  223.7707 H   0  0  0  0  0  0  0  0  0  0  0  0
  138.5511   67.7215  226.4177 H   0  0  0  0  0  0  0  0  0  0  0  0
  138.9821   68.3335  228.7862 H   0  0  0  0  0  0  0  0  0  0  0  0
  140.3333   70.2988  229.3999 H   0  0  0  0  0  0  0  0  0  0  0  0
  141.3067   71.7300  227.5958 H   0  0  0  0  0  0  0  0  0  0  0  0
  141.1174   72.4508  225.3456 H   0  0  0  0  0  0  0  0  0  0  0  0
  142.0953   71.0901  224.7288 H   0  0  0  0  0  0  0  0  0  0  0  0
  141.3788   71.7813  218.1157 H   0  0  0  0  0  0  0  0  0  0  0  0
  141.9270   73.5009  218.1264 H   0  0  0  0  0  0  0  0  0  0  0  0
  143.0381   72.0632  216.3772 H   0  0  0  0  0  0  0  0  0  0  0  0
  144.1715   72.8593  217.5142 H   0  0  0  0  0  0  0  0  0  0  0  0
  143.9343   69.8560  215.8753 H   0  0  0  0  0  0  0  0  0  0  0  0
  144.8208   67.7260  216.7824 H   0  0  0  0  0  0  0  0  0  0  0  0
  145.2883   67.4331  219.1816 H   0  0  0  0  0  0  0  0  0  0  0  0
  144.8597   69.3227  220.7732 H   0  0  0  0  0  0  0  0  0  0  0  0
  143.8797   71.4602  221.1017 H   0  0  0  0  0  0  0  0  0  0  0  0
  144.6697   72.5366  219.8996 H   0  0  0  0  0  0  0  0  0  0  0  0
  1  2  2  0
  2  3  1  0
  3  4  1  0
  4  5  1  0
  5  6  1  0
  6  7  1  0
  7  8  1  0
  8  9  1  0
  9 10  1  0
  2 11  1  0
 11 12  2  0
 12 13  1  0
 13 14  1  0
 14 15  1  0
 15 16  1  0
 16 17  1  0
 17 18  2  0
 18 19  1  0
 19 20  2  0
 20 21  1  0
 21 22  2  0
 22 23  1  0
 13 24  2  0
 24 25  1  0
 25 26  1  0
 26 27  1  0
 27 28  1  0
 28 29  1  0
 29 30  2  0
 30 31  1  0
 31 32  2  0
 32 33  1  0
 33 34  2  0
 34 35  1  0
 25 36  2  0
 10  5  1  0
 36 11  1  0
 23 14  1  0
 35 26  1  0
 22 17  1  0
 34 29  1  0
  3 37  1  0
  4 38  1  0
  4 39  1  0
  5 40  1  6
  6 41  1  0
  6 42  1  0
  7 43  1  0
  7 44  1  0
  8 45  1  0
  8 46  1  0
  9 47  1  0
 10 48  1  0
 10 49  1  0
 15 50  1  0
 15 51  1  0
 16 52  1  0
 16 53  1  0
 18 54  1  0
 19 55  1  0
 20 56  1  0
 21 57  1  0
 23 58  1  0
 23 59  1  0
 27 60  1  0
 27 61  1  0
 28 62  1  0
 28 63  1  0
 30 64  1  0
 31 65  1  0
 32 66  1  0
 33 67  1  0
 35 68  1  0
 35 69  1  0
M  END
>  <smiles>  (70) 
O=C(NCC1CCCNC1)c1nc(N2CCc3ccccc3C2)nc(N2CCc3ccccc3C2)n1

>  <score_type>  (70) 
oracle

>  <origin>  (70) 
autodockgpu

>  <m_score__min__energy>  (70) 
-10.369999999999999

>  <m_primary>  (70) 
energy

>  <rmsd>  (70) 
3.7455242477171615

>  <m_score__min__rmsd>  (70) 
3.7455242477171615

>  <meeko>  (70) 
{"free_energy": -8.91, "intermolecular_energy": -10.4, "internal_energy": -1.4, "cluster_size": 7, "cluster_id": 3, "rank_in_cluster": 7}

>  <energy>  (70) 
-9.71

>  <cluster_rmsd>  (70) 
0.69

>  <cluster>  (70) 
1

$$$$

     RDKit          3D

 69 74  0  0  0  0  0  0  0  0999 V2000
  140.9040   71.0150  221.6100 O   0  0  0  0  0  0  0  0  0  0  0  0
  140.6290   72.1420  222.1370 C   0  0  0  0  0  0  0  0  0  0  0  0
  139.8720   72.0950  223.3420 N   0  0  0  0  0  0  0  0  0  0  0  0
  139.5010   70.7830  223.8310 C   0  0  0  0  0  0  0  0  0  0  0  0
  139.5690   70.6780  225.3450 C   0  0  1  0  0  0  0  0  0  0  0  0
  139.7810   69.2170  225.6500 C   0  0  0  0  0  0  0  0  0  0  0  0
  140.6710   68.9590  226.8310 C   0  0  0  0  0  0  0  0  0  0  0  0
  140.4720   70.1490  227.7730 C   0  0  0  0  0  0  0  0  0  0  0  0
  141.1250   71.2650  227.1630 N   0  0  0  0  0  0  0  0  0  0  0  0
  140.6980   71.5460  225.8230 C   0  0  0  0  0  0  0  0  0  0  0  0
  141.0520   73.4030  221.5640 C   0  0  0  0  0  0  0  0  0  0  0  0
  141.8370   73.4780  220.4730 N   0  0  0  0  0  0  0  0  0  0  0  0
  142.1910   74.6920  219.9960 C   0  0  0  0  0  0  0  0  0  0  0  0
  143.0270   74.7590  218.8330 N   0  0  0  0  0  0  0  0  0  0  0  0
  144.3050   74.1170  218.8980 C   0  0  0  0  0  0  0  0  0  0  0  0
  144.5760   73.4780  217.5300 C   0  0  0  0  0  0  0  0  0  0  0  0
  144.6130   74.6200  216.5660 C   0  0  0  0  0  0  0  0  0  0  0  0
  145.6240   74.7210  215.6100 C   0  0  0  0  0  0  0  0  0  0  0  0
  145.5700   75.8150  214.7640 C   0  0  0  0  0  0  0  0  0  0  0  0
  144.5830   76.7750  214.8340 C   0  0  0  0  0  0  0  0  0  0  0  0
  143.5900   76.6440  215.7980 C   0  0  0  0  0  0  0  0  0  0  0  0
  143.6060   75.5550  216.6730 C   0  0  0  0  0  0  0  0  0  0  0  0
  142.5170   75.4720  217.6810 C   0  0  0  0  0  0  0  0  0  0  0  0
  141.7470   75.8020  220.6250 N   0  0  0  0  0  0  0  0  0  0  0  0
  140.9620   75.7520  221.7160 C   0  0  0  0  0  0  0  0  0  0  0  0
  140.5410   76.9630  222.3180 N   0  0  0  0  0  0  0  0  0  0  0  0
  139.2220   77.4560  222.0600 C   0  0  0  0  0  0  0  0  0  0  0  0
  138.9240   78.6600  222.9230 C   0  0  0  0  0  0  0  0  0  0  0  0
  140.0160   79.6510  222.7580 C   0  0  0  0  0  0  0  0  0  0  0  0
  139.8140   80.9740  222.4870 C   0  0  0  0  0  0  0  0  0  0  0  0
  140.9290   81.7800  222.3600 C   0  0  0  0  0  0  0  0  0  0  0  0
  142.2170   81.2980  222.4980 C   0  0  0  0  0  0  0  0  0  0  0  0
  142.4210   79.9570  222.7730 C   0  0  0  0  0  0  0  0  0  0  0  0
  141.3150   79.1620  222.8980 C   0  0  0  0  0  0  0  0  0  0  0  0
  141.4310   77.7090  223.1930 C   0  0  0  0  0  0  0  0  0  0  0  0
  140.6210   74.5350  222.1770 N   0  0  0  0  0  0  0  0  0  0  0  0
  139.6040   72.9600  223.8410 H   0  0  0  0  0  0  0  0  0  0  0  0
  138.4716   70.5663  223.5096 H   0  0  0  0  0  0  0  0  0  0  0  0
  140.2188   70.0599  223.4163 H   0  0  0  0  0  0  0  0  0  0  0  0
  138.6587   71.0241  225.8564 H   0  0  0  0  0  0  0  0  0  0  0  0
  138.8005   68.7604  225.8504 H   0  0  0  0  0  0  0  0  0  0  0  0
  140.2828   68.7802  224.7740 H   0  0  0  0  0  0  0  0  0  0  0  0
  140.3820   68.0227  227.3308 H   0  0  0  0  0  0  0  0  0  0  0  0
  141.7235   68.8543  226.5288 H   0  0  0  0  0  0  0  0  0  0  0  0
  139.3995   70.3587  227.8986 H   0  0  0  0  0  0  0  0  0  0  0  0
  140.8889   69.9409  228.7694 H   0  0  0  0  0  0  0  0  0  0  0  0
  141.2130   72.0980  227.7820 H   0  0  0  0  0  0  0  0  0  0  0  0
  140.3705   72.5951  225.7775 H   0  0  0  0  0  0  0  0  0  0  0  0
  141.5564   71.3404  225.1666 H   0  0  0  0  0  0  0  0  0  0  0  0
  145.0853   74.8579  219.1266 H   0  0  0  0  0  0  0  0  0  0  0  0
  144.3122   73.3523  219.6887 H   0  0  0  0  0  0  0  0  0  0  0  0
  145.5392   72.9467  217.5361 H   0  0  0  0  0  0  0  0  0  0  0  0
  143.8078   72.7377  217.2620 H   0  0  0  0  0  0  0  0  0  0  0  0
  146.4234   73.9694  215.5325 H   0  0  0  0  0  0  0  0  0  0  0  0
  146.3526   75.9238  213.9987 H   0  0  0  0  0  0  0  0  0  0  0  0
  144.5812   77.6285  214.1401 H   0  0  0  0  0  0  0  0  0  0  0  0
  142.7920   77.3975  215.8718 H   0  0  0  0  0  0  0  0  0  0  0  0
  142.2043   76.4843  217.9769 H   0  0  0  0  0  0  0  0  0  0  0  0
  141.6467   74.9465  217.2609 H   0  0  0  0  0  0  0  0  0  0  0  0
  139.1443   77.7427  221.0009 H   0  0  0  0  0  0  0  0  0  0  0  0
  138.4959   76.6638  222.2950 H   0  0  0  0  0  0  0  0  0  0  0  0
  137.9683   79.1086  222.6139 H   0  0  0  0  0  0  0  0  0  0  0  0
  138.8535   78.3548  223.9775 H   0  0  0  0  0  0  0  0  0  0  0  0
  138.7994   81.3836  222.3738 H   0  0  0  0  0  0  0  0  0  0  0  0
  140.7859   82.8483  222.1402 H   0  0  0  0  0  0  0  0  0  0  0  0
  143.0757   81.9769  222.3898 H   0  0  0  0  0  0  0  0  0  0  0  0
  143.4349   79.5458  222.8868 H   0  0  0  0  0  0  0  0  0  0  0  0
  142.4680   77.3827  223.0253 H   0  0  0  0  0  0  0  0  0  0  0  0
  141.1530   77.5249  224.2412 H   0  0  0  0  0  0  0  0  0  0  0  0
  1  2  2  0
  2  3  1  0
  3  4  1  0
  4  5  1  0
  5  6  1  0
  6  7  1  0
  7  8  1  0
  8  9  1  0
  9 10  1  0
  2 11  1  0
 11 12  2  0
 12 13  1  0
 13 14  1  0
 14 15  1  0
 15 16  1  0
 16 17  1  0
 17 18  2  0
 18 19  1  0
 19 20  2  0
 20 21  1  0
 21 22  2  0
 22 23  1  0
 13 24  2  0
 24 25  1  0
 25 26  1  0
 26 27  1  0
 27 28  1  0
 28 29  1  0
 29 30  2  0
 30 31  1  0
 31 32  2  0
 32 33  1  0
 33 34  2  0
 34 35  1  0
 25 36  2  0
 10  5  1  0
 36 11  1  0
 23 14  1  0
 35 26  1  0
 22 17  1  0
 34 29  1  0
  3 37  1  0
  4 38  1  0
  4 39  1  0
  5 40  1  1
  6 41  1  0
  6 42  1  0
  7 43  1  0
  7 44  1  0
  8 45  1  0
  8 46  1  0
  9 47  1  0
 10 48  1  0
 10 49  1  0
 15 50  1  0
 15 51  1  0
 16 52  1  0
 16 53  1  0
 18 54  1  0
 19 55  1  0
 20 56  1  0
 21 57  1  0
 23 58  1  0
 23 59  1  0
 27 60  1  0
 27 61  1  0
 28 62  1  0
 28 63  1  0
 30 64  1  0
 31 65  1  0
 32 66  1  0
 33 67  1  0
 35 68  1  0
 35 69  1  0
M  END
>  <smiles>  (71) 
O=C(NCC1CCCNC1)c1nc(N2CCc3ccccc3C2)nc(N2CCc3ccccc3C2)n1

>  <score_type>  (71) 
oracle

>  <origin>  (71) 
autodockgpu

>  <m_score__min__energy>  (71) 
-10.369999999999999

>  <m_primary>  (71) 
energy

>  <rmsd>  (71) 
8.230731283518857

>  <m_score__min__rmsd>  (71) 
8.230731283518857

>  <meeko>  (71) 
{"free_energy": -9.16, "intermolecular_energy": -10.66, "internal_energy": -1.24, "cluster_size": 3, "cluster_id": 4, "rank_in_cluster": 2}

>  <energy>  (71) 
-9.69

>  <cluster_rmsd>  (71) 
1.84

>  <cluster>  (71) 
1

$$$$

     RDKit          3D

 69 74  0  0  0  0  0  0  0  0999 V2000
  138.5910   72.1670  223.0840 O   0  0  0  0  0  0  0  0  0  0  0  0
  139.8510   72.0070  222.9730 C   0  0  0  0  0  0  0  0  0  0  0  0
  140.4250   71.0070  223.8080 N   0  0  0  0  0  0  0  0  0  0  0  0
  139.5230   70.2890  224.6840 C   0  0  0  0  0  0  0  0  0  0  0  0
  140.2430   69.5800  225.8180 C   0  0  1  0  0  0  0  0  0  0  0  0
  140.3300   70.5790  226.9430 C   0  0  0  0  0  0  0  0  0  0  0  0
  140.1890   69.9780  228.3110 C   0  0  0  0  0  0  0  0  0  0  0  0
  140.7470   68.5570  228.2030 C   0  0  0  0  0  0  0  0  0  0  0  0
  139.7900   67.7990  227.4590 N   0  0  0  0  0  0  0  0  0  0  0  0
  139.4510   68.3570  226.1820 C   0  0  0  0  0  0  0  0  0  0  0  0
  140.6650   72.7830  222.0600 C   0  0  0  0  0  0  0  0  0  0  0  0
  141.5710   72.2220  221.2380 N   0  0  0  0  0  0  0  0  0  0  0  0
  142.2950   73.0120  220.4140 C   0  0  0  0  0  0  0  0  0  0  0  0
  143.2560   72.4020  219.5420 N   0  0  0  0  0  0  0  0  0  0  0  0
  143.3240   72.8780  218.1940 C   0  0  0  0  0  0  0  0  0  0  0  0
  144.8000   72.8910  217.7770 C   0  0  0  0  0  0  0  0  0  0  0  0
  145.2390   71.4640  217.8500 C   0  0  0  0  0  0  0  0  0  0  0  0
  145.9810   70.8860  216.8200 C   0  0  0  0  0  0  0  0  0  0  0  0
  146.3380   69.5600  216.9820 C   0  0  0  0  0  0  0  0  0  0  0  0
  145.9970   68.8170  218.0920 C   0  0  0  0  0  0  0  0  0  0  0  0
  145.2580   69.4220  219.1010 C   0  0  0  0  0  0  0  0  0  0  0  0
  144.8750   70.7600  218.9780 C   0  0  0  0  0  0  0  0  0  0  0  0
  144.0850   71.3500  220.0910 C   0  0  0  0  0  0  0  0  0  0  0  0
  142.0910   74.3460  220.4350 N   0  0  0  0  0  0  0  0  0  0  0  0
  141.1920   74.9300  221.2480 C   0  0  0  0  0  0  0  0  0  0  0  0
  141.0410   76.3380  221.2090 N   0  0  0  0  0  0  0  0  0  0  0  0
  141.5140   77.0660  220.0720 C   0  0  0  0  0  0  0  0  0  0  0  0
  141.1070   78.5180  220.1600 C   0  0  0  0  0  0  0  0  0  0  0  0
  141.5260   79.0560  221.4780 C   0  0  0  0  0  0  0  0  0  0  0  0
  142.2230   80.2180  221.6440 C   0  0  0  0  0  0  0  0  0  0  0  0
  142.5460   80.5940  222.9340 C   0  0  0  0  0  0  0  0  0  0  0  0
  142.1900   79.8460  224.0400 C   0  0  0  0  0  0  0  0  0  0  0  0
  141.4840   78.6680  223.8710 C   0  0  0  0  0  0  0  0  0  0  0  0
  141.1670   78.2980  222.5920 C   0  0  0  0  0  0  0  0  0  0  0  0
  140.4100   77.0500  222.3090 C   0  0  0  0  0  0  0  0  0  0  0  0
  140.4820   74.1280  222.0610 N   0  0  0  0  0  0  0  0  0  0  0  0
  141.4390   70.8070  223.7850 H   0  0  0  0  0  0  0  0  0  0  0  0
  138.8078   71.0050  225.1151 H   0  0  0  0  0  0  0  0  0  0  0  0
  139.0178   69.5203  224.0808 H   0  0  0  0  0  0  0  0  0  0  0  0
  141.2567   69.2413  225.5577 H   0  0  0  0  0  0  0  0  0  0  0  0
  141.3078   71.0796  226.8851 H   0  0  0  0  0  0  0  0  0  0  0  0
  139.4873   71.2743  226.8145 H   0  0  0  0  0  0  0  0  0  0  0  0
  140.7640   70.5602  229.0461 H   0  0  0  0  0  0  0  0  0  0  0  0
  139.1413   69.9766  228.6461 H   0  0  0  0  0  0  0  0  0  0  0  0
  141.7138   68.5675  227.6784 H   0  0  0  0  0  0  0  0  0  0  0  0
  140.9135   68.1190  229.1982 H   0  0  0  0  0  0  0  0  0  0  0  0
  139.9640   66.7720  227.4610 H   0  0  0  0  0  0  0  0  0  0  0  0
  139.6258   67.5905  225.4126 H   0  0  0  0  0  0  0  0  0  0  0  0
  138.3973   68.6671  226.2408 H   0  0  0  0  0  0  0  0  0  0  0  0
  142.7536   72.2101  217.5318 H   0  0  0  0  0  0  0  0  0  0  0  0
  142.8943   73.8879  218.1203 H   0  0  0  0  0  0  0  0  0  0  0  0
  144.9082   73.2762  216.7523 H   0  0  0  0  0  0  0  0  0  0  0  0
  145.4053   73.5416  218.4253 H   0  0  0  0  0  0  0  0  0  0  0  0
  146.2677   71.4562  215.9241 H   0  0  0  0  0  0  0  0  0  0  0  0
  146.9224   69.0745  216.1866 H   0  0  0  0  0  0  0  0  0  0  0  0
  146.3044   67.7643  218.1773 H   0  0  0  0  0  0  0  0  0  0  0  0
  144.9747   68.8482  219.9957 H   0  0  0  0  0  0  0  0  0  0  0  0
  143.4516   70.5767  220.5501 H   0  0  0  0  0  0  0  0  0  0  0  0
  144.7557   71.7553  220.8629 H   0  0  0  0  0  0  0  0  0  0  0  0
  142.6113   77.0004  220.0323 H   0  0  0  0  0  0  0  0  0  0  0  0
  141.0723   76.6295  219.1641 H   0  0  0  0  0  0  0  0  0  0  0  0
  141.5961   79.0879  219.3562 H   0  0  0  0  0  0  0  0  0  0  0  0
  140.0159   78.6063  220.0514 H   0  0  0  0  0  0  0  0  0  0  0  0
  142.5173   80.8335  220.7811 H   0  0  0  0  0  0  0  0  0  0  0  0
  143.1093   81.5264  223.0866 H   0  0  0  0  0  0  0  0  0  0  0  0
  142.4663   80.1852  225.0493 H   0  0  0  0  0  0  0  0  0  0  0  0
  141.1884   78.0516  224.7328 H   0  0  0  0  0  0  0  0  0  0  0  0
  140.4072   76.4119  223.2050 H   0  0  0  0  0  0  0  0  0  0  0  0
  139.3751   77.3034  222.0356 H   0  0  0  0  0  0  0  0  0  0  0  0
  1  2  2  0
  2  3  1  0
  3  4  1  0
  4  5  1  0
  5  6  1  0
  6  7  1  0
  7  8  1  0
  8  9  1  0
  9 10  1  0
  2 11  1  0
 11 12  2  0
 12 13  1  0
 13 14  1  0
 14 15  1  0
 15 16  1  0
 16 17  1  0
 17 18  2  0
 18 19  1  0
 19 20  2  0
 20 21  1  0
 21 22  2  0
 22 23  1  0
 13 24  2  0
 24 25  1  0
 25 26  1  0
 26 27  1  0
 27 28  1  0
 28 29  1  0
 29 30  2  0
 30 31  1  0
 31 32  2  0
 32 33  1  0
 33 34  2  0
 34 35  1  0
 25 36  2  0
 10  5  1  0
 36 11  1  0
 23 14  1  0
 35 26  1  0
 22 17  1  0
 34 29  1  0
  3 37  1  0
  4 38  1  0
  4 39  1  0
  5 40  1  6
  6 41  1  0
  6 42  1  0
  7 43  1  0
  7 44  1  0
  8 45  1  0
  8 46  1  0
  9 47  1  0
 10 48  1  0
 10 49  1  0
 15 50  1  0
 15 51  1  0
 16 52  1  0
 16 53  1  0
 18 54  1  0
 19 55  1  0
 20 56  1  0
 21 57  1  0
 23 58  1  0
 23 59  1  0
 27 60  1  0
 27 61  1  0
 28 62  1  0
 28 63  1  0
 30 64  1  0
 31 65  1  0
 32 66  1  0
 33 67  1  0
 35 68  1  0
 35 69  1  0
M  END
>  <smiles>  (72) 
O=C(NCC1CCCNC1)c1nc(N2CCc3ccccc3C2)nc(N2CCc3ccccc3C2)n1

>  <score_type>  (72) 
oracle

>  <origin>  (72) 
autodockgpu

>  <m_score__min__energy>  (72) 
-10.369999999999999

>  <m_primary>  (72) 
energy

>  <rmsd>  (72) 
9.313357341999751

>  <m_score__min__rmsd>  (72) 
9.313357341999751

>  <meeko>  (72) 
{"free_energy": -10.27, "intermolecular_energy": -11.76, "internal_energy": -0.98, "cluster_size": 35, "cluster_id": 1, "rank_in_cluster": 9}

>  <energy>  (72) 
-9.67

>  <cluster_rmsd>  (72) 
0.83

>  <cluster>  (72) 
1

$$$$

     RDKit          3D

 69 74  0  0  0  0  0  0  0  0999 V2000
  140.2940   70.6270  221.9290 O   0  0  0  0  0  0  0  0  0  0  0  0
  140.3500   71.7530  222.5230 C   0  0  0  0  0  0  0  0  0  0  0  0
  139.8350   71.7790  223.8510 N   0  0  0  0  0  0  0  0  0  0  0  0
  139.3100   70.5350  224.3740 C   0  0  0  0  0  0  0  0  0  0  0  0
  140.1770   69.9450  225.4720 C   0  0  1  0  0  0  0  0  0  0  0  0
  140.5000   71.0840  226.4040 C   0  0  0  0  0  0  0  0  0  0  0  0
  140.5640   70.6940  227.8520 C   0  0  0  0  0  0  0  0  0  0  0  0
  141.0290   69.2370  227.8720 C   0  0  0  0  0  0  0  0  0  0  0  0
  139.9260   68.4510  227.4150 N   0  0  0  0  0  0  0  0  0  0  0  0
  139.4030   68.8440  226.1390 C   0  0  0  0  0  0  0  0  0  0  0  0
  140.8990   72.9430  221.9060 C   0  0  0  0  0  0  0  0  0  0  0  0
  141.8550   72.8960  220.9610 N   0  0  0  0  0  0  0  0  0  0  0  0
  142.3190   74.0500  220.4310 C   0  0  0  0  0  0  0  0  0  0  0  0
  143.3380   73.9860  219.4240 N   0  0  0  0  0  0  0  0  0  0  0  0
  144.6080   73.4410  219.8000 C   0  0  0  0  0  0  0  0  0  0  0  0
  145.1280   72.6150  218.6170 C   0  0  0  0  0  0  0  0  0  0  0  0
  145.2900   73.5930  217.4980 C   0  0  0  0  0  0  0  0  0  0  0  0
  146.4440   73.6060  216.7150 C   0  0  0  0  0  0  0  0  0  0  0  0
  146.4970   74.5500  215.7050 C   0  0  0  0  0  0  0  0  0  0  0  0
  145.4800   75.4460  215.4550 C   0  0  0  0  0  0  0  0  0  0  0  0
  144.3430   75.4070  216.2540 C   0  0  0  0  0  0  0  0  0  0  0  0
  144.2470   74.4700  217.2860 C   0  0  0  0  0  0  0  0  0  0  0  0
  143.0070   74.4790  218.1040 C   0  0  0  0  0  0  0  0  0  0  0  0
  141.8100   75.2240  220.8630 N   0  0  0  0  0  0  0  0  0  0  0  0
  140.8540   75.2960  221.8080 C   0  0  0  0  0  0  0  0  0  0  0  0
  140.3750   76.5680  222.2060 N   0  0  0  0  0  0  0  0  0  0  0  0
  139.1060   77.0250  221.7270 C   0  0  0  0  0  0  0  0  0  0  0  0
  138.7160   78.3200  222.4000 C   0  0  0  0  0  0  0  0  0  0  0  0
  139.8320   79.2870  222.2630 C   0  0  0  0  0  0  0  0  0  0  0  0
  139.6840   80.5690  221.8170 C   0  0  0  0  0  0  0  0  0  0  0  0
  140.8160   81.3580  221.7420 C   0  0  0  0  0  0  0  0  0  0  0  0
  142.0700   80.8980  222.0980 C   0  0  0  0  0  0  0  0  0  0  0  0
  142.2200   79.5990  222.5500 C   0  0  0  0  0  0  0  0  0  0  0  0
  141.0970   78.8210  222.6230 C   0  0  0  0  0  0  0  0  0  0  0  0
  141.1560   77.4120  223.0960 C   0  0  0  0  0  0  0  0  0  0  0  0
  140.4060   74.1370  222.3230 N   0  0  0  0  0  0  0  0  0  0  0  0
  139.8400   72.6490  224.4100 H   0  0  0  0  0  0  0  0  0  0  0  0
  138.3054   70.7214  224.7816 H   0  0  0  0  0  0  0  0  0  0  0  0
  139.2870   69.8114  223.5458 H   0  0  0  0  0  0  0  0  0  0  0  0
  141.1153   69.5022  225.1067 H   0  0  0  0  0  0  0  0  0  0  0  0
  141.4765   71.5000  226.1152 H   0  0  0  0  0  0  0  0  0  0  0  0
  139.6816   71.8128  226.3085 H   0  0  0  0  0  0  0  0  0  0  0  0
  141.2811   71.3322  228.3891 H   0  0  0  0  0  0  0  0  0  0  0  0
  139.5889   70.8142  228.3467 H   0  0  0  0  0  0  0  0  0  0  0  0
  141.8924   69.1048  227.2033 H   0  0  0  0  0  0  0  0  0  0  0  0
  141.3413   68.9336  228.8822 H   0  0  0  0  0  0  0  0  0  0  0  0
  140.0500   67.4240  227.5440 H   0  0  0  0  0  0  0  0  0  0  0  0
  139.4113   67.9657  225.4768 H   0  0  0  0  0  0  0  0  0  0  0  0
  138.3892   69.2319  226.3174 H   0  0  0  0  0  0  0  0  0  0  0  0
  145.3125   74.2545  220.0277 H   0  0  0  0  0  0  0  0  0  0  0  0
  144.5075   72.8109  220.6960 H   0  0  0  0  0  0  0  0  0  0  0  0
  146.0933   72.1500  218.8658 H   0  0  0  0  0  0  0  0  0  0  0  0
  144.4412   71.7974  218.3526 H   0  0  0  0  0  0  0  0  0  0  0  0
  147.2701   72.9015  216.8915 H   0  0  0  0  0  0  0  0  0  0  0  0
  147.3947   74.5873  215.0704 H   0  0  0  0  0  0  0  0  0  0  0  0
  145.5663   76.1782  214.6386 H   0  0  0  0  0  0  0  0  0  0  0  0
  143.5193   76.1135  216.0738 H   0  0  0  0  0  0  0  0  0  0  0  0
  142.6148   75.5042  218.1760 H   0  0  0  0  0  0  0  0  0  0  0  0
  142.2388   73.8428  217.6402 H   0  0  0  0  0  0  0  0  0  0  0  0
  139.1670   77.1867  220.6407 H   0  0  0  0  0  0  0  0  0  0  0  0
  138.3460   76.2639  221.9575 H   0  0  0  0  0  0  0  0  0  0  0  0
  137.8133   78.7276  221.9216 H   0  0  0  0  0  0  0  0  0  0  0  0
  138.5080   78.1390  223.4649 H   0  0  0  0  0  0  0  0  0  0  0  0
  138.6976   80.9603  221.5274 H   0  0  0  0  0  0  0  0  0  0  0  0
  140.7152   82.3935  221.3847 H   0  0  0  0  0  0  0  0  0  0  0  0
  142.9442   81.5614  222.0223 H   0  0  0  0  0  0  0  0  0  0  0  0
  143.2057   79.2063  222.8400 H   0  0  0  0  0  0  0  0  0  0  0  0
  142.2017   77.0706  223.1010 H   0  0  0  0  0  0  0  0  0  0  0  0
  140.7447   77.3499  224.1143 H   0  0  0  0  0  0  0  0  0  0  0  0
  1  2  2  0
  2  3  1  0
  3  4  1  0
  4  5  1  0
  5  6  1  0
  6  7  1  0
  7  8  1  0
  8  9  1  0
  9 10  1  0
  2 11  1  0
 11 12  2  0
 12 13  1  0
 13 14  1  0
 14 15  1  0
 15 16  1  0
 16 17  1  0
 17 18  2  0
 18 19  1  0
 19 20  2  0
 20 21  1  0
 21 22  2  0
 22 23  1  0
 13 24  2  0
 24 25  1  0
 25 26  1  0
 26 27  1  0
 27 28  1  0
 28 29  1  0
 29 30  2  0
 30 31  1  0
 31 32  2  0
 32 33  1  0
 33 34  2  0
 34 35  1  0
 25 36  2  0
 10  5  1  0
 36 11  1  0
 23 14  1  0
 35 26  1  0
 22 17  1  0
 34 29  1  0
  3 37  1  0
  4 38  1  0
  4 39  1  0
  5 40  1  6
  6 41  1  0
  6 42  1  0
  7 43  1  0
  7 44  1  0
  8 45  1  0
  8 46  1  0
  9 47  1  0
 10 48  1  0
 10 49  1  0
 15 50  1  0
 15 51  1  0
 16 52  1  0
 16 53  1  0
 18 54  1  0
 19 55  1  0
 20 56  1  0
 21 57  1  0
 23 58  1  0
 23 59  1  0
 27 60  1  0
 27 61  1  0
 28 62  1  0
 28 63  1  0
 30 64  1  0
 31 65  1  0
 32 66  1  0
 33 67  1  0
 35 68  1  0
 35 69  1  0
M  END
>  <smiles>  (73) 
O=C(NCC1CCCNC1)c1nc(N2CCc3ccccc3C2)nc(N2CCc3ccccc3C2)n1

>  <score_type>  (73) 
oracle

>  <origin>  (73) 
autodockgpu

>  <m_score__min__energy>  (73) 
-10.369999999999999

>  <m_primary>  (73) 
energy

>  <rmsd>  (73) 
8.848055198990487

>  <m_score__min__rmsd>  (73) 
8.848055198990487

>  <meeko>  (73) 
{"free_energy": -9.61, "intermolecular_energy": -11.1, "internal_energy": -1.17, "cluster_size": 35, "cluster_id": 1, "rank_in_cluster": 26}

>  <energy>  (73) 
-9.67

>  <cluster_rmsd>  (73) 
1.37

>  <cluster>  (73) 
1

$$$$

     RDKit          3D

 69 74  0  0  0  0  0  0  0  0999 V2000
  141.7970   71.5810  218.2160 O   0  0  0  0  0  0  0  0  0  0  0  0
  141.6130   71.0680  219.3680 C   0  0  0  0  0  0  0  0  0  0  0  0
  141.8870   69.6740  219.4770 N   0  0  0  0  0  0  0  0  0  0  0  0
  142.3400   69.0000  218.2790 C   0  0  0  0  0  0  0  0  0  0  0  0
  143.7940   68.5680  218.3610 C   0  0  1  0  0  0  0  0  0  0  0  0
  144.6110   69.7970  218.0590 C   0  0  0  0  0  0  0  0  0  0  0  0
  145.8860   69.8950  218.8440 C   0  0  0  0  0  0  0  0  0  0  0  0
  146.3270   68.4540  219.1080 C   0  0  0  0  0  0  0  0  0  0  0  0
  145.4300   67.9260  220.0880 N   0  0  0  0  0  0  0  0  0  0  0  0
  144.0420   68.0230  219.7380 C   0  0  0  0  0  0  0  0  0  0  0  0
  141.1540   71.8350  220.5070 C   0  0  0  0  0  0  0  0  0  0  0  0
  140.8780   71.2740  221.6980 N   0  0  0  0  0  0  0  0  0  0  0  0
  140.4530   72.0560  222.7160 C   0  0  0  0  0  0  0  0  0  0  0  0
  140.1620   71.4450  223.9800 N   0  0  0  0  0  0  0  0  0  0  0  0
  139.1050   70.4800  224.0220 C   0  0  0  0  0  0  0  0  0  0  0  0
  139.5320   69.3640  224.9850 C   0  0  0  0  0  0  0  0  0  0  0  0
  139.6820   70.0320  226.3140 C   0  0  0  0  0  0  0  0  0  0  0  0
  139.1450   69.4640  227.4700 C   0  0  0  0  0  0  0  0  0  0  0  0
  139.3390   70.1600  228.6490 C   0  0  0  0  0  0  0  0  0  0  0  0
  140.0230   71.3550  228.7180 C   0  0  0  0  0  0  0  0  0  0  0  0
  140.5460   71.8930  227.5480 C   0  0  0  0  0  0  0  0  0  0  0  0
  140.3740   71.2250  226.3340 C   0  0  0  0  0  0  0  0  0  0  0  0
  140.9570   71.8520  225.1190 C   0  0  0  0  0  0  0  0  0  0  0  0
  140.3170   73.3840  222.5130 N   0  0  0  0  0  0  0  0  0  0  0  0
  140.5880   73.9680  221.3310 C   0  0  0  0  0  0  0  0  0  0  0  0
  140.4180   75.3690  221.2000 N   0  0  0  0  0  0  0  0  0  0  0  0
  140.6100   75.9850  219.9230 C   0  0  0  0  0  0  0  0  0  0  0  0
  140.2200   77.4440  219.9720 C   0  0  0  0  0  0  0  0  0  0  0  0
  140.9270   78.0930  221.1030 C   0  0  0  0  0  0  0  0  0  0  0  0
  141.6330   79.2570  220.9980 C   0  0  0  0  0  0  0  0  0  0  0  0
  142.2400   79.7450  222.1390 C   0  0  0  0  0  0  0  0  0  0  0  0
  142.1570   79.1030  223.3600 C   0  0  0  0  0  0  0  0  0  0  0  0
  141.4410   77.9230  223.4660 C   0  0  0  0  0  0  0  0  0  0  0  0
  140.8410   77.4440  222.3340 C   0  0  0  0  0  0  0  0  0  0  0  0
  140.0510   76.1840  222.3480 C   0  0  0  0  0  0  0  0  0  0  0  0
  141.0080   73.1740  220.3300 N   0  0  0  0  0  0  0  0  0  0  0  0
  141.7650   69.1730  220.3740 H   0  0  0  0  0  0  0  0  0  0  0  0
  141.7166   68.1077  218.1207 H   0  0  0  0  0  0  0  0  0  0  0  0
  142.2525   69.7120  217.4451 H   0  0  0  0  0  0  0  0  0  0  0  0
  144.0627   67.7746  217.6480 H   0  0  0  0  0  0  0  0  0  0  0  0
  144.8644   69.7886  216.9886 H   0  0  0  0  0  0  0  0  0  0  0  0
  143.9964   70.6636  218.3441 H   0  0  0  0  0  0  0  0  0  0  0  0
  146.6525   70.4296  218.2638 H   0  0  0  0  0  0  0  0  0  0  0  0
  145.7415   70.4516  219.7817 H   0  0  0  0  0  0  0  0  0  0  0  0
  146.2681   67.8632  218.1820 H   0  0  0  0  0  0  0  0  0  0  0  0
  147.3680   68.4159  219.4613 H   0  0  0  0  0  0  0  0  0  0  0  0
  145.7220   67.0080  220.4840 H   0  0  0  0  0  0  0  0  0  0  0  0
  143.5999   67.0175  219.7964 H   0  0  0  0  0  0  0  0  0  0  0  0
  143.5848   68.7297  220.4461 H   0  0  0  0  0  0  0  0  0  0  0  0
  138.1797   70.9529  224.3829 H   0  0  0  0  0  0  0  0  0  0  0  0
  138.9150   70.0719  223.0183 H   0  0  0  0  0  0  0  0  0  0  0  0
  138.7626   68.5792  225.0320 H   0  0  0  0  0  0  0  0  0  0  0  0
  140.4630   68.8752  224.6622 H   0  0  0  0  0  0  0  0  0  0  0  0
  138.5955   68.5114  227.4446 H   0  0  0  0  0  0  0  0  0  0  0  0
  138.9271   69.7392  229.5781 H   0  0  0  0  0  0  0  0  0  0  0  0
  140.1523   71.8725  229.6800 H   0  0  0  0  0  0  0  0  0  0  0  0
  141.0956   72.8454  227.5785 H   0  0  0  0  0  0  0  0  0  0  0  0
  140.9351   72.9474  225.2172 H   0  0  0  0  0  0  0  0  0  0  0  0
  142.0019   71.5338  224.9888 H   0  0  0  0  0  0  0  0  0  0  0  0
  141.6693   75.9034  219.6379 H   0  0  0  0  0  0  0  0  0  0  0  0
  139.9763   75.4733  219.1837 H   0  0  0  0  0  0  0  0  0  0  0  0
  140.5042   77.9340  219.0290 H   0  0  0  0  0  0  0  0  0  0  0  0
  139.1326   77.5345  220.1113 H   0  0  0  0  0  0  0  0  0  0  0  0
  141.7156   79.7878  220.0381 H   0  0  0  0  0  0  0  0  0  0  0  0
  142.8123   80.6821  222.0730 H   0  0  0  0  0  0  0  0  0  0  0  0
  142.6572   79.5274  224.2430 H   0  0  0  0  0  0  0  0  0  0  0  0
  141.3577   77.3904  224.4249 H   0  0  0  0  0  0  0  0  0  0  0  0
  140.2620   75.6292  223.2741 H   0  0  0  0  0  0  0  0  0  0  0  0
  138.9784   76.4231  222.3002 H   0  0  0  0  0  0  0  0  0  0  0  0
  1  2  2  0
  2  3  1  0
  3  4  1  0
  4  5  1  0
  5  6  1  0
  6  7  1  0
  7  8  1  0
  8  9  1  0
  9 10  1  0
  2 11  1  0
 11 12  2  0
 12 13  1  0
 13 14  1  0
 14 15  1  0
 15 16  1  0
 16 17  1  0
 17 18  2  0
 18 19  1  0
 19 20  2  0
 20 21  1  0
 21 22  2  0
 22 23  1  0
 13 24  2  0
 24 25  1  0
 25 26  1  0
 26 27  1  0
 27 28  1  0
 28 29  1  0
 29 30  2  0
 30 31  1  0
 31 32  2  0
 32 33  1  0
 33 34  2  0
 34 35  1  0
 25 36  2  0
 10  5  1  0
 36 11  1  0
 23 14  1  0
 35 26  1  0
 22 17  1  0
 34 29  1  0
  3 37  1  0
  4 38  1  0
  4 39  1  0
  5 40  1  6
  6 41  1  0
  6 42  1  0
  7 43  1  0
  7 44  1  0
  8 45  1  0
  8 46  1  0
  9 47  1  0
 10 48  1  0
 10 49  1  0
 15 50  1  0
 15 51  1  0
 16 52  1  0
 16 53  1  0
 18 54  1  0
 19 55  1  0
 20 56  1  0
 21 57  1  0
 23 58  1  0
 23 59  1  0
 27 60  1  0
 27 61  1  0
 28 62  1  0
 28 63  1  0
 30 64  1  0
 31 65  1  0
 32 66  1  0
 33 67  1  0
 35 68  1  0
 35 69  1  0
M  END
>  <smiles>  (74) 
O=C(NCC1CCCNC1)c1nc(N2CCc3ccccc3C2)nc(N2CCc3ccccc3C2)n1

>  <score_type>  (74) 
oracle

>  <origin>  (74) 
autodockgpu

>  <m_score__min__energy>  (74) 
-10.369999999999999

>  <m_primary>  (74) 
energy

>  <rmsd>  (74) 
8.234178299996561

>  <m_score__min__rmsd>  (74) 
8.234178299996561

>  <meeko>  (74) 
{"free_energy": -9.65, "intermolecular_energy": -11.14, "internal_energy": -1.28, "cluster_size": 4, "cluster_id": 2, "rank_in_cluster": 4}

>  <energy>  (74) 
-9.67

>  <cluster_rmsd>  (74) 
1.39

>  <cluster>  (74) 
1

$$$$

     RDKit          3D

 69 74  0  0  0  0  0  0  0  0999 V2000
  140.2940   70.6650  221.8890 O   0  0  0  0  0  0  0  0  0  0  0  0
  140.3430   71.7850  222.4940 C   0  0  0  0  0  0  0  0  0  0  0  0
  139.8280   71.7950  223.8220 N   0  0  0  0  0  0  0  0  0  0  0  0
  139.3100   70.5430  224.3330 C   0  0  0  0  0  0  0  0  0  0  0  0
  140.1720   69.9560  225.4370 C   0  0  1  0  0  0  0  0  0  0  0  0
  140.4940   71.0990  226.3650 C   0  0  0  0  0  0  0  0  0  0  0  0
  140.5510   70.7150  227.8150 C   0  0  0  0  0  0  0  0  0  0  0  0
  141.0120   69.2570  227.8440 C   0  0  0  0  0  0  0  0  0  0  0  0
  139.9090   68.4710  227.3860 N   0  0  0  0  0  0  0  0  0  0  0  0
  139.3920   68.8600  226.1060 C   0  0  0  0  0  0  0  0  0  0  0  0
  140.8850   72.9840  221.8890 C   0  0  0  0  0  0  0  0  0  0  0  0
  141.8250   72.9510  220.9270 N   0  0  0  0  0  0  0  0  0  0  0  0
  142.2830   74.1120  220.4090 C   0  0  0  0  0  0  0  0  0  0  0  0
  143.2850   74.0640  219.3840 N   0  0  0  0  0  0  0  0  0  0  0  0
  144.5680   73.5340  219.7360 C   0  0  0  0  0  0  0  0  0  0  0  0
  145.0780   72.7170  218.5420 C   0  0  0  0  0  0  0  0  0  0  0  0
  145.2070   73.6990  217.4230 C   0  0  0  0  0  0  0  0  0  0  0  0
  146.3470   73.7280  216.6190 C   0  0  0  0  0  0  0  0  0  0  0  0
  146.3690   74.6740  215.6100 C   0  0  0  0  0  0  0  0  0  0  0  0
  145.3360   75.5580  215.3800 C   0  0  0  0  0  0  0  0  0  0  0  0
  144.2140   75.5020  216.1990 C   0  0  0  0  0  0  0  0  0  0  0  0
  144.1490   74.5630  217.2310 C   0  0  0  0  0  0  0  0  0  0  0  0
  142.9240   74.5540  218.0710 C   0  0  0  0  0  0  0  0  0  0  0  0
  141.7860   75.2800  220.8700 N   0  0  0  0  0  0  0  0  0  0  0  0
  140.8460   75.3390  221.8320 C   0  0  0  0  0  0  0  0  0  0  0  0
  140.3780   76.6050  222.2610 N   0  0  0  0  0  0  0  0  0  0  0  0
  139.0730   77.0430  221.8680 C   0  0  0  0  0  0  0  0  0  0  0  0
  138.7120   78.3340  222.5650 C   0  0  0  0  0  0  0  0  0  0  0  0
  139.8030   79.3160  222.3520 C   0  0  0  0  0  0  0  0  0  0  0  0
  139.6070   80.5950  221.9150 C   0  0  0  0  0  0  0  0  0  0  0  0
  140.7210   81.3990  221.7630 C   0  0  0  0  0  0  0  0  0  0  0  0
  142.0020   80.9570  222.0330 C   0  0  0  0  0  0  0  0  0  0  0  0
  142.2000   79.6610  222.4750 C   0  0  0  0  0  0  0  0  0  0  0  0
  141.0950   78.8680  222.6250 C   0  0  0  0  0  0  0  0  0  0  0  0
  141.2060   77.4610  223.0950 C   0  0  0  0  0  0  0  0  0  0  0  0
  140.4030   74.1720  222.3350 N   0  0  0  0  0  0  0  0  0  0  0  0
  139.8270   72.6600  224.3900 H   0  0  0  0  0  0  0  0  0  0  0  0
  138.2995   70.7172  224.7312 H   0  0  0  0  0  0  0  0  0  0  0  0
  139.3025   69.8236  223.5009 H   0  0  0  0  0  0  0  0  0  0  0  0
  141.1108   69.5093  225.0777 H   0  0  0  0  0  0  0  0  0  0  0  0
  141.4727   71.5113  226.0783 H   0  0  0  0  0  0  0  0  0  0  0  0
  139.6781   71.8296  226.2626 H   0  0  0  0  0  0  0  0  0  0  0  0
  141.2675   71.3537  228.3522 H   0  0  0  0  0  0  0  0  0  0  0  0
  139.5740   70.8398  228.3048 H   0  0  0  0  0  0  0  0  0  0  0  0
  141.8779   69.1194  227.1797 H   0  0  0  0  0  0  0  0  0  0  0  0
  141.3189   68.9579  228.8571 H   0  0  0  0  0  0  0  0  0  0  0  0
  140.0300   67.4450  227.5200 H   0  0  0  0  0  0  0  0  0  0  0  0
  139.4002   67.9787  225.4477 H   0  0  0  0  0  0  0  0  0  0  0  0
  138.3787   69.2516  226.2788 H   0  0  0  0  0  0  0  0  0  0  0  0
  145.2661   74.3558  219.9533 H   0  0  0  0  0  0  0  0  0  0  0  0
  144.4908   72.9004  220.6318 H   0  0  0  0  0  0  0  0  0  0  0  0
  146.0537   72.2644  218.7727 H   0  0  0  0  0  0  0  0  0  0  0  0
  144.3977   71.8908  218.2881 H   0  0  0  0  0  0  0  0  0  0  0  0
  147.1853   73.0341  216.7793 H   0  0  0  0  0  0  0  0  0  0  0  0
  147.2543   74.7235  214.9590 H   0  0  0  0  0  0  0  0  0  0  0  0
  145.3985   76.2933  214.5643 H   0  0  0  0  0  0  0  0  0  0  0  0
  143.3775   76.1971  216.0343 H   0  0  0  0  0  0  0  0  0  0  0  0
  142.5192   75.5736  218.1515 H   0  0  0  0  0  0  0  0  0  0  0  0
  142.1564   73.9079  217.6200 H   0  0  0  0  0  0  0  0  0  0  0  0
  139.0582   77.2035  220.7799 H   0  0  0  0  0  0  0  0  0  0  0  0
  138.3408   76.2718  222.1494 H   0  0  0  0  0  0  0  0  0  0  0  0
  137.7735   78.7286  222.1486 H   0  0  0  0  0  0  0  0  0  0  0  0
  138.5793   78.1519  223.6417 H   0  0  0  0  0  0  0  0  0  0  0  0
  138.5980   80.9721  221.6918 H   0  0  0  0  0  0  0  0  0  0  0  0
  140.5821   82.4325  221.4129 H   0  0  0  0  0  0  0  0  0  0  0  0
  142.8599   81.6320  221.8972 H   0  0  0  0  0  0  0  0  0  0  0  0
  143.2084   79.2821  222.6976 H   0  0  0  0  0  0  0  0  0  0  0  0
  142.2542   77.1340  223.0293 H   0  0  0  0  0  0  0  0  0  0  0  0
  140.8663   77.3952  224.1392 H   0  0  0  0  0  0  0  0  0  0  0  0
  1  2  2  0
  2  3  1  0
  3  4  1  0
  4  5  1  0
  5  6  1  0
  6  7  1  0
  7  8  1  0
  8  9  1  0
  9 10  1  0
  2 11  1  0
 11 12  2  0
 12 13  1  0
 13 14  1  0
 14 15  1  0
 15 16  1  0
 16 17  1  0
 17 18  2  0
 18 19  1  0
 19 20  2  0
 20 21  1  0
 21 22  2  0
 22 23  1  0
 13 24  2  0
 24 25  1  0
 25 26  1  0
 26 27  1  0
 27 28  1  0
 28 29  1  0
 29 30  2  0
 30 31  1  0
 31 32  2  0
 32 33  1  0
 33 34  2  0
 34 35  1  0
 25 36  2  0
 10  5  1  0
 36 11  1  0
 23 14  1  0
 35 26  1  0
 22 17  1  0
 34 29  1  0
  3 37  1  0
  4 38  1  0
  4 39  1  0
  5 40  1  6
  6 41  1  0
  6 42  1  0
  7 43  1  0
  7 44  1  0
  8 45  1  0
  8 46  1  0
  9 47  1  0
 10 48  1  0
 10 49  1  0
 15 50  1  0
 15 51  1  0
 16 52  1  0
 16 53  1  0
 18 54  1  0
 19 55  1  0
 20 56  1  0
 21 57  1  0
 23 58  1  0
 23 59  1  0
 27 60  1  0
 27 61  1  0
 28 62  1  0
 28 63  1  0
 30 64  1  0
 31 65  1  0
 32 66  1  0
 33 67  1  0
 35 68  1  0
 35 69  1  0
M  END
>  <smiles>  (75) 
O=C(NCC1CCCNC1)c1nc(N2CCc3ccccc3C2)nc(N2CCc3ccccc3C2)n1

>  <score_type>  (75) 
oracle

>  <origin>  (75) 
autodockgpu

>  <m_score__min__energy>  (75) 
-10.369999999999999

>  <m_primary>  (75) 
energy

>  <rmsd>  (75) 
8.81810199133387

>  <m_score__min__rmsd>  (75) 
8.81810199133387

>  <meeko>  (75) 
{"free_energy": -9.6, "intermolecular_energy": -11.09, "internal_energy": -1.17, "cluster_size": 35, "cluster_id": 1, "rank_in_cluster": 27}

>  <energy>  (75) 
-9.62

>  <cluster_rmsd>  (75) 
1.73

>  <cluster>  (75) 
1

$$$$

     RDKit          3D

 69 74  0  0  0  0  0  0  0  0999 V2000
  139.9500   72.0470  224.3720 O   0  0  0  0  0  0  0  0  0  0  0  0
  140.2120   71.4840  223.2590 C   0  0  0  0  0  0  0  0  0  0  0  0
  139.7850   70.1320  223.1330 N   0  0  0  0  0  0  0  0  0  0  0  0
  139.1060   69.5500  224.2720 C   0  0  0  0  0  0  0  0  0  0  0  0
  140.0640   69.1050  225.3640 C   0  0  1  0  0  0  0  0  0  0  0  0
  140.0150   70.1770  226.4220 C   0  0  0  0  0  0  0  0  0  0  0  0
  140.1330   69.6600  227.8260 C   0  0  0  0  0  0  0  0  0  0  0  0
  140.9910   68.3960  227.7360 C   0  0  0  0  0  0  0  0  0  0  0  0
  140.1740   67.3910  227.1310 N   0  0  0  0  0  0  0  0  0  0  0  0
  139.6090   67.7650  225.8660 C   0  0  0  0  0  0  0  0  0  0  0  0
  140.8990   72.1600  222.1790 C   0  0  0  0  0  0  0  0  0  0  0  0
  140.9340   73.5010  222.0650 N   0  0  0  0  0  0  0  0  0  0  0  0
  141.5950   74.0600  221.0280 C   0  0  0  0  0  0  0  0  0  0  0  0
  141.6250   75.4900  220.9180 N   0  0  0  0  0  0  0  0  0  0  0  0
  142.3050   76.0540  219.7910 C   0  0  0  0  0  0  0  0  0  0  0  0
  141.5020   77.2760  219.3260 C   0  0  0  0  0  0  0  0  0  0  0  0
  141.5310   78.2230  220.4820 C   0  0  0  0  0  0  0  0  0  0  0  0
  141.8100   79.5770  220.2950 C   0  0  0  0  0  0  0  0  0  0  0  0
  141.8130   80.3720  221.4280 C   0  0  0  0  0  0  0  0  0  0  0  0
  141.5550   79.8850  222.6910 C   0  0  0  0  0  0  0  0  0  0  0  0
  141.2790   78.5320  222.8430 C   0  0  0  0  0  0  0  0  0  0  0  0
  141.2670   77.6920  221.7260 C   0  0  0  0  0  0  0  0  0  0  0  0
  140.9660   76.2550  221.9540 C   0  0  0  0  0  0  0  0  0  0  0  0
  142.2080   73.2590  220.1290 N   0  0  0  0  0  0  0  0  0  0  0  0
  142.1870   71.9170  220.2210 C   0  0  0  0  0  0  0  0  0  0  0  0
  142.8550   71.1490  219.2360 N   0  0  0  0  0  0  0  0  0  0  0  0
  142.1350   70.7100  218.0790 C   0  0  0  0  0  0  0  0  0  0  0  0
  143.0690   70.0550  217.0880 C   0  0  0  0  0  0  0  0  0  0  0  0
  143.8520   69.0060  217.7850 C   0  0  0  0  0  0  0  0  0  0  0  0
  143.9910   67.7260  217.3300 C   0  0  0  0  0  0  0  0  0  0  0  0
  144.7530   66.8560  218.0870 C   0  0  0  0  0  0  0  0  0  0  0  0
  145.3660   67.2340  219.2670 C   0  0  0  0  0  0  0  0  0  0  0  0
  145.2240   68.5310  219.7270 C   0  0  0  0  0  0  0  0  0  0  0  0
  144.4700   69.3900  218.9750 C   0  0  0  0  0  0  0  0  0  0  0  0
  144.2590   70.8030  219.3870 C   0  0  0  0  0  0  0  0  0  0  0  0
  141.5230   71.3790  221.2600 N   0  0  0  0  0  0  0  0  0  0  0  0
  139.9550   69.5960  222.2650 H   0  0  0  0  0  0  0  0  0  0  0  0
  138.4182   70.2989  224.6916 H   0  0  0  0  0  0  0  0  0  0  0  0
  138.5700   68.6572  223.9175 H   0  0  0  0  0  0  0  0  0  0  0  0
  141.1027   68.9847  225.0225 H   0  0  0  0  0  0  0  0  0  0  0  0
  140.8432   70.8781  226.2416 H   0  0  0  0  0  0  0  0  0  0  0  0
  139.0276   70.6552  226.3427 H   0  0  0  0  0  0  0  0  0  0  0  0
  140.6194   70.4078  228.4696 H   0  0  0  0  0  0  0  0  0  0  0  0
  139.1460   69.4482  228.2630 H   0  0  0  0  0  0  0  0  0  0  0  0
  141.8811   68.5846  227.1179 H   0  0  0  0  0  0  0  0  0  0  0  0
  141.3378   68.0799  228.7309 H   0  0  0  0  0  0  0  0  0  0  0  0
  140.5800   66.4320  227.1670 H   0  0  0  0  0  0  0  0  0  0  0  0
  139.8905   67.0040  225.1233 H   0  0  0  0  0  0  0  0  0  0  0  0
  138.5209   67.8336  226.0122 H   0  0  0  0  0  0  0  0  0  0  0  0
  143.3205   76.3613  220.0814 H   0  0  0  0  0  0  0  0  0  0  0  0
  142.3863   75.3149  218.9804 H   0  0  0  0  0  0  0  0  0  0  0  0
  141.9702   77.7320  218.4412 H   0  0  0  0  0  0  0  0  0  0  0  0
  140.4747   77.0089  219.0373 H   0  0  0  0  0  0  0  0  0  0  0  0
  142.0171   79.9919  219.2975 H   0  0  0  0  0  0  0  0  0  0  0  0
  142.0319   81.4441  221.3148 H   0  0  0  0  0  0  0  0  0  0  0  0
  141.5673   80.5554  223.5630 H   0  0  0  0  0  0  0  0  0  0  0  0
  141.0700   78.1219  223.8421 H   0  0  0  0  0  0  0  0  0  0  0  0
  141.3412   75.9471  222.9411 H   0  0  0  0  0  0  0  0  0  0  0  0
  139.8800   76.0827  221.9238 H   0  0  0  0  0  0  0  0  0  0  0  0
  141.3664   69.9850  218.3851 H   0  0  0  0  0  0  0  0  0  0  0  0
  141.6661   71.5827  217.6009 H   0  0  0  0  0  0  0  0  0  0  0  0
  142.4843   69.6000  216.2749 H   0  0  0  0  0  0  0  0  0  0  0  0
  143.7499   70.8080  216.6645 H   0  0  0  0  0  0  0  0  0  0  0  0
  143.5136   67.3990  216.3945 H   0  0  0  0  0  0  0  0  0  0  0  0
  144.8767   65.8208  217.7362 H   0  0  0  0  0  0  0  0  0  0  0  0
  145.9635   66.5074  219.8371 H   0  0  0  0  0  0  0  0  0  0  0  0
  145.6997   68.8595  220.6628 H   0  0  0  0  0  0  0  0  0  0  0  0
  144.5556   70.9260  220.4391 H   0  0  0  0  0  0  0  0  0  0  0  0
  144.8690   71.4639  218.7536 H   0  0  0  0  0  0  0  0  0  0  0  0
  1  2  2  0
  2  3  1  0
  3  4  1  0
  4  5  1  0
  5  6  1  0
  6  7  1  0
  7  8  1  0
  8  9  1  0
  9 10  1  0
  2 11  1  0
 11 12  2  0
 12 13  1  0
 13 14  1  0
 14 15  1  0
 15 16  1  0
 16 17  1  0
 17 18  2  0
 18 19  1  0
 19 20  2  0
 20 21  1  0
 21 22  2  0
 22 23  1  0
 13 24  2  0
 24 25  1  0
 25 26  1  0
 26 27  1  0
 27 28  1  0
 28 29  1  0
 29 30  2  0
 30 31  1  0
 31 32  2  0
 32 33  1  0
 33 34  2  0
 34 35  1  0
 25 36  2  0
 10  5  1  0
 36 11  1  0
 23 14  1  0
 35 26  1  0
 22 17  1  0
 34 29  1  0
  3 37  1  0
  4 38  1  0
  4 39  1  0
  5 40  1  6
  6 41  1  0
  6 42  1  0
  7 43  1  0
  7 44  1  0
  8 45  1  0
  8 46  1  0
  9 47  1  0
 10 48  1  0
 10 49  1  0
 15 50  1  0
 15 51  1  0
 16 52  1  0
 16 53  1  0
 18 54  1  0
 19 55  1  0
 20 56  1  0
 21 57  1  0
 23 58  1  0
 23 59  1  0
 27 60  1  0
 27 61  1  0
 28 62  1  0
 28 63  1  0
 30 64  1  0
 31 65  1  0
 32 66  1  0
 33 67  1  0
 35 68  1  0
 35 69  1  0
M  END
>  <smiles>  (76) 
O=C(NCC1CCCNC1)c1nc(N2CCc3ccccc3C2)nc(N2CCc3ccccc3C2)n1

>  <score_type>  (76) 
oracle

>  <origin>  (76) 
autodockgpu

>  <m_score__min__energy>  (76) 
-10.369999999999999

>  <m_primary>  (76) 
energy

>  <rmsd>  (76) 
9.353562018613214

>  <m_score__min__rmsd>  (76) 
9.353562018613214

>  <meeko>  (76) 
{"free_energy": -9.19, "intermolecular_energy": -10.68, "internal_energy": -1.13, "cluster_size": 35, "cluster_id": 1, "rank_in_cluster": 35}

>  <energy>  (76) 
-9.61

>  <cluster_rmsd>  (76) 
1.83

>  <cluster>  (76) 
1

$$$$

     RDKit          3D

 69 74  0  0  0  0  0  0  0  0999 V2000
  138.8750   71.2670  222.6760 O   0  0  0  0  0  0  0  0  0  0  0  0
  139.9380   71.8830  223.0140 C   0  0  0  0  0  0  0  0  0  0  0  0
  140.3240   71.7510  224.3780 N   0  0  0  0  0  0  0  0  0  0  0  0
  139.4740   70.9390  225.2240 C   0  0  0  0  0  0  0  0  0  0  0  0
  140.2380   69.8510  225.9570 C   0  0  1  0  0  0  0  0  0  0  0  0
  140.8980   70.5260  227.1320 C   0  0  0  0  0  0  0  0  0  0  0  0
  140.9610   69.6820  228.3700 C   0  0  0  0  0  0  0  0  0  0  0  0
  141.0460   68.2330  227.8850 C   0  0  0  0  0  0  0  0  0  0  0  0
  139.7520   67.8970  227.3770 N   0  0  0  0  0  0  0  0  0  0  0  0
  139.2590   68.7880  226.3670 C   0  0  0  0  0  0  0  0  0  0  0  0
  140.7200   72.6710  222.0840 C   0  0  0  0  0  0  0  0  0  0  0  0
  141.6200   72.1250  221.2460 N   0  0  0  0  0  0  0  0  0  0  0  0
  142.3130   72.9260  220.4070 C   0  0  0  0  0  0  0  0  0  0  0  0
  143.2690   72.3320  219.5180 N   0  0  0  0  0  0  0  0  0  0  0  0
  143.2960   72.8000  218.1650 C   0  0  0  0  0  0  0  0  0  0  0  0
  144.7620   72.8450  217.7150 C   0  0  0  0  0  0  0  0  0  0  0  0
  145.2350   71.4280  217.7890 C   0  0  0  0  0  0  0  0  0  0  0  0
  145.9680   70.8600  216.7460 C   0  0  0  0  0  0  0  0  0  0  0  0
  146.3600   69.5440  216.9100 C   0  0  0  0  0  0  0  0  0  0  0  0
  146.0610   68.8010  218.0320 C   0  0  0  0  0  0  0  0  0  0  0  0
  145.3300   69.3970  219.0530 C   0  0  0  0  0  0  0  0  0  0  0  0
  144.9130   70.7250  218.9300 C   0  0  0  0  0  0  0  0  0  0  0  0
  144.1350   71.3050  220.0550 C   0  0  0  0  0  0  0  0  0  0  0  0
  142.0850   74.2570  220.4280 N   0  0  0  0  0  0  0  0  0  0  0  0
  141.1900   74.8260  221.2570 C   0  0  0  0  0  0  0  0  0  0  0  0
  141.0120   76.2310  221.2180 N   0  0  0  0  0  0  0  0  0  0  0  0
  141.3500   76.9510  220.0280 C   0  0  0  0  0  0  0  0  0  0  0  0
  140.9290   78.3970  220.1420 C   0  0  0  0  0  0  0  0  0  0  0  0
  141.4760   78.9590  221.4010 C   0  0  0  0  0  0  0  0  0  0  0  0
  142.1670   80.1340  221.4790 C   0  0  0  0  0  0  0  0  0  0  0  0
  142.6170   80.5330  222.7230 C   0  0  0  0  0  0  0  0  0  0  0  0
  142.3930   79.7940  223.8690 C   0  0  0  0  0  0  0  0  0  0  0  0
  141.6930   78.6030  223.7900 C   0  0  0  0  0  0  0  0  0  0  0  0
  141.2490   78.2110  222.5560 C   0  0  0  0  0  0  0  0  0  0  0  0
  140.4880   76.9470  222.3700 C   0  0  0  0  0  0  0  0  0  0  0  0
  140.5110   74.0130  222.0860 N   0  0  0  0  0  0  0  0  0  0  0  0
  141.1740   72.2150  224.7420 H   0  0  0  0  0  0  0  0  0  0  0  0
  138.9921   71.5913  225.9672 H   0  0  0  0  0  0  0  0  0  0  0  0
  138.7365   70.4448  224.5745 H   0  0  0  0  0  0  0  0  0  0  0  0
  141.0087   69.3600  225.3447 H   0  0  0  0  0  0  0  0  0  0  0  0
  141.9255   70.7931  226.8440 H   0  0  0  0  0  0  0  0  0  0  0  0
  140.2827   71.4038  227.3788 H   0  0  0  0  0  0  0  0  0  0  0  0
  141.8503   69.9396  228.9640 H   0  0  0  0  0  0  0  0  0  0  0  0
  140.0832   69.8420  229.0133 H   0  0  0  0  0  0  0  0  0  0  0  0
  141.8013   68.1421  227.0904 H   0  0  0  0  0  0  0  0  0  0  0  0
  141.3399   67.5573  228.7017 H   0  0  0  0  0  0  0  0  0  0  0  0
  139.6240   66.8840  227.1730 H   0  0  0  0  0  0  0  0  0  0  0  0
  139.0015   68.1938  225.4778 H   0  0  0  0  0  0  0  0  0  0  0  0
  138.3895   69.3062  226.7977 H   0  0  0  0  0  0  0  0  0  0  0  0
  142.7272   72.1140  217.5201 H   0  0  0  0  0  0  0  0  0  0  0  0
  142.8409   73.7989  218.0942 H   0  0  0  0  0  0  0  0  0  0  0  0
  144.8386   73.2246  216.6854 H   0  0  0  0  0  0  0  0  0  0  0  0
  145.3663   73.5150  218.3442 H   0  0  0  0  0  0  0  0  0  0  0  0
  146.2210   71.4300  215.8398 H   0  0  0  0  0  0  0  0  0  0  0  0
  146.9388   69.0666  216.1056 H   0  0  0  0  0  0  0  0  0  0  0  0
  146.3946   67.7563  218.1177 H   0  0  0  0  0  0  0  0  0  0  0  0
  145.0798   68.8234  219.9576 H   0  0  0  0  0  0  0  0  0  0  0  0
  143.5309   70.5206  220.5344 H   0  0  0  0  0  0  0  0  0  0  0  0
  144.8134   71.7328  220.8078 H   0  0  0  0  0  0  0  0  0  0  0  0
  142.4380   76.9027  219.8733 H   0  0  0  0  0  0  0  0  0  0  0  0
  140.8232   76.4950  219.1768 H   0  0  0  0  0  0  0  0  0  0  0  0
  141.3197   78.9640  219.2842 H   0  0  0  0  0  0  0  0  0  0  0  0
  139.8312   78.4660  220.1491 H   0  0  0  0  0  0  0  0  0  0  0  0
  142.3588   80.7419  220.5826 H   0  0  0  0  0  0  0  0  0  0  0  0
  143.1760   81.4769  222.8044 H   0  0  0  0  0  0  0  0  0  0  0  0
  142.7693   80.1507  224.8391 H   0  0  0  0  0  0  0  0  0  0  0  0
  141.5005   77.9939  224.6855 H   0  0  0  0  0  0  0  0  0  0  0  0
  140.5912   76.3212  223.2687 H   0  0  0  0  0  0  0  0  0  0  0  0
  139.4256   77.1794  222.2052 H   0  0  0  0  0  0  0  0  0  0  0  0
  1  2  2  0
  2  3  1  0
  3  4  1  0
  4  5  1  0
  5  6  1  0
  6  7  1  0
  7  8  1  0
  8  9  1  0
  9 10  1  0
  2 11  1  0
 11 12  2  0
 12 13  1  0
 13 14  1  0
 14 15  1  0
 15 16  1  0
 16 17  1  0
 17 18  2  0
 18 19  1  0
 19 20  2  0
 20 21  1  0
 21 22  2  0
 22 23  1  0
 13 24  2  0
 24 25  1  0
 25 26  1  0
 26 27  1  0
 27 28  1  0
 28 29  1  0
 29 30  2  0
 30 31  1  0
 31 32  2  0
 32 33  1  0
 33 34  2  0
 34 35  1  0
 25 36  2  0
 10  5  1  0
 36 11  1  0
 23 14  1  0
 35 26  1  0
 22 17  1  0
 34 29  1  0
  3 37  1  0
  4 38  1  0
  4 39  1  0
  5 40  1  6
  6 41  1  0
  6 42  1  0
  7 43  1  0
  7 44  1  0
  8 45  1  0
  8 46  1  0
  9 47  1  0
 10 48  1  0
 10 49  1  0
 15 50  1  0
 15 51  1  0
 16 52  1  0
 16 53  1  0
 18 54  1  0
 19 55  1  0
 20 56  1  0
 21 57  1  0
 23 58  1  0
 23 59  1  0
 27 60  1  0
 27 61  1  0
 28 62  1  0
 28 63  1  0
 30 64  1  0
 31 65  1  0
 32 66  1  0
 33 67  1  0
 35 68  1  0
 35 69  1  0
M  END
>  <smiles>  (77) 
O=C(NCC1CCCNC1)c1nc(N2CCc3ccccc3C2)nc(N2CCc3ccccc3C2)n1

>  <score_type>  (77) 
oracle

>  <origin>  (77) 
autodockgpu

>  <m_score__min__energy>  (77) 
-10.369999999999999

>  <m_primary>  (77) 
energy

>  <rmsd>  (77) 
9.321088514151262

>  <m_score__min__rmsd>  (77) 
9.321088514151262

>  <meeko>  (77) 
{"free_energy": -10.15, "intermolecular_energy": -11.64, "internal_energy": -0.94, "cluster_size": 35, "cluster_id": 1, "rank_in_cluster": 11}

>  <energy>  (77) 
-9.6

>  <cluster_rmsd>  (77) 
1.88

>  <cluster>  (77) 
1

$$$$

     RDKit          3D

 69 74  0  0  0  0  0  0  0  0999 V2000
  138.6800   71.6690  222.7530 O   0  0  0  0  0  0  0  0  0  0  0  0
  139.8910   71.9890  222.9890 C   0  0  0  0  0  0  0  0  0  0  0  0
  140.4230   71.5290  224.2270 N   0  0  0  0  0  0  0  0  0  0  0  0
  139.5380   70.7550  225.0730 C   0  0  0  0  0  0  0  0  0  0  0  0
  140.2710   69.7000  225.8830 C   0  0  1  0  0  0  0  0  0  0  0  0
  140.8960   70.4280  227.0450 C   0  0  0  0  0  0  0  0  0  0  0  0
  140.9130   69.6430  228.3240 C   0  0  0  0  0  0  0  0  0  0  0  0
  141.0050   68.1730  227.9120 C   0  0  0  0  0  0  0  0  0  0  0  0
  139.7270   67.8180  227.3770 N   0  0  0  0  0  0  0  0  0  0  0  0
  139.2730   68.6620  226.3100 C   0  0  0  0  0  0  0  0  0  0  0  0
  140.6920   72.7700  222.0700 C   0  0  0  0  0  0  0  0  0  0  0  0
  141.5920   72.2150  221.2380 N   0  0  0  0  0  0  0  0  0  0  0  0
  142.3040   73.0100  220.4080 C   0  0  0  0  0  0  0  0  0  0  0  0
  143.2590   72.4060  219.5250 N   0  0  0  0  0  0  0  0  0  0  0  0
  143.3110   72.8860  218.1770 C   0  0  0  0  0  0  0  0  0  0  0  0
  144.7830   72.9070  217.7460 C   0  0  0  0  0  0  0  0  0  0  0  0
  145.2280   71.4810  217.8110 C   0  0  0  0  0  0  0  0  0  0  0  0
  145.9620   70.9090  216.7710 C   0  0  0  0  0  0  0  0  0  0  0  0
  146.3270   69.5830  216.9270 C   0  0  0  0  0  0  0  0  0  0  0  0
  146.0000   68.8360  218.0370 C   0  0  0  0  0  0  0  0  0  0  0  0
  145.2680   69.4360  219.0550 C   0  0  0  0  0  0  0  0  0  0  0  0
  144.8780   70.7730  218.9410 C   0  0  0  0  0  0  0  0  0  0  0  0
  144.0970   71.3560  220.0620 C   0  0  0  0  0  0  0  0  0  0  0  0
  142.0950   74.3440  220.4340 N   0  0  0  0  0  0  0  0  0  0  0  0
  141.2010   74.9220  221.2570 C   0  0  0  0  0  0  0  0  0  0  0  0
  141.0430   76.3290  221.2230 N   0  0  0  0  0  0  0  0  0  0  0  0
  141.5150   77.0630  220.0890 C   0  0  0  0  0  0  0  0  0  0  0  0
  141.1010   78.5130  220.1820 C   0  0  0  0  0  0  0  0  0  0  0  0
  141.5150   79.0480  221.5020 C   0  0  0  0  0  0  0  0  0  0  0  0
  142.2070   80.2130  221.6730 C   0  0  0  0  0  0  0  0  0  0  0  0
  142.5250   80.5860  222.9650 C   0  0  0  0  0  0  0  0  0  0  0  0
  142.1720   79.8320  224.0680 C   0  0  0  0  0  0  0  0  0  0  0  0
  141.4710   78.6510  223.8940 C   0  0  0  0  0  0  0  0  0  0  0  0
  141.1570   78.2850  222.6130 C   0  0  0  0  0  0  0  0  0  0  0  0
  140.4070   77.0340  222.3250 C   0  0  0  0  0  0  0  0  0  0  0  0
  140.5030   74.1150  222.0760 N   0  0  0  0  0  0  0  0  0  0  0  0
  141.3970   71.7410  224.5030 H   0  0  0  0  0  0  0  0  0  0  0  0
  139.0279   71.4392  225.7670 H   0  0  0  0  0  0  0  0  0  0  0  0
  138.8258   70.2330  224.4170 H   0  0  0  0  0  0  0  0  0  0  0  0
  141.0588   69.1765  225.3214 H   0  0  0  0  0  0  0  0  0  0  0  0
  141.9339   70.6765  226.7787 H   0  0  0  0  0  0  0  0  0  0  0  0
  140.2787   71.3197  227.2290 H   0  0  0  0  0  0  0  0  0  0  0  0
  141.7838   69.9246  228.9343 H   0  0  0  0  0  0  0  0  0  0  0  0
  140.0154   69.8375  228.9294 H   0  0  0  0  0  0  0  0  0  0  0  0
  141.7860   68.0409  227.1487 H   0  0  0  0  0  0  0  0  0  0  0  0
  141.2668   67.5362  228.7698 H   0  0  0  0  0  0  0  0  0  0  0  0
  139.6000   66.7970  227.2170 H   0  0  0  0  0  0  0  0  0  0  0  0
  139.0417   68.0273  225.4419 H   0  0  0  0  0  0  0  0  0  0  0  0
  138.3927   69.2038  226.6864 H   0  0  0  0  0  0  0  0  0  0  0  0
  142.7374   72.2170  217.5187 H   0  0  0  0  0  0  0  0  0  0  0  0
  142.8754   73.8939  218.1098 H   0  0  0  0  0  0  0  0  0  0  0  0
  144.8800   73.2955  216.7215 H   0  0  0  0  0  0  0  0  0  0  0  0
  145.3919   73.5586  218.3899 H   0  0  0  0  0  0  0  0  0  0  0  0
  146.2364   71.4825  215.8733 H   0  0  0  0  0  0  0  0  0  0  0  0
  146.9066   69.1022  216.1252 H   0  0  0  0  0  0  0  0  0  0  0  0
  146.3123   67.7843  218.1164 H   0  0  0  0  0  0  0  0  0  0  0  0
  144.9957   68.8582  219.9505 H   0  0  0  0  0  0  0  0  0  0  0  0
  143.4710   70.5788  220.5246 H   0  0  0  0  0  0  0  0  0  0  0  0
  144.7736   71.7617  220.8285 H   0  0  0  0  0  0  0  0  0  0  0  0
  142.6127   77.0025  220.0510 H   0  0  0  0  0  0  0  0  0  0  0  0
  141.0773   76.6277  219.1786 H   0  0  0  0  0  0  0  0  0  0  0  0
  141.5887   79.0882  219.3812 H   0  0  0  0  0  0  0  0  0  0  0  0
  140.0097   78.5964  220.0721 H   0  0  0  0  0  0  0  0  0  0  0  0
  142.5008   80.8324  220.8128 H   0  0  0  0  0  0  0  0  0  0  0  0
  143.0820   81.5215  223.1219 H   0  0  0  0  0  0  0  0  0  0  0  0
  142.4465   80.1684  225.0787 H   0  0  0  0  0  0  0  0  0  0  0  0
  141.1773   78.0299  224.7531 H   0  0  0  0  0  0  0  0  0  0  0  0
  140.4068   76.3928  223.2188 H   0  0  0  0  0  0  0  0  0  0  0  0
  139.3710   77.2828  222.0514 H   0  0  0  0  0  0  0  0  0  0  0  0
  1  2  2  0
  2  3  1  0
  3  4  1  0
  4  5  1  0
  5  6  1  0
  6  7  1  0
  7  8  1  0
  8  9  1  0
  9 10  1  0
  2 11  1  0
 11 12  2  0
 12 13  1  0
 13 14  1  0
 14 15  1  0
 15 16  1  0
 16 17  1  0
 17 18  2  0
 18 19  1  0
 19 20  2  0
 20 21  1  0
 21 22  2  0
 22 23  1  0
 13 24  2  0
 24 25  1  0
 25 26  1  0
 26 27  1  0
 27 28  1  0
 28 29  1  0
 29 30  2  0
 30 31  1  0
 31 32  2  0
 32 33  1  0
 33 34  2  0
 34 35  1  0
 25 36  2  0
 10  5  1  0
 36 11  1  0
 23 14  1  0
 35 26  1  0
 22 17  1  0
 34 29  1  0
  3 37  1  0
  4 38  1  0
  4 39  1  0
  5 40  1  6
  6 41  1  0
  6 42  1  0
  7 43  1  0
  7 44  1  0
  8 45  1  0
  8 46  1  0
  9 47  1  0
 10 48  1  0
 10 49  1  0
 15 50  1  0
 15 51  1  0
 16 52  1  0
 16 53  1  0
 18 54  1  0
 19 55  1  0
 20 56  1  0
 21 57  1  0
 23 58  1  0
 23 59  1  0
 27 60  1  0
 27 61  1  0
 28 62  1  0
 28 63  1  0
 30 64  1  0
 31 65  1  0
 32 66  1  0
 33 67  1  0
 35 68  1  0
 35 69  1  0
M  END
>  <smiles>  (78) 
O=C(NCC1CCCNC1)c1nc(N2CCc3ccccc3C2)nc(N2CCc3ccccc3C2)n1

>  <score_type>  (78) 
oracle

>  <origin>  (78) 
autodockgpu

>  <m_score__min__energy>  (78) 
-10.369999999999999

>  <m_primary>  (78) 
energy

>  <rmsd>  (78) 
9.33884076295803

>  <m_score__min__rmsd>  (78) 
9.33884076295803

>  <meeko>  (78) 
{"free_energy": -10.33, "intermolecular_energy": -11.82, "internal_energy": -0.92, "cluster_size": 35, "cluster_id": 1, "rank_in_cluster": 5}

>  <energy>  (78) 
-9.58

>  <cluster_rmsd>  (78) 
0.69

>  <cluster>  (78) 
1

$$$$

     RDKit          3D

 69 74  0  0  0  0  0  0  0  0999 V2000
  140.1890   70.6670  221.9450 O   0  0  0  0  0  0  0  0  0  0  0  0
  140.3130   71.7770  222.5580 C   0  0  0  0  0  0  0  0  0  0  0  0
  139.8810   71.7870  223.9150 N   0  0  0  0  0  0  0  0  0  0  0  0
  139.3530   70.5460  224.4430 C   0  0  0  0  0  0  0  0  0  0  0  0
  140.2170   69.9610  225.5470 C   0  0  1  0  0  0  0  0  0  0  0  0
  140.5120   71.0980  226.4910 C   0  0  0  0  0  0  0  0  0  0  0  0
  140.5660   70.6980  227.9360 C   0  0  0  0  0  0  0  0  0  0  0  0
  141.0530   69.2480  227.9510 C   0  0  0  0  0  0  0  0  0  0  0  0
  139.9670   68.4490  227.4760 N   0  0  0  0  0  0  0  0  0  0  0  0
  139.4520   68.8440  226.1970 C   0  0  0  0  0  0  0  0  0  0  0  0
  140.8570   72.9650  221.9330 C   0  0  0  0  0  0  0  0  0  0  0  0
  141.8120   72.9150  220.9870 N   0  0  0  0  0  0  0  0  0  0  0  0
  142.2710   74.0680  220.4500 C   0  0  0  0  0  0  0  0  0  0  0  0
  143.2890   74.0020  219.4410 N   0  0  0  0  0  0  0  0  0  0  0  0
  144.5570   73.4510  219.8150 C   0  0  0  0  0  0  0  0  0  0  0  0
  145.0740   72.6250  218.6310 C   0  0  0  0  0  0  0  0  0  0  0  0
  145.2380   73.6040  217.5130 C   0  0  0  0  0  0  0  0  0  0  0  0
  146.3910   73.6140  216.7290 C   0  0  0  0  0  0  0  0  0  0  0  0
  146.4470   74.5590  215.7200 C   0  0  0  0  0  0  0  0  0  0  0  0
  145.4330   75.4590  215.4730 C   0  0  0  0  0  0  0  0  0  0  0  0
  144.2960   75.4230  216.2720 C   0  0  0  0  0  0  0  0  0  0  0  0
  144.1980   74.4850  217.3030 C   0  0  0  0  0  0  0  0  0  0  0  0
  142.9580   74.4970  218.1230 C   0  0  0  0  0  0  0  0  0  0  0  0
  141.7590   75.2420  220.8760 N   0  0  0  0  0  0  0  0  0  0  0  0
  140.8040   75.3170  221.8210 C   0  0  0  0  0  0  0  0  0  0  0  0
  140.3210   76.5900  222.2130 N   0  0  0  0  0  0  0  0  0  0  0  0
  139.0510   77.0390  221.7320 C   0  0  0  0  0  0  0  0  0  0  0  0
  138.6570   78.3370  222.3980 C   0  0  0  0  0  0  0  0  0  0  0  0
  139.7700   79.3080  222.2550 C   0  0  0  0  0  0  0  0  0  0  0  0
  139.6170   80.5860  221.8010 C   0  0  0  0  0  0  0  0  0  0  0  0
  140.7460   81.3780  221.7200 C   0  0  0  0  0  0  0  0  0  0  0  0
  142.0020   80.9250  222.0780 C   0  0  0  0  0  0  0  0  0  0  0  0
  142.1570   79.6290  222.5370 C   0  0  0  0  0  0  0  0  0  0  0  0
  141.0360   78.8470  222.6160 C   0  0  0  0  0  0  0  0  0  0  0  0
  141.1010   77.4420  223.0970 C   0  0  0  0  0  0  0  0  0  0  0  0
  140.3600   74.1600  222.3440 N   0  0  0  0  0  0  0  0  0  0  0  0
  139.9440   72.6440  224.4910 H   0  0  0  0  0  0  0  0  0  0  0  0
  138.3475   70.7355  224.8468 H   0  0  0  0  0  0  0  0  0  0  0  0
  139.3313   69.8180  223.6186 H   0  0  0  0  0  0  0  0  0  0  0  0
  141.1661   69.5352  225.1894 H   0  0  0  0  0  0  0  0  0  0  0  0
  141.4850   71.5312  226.2162 H   0  0  0  0  0  0  0  0  0  0  0  0
  139.6836   71.8149  226.3917 H   0  0  0  0  0  0  0  0  0  0  0  0
  141.2673   71.3430  228.4857 H   0  0  0  0  0  0  0  0  0  0  0  0
  139.5836   70.7994  228.4204 H   0  0  0  0  0  0  0  0  0  0  0  0
  141.9257   69.1336  227.2912 H   0  0  0  0  0  0  0  0  0  0  0  0
  141.3587   68.9420  228.9624 H   0  0  0  0  0  0  0  0  0  0  0  0
  140.1060   67.4230  227.5980 H   0  0  0  0  0  0  0  0  0  0  0  0
  139.4803   67.9709  225.5285 H   0  0  0  0  0  0  0  0  0  0  0  0
  138.4307   69.2156  226.3670 H   0  0  0  0  0  0  0  0  0  0  0  0
  145.2648   74.2614  220.0439 H   0  0  0  0  0  0  0  0  0  0  0  0
  144.4538   72.8192  220.7096 H   0  0  0  0  0  0  0  0  0  0  0  0
  146.0382   72.1571  218.8787 H   0  0  0  0  0  0  0  0  0  0  0  0
  144.3849   71.8096  218.3661 H   0  0  0  0  0  0  0  0  0  0  0  0
  147.2147   72.9062  216.9039 H   0  0  0  0  0  0  0  0  0  0  0  0
  147.3441   74.5936  215.0843 H   0  0  0  0  0  0  0  0  0  0  0  0
  145.5217   76.1927  214.6582 H   0  0  0  0  0  0  0  0  0  0  0  0
  143.4744   76.1321  216.0928 H   0  0  0  0  0  0  0  0  0  0  0  0
  142.5690   75.5233  218.1965 H   0  0  0  0  0  0  0  0  0  0  0  0
  142.1872   73.8638  217.6594 H   0  0  0  0  0  0  0  0  0  0  0  0
  139.1109   77.1945  220.6447 H   0  0  0  0  0  0  0  0  0  0  0  0
  138.2938   76.2765  221.9669 H   0  0  0  0  0  0  0  0  0  0  0  0
  137.7526   78.7387  221.9178 H   0  0  0  0  0  0  0  0  0  0  0  0
  138.4506   78.1612  223.4640 H   0  0  0  0  0  0  0  0  0  0  0  0
  138.6290   80.9720  221.5097 H   0  0  0  0  0  0  0  0  0  0  0  0
  140.6413   82.4107  221.3560 H   0  0  0  0  0  0  0  0  0  0  0  0
  142.8736   81.5913  221.9984 H   0  0  0  0  0  0  0  0  0  0  0  0
  143.1445   79.2412  222.8277 H   0  0  0  0  0  0  0  0  0  0  0  0
  142.1479   77.1043  223.1020 H   0  0  0  0  0  0  0  0  0  0  0  0
  140.6921   77.3843  224.1165 H   0  0  0  0  0  0  0  0  0  0  0  0
  1  2  2  0
  2  3  1  0
  3  4  1  0
  4  5  1  0
  5  6  1  0
  6  7  1  0
  7  8  1  0
  8  9  1  0
  9 10  1  0
  2 11  1  0
 11 12  2  0
 12 13  1  0
 13 14  1  0
 14 15  1  0
 15 16  1  0
 16 17  1  0
 17 18  2  0
 18 19  1  0
 19 20  2  0
 20 21  1  0
 21 22  2  0
 22 23  1  0
 13 24  2  0
 24 25  1  0
 25 26  1  0
 26 27  1  0
 27 28  1  0
 28 29  1  0
 29 30  2  0
 30 31  1  0
 31 32  2  0
 32 33  1  0
 33 34  2  0
 34 35  1  0
 25 36  2  0
 10  5  1  0
 36 11  1  0
 23 14  1  0
 35 26  1  0
 22 17  1  0
 34 29  1  0
  3 37  1  0
  4 38  1  0
  4 39  1  0
  5 40  1  6
  6 41  1  0
  6 42  1  0
  7 43  1  0
  7 44  1  0
  8 45  1  0
  8 46  1  0
  9 47  1  0
 10 48  1  0
 10 49  1  0
 15 50  1  0
 15 51  1  0
 16 52  1  0
 16 53  1  0
 18 54  1  0
 19 55  1  0
 20 56  1  0
 21 57  1  0
 23 58  1  0
 23 59  1  0
 27 60  1  0
 27 61  1  0
 28 62  1  0
 28 63  1  0
 30 64  1  0
 31 65  1  0
 32 66  1  0
 33 67  1  0
 35 68  1  0
 35 69  1  0
M  END
>  <smiles>  (79) 
O=C(NCC1CCCNC1)c1nc(N2CCc3ccccc3C2)nc(N2CCc3ccccc3C2)n1

>  <score_type>  (79) 
oracle

>  <origin>  (79) 
autodockgpu

>  <m_score__min__energy>  (79) 
-10.369999999999999

>  <m_primary>  (79) 
energy

>  <rmsd>  (79) 
8.881209986594973

>  <m_score__min__rmsd>  (79) 
8.881209986594973

>  <meeko>  (79) 
{"free_energy": -9.69, "intermolecular_energy": -11.18, "internal_energy": -1.13, "cluster_size": 35, "cluster_id": 1, "rank_in_cluster": 21}

>  <energy>  (79) 
-9.58

>  <cluster_rmsd>  (79) 
1.78

>  <cluster>  (79) 
1

$$$$

     RDKit          3D

 69 74  0  0  0  0  0  0  0  0999 V2000
  138.5850   72.1960  223.0250 O   0  0  0  0  0  0  0  0  0  0  0  0
  139.8470   72.0440  222.9290 C   0  0  0  0  0  0  0  0  0  0  0  0
  140.4190   71.0610  223.7860 N   0  0  0  0  0  0  0  0  0  0  0  0
  139.5130   70.3490  224.6630 C   0  0  0  0  0  0  0  0  0  0  0  0
  140.2320   69.6040  225.7740 C   0  0  1  0  0  0  0  0  0  0  0  0
  140.3130   70.5640  226.9330 C   0  0  0  0  0  0  0  0  0  0  0  0
  140.1700   69.9160  228.2790 C   0  0  0  0  0  0  0  0  0  0  0  0
  140.7330   68.5020  228.1240 C   0  0  0  0  0  0  0  0  0  0  0  0
  139.7810   67.7670  227.3520 N   0  0  0  0  0  0  0  0  0  0  0  0
  139.4430   68.3660  226.0940 C   0  0  0  0  0  0  0  0  0  0  0  0
  140.6650   72.8120  222.0140 C   0  0  0  0  0  0  0  0  0  0  0  0
  141.5620   72.2420  221.1890 N   0  0  0  0  0  0  0  0  0  0  0  0
  142.2900   73.0250  220.3620 C   0  0  0  0  0  0  0  0  0  0  0  0
  143.2430   72.4060  219.4870 N   0  0  0  0  0  0  0  0  0  0  0  0
  143.3080   72.8790  218.1370 C   0  0  0  0  0  0  0  0  0  0  0  0
  144.7820   72.8800  217.7130 C   0  0  0  0  0  0  0  0  0  0  0  0
  145.2100   71.4500  217.7870 C   0  0  0  0  0  0  0  0  0  0  0  0
  145.9430   70.8640  216.7540 C   0  0  0  0  0  0  0  0  0  0  0  0
  146.2910   69.5350  216.9180 C   0  0  0  0  0  0  0  0  0  0  0  0
  145.9500   68.7970  218.0310 C   0  0  0  0  0  0  0  0  0  0  0  0
  145.2200   69.4100  219.0420 C   0  0  0  0  0  0  0  0  0  0  0  0
  144.8460   70.7510  218.9190 C   0  0  0  0  0  0  0  0  0  0  0  0
  144.0670   71.3490  220.0330 C   0  0  0  0  0  0  0  0  0  0  0  0
  142.1000   74.3620  220.3830 N   0  0  0  0  0  0  0  0  0  0  0  0
  141.2090   74.9540  221.2000 C   0  0  0  0  0  0  0  0  0  0  0  0
  141.0710   76.3630  221.1610 N   0  0  0  0  0  0  0  0  0  0  0  0
  141.5730   77.0900  220.0350 C   0  0  0  0  0  0  0  0  0  0  0  0
  141.1760   78.5450  220.1190 C   0  0  0  0  0  0  0  0  0  0  0  0
  141.5750   79.0760  221.4450 C   0  0  0  0  0  0  0  0  0  0  0  0
  142.2790   80.2310  221.6280 C   0  0  0  0  0  0  0  0  0  0  0  0
  142.5800   80.6020  222.9240 C   0  0  0  0  0  0  0  0  0  0  0  0
  142.1960   79.8540  224.0210 C   0  0  0  0  0  0  0  0  0  0  0  0
  141.4830   78.6830  223.8370 C   0  0  0  0  0  0  0  0  0  0  0  0
  141.1870   78.3190  222.5510 C   0  0  0  0  0  0  0  0  0  0  0  0
  140.4250   77.0780  222.2510 C   0  0  0  0  0  0  0  0  0  0  0  0
  140.4940   74.1590  222.0160 N   0  0  0  0  0  0  0  0  0  0  0  0
  141.4350   70.8690  223.7770 H   0  0  0  0  0  0  0  0  0  0  0  0
  138.8210   71.0738  225.1167 H   0  0  0  0  0  0  0  0  0  0  0  0
  138.9815   69.6027  224.0543 H   0  0  0  0  0  0  0  0  0  0  0  0
  141.2474   69.2777  225.5049 H   0  0  0  0  0  0  0  0  0  0  0  0
  141.2895   71.0690  226.8952 H   0  0  0  0  0  0  0  0  0  0  0  0
  139.4687   71.2609  226.8261 H   0  0  0  0  0  0  0  0  0  0  0  0
  140.7408   70.4746  229.0354 H   0  0  0  0  0  0  0  0  0  0  0  0
  139.1213   69.8996  228.6106 H   0  0  0  0  0  0  0  0  0  0  0  0
  141.7012   68.5338  227.6028 H   0  0  0  0  0  0  0  0  0  0  0  0
  140.8984   68.0307  229.1041 H   0  0  0  0  0  0  0  0  0  0  0  0
  139.9590   66.7410  227.3190 H   0  0  0  0  0  0  0  0  0  0  0  0
  139.6226   67.6266  225.2996 H   0  0  0  0  0  0  0  0  0  0  0  0
  138.3878   68.6697  226.1599 H   0  0  0  0  0  0  0  0  0  0  0  0
  142.7294   72.2140  217.4789 H   0  0  0  0  0  0  0  0  0  0  0  0
  142.8855   73.8919  218.0632 H   0  0  0  0  0  0  0  0  0  0  0  0
  144.8883   73.2622  216.6870 H   0  0  0  0  0  0  0  0  0  0  0  0
  145.3954   73.5274  218.3569 H   0  0  0  0  0  0  0  0  0  0  0  0
  146.2294   71.4299  215.8553 H   0  0  0  0  0  0  0  0  0  0  0  0
  146.8681   69.0433  216.1211 H   0  0  0  0  0  0  0  0  0  0  0  0
  146.2502   67.7423  218.1173 H   0  0  0  0  0  0  0  0  0  0  0  0
  144.9365   68.8399  219.9390 H   0  0  0  0  0  0  0  0  0  0  0  0
  143.4302   70.5815  220.4971 H   0  0  0  0  0  0  0  0  0  0  0  0
  144.7451   71.7513  220.8000 H   0  0  0  0  0  0  0  0  0  0  0  0
  142.6703   77.0155  220.0171 H   0  0  0  0  0  0  0  0  0  0  0  0
  141.1463   76.6593  219.1171 H   0  0  0  0  0  0  0  0  0  0  0  0
  141.6842   79.1128  219.3257 H   0  0  0  0  0  0  0  0  0  0  0  0
  140.0879   78.6424  219.9906 H   0  0  0  0  0  0  0  0  0  0  0  0
  142.5959   80.8455  220.7724 H   0  0  0  0  0  0  0  0  0  0  0  0
  143.1478   81.5295  223.0896 H   0  0  0  0  0  0  0  0  0  0  0  0
  142.4563   80.1885  225.0361 H   0  0  0  0  0  0  0  0  0  0  0  0
  141.1659   78.0675  224.6918 H   0  0  0  0  0  0  0  0  0  0  0  0
  140.4001   76.4380  223.1453 H   0  0  0  0  0  0  0  0  0  0  0  0
  139.3975   77.3406  221.9588 H   0  0  0  0  0  0  0  0  0  0  0  0
  1  2  2  0
  2  3  1  0
  3  4  1  0
  4  5  1  0
  5  6  1  0
  6  7  1  0
  7  8  1  0
  8  9  1  0
  9 10  1  0
  2 11  1  0
 11 12  2  0
 12 13  1  0
 13 14  1  0
 14 15  1  0
 15 16  1  0
 16 17  1  0
 17 18  2  0
 18 19  1  0
 19 20  2  0
 20 21  1  0
 21 22  2  0
 22 23  1  0
 13 24  2  0
 24 25  1  0
 25 26  1  0
 26 27  1  0
 27 28  1  0
 28 29  1  0
 29 30  2  0
 30 31  1  0
 31 32  2  0
 32 33  1  0
 33 34  2  0
 34 35  1  0
 25 36  2  0
 10  5  1  0
 36 11  1  0
 23 14  1  0
 35 26  1  0
 22 17  1  0
 34 29  1  0
  3 37  1  0
  4 38  1  0
  4 39  1  0
  5 40  1  6
  6 41  1  0
  6 42  1  0
  7 43  1  0
  7 44  1  0
  8 45  1  0
  8 46  1  0
  9 47  1  0
 10 48  1  0
 10 49  1  0
 15 50  1  0
 15 51  1  0
 16 52  1  0
 16 53  1  0
 18 54  1  0
 19 55  1  0
 20 56  1  0
 21 57  1  0
 23 58  1  0
 23 59  1  0
 27 60  1  0
 27 61  1  0
 28 62  1  0
 28 63  1  0
 30 64  1  0
 31 65  1  0
 32 66  1  0
 33 67  1  0
 35 68  1  0
 35 69  1  0
M  END
>  <smiles>  (80) 
O=C(NCC1CCCNC1)c1nc(N2CCc3ccccc3C2)nc(N2CCc3ccccc3C2)n1

>  <score_type>  (80) 
oracle

>  <origin>  (80) 
autodockgpu

>  <m_score__min__energy>  (80) 
-10.369999999999999

>  <m_primary>  (80) 
energy

>  <rmsd>  (80) 
9.29230961102167

>  <m_score__min__rmsd>  (80) 
9.29230961102167

>  <meeko>  (80) 
{"free_energy": -10.29, "intermolecular_energy": -11.78, "internal_energy": -0.97, "cluster_size": 35, "cluster_id": 1, "rank_in_cluster": 8}

>  <energy>  (80) 
-9.55

>  <cluster_rmsd>  (80) 
1.88

>  <cluster>  (80) 
1

$$$$

     RDKit          3D

 69 74  0  0  0  0  0  0  0  0999 V2000
  142.4150   71.3820  218.3060 O   0  0  0  0  0  0  0  0  0  0  0  0
  142.8200   71.5250  219.5060 C   0  0  0  0  0  0  0  0  0  0  0  0
  144.1270   71.0310  219.7810 N   0  0  0  0  0  0  0  0  0  0  0  0
  144.8450   70.4260  218.6790 C   0  0  0  0  0  0  0  0  0  0  0  0
  144.8070   68.9080  218.7130 C   0  0  1  0  0  0  0  0  0  0  0  0
  144.7070   68.4620  217.2770 C   0  0  0  0  0  0  0  0  0  0  0  0
  145.4610   67.2010  216.9720 C   0  0  0  0  0  0  0  0  0  0  0  0
  145.4500   66.3840  218.2650 C   0  0  0  0  0  0  0  0  0  0  0  0
  146.3450   67.0380  219.1680 N   0  0  0  0  0  0  0  0  0  0  0  0
  146.0580   68.4250  219.3910 C   0  0  0  0  0  0  0  0  0  0  0  0
  142.0180   72.1470  220.5380 C   0  0  0  0  0  0  0  0  0  0  0  0
  141.5770   71.4780  221.6190 N   0  0  0  0  0  0  0  0  0  0  0  0
  140.8320   72.1270  222.5410 C   0  0  0  0  0  0  0  0  0  0  0  0
  140.3690   71.4030  223.6890 N   0  0  0  0  0  0  0  0  0  0  0  0
  139.1860   70.6100  223.5380 C   0  0  0  0  0  0  0  0  0  0  0  0
  139.3810   69.3230  224.3510 C   0  0  0  0  0  0  0  0  0  0  0  0
  139.5300   69.7770  225.7680 C   0  0  0  0  0  0  0  0  0  0  0  0
  138.8370   69.1450  226.8010 C   0  0  0  0  0  0  0  0  0  0  0  0
  139.0420   69.6390  228.0770 C   0  0  0  0  0  0  0  0  0  0  0  0
  139.8820   70.6970  228.3510 C   0  0  0  0  0  0  0  0  0  0  0  0
  140.5580   71.3040  227.2990 C   0  0  0  0  0  0  0  0  0  0  0  0
  140.3800   70.8380  225.9940 C   0  0  0  0  0  0  0  0  0  0  0  0
  141.1300   71.5290  224.9130 C   0  0  0  0  0  0  0  0  0  0  0  0
  140.5480   73.4350  222.3560 N   0  0  0  0  0  0  0  0  0  0  0  0
  140.9780   74.1250  221.2840 C   0  0  0  0  0  0  0  0  0  0  0  0
  140.6350   75.4940  221.1640 N   0  0  0  0  0  0  0  0  0  0  0  0
  140.7080   76.1290  219.8830 C   0  0  0  0  0  0  0  0  0  0  0  0
  140.1450   77.5300  219.9500 C   0  0  0  0  0  0  0  0  0  0  0  0
  140.8050   78.2610  221.0590 C   0  0  0  0  0  0  0  0  0  0  0  0
  141.3600   79.5020  220.9350 C   0  0  0  0  0  0  0  0  0  0  0  0
  141.9420   80.0600  222.0580 C   0  0  0  0  0  0  0  0  0  0  0  0
  141.9770   79.4140  223.2780 C   0  0  0  0  0  0  0  0  0  0  0  0
  141.4150   78.1560  223.4040 C   0  0  0  0  0  0  0  0  0  0  0  0
  140.8400   77.6060  222.2900 C   0  0  0  0  0  0  0  0  0  0  0  0
  140.2100   76.2590  222.3250 C   0  0  0  0  0  0  0  0  0  0  0  0
  141.7170   73.4620  220.3760 N   0  0  0  0  0  0  0  0  0  0  0  0
  144.5390   71.1040  220.7270 H   0  0  0  0  0  0  0  0  0  0  0  0
  144.3936   70.7676  217.7359 H   0  0  0  0  0  0  0  0  0  0  0  0
  145.8982   70.7324  218.7625 H   0  0  0  0  0  0  0  0  0  0  0  0
  143.9563   68.4972  219.2765 H   0  0  0  0  0  0  0  0  0  0  0  0
  143.6457   68.2955  217.0403 H   0  0  0  0  0  0  0  0  0  0  0  0
  145.1595   69.2571  216.6662 H   0  0  0  0  0  0  0  0  0  0  0  0
  144.9648   66.6444  216.1633 H   0  0  0  0  0  0  0  0  0  0  0  0
  146.4869   67.4143  216.6373 H   0  0  0  0  0  0  0  0  0  0  0  0
  144.4352   66.3575  218.6888 H   0  0  0  0  0  0  0  0  0  0  0  0
  145.7607   65.3450  218.0808 H   0  0  0  0  0  0  0  0  0  0  0  0
  146.5630   66.4890  220.0260 H   0  0  0  0  0  0  0  0  0  0  0  0
  145.9485   68.5856  220.4737 H   0  0  0  0  0  0  0  0  0  0  0  0
  146.8937   68.9958  218.9600 H   0  0  0  0  0  0  0  0  0  0  0  0
  138.3133   71.1631  223.9155 H   0  0  0  0  0  0  0  0  0  0  0  0
  139.0129   70.3738  222.4777 H   0  0  0  0  0  0  0  0  0  0  0  0
  138.5066   68.6638  224.2465 H   0  0  0  0  0  0  0  0  0  0  0  0
  140.2533   68.7470  224.0086 H   0  0  0  0  0  0  0  0  0  0  0  0
  138.1622   68.2974  226.6107 H   0  0  0  0  0  0  0  0  0  0  0  0
  138.5086   69.1643  228.9137 H   0  0  0  0  0  0  0  0  0  0  0  0
  140.0149   71.0543  229.3828 H   0  0  0  0  0  0  0  0  0  0  0  0
  141.2326   72.1507  227.4938 H   0  0  0  0  0  0  0  0  0  0  0  0
  141.2556   72.5920  225.1666 H   0  0  0  0  0  0  0  0  0  0  0  0
  142.1262   71.0787  224.7913 H   0  0  0  0  0  0  0  0  0  0  0  0
  141.7593   76.1769  219.5628 H   0  0  0  0  0  0  0  0  0  0  0  0
  140.1169   75.5437  219.1632 H   0  0  0  0  0  0  0  0  0  0  0  0
  140.3357   78.0503  218.9998 H   0  0  0  0  0  0  0  0  0  0  0  0
  139.0600   77.4874  220.1257 H   0  0  0  0  0  0  0  0  0  0  0  0
  141.3447   80.0392  219.9752 H   0  0  0  0  0  0  0  0  0  0  0  0
  142.3955   81.0588  221.9764 H   0  0  0  0  0  0  0  0  0  0  0  0
  142.4496   79.8974  224.1457 H   0  0  0  0  0  0  0  0  0  0  0  0
  141.4296   77.6179  224.3633 H   0  0  0  0  0  0  0  0  0  0  0  0
  140.5170   75.7345  223.2419 H   0  0  0  0  0  0  0  0  0  0  0  0
  139.1153   76.3662  222.3124 H   0  0  0  0  0  0  0  0  0  0  0  0
  1  2  2  0
  2  3  1  0
  3  4  1  0
  4  5  1  0
  5  6  1  0
  6  7  1  0
  7  8  1  0
  8  9  1  0
  9 10  1  0
  2 11  1  0
 11 12  2  0
 12 13  1  0
 13 14  1  0
 14 15  1  0
 15 16  1  0
 16 17  1  0
 17 18  2  0
 18 19  1  0
 19 20  2  0
 20 21  1  0
 21 22  2  0
 22 23  1  0
 13 24  2  0
 24 25  1  0
 25 26  1  0
 26 27  1  0
 27 28  1  0
 28 29  1  0
 29 30  2  0
 30 31  1  0
 31 32  2  0
 32 33  1  0
 33 34  2  0
 34 35  1  0
 25 36  2  0
 10  5  1  0
 36 11  1  0
 23 14  1  0
 35 26  1  0
 22 17  1  0
 34 29  1  0
  3 37  1  0
  4 38  1  0
  4 39  1  0
  5 40  1  1
  6 41  1  0
  6 42  1  0
  7 43  1  0
  7 44  1  0
  8 45  1  0
  8 46  1  0
  9 47  1  0
 10 48  1  0
 10 49  1  0
 15 50  1  0
 15 51  1  0
 16 52  1  0
 16 53  1  0
 18 54  1  0
 19 55  1  0
 20 56  1  0
 21 57  1  0
 23 58  1  0
 23 59  1  0
 27 60  1  0
 27 61  1  0
 28 62  1  0
 28 63  1  0
 30 64  1  0
 31 65  1  0
 32 66  1  0
 33 67  1  0
 35 68  1  0
 35 69  1  0
M  END
>  <smiles>  (81) 
O=C(NCC1CCCNC1)c1nc(N2CCc3ccccc3C2)nc(N2CCc3ccccc3C2)n1

>  <score_type>  (81) 
oracle

>  <origin>  (81) 
autodockgpu

>  <m_score__min__energy>  (81) 
-10.369999999999999

>  <m_primary>  (81) 
energy

>  <rmsd>  (81) 
9.03034463676911

>  <m_score__min__rmsd>  (81) 
9.03034463676911

>  <meeko>  (81) 
{"free_energy": -9.89, "intermolecular_energy": -11.39, "internal_energy": -0.97, "cluster_size": 4, "cluster_id": 2, "rank_in_cluster": 2}

>  <energy>  (81) 
-9.47

>  <cluster_rmsd>  (81) 
1.8

>  <cluster>  (81) 
1

$$$$

     RDKit          3D

 69 74  0  0  0  0  0  0  0  0999 V2000
  139.8120   75.3630  220.0760 O   0  0  0  0  0  0  0  0  0  0  0  0
  139.6830   74.8540  221.2370 C   0  0  0  0  0  0  0  0  0  0  0  0
  138.9990   75.6580  222.1930 N   0  0  0  0  0  0  0  0  0  0  0  0
  138.5310   76.9530  221.7450 C   0  0  0  0  0  0  0  0  0  0  0  0
  139.5620   78.0510  221.9370 C   0  0  1  0  0  0  0  0  0  0  0  0
  138.9490   79.0340  222.9010 C   0  0  0  0  0  0  0  0  0  0  0  0
  139.9300   79.6540  223.8530 C   0  0  0  0  0  0  0  0  0  0  0  0
  141.2640   79.7010  223.1070 C   0  0  0  0  0  0  0  0  0  0  0  0
  141.7430   78.3560  223.0420 N   0  0  0  0  0  0  0  0  0  0  0  0
  140.8210   77.4230  222.4630 C   0  0  0  0  0  0  0  0  0  0  0  0
  140.1900   73.5430  221.5820 C   0  0  0  0  0  0  0  0  0  0  0  0
  140.8610   72.7710  220.7090 N   0  0  0  0  0  0  0  0  0  0  0  0
  141.3040   71.5560  221.1040 C   0  0  0  0  0  0  0  0  0  0  0  0
  142.0190   70.7420  220.1640 N   0  0  0  0  0  0  0  0  0  0  0  0
  141.2670   69.7800  219.4160 C   0  0  0  0  0  0  0  0  0  0  0  0
  141.8390   69.7460  217.9930 C   0  0  0  0  0  0  0  0  0  0  0  0
  143.2550   69.2940  218.1530 C   0  0  0  0  0  0  0  0  0  0  0  0
  143.7920   68.3060  217.3260 C   0  0  0  0  0  0  0  0  0  0  0  0
  145.1120   67.9580  217.5540 C   0  0  0  0  0  0  0  0  0  0  0  0
  145.8860   68.5360  218.5370 C   0  0  0  0  0  0  0  0  0  0  0  0
  145.3210   69.5170  219.3430 C   0  0  0  0  0  0  0  0  0  0  0  0
  143.9910   69.9000  219.1490 C   0  0  0  0  0  0  0  0  0  0  0  0
  143.4450   70.9540  220.0430 C   0  0  0  0  0  0  0  0  0  0  0  0
  141.0640   71.1480  222.3690 N   0  0  0  0  0  0  0  0  0  0  0  0
  140.3960   71.9020  223.2600 C   0  0  0  0  0  0  0  0  0  0  0  0
  140.1850   71.3990  224.5670 N   0  0  0  0  0  0  0  0  0  0  0  0
  140.9830   71.8910  225.6480 C   0  0  0  0  0  0  0  0  0  0  0  0
  140.4850   71.3490  226.9680 C   0  0  0  0  0  0  0  0  0  0  0  0
  140.3840   69.8720  226.8740 C   0  0  0  0  0  0  0  0  0  0  0  0
  140.9090   69.0090  227.7920 C   0  0  0  0  0  0  0  0  0  0  0  0
  140.7360   67.6560  227.5730 C   0  0  0  0  0  0  0  0  0  0  0  0
  140.0610   67.1580  226.4740 C   0  0  0  0  0  0  0  0  0  0  0  0
  139.5290   68.0340  225.5440 C   0  0  0  0  0  0  0  0  0  0  0  0
  139.7020   69.3730  225.7640 C   0  0  0  0  0  0  0  0  0  0  0  0
  139.1670   70.3910  224.8210 C   0  0  0  0  0  0  0  0  0  0  0  0
  139.9620   73.1070  222.8480 N   0  0  0  0  0  0  0  0  0  0  0  0
  138.8470   75.3270  223.1610 H   0  0  0  0  0  0  0  0  0  0  0  0
  138.2839   76.8864  220.6752 H   0  0  0  0  0  0  0  0  0  0  0  0
  137.6518   77.2151  222.3519 H   0  0  0  0  0  0  0  0  0  0  0  0
  139.8283   78.5770  221.0083 H   0  0  0  0  0  0  0  0  0  0  0  0
  138.4766   79.8392  222.3192 H   0  0  0  0  0  0  0  0  0  0  0  0
  138.2280   78.4708  223.5117 H   0  0  0  0  0  0  0  0  0  0  0  0
  139.6083   80.6698  224.1265 H   0  0  0  0  0  0  0  0  0  0  0  0
  140.0086   79.0762  224.7857 H   0  0  0  0  0  0  0  0  0  0  0  0
  141.1179   80.1013  222.0929 H   0  0  0  0  0  0  0  0  0  0  0  0
  141.9838   80.3540  223.6221 H   0  0  0  0  0  0  0  0  0  0  0  0
  142.7270   78.2680  222.7100 H   0  0  0  0  0  0  0  0  0  0  0  0
  141.3253   76.9105  221.6305 H   0  0  0  0  0  0  0  0  0  0  0  0
  140.5203   76.7343  223.2663 H   0  0  0  0  0  0  0  0  0  0  0  0
  141.3603   68.7876  219.8812 H   0  0  0  0  0  0  0  0  0  0  0  0
  140.2018   70.0537  219.3969 H   0  0  0  0  0  0  0  0  0  0  0  0
  141.2760   69.0378  217.3673 H   0  0  0  0  0  0  0  0  0  0  0  0
  141.7727   70.7264  217.4987 H   0  0  0  0  0  0  0  0  0  0  0  0
  143.1967   67.8285  216.5338 H   0  0  0  0  0  0  0  0  0  0  0  0
  145.5655   67.1822  216.9196 H   0  0  0  0  0  0  0  0  0  0  0  0
  146.9317   68.2265  218.6809 H   0  0  0  0  0  0  0  0  0  0  0  0
  145.9205   69.9920  220.1336 H   0  0  0  0  0  0  0  0  0  0  0  0
  143.9181   70.8853  221.0337 H   0  0  0  0  0  0  0  0  0  0  0  0
  143.6494   71.9517  219.6273 H   0  0  0  0  0  0  0  0  0  0  0  0
  142.0265   71.5766  225.4990 H   0  0  0  0  0  0  0  0  0  0  0  0
  140.9147   72.9887  225.6675 H   0  0  0  0  0  0  0  0  0  0  0  0
  141.1894   71.6207  227.7680 H   0  0  0  0  0  0  0  0  0  0  0  0
  139.4976   71.7761  227.1974 H   0  0  0  0  0  0  0  0  0  0  0  0
  141.4509   69.3779  228.6753 H   0  0  0  0  0  0  0  0  0  0  0  0
  141.1523   66.9460  228.3028 H   0  0  0  0  0  0  0  0  0  0  0  0
  139.9475   66.0722  226.3396 H   0  0  0  0  0  0  0  0  0  0  0  0
  138.9868   67.6669  224.6601 H   0  0  0  0  0  0  0  0  0  0  0  0
  138.8890   69.9040  223.8747 H   0  0  0  0  0  0  0  0  0  0  0  0
  138.2797   70.8688  225.2619 H   0  0  0  0  0  0  0  0  0  0  0  0
  1  2  2  0
  2  3  1  0
  3  4  1  0
  4  5  1  0
  5  6  1  0
  6  7  1  0
  7  8  1  0
  8  9  1  0
  9 10  1  0
  2 11  1  0
 11 12  2  0
 12 13  1  0
 13 14  1  0
 14 15  1  0
 15 16  1  0
 16 17  1  0
 17 18  2  0
 18 19  1  0
 19 20  2  0
 20 21  1  0
 21 22  2  0
 22 23  1  0
 13 24  2  0
 24 25  1  0
 25 26  1  0
 26 27  1  0
 27 28  1  0
 28 29  1  0
 29 30  2  0
 30 31  1  0
 31 32  2  0
 32 33  1  0
 33 34  2  0
 34 35  1  0
 25 36  2  0
 10  5  1  0
 36 11  1  0
 23 14  1  0
 35 26  1  0
 22 17  1  0
 34 29  1  0
  3 37  1  0
  4 38  1  0
  4 39  1  0
  5 40  1  6
  6 41  1  0
  6 42  1  0
  7 43  1  0
  7 44  1  0
  8 45  1  0
  8 46  1  0
  9 47  1  0
 10 48  1  0
 10 49  1  0
 15 50  1  0
 15 51  1  0
 16 52  1  0
 16 53  1  0
 18 54  1  0
 19 55  1  0
 20 56  1  0
 21 57  1  0
 23 58  1  0
 23 59  1  0
 27 60  1  0
 27 61  1  0
 28 62  1  0
 28 63  1  0
 30 64  1  0
 31 65  1  0
 32 66  1  0
 33 67  1  0
 35 68  1  0
 35 69  1  0
M  END
>  <smiles>  (82) 
O=C(NCC1CCCNC1)c1nc(N2CCc3ccccc3C2)nc(N2CCc3ccccc3C2)n1

>  <score_type>  (82) 
oracle

>  <origin>  (82) 
autodockgpu

>  <m_score__min__energy>  (82) 
-10.369999999999999

>  <m_primary>  (82) 
energy

>  <rmsd>  (82) 
3.865007909910542

>  <m_score__min__rmsd>  (82) 
3.865007909910542

>  <meeko>  (82) 
{"free_energy": -9.52, "intermolecular_energy": -11.01, "internal_energy": -1.22, "cluster_size": 7, "cluster_id": 3, "rank_in_cluster": 3}

>  <energy>  (82) 
-9.39

>  <cluster_rmsd>  (82) 
1.78

>  <cluster>  (82) 
1

$$$$

     RDKit          3D

 69 74  0  0  0  0  0  0  0  0999 V2000
  141.8330   71.6400  218.0720 O   0  0  0  0  0  0  0  0  0  0  0  0
  141.9280   71.2130  219.2690 C   0  0  0  0  0  0  0  0  0  0  0  0
  142.6150   69.9760  219.4330 N   0  0  0  0  0  0  0  0  0  0  0  0
  143.1250   69.3460  218.2330 C   0  0  0  0  0  0  0  0  0  0  0  0
  144.0680   68.1930  218.5280 C   0  0  1  0  0  0  0  0  0  0  0  0
  144.8920   68.0000  217.2810 C   0  0  0  0  0  0  0  0  0  0  0  0
  146.3160   67.6060  217.5400 C   0  0  0  0  0  0  0  0  0  0  0  0
  146.2990   66.8110  218.8480 C   0  0  0  0  0  0  0  0  0  0  0  0
  146.0700   67.7560  219.8960 N   0  0  0  0  0  0  0  0  0  0  0  0
  144.8970   68.5620  219.7260 C   0  0  0  0  0  0  0  0  0  0  0  0
  141.3800   71.9250  220.4050 C   0  0  0  0  0  0  0  0  0  0  0  0
  141.0640   71.3140  221.5620 N   0  0  0  0  0  0  0  0  0  0  0  0
  140.5550   72.0460  222.5780 C   0  0  0  0  0  0  0  0  0  0  0  0
  140.2220   71.3830  223.8060 N   0  0  0  0  0  0  0  0  0  0  0  0
  139.0800   70.5200  223.8050 C   0  0  0  0  0  0  0  0  0  0  0  0
  139.4100   69.3090  224.6860 C   0  0  0  0  0  0  0  0  0  0  0  0
  139.6390   69.8710  226.0520 C   0  0  0  0  0  0  0  0  0  0  0  0
  139.0650   69.2810  227.1790 C   0  0  0  0  0  0  0  0  0  0  0  0
  139.3370   69.8770  228.3970 C   0  0  0  0  0  0  0  0  0  0  0  0
  140.1320   70.9950  228.5290 C   0  0  0  0  0  0  0  0  0  0  0  0
  140.6900   71.5580  227.3880 C   0  0  0  0  0  0  0  0  0  0  0  0
  140.4410   70.9900  226.1360 C   0  0  0  0  0  0  0  0  0  0  0  0
  141.0660   71.6380  224.9540 C   0  0  0  0  0  0  0  0  0  0  0  0
  140.3770   73.3730  222.4090 N   0  0  0  0  0  0  0  0  0  0  0  0
  140.6850   74.0060  221.2620 C   0  0  0  0  0  0  0  0  0  0  0  0
  140.4660   75.4020  221.1650 N   0  0  0  0  0  0  0  0  0  0  0  0
  140.6200   76.0530  219.9000 C   0  0  0  0  0  0  0  0  0  0  0  0
  140.1810   77.4970  219.9860 C   0  0  0  0  0  0  0  0  0  0  0  0
  140.8800   78.1440  221.1230 C   0  0  0  0  0  0  0  0  0  0  0  0
  141.5450   79.3340  221.0360 C   0  0  0  0  0  0  0  0  0  0  0  0
  142.1500   79.8160  222.1810 C   0  0  0  0  0  0  0  0  0  0  0  0
  142.1040   79.1460  223.3880 C   0  0  0  0  0  0  0  0  0  0  0  0
  141.4300   77.9400  223.4760 C   0  0  0  0  0  0  0  0  0  0  0  0
  140.8320   77.4650  222.3400 C   0  0  0  0  0  0  0  0  0  0  0  0
  140.0860   76.1790  222.3350 C   0  0  0  0  0  0  0  0  0  0  0  0
  141.1890   73.2610  220.2610 N   0  0  0  0  0  0  0  0  0  0  0  0
  142.7400   69.5530  220.3680 H   0  0  0  0  0  0  0  0  0  0  0  0
  142.2751   68.9640  217.6484 H   0  0  0  0  0  0  0  0  0  0  0  0
  143.6946   70.1054  217.6772 H   0  0  0  0  0  0  0  0  0  0  0  0
  143.5548   67.2505  218.7694 H   0  0  0  0  0  0  0  0  0  0  0  0
  144.4209   67.2123  216.6747 H   0  0  0  0  0  0  0  0  0  0  0  0
  144.9214   68.9725  216.7678 H   0  0  0  0  0  0  0  0  0  0  0  0
  146.6961   66.9820  216.7177 H   0  0  0  0  0  0  0  0  0  0  0  0
  146.9725   68.4858  217.6101 H   0  0  0  0  0  0  0  0  0  0  0  0
  145.4922   66.0636  218.8277 H   0  0  0  0  0  0  0  0  0  0  0  0
  147.2467   66.2731  218.9983 H   0  0  0  0  0  0  0  0  0  0  0  0
  146.2070   67.3710  220.8550 H   0  0  0  0  0  0  0  0  0  0  0  0
  144.2717   68.4561  220.6248 H   0  0  0  0  0  0  0  0  0  0  0  0
  145.2415   69.5946  219.5678 H   0  0  0  0  0  0  0  0  0  0  0  0
  138.2076   71.0525  224.2117 H   0  0  0  0  0  0  0  0  0  0  0  0
  138.8416   70.1977  222.7807 H   0  0  0  0  0  0  0  0  0  0  0  0
  138.5699   68.5989  224.6966 H   0  0  0  0  0  0  0  0  0  0  0  0
  140.2864   68.7569  224.3156 H   0  0  0  0  0  0  0  0  0  0  0  0
  138.4285   68.3872  227.1024 H   0  0  0  0  0  0  0  0  0  0  0  0
  138.8975   69.4373  229.3045 H   0  0  0  0  0  0  0  0  0  0  0  0
  140.3213   71.4337  229.5198 H   0  0  0  0  0  0  0  0  0  0  0  0
  141.3276   72.4506  227.4703 H   0  0  0  0  0  0  0  0  0  0  0  0
  141.1492   72.7218  225.1228 H   0  0  0  0  0  0  0  0  0  0  0  0
  142.0745   71.2327  224.7846 H   0  0  0  0  0  0  0  0  0  0  0  0
  141.6776   76.0142  219.6002 H   0  0  0  0  0  0  0  0  0  0  0  0
  139.9940   75.5364  219.1575 H   0  0  0  0  0  0  0  0  0  0  0  0
  140.4366   78.0171  219.0510 H   0  0  0  0  0  0  0  0  0  0  0  0
  139.0929   77.5476  220.1395 H   0  0  0  0  0  0  0  0  0  0  0  0
  141.5971   79.8891  220.0878 H   0  0  0  0  0  0  0  0  0  0  0  0
  142.6905   80.7727  222.1291 H   0  0  0  0  0  0  0  0  0  0  0  0
  142.6001   79.5683  224.2743 H   0  0  0  0  0  0  0  0  0  0  0  0
  141.3769   77.3841  224.4237 H   0  0  0  0  0  0  0  0  0  0  0  0
  140.3273   75.6117  223.2460 H   0  0  0  0  0  0  0  0  0  0  0  0
  139.0054   76.3823  222.3048 H   0  0  0  0  0  0  0  0  0  0  0  0
  1  2  2  0
  2  3  1  0
  3  4  1  0
  4  5  1  0
  5  6  1  0
  6  7  1  0
  7  8  1  0
  8  9  1  0
  9 10  1  0
  2 11  1  0
 11 12  2  0
 12 13  1  0
 13 14  1  0
 14 15  1  0
 15 16  1  0
 16 17  1  0
 17 18  2  0
 18 19  1  0
 19 20  2  0
 20 21  1  0
 21 22  2  0
 22 23  1  0
 13 24  2  0
 24 25  1  0
 25 26  1  0
 26 27  1  0
 27 28  1  0
 28 29  1  0
 29 30  2  0
 30 31  1  0
 31 32  2  0
 32 33  1  0
 33 34  2  0
 34 35  1  0
 25 36  2  0
 10  5  1  0
 36 11  1  0
 23 14  1  0
 35 26  1  0
 22 17  1  0
 34 29  1  0
  3 37  1  0
  4 38  1  0
  4 39  1  0
  5 40  1  1
  6 41  1  0
  6 42  1  0
  7 43  1  0
  7 44  1  0
  8 45  1  0
  8 46  1  0
  9 47  1  0
 10 48  1  0
 10 49  1  0
 15 50  1  0
 15 51  1  0
 16 52  1  0
 16 53  1  0
 18 54  1  0
 19 55  1  0
 20 56  1  0
 21 57  1  0
 23 58  1  0
 23 59  1  0
 27 60  1  0
 27 61  1  0
 28 62  1  0
 28 63  1  0
 30 64  1  0
 31 65  1  0
 32 66  1  0
 33 67  1  0
 35 68  1  0
 35 69  1  0
M  END
>  <smiles>  (83) 
O=C(NCC1CCCNC1)c1nc(N2CCc3ccccc3C2)nc(N2CCc3ccccc3C2)n1

>  <score_type>  (83) 
oracle

>  <origin>  (83) 
autodockgpu

>  <m_score__min__energy>  (83) 
-10.369999999999999

>  <m_primary>  (83) 
energy

>  <rmsd>  (83) 
8.89295591629414

>  <m_score__min__rmsd>  (83) 
8.89295591629414

>  <meeko>  (83) 
{"free_energy": -9.92, "intermolecular_energy": -11.41, "internal_energy": -1.05, "cluster_size": 4, "cluster_id": 2, "rank_in_cluster": 1}

>  <energy>  (83) 
-9.32

>  <cluster_rmsd>  (83) 
0.8

>  <cluster>  (83) 
1

$$$$

     RDKit          3D

 69 74  0  0  0  0  0  0  0  0999 V2000
  140.6870   70.8480  221.6840 O   0  0  0  0  0  0  0  0  0  0  0  0
  140.6260   72.0110  222.2020 C   0  0  0  0  0  0  0  0  0  0  0  0
  139.9810   72.0920  223.4690 N   0  0  0  0  0  0  0  0  0  0  0  0
  139.4690   70.8570  224.0240 C   0  0  0  0  0  0  0  0  0  0  0  0
  139.6070   70.7870  225.5350 C   0  0  1  0  0  0  0  0  0  0  0  0
  139.7920   69.3290  225.8690 C   0  0  0  0  0  0  0  0  0  0  0  0
  140.7290   69.0750  227.0120 C   0  0  0  0  0  0  0  0  0  0  0  0
  140.6100   70.2930  227.9300 C   0  0  0  0  0  0  0  0  0  0  0  0
  141.2650   71.3730  227.2610 N   0  0  0  0  0  0  0  0  0  0  0  0
  140.7830   71.6330  225.9350 C   0  0  0  0  0  0  0  0  0  0  0  0
  141.1740   73.1870  221.5600 C   0  0  0  0  0  0  0  0  0  0  0  0
  142.1100   73.1200  220.5960 N   0  0  0  0  0  0  0  0  0  0  0  0
  142.5740   74.2620  220.0430 C   0  0  0  0  0  0  0  0  0  0  0  0
  143.5720   74.1770  219.0160 N   0  0  0  0  0  0  0  0  0  0  0  0
  144.8080   73.5340  219.3450 C   0  0  0  0  0  0  0  0  0  0  0  0
  145.2560   72.7280  218.1190 C   0  0  0  0  0  0  0  0  0  0  0  0
  145.4640   73.7430  217.0400 C   0  0  0  0  0  0  0  0  0  0  0  0
  146.6050   73.7150  216.2380 C   0  0  0  0  0  0  0  0  0  0  0  0
  146.7040   74.6960  215.2680 C   0  0  0  0  0  0  0  0  0  0  0  0
  145.7450   75.6670  215.0760 C   0  0  0  0  0  0  0  0  0  0  0  0
  144.6200   75.6670  215.8920 C   0  0  0  0  0  0  0  0  0  0  0  0
  144.4780   74.6940  216.8850 C   0  0  0  0  0  0  0  0  0  0  0  0
  143.2540   74.7470  217.7250 C   0  0  0  0  0  0  0  0  0  0  0  0
  142.0870   75.4460  220.4720 N   0  0  0  0  0  0  0  0  0  0  0  0
  141.1510   75.5390  221.4340 C   0  0  0  0  0  0  0  0  0  0  0  0
  140.6930   76.8210  221.8280 N   0  0  0  0  0  0  0  0  0  0  0  0
  139.8150   77.5500  220.9640 C   0  0  0  0  0  0  0  0  0  0  0  0
  139.3210   78.8060  221.6440 C   0  0  0  0  0  0  0  0  0  0  0  0
  140.4870   79.5670  222.1540 C   0  0  0  0  0  0  0  0  0  0  0  0
  140.6910   80.8990  221.9290 C   0  0  0  0  0  0  0  0  0  0  0  0
  141.8250   81.4750  222.4680 C   0  0  0  0  0  0  0  0  0  0  0  0
  142.7420   80.7600  223.2140 C   0  0  0  0  0  0  0  0  0  0  0  0
  142.5360   79.4100  223.4420 C   0  0  0  0  0  0  0  0  0  0  0  0
  141.4120   78.8430  222.9060 C   0  0  0  0  0  0  0  0  0  0  0  0
  141.1030   77.4010  223.0970 C   0  0  0  0  0  0  0  0  0  0  0  0
  140.7020   74.3910  221.9730 N   0  0  0  0  0  0  0  0  0  0  0  0
  139.8860   72.9950  223.9650 H   0  0  0  0  0  0  0  0  0  0  0  0
  138.4036   70.7704  223.7643 H   0  0  0  0  0  0  0  0  0  0  0  0
  140.0616   70.0332  223.5995 H   0  0  0  0  0  0  0  0  0  0  0  0
  138.7322   71.1719  226.0796 H   0  0  0  0  0  0  0  0  0  0  0  0
  138.8097   68.9069  226.1277 H   0  0  0  0  0  0  0  0  0  0  0  0
  140.2388   68.8555  224.9824 H   0  0  0  0  0  0  0  0  0  0  0  0
  140.4377   68.1607  227.5497 H   0  0  0  0  0  0  0  0  0  0  0  0
  141.7623   68.9315  226.6631 H   0  0  0  0  0  0  0  0  0  0  0  0
  139.5513   70.5381  228.1003 H   0  0  0  0  0  0  0  0  0  0  0  0
  141.0680   70.0973  228.9108 H   0  0  0  0  0  0  0  0  0  0  0  0
  141.4070   72.2190  227.8530 H   0  0  0  0  0  0  0  0  0  0  0  0
  140.4844   72.6901  225.8766 H   0  0  0  0  0  0  0  0  0  0  0  0
  141.6026   71.3855  225.2443 H   0  0  0  0  0  0  0  0  0  0  0  0
  145.5680   74.2889  219.5950 H   0  0  0  0  0  0  0  0  0  0  0  0
  144.6784   72.8725  220.2143 H   0  0  0  0  0  0  0  0  0  0  0  0
  146.1929   72.1918  218.3306 H   0  0  0  0  0  0  0  0  0  0  0  0
  144.5146   71.9677  217.8322 H   0  0  0  0  0  0  0  0  0  0  0  0
  147.3860   72.9518  216.3703 H   0  0  0  0  0  0  0  0  0  0  0  0
  147.5915   74.7014  214.6181 H   0  0  0  0  0  0  0  0  0  0  0  0
  145.8677   76.4280  214.2913 H   0  0  0  0  0  0  0  0  0  0  0  0
  143.8418   76.4325  215.7563 H   0  0  0  0  0  0  0  0  0  0  0  0
  142.9304   75.7912  217.8476 H   0  0  0  0  0  0  0  0  0  0  0  0
  142.4391   74.1823  217.2485 H   0  0  0  0  0  0  0  0  0  0  0  0
  140.3565   77.8247  220.0467 H   0  0  0  0  0  0  0  0  0  0  0  0
  138.9503   76.9154  220.7201 H   0  0  0  0  0  0  0  0  0  0  0  0
  138.7650   79.4223  220.9222 H   0  0  0  0  0  0  0  0  0  0  0  0
  138.6555   78.5406  222.4786 H   0  0  0  0  0  0  0  0  0  0  0  0
  139.9769   81.4923  221.3390 H   0  0  0  0  0  0  0  0  0  0  0  0
  142.0052   82.5465  222.2963 H   0  0  0  0  0  0  0  0  0  0  0  0
  143.6312   81.2607  223.6247 H   0  0  0  0  0  0  0  0  0  0  0  0
  143.2492   78.8156  224.0319 H   0  0  0  0  0  0  0  0  0  0  0  0
  141.9986   76.8798  223.4661 H   0  0  0  0  0  0  0  0  0  0  0  0
  140.2889   77.2942  223.8291 H   0  0  0  0  0  0  0  0  0  0  0  0
  1  2  2  0
  2  3  1  0
  3  4  1  0
  4  5  1  0
  5  6  1  0
  6  7  1  0
  7  8  1  0
  8  9  1  0
  9 10  1  0
  2 11  1  0
 11 12  2  0
 12 13  1  0
 13 14  1  0
 14 15  1  0
 15 16  1  0
 16 17  1  0
 17 18  2  0
 18 19  1  0
 19 20  2  0
 20 21  1  0
 21 22  2  0
 22 23  1  0
 13 24  2  0
 24 25  1  0
 25 26  1  0
 26 27  1  0
 27 28  1  0
 28 29  1  0
 29 30  2  0
 30 31  1  0
 31 32  2  0
 32 33  1  0
 33 34  2  0
 34 35  1  0
 25 36  2  0
 10  5  1  0
 36 11  1  0
 23 14  1  0
 35 26  1  0
 22 17  1  0
 34 29  1  0
  3 37  1  0
  4 38  1  0
  4 39  1  0
  5 40  1  1
  6 41  1  0
  6 42  1  0
  7 43  1  0
  7 44  1  0
  8 45  1  0
  8 46  1  0
  9 47  1  0
 10 48  1  0
 10 49  1  0
 15 50  1  0
 15 51  1  0
 16 52  1  0
 16 53  1  0
 18 54  1  0
 19 55  1  0
 20 56  1  0
 21 57  1  0
 23 58  1  0
 23 59  1  0
 27 60  1  0
 27 61  1  0
 28 62  1  0
 28 63  1  0
 30 64  1  0
 31 65  1  0
 32 66  1  0
 33 67  1  0
 35 68  1  0
 35 69  1  0
M  END
>  <smiles>  (84) 
O=C(NCC1CCCNC1)c1nc(N2CCc3ccccc3C2)nc(N2CCc3ccccc3C2)n1

>  <score_type>  (84) 
oracle

>  <origin>  (84) 
autodockgpu

>  <m_score__min__energy>  (84) 
-10.369999999999999

>  <m_primary>  (84) 
energy

>  <rmsd>  (84) 
8.279424528591068

>  <m_score__min__rmsd>  (84) 
8.279424528591068

>  <meeko>  (84) 
{"free_energy": -9.36, "intermolecular_energy": -10.85, "internal_energy": -1.18, "cluster_size": 3, "cluster_id": 4, "rank_in_cluster": 1}

>  <energy>  (84) 
-9.21

>  <cluster_rmsd>  (84) 
1.42

>  <cluster>  (84) 
1

$$$$

     RDKit          3D

 69 74  0  0  0  0  0  0  0  0999 V2000
  142.2610   71.5760  218.3210 O   0  0  0  0  0  0  0  0  0  0  0  0
  141.9480   71.0380  219.4330 C   0  0  0  0  0  0  0  0  0  0  0  0
  142.1550   69.6320  219.5220 N   0  0  0  0  0  0  0  0  0  0  0  0
  142.6920   68.9740  218.3500 C   0  0  0  0  0  0  0  0  0  0  0  0
  143.8020   67.9920  218.6820 C   0  0  1  0  0  0  0  0  0  0  0  0
  144.7030   67.9580  217.4740 C   0  0  0  0  0  0  0  0  0  0  0  0
  146.1600   67.8040  217.7980 C   0  0  0  0  0  0  0  0  0  0  0  0
  146.2170   67.0000  219.0980 C   0  0  0  0  0  0  0  0  0  0  0  0
  145.7850   67.8780  220.1400 N   0  0  0  0  0  0  0  0  0  0  0  0
  144.5010   68.4780  219.9200 C   0  0  0  0  0  0  0  0  0  0  0  0
  141.4160   71.7920  220.5490 C   0  0  0  0  0  0  0  0  0  0  0  0
  141.1120   71.2250  221.7300 N   0  0  0  0  0  0  0  0  0  0  0  0
  140.6170   71.9940  222.7260 C   0  0  0  0  0  0  0  0  0  0  0  0
  140.2970   71.3770  223.9810 N   0  0  0  0  0  0  0  0  0  0  0  0
  139.2740   70.3750  223.9840 C   0  0  0  0  0  0  0  0  0  0  0  0
  139.7000   69.2770  224.9680 C   0  0  0  0  0  0  0  0  0  0  0  0
  139.7740   69.9540  226.2990 C   0  0  0  0  0  0  0  0  0  0  0  0
  139.2110   69.3710  227.4350 C   0  0  0  0  0  0  0  0  0  0  0  0
  139.3330   70.0770  228.6180 C   0  0  0  0  0  0  0  0  0  0  0  0
  139.9720   71.2950  228.7090 C   0  0  0  0  0  0  0  0  0  0  0  0
  140.5220   71.8480  227.5590 C   0  0  0  0  0  0  0  0  0  0  0  0
  140.4220   71.1710  226.3410 C   0  0  0  0  0  0  0  0  0  0  0  0
  141.0310   71.8140  225.1480 C   0  0  0  0  0  0  0  0  0  0  0  0
  140.4410   73.3150  222.5110 N   0  0  0  0  0  0  0  0  0  0  0  0
  140.7380   73.9050  221.3390 C   0  0  0  0  0  0  0  0  0  0  0  0
  140.5220   75.2980  221.1950 N   0  0  0  0  0  0  0  0  0  0  0  0
  140.7190   75.9130  219.9180 C   0  0  0  0  0  0  0  0  0  0  0  0
  140.2780   77.3570  219.9480 C   0  0  0  0  0  0  0  0  0  0  0  0
  140.9380   78.0380  221.0880 C   0  0  0  0  0  0  0  0  0  0  0  0
  141.6050   79.2250  220.9890 C   0  0  0  0  0  0  0  0  0  0  0  0
  142.1720   79.7410  222.1390 C   0  0  0  0  0  0  0  0  0  0  0  0
  142.0860   79.1050  223.3630 C   0  0  0  0  0  0  0  0  0  0  0  0
  141.4100   77.9010  223.4630 C   0  0  0  0  0  0  0  0  0  0  0  0
  140.8500   77.3940  222.3220 C   0  0  0  0  0  0  0  0  0  0  0  0
  140.1040   76.1070  222.3290 C   0  0  0  0  0  0  0  0  0  0  0  0
  141.2280   73.1240  220.3600 N   0  0  0  0  0  0  0  0  0  0  0  0
  141.9300   69.1110  220.3870 H   0  0  0  0  0  0  0  0  0  0  0  0
  141.8784   68.4284  217.8497 H   0  0  0  0  0  0  0  0  0  0  0  0
  143.1215   69.7519  217.7016 H   0  0  0  0  0  0  0  0  0  0  0  0
  143.4449   66.9732  218.8928 H   0  0  0  0  0  0  0  0  0  0  0  0
  144.3991   67.1116  216.8406 H   0  0  0  0  0  0  0  0  0  0  0  0
  144.5922   68.9291  216.9694 H   0  0  0  0  0  0  0  0  0  0  0  0
  146.6765   67.2638  216.9909 H   0  0  0  0  0  0  0  0  0  0  0  0
  146.6557   68.7802  217.9045 H   0  0  0  0  0  0  0  0  0  0  0  0
  145.5491   66.1283  219.0348 H   0  0  0  0  0  0  0  0  0  0  0  0
  147.2339   66.6268  219.2896 H   0  0  0  0  0  0  0  0  0  0  0  0
  145.9400   67.5090  221.1020 H   0  0  0  0  0  0  0  0  0  0  0  0
  143.8623   68.2555  220.7875 H   0  0  0  0  0  0  0  0  0  0  0  0
  144.6730   69.5561  219.7852 H   0  0  0  0  0  0  0  0  0  0  0  0
  138.3187   70.8158  224.3050 H   0  0  0  0  0  0  0  0  0  0  0  0
  139.1402   69.9577  222.9751 H   0  0  0  0  0  0  0  0  0  0  0  0
  138.9565   68.4665  224.9878 H   0  0  0  0  0  0  0  0  0  0  0  0
  140.6592   68.8192  224.6846 H   0  0  0  0  0  0  0  0  0  0  0  0
  138.6965   68.3997  227.3918 H   0  0  0  0  0  0  0  0  0  0  0  0
  138.8985   69.6451  229.5316 H   0  0  0  0  0  0  0  0  0  0  0  0
  140.0451   71.8191  229.6734 H   0  0  0  0  0  0  0  0  0  0  0  0
  141.0363   72.8191  227.6076 H   0  0  0  0  0  0  0  0  0  0  0  0
  140.9677   72.9083  225.2406 H   0  0  0  0  0  0  0  0  0  0  0  0
  142.0906   71.5316  225.0608 H   0  0  0  0  0  0  0  0  0  0  0  0
  141.7862   75.8666  219.6555 H   0  0  0  0  0  0  0  0  0  0  0  0
  140.1185   75.3750  219.1697 H   0  0  0  0  0  0  0  0  0  0  0  0
  140.5646   77.8501  219.0074 H   0  0  0  0  0  0  0  0  0  0  0  0
  139.1855   77.4103  220.0643 H   0  0  0  0  0  0  0  0  0  0  0  0
  141.6883   79.7525  220.0273 H   0  0  0  0  0  0  0  0  0  0  0  0
  142.7136   80.6965  222.0776 H   0  0  0  0  0  0  0  0  0  0  0  0
  142.5521   79.5530  224.2529 H   0  0  0  0  0  0  0  0  0  0  0  0
  141.3262   77.3717  224.4236 H   0  0  0  0  0  0  0  0  0  0  0  0
  140.3152   75.5659  223.2631 H   0  0  0  0  0  0  0  0  0  0  0  0
  139.0249   76.3084  222.2577 H   0  0  0  0  0  0  0  0  0  0  0  0
  1  2  2  0
  2  3  1  0
  3  4  1  0
  4  5  1  0
  5  6  1  0
  6  7  1  0
  7  8  1  0
  8  9  1  0
  9 10  1  0
  2 11  1  0
 11 12  2  0
 12 13  1  0
 13 14  1  0
 14 15  1  0
 15 16  1  0
 16 17  1  0
 17 18  2  0
 18 19  1  0
 19 20  2  0
 20 21  1  0
 21 22  2  0
 22 23  1  0
 13 24  2  0
 24 25  1  0
 25 26  1  0
 26 27  1  0
 27 28  1  0
 28 29  1  0
 29 30  2  0
 30 31  1  0
 31 32  2  0
 32 33  1  0
 33 34  2  0
 34 35  1  0
 25 36  2  0
 10  5  1  0
 36 11  1  0
 23 14  1  0
 35 26  1  0
 22 17  1  0
 34 29  1  0
  3 37  1  0
  4 38  1  0
  4 39  1  0
  5 40  1  1
  6 41  1  0
  6 42  1  0
  7 43  1  0
  7 44  1  0
  8 45  1  0
  8 46  1  0
  9 47  1  0
 10 48  1  0
 10 49  1  0
 15 50  1  0
 15 51  1  0
 16 52  1  0
 16 53  1  0
 18 54  1  0
 19 55  1  0
 20 56  1  0
 21 57  1  0
 23 58  1  0
 23 59  1  0
 27 60  1  0
 27 61  1  0
 28 62  1  0
 28 63  1  0
 30 64  1  0
 31 65  1  0
 32 66  1  0
 33 67  1  0
 35 68  1  0
 35 69  1  0
M  END
>  <smiles>  (85) 
O=C(NCC1CCCNC1)c1nc(N2CCc3ccccc3C2)nc(N2CCc3ccccc3C2)n1

>  <score_type>  (85) 
oracle

>  <origin>  (85) 
autodockgpu

>  <m_score__min__energy>  (85) 
-10.369999999999999

>  <m_primary>  (85) 
energy

>  <rmsd>  (85) 
8.837116221784566

>  <m_score__min__rmsd>  (85) 
8.837116221784566

>  <meeko>  (85) 
{"free_energy": -9.89, "intermolecular_energy": -11.38, "internal_energy": -1.18, "cluster_size": 4, "cluster_id": 2, "rank_in_cluster": 3}

>  <energy>  (85) 
-9.19

>  <cluster_rmsd>  (85) 
1.45

>  <cluster>  (85) 
1

$$$$

     RDKit          3D

 69 74  0  0  0  0  0  0  0  0999 V2000
  138.5730   71.9250  222.8430 O   0  0  0  0  0  0  0  0  0  0  0  0
  139.8340   72.0510  222.9720 C   0  0  0  0  0  0  0  0  0  0  0  0
  140.4140   71.3770  224.0850 N   0  0  0  0  0  0  0  0  0  0  0  0
  139.5140   70.6300  224.9390 C   0  0  0  0  0  0  0  0  0  0  0  0
  140.2380   69.6390  225.8330 C   0  0  1  0  0  0  0  0  0  0  0  0
  140.7320   70.4310  227.0160 C   0  0  0  0  0  0  0  0  0  0  0  0
  140.6920   69.6830  228.3170 C   0  0  0  0  0  0  0  0  0  0  0  0
  140.8940   68.2090  227.9580 C   0  0  0  0  0  0  0  0  0  0  0  0
  139.6820   67.7700  227.3400 N   0  0  0  0  0  0  0  0  0  0  0  0
  139.2670   68.5590  226.2170 C   0  0  0  0  0  0  0  0  0  0  0  0
  140.6460   72.8260  222.0570 C   0  0  0  0  0  0  0  0  0  0  0  0
  141.5490   72.2640  221.2330 N   0  0  0  0  0  0  0  0  0  0  0  0
  142.2710   73.0530  220.4060 C   0  0  0  0  0  0  0  0  0  0  0  0
  143.2310   72.4420  219.5330 N   0  0  0  0  0  0  0  0  0  0  0  0
  143.2920   72.9140  218.1820 C   0  0  0  0  0  0  0  0  0  0  0  0
  144.7670   72.9290  217.7600 C   0  0  0  0  0  0  0  0  0  0  0  0
  145.2090   71.5030  217.8370 C   0  0  0  0  0  0  0  0  0  0  0  0
  145.9490   70.9230  216.8050 C   0  0  0  0  0  0  0  0  0  0  0  0
  146.3100   69.5980  216.9710 C   0  0  0  0  0  0  0  0  0  0  0  0
  145.9740   68.8580  218.0840 C   0  0  0  0  0  0  0  0  0  0  0  0
  145.2370   69.4650  219.0940 C   0  0  0  0  0  0  0  0  0  0  0  0
  144.8510   70.8020  218.9680 C   0  0  0  0  0  0  0  0  0  0  0  0
  144.0640   71.3940  220.0820 C   0  0  0  0  0  0  0  0  0  0  0  0
  142.0670   74.3880  220.4250 N   0  0  0  0  0  0  0  0  0  0  0  0
  141.1700   74.9720  221.2400 C   0  0  0  0  0  0  0  0  0  0  0  0
  141.0170   76.3800  221.1990 N   0  0  0  0  0  0  0  0  0  0  0  0
  141.4810   77.1060  220.0560 C   0  0  0  0  0  0  0  0  0  0  0  0
  141.0730   78.5580  220.1450 C   0  0  0  0  0  0  0  0  0  0  0  0
  141.5040   79.0980  221.4580 C   0  0  0  0  0  0  0  0  0  0  0  0
  142.2020   80.2610  221.6150 C   0  0  0  0  0  0  0  0  0  0  0  0
  142.5360   80.6400  222.9020 C   0  0  0  0  0  0  0  0  0  0  0  0
  142.1900   79.8940  224.0120 C   0  0  0  0  0  0  0  0  0  0  0  0
  141.4830   78.7150  223.8520 C   0  0  0  0  0  0  0  0  0  0  0  0
  141.1550   78.3430  222.5770 C   0  0  0  0  0  0  0  0  0  0  0  0
  140.3960   77.0940  222.3040 C   0  0  0  0  0  0  0  0  0  0  0  0
  140.4620   74.1710  222.0560 N   0  0  0  0  0  0  0  0  0  0  0  0
  141.4300   71.4230  224.2690 H   0  0  0  0  0  0  0  0  0  0  0  0
  138.9629   71.3390  225.5743 H   0  0  0  0  0  0  0  0  0  0  0  0
  138.8389   70.0561  224.2872 H   0  0  0  0  0  0  0  0  0  0  0  0
  141.0927   69.1454  225.3474 H   0  0  0  0  0  0  0  0  0  0  0  0
  141.7728   70.7291  226.8213 H   0  0  0  0  0  0  0  0  0  0  0  0
  140.0556   71.2916  227.1251 H   0  0  0  0  0  0  0  0  0  0  0  0
  141.4968   70.0288  228.9824 H   0  0  0  0  0  0  0  0  0  0  0  0
  139.7415   69.8437  228.8469 H   0  0  0  0  0  0  0  0  0  0  0  0
  141.7371   68.1004  227.2599 H   0  0  0  0  0  0  0  0  0  0  0  0
  141.1231   67.6105  228.8520 H   0  0  0  0  0  0  0  0  0  0  0  0
  139.6220   66.7390  227.2030 H   0  0  0  0  0  0  0  0  0  0  0  0
  139.1362   67.8895  225.3541 H   0  0  0  0  0  0  0  0  0  0  0  0
  138.3337   69.0617  226.5105 H   0  0  0  0  0  0  0  0  0  0  0  0
  142.7208   72.2424  217.5242 H   0  0  0  0  0  0  0  0  0  0  0  0
  142.8590   73.9223  218.1060 H   0  0  0  0  0  0  0  0  0  0  0  0
  144.8711   73.3106  216.7336 H   0  0  0  0  0  0  0  0  0  0  0  0
  145.3731   73.5835  218.4037 H   0  0  0  0  0  0  0  0  0  0  0  0
  146.2306   71.4906  215.9058 H   0  0  0  0  0  0  0  0  0  0  0  0
  146.8937   69.1112  216.1758 H   0  0  0  0  0  0  0  0  0  0  0  0
  146.2835   67.8061  218.1714 H   0  0  0  0  0  0  0  0  0  0  0  0
  144.9579   68.8935  219.9915 H   0  0  0  0  0  0  0  0  0  0  0  0
  143.4340   70.6209  220.5461 H   0  0  0  0  0  0  0  0  0  0  0  0
  144.7368   71.8033  220.8500 H   0  0  0  0  0  0  0  0  0  0  0  0
  142.5780   77.0413  220.0079 H   0  0  0  0  0  0  0  0  0  0  0  0
  141.0332   76.6672  219.1521 H   0  0  0  0  0  0  0  0  0  0  0  0
  141.5539   79.1271  219.3357 H   0  0  0  0  0  0  0  0  0  0  0  0
  139.9809   78.6453  220.0461 H   0  0  0  0  0  0  0  0  0  0  0  0
  142.4884   80.8747  220.7482 H   0  0  0  0  0  0  0  0  0  0  0  0
  143.0999   81.5731  223.0479 H   0  0  0  0  0  0  0  0  0  0  0  0
  142.4750   80.2354  225.0181 H   0  0  0  0  0  0  0  0  0  0  0  0
  141.1956   78.1001  224.7176 H   0  0  0  0  0  0  0  0  0  0  0  0
  140.4023   76.4577  223.2013 H   0  0  0  0  0  0  0  0  0  0  0  0
  139.3583   77.3462  222.0402 H   0  0  0  0  0  0  0  0  0  0  0  0
  1  2  2  0
  2  3  1  0
  3  4  1  0
  4  5  1  0
  5  6  1  0
  6  7  1  0
  7  8  1  0
  8  9  1  0
  9 10  1  0
  2 11  1  0
 11 12  2  0
 12 13  1  0
 13 14  1  0
 14 15  1  0
 15 16  1  0
 16 17  1  0
 17 18  2  0
 18 19  1  0
 19 20  2  0
 20 21  1  0
 21 22  2  0
 22 23  1  0
 13 24  2  0
 24 25  1  0
 25 26  1  0
 26 27  1  0
 27 28  1  0
 28 29  1  0
 29 30  2  0
 30 31  1  0
 31 32  2  0
 32 33  1  0
 33 34  2  0
 34 35  1  0
 25 36  2  0
 10  5  1  0
 36 11  1  0
 23 14  1  0
 35 26  1  0
 22 17  1  0
 34 29  1  0
  3 37  1  0
  4 38  1  0
  4 39  1  0
  5 40  1  6
  6 41  1  0
  6 42  1  0
  7 43  1  0
  7 44  1  0
  8 45  1  0
  8 46  1  0
  9 47  1  0
 10 48  1  0
 10 49  1  0
 15 50  1  0
 15 51  1  0
 16 52  1  0
 16 53  1  0
 18 54  1  0
 19 55  1  0
 20 56  1  0
 21 57  1  0
 23 58  1  0
 23 59  1  0
 27 60  1  0
 27 61  1  0
 28 62  1  0
 28 63  1  0
 30 64  1  0
 31 65  1  0
 32 66  1  0
 33 67  1  0
 35 68  1  0
 35 69  1  0
M  END
>  <smiles>  (86) 
O=C(NCC1CCCNC1)c1nc(N2CCc3ccccc3C2)nc(N2CCc3ccccc3C2)n1

>  <score_type>  (86) 
oracle

>  <origin>  (86) 
autodockgpu

>  <m_score__min__energy>  (86) 
-10.369999999999999

>  <m_primary>  (86) 
energy

>  <rmsd>  (86) 
9.335179742907572

>  <m_score__min__rmsd>  (86) 
9.335179742907572

>  <meeko>  (86) 
{"free_energy": -10.37, "intermolecular_energy": -11.87, "internal_energy": -0.93, "cluster_size": 35, "cluster_id": 1, "rank_in_cluster": 1}

>  <energy>  (86) 
-9.92

>  <cluster_rmsd>  (86) 
0.0

>  <cluster>  (86) 
2

$$$$

     RDKit          3D

 69 74  0  0  0  0  0  0  0  0999 V2000
  139.4650   71.0470  221.8070 O   0  0  0  0  0  0  0  0  0  0  0  0
  140.1300   71.9000  222.4810 C   0  0  0  0  0  0  0  0  0  0  0  0
  140.2510   71.6300  223.8740 N   0  0  0  0  0  0  0  0  0  0  0  0
  139.6120   70.4280  224.3660 C   0  0  0  0  0  0  0  0  0  0  0  0
  140.3720   69.7840  225.5130 C   0  0  1  0  0  0  0  0  0  0  0  0
  140.4240   70.8160  226.6090 C   0  0  0  0  0  0  0  0  0  0  0  0
  140.3210   70.2480  227.9940 C   0  0  0  0  0  0  0  0  0  0  0  0
  140.9400   68.8510  227.9200 C   0  0  0  0  0  0  0  0  0  0  0  0
  140.0120   68.0300  227.2060 N   0  0  0  0  0  0  0  0  0  0  0  0
  139.6380   68.5370  225.9170 C   0  0  0  0  0  0  0  0  0  0  0  0
  140.7320   73.0750  221.8870 C   0  0  0  0  0  0  0  0  0  0  0  0
  141.6910   73.0040  220.9460 N   0  0  0  0  0  0  0  0  0  0  0  0
  142.2060   74.1450  220.4390 C   0  0  0  0  0  0  0  0  0  0  0  0
  143.2270   74.0560  219.4350 N   0  0  0  0  0  0  0  0  0  0  0  0
  144.4800   73.4760  219.8150 C   0  0  0  0  0  0  0  0  0  0  0  0
  144.9830   72.6370  218.6330 C   0  0  0  0  0  0  0  0  0  0  0  0
  145.1750   73.6130  217.5160 C   0  0  0  0  0  0  0  0  0  0  0  0
  146.3320   73.5960  216.7370 C   0  0  0  0  0  0  0  0  0  0  0  0
  146.4140   74.5390  215.7280 C   0  0  0  0  0  0  0  0  0  0  0  0
  145.4220   75.4620  215.4760 C   0  0  0  0  0  0  0  0  0  0  0  0
  144.2820   75.4520  216.2700 C   0  0  0  0  0  0  0  0  0  0  0  0
  144.1570   74.5180  217.3010 C   0  0  0  0  0  0  0  0  0  0  0  0
  142.9140   74.5580  218.1150 C   0  0  0  0  0  0  0  0  0  0  0  0
  141.7460   75.3330  220.8890 N   0  0  0  0  0  0  0  0  0  0  0  0
  140.7890   75.4300  221.8300 C   0  0  0  0  0  0  0  0  0  0  0  0
  140.3630   76.7140  222.2480 N   0  0  0  0  0  0  0  0  0  0  0  0
  139.0940   77.2120  221.8110 C   0  0  0  0  0  0  0  0  0  0  0  0
  138.7660   78.5150  222.5010 C   0  0  0  0  0  0  0  0  0  0  0  0
  139.9070   79.4490  222.3330 C   0  0  0  0  0  0  0  0  0  0  0  0
  139.7840   80.7370  221.8970 C   0  0  0  0  0  0  0  0  0  0  0  0
  140.9380   81.4900  221.7880 C   0  0  0  0  0  0  0  0  0  0  0  0
  142.1870   80.9900  222.1020 C   0  0  0  0  0  0  0  0  0  0  0  0
  142.3110   79.6840  222.5440 C   0  0  0  0  0  0  0  0  0  0  0  0
  141.1670   78.9410  222.6500 C   0  0  0  0  0  0  0  0  0  0  0  0
  141.1980   77.5290  223.1160 C   0  0  0  0  0  0  0  0  0  0  0  0
  140.2880   74.2830  222.3230 N   0  0  0  0  0  0  0  0  0  0  0  0
  140.7730   72.2670  224.4990 H   0  0  0  0  0  0  0  0  0  0  0  0
  138.6010   70.6852  224.7149 H   0  0  0  0  0  0  0  0  0  0  0  0
  139.5864   69.7041  223.5381 H   0  0  0  0  0  0  0  0  0  0  0  0
  141.3980   69.4841  225.2533 H   0  0  0  0  0  0  0  0  0  0  0  0
  141.3782   71.3573  226.5282 H   0  0  0  0  0  0  0  0  0  0  0  0
  139.5502   71.4695  226.4696 H   0  0  0  0  0  0  0  0  0  0  0  0
  140.8758   70.8753  228.7073 H   0  0  0  0  0  0  0  0  0  0  0  0
  139.2772   70.2100  228.3389 H   0  0  0  0  0  0  0  0  0  0  0  0
  141.9012   68.8896  227.3865 H   0  0  0  0  0  0  0  0  0  0  0  0
  141.1331   68.4490  228.9255 H   0  0  0  0  0  0  0  0  0  0  0  0
  140.2320   67.0130  227.2340 H   0  0  0  0  0  0  0  0  0  0  0  0
  139.8408   67.7582  225.1671 H   0  0  0  0  0  0  0  0  0  0  0  0
  138.5719   68.8011  225.9766 H   0  0  0  0  0  0  0  0  0  0  0  0
  145.2054   74.2698  220.0466 H   0  0  0  0  0  0  0  0  0  0  0  0
  144.3582   72.8475  220.7095 H   0  0  0  0  0  0  0  0  0  0  0  0
  145.9347   72.1464  218.8850 H   0  0  0  0  0  0  0  0  0  0  0  0
  144.2766   71.8376  218.3649 H   0  0  0  0  0  0  0  0  0  0  0  0
  147.1384   72.8696  216.9159 H   0  0  0  0  0  0  0  0  0  0  0  0
  147.3145   74.5528  215.0964 H   0  0  0  0  0  0  0  0  0  0  0  0
  145.5308   76.1930  214.6613 H   0  0  0  0  0  0  0  0  0  0  0  0
  143.4777   76.1797  216.0867 H   0  0  0  0  0  0  0  0  0  0  0  0
  142.5478   75.5928  218.1864 H   0  0  0  0  0  0  0  0  0  0  0  0
  142.1316   73.9419  217.6478 H   0  0  0  0  0  0  0  0  0  0  0  0
  139.1256   77.3769  220.7239 H   0  0  0  0  0  0  0  0  0  0  0  0
  138.3185   76.4735  222.0623 H   0  0  0  0  0  0  0  0  0  0  0  0
  137.8617   78.9526  222.0530 H   0  0  0  0  0  0  0  0  0  0  0  0
  138.5866   78.3349  223.5712 H   0  0  0  0  0  0  0  0  0  0  0  0
  138.8014   81.1604  221.6416 H   0  0  0  0  0  0  0  0  0  0  0  0
  140.8587   82.5295  221.4370 H   0  0  0  0  0  0  0  0  0  0  0  0
  143.0785   81.6265  222.0013 H   0  0  0  0  0  0  0  0  0  0  0  0
  143.2928   79.2594  222.8005 H   0  0  0  0  0  0  0  0  0  0  0  0
  142.2322   77.1556  223.0861 H   0  0  0  0  0  0  0  0  0  0  0  0
  140.8183   77.4745  224.1470 H   0  0  0  0  0  0  0  0  0  0  0  0
  1  2  2  0
  2  3  1  0
  3  4  1  0
  4  5  1  0
  5  6  1  0
  6  7  1  0
  7  8  1  0
  8  9  1  0
  9 10  1  0
  2 11  1  0
 11 12  2  0
 12 13  1  0
 13 14  1  0
 14 15  1  0
 15 16  1  0
 16 17  1  0
 17 18  2  0
 18 19  1  0
 19 20  2  0
 20 21  1  0
 21 22  2  0
 22 23  1  0
 13 24  2  0
 24 25  1  0
 25 26  1  0
 26 27  1  0
 27 28  1  0
 28 29  1  0
 29 30  2  0
 30 31  1  0
 31 32  2  0
 32 33  1  0
 33 34  2  0
 34 35  1  0
 25 36  2  0
 10  5  1  0
 36 11  1  0
 23 14  1  0
 35 26  1  0
 22 17  1  0
 34 29  1  0
  3 37  1  0
  4 38  1  0
  4 39  1  0
  5 40  1  6
  6 41  1  0
  6 42  1  0
  7 43  1  0
  7 44  1  0
  8 45  1  0
  8 46  1  0
  9 47  1  0
 10 48  1  0
 10 49  1  0
 15 50  1  0
 15 51  1  0
 16 52  1  0
 16 53  1  0
 18 54  1  0
 19 55  1  0
 20 56  1  0
 21 57  1  0
 23 58  1  0
 23 59  1  0
 27 60  1  0
 27 61  1  0
 28 62  1  0
 28 63  1  0
 30 64  1  0
 31 65  1  0
 32 66  1  0
 33 67  1  0
 35 68  1  0
 35 69  1  0
M  END
>  <smiles>  (87) 
O=C(NCC1CCCNC1)c1nc(N2CCc3ccccc3C2)nc(N2CCc3ccccc3C2)n1

>  <score_type>  (87) 
oracle

>  <origin>  (87) 
autodockgpu

>  <m_score__min__energy>  (87) 
-10.369999999999999

>  <m_primary>  (87) 
energy

>  <rmsd>  (87) 
9.026915058368587

>  <m_score__min__rmsd>  (87) 
9.026915058368587

>  <meeko>  (87) 
{"free_energy": -9.75, "intermolecular_energy": -11.24, "internal_energy": -0.97, "cluster_size": 35, "cluster_id": 1, "rank_in_cluster": 19}

>  <energy>  (87) 
-9.89

>  <cluster_rmsd>  (87) 
0.82

>  <cluster>  (87) 
2

$$$$

     RDKit          3D

 69 74  0  0  0  0  0  0  0  0999 V2000
  138.5410   72.2420  223.0550 O   0  0  0  0  0  0  0  0  0  0  0  0
  139.7900   72.0350  222.9020 C   0  0  0  0  0  0  0  0  0  0  0  0
  140.3430   70.9780  223.6780 N   0  0  0  0  0  0  0  0  0  0  0  0
  139.4350   70.2610  224.5490 C   0  0  0  0  0  0  0  0  0  0  0  0
  140.1510   69.5250  225.6690 C   0  0  1  0  0  0  0  0  0  0  0  0
  140.3750   70.5430  226.7580 C   0  0  0  0  0  0  0  0  0  0  0  0
  140.2540   69.9920  228.1480 C   0  0  0  0  0  0  0  0  0  0  0  0
  140.6890   68.5280  228.0570 C   0  0  0  0  0  0  0  0  0  0  0  0
  139.6380   67.8320  227.3830 N   0  0  0  0  0  0  0  0  0  0  0  0
  139.2820   68.3810  226.1070 C   0  0  0  0  0  0  0  0  0  0  0  0
  140.6110   72.8140  221.9990 C   0  0  0  0  0  0  0  0  0  0  0  0
  141.5200   72.2570  221.1790 N   0  0  0  0  0  0  0  0  0  0  0  0
  142.2510   73.0500  220.3640 C   0  0  0  0  0  0  0  0  0  0  0  0
  143.2170   72.4430  219.4940 N   0  0  0  0  0  0  0  0  0  0  0  0
  143.2870   72.9210  218.1460 C   0  0  0  0  0  0  0  0  0  0  0  0
  144.7640   72.9380  217.7340 C   0  0  0  0  0  0  0  0  0  0  0  0
  145.2060   71.5120  217.8070 C   0  0  0  0  0  0  0  0  0  0  0  0
  145.9530   70.9370  216.7780 C   0  0  0  0  0  0  0  0  0  0  0  0
  146.3130   69.6110  216.9400 C   0  0  0  0  0  0  0  0  0  0  0  0
  145.9700   68.8660  218.0480 C   0  0  0  0  0  0  0  0  0  0  0  0
  145.2260   69.4680  219.0550 C   0  0  0  0  0  0  0  0  0  0  0  0
  144.8400   70.8060  218.9330 C   0  0  0  0  0  0  0  0  0  0  0  0
  144.0460   71.3930  220.0440 C   0  0  0  0  0  0  0  0  0  0  0  0
  142.0500   74.3850  220.3920 N   0  0  0  0  0  0  0  0  0  0  0  0
  141.1470   74.9660  221.2030 C   0  0  0  0  0  0  0  0  0  0  0  0
  140.9990   76.3740  221.1710 N   0  0  0  0  0  0  0  0  0  0  0  0
  141.4580   77.1050  220.0300 C   0  0  0  0  0  0  0  0  0  0  0  0
  141.0550   78.5580  220.1300 C   0  0  0  0  0  0  0  0  0  0  0  0
  141.4960   79.0890  221.4430 C   0  0  0  0  0  0  0  0  0  0  0  0
  142.1980   80.2490  221.6030 C   0  0  0  0  0  0  0  0  0  0  0  0
  142.5410   80.6190  222.8900 C   0  0  0  0  0  0  0  0  0  0  0  0
  142.2000   79.8670  223.9980 C   0  0  0  0  0  0  0  0  0  0  0  0
  141.4880   78.6920  223.8360 C   0  0  0  0  0  0  0  0  0  0  0  0
  141.1510   78.3280  222.5600 C   0  0  0  0  0  0  0  0  0  0  0  0
  140.3860   77.0830  222.2840 C   0  0  0  0  0  0  0  0  0  0  0  0
  140.4300   74.1600  222.0070 N   0  0  0  0  0  0  0  0  0  0  0  0
  141.3470   70.7380  223.6180 H   0  0  0  0  0  0  0  0  0  0  0  0
  138.7330   70.9813  224.9944 H   0  0  0  0  0  0  0  0  0  0  0  0
  138.9149   69.5086  223.9379 H   0  0  0  0  0  0  0  0  0  0  0  0
  141.1197   69.0972  225.3714 H   0  0  0  0  0  0  0  0  0  0  0  0
  141.3861   70.9593  226.6386 H   0  0  0  0  0  0  0  0  0  0  0  0
  139.5864   71.3021  226.6487 H   0  0  0  0  0  0  0  0  0  0  0  0
  140.9100   70.5441  228.8371 H   0  0  0  0  0  0  0  0  0  0  0  0
  139.2275   70.0856  228.5320 H   0  0  0  0  0  0  0  0  0  0  0  0
  141.6261   68.4450  227.4869 H   0  0  0  0  0  0  0  0  0  0  0  0
  140.8691   68.1043  229.0560 H   0  0  0  0  0  0  0  0  0  0  0  0
  139.7280   66.7940  227.4080 H   0  0  0  0  0  0  0  0  0  0  0  0
  139.3564   67.5824  225.3542 H   0  0  0  0  0  0  0  0  0  0  0  0
  138.2606   68.7774  226.2054 H   0  0  0  0  0  0  0  0  0  0  0  0
  142.7203   72.2523  217.4814 H   0  0  0  0  0  0  0  0  0  0  0  0
  142.8545   73.9297  218.0717 H   0  0  0  0  0  0  0  0  0  0  0  0
  144.8747   73.3245  216.7101 H   0  0  0  0  0  0  0  0  0  0  0  0
  145.3656   73.5894  218.3849 H   0  0  0  0  0  0  0  0  0  0  0  0
  146.2409   71.5089  215.8836 H   0  0  0  0  0  0  0  0  0  0  0  0
  146.9015   69.1278  216.1462 H   0  0  0  0  0  0  0  0  0  0  0  0
  146.2798   67.8140  218.1333 H   0  0  0  0  0  0  0  0  0  0  0  0
  144.9408   68.8922  219.9478 H   0  0  0  0  0  0  0  0  0  0  0  0
  143.4129   70.6179  220.5006 H   0  0  0  0  0  0  0  0  0  0  0  0
  144.7137   71.7989  220.8183 H   0  0  0  0  0  0  0  0  0  0  0  0
  142.5545   77.0372  219.9747 H   0  0  0  0  0  0  0  0  0  0  0  0
  141.0033   76.6729  219.1264 H   0  0  0  0  0  0  0  0  0  0  0  0
  141.5324   79.1303  219.3209 H   0  0  0  0  0  0  0  0  0  0  0  0
  139.9626   78.6492  220.0387 H   0  0  0  0  0  0  0  0  0  0  0  0
  142.4807   80.8674  220.7383 H   0  0  0  0  0  0  0  0  0  0  0  0
  143.1083   81.5497  223.0381 H   0  0  0  0  0  0  0  0  0  0  0  0
  142.4933   80.2011  225.0042 H   0  0  0  0  0  0  0  0  0  0  0  0
  141.2034   78.0735  224.6999 H   0  0  0  0  0  0  0  0  0  0  0  0
  140.3953   76.4412  223.1773 H   0  0  0  0  0  0  0  0  0  0  0  0
  139.3475   77.3398  222.0279 H   0  0  0  0  0  0  0  0  0  0  0  0
  1  2  2  0
  2  3  1  0
  3  4  1  0
  4  5  1  0
  5  6  1  0
  6  7  1  0
  7  8  1  0
  8  9  1  0
  9 10  1  0
  2 11  1  0
 11 12  2  0
 12 13  1  0
 13 14  1  0
 14 15  1  0
 15 16  1  0
 16 17  1  0
 17 18  2  0
 18 19  1  0
 19 20  2  0
 20 21  1  0
 21 22  2  0
 22 23  1  0
 13 24  2  0
 24 25  1  0
 25 26  1  0
 26 27  1  0
 27 28  1  0
 28 29  1  0
 29 30  2  0
 30 31  1  0
 31 32  2  0
 32 33  1  0
 33 34  2  0
 34 35  1  0
 25 36  2  0
 10  5  1  0
 36 11  1  0
 23 14  1  0
 35 26  1  0
 22 17  1  0
 34 29  1  0
  3 37  1  0
  4 38  1  0
  4 39  1  0
  5 40  1  6
  6 41  1  0
  6 42  1  0
  7 43  1  0
  7 44  1  0
  8 45  1  0
  8 46  1  0
  9 47  1  0
 10 48  1  0
 10 49  1  0
 15 50  1  0
 15 51  1  0
 16 52  1  0
 16 53  1  0
 18 54  1  0
 19 55  1  0
 20 56  1  0
 21 57  1  0
 23 58  1  0
 23 59  1  0
 27 60  1  0
 27 61  1  0
 28 62  1  0
 28 63  1  0
 30 64  1  0
 31 65  1  0
 32 66  1  0
 33 67  1  0
 35 68  1  0
 35 69  1  0
M  END
>  <smiles>  (88) 
O=C(NCC1CCCNC1)c1nc(N2CCc3ccccc3C2)nc(N2CCc3ccccc3C2)n1

>  <score_type>  (88) 
oracle

>  <origin>  (88) 
autodockgpu

>  <m_score__min__energy>  (88) 
-10.369999999999999

>  <m_primary>  (88) 
energy

>  <rmsd>  (88) 
9.241402896875451

>  <m_score__min__rmsd>  (88) 
9.241402896875451

>  <meeko>  (88) 
{"free_energy": -10.19, "intermolecular_energy": -11.68, "internal_energy": -1.0, "cluster_size": 35, "cluster_id": 1, "rank_in_cluster": 10}

>  <energy>  (88) 
-9.89

>  <cluster_rmsd>  (88) 
0.33

>  <cluster>  (88) 
2

$$$$

     RDKit          3D

 69 74  0  0  0  0  0  0  0  0999 V2000
  138.6840   71.5920  222.7710 O   0  0  0  0  0  0  0  0  0  0  0  0
  139.8800   71.9520  223.0220 C   0  0  0  0  0  0  0  0  0  0  0  0
  140.4010   71.5380  224.2810 N   0  0  0  0  0  0  0  0  0  0  0  0
  139.5220   70.7620  225.1300 C   0  0  0  0  0  0  0  0  0  0  0  0
  140.2590   69.6930  225.9190 C   0  0  1  0  0  0  0  0  0  0  0  0
  140.9050   70.4060  227.0800 C   0  0  0  0  0  0  0  0  0  0  0  0
  140.9340   69.6090  228.3510 C   0  0  0  0  0  0  0  0  0  0  0  0
  141.0100   68.1420  227.9240 C   0  0  0  0  0  0  0  0  0  0  0  0
  139.7220   67.8020  227.4040 N   0  0  0  0  0  0  0  0  0  0  0  0
  139.2590   68.6590  226.3510 C   0  0  0  0  0  0  0  0  0  0  0  0
  140.6770   72.7320  222.0980 C   0  0  0  0  0  0  0  0  0  0  0  0
  141.5780   72.1770  221.2670 N   0  0  0  0  0  0  0  0  0  0  0  0
  142.2850   72.9710  220.4330 C   0  0  0  0  0  0  0  0  0  0  0  0
  143.2430   72.3670  219.5510 N   0  0  0  0  0  0  0  0  0  0  0  0
  143.3070   72.8570  218.2070 C   0  0  0  0  0  0  0  0  0  0  0  0
  144.7820   72.8700  217.7860 C   0  0  0  0  0  0  0  0  0  0  0  0
  145.2170   71.4410  217.8440 C   0  0  0  0  0  0  0  0  0  0  0  0
  145.9540   70.8710  216.8050 C   0  0  0  0  0  0  0  0  0  0  0  0
  146.3080   69.5420  216.9530 C   0  0  0  0  0  0  0  0  0  0  0  0
  145.9680   68.7890  218.0560 C   0  0  0  0  0  0  0  0  0  0  0  0
  145.2340   69.3860  219.0730 C   0  0  0  0  0  0  0  0  0  0  0  0
  144.8540   70.7270  218.9660 C   0  0  0  0  0  0  0  0  0  0  0  0
  144.0700   71.3080  220.0860 C   0  0  0  0  0  0  0  0  0  0  0  0
  142.0700   74.3040  220.4520 N   0  0  0  0  0  0  0  0  0  0  0  0
  141.1750   74.8820  221.2740 C   0  0  0  0  0  0  0  0  0  0  0  0
  141.0110   76.2880  221.2320 N   0  0  0  0  0  0  0  0  0  0  0  0
  141.4560   77.0160  220.0830 C   0  0  0  0  0  0  0  0  0  0  0  0
  141.0370   78.4650  220.1740 C   0  0  0  0  0  0  0  0  0  0  0  0
  141.4770   79.0110  221.4810 C   0  0  0  0  0  0  0  0  0  0  0  0
  142.1670   80.1800  221.6300 C   0  0  0  0  0  0  0  0  0  0  0  0
  142.5120   80.5640  222.9120 C   0  0  0  0  0  0  0  0  0  0  0  0
  142.1850   79.8170  224.0270 C   0  0  0  0  0  0  0  0  0  0  0  0
  141.4850   78.6320  223.8770 C   0  0  0  0  0  0  0  0  0  0  0  0
  141.1460   78.2550  222.6060 C   0  0  0  0  0  0  0  0  0  0  0  0
  140.3950   76.9990  222.3420 C   0  0  0  0  0  0  0  0  0  0  0  0
  140.4810   74.0760  222.0970 N   0  0  0  0  0  0  0  0  0  0  0  0
  141.3640   71.7850  224.5690 H   0  0  0  0  0  0  0  0  0  0  0  0
  139.0262   71.4424  225.8380 H   0  0  0  0  0  0  0  0  0  0  0  0
  138.7969   70.2523  224.4785 H   0  0  0  0  0  0  0  0  0  0  0  0
  141.0346   69.1691  225.3411 H   0  0  0  0  0  0  0  0  0  0  0  0
  141.9409   70.6501  226.8020 H   0  0  0  0  0  0  0  0  0  0  0  0
  140.2962   71.2999  227.2808 H   0  0  0  0  0  0  0  0  0  0  0  0
  141.8150   69.8788  228.9518 H   0  0  0  0  0  0  0  0  0  0  0  0
  140.0462   69.8040  228.9704 H   0  0  0  0  0  0  0  0  0  0  0  0
  141.7792   68.0115  227.1485 H   0  0  0  0  0  0  0  0  0  0  0  0
  141.2796   67.4949  228.7717 H   0  0  0  0  0  0  0  0  0  0  0  0
  139.5850   66.7830  227.2360 H   0  0  0  0  0  0  0  0  0  0  0  0
  139.0103   68.0339  225.4807 H   0  0  0  0  0  0  0  0  0  0  0  0
  138.3883   69.2040  226.7446 H   0  0  0  0  0  0  0  0  0  0  0  0
  142.7326   72.1974  217.5399 H   0  0  0  0  0  0  0  0  0  0  0  0
  142.8792   73.8685  218.1446 H   0  0  0  0  0  0  0  0  0  0  0  0
  144.8885   73.2648  216.7648 H   0  0  0  0  0  0  0  0  0  0  0  0
  145.3909   73.5127  218.4388 H   0  0  0  0  0  0  0  0  0  0  0  0
  146.2389   71.4492  215.9136 H   0  0  0  0  0  0  0  0  0  0  0  0
  146.8892   69.0629  216.1513 H   0  0  0  0  0  0  0  0  0  0  0  0
  146.2723   67.7345  218.1297 H   0  0  0  0  0  0  0  0  0  0  0  0
  144.9518   68.8036  219.9625 H   0  0  0  0  0  0  0  0  0  0  0  0
  143.4357   70.5321  220.5395 H   0  0  0  0  0  0  0  0  0  0  0  0
  144.7446   71.7039  220.8594 H   0  0  0  0  0  0  0  0  0  0  0  0
  142.5529   76.9603  220.0227 H   0  0  0  0  0  0  0  0  0  0  0  0
  141.0016   76.5720  219.1850 H   0  0  0  0  0  0  0  0  0  0  0  0
  141.5047   79.0365  219.3587 H   0  0  0  0  0  0  0  0  0  0  0  0
  139.9433   78.5430  220.0866 H   0  0  0  0  0  0  0  0  0  0  0  0
  142.4389   80.7950  220.7594 H   0  0  0  0  0  0  0  0  0  0  0  0
  143.0694   81.5022  223.0501 H   0  0  0  0  0  0  0  0  0  0  0  0
  142.4793   80.1620  225.0292 H   0  0  0  0  0  0  0  0  0  0  0  0
  141.2116   78.0167  224.7468 H   0  0  0  0  0  0  0  0  0  0  0  0
  140.4154   76.3643  223.2401 H   0  0  0  0  0  0  0  0  0  0  0  0
  139.3529   77.2423  222.0876 H   0  0  0  0  0  0  0  0  0  0  0  0
  1  2  2  0
  2  3  1  0
  3  4  1  0
  4  5  1  0
  5  6  1  0
  6  7  1  0
  7  8  1  0
  8  9  1  0
  9 10  1  0
  2 11  1  0
 11 12  2  0
 12 13  1  0
 13 14  1  0
 14 15  1  0
 15 16  1  0
 16 17  1  0
 17 18  2  0
 18 19  1  0
 19 20  2  0
 20 21  1  0
 21 22  2  0
 22 23  1  0
 13 24  2  0
 24 25  1  0
 25 26  1  0
 26 27  1  0
 27 28  1  0
 28 29  1  0
 29 30  2  0
 30 31  1  0
 31 32  2  0
 32 33  1  0
 33 34  2  0
 34 35  1  0
 25 36  2  0
 10  5  1  0
 36 11  1  0
 23 14  1  0
 35 26  1  0
 22 17  1  0
 34 29  1  0
  3 37  1  0
  4 38  1  0
  4 39  1  0
  5 40  1  6
  6 41  1  0
  6 42  1  0
  7 43  1  0
  7 44  1  0
  8 45  1  0
  8 46  1  0
  9 47  1  0
 10 48  1  0
 10 49  1  0
 15 50  1  0
 15 51  1  0
 16 52  1  0
 16 53  1  0
 18 54  1  0
 19 55  1  0
 20 56  1  0
 21 57  1  0
 23 58  1  0
 23 59  1  0
 27 60  1  0
 27 61  1  0
 28 62  1  0
 28 63  1  0
 30 64  1  0
 31 65  1  0
 32 66  1  0
 33 67  1  0
 35 68  1  0
 35 69  1  0
M  END
>  <smiles>  (89) 
O=C(NCC1CCCNC1)c1nc(N2CCc3ccccc3C2)nc(N2CCc3ccccc3C2)n1

>  <score_type>  (89) 
oracle

>  <origin>  (89) 
autodockgpu

>  <m_score__min__energy>  (89) 
-10.369999999999999

>  <m_primary>  (89) 
energy

>  <rmsd>  (89) 
9.367981538082914

>  <m_score__min__rmsd>  (89) 
9.367981538082914

>  <meeko>  (89) 
{"free_energy": -10.32, "intermolecular_energy": -11.82, "internal_energy": -0.92, "cluster_size": 35, "cluster_id": 1, "rank_in_cluster": 6}

>  <energy>  (89) 
-9.65

>  <cluster_rmsd>  (89) 
0.62

>  <cluster>  (89) 
2

$$$$

     RDKit          3D

 69 74  0  0  0  0  0  0  0  0999 V2000
  138.6600   72.2940  222.8400 O   0  0  0  0  0  0  0  0  0  0  0  0
  139.9250   72.1410  222.7850 C   0  0  0  0  0  0  0  0  0  0  0  0
  140.4540   71.0700  223.5590 N   0  0  0  0  0  0  0  0  0  0  0  0
  139.5070   70.2790  224.3180 C   0  0  0  0  0  0  0  0  0  0  0  0
  140.1500   69.5480  225.4830 C   0  0  1  0  0  0  0  0  0  0  0  0
  140.3200   70.5750  226.5740 C   0  0  0  0  0  0  0  0  0  0  0  0
  140.1130   70.0380  227.9600 C   0  0  0  0  0  0  0  0  0  0  0  0
  140.5390   68.5690  227.9080 C   0  0  0  0  0  0  0  0  0  0  0  0
  139.5220   67.8760  227.1800 N   0  0  0  0  0  0  0  0  0  0  0  0
  139.2460   68.4160  225.8800 C   0  0  0  0  0  0  0  0  0  0  0  0
  140.7860   72.9920  221.9910 C   0  0  0  0  0  0  0  0  0  0  0  0
  140.7110   74.3350  222.0240 N   0  0  0  0  0  0  0  0  0  0  0  0
  141.5490   75.0640  221.2530 C   0  0  0  0  0  0  0  0  0  0  0  0
  141.4600   76.4940  221.2980 N   0  0  0  0  0  0  0  0  0  0  0  0
  141.7850   77.2160  220.1050 C   0  0  0  0  0  0  0  0  0  0  0  0
  140.8150   78.4000  219.9960 C   0  0  0  0  0  0  0  0  0  0  0  0
  141.0850   79.2370  221.2040 C   0  0  0  0  0  0  0  0  0  0  0  0
  141.2220   80.6220  221.1030 C   0  0  0  0  0  0  0  0  0  0  0  0
  141.4710   81.3080  222.2790 C   0  0  0  0  0  0  0  0  0  0  0  0
  141.5830   80.6880  223.5050 C   0  0  0  0  0  0  0  0  0  0  0  0
  141.4410   79.3070  223.5710 C   0  0  0  0  0  0  0  0  0  0  0  0
  141.1900   78.5740  222.4080 C   0  0  0  0  0  0  0  0  0  0  0  0
  141.0480   77.1010  222.5450 C   0  0  0  0  0  0  0  0  0  0  0  0
  142.4420   74.4260  220.4670 N   0  0  0  0  0  0  0  0  0  0  0  0
  142.5350   73.0840  220.4160 C   0  0  0  0  0  0  0  0  0  0  0  0
  143.5000   72.4920  219.5640 N   0  0  0  0  0  0  0  0  0  0  0  0
  143.4650   72.7710  218.1610 C   0  0  0  0  0  0  0  0  0  0  0  0
  144.6700   72.1780  217.4690 C   0  0  0  0  0  0  0  0  0  0  0  0
  144.7730   70.7430  217.8290 C   0  0  0  0  0  0  0  0  0  0  0  0
  144.9340   69.7360  216.9210 C   0  0  0  0  0  0  0  0  0  0  0  0
  145.0140   68.4430  217.4040 C   0  0  0  0  0  0  0  0  0  0  0  0
  144.9400   68.1450  218.7520 C   0  0  0  0  0  0  0  0  0  0  0  0
  144.7780   69.1660  219.6710 C   0  0  0  0  0  0  0  0  0  0  0  0
  144.6980   70.4450  219.1890 C   0  0  0  0  0  0  0  0  0  0  0  0
  144.5230   71.6080  220.0990 C   0  0  0  0  0  0  0  0  0  0  0  0
  141.6930   72.3760  221.1900 N   0  0  0  0  0  0  0  0  0  0  0  0
  141.4690   70.8710  223.5750 H   0  0  0  0  0  0  0  0  0  0  0  0
  138.7261   70.9470  224.7103 H   0  0  0  0  0  0  0  0  0  0  0  0
  139.0917   69.5193  223.6395 H   0  0  0  0  0  0  0  0  0  0  0  0
  141.1303   69.1087  225.2462 H   0  0  0  0  0  0  0  0  0  0  0  0
  141.3403   70.9811  226.5099 H   0  0  0  0  0  0  0  0  0  0  0  0
  139.5466   71.3402  226.4120 H   0  0  0  0  0  0  0  0  0  0  0  0
  140.7328   70.5909  228.6812 H   0  0  0  0  0  0  0  0  0  0  0  0
  139.0667   70.1442  228.2824 H   0  0  0  0  0  0  0  0  0  0  0  0
  141.5068   68.4721  227.3943 H   0  0  0  0  0  0  0  0  0  0  0  0
  140.6568   68.1533  228.9196 H   0  0  0  0  0  0  0  0  0  0  0  0
  139.6020   66.8380  227.2190 H   0  0  0  0  0  0  0  0  0  0  0  0
  139.3565   67.6096  225.1401 H   0  0  0  0  0  0  0  0  0  0  0  0
  138.2244   68.8224  225.9151 H   0  0  0  0  0  0  0  0  0  0  0  0
  142.8202   77.5839  220.1602 H   0  0  0  0  0  0  0  0  0  0  0  0
  141.6961   76.5634  219.2240 H   0  0  0  0  0  0  0  0  0  0  0  0
  141.0078   78.9739  219.0776 H   0  0  0  0  0  0  0  0  0  0  0  0
  139.7665   78.0708  219.9487 H   0  0  0  0  0  0  0  0  0  0  0  0
  141.1364   81.1422  220.1376 H   0  0  0  0  0  0  0  0  0  0  0  0
  141.5851   82.4011  222.2331 H   0  0  0  0  0  0  0  0  0  0  0  0
  141.7810   81.2751  224.4139 H   0  0  0  0  0  0  0  0  0  0  0  0
  141.5262   78.7910  224.5387 H   0  0  0  0  0  0  0  0  0  0  0  0
  141.6858   76.7392  223.3649 H   0  0  0  0  0  0  0  0  0  0  0  0
  140.0045   76.8373  222.7718 H   0  0  0  0  0  0  0  0  0  0  0  0
  142.5508   72.3375  217.7292 H   0  0  0  0  0  0  0  0  0  0  0  0
  143.4750   73.8614  218.0166 H   0  0  0  0  0  0  0  0  0  0  0  0
  144.5565   72.2781  216.3795 H   0  0  0  0  0  0  0  0  0  0  0  0
  145.5802   72.7080  217.7862 H   0  0  0  0  0  0  0  0  0  0  0  0
  144.9978   69.9461  215.8431 H   0  0  0  0  0  0  0  0  0  0  0  0
  145.1416   67.6185  216.6872 H   0  0  0  0  0  0  0  0  0  0  0  0
  145.0096   67.1012  219.0920 H   0  0  0  0  0  0  0  0  0  0  0  0
  144.7157   68.9580  220.7494 H   0  0  0  0  0  0  0  0  0  0  0  0
  144.2167   71.2524  221.0938 H   0  0  0  0  0  0  0  0  0  0  0  0
  145.4737   72.1551  220.1820 H   0  0  0  0  0  0  0  0  0  0  0  0
  1  2  2  0
  2  3  1  0
  3  4  1  0
  4  5  1  0
  5  6  1  0
  6  7  1  0
  7  8  1  0
  8  9  1  0
  9 10  1  0
  2 11  1  0
 11 12  2  0
 12 13  1  0
 13 14  1  0
 14 15  1  0
 15 16  1  0
 16 17  1  0
 17 18  2  0
 18 19  1  0
 19 20  2  0
 20 21  1  0
 21 22  2  0
 22 23  1  0
 13 24  2  0
 24 25  1  0
 25 26  1  0
 26 27  1  0
 27 28  1  0
 28 29  1  0
 29 30  2  0
 30 31  1  0
 31 32  2  0
 32 33  1  0
 33 34  2  0
 34 35  1  0
 25 36  2  0
 10  5  1  0
 36 11  1  0
 23 14  1  0
 35 26  1  0
 22 17  1  0
 34 29  1  0
  3 37  1  0
  4 38  1  0
  4 39  1  0
  5 40  1  6
  6 41  1  0
  6 42  1  0
  7 43  1  0
  7 44  1  0
  8 45  1  0
  8 46  1  0
  9 47  1  0
 10 48  1  0
 10 49  1  0
 15 50  1  0
 15 51  1  0
 16 52  1  0
 16 53  1  0
 18 54  1  0
 19 55  1  0
 20 56  1  0
 21 57  1  0
 23 58  1  0
 23 59  1  0
 27 60  1  0
 27 61  1  0
 28 62  1  0
 28 63  1  0
 30 64  1  0
 31 65  1  0
 32 66  1  0
 33 67  1  0
 35 68  1  0
 35 69  1  0
M  END
>  <smiles>  (90) 
O=C(NCC1CCCNC1)c1nc(N2CCc3ccccc3C2)nc(N2CCc3ccccc3C2)n1

>  <score_type>  (90) 
oracle

>  <origin>  (90) 
autodockgpu

>  <m_score__min__energy>  (90) 
-10.369999999999999

>  <m_primary>  (90) 
energy

>  <rmsd>  (90) 
9.125619333748805

>  <m_score__min__rmsd>  (90) 
9.125619333748805

>  <meeko>  (90) 
{"free_energy": -9.58, "intermolecular_energy": -11.07, "internal_energy": -1.02, "cluster_size": 35, "cluster_id": 1, "rank_in_cluster": 28}

>  <energy>  (90) 
-9.58

>  <cluster_rmsd>  (90) 
0.0

>  <cluster>  (90) 
3

$$$$

     RDKit          3D

 69 74  0  0  0  0  0  0  0  0999 V2000
  140.2570   70.6820  221.8740 O   0  0  0  0  0  0  0  0  0  0  0  0
  140.2840   71.8050  222.4760 C   0  0  0  0  0  0  0  0  0  0  0  0
  139.7210   71.8200  223.7840 N   0  0  0  0  0  0  0  0  0  0  0  0
  139.1860   70.5700  224.2810 C   0  0  0  0  0  0  0  0  0  0  0  0
  140.0700   69.9300  225.3370 C   0  0  1  0  0  0  0  0  0  0  0  0
  140.3830   71.0170  226.3320 C   0  0  0  0  0  0  0  0  0  0  0  0
  140.4640   70.5440  227.7540 C   0  0  0  0  0  0  0  0  0  0  0  0
  140.9490   69.0950  227.6860 C   0  0  0  0  0  0  0  0  0  0  0  0
  139.8540   68.3210  227.1910 N   0  0  0  0  0  0  0  0  0  0  0  0
  139.3160   68.7810  225.9430 C   0  0  0  0  0  0  0  0  0  0  0  0
  140.8460   73.0010  221.8850 C   0  0  0  0  0  0  0  0  0  0  0  0
  141.7930   72.9640  220.9290 N   0  0  0  0  0  0  0  0  0  0  0  0
  142.2700   74.1240  220.4260 C   0  0  0  0  0  0  0  0  0  0  0  0
  143.2790   74.0710  219.4070 N   0  0  0  0  0  0  0  0  0  0  0  0
  144.5650   73.5590  219.7750 C   0  0  0  0  0  0  0  0  0  0  0  0
  145.0910   72.7300  218.5960 C   0  0  0  0  0  0  0  0  0  0  0  0
  145.2160   73.6980  217.4630 C   0  0  0  0  0  0  0  0  0  0  0  0
  146.3610   73.7270  216.6660 C   0  0  0  0  0  0  0  0  0  0  0  0
  146.3810   74.6590  215.6440 C   0  0  0  0  0  0  0  0  0  0  0  0
  145.3410   75.5290  215.3960 C   0  0  0  0  0  0  0  0  0  0  0  0
  144.2150   75.4740  216.2080 C   0  0  0  0  0  0  0  0  0  0  0  0
  144.1520   74.5480  217.2530 C   0  0  0  0  0  0  0  0  0  0  0  0
  142.9210   74.5390  218.0860 C   0  0  0  0  0  0  0  0  0  0  0  0
  141.7850   75.2940  220.8930 N   0  0  0  0  0  0  0  0  0  0  0  0
  140.8390   75.3570  221.8490 C   0  0  0  0  0  0  0  0  0  0  0  0
  140.3850   76.6260  222.2850 N   0  0  0  0  0  0  0  0  0  0  0  0
  139.0710   77.0650  221.9260 C   0  0  0  0  0  0  0  0  0  0  0  0
  138.7310   78.3590  222.6270 C   0  0  0  0  0  0  0  0  0  0  0  0
  139.8170   79.3390  222.3810 C   0  0  0  0  0  0  0  0  0  0  0  0
  139.6120   80.6160  221.9460 C   0  0  0  0  0  0  0  0  0  0  0  0
  140.7230   81.4170  221.7600 C   0  0  0  0  0  0  0  0  0  0  0  0
  142.0100   80.9740  221.9990 C   0  0  0  0  0  0  0  0  0  0  0  0
  142.2180   79.6790  222.4400 C   0  0  0  0  0  0  0  0  0  0  0  0
  141.1160   78.8890  222.6220 C   0  0  0  0  0  0  0  0  0  0  0  0
  141.2370   77.4840  223.0930 C   0  0  0  0  0  0  0  0  0  0  0  0
  140.3770   74.1920  222.3380 N   0  0  0  0  0  0  0  0  0  0  0  0
  139.6990   72.6870  224.3470 H   0  0  0  0  0  0  0  0  0  0  0  0
  138.1959   70.7614  224.7204 H   0  0  0  0  0  0  0  0  0  0  0  0
  139.1277   69.8736  223.4315 H   0  0  0  0  0  0  0  0  0  0  0  0
  141.0122   69.5236  224.9407 H   0  0  0  0  0  0  0  0  0  0  0  0
  141.3509   71.4642  226.0614 H   0  0  0  0  0  0  0  0  0  0  0  0
  139.5530   71.7373  226.2851 H   0  0  0  0  0  0  0  0  0  0  0  0
  141.1766   71.1599  228.3222 H   0  0  0  0  0  0  0  0  0  0  0  0
  139.4912   70.6212  228.2617 H   0  0  0  0  0  0  0  0  0  0  0  0
  141.8093   69.0142  227.0053 H   0  0  0  0  0  0  0  0  0  0  0  0
  141.2724   68.7379  228.6749 H   0  0  0  0  0  0  0  0  0  0  0  0
  139.9940   67.2910  227.2580 H   0  0  0  0  0  0  0  0  0  0  0  0
  139.3315   67.9433  225.2303 H   0  0  0  0  0  0  0  0  0  0  0  0
  138.2983   69.1433  226.1503 H   0  0  0  0  0  0  0  0  0  0  0  0
  145.2535   74.3908  219.9850 H   0  0  0  0  0  0  0  0  0  0  0  0
  144.4882   72.9376  220.6794 H   0  0  0  0  0  0  0  0  0  0  0  0
  146.0701   72.2915  218.8388 H   0  0  0  0  0  0  0  0  0  0  0  0
  144.4214   71.8926  218.3502 H   0  0  0  0  0  0  0  0  0  0  0  0
  147.2048   73.0435  216.8415 H   0  0  0  0  0  0  0  0  0  0  0  0
  147.2699   74.7082  214.9979 H   0  0  0  0  0  0  0  0  0  0  0  0
  145.4015   76.2534  214.5704 H   0  0  0  0  0  0  0  0  0  0  0  0
  143.3733   76.1591  216.0285 H   0  0  0  0  0  0  0  0  0  0  0  0
  142.5060   75.5557  218.1499 H   0  0  0  0  0  0  0  0  0  0  0  0
  142.1621   73.8797  217.6395 H   0  0  0  0  0  0  0  0  0  0  0  0
  139.0270   77.2212  220.8380 H   0  0  0  0  0  0  0  0  0  0  0  0
  138.3455   76.2963  222.2305 H   0  0  0  0  0  0  0  0  0  0  0  0
  137.7821   78.7533  222.2344 H   0  0  0  0  0  0  0  0  0  0  0  0
  138.6275   78.1812  223.7076 H   0  0  0  0  0  0  0  0  0  0  0  0
  138.5980   80.9947  221.7502 H   0  0  0  0  0  0  0  0  0  0  0  0
  140.5768   82.4487  221.4075 H   0  0  0  0  0  0  0  0  0  0  0  0
  142.8649   81.6475  221.8394 H   0  0  0  0  0  0  0  0  0  0  0  0
  143.2313   79.2990  222.6369 H   0  0  0  0  0  0  0  0  0  0  0  0
  142.2825   77.1549  222.9997 H   0  0  0  0  0  0  0  0  0  0  0  0
  140.9254   77.4226  224.1462 H   0  0  0  0  0  0  0  0  0  0  0  0
  1  2  2  0
  2  3  1  0
  3  4  1  0
  4  5  1  0
  5  6  1  0
  6  7  1  0
  7  8  1  0
  8  9  1  0
  9 10  1  0
  2 11  1  0
 11 12  2  0
 12 13  1  0
 13 14  1  0
 14 15  1  0
 15 16  1  0
 16 17  1  0
 17 18  2  0
 18 19  1  0
 19 20  2  0
 20 21  1  0
 21 22  2  0
 22 23  1  0
 13 24  2  0
 24 25  1  0
 25 26  1  0
 26 27  1  0
 27 28  1  0
 28 29  1  0
 29 30  2  0
 30 31  1  0
 31 32  2  0
 32 33  1  0
 33 34  2  0
 34 35  1  0
 25 36  2  0
 10  5  1  0
 36 11  1  0
 23 14  1  0
 35 26  1  0
 22 17  1  0
 34 29  1  0
  3 37  1  0
  4 38  1  0
  4 39  1  0
  5 40  1  6
  6 41  1  0
  6 42  1  0
  7 43  1  0
  7 44  1  0
  8 45  1  0
  8 46  1  0
  9 47  1  0
 10 48  1  0
 10 49  1  0
 15 50  1  0
 15 51  1  0
 16 52  1  0
 16 53  1  0
 18 54  1  0
 19 55  1  0
 20 56  1  0
 21 57  1  0
 23 58  1  0
 23 59  1  0
 27 60  1  0
 27 61  1  0
 28 62  1  0
 28 63  1  0
 30 64  1  0
 31 65  1  0
 32 66  1  0
 33 67  1  0
 35 68  1  0
 35 69  1  0
M  END
>  <smiles>  (91) 
O=C(NCC1CCCNC1)c1nc(N2CCc3ccccc3C2)nc(N2CCc3ccccc3C2)n1

>  <score_type>  (91) 
oracle

>  <origin>  (91) 
autodockgpu

>  <m_score__min__energy>  (91) 
-10.369999999999999

>  <m_primary>  (91) 
energy

>  <rmsd>  (91) 
8.817256279675988

>  <m_score__min__rmsd>  (91) 
8.817256279675988

>  <meeko>  (91) 
{"free_energy": -9.55, "intermolecular_energy": -11.04, "internal_energy": -1.19, "cluster_size": 35, "cluster_id": 1, "rank_in_cluster": 30}

>  <energy>  (91) 
-9.57

>  <cluster_rmsd>  (91) 
0.78

>  <cluster>  (91) 
3

$$$$

     RDKit          3D

 69 74  0  0  0  0  0  0  0  0999 V2000
  138.9550   71.2370  222.5820 O   0  0  0  0  0  0  0  0  0  0  0  0
  139.9710   71.9150  222.9470 C   0  0  0  0  0  0  0  0  0  0  0  0
  140.2980   71.8450  224.3310 N   0  0  0  0  0  0  0  0  0  0  0  0
  139.4480   71.0200  225.1640 C   0  0  0  0  0  0  0  0  0  0  0  0
  140.2200   69.9480  225.9140 C   0  0  1  0  0  0  0  0  0  0  0  0
  140.8980   70.6510  227.0620 C   0  0  0  0  0  0  0  0  0  0  0  0
  140.9750   69.8380  228.3210 C   0  0  0  0  0  0  0  0  0  0  0  0
  141.0510   68.3770  227.8710 C   0  0  0  0  0  0  0  0  0  0  0  0
  139.7500   68.0310  227.3890 N   0  0  0  0  0  0  0  0  0  0  0  0
  139.2450   68.8980  226.3640 C   0  0  0  0  0  0  0  0  0  0  0  0
  140.7560   72.7110  222.0280 C   0  0  0  0  0  0  0  0  0  0  0  0
  141.6570   72.1720  221.1850 N   0  0  0  0  0  0  0  0  0  0  0  0
  142.3540   72.9800  220.3560 C   0  0  0  0  0  0  0  0  0  0  0  0
  143.3100   72.3930  219.4630 N   0  0  0  0  0  0  0  0  0  0  0  0
  143.2770   72.8070  218.0920 C   0  0  0  0  0  0  0  0  0  0  0  0
  144.7270   72.8980  217.5980 C   0  0  0  0  0  0  0  0  0  0  0  0
  145.2650   71.5080  217.7120 C   0  0  0  0  0  0  0  0  0  0  0  0
  145.9930   70.9310  216.6710 C   0  0  0  0  0  0  0  0  0  0  0  0
  146.4480   69.6400  216.8740 C   0  0  0  0  0  0  0  0  0  0  0  0
  146.2150   68.9310  218.0320 C   0  0  0  0  0  0  0  0  0  0  0  0
  145.4870   69.5350  219.0510 C   0  0  0  0  0  0  0  0  0  0  0  0
  145.0070   70.8370  218.8890 C   0  0  0  0  0  0  0  0  0  0  0  0
  144.2360   71.4270  220.0140 C   0  0  0  0  0  0  0  0  0  0  0  0
  142.1300   74.3110  220.3920 N   0  0  0  0  0  0  0  0  0  0  0  0
  141.2350   74.8740  221.2250 C   0  0  0  0  0  0  0  0  0  0  0  0
  141.0600   76.2790  221.2010 N   0  0  0  0  0  0  0  0  0  0  0  0
  141.4650   77.0190  220.0450 C   0  0  0  0  0  0  0  0  0  0  0  0
  141.0400   78.4650  220.1620 C   0  0  0  0  0  0  0  0  0  0  0  0
  141.5170   79.0030  221.4590 C   0  0  0  0  0  0  0  0  0  0  0  0
  142.2030   80.1750  221.5960 C   0  0  0  0  0  0  0  0  0  0  0  0
  142.5840   80.5510  222.8710 C   0  0  0  0  0  0  0  0  0  0  0  0
  142.2960   79.7920  223.9890 C   0  0  0  0  0  0  0  0  0  0  0  0
  141.6000   78.6040  223.8500 C   0  0  0  0  0  0  0  0  0  0  0  0
  141.2250   78.2350  222.5860 C   0  0  0  0  0  0  0  0  0  0  0  0
  140.4740   76.9760  222.3350 C   0  0  0  0  0  0  0  0  0  0  0  0
  140.5510   74.0530  222.0440 N   0  0  0  0  0  0  0  0  0  0  0  0
  141.1060   72.3620  224.7170 H   0  0  0  0  0  0  0  0  0  0  0  0
  138.9409   71.6652  225.8965 H   0  0  0  0  0  0  0  0  0  0  0  0
  138.7310   70.5106  224.5034 H   0  0  0  0  0  0  0  0  0  0  0  0
  140.9808   69.4394  225.3037 H   0  0  0  0  0  0  0  0  0  0  0  0
  141.9223   70.9071  226.7534 H   0  0  0  0  0  0  0  0  0  0  0  0
  140.2892   71.5372  227.2943 H   0  0  0  0  0  0  0  0  0  0  0  0
  141.8722   70.1084  228.8971 H   0  0  0  0  0  0  0  0  0  0  0  0
  140.1060   70.0163  228.9714 H   0  0  0  0  0  0  0  0  0  0  0  0
  141.7953   68.2649  227.0689 H   0  0  0  0  0  0  0  0  0  0  0  0
  141.3547   67.7212  228.7003 H   0  0  0  0  0  0  0  0  0  0  0  0
  139.6170   67.0130  227.2110 H   0  0  0  0  0  0  0  0  0  0  0  0
  138.9739   68.2825  225.4935 H   0  0  0  0  0  0  0  0  0  0  0  0
  138.3828   69.4290  226.7939 H   0  0  0  0  0  0  0  0  0  0  0  0
  142.7220   72.0712  217.4916 H   0  0  0  0  0  0  0  0  0  0  0  0
  142.7748   73.7809  217.9952 H   0  0  0  0  0  0  0  0  0  0  0  0
  144.7582   73.2397  216.5529 H   0  0  0  0  0  0  0  0  0  0  0  0
  145.3176   73.6179  218.1836 H   0  0  0  0  0  0  0  0  0  0  0  0
  146.1950   71.4747  215.7364 H   0  0  0  0  0  0  0  0  0  0  0  0
  147.0240   69.1562  216.0714 H   0  0  0  0  0  0  0  0  0  0  0  0
  146.5977   67.9063  218.1482 H   0  0  0  0  0  0  0  0  0  0  0  0
  145.2890   68.9879  219.9845 H   0  0  0  0  0  0  0  0  0  0  0  0
  143.6814   70.6369  220.5415 H   0  0  0  0  0  0  0  0  0  0  0  0
  144.9153   71.9136  220.7294 H   0  0  0  0  0  0  0  0  0  0  0  0
  142.5598   76.9707  219.9503 H   0  0  0  0  0  0  0  0  0  0  0  0
  140.9861   76.5797  219.1575 H   0  0  0  0  0  0  0  0  0  0  0  0
  141.4783   79.0465  219.3375 H   0  0  0  0  0  0  0  0  0  0  0  0
  139.9436   78.5363  220.1098 H   0  0  0  0  0  0  0  0  0  0  0  0
  142.4444   80.7987  220.7226 H   0  0  0  0  0  0  0  0  0  0  0  0
  143.1386   81.4921  223.0003 H   0  0  0  0  0  0  0  0  0  0  0  0
  142.6184   80.1304  224.9848 H   0  0  0  0  0  0  0  0  0  0  0  0
  141.3572   77.9795  224.7224 H   0  0  0  0  0  0  0  0  0  0  0  0
  140.5263   76.3340  223.2267 H   0  0  0  0  0  0  0  0  0  0  0  0
  139.4228   77.2141  222.1153 H   0  0  0  0  0  0  0  0  0  0  0  0
  1  2  2  0
  2  3  1  0
  3  4  1  0
  4  5  1  0
  5  6  1  0
  6  7  1  0
  7  8  1  0
  8  9  1  0
  9 10  1  0
  2 11  1  0
 11 12  2  0
 12 13  1  0
 13 14  1  0
 14 15  1  0
 15 16  1  0
 16 17  1  0
 17 18  2  0
 18 19  1  0
 19 20  2  0
 20 21  1  0
 21 22  2  0
 22 23  1  0
 13 24  2  0
 24 25  1  0
 25 26  1  0
 26 27  1  0
 27 28  1  0
 28 29  1  0
 29 30  2  0
 30 31  1  0
 31 32  2  0
 32 33  1  0
 33 34  2  0
 34 35  1  0
 25 36  2  0
 10  5  1  0
 36 11  1  0
 23 14  1  0
 35 26  1  0
 22 17  1  0
 34 29  1  0
  3 37  1  0
  4 38  1  0
  4 39  1  0
  5 40  1  6
  6 41  1  0
  6 42  1  0
  7 43  1  0
  7 44  1  0
  8 45  1  0
  8 46  1  0
  9 47  1  0
 10 48  1  0
 10 49  1  0
 15 50  1  0
 15 51  1  0
 16 52  1  0
 16 53  1  0
 18 54  1  0
 19 55  1  0
 20 56  1  0
 21 57  1  0
 23 58  1  0
 23 59  1  0
 27 60  1  0
 27 61  1  0
 28 62  1  0
 28 63  1  0
 30 64  1  0
 31 65  1  0
 32 66  1  0
 33 67  1  0
 35 68  1  0
 35 69  1  0
M  END
>  <smiles>  (92) 
O=C(NCC1CCCNC1)c1nc(N2CCc3ccccc3C2)nc(N2CCc3ccccc3C2)n1

>  <score_type>  (92) 
oracle

>  <origin>  (92) 
autodockgpu

>  <m_score__min__energy>  (92) 
-10.369999999999999

>  <m_primary>  (92) 
energy

>  <rmsd>  (92) 
9.228627193436063

>  <m_score__min__rmsd>  (92) 
9.228627193436063

>  <meeko>  (92) 
{"free_energy": -10.13, "intermolecular_energy": -11.63, "internal_energy": -0.95, "cluster_size": 35, "cluster_id": 1, "rank_in_cluster": 12}

>  <energy>  (92) 
-9.52

>  <cluster_rmsd>  (92) 
1.41

>  <cluster>  (92) 
3

$$$$

     RDKit          3D

 69 74  0  0  0  0  0  0  0  0999 V2000
  138.6160   72.1020  222.9100 O   0  0  0  0  0  0  0  0  0  0  0  0
  139.8900   72.0660  222.9420 C   0  0  0  0  0  0  0  0  0  0  0  0
  140.4600   71.2230  223.9380 N   0  0  0  0  0  0  0  0  0  0  0  0
  139.5390   70.5070  224.7960 C   0  0  0  0  0  0  0  0  0  0  0  0
  140.2450   69.6230  225.8100 C   0  0  1  0  0  0  0  0  0  0  0  0
  140.5280   70.5010  227.0010 C   0  0  0  0  0  0  0  0  0  0  0  0
  140.4100   69.7990  228.3230 C   0  0  0  0  0  0  0  0  0  0  0  0
  140.7840   68.3400  228.0570 C   0  0  0  0  0  0  0  0  0  0  0  0
  139.6950   67.7650  227.3310 N   0  0  0  0  0  0  0  0  0  0  0  0
  139.3390   68.4690  226.1340 C   0  0  0  0  0  0  0  0  0  0  0  0
  140.7220   72.8250  222.0330 C   0  0  0  0  0  0  0  0  0  0  0  0
  141.6120   72.2460  221.2070 N   0  0  0  0  0  0  0  0  0  0  0  0
  142.3550   73.0210  220.3860 C   0  0  0  0  0  0  0  0  0  0  0  0
  143.3000   72.3910  219.5100 N   0  0  0  0  0  0  0  0  0  0  0  0
  143.3640   72.8600  218.1580 C   0  0  0  0  0  0  0  0  0  0  0  0
  144.8370   72.8470  217.7290 C   0  0  0  0  0  0  0  0  0  0  0  0
  145.2530   71.4140  217.8070 C   0  0  0  0  0  0  0  0  0  0  0  0
  145.9780   70.8190  216.7740 C   0  0  0  0  0  0  0  0  0  0  0  0
  146.3160   69.4880  216.9400 C   0  0  0  0  0  0  0  0  0  0  0  0
  145.9720   68.7560  218.0570 C   0  0  0  0  0  0  0  0  0  0  0  0
  145.2510   69.3780  219.0680 C   0  0  0  0  0  0  0  0  0  0  0  0
  144.8870   70.7220  218.9420 C   0  0  0  0  0  0  0  0  0  0  0  0
  144.1160   71.3300  220.0570 C   0  0  0  0  0  0  0  0  0  0  0  0
  142.1850   74.3610  220.4130 N   0  0  0  0  0  0  0  0  0  0  0  0
  141.3020   74.9630  221.2310 C   0  0  0  0  0  0  0  0  0  0  0  0
  141.1860   76.3750  221.1990 N   0  0  0  0  0  0  0  0  0  0  0  0
  141.7740   77.1050  220.1180 C   0  0  0  0  0  0  0  0  0  0  0  0
  141.3930   78.5650  220.1920 C   0  0  0  0  0  0  0  0  0  0  0  0
  141.7080   79.0760  221.5480 C   0  0  0  0  0  0  0  0  0  0  0  0
  142.4140   80.2190  221.7910 C   0  0  0  0  0  0  0  0  0  0  0  0
  142.6310   80.5720  223.1100 C   0  0  0  0  0  0  0  0  0  0  0  0
  142.1630   79.8180  224.1700 C   0  0  0  0  0  0  0  0  0  0  0  0
  141.4480   78.6590  223.9230 C   0  0  0  0  0  0  0  0  0  0  0  0
  141.2350   78.3130  222.6160 C   0  0  0  0  0  0  0  0  0  0  0  0
  140.4780   77.0870  222.2510 C   0  0  0  0  0  0  0  0  0  0  0  0
  140.5730   74.1750  222.0410 N   0  0  0  0  0  0  0  0  0  0  0  0
  141.4850   71.1310  224.0390 H   0  0  0  0  0  0  0  0  0  0  0  0
  138.9217   71.2390  225.3374 H   0  0  0  0  0  0  0  0  0  0  0  0
  138.9291   69.8536  224.1549 H   0  0  0  0  0  0  0  0  0  0  0  0
  141.1912   69.1964  225.4456 H   0  0  0  0  0  0  0  0  0  0  0  0
  141.5524   70.8906  226.9071 H   0  0  0  0  0  0  0  0  0  0  0  0
  139.7683   71.2965  226.9958 H   0  0  0  0  0  0  0  0  0  0  0  0
  141.1000   70.2436  229.0553 H   0  0  0  0  0  0  0  0  0  0  0  0
  139.3951   69.8868  228.7380 H   0  0  0  0  0  0  0  0  0  0  0  0
  141.7072   68.2874  227.4612 H   0  0  0  0  0  0  0  0  0  0  0  0
  140.9634   67.7987  228.9976 H   0  0  0  0  0  0  0  0  0  0  0  0
  139.7450   66.7290  227.2360 H   0  0  0  0  0  0  0  0  0  0  0  0
  139.3689   67.7596  225.2939 H   0  0  0  0  0  0  0  0  0  0  0  0
  138.3359   68.8892  226.2989 H   0  0  0  0  0  0  0  0  0  0  0  0
  142.7774   72.1983  217.5038 H   0  0  0  0  0  0  0  0  0  0  0  0
  142.9498   73.8762  218.0827 H   0  0  0  0  0  0  0  0  0  0  0  0
  144.9432   73.2245  216.7013 H   0  0  0  0  0  0  0  0  0  0  0  0
  145.4580   73.4916  218.3684 H   0  0  0  0  0  0  0  0  0  0  0  0
  146.2663   71.3802  215.8729 H   0  0  0  0  0  0  0  0  0  0  0  0
  146.8866   68.9894  216.1427 H   0  0  0  0  0  0  0  0  0  0  0  0
  146.2633   67.6990  218.1456 H   0  0  0  0  0  0  0  0  0  0  0  0
  144.9663   68.8132  219.9679 H   0  0  0  0  0  0  0  0  0  0  0  0
  143.4742   70.5693  220.5254 H   0  0  0  0  0  0  0  0  0  0  0  0
  144.7994   71.7289  220.8211 H   0  0  0  0  0  0  0  0  0  0  0  0
  142.8688   77.0139  220.1737 H   0  0  0  0  0  0  0  0  0  0  0  0
  141.4051   76.6903  219.1683 H   0  0  0  0  0  0  0  0  0  0  0  0
  141.9622   79.1335  219.4418 H   0  0  0  0  0  0  0  0  0  0  0  0
  140.3176   78.6800  219.9911 H   0  0  0  0  0  0  0  0  0  0  0  0
  142.7969   80.8376  220.9660 H   0  0  0  0  0  0  0  0  0  0  0  0
  143.1987   81.4894  223.3246 H   0  0  0  0  0  0  0  0  0  0  0  0
  142.3579   80.1375  225.2044 H   0  0  0  0  0  0  0  0  0  0  0  0
  141.0650   78.0387  224.7468 H   0  0  0  0  0  0  0  0  0  0  0  0
  140.3839   76.4377  223.1340 H   0  0  0  0  0  0  0  0  0  0  0  0
  139.4762   77.3675  221.8936 H   0  0  0  0  0  0  0  0  0  0  0  0
  1  2  2  0
  2  3  1  0
  3  4  1  0
  4  5  1  0
  5  6  1  0
  6  7  1  0
  7  8  1  0
  8  9  1  0
  9 10  1  0
  2 11  1  0
 11 12  2  0
 12 13  1  0
 13 14  1  0
 14 15  1  0
 15 16  1  0
 16 17  1  0
 17 18  2  0
 18 19  1  0
 19 20  2  0
 20 21  1  0
 21 22  2  0
 22 23  1  0
 13 24  2  0
 24 25  1  0
 25 26  1  0
 26 27  1  0
 27 28  1  0
 28 29  1  0
 29 30  2  0
 30 31  1  0
 31 32  2  0
 32 33  1  0
 33 34  2  0
 34 35  1  0
 25 36  2  0
 10  5  1  0
 36 11  1  0
 23 14  1  0
 35 26  1  0
 22 17  1  0
 34 29  1  0
  3 37  1  0
  4 38  1  0
  4 39  1  0
  5 40  1  6
  6 41  1  0
  6 42  1  0
  7 43  1  0
  7 44  1  0
  8 45  1  0
  8 46  1  0
  9 47  1  0
 10 48  1  0
 10 49  1  0
 15 50  1  0
 15 51  1  0
 16 52  1  0
 16 53  1  0
 18 54  1  0
 19 55  1  0
 20 56  1  0
 21 57  1  0
 23 58  1  0
 23 59  1  0
 27 60  1  0
 27 61  1  0
 28 62  1  0
 28 63  1  0
 30 64  1  0
 31 65  1  0
 32 66  1  0
 33 67  1  0
 35 68  1  0
 35 69  1  0
M  END
>  <smiles>  (93) 
O=C(NCC1CCCNC1)c1nc(N2CCc3ccccc3C2)nc(N2CCc3ccccc3C2)n1

>  <score_type>  (93) 
oracle

>  <origin>  (93) 
autodockgpu

>  <m_score__min__energy>  (93) 
-10.369999999999999

>  <m_primary>  (93) 
energy

>  <rmsd>  (93) 
9.32033234537827

>  <m_score__min__rmsd>  (93) 
9.32033234537827

>  <meeko>  (93) 
{"free_energy": -10.35, "intermolecular_energy": -11.84, "internal_energy": -0.94, "cluster_size": 35, "cluster_id": 1, "rank_in_cluster": 3}

>  <energy>  (93) 
-9.31

>  <cluster_rmsd>  (93) 
1.35

>  <cluster>  (93) 
3

$$$$

     RDKit          3D

 69 74  0  0  0  0  0  0  0  0999 V2000
  139.8580   75.5800  220.2570 O   0  0  0  0  0  0  0  0  0  0  0  0
  139.6380   74.9560  221.3460 C   0  0  0  0  0  0  0  0  0  0  0  0
  138.8800   75.6620  222.3230 N   0  0  0  0  0  0  0  0  0  0  0  0
  138.4480   77.0000  221.9750 C   0  0  0  0  0  0  0  0  0  0  0  0
  139.5580   78.0280  222.0990 C   0  0  1  0  0  0  0  0  0  0  0  0
  138.9920   79.1540  222.9260 C   0  0  0  0  0  0  0  0  0  0  0  0
  139.9840   79.7950  223.8520 C   0  0  0  0  0  0  0  0  0  0  0  0
  141.3450   79.6570  223.1660 C   0  0  0  0  0  0  0  0  0  0  0  0
  141.7140   78.2800  223.2650 N   0  0  0  0  0  0  0  0  0  0  0  0
  140.7410   77.3640  222.7450 C   0  0  0  0  0  0  0  0  0  0  0  0
  140.1180   73.6120  221.5930 C   0  0  0  0  0  0  0  0  0  0  0  0
  140.0190   73.0150  222.7940 N   0  0  0  0  0  0  0  0  0  0  0  0
  140.4910   71.7580  222.9490 C   0  0  0  0  0  0  0  0  0  0  0  0
  140.3790   71.1310  224.2350 N   0  0  0  0  0  0  0  0  0  0  0  0
  141.1540   71.6770  225.3080 C   0  0  0  0  0  0  0  0  0  0  0  0
  140.3010   71.6100  226.5810 C   0  0  0  0  0  0  0  0  0  0  0  0
  140.0500   70.1530  226.8050 C   0  0  0  0  0  0  0  0  0  0  0  0
  140.2040   69.5830  228.0690 C   0  0  0  0  0  0  0  0  0  0  0  0
  139.9480   68.2280  228.1730 C   0  0  0  0  0  0  0  0  0  0  0  0
  139.5590   67.4490  227.1050 C   0  0  0  0  0  0  0  0  0  0  0  0
  139.4140   68.0480  225.8590 C   0  0  0  0  0  0  0  0  0  0  0  0
  139.6630   69.4140  225.7080 C   0  0  0  0  0  0  0  0  0  0  0  0
  139.4910   69.9950  224.3500 C   0  0  0  0  0  0  0  0  0  0  0  0
  141.0510   71.1300  221.8930 N   0  0  0  0  0  0  0  0  0  0  0  0
  141.1620   71.7070  220.6820 C   0  0  0  0  0  0  0  0  0  0  0  0
  141.7650   70.9810  219.6260 N   0  0  0  0  0  0  0  0  0  0  0  0
  140.9410   70.2320  218.7260 C   0  0  0  0  0  0  0  0  0  0  0  0
  141.7630   69.6750  217.5880 C   0  0  0  0  0  0  0  0  0  0  0  0
  142.9230   68.9390  218.1480 C   0  0  0  0  0  0  0  0  0  0  0  0
  143.2780   67.6740  217.7780 C   0  0  0  0  0  0  0  0  0  0  0  0
  144.3850   67.1140  218.3870 C   0  0  0  0  0  0  0  0  0  0  0  0
  145.1300   67.7820  219.3390 C   0  0  0  0  0  0  0  0  0  0  0  0
  144.7700   69.0650  219.7140 C   0  0  0  0  0  0  0  0  0  0  0  0
  143.6730   69.6160  219.1100 C   0  0  0  0  0  0  0  0  0  0  0  0
  143.2080   70.9880  219.4460 C   0  0  0  0  0  0  0  0  0  0  0  0
  140.6870   72.9590  220.5480 N   0  0  0  0  0  0  0  0  0  0  0  0
  138.6530   75.2340  223.2370 H   0  0  0  0  0  0  0  0  0  0  0  0
  138.0892   76.9941  220.9352 H   0  0  0  0  0  0  0  0  0  0  0  0
  137.6529   77.2848  222.6797 H   0  0  0  0  0  0  0  0  0  0  0  0
  139.9017   78.4285  221.1339 H   0  0  0  0  0  0  0  0  0  0  0  0
  138.6094   79.9260  222.2421 H   0  0  0  0  0  0  0  0  0  0  0  0
  138.2049   78.7175  223.5584 H   0  0  0  0  0  0  0  0  0  0  0  0
  139.7369   80.8562  224.0027 H   0  0  0  0  0  0  0  0  0  0  0  0
  139.9800   79.3173  224.8429 H   0  0  0  0  0  0  0  0  0  0  0  0
  141.2696   79.9548  222.1098 H   0  0  0  0  0  0  0  0  0  0  0  0
  142.0965   80.3044  223.6415 H   0  0  0  0  0  0  0  0  0  0  0  0
  142.6990   78.0810  222.9890 H   0  0  0  0  0  0  0  0  0  0  0  0
  141.2323   76.7272  221.9946 H   0  0  0  0  0  0  0  0  0  0  0  0
  140.3552   76.7909  223.6010 H   0  0  0  0  0  0  0  0  0  0  0  0
  142.0741   71.0893  225.4423 H   0  0  0  0  0  0  0  0  0  0  0  0
  141.4369   72.7170  225.0883 H   0  0  0  0  0  0  0  0  0  0  0  0
  140.8444   72.0438  227.4333 H   0  0  0  0  0  0  0  0  0  0  0  0
  139.3649   72.1790  226.4805 H   0  0  0  0  0  0  0  0  0  0  0  0
  140.5134   70.1811  228.9388 H   0  0  0  0  0  0  0  0  0  0  0  0
  140.0604   67.7485  229.1566 H   0  0  0  0  0  0  0  0  0  0  0  0
  139.3669   66.3738  227.2359 H   0  0  0  0  0  0  0  0  0  0  0  0
  139.1032   67.4463  224.9922 H   0  0  0  0  0  0  0  0  0  0  0  0
  139.7449   69.2439  223.5875 H   0  0  0  0  0  0  0  0  0  0  0  0
  138.4476   70.3081  224.1973 H   0  0  0  0  0  0  0  0  0  0  0  0
  140.4715   69.4010  219.2729 H   0  0  0  0  0  0  0  0  0  0  0  0
  140.1710   70.8999  218.3124 H   0  0  0  0  0  0  0  0  0  0  0  0
  141.1461   68.9901  216.9876 H   0  0  0  0  0  0  0  0  0  0  0  0
  142.1168   70.4961  216.9472 H   0  0  0  0  0  0  0  0  0  0  0  0
  142.7031   67.1197  217.0216 H   0  0  0  0  0  0  0  0  0  0  0  0
  144.6850   66.0948  218.1019 H   0  0  0  0  0  0  0  0  0  0  0  0
  146.0048   67.2971  219.7968 H   0  0  0  0  0  0  0  0  0  0  0  0
  145.3446   69.6209  220.4696 H   0  0  0  0  0  0  0  0  0  0  0  0
  143.6918   71.3215  220.3759 H   0  0  0  0  0  0  0  0  0  0  0  0
  143.4719   71.6748  218.6283 H   0  0  0  0  0  0  0  0  0  0  0  0
  1  2  2  0
  2  3  1  0
  3  4  1  0
  4  5  1  0
  5  6  1  0
  6  7  1  0
  7  8  1  0
  8  9  1  0
  9 10  1  0
  2 11  1  0
 11 12  2  0
 12 13  1  0
 13 14  1  0
 14 15  1  0
 15 16  1  0
 16 17  1  0
 17 18  2  0
 18 19  1  0
 19 20  2  0
 20 21  1  0
 21 22  2  0
 22 23  1  0
 13 24  2  0
 24 25  1  0
 25 26  1  0
 26 27  1  0
 27 28  1  0
 28 29  1  0
 29 30  2  0
 30 31  1  0
 31 32  2  0
 32 33  1  0
 33 34  2  0
 34 35  1  0
 25 36  2  0
 10  5  1  0
 36 11  1  0
 23 14  1  0
 35 26  1  0
 22 17  1  0
 34 29  1  0
  3 37  1  0
  4 38  1  0
  4 39  1  0
  5 40  1  6
  6 41  1  0
  6 42  1  0
  7 43  1  0
  7 44  1  0
  8 45  1  0
  8 46  1  0
  9 47  1  0
 10 48  1  0
 10 49  1  0
 15 50  1  0
 15 51  1  0
 16 52  1  0
 16 53  1  0
 18 54  1  0
 19 55  1  0
 20 56  1  0
 21 57  1  0
 23 58  1  0
 23 59  1  0
 27 60  1  0
 27 61  1  0
 28 62  1  0
 28 63  1  0
 30 64  1  0
 31 65  1  0
 32 66  1  0
 33 67  1  0
 35 68  1  0
 35 69  1  0
M  END
>  <smiles>  (94) 
O=C(NCC1CCCNC1)c1nc(N2CCc3ccccc3C2)nc(N2CCc3ccccc3C2)n1

>  <score_type>  (94) 
oracle

>  <origin>  (94) 
autodockgpu

>  <m_score__min__energy>  (94) 
-10.369999999999999

>  <m_primary>  (94) 
energy

>  <rmsd>  (94) 
3.903257151928256

>  <m_score__min__rmsd>  (94) 
3.903257151928256

>  <meeko>  (94) 
{"free_energy": -9.31, "intermolecular_energy": -10.8, "internal_energy": -1.07, "cluster_size": 7, "cluster_id": 3, "rank_in_cluster": 4}

>  <energy>  (94) 
-9.03

>  <cluster_rmsd>  (94) 
0.92

>  <cluster>  (94) 
3

$$$$

     RDKit          3D

 69 74  0  0  0  0  0  0  0  0999 V2000
  138.9410   76.2150  222.6010 O   0  0  0  0  0  0  0  0  0  0  0  0
  139.6840   75.7410  221.6800 C   0  0  0  0  0  0  0  0  0  0  0  0
  139.9960   76.6330  220.6150 N   0  0  0  0  0  0  0  0  0  0  0  0
  139.4400   77.9670  220.6940 C   0  0  0  0  0  0  0  0  0  0  0  0
  140.4550   79.0030  221.1460 C   0  0  1  0  0  0  0  0  0  0  0  0
  139.7920   79.7770  222.2570 C   0  0  0  0  0  0  0  0  0  0  0  0
  140.7250   80.1940  223.3560 C   0  0  0  0  0  0  0  0  0  0  0  0
  142.0920   80.3850  222.6950 C   0  0  0  0  0  0  0  0  0  0  0  0
  142.5820   79.0780  222.3870 N   0  0  0  0  0  0  0  0  0  0  0  0
  141.6930   78.2800  221.5940 C   0  0  0  0  0  0  0  0  0  0  0  0
  140.1900   74.3850  221.6980 C   0  0  0  0  0  0  0  0  0  0  0  0
  139.9630   73.5370  222.7180 N   0  0  0  0  0  0  0  0  0  0  0  0
  140.4690   72.2850  222.6640 C   0  0  0  0  0  0  0  0  0  0  0  0
  140.2190   71.3910  223.7570 N   0  0  0  0  0  0  0  0  0  0  0  0
  139.1310   70.4690  223.6230 C   0  0  0  0  0  0  0  0  0  0  0  0
  139.5640   69.1420  224.2610 C   0  0  0  0  0  0  0  0  0  0  0  0
  139.8040   69.4620  225.7010 C   0  0  0  0  0  0  0  0  0  0  0  0
  139.3040   68.6420  226.7130 C   0  0  0  0  0  0  0  0  0  0  0  0
  139.5810   69.0240  228.0130 C   0  0  0  0  0  0  0  0  0  0  0  0
  140.3100   70.1490  228.3310 C   0  0  0  0  0  0  0  0  0  0  0  0
  140.7940   70.9450  227.2990 C   0  0  0  0  0  0  0  0  0  0  0  0
  140.5380   70.5980  225.9700 C   0  0  0  0  0  0  0  0  0  0  0  0
  141.0830   71.4890  224.9130 C   0  0  0  0  0  0  0  0  0  0  0  0
  141.1920   71.9130  221.5850 N   0  0  0  0  0  0  0  0  0  0  0  0
  141.4330   72.7430  220.5530 C   0  0  0  0  0  0  0  0  0  0  0  0
  142.2020   72.2750  219.4590 N   0  0  0  0  0  0  0  0  0  0  0  0
  141.6000   71.4060  218.4960 C   0  0  0  0  0  0  0  0  0  0  0  0
  142.5370   71.1640  217.3360 C   0  0  0  0  0  0  0  0  0  0  0  0
  143.8490   70.7160  217.8630 C   0  0  0  0  0  0  0  0  0  0  0  0
  144.5200   69.6160  217.4120 C   0  0  0  0  0  0  0  0  0  0  0  0
  145.7350   69.3200  217.9990 C   0  0  0  0  0  0  0  0  0  0  0  0
  146.2820   70.0880  219.0090 C   0  0  0  0  0  0  0  0  0  0  0  0
  145.6020   71.2030  219.4660 C   0  0  0  0  0  0  0  0  0  0  0  0
  144.3990   71.4930  218.8820 C   0  0  0  0  0  0  0  0  0  0  0  0
  143.5940   72.6700  219.3050 C   0  0  0  0  0  0  0  0  0  0  0  0
  140.9220   73.9850  220.6260 N   0  0  0  0  0  0  0  0  0  0  0  0
  140.5930   76.3350  219.8250 H   0  0  0  0  0  0  0  0  0  0  0  0
  139.0669   78.2515  219.6991 H   0  0  0  0  0  0  0  0  0  0  0  0
  138.6337   77.9456  221.4420 H   0  0  0  0  0  0  0  0  0  0  0  0
  140.7600   79.7017  220.3530 H   0  0  0  0  0  0  0  0  0  0  0  0
  139.3405   80.6824  221.8253 H   0  0  0  0  0  0  0  0  0  0  0  0
  139.0481   79.1056  222.7107 H   0  0  0  0  0  0  0  0  0  0  0  0
  140.3845   81.1362  223.8102 H   0  0  0  0  0  0  0  0  0  0  0  0
  140.7656   79.4427  224.1584 H   0  0  0  0  0  0  0  0  0  0  0  0
  141.9891   80.9786  221.7746 H   0  0  0  0  0  0  0  0  0  0  0  0
  142.7836   80.9215  223.3612 H   0  0  0  0  0  0  0  0  0  0  0  0
  143.5800   79.0550  222.0900 H   0  0  0  0  0  0  0  0  0  0  0  0
  142.2374   77.9407  220.7004 H   0  0  0  0  0  0  0  0  0  0  0  0
  141.3610   77.4468  222.2309 H   0  0  0  0  0  0  0  0  0  0  0  0
  138.2421   70.8606  224.1392 H   0  0  0  0  0  0  0  0  0  0  0  0
  138.8779   70.3226  222.5626 H   0  0  0  0  0  0  0  0  0  0  0  0
  138.7696   68.3878  224.1603 H   0  0  0  0  0  0  0  0  0  0  0  0
  140.4593   68.7248  223.7769 H   0  0  0  0  0  0  0  0  0  0  0  0
  138.7193   67.7378  226.4883 H   0  0  0  0  0  0  0  0  0  0  0  0
  139.2003   68.3985  228.8339 H   0  0  0  0  0  0  0  0  0  0  0  0
  140.5053   70.4123  229.3810 H   0  0  0  0  0  0  0  0  0  0  0  0
  141.3786   71.8480  227.5288 H   0  0  0  0  0  0  0  0  0  0  0  0
  141.1057   72.5274  225.2752 H   0  0  0  0  0  0  0  0  0  0  0  0
  142.1081   71.1884  224.6507 H   0  0  0  0  0  0  0  0  0  0  0  0
  141.3630   70.4447  218.9754 H   0  0  0  0  0  0  0  0  0  0  0  0
  140.6825   71.8797  218.1168 H   0  0  0  0  0  0  0  0  0  0  0  0
  142.1183   70.3873  216.6791 H   0  0  0  0  0  0  0  0  0  0  0  0
  142.6643   72.0925  216.7600 H   0  0  0  0  0  0  0  0  0  0  0  0
  144.1076   68.9872  216.6092 H   0  0  0  0  0  0  0  0  0  0  0  0
  146.2895   68.4371  217.6481 H   0  0  0  0  0  0  0  0  0  0  0  0
  147.2530   69.8144  219.4475 H   0  0  0  0  0  0  0  0  0  0  0  0
  146.0131   71.8327  220.2688 H   0  0  0  0  0  0  0  0  0  0  0  0
  143.9757   73.0498  220.2642 H   0  0  0  0  0  0  0  0  0  0  0  0
  143.6692   73.4591  218.5423 H   0  0  0  0  0  0  0  0  0  0  0  0
  1  2  2  0
  2  3  1  0
  3  4  1  0
  4  5  1  0
  5  6  1  0
  6  7  1  0
  7  8  1  0
  8  9  1  0
  9 10  1  0
  2 11  1  0
 11 12  2  0
 12 13  1  0
 13 14  1  0
 14 15  1  0
 15 16  1  0
 16 17  1  0
 17 18  2  0
 18 19  1  0
 19 20  2  0
 20 21  1  0
 21 22  2  0
 22 23  1  0
 13 24  2  0
 24 25  1  0
 25 26  1  0
 26 27  1  0
 27 28  1  0
 28 29  1  0
 29 30  2  0
 30 31  1  0
 31 32  2  0
 32 33  1  0
 33 34  2  0
 34 35  1  0
 25 36  2  0
 10  5  1  0
 36 11  1  0
 23 14  1  0
 35 26  1  0
 22 17  1  0
 34 29  1  0
  3 37  1  0
  4 38  1  0
  4 39  1  0
  5 40  1  6
  6 41  1  0
  6 42  1  0
  7 43  1  0
  7 44  1  0
  8 45  1  0
  8 46  1  0
  9 47  1  0
 10 48  1  0
 10 49  1  0
 15 50  1  0
 15 51  1  0
 16 52  1  0
 16 53  1  0
 18 54  1  0
 19 55  1  0
 20 56  1  0
 21 57  1  0
 23 58  1  0
 23 59  1  0
 27 60  1  0
 27 61  1  0
 28 62  1  0
 28 63  1  0
 30 64  1  0
 31 65  1  0
 32 66  1  0
 33 67  1  0
 35 68  1  0
 35 69  1  0
M  END
>  <smiles>  (95) 
O=C(NCC1CCCNC1)c1nc(N2CCc3ccccc3C2)nc(N2CCc3ccccc3C2)n1

>  <score_type>  (95) 
oracle

>  <origin>  (95) 
autodockgpu

>  <m_score__min__energy>  (95) 
-10.369999999999999

>  <m_primary>  (95) 
energy

>  <rmsd>  (95) 
3.7293265154874677

>  <m_score__min__rmsd>  (95) 
3.7293265154874677

>  <meeko>  (95) 
{"free_energy": -8.96, "intermolecular_energy": -10.45, "internal_energy": -1.32, "cluster_size": 7, "cluster_id": 3, "rank_in_cluster": 6}

>  <energy>  (95) 
-8.96

>  <cluster_rmsd>  (95) 
1.43

>  <cluster>  (95) 
3

$$$$

     RDKit          3D

 69 74  0  0  0  0  0  0  0  0999 V2000
  138.6390   71.8800  222.7690 O   0  0  0  0  0  0  0  0  0  0  0  0
  139.8920   72.0500  222.9290 C   0  0  0  0  0  0  0  0  0  0  0  0
  140.4630   71.4160  224.0690 N   0  0  0  0  0  0  0  0  0  0  0  0
  139.5650   70.6550  224.9130 C   0  0  0  0  0  0  0  0  0  0  0  0
  140.2970   69.6940  225.8340 C   0  0  1  0  0  0  0  0  0  0  0  0
  140.5040   70.4350  227.1300 C   0  0  0  0  0  0  0  0  0  0  0  0
  140.3950   69.5750  228.3540 C   0  0  0  0  0  0  0  0  0  0  0  0
  140.8560   68.1800  227.9270 C   0  0  0  0  0  0  0  0  0  0  0  0
  139.8170   67.6400  227.1080 N   0  0  0  0  0  0  0  0  0  0  0  0
  139.4490   68.4640  225.9930 C   0  0  0  0  0  0  0  0  0  0  0  0
  140.7010   72.8330  222.0190 C   0  0  0  0  0  0  0  0  0  0  0  0
  141.6030   72.2800  221.1880 N   0  0  0  0  0  0  0  0  0  0  0  0
  142.3230   73.0770  220.3680 C   0  0  0  0  0  0  0  0  0  0  0  0
  143.2810   72.4750  219.4860 N   0  0  0  0  0  0  0  0  0  0  0  0
  143.3370   72.9590  218.1390 C   0  0  0  0  0  0  0  0  0  0  0  0
  144.8110   72.9790  217.7130 C   0  0  0  0  0  0  0  0  0  0  0  0
  145.2540   71.5530  217.7750 C   0  0  0  0  0  0  0  0  0  0  0  0
  145.9910   70.9830  216.7360 C   0  0  0  0  0  0  0  0  0  0  0  0
  146.3540   69.6560  216.8890 C   0  0  0  0  0  0  0  0  0  0  0  0
  146.0220   68.9060  217.9960 C   0  0  0  0  0  0  0  0  0  0  0  0
  145.2880   69.5040  219.0140 C   0  0  0  0  0  0  0  0  0  0  0  0
  144.9000   70.8410  218.9020 C   0  0  0  0  0  0  0  0  0  0  0  0
  144.1170   71.4230  220.0230 C   0  0  0  0  0  0  0  0  0  0  0  0
  142.1200   74.4110  220.4010 N   0  0  0  0  0  0  0  0  0  0  0  0
  141.2250   74.9880  221.2240 C   0  0  0  0  0  0  0  0  0  0  0  0
  141.0740   76.3960  221.1990 N   0  0  0  0  0  0  0  0  0  0  0  0
  141.5360   77.1340  220.0630 C   0  0  0  0  0  0  0  0  0  0  0  0
  141.1300   78.5850  220.1680 C   0  0  0  0  0  0  0  0  0  0  0  0
  141.5620   79.1110  221.4850 C   0  0  0  0  0  0  0  0  0  0  0  0
  142.2620   80.2720  221.6550 C   0  0  0  0  0  0  0  0  0  0  0  0
  142.5970   80.6370  222.9440 C   0  0  0  0  0  0  0  0  0  0  0  0
  142.2520   79.8790  224.0470 C   0  0  0  0  0  0  0  0  0  0  0  0
  141.5440   78.7030  223.8760 C   0  0  0  0  0  0  0  0  0  0  0  0
  141.2140   78.3440  222.5970 C   0  0  0  0  0  0  0  0  0  0  0  0
  140.4540   77.0990  222.3110 C   0  0  0  0  0  0  0  0  0  0  0  0
  140.5180   74.1790  222.0340 N   0  0  0  0  0  0  0  0  0  0  0  0
  141.4720   71.4980  224.2780 H   0  0  0  0  0  0  0  0  0  0  0  0
  138.9818   71.3561  225.5281 H   0  0  0  0  0  0  0  0  0  0  0  0
  138.9190   70.0559  224.2544 H   0  0  0  0  0  0  0  0  0  0  0  0
  141.2733   69.3658  225.4479 H   0  0  0  0  0  0  0  0  0  0  0  0
  141.5073   70.8857  227.1133 H   0  0  0  0  0  0  0  0  0  0  0  0
  139.7014   71.1842  227.1975 H   0  0  0  0  0  0  0  0  0  0  0  0
  141.0421   69.9639  229.1540 H   0  0  0  0  0  0  0  0  0  0  0  0
  139.3676   69.5588  228.7468 H   0  0  0  0  0  0  0  0  0  0  0  0
  141.7932   68.2484  227.3552 H   0  0  0  0  0  0  0  0  0  0  0  0
  141.0455   67.5398  228.8012 H   0  0  0  0  0  0  0  0  0  0  0  0
  139.9270   66.6270  226.8910 H   0  0  0  0  0  0  0  0  0  0  0  0
  139.5361   67.8632  225.0757 H   0  0  0  0  0  0  0  0  0  0  0  0
  138.4210   68.8088  226.1785 H   0  0  0  0  0  0  0  0  0  0  0  0
  142.7645   72.2926  217.4771 H   0  0  0  0  0  0  0  0  0  0  0  0
  142.9025   73.9674  218.0729 H   0  0  0  0  0  0  0  0  0  0  0  0
  144.9120   73.3705  216.6900 H   0  0  0  0  0  0  0  0  0  0  0  0
  145.4184   73.6277  218.3613 H   0  0  0  0  0  0  0  0  0  0  0  0
  146.2693   71.5589  215.8410 H   0  0  0  0  0  0  0  0  0  0  0  0
  146.9359   69.1770  216.0878 H   0  0  0  0  0  0  0  0  0  0  0  0
  146.3320   67.8534  218.0729 H   0  0  0  0  0  0  0  0  0  0  0  0
  145.0129   68.9243  219.9075 H   0  0  0  0  0  0  0  0  0  0  0  0
  143.4893   70.6456  220.4830 H   0  0  0  0  0  0  0  0  0  0  0  0
  144.7924   71.8266  220.7917 H   0  0  0  0  0  0  0  0  0  0  0  0
  142.6329   77.0687  220.0117 H   0  0  0  0  0  0  0  0  0  0  0  0
  141.0854   76.7054  219.1557 H   0  0  0  0  0  0  0  0  0  0  0  0
  141.6109   79.1620  219.3643 H   0  0  0  0  0  0  0  0  0  0  0  0
  140.0379   78.6741  220.0714 H   0  0  0  0  0  0  0  0  0  0  0  0
  142.5488   80.8946  220.7947 H   0  0  0  0  0  0  0  0  0  0  0  0
  143.1611   81.5685  223.0991 H   0  0  0  0  0  0  0  0  0  0  0  0
  142.5391   80.2094  225.0562 H   0  0  0  0  0  0  0  0  0  0  0  0
  141.2569   78.0797  224.7357 H   0  0  0  0  0  0  0  0  0  0  0  0
  140.4597   76.4534  223.2016 H   0  0  0  0  0  0  0  0  0  0  0  0
  139.4166   77.3550  222.0497 H   0  0  0  0  0  0  0  0  0  0  0  0
  1  2  2  0
  2  3  1  0
  3  4  1  0
  4  5  1  0
  5  6  1  0
  6  7  1  0
  7  8  1  0
  8  9  1  0
  9 10  1  0
  2 11  1  0
 11 12  2  0
 12 13  1  0
 13 14  1  0
 14 15  1  0
 15 16  1  0
 16 17  1  0
 17 18  2  0
 18 19  1  0
 19 20  2  0
 20 21  1  0
 21 22  2  0
 22 23  1  0
 13 24  2  0
 24 25  1  0
 25 26  1  0
 26 27  1  0
 27 28  1  0
 28 29  1  0
 29 30  2  0
 30 31  1  0
 31 32  2  0
 32 33  1  0
 33 34  2  0
 34 35  1  0
 25 36  2  0
 10  5  1  0
 36 11  1  0
 23 14  1  0
 35 26  1  0
 22 17  1  0
 34 29  1  0
  3 37  1  0
  4 38  1  0
  4 39  1  0
  5 40  1  6
  6 41  1  0
  6 42  1  0
  7 43  1  0
  7 44  1  0
  8 45  1  0
  8 46  1  0
  9 47  1  0
 10 48  1  0
 10 49  1  0
 15 50  1  0
 15 51  1  0
 16 52  1  0
 16 53  1  0
 18 54  1  0
 19 55  1  0
 20 56  1  0
 21 57  1  0
 23 58  1  0
 23 59  1  0
 27 60  1  0
 27 61  1  0
 28 62  1  0
 28 63  1  0
 30 64  1  0
 31 65  1  0
 32 66  1  0
 33 67  1  0
 35 68  1  0
 35 69  1  0
M  END
>  <smiles>  (96) 
O=C(NCC1CCCNC1)c1nc(N2CCc3ccccc3C2)nc(N2CCc3ccccc3C2)n1

>  <score_type>  (96) 
oracle

>  <origin>  (96) 
autodockgpu

>  <m_score__min__energy>  (96) 
-10.369999999999999

>  <m_primary>  (96) 
energy

>  <rmsd>  (96) 
9.353876185894167

>  <m_score__min__rmsd>  (96) 
9.353876185894167

>  <meeko>  (96) 
{"free_energy": -10.35, "intermolecular_energy": -11.84, "internal_energy": -0.92, "cluster_size": 35, "cluster_id": 1, "rank_in_cluster": 4}

>  <energy>  (96) 
-8.91

>  <cluster_rmsd>  (96) 
1.43

>  <cluster>  (96) 
3

$$$$

     RDKit          3D

 69 74  0  0  0  0  0  0  0  0999 V2000
  139.3930   70.8070  221.9070 O   0  0  0  0  0  0  0  0  0  0  0  0
  139.9420   71.7120  222.6170 C   0  0  0  0  0  0  0  0  0  0  0  0
  139.9360   71.4860  224.0230 N   0  0  0  0  0  0  0  0  0  0  0  0
  139.3120   70.2640  224.4870 C   0  0  0  0  0  0  0  0  0  0  0  0
  140.1430   69.5390  225.5310 C   0  0  1  0  0  0  0  0  0  0  0  0
  140.3890   70.5370  226.6330 C   0  0  0  0  0  0  0  0  0  0  0  0
  140.3950   69.9420  228.0110 C   0  0  0  0  0  0  0  0  0  0  0  0
  140.8990   68.5070  227.8440 C   0  0  0  0  0  0  0  0  0  0  0  0
  139.8420   67.7730  227.2230 N   0  0  0  0  0  0  0  0  0  0  0  0
  139.3690   68.3370  225.9920 C   0  0  0  0  0  0  0  0  0  0  0  0
  140.5400   72.9030  222.0500 C   0  0  0  0  0  0  0  0  0  0  0  0
  140.1040   74.1430  222.3370 N   0  0  0  0  0  0  0  0  0  0  0  0
  140.7120   75.2070  221.7670 C   0  0  0  0  0  0  0  0  0  0  0  0
  140.2380   76.5230  222.0810 N   0  0  0  0  0  0  0  0  0  0  0  0
  138.9280   76.8820  221.6260 C   0  0  0  0  0  0  0  0  0  0  0  0
  138.2710   77.7320  222.7220 C   0  0  0  0  0  0  0  0  0  0  0  0
  139.1340   78.9470  222.8420 C   0  0  0  0  0  0  0  0  0  0  0  0
  138.5740   80.2230  222.9010 C   0  0  0  0  0  0  0  0  0  0  0  0
  139.4560   81.2830  223.0120 C   0  0  0  0  0  0  0  0  0  0  0  0
  140.8240   81.1230  223.0660 C   0  0  0  0  0  0  0  0  0  0  0  0
  141.3500   79.8380  223.0060 C   0  0  0  0  0  0  0  0  0  0  0  0
  140.4960   78.7380  222.8930 C   0  0  0  0  0  0  0  0  0  0  0  0
  141.1190   77.3910  222.8320 C   0  0  0  0  0  0  0  0  0  0  0  0
  141.7460   75.0000  220.9230 N   0  0  0  0  0  0  0  0  0  0  0  0
  142.2000   73.7690  220.6200 C   0  0  0  0  0  0  0  0  0  0  0  0
  143.2890   73.6380  219.7240 N   0  0  0  0  0  0  0  0  0  0  0  0
  143.1610   74.1240  218.3840 C   0  0  0  0  0  0  0  0  0  0  0  0
  144.4820   74.0360  217.6560 C   0  0  0  0  0  0  0  0  0  0  0  0
  145.0100   72.6560  217.7840 C   0  0  0  0  0  0  0  0  0  0  0  0
  145.4540   71.9060  216.7320 C   0  0  0  0  0  0  0  0  0  0  0  0
  145.9190   70.6330  217.0030 C   0  0  0  0  0  0  0  0  0  0  0  0
  145.9480   70.1060  218.2800 C   0  0  0  0  0  0  0  0  0  0  0  0
  145.4980   70.8660  219.3450 C   0  0  0  0  0  0  0  0  0  0  0  0
  145.0380   72.1260  219.0740 C   0  0  0  0  0  0  0  0  0  0  0  0
  144.5330   73.0180  220.1510 C   0  0  0  0  0  0  0  0  0  0  0  0
  141.5810   72.7230  221.1960 N   0  0  0  0  0  0  0  0  0  0  0  0
  140.3580   72.1670  224.6770 H   0  0  0  0  0  0  0  0  0  0  0  0
  138.3349   70.5132  224.9265 H   0  0  0  0  0  0  0  0  0  0  0  0
  139.2106   69.5940  223.6205 H   0  0  0  0  0  0  0  0  0  0  0  0
  141.1098   69.1740  225.1540 H   0  0  0  0  0  0  0  0  0  0  0  0
  141.3660   71.0110  226.4575 H   0  0  0  0  0  0  0  0  0  0  0  0
  139.5558   71.2545  226.6018 H   0  0  0  0  0  0  0  0  0  0  0  0
  141.0679   70.5099  228.6704 H   0  0  0  0  0  0  0  0  0  0  0  0
  139.3946   69.9689  228.4677 H   0  0  0  0  0  0  0  0  0  0  0  0
  141.7965   68.4915  227.2081 H   0  0  0  0  0  0  0  0  0  0  0  0
  141.1711   68.0665  228.8145 H   0  0  0  0  0  0  0  0  0  0  0  0
  139.9890   66.7410  227.2080 H   0  0  0  0  0  0  0  0  0  0  0  0
  139.4327   67.5648  225.2112 H   0  0  0  0  0  0  0  0  0  0  0  0
  138.3377   68.6740  226.1730 H   0  0  0  0  0  0  0  0  0  0  0  0
  139.0008   77.4626  220.6945 H   0  0  0  0  0  0  0  0  0  0  0  0
  138.3291   75.9814  221.4255 H   0  0  0  0  0  0  0  0  0  0  0  0
  137.2476   78.0123  222.4320 H   0  0  0  0  0  0  0  0  0  0  0  0
  138.1915   77.1871  223.6742 H   0  0  0  0  0  0  0  0  0  0  0  0
  137.4858   80.3787  222.8613 H   0  0  0  0  0  0  0  0  0  0  0  0
  139.0459   82.3026  223.0594 H   0  0  0  0  0  0  0  0  0  0  0  0
  141.4871   81.9962  223.1549 H   0  0  0  0  0  0  0  0  0  0  0  0
  142.4388   79.6870  223.0475 H   0  0  0  0  0  0  0  0  0  0  0  0
  142.0963   77.4543  222.3311 H   0  0  0  0  0  0  0  0  0  0  0  0
  141.2711   76.9947  223.8468 H   0  0  0  0  0  0  0  0  0  0  0  0
  142.4134   73.5189  217.8502 H   0  0  0  0  0  0  0  0  0  0  0  0
  142.8453   75.1772  218.4182 H   0  0  0  0  0  0  0  0  0  0  0  0
  144.3347   74.2779  216.5931 H   0  0  0  0  0  0  0  0  0  0  0  0
  145.1961   74.7502  218.0919 H   0  0  0  0  0  0  0  0  0  0  0  0
  145.4418   72.3013  215.7055 H   0  0  0  0  0  0  0  0  0  0  0  0
  146.2806   70.0144  216.1684 H   0  0  0  0  0  0  0  0  0  0  0  0
  146.3270   69.0873  218.4490 H   0  0  0  0  0  0  0  0  0  0  0  0
  145.5096   70.4718  220.3719 H   0  0  0  0  0  0  0  0  0  0  0  0
  144.3547   72.4280  221.0621 H   0  0  0  0  0  0  0  0  0  0  0  0
  145.2789   73.7990  220.3598 H   0  0  0  0  0  0  0  0  0  0  0  0
  1  2  2  0
  2  3  1  0
  3  4  1  0
  4  5  1  0
  5  6  1  0
  6  7  1  0
  7  8  1  0
  8  9  1  0
  9 10  1  0
  2 11  1  0
 11 12  2  0
 12 13  1  0
 13 14  1  0
 14 15  1  0
 15 16  1  0
 16 17  1  0
 17 18  2  0
 18 19  1  0
 19 20  2  0
 20 21  1  0
 21 22  2  0
 22 23  1  0
 13 24  2  0
 24 25  1  0
 25 26  1  0
 26 27  1  0
 27 28  1  0
 28 29  1  0
 29 30  2  0
 30 31  1  0
 31 32  2  0
 32 33  1  0
 33 34  2  0
 34 35  1  0
 25 36  2  0
 10  5  1  0
 36 11  1  0
 23 14  1  0
 35 26  1  0
 22 17  1  0
 34 29  1  0
  3 37  1  0
  4 38  1  0
  4 39  1  0
  5 40  1  6
  6 41  1  0
  6 42  1  0
  7 43  1  0
  7 44  1  0
  8 45  1  0
  8 46  1  0
  9 47  1  0
 10 48  1  0
 10 49  1  0
 15 50  1  0
 15 51  1  0
 16 52  1  0
 16 53  1  0
 18 54  1  0
 19 55  1  0
 20 56  1  0
 21 57  1  0
 23 58  1  0
 23 59  1  0
 27 60  1  0
 27 61  1  0
 28 62  1  0
 28 63  1  0
 30 64  1  0
 31 65  1  0
 32 66  1  0
 33 67  1  0
 35 68  1  0
 35 69  1  0
M  END
>  <smiles>  (97) 
O=C(NCC1CCCNC1)c1nc(N2CCc3ccccc3C2)nc(N2CCc3ccccc3C2)n1

>  <score_type>  (97) 
oracle

>  <origin>  (97) 
autodockgpu

>  <m_score__min__energy>  (97) 
-10.369999999999999

>  <m_primary>  (97) 
energy

>  <rmsd>  (97) 
9.178980510540892

>  <m_score__min__rmsd>  (97) 
9.178980510540892

>  <meeko>  (97) 
{"free_energy": -9.89, "intermolecular_energy": -11.38, "internal_energy": -0.95, "cluster_size": 35, "cluster_id": 1, "rank_in_cluster": 14}

>  <energy>  (97) 
-9.36

>  <cluster_rmsd>  (97) 
0.0

>  <cluster>  (97) 
4

$$$$

     RDKit          3D

 69 74  0  0  0  0  0  0  0  0999 V2000
  140.2900   70.2800  222.1800 O   0  0  0  0  0  0  0  0  0  0  0  0
  140.0850   71.4450  222.6550 C   0  0  0  0  0  0  0  0  0  0  0  0
  139.2690   71.5040  223.8210 N   0  0  0  0  0  0  0  0  0  0  0  0
  138.7660   70.2460  224.3330 C   0  0  0  0  0  0  0  0  0  0  0  0
  139.7590   69.5400  225.2400 C   0  0  1  0  0  0  0  0  0  0  0  0
  140.3330   70.6070  226.1370 C   0  0  0  0  0  0  0  0  0  0  0  0
  140.6160   70.1460  227.5370 C   0  0  0  0  0  0  0  0  0  0  0  0
  140.9530   68.6580  227.4270 C   0  0  0  0  0  0  0  0  0  0  0  0
  139.7250   67.9810  227.1470 N   0  0  0  0  0  0  0  0  0  0  0  0
  139.0230   68.4730  225.9980 C   0  0  0  0  0  0  0  0  0  0  0  0
  140.6390   72.6440  222.0630 C   0  0  0  0  0  0  0  0  0  0  0  0
  140.1650   73.8740  222.3340 N   0  0  0  0  0  0  0  0  0  0  0  0
  140.7330   74.9470  221.7410 C   0  0  0  0  0  0  0  0  0  0  0  0
  140.2190   76.2530  222.0390 N   0  0  0  0  0  0  0  0  0  0  0  0
  138.8820   76.5500  221.6190 C   0  0  0  0  0  0  0  0  0  0  0  0
  138.2280   77.4030  222.7140 C   0  0  0  0  0  0  0  0  0  0  0  0
  139.0470   78.6520  222.7770 C   0  0  0  0  0  0  0  0  0  0  0  0
  138.4410   79.9070  222.8230 C   0  0  0  0  0  0  0  0  0  0  0  0
  139.2850   81.0020  222.8800 C   0  0  0  0  0  0  0  0  0  0  0  0
  140.6590   80.8950  222.8930 C   0  0  0  0  0  0  0  0  0  0  0  0
  141.2320   79.6290  222.8470 C   0  0  0  0  0  0  0  0  0  0  0  0
  140.4170   78.4960  222.7880 C   0  0  0  0  0  0  0  0  0  0  0  0
  141.0890   77.1720  222.7400 C   0  0  0  0  0  0  0  0  0  0  0  0
  141.7650   74.7610  220.8900 N   0  0  0  0  0  0  0  0  0  0  0  0
  142.2560   73.5410  220.6030 C   0  0  0  0  0  0  0  0  0  0  0  0
  143.3400   73.4310  219.6990 N   0  0  0  0  0  0  0  0  0  0  0  0
  143.1890   73.9060  218.3570 C   0  0  0  0  0  0  0  0  0  0  0  0
  144.5060   73.8450  217.6190 C   0  0  0  0  0  0  0  0  0  0  0  0
  145.0670   72.4780  217.7490 C   0  0  0  0  0  0  0  0  0  0  0  0
  145.5200   71.7340  216.6980 C   0  0  0  0  0  0  0  0  0  0  0  0
  146.0180   70.4740  216.9710 C   0  0  0  0  0  0  0  0  0  0  0  0
  146.0700   69.9540  218.2510 C   0  0  0  0  0  0  0  0  0  0  0  0
  145.6110   70.7090  219.3160 C   0  0  0  0  0  0  0  0  0  0  0  0
  145.1190   71.9570  219.0410 C   0  0  0  0  0  0  0  0  0  0  0  0
  144.6030   72.8420  220.1180 C   0  0  0  0  0  0  0  0  0  0  0  0
  141.6770   72.4850  221.2020 N   0  0  0  0  0  0  0  0  0  0  0  0
  139.0500   72.4060  224.2750 H   0  0  0  0  0  0  0  0  0  0  0  0
  137.8462   70.4415  224.9037 H   0  0  0  0  0  0  0  0  0  0  0  0
  138.5796   69.5886  223.4710 H   0  0  0  0  0  0  0  0  0  0  0  0
  140.5788   69.0437  224.7000 H   0  0  0  0  0  0  0  0  0  0  0  0
  141.2752   70.9609  225.6931 H   0  0  0  0  0  0  0  0  0  0  0  0
  139.5737   71.3993  226.2122 H   0  0  0  0  0  0  0  0  0  0  0  0
  141.4671   70.7012  227.9582 H   0  0  0  0  0  0  0  0  0  0  0  0
  139.7560   70.3178  228.2009 H   0  0  0  0  0  0  0  0  0  0  0  0
  141.6729   68.4910  226.6122 H   0  0  0  0  0  0  0  0  0  0  0  0
  141.4092   68.2847  228.3557 H   0  0  0  0  0  0  0  0  0  0  0  0
  139.7840   66.9430  227.2190 H   0  0  0  0  0  0  0  0  0  0  0  0
  138.8408   67.6287  225.3168 H   0  0  0  0  0  0  0  0  0  0  0  0
  138.0928   68.9301  226.3665 H   0  0  0  0  0  0  0  0  0  0  0  0
  138.9022   77.1081  220.6713 H   0  0  0  0  0  0  0  0  0  0  0  0
  138.3124   75.6222  221.4615 H   0  0  0  0  0  0  0  0  0  0  0  0
  137.1862   77.6374  222.4501 H   0  0  0  0  0  0  0  0  0  0  0  0
  138.1994   76.8801  223.6813 H   0  0  0  0  0  0  0  0  0  0  0  0
  137.3469   80.0208  222.8144 H   0  0  0  0  0  0  0  0  0  0  0  0
  138.8378   82.0063  222.9167 H   0  0  0  0  0  0  0  0  0  0  0  0
  141.2906   81.7945  222.9389 H   0  0  0  0  0  0  0  0  0  0  0  0
  142.3265   79.5196  222.8571 H   0  0  0  0  0  0  0  0  0  0  0  0
  142.0471   77.2590  222.2067 H   0  0  0  0  0  0  0  0  0  0  0  0
  141.2876   76.8077  223.7587 H   0  0  0  0  0  0  0  0  0  0  0  0
  142.4518   73.2800  217.8329 H   0  0  0  0  0  0  0  0  0  0  0  0
  142.8481   74.9514  218.3875 H   0  0  0  0  0  0  0  0  0  0  0  0
  144.3448   74.0784  216.5562 H   0  0  0  0  0  0  0  0  0  0  0  0
  145.2067   74.5775  218.0461 H   0  0  0  0  0  0  0  0  0  0  0  0
  145.4897   72.1237  215.6698 H   0  0  0  0  0  0  0  0  0  0  0  0
  146.3878   69.8603  216.1364 H   0  0  0  0  0  0  0  0  0  0  0  0
  146.4742   68.9453  218.4220 H   0  0  0  0  0  0  0  0  0  0  0  0
  145.6402   70.3212  220.3449 H   0  0  0  0  0  0  0  0  0  0  0  0
  144.4468   72.2525  221.0335 H   0  0  0  0  0  0  0  0  0  0  0  0
  145.3322   73.6413  220.3163 H   0  0  0  0  0  0  0  0  0  0  0  0
  1  2  2  0
  2  3  1  0
  3  4  1  0
  4  5  1  0
  5  6  1  0
  6  7  1  0
  7  8  1  0
  8  9  1  0
  9 10  1  0
  2 11  1  0
 11 12  2  0
 12 13  1  0
 13 14  1  0
 14 15  1  0
 15 16  1  0
 16 17  1  0
 17 18  2  0
 18 19  1  0
 19 20  2  0
 20 21  1  0
 21 22  2  0
 22 23  1  0
 13 24  2  0
 24 25  1  0
 25 26  1  0
 26 27  1  0
 27 28  1  0
 28 29  1  0
 29 30  2  0
 30 31  1  0
 31 32  2  0
 32 33  1  0
 33 34  2  0
 34 35  1  0
 25 36  2  0
 10  5  1  0
 36 11  1  0
 23 14  1  0
 35 26  1  0
 22 17  1  0
 34 29  1  0
  3 37  1  0
  4 38  1  0
  4 39  1  0
  5 40  1  6
  6 41  1  0
  6 42  1  0
  7 43  1  0
  7 44  1  0
  8 45  1  0
  8 46  1  0
  9 47  1  0
 10 48  1  0
 10 49  1  0
 15 50  1  0
 15 51  1  0
 16 52  1  0
 16 53  1  0
 18 54  1  0
 19 55  1  0
 20 56  1  0
 21 57  1  0
 23 58  1  0
 23 59  1  0
 27 60  1  0
 27 61  1  0
 28 62  1  0
 28 63  1  0
 30 64  1  0
 31 65  1  0
 32 66  1  0
 33 67  1  0
 35 68  1  0
 35 69  1  0
M  END
>  <smiles>  (98) 
O=C(NCC1CCCNC1)c1nc(N2CCc3ccccc3C2)nc(N2CCc3ccccc3C2)n1

>  <score_type>  (98) 
oracle

>  <origin>  (98) 
autodockgpu

>  <m_score__min__energy>  (98) 
-10.369999999999999

>  <m_primary>  (98) 
energy

>  <rmsd>  (98) 
8.967949785234289

>  <m_score__min__rmsd>  (98) 
8.967949785234289

>  <meeko>  (98) 
{"free_energy": -9.67, "intermolecular_energy": -11.16, "internal_energy": -1.17, "cluster_size": 35, "cluster_id": 1, "rank_in_cluster": 23}

>  <energy>  (98) 
-9.16

>  <cluster_rmsd>  (98) 
0.74

>  <cluster>  (98) 
4

$$$$

     RDKit          3D

 69 74  0  0  0  0  0  0  0  0999 V2000
  140.3220   70.5140  221.9760 O   0  0  0  0  0  0  0  0  0  0  0  0
  140.2440   71.6690  222.5100 C   0  0  0  0  0  0  0  0  0  0  0  0
  139.5600   71.7310  223.7570 N   0  0  0  0  0  0  0  0  0  0  0  0
  139.0320   70.4870  224.2770 C   0  0  0  0  0  0  0  0  0  0  0  0
  139.9670   69.8200  225.2710 C   0  0  1  0  0  0  0  0  0  0  0  0
  140.3770   70.8980  226.2420 C   0  0  0  0  0  0  0  0  0  0  0  0
  140.5400   70.4210  227.6560 C   0  0  0  0  0  0  0  0  0  0  0  0
  140.9780   68.9580  227.5560 C   0  0  0  0  0  0  0  0  0  0  0  0
  139.8310   68.2160  227.1370 N   0  0  0  0  0  0  0  0  0  0  0  0
  139.2230   68.6930  225.9280 C   0  0  0  0  0  0  0  0  0  0  0  0
  140.8100   72.8550  221.9020 C   0  0  0  0  0  0  0  0  0  0  0  0
  141.7750   72.8020  220.9660 N   0  0  0  0  0  0  0  0  0  0  0  0
  142.2550   73.9540  220.4450 C   0  0  0  0  0  0  0  0  0  0  0  0
  143.2830   73.8840  219.4470 N   0  0  0  0  0  0  0  0  0  0  0  0
  144.5260   73.2770  219.8180 C   0  0  0  0  0  0  0  0  0  0  0  0
  145.0280   72.4710  218.6130 C   0  0  0  0  0  0  0  0  0  0  0  0
  145.2420   73.4800  217.5310 C   0  0  0  0  0  0  0  0  0  0  0  0
  146.4050   73.4740  216.7610 C   0  0  0  0  0  0  0  0  0  0  0  0
  146.5070   74.4480  215.7840 C   0  0  0  0  0  0  0  0  0  0  0  0
  145.5290   75.3920  215.5550 C   0  0  0  0  0  0  0  0  0  0  0  0
  144.3820   75.3710  216.3390 C   0  0  0  0  0  0  0  0  0  0  0  0
  144.2370   74.4040  217.3380 C   0  0  0  0  0  0  0  0  0  0  0  0
  142.9880   74.4340  218.1420 C   0  0  0  0  0  0  0  0  0  0  0  0
  141.7540   75.1310  220.8770 N   0  0  0  0  0  0  0  0  0  0  0  0
  140.7900   75.2090  221.8120 C   0  0  0  0  0  0  0  0  0  0  0  0
  140.3190   76.4840  222.2110 N   0  0  0  0  0  0  0  0  0  0  0  0
  139.0500   76.9460  221.7370 C   0  0  0  0  0  0  0  0  0  0  0  0
  138.6710   78.2450  222.4100 C   0  0  0  0  0  0  0  0  0  0  0  0
  139.7910   79.2060  222.2660 C   0  0  0  0  0  0  0  0  0  0  0  0
  139.6470   80.4880  221.8190 C   0  0  0  0  0  0  0  0  0  0  0  0
  140.7830   81.2710  221.7370 C   0  0  0  0  0  0  0  0  0  0  0  0
  142.0360   80.8050  222.0880 C   0  0  0  0  0  0  0  0  0  0  0  0
  142.1820   79.5060  222.5410 C   0  0  0  0  0  0  0  0  0  0  0  0
  141.0540   78.7340  222.6210 C   0  0  0  0  0  0  0  0  0  0  0  0
  141.1090   77.3260  223.0960 C   0  0  0  0  0  0  0  0  0  0  0  0
  140.3250   74.0530  222.3190 N   0  0  0  0  0  0  0  0  0  0  0  0
  139.4490   72.6260  224.2630 H   0  0  0  0  0  0  0  0  0  0  0  0
  138.0752   70.6939  224.7788 H   0  0  0  0  0  0  0  0  0  0  0  0
  138.9072   69.7996  223.4274 H   0  0  0  0  0  0  0  0  0  0  0  0
  140.8680   69.3865  224.8123 H   0  0  0  0  0  0  0  0  0  0  0  0
  141.3367   71.3180  225.9065 H   0  0  0  0  0  0  0  0  0  0  0  0
  139.5667   71.6419  226.2501 H   0  0  0  0  0  0  0  0  0  0  0  0
  141.3065   71.0155  228.1746 H   0  0  0  0  0  0  0  0  0  0  0  0
  139.6063   70.5253  228.2281 H   0  0  0  0  0  0  0  0  0  0  0  0
  141.7876   68.8538  226.8186 H   0  0  0  0  0  0  0  0  0  0  0  0
  141.3572   68.5907  228.5210 H   0  0  0  0  0  0  0  0  0  0  0  0
  139.9460   67.1830  227.1960 H   0  0  0  0  0  0  0  0  0  0  0  0
  139.1655   67.8559  225.2166 H   0  0  0  0  0  0  0  0  0  0  0  0
  138.2329   69.0847  226.2039 H   0  0  0  0  0  0  0  0  0  0  0  0
  145.2589   74.0540  220.0809 H   0  0  0  0  0  0  0  0  0  0  0  0
  144.3899   72.6216  220.6909 H   0  0  0  0  0  0  0  0  0  0  0  0
  145.9711   71.9598  218.8563 H   0  0  0  0  0  0  0  0  0  0  0  0
  144.3135   71.6904  218.3129 H   0  0  0  0  0  0  0  0  0  0  0  0
  147.2010   72.7321  216.9225 H   0  0  0  0  0  0  0  0  0  0  0  0
  147.4124   74.4703  215.1596 H   0  0  0  0  0  0  0  0  0  0  0  0
  145.6543   76.1481  214.7660 H   0  0  0  0  0  0  0  0  0  0  0  0
  143.5886   76.1148  216.1737 H   0  0  0  0  0  0  0  0  0  0  0  0
  142.6352   75.4708  218.2449 H   0  0  0  0  0  0  0  0  0  0  0  0
  142.2014   73.8448  217.6480 H   0  0  0  0  0  0  0  0  0  0  0  0
  139.1063   77.1051  220.6500 H   0  0  0  0  0  0  0  0  0  0  0  0
  138.2870   76.1893  221.9721 H   0  0  0  0  0  0  0  0  0  0  0  0
  137.7680   78.6568  221.9356 H   0  0  0  0  0  0  0  0  0  0  0  0
  138.4682   78.0666  223.4763 H   0  0  0  0  0  0  0  0  0  0  0  0
  138.6611   80.8840  221.5340 H   0  0  0  0  0  0  0  0  0  0  0  0
  140.6860   82.3063  221.3781 H   0  0  0  0  0  0  0  0  0  0  0  0
  142.9131   81.4640  222.0075 H   0  0  0  0  0  0  0  0  0  0  0  0
  143.1672   79.1083  222.8262 H   0  0  0  0  0  0  0  0  0  0  0  0
  142.1531   76.9797  223.0961 H   0  0  0  0  0  0  0  0  0  0  0  0
  140.7029   77.2674  224.1166 H   0  0  0  0  0  0  0  0  0  0  0  0
  1  2  2  0
  2  3  1  0
  3  4  1  0
  4  5  1  0
  5  6  1  0
  6  7  1  0
  7  8  1  0
  8  9  1  0
  9 10  1  0
  2 11  1  0
 11 12  2  0
 12 13  1  0
 13 14  1  0
 14 15  1  0
 15 16  1  0
 16 17  1  0
 17 18  2  0
 18 19  1  0
 19 20  2  0
 20 21  1  0
 21 22  2  0
 22 23  1  0
 13 24  2  0
 24 25  1  0
 25 26  1  0
 26 27  1  0
 27 28  1  0
 28 29  1  0
 29 30  2  0
 30 31  1  0
 31 32  2  0
 32 33  1  0
 33 34  2  0
 34 35  1  0
 25 36  2  0
 10  5  1  0
 36 11  1  0
 23 14  1  0
 35 26  1  0
 22 17  1  0
 34 29  1  0
  3 37  1  0
  4 38  1  0
  4 39  1  0
  5 40  1  6
  6 41  1  0
  6 42  1  0
  7 43  1  0
  7 44  1  0
  8 45  1  0
  8 46  1  0
  9 47  1  0
 10 48  1  0
 10 49  1  0
 15 50  1  0
 15 51  1  0
 16 52  1  0
 16 53  1  0
 18 54  1  0
 19 55  1  0
 20 56  1  0
 21 57  1  0
 23 58  1  0
 23 59  1  0
 27 60  1  0
 27 61  1  0
 28 62  1  0
 28 63  1  0
 30 64  1  0
 31 65  1  0
 32 66  1  0
 33 67  1  0
 35 68  1  0
 35 69  1  0
M  END
>  <smiles>  (99) 
O=C(NCC1CCCNC1)c1nc(N2CCc3ccccc3C2)nc(N2CCc3ccccc3C2)n1

>  <score_type>  (99) 
oracle

>  <origin>  (99) 
autodockgpu

>  <m_score__min__energy>  (99) 
-10.369999999999999

>  <m_primary>  (99) 
energy

>  <rmsd>  (99) 
8.847711984802137

>  <m_score__min__rmsd>  (99) 
8.847711984802137

>  <meeko>  (99) 
{"free_energy": -9.47, "intermolecular_energy": -10.97, "internal_energy": -1.23, "cluster_size": 35, "cluster_id": 1, "rank_in_cluster": 31}

>  <energy>  (99) 
-9.09

>  <cluster_rmsd>  (99) 
0.77

>  <cluster>  (99) 
4

$$$$

     RDKit          3D

 69 74  0  0  0  0  0  0  0  0999 V2000
  140.8480   71.0880  221.5560 O   0  0  0  0  0  0  0  0  0  0  0  0
  140.6750   72.2060  222.1420 C   0  0  0  0  0  0  0  0  0  0  0  0
  140.0810   72.1430  223.4340 N   0  0  0  0  0  0  0  0  0  0  0  0
  139.7410   70.8280  223.9350 C   0  0  0  0  0  0  0  0  0  0  0  0
  139.6710   70.7750  225.4520 C   0  0  1  0  0  0  0  0  0  0  0  0
  139.8060   69.3200  225.8230 C   0  0  0  0  0  0  0  0  0  0  0  0
  140.5780   69.0780  227.0870 C   0  0  0  0  0  0  0  0  0  0  0  0
  140.3360   70.3060  227.9670 C   0  0  0  0  0  0  0  0  0  0  0  0
  141.0780   71.3790  227.3820 N   0  0  0  0  0  0  0  0  0  0  0  0
  140.7820   71.6240  226.0000 C   0  0  0  0  0  0  0  0  0  0  0  0
  141.0530   73.4720  221.5490 C   0  0  0  0  0  0  0  0  0  0  0  0
  141.7880   73.5580  220.4250 N   0  0  0  0  0  0  0  0  0  0  0  0
  142.1020   74.7760  219.9320 C   0  0  0  0  0  0  0  0  0  0  0  0
  142.8860   74.8540  218.7330 N   0  0  0  0  0  0  0  0  0  0  0  0
  142.4230   75.7240  217.6940 C   0  0  0  0  0  0  0  0  0  0  0  0
  143.6520   76.3880  217.0600 C   0  0  0  0  0  0  0  0  0  0  0  0
  144.4500   75.2630  216.4830 C   0  0  0  0  0  0  0  0  0  0  0  0
  144.9760   75.3420  215.1940 C   0  0  0  0  0  0  0  0  0  0  0  0
  145.6990   74.2480  214.7520 C   0  0  0  0  0  0  0  0  0  0  0  0
  145.9090   73.1220  215.5180 C   0  0  0  0  0  0  0  0  0  0  0  0
  145.3710   73.0750  216.7990 C   0  0  0  0  0  0  0  0  0  0  0  0
  144.6340   74.1570  217.2860 C   0  0  0  0  0  0  0  0  0  0  0  0
  144.0850   74.0460  218.6630 C   0  0  0  0  0  0  0  0  0  0  0  0
  141.6700   75.8800  220.5780 N   0  0  0  0  0  0  0  0  0  0  0  0
  140.9340   75.8200  221.7030 C   0  0  0  0  0  0  0  0  0  0  0  0
  140.5210   77.0260  222.3210 N   0  0  0  0  0  0  0  0  0  0  0  0
  139.1990   77.5210  222.0840 C   0  0  0  0  0  0  0  0  0  0  0  0
  138.9130   78.7170  222.9610 C   0  0  0  0  0  0  0  0  0  0  0  0
  140.0030   79.7090  222.7930 C   0  0  0  0  0  0  0  0  0  0  0  0
  139.7990   81.0350  222.5360 C   0  0  0  0  0  0  0  0  0  0  0  0
  140.9130   81.8420  222.4030 C   0  0  0  0  0  0  0  0  0  0  0  0
  142.2020   81.3580  222.5210 C   0  0  0  0  0  0  0  0  0  0  0  0
  142.4090   80.0140  222.7810 C   0  0  0  0  0  0  0  0  0  0  0  0
  141.3030   79.2180  222.9120 C   0  0  0  0  0  0  0  0  0  0  0  0
  141.4220   77.7630  223.1920 C   0  0  0  0  0  0  0  0  0  0  0  0
  140.6320   74.5990  222.1800 N   0  0  0  0  0  0  0  0  0  0  0  0
  139.9020   73.0010  223.9850 H   0  0  0  0  0  0  0  0  0  0  0  0
  138.7607   70.5396  223.5278 H   0  0  0  0  0  0  0  0  0  0  0  0
  140.5351   70.1369  223.6161 H   0  0  0  0  0  0  0  0  0  0  0  0
  138.7311   71.1668  225.8679 H   0  0  0  0  0  0  0  0  0  0  0  0
  138.7969   68.9008  225.9492 H   0  0  0  0  0  0  0  0  0  0  0  0
  140.3688   68.8369  225.0107 H   0  0  0  0  0  0  0  0  0  0  0  0
  140.2146   68.1695  227.5895 H   0  0  0  0  0  0  0  0  0  0  0  0
  141.6491   68.9307  226.8844 H   0  0  0  0  0  0  0  0  0  0  0  0
  139.2642   70.5527  227.9882 H   0  0  0  0  0  0  0  0  0  0  0  0
  140.6551   70.1211  229.0033 H   0  0  0  0  0  0  0  0  0  0  0  0
  141.1390   72.2310  227.9790 H   0  0  0  0  0  0  0  0  0  0  0  0
  140.4962   72.6805  225.8898 H   0  0  0  0  0  0  0  0  0  0  0  0
  141.6878   71.3678  225.4309 H   0  0  0  0  0  0  0  0  0  0  0  0
  141.8772   75.1441  216.9352 H   0  0  0  0  0  0  0  0  0  0  0  0
  141.7420   76.4848  218.1033 H   0  0  0  0  0  0  0  0  0  0  0  0
  143.3469   77.0898  216.2698 H   0  0  0  0  0  0  0  0  0  0  0  0
  144.2303   76.9690  217.7935 H   0  0  0  0  0  0  0  0  0  0  0  0
  144.8240   76.2286  214.5609 H   0  0  0  0  0  0  0  0  0  0  0  0
  146.1272   74.2788  213.7392 H   0  0  0  0  0  0  0  0  0  0  0  0
  146.4913   72.2763  215.1234 H   0  0  0  0  0  0  0  0  0  0  0  0
  145.5256   72.1864  217.4286 H   0  0  0  0  0  0  0  0  0  0  0  0
  143.8413   72.9964  218.8842 H   0  0  0  0  0  0  0  0  0  0  0  0
  144.8246   74.3952  219.3985 H   0  0  0  0  0  0  0  0  0  0  0  0
  139.1078   77.8169  221.0285 H   0  0  0  0  0  0  0  0  0  0  0  0
  138.4756   76.7269  222.3210 H   0  0  0  0  0  0  0  0  0  0  0  0
  137.9541   79.1690  222.6674 H   0  0  0  0  0  0  0  0  0  0  0  0
  138.8555   78.4017  224.0133 H   0  0  0  0  0  0  0  0  0  0  0  0
  138.7834   81.4461  222.4383 H   0  0  0  0  0  0  0  0  0  0  0  0
  140.7678   82.9123  222.1949 H   0  0  0  0  0  0  0  0  0  0  0  0
  143.0597   82.0375  222.4088 H   0  0  0  0  0  0  0  0  0  0  0  0
  143.4240   79.6013  222.8787 H   0  0  0  0  0  0  0  0  0  0  0  0
  142.4567   77.4379  223.0086 H   0  0  0  0  0  0  0  0  0  0  0  0
  141.1570   77.5690  224.2418 H   0  0  0  0  0  0  0  0  0  0  0  0
  1  2  2  0
  2  3  1  0
  3  4  1  0
  4  5  1  0
  5  6  1  0
  6  7  1  0
  7  8  1  0
  8  9  1  0
  9 10  1  0
  2 11  1  0
 11 12  2  0
 12 13  1  0
 13 14  1  0
 14 15  1  0
 15 16  1  0
 16 17  1  0
 17 18  2  0
 18 19  1  0
 19 20  2  0
 20 21  1  0
 21 22  2  0
 22 23  1  0
 13 24  2  0
 24 25  1  0
 25 26  1  0
 26 27  1  0
 27 28  1  0
 28 29  1  0
 29 30  2  0
 30 31  1  0
 31 32  2  0
 32 33  1  0
 33 34  2  0
 34 35  1  0
 25 36  2  0
 10  5  1  0
 36 11  1  0
 23 14  1  0
 35 26  1  0
 22 17  1  0
 34 29  1  0
  3 37  1  0
  4 38  1  0
  4 39  1  0
  5 40  1  6
  6 41  1  0
  6 42  1  0
  7 43  1  0
  7 44  1  0
  8 45  1  0
  8 46  1  0
  9 47  1  0
 10 48  1  0
 10 49  1  0
 15 50  1  0
 15 51  1  0
 16 52  1  0
 16 53  1  0
 18 54  1  0
 19 55  1  0
 20 56  1  0
 21 57  1  0
 23 58  1  0
 23 59  1  0
 27 60  1  0
 27 61  1  0
 28 62  1  0
 28 63  1  0
 30 64  1  0
 31 65  1  0
 32 66  1  0
 33 67  1  0
 35 68  1  0
 35 69  1  0
M  END
>  <smiles>  (100) 
O=C(NCC1CCCNC1)c1nc(N2CCc3ccccc3C2)nc(N2CCc3ccccc3C2)n1

>  <score_type>  (100) 
oracle

>  <origin>  (100) 
autodockgpu

>  <m_score__min__energy>  (100) 
-10.369999999999999

>  <m_primary>  (100) 
energy

>  <rmsd>  (100) 
8.259032229558331

>  <m_score__min__rmsd>  (100) 
8.259032229558331

>  <meeko>  (100) 
{"free_energy": -9.09, "intermolecular_energy": -10.59, "internal_energy": -1.21, "cluster_size": 3, "cluster_id": 4, "rank_in_cluster": 3}

>  <energy>  (100) 
-8.85

>  <cluster_rmsd>  (100) 
0.0

>  <cluster>  (100) 
5

$$$$
