
     RDKit          3D

 56 59  0  0  0  0  0  0  0  0999 V2000
  131.4250   72.6290  227.5460 C   0  0  0  0  0  0  0  0  0  0  0  0
  132.2070   71.6580  226.7410 C   0  0  0  0  0  0  0  0  0  0  0  0
  131.7800   70.4800  226.5850 O   0  0  0  0  0  0  0  0  0  0  0  0
  133.4260   72.0760  226.1610 N   0  0  0  0  0  0  0  0  0  0  0  0
  134.1980   71.1680  225.3840 C   0  0  0  0  0  0  0  0  0  0  0  0
  134.4220   71.5140  224.0630 C   0  0  0  0  0  0  0  0  0  0  0  0
  135.1730   70.6490  223.2720 C   0  0  0  0  0  0  0  0  0  0  0  0
  135.7000   69.4750  223.7430 C   0  0  0  0  0  0  0  0  0  0  0  0
  136.4790   68.5630  222.9520 C   0  0  0  0  0  0  0  0  0  0  0  0
  137.7970   68.5030  222.9300 C   0  0  0  0  0  0  0  0  0  0  0  0
  138.5800   68.9900  224.0630 C   0  0  0  0  0  0  0  0  0  0  0  0
  139.0850   68.0940  224.9290 N   0  0  0  0  0  0  0  0  0  0  0  0
  139.8180   68.3970  226.0110 C   0  0  0  0  0  0  0  0  0  0  0  0
  140.3100   67.4140  226.8650 C   0  0  0  0  0  0  0  0  0  0  0  0
  141.0670   67.7860  227.9790 C   0  0  0  0  0  0  0  0  0  0  0  0
  141.3050   69.1240  228.1970 C   0  0  0  0  0  0  0  0  0  0  0  0
  140.8140   70.0970  227.3440 C   0  0  0  0  0  0  0  0  0  0  0  0
  141.1430   71.7880  227.6600 Cl  0  0  0  0  0  0  0  0  0  0  0  0
  140.0650   69.7340  226.2420 C   0  0  0  0  0  0  0  0  0  0  0  0
  139.5490   70.6570  225.3570 C   0  0  0  0  0  0  0  0  0  0  0  0
  139.8070   71.8720  225.6150 O   0  0  0  0  0  0  0  0  0  0  0  0
  138.8110   70.2980  224.2730 N   0  0  0  0  0  0  0  0  0  0  0  0
  138.2840   71.3060  223.3750 C   0  0  0  0  0  0  0  0  0  0  0  0
  139.1480   71.5750  222.1850 C   0  0  0  0  0  0  0  0  0  0  0  0
  138.7500   72.7430  221.3490 C   0  0  0  0  0  0  0  0  0  0  0  0
  139.1550   74.0710  221.9580 C   0  0  0  0  0  0  0  0  0  0  0  0
  140.5970   74.1680  221.8860 N   0  0  0  0  0  0  0  0  0  0  0  0
  141.2620   72.9040  221.8590 C   0  0  0  0  0  0  0  0  0  0  0  0
  140.5740   71.8150  222.6430 C   0  0  0  0  0  0  0  0  0  0  0  0
  135.4390   69.1820  225.0840 C   0  0  0  0  0  0  0  0  0  0  0  0
  134.7110   69.9950  225.8960 C   0  0  0  0  0  0  0  0  0  0  0  0
  131.5847   72.4308  228.6162 H   0  0  0  0  0  0  0  0  0  0  0  0
  131.7549   73.6513  227.3093 H   0  0  0  0  0  0  0  0  0  0  0  0
  130.3559   72.5246  227.3093 H   0  0  0  0  0  0  0  0  0  0  0  0
  133.7900   73.0530  226.2850 H   0  0  0  0  0  0  0  0  0  0  0  0
  134.0169   72.4489  223.6485 H   0  0  0  0  0  0  0  0  0  0  0  0
  135.3515   70.9202  222.2210 H   0  0  0  0  0  0  0  0  0  0  0  0
  135.9312   67.8561  222.3115 H   0  0  0  0  0  0  0  0  0  0  0  0
  138.3098   68.0832  222.0521 H   0  0  0  0  0  0  0  0  0  0  0  0
  140.1044   66.3522  226.6644 H   0  0  0  0  0  0  0  0  0  0  0  0
  141.4644   67.0255  228.6673 H   0  0  0  0  0  0  0  0  0  0  0  0
  141.9002   69.4275  229.0709 H   0  0  0  0  0  0  0  0  0  0  0  0
  137.2993   70.9699  223.0181 H   0  0  0  0  0  0  0  0  0  0  0  0
  138.2310   72.2440  223.9471 H   0  0  0  0  0  0  0  0  0  0  0  0
  139.0363   70.6805  221.5545 H   0  0  0  0  0  0  0  0  0  0  0  0
  139.2291   72.6484  220.3633 H   0  0  0  0  0  0  0  0  0  0  0  0
  137.6526   72.7358  221.2737 H   0  0  0  0  0  0  0  0  0  0  0  0
  138.6956   74.8967  221.3949 H   0  0  0  0  0  0  0  0  0  0  0  0
  138.8169   74.1342  223.0028 H   0  0  0  0  0  0  0  0  0  0  0  0
  140.8430   74.6690  220.9970 H   0  0  0  0  0  0  0  0  0  0  0  0
  141.3360   72.5777  220.8111 H   0  0  0  0  0  0  0  0  0  0  0  0
  142.2423   73.0577  222.3337 H   0  0  0  0  0  0  0  0  0  0  0  0
  141.1438   70.8817  222.5233 H   0  0  0  0  0  0  0  0  0  0  0  0
  140.5355   72.1364  223.6943 H   0  0  0  0  0  0  0  0  0  0  0  0
  135.8419   68.2484  225.5035 H   0  0  0  0  0  0  0  0  0  0  0  0
  134.5340   69.7205  226.9464 H   0  0  0  0  0  0  0  0  0  0  0  0
  1  2  1  0
  2  3  2  0
  2  4  1  0
  4  5  1  0
  5  6  2  0
  6  7  1  0
  7  8  2  0
  8  9  1  0
  9 10  2  0
 10 11  1  0
 11 12  2  0
 12 13  1  0
 13 14  2  0
 14 15  1  0
 15 16  2  0
 16 17  1  0
 17 18  1  0
 17 19  2  0
 19 20  1  0
 20 21  2  0
 20 22  1  0
 22 23  1  0
 23 24  1  0
 24 25  1  0
 25 26  1  0
 26 27  1  0
 27 28  1  0
 28 29  1  0
  8 30  1  0
 30 31  2  0
 31  5  1  0
 22 11  1  0
 29 24  1  0
 19 13  1  0
  1 32  1  0
  1 33  1  0
  1 34  1  0
  4 35  1  0
  6 36  1  0
  7 37  1  0
  9 38  1  0
 10 39  1  0
 14 40  1  0
 15 41  1  0
 16 42  1  0
 23 43  1  0
 23 44  1  0
 24 45  1  0
 25 46  1  0
 25 47  1  0
 26 48  1  0
 26 49  1  0
 27 50  1  0
 28 51  1  0
 28 52  1  0
 29 53  1  0
 29 54  1  0
 30 55  1  0
 31 56  1  0
M  END
>  <smiles>  (1) 
CC(=O)Nc1ccc(/C=C/c2nc3cccc(Cl)c3c(=O)n2CC2CCNCC2)cc1

>  <score_type>  (1) 
oracle

>  <origin>  (1) 
autodockgpu

>  <m_score__min__energy>  (1) 
-8.9499999999999993

>  <m_primary>  (1) 
energy

>  <rmsd>  (1) 
11.189428690827691

>  <m_score__min__rmsd>  (1) 
11.189428690827691

>  <meeko>  (1) 
{"free_energy": -7.87, "intermolecular_energy": -9.66, "internal_energy": -1.86, "cluster_size": 17, "cluster_id": 3, "rank_in_cluster": 12}

>  <energy>  (1) 
-8.95

>  <cluster_rmsd>  (1) 
0.0

>  <cluster>  (1) 
1

$$$$

     RDKit          3D

 56 59  0  0  0  0  0  0  0  0999 V2000
  131.3210   72.7140  227.6040 C   0  0  0  0  0  0  0  0  0  0  0  0
  132.1490   73.4910  226.6490 C   0  0  0  0  0  0  0  0  0  0  0  0
  131.6410   74.4600  226.0180 O   0  0  0  0  0  0  0  0  0  0  0  0
  133.5020   73.1270  226.4620 N   0  0  0  0  0  0  0  0  0  0  0  0
  134.3200   73.8530  225.5530 C   0  0  0  0  0  0  0  0  0  0  0  0
  134.9480   73.1210  224.5600 C   0  0  0  0  0  0  0  0  0  0  0  0
  135.7580   73.7980  223.6520 C   0  0  0  0  0  0  0  0  0  0  0  0
  135.9590   75.1520  223.6970 C   0  0  0  0  0  0  0  0  0  0  0  0
  136.7880   75.8780  222.7750 C   0  0  0  0  0  0  0  0  0  0  0  0
  137.9530   76.4270  223.0640 C   0  0  0  0  0  0  0  0  0  0  0  0
  139.1670   75.9990  222.3740 C   0  0  0  0  0  0  0  0  0  0  0  0
  139.4490   74.6850  222.3260 N   0  0  0  0  0  0  0  0  0  0  0  0
  140.5270   74.1500  221.7310 C   0  0  0  0  0  0  0  0  0  0  0  0
  140.7550   72.7770  221.7200 C   0  0  0  0  0  0  0  0  0  0  0  0
  141.8930   72.2740  221.0860 C   0  0  0  0  0  0  0  0  0  0  0  0
  142.7610   73.1600  220.4870 C   0  0  0  0  0  0  0  0  0  0  0  0
  142.5280   74.5230  220.5010 C   0  0  0  0  0  0  0  0  0  0  0  0
  143.6590   75.6140  219.7260 Cl  0  0  0  0  0  0  0  0  0  0  0  0
  141.4040   75.0260  221.1270 C   0  0  0  0  0  0  0  0  0  0  0  0
  141.1190   76.3740  221.1740 C   0  0  0  0  0  0  0  0  0  0  0  0
  141.9580   77.1350  220.6020 O   0  0  0  0  0  0  0  0  0  0  0  0
  140.0120   76.8660  221.7900 N   0  0  0  0  0  0  0  0  0  0  0  0
  139.7590   78.2930  221.8200 C   0  0  0  0  0  0  0  0  0  0  0  0
  140.2100   78.9670  223.0760 C   0  0  0  0  0  0  0  0  0  0  0  0
  141.5980   78.6500  223.5170 C   0  0  0  0  0  0  0  0  0  0  0  0
  142.6530   79.3970  222.7250 C   0  0  0  0  0  0  0  0  0  0  0  0
  142.5700   80.7950  223.0850 N   0  0  0  0  0  0  0  0  0  0  0  0
  141.2780   81.1980  223.5440 C   0  0  0  0  0  0  0  0  0  0  0  0
  140.1260   80.4710  222.8980 C   0  0  0  0  0  0  0  0  0  0  0  0
  135.2990   75.8350  224.7220 C   0  0  0  0  0  0  0  0  0  0  0  0
  134.4980   75.2190  225.6330 C   0  0  0  0  0  0  0  0  0  0  0  0
  131.6032   72.9788  228.6337 H   0  0  0  0  0  0  0  0  0  0  0  0
  130.2584   72.9485  227.4432 H   0  0  0  0  0  0  0  0  0  0  0  0
  131.4876   71.6386  227.4432 H   0  0  0  0  0  0  0  0  0  0  0  0
  133.9340   72.3240  226.9820 H   0  0  0  0  0  0  0  0  0  0  0  0
  134.8106   72.0319  224.4900 H   0  0  0  0  0  0  0  0  0  0  0  0
  136.2593   73.2189  222.8625 H   0  0  0  0  0  0  0  0  0  0  0  0
  136.4216   75.9851  221.7434 H   0  0  0  0  0  0  0  0  0  0  0  0
  138.0100   77.2135  223.8309 H   0  0  0  0  0  0  0  0  0  0  0  0
  140.0441   72.0933  222.2070 H   0  0  0  0  0  0  0  0  0  0  0  0
  142.0922   71.1924  221.0654 H   0  0  0  0  0  0  0  0  0  0  0  0
  143.6609   72.7742  219.9856 H   0  0  0  0  0  0  0  0  0  0  0  0
  140.2856   78.7550  220.9719 H   0  0  0  0  0  0  0  0  0  0  0  0
  138.6681   78.4228  221.7647 H   0  0  0  0  0  0  0  0  0  0  0  0
  139.5348   78.5812  223.8540 H   0  0  0  0  0  0  0  0  0  0  0  0
  141.6994   78.9198  224.5786 H   0  0  0  0  0  0  0  0  0  0  0  0
  141.7600   77.5747  223.3510 H   0  0  0  0  0  0  0  0  0  0  0  0
  143.6515   79.0062  222.9706 H   0  0  0  0  0  0  0  0  0  0  0  0
  142.4854   79.2681  221.6455 H   0  0  0  0  0  0  0  0  0  0  0  0
  143.2470   80.9680  223.8690 H   0  0  0  0  0  0  0  0  0  0  0  0
  141.2293   81.0222  224.6288 H   0  0  0  0  0  0  0  0  0  0  0  0
  141.1682   82.2583  223.2727 H   0  0  0  0  0  0  0  0  0  0  0  0
  139.1879   80.8270  223.3488 H   0  0  0  0  0  0  0  0  0  0  0  0
  140.1637   80.6807  221.8188 H   0  0  0  0  0  0  0  0  0  0  0  0
  135.4337   76.9242  224.7959 H   0  0  0  0  0  0  0  0  0  0  0  0
  133.9995   75.8014  226.4219 H   0  0  0  0  0  0  0  0  0  0  0  0
  1  2  1  0
  2  3  2  0
  2  4  1  0
  4  5  1  0
  5  6  2  0
  6  7  1  0
  7  8  2  0
  8  9  1  0
  9 10  2  0
 10 11  1  0
 11 12  2  0
 12 13  1  0
 13 14  2  0
 14 15  1  0
 15 16  2  0
 16 17  1  0
 17 18  1  0
 17 19  2  0
 19 20  1  0
 20 21  2  0
 20 22  1  0
 22 23  1  0
 23 24  1  0
 24 25  1  0
 25 26  1  0
 26 27  1  0
 27 28  1  0
 28 29  1  0
  8 30  1  0
 30 31  2  0
 31  5  1  0
 22 11  1  0
 29 24  1  0
 19 13  1  0
  1 32  1  0
  1 33  1  0
  1 34  1  0
  4 35  1  0
  6 36  1  0
  7 37  1  0
  9 38  1  0
 10 39  1  0
 14 40  1  0
 15 41  1  0
 16 42  1  0
 23 43  1  0
 23 44  1  0
 24 45  1  0
 25 46  1  0
 25 47  1  0
 26 48  1  0
 26 49  1  0
 27 50  1  0
 28 51  1  0
 28 52  1  0
 29 53  1  0
 29 54  1  0
 30 55  1  0
 31 56  1  0
M  END
>  <smiles>  (2) 
CC(=O)Nc1ccc(/C=C/c2nc3cccc(Cl)c3c(=O)n2CC2CCNCC2)cc1

>  <score_type>  (2) 
oracle

>  <origin>  (2) 
autodockgpu

>  <m_score__min__energy>  (2) 
-8.9499999999999993

>  <m_primary>  (2) 
energy

>  <rmsd>  (2) 
7.452739887807971

>  <m_score__min__rmsd>  (2) 
7.452739887807971

>  <meeko>  (2) 
{"free_energy": -7.54, "intermolecular_energy": -9.33, "internal_energy": -1.41, "cluster_size": 3, "cluster_id": 6, "rank_in_cluster": 3}

>  <energy>  (2) 
-8.86

>  <cluster_rmsd>  (2) 
0.15

>  <cluster>  (2) 
1

$$$$

     RDKit          3D

 56 59  0  0  0  0  0  0  0  0999 V2000
  141.6340   80.0320  222.5990 C   0  0  0  0  0  0  0  0  0  0  0  0
  140.9320   78.7250  222.6380 C   0  0  0  0  0  0  0  0  0  0  0  0
  139.8910   78.5890  223.3390 O   0  0  0  0  0  0  0  0  0  0  0  0
  141.4490   77.6480  221.8820 N   0  0  0  0  0  0  0  0  0  0  0  0
  140.7990   76.3830  221.9000 C   0  0  0  0  0  0  0  0  0  0  0  0
  141.5630   75.2870  221.5390 C   0  0  0  0  0  0  0  0  0  0  0  0
  140.9600   74.0310  221.5440 C   0  0  0  0  0  0  0  0  0  0  0  0
  139.6490   73.8340  221.8900 C   0  0  0  0  0  0  0  0  0  0  0  0
  139.0000   72.5530  221.9040 C   0  0  0  0  0  0  0  0  0  0  0  0
  139.5970   71.3960  222.1210 C   0  0  0  0  0  0  0  0  0  0  0  0
  139.7780   70.8990  223.4820 C   0  0  0  0  0  0  0  0  0  0  0  0
  140.3600   71.7040  224.3880 N   0  0  0  0  0  0  0  0  0  0  0  0
  140.5920   71.3800  225.6700 C   0  0  0  0  0  0  0  0  0  0  0  0
  141.1990   72.2660  226.5540 C   0  0  0  0  0  0  0  0  0  0  0  0
  141.4170   71.8770  227.8780 C   0  0  0  0  0  0  0  0  0  0  0  0
  141.0210   70.6180  228.2690 C   0  0  0  0  0  0  0  0  0  0  0  0
  140.4170   69.7410  227.3850 C   0  0  0  0  0  0  0  0  0  0  0  0
  139.9270   68.1480  227.9260 Cl  0  0  0  0  0  0  0  0  0  0  0  0
  140.1990   70.1210  226.0760 C   0  0  0  0  0  0  0  0  0  0  0  0
  139.6020   69.2920  225.1490 C   0  0  0  0  0  0  0  0  0  0  0  0
  139.2600   68.1470  225.5750 O   0  0  0  0  0  0  0  0  0  0  0  0
  139.3890   69.6690  223.8610 N   0  0  0  0  0  0  0  0  0  0  0  0
  138.7650   68.7580  222.9220 C   0  0  0  0  0  0  0  0  0  0  0  0
  137.2730   68.7180  223.0110 C   0  0  0  0  0  0  0  0  0  0  0  0
  136.6740   69.4560  224.1590 C   0  0  0  0  0  0  0  0  0  0  0  0
  136.6320   70.9560  223.9390 C   0  0  0  0  0  0  0  0  0  0  0  0
  135.6530   71.2240  222.9080 N   0  0  0  0  0  0  0  0  0  0  0  0
  135.4500   70.1350  222.0060 C   0  0  0  0  0  0  0  0  0  0  0  0
  136.6770   69.2990  221.7430 C   0  0  0  0  0  0  0  0  0  0  0  0
  138.9310   74.9800  222.2430 C   0  0  0  0  0  0  0  0  0  0  0  0
  139.4750   76.2270  222.2540 C   0  0  0  0  0  0  0  0  0  0  0  0
  141.8203   80.3789  223.6261 H   0  0  0  0  0  0  0  0  0  0  0  0
  142.5922   79.9179  222.0710 H   0  0  0  0  0  0  0  0  0  0  0  0
  141.0098   80.7679  222.0710 H   0  0  0  0  0  0  0  0  0  0  0  0
  142.3140   77.7510  221.2960 H   0  0  0  0  0  0  0  0  0  0  0  0
  142.6193   75.4045  221.2554 H   0  0  0  0  0  0  0  0  0  0  0  0
  141.5641   73.1576  221.2571 H   0  0  0  0  0  0  0  0  0  0  0  0
  137.9159   72.5345  221.7186 H   0  0  0  0  0  0  0  0  0  0  0  0
  139.9610   70.8016  221.2700 H   0  0  0  0  0  0  0  0  0  0  0  0
  141.5052   73.2660  226.2130 H   0  0  0  0  0  0  0  0  0  0  0  0
  141.8952   72.5625  228.5931 H   0  0  0  0  0  0  0  0  0  0  0  0
  141.1886   70.3014  229.3090 H   0  0  0  0  0  0  0  0  0  0  0  0
  139.0423   69.0679  221.9036 H   0  0  0  0  0  0  0  0  0  0  0  0
  139.1251   67.7490  223.1715 H   0  0  0  0  0  0  0  0  0  0  0  0
  137.0344   67.6543  223.1582 H   0  0  0  0  0  0  0  0  0  0  0  0
  135.6462   69.0946  224.3107 H   0  0  0  0  0  0  0  0  0  0  0  0
  137.3077   69.2690  225.0385 H   0  0  0  0  0  0  0  0  0  0  0  0
  136.3423   71.4631  224.8712 H   0  0  0  0  0  0  0  0  0  0  0  0
  137.6217   71.3279  223.6354 H   0  0  0  0  0  0  0  0  0  0  0  0
  134.7340   71.4160  223.3780 H   0  0  0  0  0  0  0  0  0  0  0  0
  134.6732   69.4805  222.4281 H   0  0  0  0  0  0  0  0  0  0  0  0
  135.1635   70.5792  221.0413 H   0  0  0  0  0  0  0  0  0  0  0  0
  136.4018   68.4716  221.0724 H   0  0  0  0  0  0  0  0  0  0  0  0
  137.4350   69.9551  221.2902 H   0  0  0  0  0  0  0  0  0  0  0  0
  137.8739   74.8682  222.5259 H   0  0  0  0  0  0  0  0  0  0  0  0
  138.8678   77.0981  222.5410 H   0  0  0  0  0  0  0  0  0  0  0  0
  1  2  1  0
  2  3  2  0
  2  4  1  0
  4  5  1  0
  5  6  2  0
  6  7  1  0
  7  8  2  0
  8  9  1  0
  9 10  2  0
 10 11  1  0
 11 12  2  0
 12 13  1  0
 13 14  2  0
 14 15  1  0
 15 16  2  0
 16 17  1  0
 17 18  1  0
 17 19  2  0
 19 20  1  0
 20 21  2  0
 20 22  1  0
 22 23  1  0
 23 24  1  0
 24 25  1  0
 25 26  1  0
 26 27  1  0
 27 28  1  0
 28 29  1  0
  8 30  1  0
 30 31  2  0
 31  5  1  0
 22 11  1  0
 29 24  1  0
 19 13  1  0
  1 32  1  0
  1 33  1  0
  1 34  1  0
  4 35  1  0
  6 36  1  0
  7 37  1  0
  9 38  1  0
 10 39  1  0
 14 40  1  0
 15 41  1  0
 16 42  1  0
 23 43  1  0
 23 44  1  0
 24 45  1  0
 25 46  1  0
 25 47  1  0
 26 48  1  0
 26 49  1  0
 27 50  1  0
 28 51  1  0
 28 52  1  0
 29 53  1  0
 29 54  1  0
 30 55  1  0
 31 56  1  0
M  END
>  <smiles>  (3) 
CC(=O)Nc1ccc(/C=C/c2nc3cccc(Cl)c3c(=O)n2CC2CCNCC2)cc1

>  <score_type>  (3) 
oracle

>  <origin>  (3) 
autodockgpu

>  <m_score__min__energy>  (3) 
-8.9499999999999993

>  <m_primary>  (3) 
energy

>  <rmsd>  (3) 
11.400762302390971

>  <m_score__min__rmsd>  (3) 
11.400762302390971

>  <meeko>  (3) 
{"free_energy": -8.42, "intermolecular_energy": -10.21, "internal_energy": -1.59, "cluster_size": 15, "cluster_id": 2, "rank_in_cluster": 4}

>  <energy>  (3) 
-8.84

>  <cluster_rmsd>  (3) 
1.35

>  <cluster>  (3) 
1

$$$$

     RDKit          3D

 56 59  0  0  0  0  0  0  0  0999 V2000
  141.5520   67.7130  229.4650 C   0  0  0  0  0  0  0  0  0  0  0  0
  141.2330   68.6510  228.3600 C   0  0  0  0  0  0  0  0  0  0  0  0
  141.4590   69.8860  228.4970 O   0  0  0  0  0  0  0  0  0  0  0  0
  140.6780   68.1390  227.1660 N   0  0  0  0  0  0  0  0  0  0  0  0
  140.3620   69.0140  226.0890 C   0  0  0  0  0  0  0  0  0  0  0  0
  139.2340   68.7060  225.3490 C   0  0  0  0  0  0  0  0  0  0  0  0
  138.8940   69.5400  224.2870 C   0  0  0  0  0  0  0  0  0  0  0  0
  139.6240   70.6480  223.9440 C   0  0  0  0  0  0  0  0  0  0  0  0
  139.2980   71.5260  222.8550 C   0  0  0  0  0  0  0  0  0  0  0  0
  140.1700   72.0800  222.0330 C   0  0  0  0  0  0  0  0  0  0  0  0
  140.2510   73.5330  221.9080 C   0  0  0  0  0  0  0  0  0  0  0  0
  139.2140   74.2740  222.3360 N   0  0  0  0  0  0  0  0  0  0  0  0
  139.1500   75.6130  222.2810 C   0  0  0  0  0  0  0  0  0  0  0  0
  138.0420   76.3160  222.7450 C   0  0  0  0  0  0  0  0  0  0  0  0
  138.0280   77.7100  222.6640 C   0  0  0  0  0  0  0  0  0  0  0  0
  139.1200   78.3500  222.1230 C   0  0  0  0  0  0  0  0  0  0  0  0
  140.2190   77.6460  221.6640 C   0  0  0  0  0  0  0  0  0  0  0  0
  141.5870   78.5020  220.9830 Cl  0  0  0  0  0  0  0  0  0  0  0  0
  140.2380   76.2680  221.7420 C   0  0  0  0  0  0  0  0  0  0  0  0
  141.3030   75.5120  221.3010 C   0  0  0  0  0  0  0  0  0  0  0  0
  142.2780   76.1640  220.8160 O   0  0  0  0  0  0  0  0  0  0  0  0
  141.3190   74.1550  221.3790 N   0  0  0  0  0  0  0  0  0  0  0  0
  142.4600   73.4030  220.8960 C   0  0  0  0  0  0  0  0  0  0  0  0
  143.1870   74.0570  219.7640 C   0  0  0  0  0  0  0  0  0  0  0  0
  144.4560   74.7510  220.1270 C   0  0  0  0  0  0  0  0  0  0  0  0
  145.6140   73.7940  220.3320 C   0  0  0  0  0  0  0  0  0  0  0  0
  145.9670   73.2440  219.0410 N   0  0  0  0  0  0  0  0  0  0  0  0
  144.8890   73.2290  218.1040 C   0  0  0  0  0  0  0  0  0  0  0  0
  143.5270   73.0160  218.7160 C   0  0  0  0  0  0  0  0  0  0  0  0
  140.7520   70.9040  224.7290 C   0  0  0  0  0  0  0  0  0  0  0  0
  141.1250   70.1200  225.7760 C   0  0  0  0  0  0  0  0  0  0  0  0
  141.3822   68.2123  230.4303 H   0  0  0  0  0  0  0  0  0  0  0  0
  140.9048   66.8266  229.3918 H   0  0  0  0  0  0  0  0  0  0  0  0
  142.6054   67.4049  229.3918 H   0  0  0  0  0  0  0  0  0  0  0  0
  140.4870   67.1140  227.0410 H   0  0  0  0  0  0  0  0  0  0  0  0
  138.6219   67.8253  225.5933 H   0  0  0  0  0  0  0  0  0  0  0  0
  137.9982   69.2984  223.6961 H   0  0  0  0  0  0  0  0  0  0  0  0
  138.2346   71.7556  222.6926 H   0  0  0  0  0  0  0  0  0  0  0  0
  140.8405   71.4426  221.4379 H   0  0  0  0  0  0  0  0  0  0  0  0
  137.1835   75.7773  223.1725 H   0  0  0  0  0  0  0  0  0  0  0  0
  137.1623   78.2847  223.0250 H   0  0  0  0  0  0  0  0  0  0  0  0
  139.1188   79.4478  222.0539 H   0  0  0  0  0  0  0  0  0  0  0  0
  143.1654   73.2717  221.7298 H   0  0  0  0  0  0  0  0  0  0  0  0
  142.0717   72.4474  220.5140 H   0  0  0  0  0  0  0  0  0  0  0  0
  142.4946   74.8309  219.4012 H   0  0  0  0  0  0  0  0  0  0  0  0
  144.7173   75.4501  219.3189 H   0  0  0  0  0  0  0  0  0  0  0  0
  144.2860   75.2725  221.0805 H   0  0  0  0  0  0  0  0  0  0  0  0
  146.4738   74.3326  220.7571 H   0  0  0  0  0  0  0  0  0  0  0  0
  145.3299   72.9904  221.0274 H   0  0  0  0  0  0  0  0  0  0  0  0
  146.7270   73.8430  218.6320 H   0  0  0  0  0  0  0  0  0  0  0  0
  144.8805   74.1937  217.5756 H   0  0  0  0  0  0  0  0  0  0  0  0
  145.0681   72.3728  217.4370 H   0  0  0  0  0  0  0  0  0  0  0  0
  142.7716   73.0607  217.9176 H   0  0  0  0  0  0  0  0  0  0  0  0
  143.5360   72.0348  219.2132 H   0  0  0  0  0  0  0  0  0  0  0  0
  141.3683   71.7827  224.4881 H   0  0  0  0  0  0  0  0  0  0  0  0
  142.0217   70.3642  226.3645 H   0  0  0  0  0  0  0  0  0  0  0  0
  1  2  1  0
  2  3  2  0
  2  4  1  0
  4  5  1  0
  5  6  2  0
  6  7  1  0
  7  8  2  0
  8  9  1  0
  9 10  2  0
 10 11  1  0
 11 12  2  0
 12 13  1  0
 13 14  2  0
 14 15  1  0
 15 16  2  0
 16 17  1  0
 17 18  1  0
 17 19  2  0
 19 20  1  0
 20 21  2  0
 20 22  1  0
 22 23  1  0
 23 24  1  0
 24 25  1  0
 25 26  1  0
 26 27  1  0
 27 28  1  0
 28 29  1  0
  8 30  1  0
 30 31  2  0
 31  5  1  0
 22 11  1  0
 29 24  1  0
 19 13  1  0
  1 32  1  0
  1 33  1  0
  1 34  1  0
  4 35  1  0
  6 36  1  0
  7 37  1  0
  9 38  1  0
 10 39  1  0
 14 40  1  0
 15 41  1  0
 16 42  1  0
 23 43  1  0
 23 44  1  0
 24 45  1  0
 25 46  1  0
 25 47  1  0
 26 48  1  0
 26 49  1  0
 27 50  1  0
 28 51  1  0
 28 52  1  0
 29 53  1  0
 29 54  1  0
 30 55  1  0
 31 56  1  0
M  END
>  <smiles>  (4) 
CC(=O)Nc1ccc(/C=C/c2nc3cccc(Cl)c3c(=O)n2CC2CCNCC2)cc1

>  <score_type>  (4) 
oracle

>  <origin>  (4) 
autodockgpu

>  <m_score__min__energy>  (4) 
-8.9499999999999993

>  <m_primary>  (4) 
energy

>  <rmsd>  (4) 
5.254566782508849

>  <m_score__min__rmsd>  (4) 
5.254566782508849

>  <meeko>  (4) 
{"free_energy": -8.84, "intermolecular_energy": -10.63, "internal_energy": -0.64, "cluster_size": 5, "cluster_id": 1, "rank_in_cluster": 3}

>  <energy>  (4) 
-8.7

>  <cluster_rmsd>  (4) 
0.76

>  <cluster>  (4) 
1

$$$$

     RDKit          3D

 56 59  0  0  0  0  0  0  0  0999 V2000
  140.7480   80.6970  223.4730 C   0  0  0  0  0  0  0  0  0  0  0  0
  140.8370   79.2300  223.2710 C   0  0  0  0  0  0  0  0  0  0  0  0
  141.7560   78.5710  223.8340 O   0  0  0  0  0  0  0  0  0  0  0  0
  139.8820   78.5930  222.4470 N   0  0  0  0  0  0  0  0  0  0  0  0
  139.9420   77.1870  222.2350 C   0  0  0  0  0  0  0  0  0  0  0  0
  138.7940   76.4670  222.5180 C   0  0  0  0  0  0  0  0  0  0  0  0
  138.8160   75.0880  222.3220 C   0  0  0  0  0  0  0  0  0  0  0  0
  139.9180   74.4160  221.8630 C   0  0  0  0  0  0  0  0  0  0  0  0
  139.9710   72.9960  221.6520 C   0  0  0  0  0  0  0  0  0  0  0  0
  139.0640   72.1290  222.0610 C   0  0  0  0  0  0  0  0  0  0  0  0
  139.2990   71.3160  223.2510 C   0  0  0  0  0  0  0  0  0  0  0  0
  139.9480   71.8690  224.2900 N   0  0  0  0  0  0  0  0  0  0  0  0
  140.2350   71.2420  225.4410 C   0  0  0  0  0  0  0  0  0  0  0  0
  140.9130   71.8800  226.4770 C   0  0  0  0  0  0  0  0  0  0  0  0
  141.1850   71.1790  227.6540 C   0  0  0  0  0  0  0  0  0  0  0  0
  140.7720   69.8700  227.7540 C   0  0  0  0  0  0  0  0  0  0  0  0
  140.0990   69.2420  226.7210 C   0  0  0  0  0  0  0  0  0  0  0  0
  139.5910   67.5730  226.8910 Cl  0  0  0  0  0  0  0  0  0  0  0  0
  139.8270   69.9290  225.5550 C   0  0  0  0  0  0  0  0  0  0  0  0
  139.1600   69.3580  224.4920 C   0  0  0  0  0  0  0  0  0  0  0  0
  138.8060   68.1490  224.6490 O   0  0  0  0  0  0  0  0  0  0  0  0
  138.8940   70.0370  223.3450 N   0  0  0  0  0  0  0  0  0  0  0  0
  138.1960   69.3900  222.2520 C   0  0  0  0  0  0  0  0  0  0  0  0
  136.7360   69.7080  222.1860 C   0  0  0  0  0  0  0  0  0  0  0  0
  135.8830   68.6890  221.5100 C   0  0  0  0  0  0  0  0  0  0  0  0
  135.5930   67.4870  222.3880 C   0  0  0  0  0  0  0  0  0  0  0  0
  134.7090   67.9180  223.4490 N   0  0  0  0  0  0  0  0  0  0  0  0
  134.8150   69.3070  223.7630 C   0  0  0  0  0  0  0  0  0  0  0  0
  136.1970   69.8860  223.5920 C   0  0  0  0  0  0  0  0  0  0  0  0
  141.0450   75.1990  221.5960 C   0  0  0  0  0  0  0  0  0  0  0  0
  141.0730   76.5490  221.7710 C   0  0  0  0  0  0  0  0  0  0  0  0
  140.7346   80.9186  224.5504 H   0  0  0  0  0  0  0  0  0  0  0  0
  141.6182   81.1845  223.0092 H   0  0  0  0  0  0  0  0  0  0  0  0
  139.8252   81.0757  223.0092 H   0  0  0  0  0  0  0  0  0  0  0  0
  139.1140   79.1310  221.9750 H   0  0  0  0  0  0  0  0  0  0  0  0
  137.8886   76.9704  222.8878 H   0  0  0  0  0  0  0  0  0  0  0  0
  137.9062   74.5119  222.5462 H   0  0  0  0  0  0  0  0  0  0  0  0
  140.8386   72.5988  221.1047 H   0  0  0  0  0  0  0  0  0  0  0  0
  138.1237   72.0179  221.5011 H   0  0  0  0  0  0  0  0  0  0  0  0
  141.2316   72.9273  226.3691 H   0  0  0  0  0  0  0  0  0  0  0  0
  141.7188   71.6636  228.4848 H   0  0  0  0  0  0  0  0  0  0  0  0
  140.9819   69.3097  228.6771 H   0  0  0  0  0  0  0  0  0  0  0  0
  138.6619   69.7087  221.3079 H   0  0  0  0  0  0  0  0  0  0  0  0
  138.2771   68.3061  222.4214 H   0  0  0  0  0  0  0  0  0  0  0  0
  136.6790   70.6226  221.5776 H   0  0  0  0  0  0  0  0  0  0  0  0
  134.9282   69.1591  221.2317 H   0  0  0  0  0  0  0  0  0  0  0  0
  136.4339   68.3291  220.6285 H   0  0  0  0  0  0  0  0  0  0  0  0
  135.1082   66.6980  221.7943 H   0  0  0  0  0  0  0  0  0  0  0  0
  136.5264   67.0821  222.8060 H   0  0  0  0  0  0  0  0  0  0  0  0
  133.7210   67.7420  223.1370 H   0  0  0  0  0  0  0  0  0  0  0  0
  134.1275   69.8605  223.1065 H   0  0  0  0  0  0  0  0  0  0  0  0
  134.5659   69.4052  224.8299 H   0  0  0  0  0  0  0  0  0  0  0  0
  136.1589   70.9613  223.8208 H   0  0  0  0  0  0  0  0  0  0  0  0
  136.8696   69.3482  224.2763 H   0  0  0  0  0  0  0  0  0  0  0  0
  141.9532   74.7002  221.2266 H   0  0  0  0  0  0  0  0  0  0  0  0
  141.9844   77.1222  221.5456 H   0  0  0  0  0  0  0  0  0  0  0  0
  1  2  1  0
  2  3  2  0
  2  4  1  0
  4  5  1  0
  5  6  2  0
  6  7  1  0
  7  8  2  0
  8  9  1  0
  9 10  2  0
 10 11  1  0
 11 12  2  0
 12 13  1  0
 13 14  2  0
 14 15  1  0
 15 16  2  0
 16 17  1  0
 17 18  1  0
 17 19  2  0
 19 20  1  0
 20 21  2  0
 20 22  1  0
 22 23  1  0
 23 24  1  0
 24 25  1  0
 25 26  1  0
 26 27  1  0
 27 28  1  0
 28 29  1  0
  8 30  1  0
 30 31  2  0
 31  5  1  0
 22 11  1  0
 29 24  1  0
 19 13  1  0
  1 32  1  0
  1 33  1  0
  1 34  1  0
  4 35  1  0
  6 36  1  0
  7 37  1  0
  9 38  1  0
 10 39  1  0
 14 40  1  0
 15 41  1  0
 16 42  1  0
 23 43  1  0
 23 44  1  0
 24 45  1  0
 25 46  1  0
 25 47  1  0
 26 48  1  0
 26 49  1  0
 27 50  1  0
 28 51  1  0
 28 52  1  0
 29 53  1  0
 29 54  1  0
 30 55  1  0
 31 56  1  0
M  END
>  <smiles>  (5) 
CC(=O)Nc1ccc(/C=C/c2nc3cccc(Cl)c3c(=O)n2CC2CCNCC2)cc1

>  <score_type>  (5) 
oracle

>  <origin>  (5) 
autodockgpu

>  <m_score__min__energy>  (5) 
-8.9499999999999993

>  <m_primary>  (5) 
energy

>  <rmsd>  (5) 
11.431335876294927

>  <m_score__min__rmsd>  (5) 
11.431335876294927

>  <meeko>  (5) 
{"free_energy": -8.39, "intermolecular_energy": -10.18, "internal_energy": -1.46, "cluster_size": 15, "cluster_id": 2, "rank_in_cluster": 5}

>  <energy>  (5) 
-7.42

>  <cluster_rmsd>  (5) 
1.48

>  <cluster>  (5) 
1

$$$$

     RDKit          3D

 56 59  0  0  0  0  0  0  0  0999 V2000
  132.4390   73.6520  227.4390 C   0  0  0  0  0  0  0  0  0  0  0  0
  133.3040   72.8610  226.5290 C   0  0  0  0  0  0  0  0  0  0  0  0
  134.3690   73.3650  226.0750 O   0  0  0  0  0  0  0  0  0  0  0  0
  132.9140   71.5460  226.1870 N   0  0  0  0  0  0  0  0  0  0  0  0
  133.7220   70.7620  225.3170 C   0  0  0  0  0  0  0  0  0  0  0  0
  134.7720   70.0730  225.8970 C   0  0  0  0  0  0  0  0  0  0  0  0
  135.5850   69.2950  225.0760 C   0  0  0  0  0  0  0  0  0  0  0  0
  135.3910   69.1830  223.7250 C   0  0  0  0  0  0  0  0  0  0  0  0
  136.2120   68.3900  222.8530 C   0  0  0  0  0  0  0  0  0  0  0  0
  137.5190   68.5140  222.7110 C   0  0  0  0  0  0  0  0  0  0  0  0
  138.3420   68.9950  223.8170 C   0  0  0  0  0  0  0  0  0  0  0  0
  138.8520   68.0950  224.6770 N   0  0  0  0  0  0  0  0  0  0  0  0
  139.6200   68.3930  225.7360 C   0  0  0  0  0  0  0  0  0  0  0  0
  140.1150   67.4070  226.5860 C   0  0  0  0  0  0  0  0  0  0  0  0
  140.9100   67.7730  227.6750 C   0  0  0  0  0  0  0  0  0  0  0  0
  141.1820   69.1080  227.8740 C   0  0  0  0  0  0  0  0  0  0  0  0
  140.6880   70.0830  227.0250 C   0  0  0  0  0  0  0  0  0  0  0  0
  141.0610   71.7700  227.3160 Cl  0  0  0  0  0  0  0  0  0  0  0  0
  139.9020   69.7270  225.9480 C   0  0  0  0  0  0  0  0  0  0  0  0
  139.3810   70.6520  225.0680 C   0  0  0  0  0  0  0  0  0  0  0  0
  139.6710   71.8640  225.3080 O   0  0  0  0  0  0  0  0  0  0  0  0
  138.6070   70.2990  224.0090 N   0  0  0  0  0  0  0  0  0  0  0  0
  138.0760   71.3100  223.1150 C   0  0  0  0  0  0  0  0  0  0  0  0
  138.9760   71.6440  221.9690 C   0  0  0  0  0  0  0  0  0  0  0  0
  138.6360   72.8900  221.2240 C   0  0  0  0  0  0  0  0  0  0  0  0
  139.0720   74.1480  221.9480 C   0  0  0  0  0  0  0  0  0  0  0  0
  140.5180   74.2000  221.9130 N   0  0  0  0  0  0  0  0  0  0  0  0
  141.1400   72.9200  221.7960 C   0  0  0  0  0  0  0  0  0  0  0  0
  140.3980   71.7950  222.4740 C   0  0  0  0  0  0  0  0  0  0  0  0
  134.3150   69.9040  223.1990 C   0  0  0  0  0  0  0  0  0  0  0  0
  133.4930   70.6760  223.9600 C   0  0  0  0  0  0  0  0  0  0  0  0
  132.6946   73.4183  228.4830 H   0  0  0  0  0  0  0  0  0  0  0  0
  132.5967   74.7248  227.2543 H   0  0  0  0  0  0  0  0  0  0  0  0
  131.3845   73.3992  227.2543 H   0  0  0  0  0  0  0  0  0  0  0  0
  132.0310   71.1180  226.5590 H   0  0  0  0  0  0  0  0  0  0  0  0
  134.9601   70.1378  226.9789 H   0  0  0  0  0  0  0  0  0  0  0  0
  136.4209   68.7456  225.5337 H   0  0  0  0  0  0  0  0  0  0  0  0
  135.7106   67.6155  222.2541 H   0  0  0  0  0  0  0  0  0  0  0  0
  137.9912   68.2530  221.7524 H   0  0  0  0  0  0  0  0  0  0  0  0
  139.8818   66.3480  226.4013 H   0  0  0  0  0  0  0  0  0  0  0  0
  141.3103   67.0104  228.3593 H   0  0  0  0  0  0  0  0  0  0  0  0
  141.8071   69.4068  228.7284 H   0  0  0  0  0  0  0  0  0  0  0  0
  137.1208   70.9453  222.7093 H   0  0  0  0  0  0  0  0  0  0  0  0
  137.9620   72.2296  223.7077 H   0  0  0  0  0  0  0  0  0  0  0  0
  138.8497   70.8084  221.2648 H   0  0  0  0  0  0  0  0  0  0  0  0
  139.1333   72.8593  220.2433 H   0  0  0  0  0  0  0  0  0  0  0  0
  137.5410   72.9279  221.1269 H   0  0  0  0  0  0  0  0  0  0  0  0
  138.6535   75.0328  221.4460 H   0  0  0  0  0  0  0  0  0  0  0  0
  138.7130   74.1369  222.9877 H   0  0  0  0  0  0  0  0  0  0  0  0
  140.8000   74.7630  221.0730 H   0  0  0  0  0  0  0  0  0  0  0  0
  141.2271   72.6777  220.7266 H   0  0  0  0  0  0  0  0  0  0  0  0
  142.1135   72.9999  222.3019 H   0  0  0  0  0  0  0  0  0  0  0  0
  140.9388   70.8551  222.2893 H   0  0  0  0  0  0  0  0  0  0  0  0
  140.3463   72.0303  223.5473 H   0  0  0  0  0  0  0  0  0  0  0  0
  134.1237   69.8442  222.1174 H   0  0  0  0  0  0  0  0  0  0  0  0
  132.6577   71.2237  223.4994 H   0  0  0  0  0  0  0  0  0  0  0  0
  1  2  1  0
  2  3  2  0
  2  4  1  0
  4  5  1  0
  5  6  2  0
  6  7  1  0
  7  8  2  0
  8  9  1  0
  9 10  2  0
 10 11  1  0
 11 12  2  0
 12 13  1  0
 13 14  2  0
 14 15  1  0
 15 16  2  0
 16 17  1  0
 17 18  1  0
 17 19  2  0
 19 20  1  0
 20 21  2  0
 20 22  1  0
 22 23  1  0
 23 24  1  0
 24 25  1  0
 25 26  1  0
 26 27  1  0
 27 28  1  0
 28 29  1  0
  8 30  1  0
 30 31  2  0
 31  5  1  0
 22 11  1  0
 29 24  1  0
 19 13  1  0
  1 32  1  0
  1 33  1  0
  1 34  1  0
  4 35  1  0
  6 36  1  0
  7 37  1  0
  9 38  1  0
 10 39  1  0
 14 40  1  0
 15 41  1  0
 16 42  1  0
 23 43  1  0
 23 44  1  0
 24 45  1  0
 25 46  1  0
 25 47  1  0
 26 48  1  0
 26 49  1  0
 27 50  1  0
 28 51  1  0
 28 52  1  0
 29 53  1  0
 29 54  1  0
 30 55  1  0
 31 56  1  0
M  END
>  <smiles>  (6) 
CC(=O)Nc1ccc(/C=C/c2nc3cccc(Cl)c3c(=O)n2CC2CCNCC2)cc1

>  <score_type>  (6) 
oracle

>  <origin>  (6) 
autodockgpu

>  <m_score__min__energy>  (6) 
-8.9499999999999993

>  <m_primary>  (6) 
energy

>  <rmsd>  (6) 
11.092686156870409

>  <m_score__min__rmsd>  (6) 
11.092686156870409

>  <meeko>  (6) 
{"free_energy": -8.09, "intermolecular_energy": -9.88, "internal_energy": -1.8, "cluster_size": 17, "cluster_id": 3, "rank_in_cluster": 2}

>  <energy>  (6) 
-8.64

>  <cluster_rmsd>  (6) 
0.0

>  <cluster>  (6) 
2

$$$$

     RDKit          3D

 56 59  0  0  0  0  0  0  0  0999 V2000
  142.1410   80.3430  222.8120 C   0  0  0  0  0  0  0  0  0  0  0  0
  141.6920   78.9300  222.8760 C   0  0  0  0  0  0  0  0  0  0  0  0
  141.8250   78.2750  223.9470 O   0  0  0  0  0  0  0  0  0  0  0  0
  141.1180   78.3420  221.7260 N   0  0  0  0  0  0  0  0  0  0  0  0
  140.6780   76.9890  221.7570 C   0  0  0  0  0  0  0  0  0  0  0  0
  139.4280   76.7550  222.3030 C   0  0  0  0  0  0  0  0  0  0  0  0
  138.9640   75.4430  222.3510 C   0  0  0  0  0  0  0  0  0  0  0  0
  139.6870   74.3780  221.8820 C   0  0  0  0  0  0  0  0  0  0  0  0
  139.2360   73.0150  221.9170 C   0  0  0  0  0  0  0  0  0  0  0  0
  140.0030   71.9610  222.1260 C   0  0  0  0  0  0  0  0  0  0  0  0
  140.0380   71.3180  223.4370 C   0  0  0  0  0  0  0  0  0  0  0  0
  140.6030   71.9790  224.4620 N   0  0  0  0  0  0  0  0  0  0  0  0
  140.7090   71.5120  225.7160 C   0  0  0  0  0  0  0  0  0  0  0  0
  141.3070   72.2540  226.7290 C   0  0  0  0  0  0  0  0  0  0  0  0
  141.3900   71.7190  228.0170 C   0  0  0  0  0  0  0  0  0  0  0  0
  140.8730   70.4630  228.2440 C   0  0  0  0  0  0  0  0  0  0  0  0
  140.2790   69.7300  227.2320 C   0  0  0  0  0  0  0  0  0  0  0  0
  139.6330   68.1370  227.5670 Cl  0  0  0  0  0  0  0  0  0  0  0  0
  140.1940   70.2550  225.9580 C   0  0  0  0  0  0  0  0  0  0  0  0
  139.6140   69.5730  224.9090 C   0  0  0  0  0  0  0  0  0  0  0  0
  139.1550   68.4230  225.1870 O   0  0  0  0  0  0  0  0  0  0  0  0
  139.5320   70.0920  223.6560 N   0  0  0  0  0  0  0  0  0  0  0  0
  138.9190   69.3330  222.5830 C   0  0  0  0  0  0  0  0  0  0  0  0
  137.5210   69.7540  222.2590 C   0  0  0  0  0  0  0  0  0  0  0  0
  136.7160   68.7720  221.4790 C   0  0  0  0  0  0  0  0  0  0  0  0
  136.1870   67.6340  222.3290 C   0  0  0  0  0  0  0  0  0  0  0  0
  135.1740   68.1740  223.2090 N   0  0  0  0  0  0  0  0  0  0  0  0
  135.3360   69.5640  223.4950 C   0  0  0  0  0  0  0  0  0  0  0  0
  136.7690   70.0320  223.5460 C   0  0  0  0  0  0  0  0  0  0  0  0
  140.9420   74.6790  221.3430 C   0  0  0  0  0  0  0  0  0  0  0  0
  141.4380   75.9450  221.2750 C   0  0  0  0  0  0  0  0  0  0  0  0
  142.2655   80.7348  223.8323 H   0  0  0  0  0  0  0  0  0  0  0  0
  143.1011   80.3988  222.2781 H   0  0  0  0  0  0  0  0  0  0  0  0
  141.3892   80.9428  222.2781 H   0  0  0  0  0  0  0  0  0  0  0  0
  141.0030   78.8780  220.8310 H   0  0  0  0  0  0  0  0  0  0  0  0
  138.8168   77.5841  222.6891 H   0  0  0  0  0  0  0  0  0  0  0  0
  137.9714   75.2530  222.7854 H   0  0  0  0  0  0  0  0  0  0  0  0
  138.1629   72.8343  221.7564 H   0  0  0  0  0  0  0  0  0  0  0  0
  140.6204   71.5641  221.3067 H   0  0  0  0  0  0  0  0  0  0  0  0
  141.7117   73.2548  226.5177 H   0  0  0  0  0  0  0  0  0  0  0  0
  141.8585   72.2892  228.8327 H   0  0  0  0  0  0  0  0  0  0  0  0
  140.9337   70.0321  229.2543 H   0  0  0  0  0  0  0  0  0  0  0  0
  139.5344   69.4535  221.6792 H   0  0  0  0  0  0  0  0  0  0  0  0
  138.8650   68.2885  222.9238 H   0  0  0  0  0  0  0  0  0  0  0  0
  137.6400   70.6432  221.6225 H   0  0  0  0  0  0  0  0  0  0  0  0
  135.8624   69.2984  221.0270 H   0  0  0  0  0  0  0  0  0  0  0  0
  137.3778   68.3344  220.7171 H   0  0  0  0  0  0  0  0  0  0  0  0
  135.7480   66.8582  221.6845 H   0  0  0  0  0  0  0  0  0  0  0  0
  137.0010   67.1797  222.9129 H   0  0  0  0  0  0  0  0  0  0  0  0
  134.2420   68.0580  222.7390 H   0  0  0  0  0  0  0  0  0  0  0  0
  134.8153   70.1378  222.7142 H   0  0  0  0  0  0  0  0  0  0  0  0
  134.9193   69.7260  224.5000 H   0  0  0  0  0  0  0  0  0  0  0  0
  136.7788   71.1161  223.7323 H   0  0  0  0  0  0  0  0  0  0  0  0
  137.2717   69.4765  224.3514 H   0  0  0  0  0  0  0  0  0  0  0  0
  141.5575   73.8537  220.9557 H   0  0  0  0  0  0  0  0  0  0  0  0
  142.4315   76.1322  220.8414 H   0  0  0  0  0  0  0  0  0  0  0  0
  1  2  1  0
  2  3  2  0
  2  4  1  0
  4  5  1  0
  5  6  2  0
  6  7  1  0
  7  8  2  0
  8  9  1  0
  9 10  2  0
 10 11  1  0
 11 12  2  0
 12 13  1  0
 13 14  2  0
 14 15  1  0
 15 16  2  0
 16 17  1  0
 17 18  1  0
 17 19  2  0
 19 20  1  0
 20 21  2  0
 20 22  1  0
 22 23  1  0
 23 24  1  0
 24 25  1  0
 25 26  1  0
 26 27  1  0
 27 28  1  0
 28 29  1  0
  8 30  1  0
 30 31  2  0
 31  5  1  0
 22 11  1  0
 29 24  1  0
 19 13  1  0
  1 32  1  0
  1 33  1  0
  1 34  1  0
  4 35  1  0
  6 36  1  0
  7 37  1  0
  9 38  1  0
 10 39  1  0
 14 40  1  0
 15 41  1  0
 16 42  1  0
 23 43  1  0
 23 44  1  0
 24 45  1  0
 25 46  1  0
 25 47  1  0
 26 48  1  0
 26 49  1  0
 27 50  1  0
 28 51  1  0
 28 52  1  0
 29 53  1  0
 29 54  1  0
 30 55  1  0
 31 56  1  0
M  END
>  <smiles>  (7) 
CC(=O)Nc1ccc(/C=C/c2nc3cccc(Cl)c3c(=O)n2CC2CCNCC2)cc1

>  <score_type>  (7) 
oracle

>  <origin>  (7) 
autodockgpu

>  <m_score__min__energy>  (7) 
-8.9499999999999993

>  <m_primary>  (7) 
energy

>  <rmsd>  (7) 
11.142071937046145

>  <m_score__min__rmsd>  (7) 
11.142071937046145

>  <meeko>  (7) 
{"free_energy": -8.64, "intermolecular_energy": -10.43, "internal_energy": -1.54, "cluster_size": 15, "cluster_id": 2, "rank_in_cluster": 1}

>  <energy>  (7) 
-8.49

>  <cluster_rmsd>  (7) 
0.65

>  <cluster>  (7) 
2

$$$$

     RDKit          3D

 56 59  0  0  0  0  0  0  0  0999 V2000
  142.0590   80.3220  222.7780 C   0  0  0  0  0  0  0  0  0  0  0  0
  141.7320   78.8740  222.7870 C   0  0  0  0  0  0  0  0  0  0  0  0
  141.8040   78.2190  223.8640 O   0  0  0  0  0  0  0  0  0  0  0  0
  141.3430   78.2530  221.5780 N   0  0  0  0  0  0  0  0  0  0  0  0
  141.0230   76.8670  221.5550 C   0  0  0  0  0  0  0  0  0  0  0  0
  139.8860   76.4800  222.2410 C   0  0  0  0  0  0  0  0  0  0  0  0
  139.5420   75.1310  222.2410 C   0  0  0  0  0  0  0  0  0  0  0  0
  140.2770   74.1730  221.5930 C   0  0  0  0  0  0  0  0  0  0  0  0
  139.9480   72.7750  221.5750 C   0  0  0  0  0  0  0  0  0  0  0  0
  138.9660   72.2120  222.2540 C   0  0  0  0  0  0  0  0  0  0  0  0
  139.2540   71.3520  223.3990 C   0  0  0  0  0  0  0  0  0  0  0  0
  139.9040   71.8790  224.4510 N   0  0  0  0  0  0  0  0  0  0  0  0
  140.2370   71.2080  225.5650 C   0  0  0  0  0  0  0  0  0  0  0  0
  140.9120   71.8200  226.6180 C   0  0  0  0  0  0  0  0  0  0  0  0
  141.2330   71.0740  227.7550 C   0  0  0  0  0  0  0  0  0  0  0  0
  140.8700   69.7470  227.7980 C   0  0  0  0  0  0  0  0  0  0  0  0
  140.2000   69.1450  226.7480 C   0  0  0  0  0  0  0  0  0  0  0  0
  139.7560   67.4530  226.8460 Cl  0  0  0  0  0  0  0  0  0  0  0  0
  139.8790   69.8770  225.6220 C   0  0  0  0  0  0  0  0  0  0  0  0
  139.2120   69.3330  224.5450 C   0  0  0  0  0  0  0  0  0  0  0  0
  138.9050   68.1060  224.6500 O   0  0  0  0  0  0  0  0  0  0  0  0
  138.8980   70.0560  223.4380 N   0  0  0  0  0  0  0  0  0  0  0  0
  138.2020   69.4370  222.3270 C   0  0  0  0  0  0  0  0  0  0  0  0
  136.7380   69.7360  222.2820 C   0  0  0  0  0  0  0  0  0  0  0  0
  135.9000   68.7500  221.5410 C   0  0  0  0  0  0  0  0  0  0  0  0
  135.6290   67.4890  222.3380 C   0  0  0  0  0  0  0  0  0  0  0  0
  134.7380   67.8360  223.4240 N   0  0  0  0  0  0  0  0  0  0  0  0
  134.8230   69.2040  223.8280 C   0  0  0  0  0  0  0  0  0  0  0  0
  136.1960   69.8140  223.6960 C   0  0  0  0  0  0  0  0  0  0  0  0
  141.4140   74.6270  220.9190 C   0  0  0  0  0  0  0  0  0  0  0  0
  141.7910   75.9340  220.8910 C   0  0  0  0  0  0  0  0  0  0  0  0
  142.1412   80.6858  223.8128 H   0  0  0  0  0  0  0  0  0  0  0  0
  143.0152   80.4787  222.2572 H   0  0  0  0  0  0  0  0  0  0  0  0
  141.2630   80.8744  222.2572 H   0  0  0  0  0  0  0  0  0  0  0  0
  141.2800   78.7900  220.6780 H   0  0  0  0  0  0  0  0  0  0  0  0
  139.2693   77.2193  222.7730 H   0  0  0  0  0  0  0  0  0  0  0  0
  138.6387   74.8198  222.7862 H   0  0  0  0  0  0  0  0  0  0  0  0
  140.5653   72.1194  220.9432 H   0  0  0  0  0  0  0  0  0  0  0  0
  137.9227   72.3919  221.9553 H   0  0  0  0  0  0  0  0  0  0  0  0
  141.1903   72.8824  226.5552 H   0  0  0  0  0  0  0  0  0  0  0  0
  141.7650   71.5378  228.5987 H   0  0  0  0  0  0  0  0  0  0  0  0
  141.1186   69.1510  228.6885 H   0  0  0  0  0  0  0  0  0  0  0  0
  138.6568   69.7951  221.3916 H   0  0  0  0  0  0  0  0  0  0  0  0
  138.3000   68.3492  222.4573 H   0  0  0  0  0  0  0  0  0  0  0  0
  136.6676   70.6876  221.7348 H   0  0  0  0  0  0  0  0  0  0  0  0
  134.9379   69.2226  221.2939 H   0  0  0  0  0  0  0  0  0  0  0  0
  136.4559   68.4568  220.6382 H   0  0  0  0  0  0  0  0  0  0  0  0
  135.1568   66.7330  221.6934 H   0  0  0  0  0  0  0  0  0  0  0  0
  136.5686   67.0722  222.7297 H   0  0  0  0  0  0  0  0  0  0  0  0
  133.7540   67.6660  223.1010 H   0  0  0  0  0  0  0  0  0  0  0  0
  134.1270   69.7885  223.2084 H   0  0  0  0  0  0  0  0  0  0  0  0
  134.5728   69.2287  224.8989 H   0  0  0  0  0  0  0  0  0  0  0  0
  136.1413   70.8715  223.9940 H   0  0  0  0  0  0  0  0  0  0  0  0
  136.8768   69.2431  224.3445 H   0  0  0  0  0  0  0  0  0  0  0  0
  142.0343   73.8919  220.3852 H   0  0  0  0  0  0  0  0  0  0  0  0
  142.6957   76.2420  220.3464 H   0  0  0  0  0  0  0  0  0  0  0  0
  1  2  1  0
  2  3  2  0
  2  4  1  0
  4  5  1  0
  5  6  2  0
  6  7  1  0
  7  8  2  0
  8  9  1  0
  9 10  2  0
 10 11  1  0
 11 12  2  0
 12 13  1  0
 13 14  2  0
 14 15  1  0
 15 16  2  0
 16 17  1  0
 17 18  1  0
 17 19  2  0
 19 20  1  0
 20 21  2  0
 20 22  1  0
 22 23  1  0
 23 24  1  0
 24 25  1  0
 25 26  1  0
 26 27  1  0
 27 28  1  0
 28 29  1  0
  8 30  1  0
 30 31  2  0
 31  5  1  0
 22 11  1  0
 29 24  1  0
 19 13  1  0
  1 32  1  0
  1 33  1  0
  1 34  1  0
  4 35  1  0
  6 36  1  0
  7 37  1  0
  9 38  1  0
 10 39  1  0
 14 40  1  0
 15 41  1  0
 16 42  1  0
 23 43  1  0
 23 44  1  0
 24 45  1  0
 25 46  1  0
 25 47  1  0
 26 48  1  0
 26 49  1  0
 27 50  1  0
 28 51  1  0
 28 52  1  0
 29 53  1  0
 29 54  1  0
 30 55  1  0
 31 56  1  0
M  END
>  <smiles>  (8) 
CC(=O)Nc1ccc(/C=C/c2nc3cccc(Cl)c3c(=O)n2CC2CCNCC2)cc1

>  <score_type>  (8) 
oracle

>  <origin>  (8) 
autodockgpu

>  <m_score__min__energy>  (8) 
-8.9499999999999993

>  <m_primary>  (8) 
energy

>  <rmsd>  (8) 
11.482636107816253

>  <m_score__min__rmsd>  (8) 
11.482636107816253

>  <meeko>  (8) 
{"free_energy": -8.49, "intermolecular_energy": -10.28, "internal_energy": -1.44, "cluster_size": 15, "cluster_id": 2, "rank_in_cluster": 2}

>  <energy>  (8) 
-8.46

>  <cluster_rmsd>  (8) 
0.65

>  <cluster>  (8) 
2

$$$$

     RDKit          3D

 56 59  0  0  0  0  0  0  0  0999 V2000
  131.3360   72.8550  227.8630 C   0  0  0  0  0  0  0  0  0  0  0  0
  132.0330   72.0800  226.8070 C   0  0  0  0  0  0  0  0  0  0  0  0
  131.4210   71.7650  225.7490 O   0  0  0  0  0  0  0  0  0  0  0  0
  133.3820   71.7080  227.0090 N   0  0  0  0  0  0  0  0  0  0  0  0
  134.0770   70.9650  226.0150 C   0  0  0  0  0  0  0  0  0  0  0  0
  134.2370   69.6100  226.2490 C   0  0  0  0  0  0  0  0  0  0  0  0
  134.9130   68.8510  225.2980 C   0  0  0  0  0  0  0  0  0  0  0  0
  135.4240   69.3830  224.1440 C   0  0  0  0  0  0  0  0  0  0  0  0
  136.1250   68.6260  223.1450 C   0  0  0  0  0  0  0  0  0  0  0  0
  137.4360   68.5920  222.9910 C   0  0  0  0  0  0  0  0  0  0  0  0
  138.3190   69.0660  224.0540 C   0  0  0  0  0  0  0  0  0  0  0  0
  138.7950   68.1730  224.9400 N   0  0  0  0  0  0  0  0  0  0  0  0
  139.6100   68.4650  225.9660 C   0  0  0  0  0  0  0  0  0  0  0  0
  140.0640   67.4870  226.8460 C   0  0  0  0  0  0  0  0  0  0  0  0
  140.9120   67.8480  227.8960 C   0  0  0  0  0  0  0  0  0  0  0  0
  141.2730   69.1690  228.0290 C   0  0  0  0  0  0  0  0  0  0  0  0
  140.8180   70.1370  227.1510 C   0  0  0  0  0  0  0  0  0  0  0  0
  141.3050   71.8070  227.3570 Cl  0  0  0  0  0  0  0  0  0  0  0  0
  139.9800   69.7860  226.1100 C   0  0  0  0  0  0  0  0  0  0  0  0
  139.4950   70.7050  225.2040 C   0  0  0  0  0  0  0  0  0  0  0  0
  139.8680   71.9050  225.3820 O   0  0  0  0  0  0  0  0  0  0  0  0
  138.6710   70.3570  224.1810 N   0  0  0  0  0  0  0  0  0  0  0  0
  138.1800   71.3610  223.2570 C   0  0  0  0  0  0  0  0  0  0  0  0
  139.0580   71.5760  222.0660 C   0  0  0  0  0  0  0  0  0  0  0  0
  138.8070   72.8270  221.2960 C   0  0  0  0  0  0  0  0  0  0  0  0
  139.3910   74.0570  221.9630 C   0  0  0  0  0  0  0  0  0  0  0  0
  140.8330   73.9680  221.8690 N   0  0  0  0  0  0  0  0  0  0  0  0
  141.3250   72.6310  221.7680 C   0  0  0  0  0  0  0  0  0  0  0  0
  140.5090   71.6030  222.5090 C   0  0  0  0  0  0  0  0  0  0  0  0
  135.2300   70.7560  223.9650 C   0  0  0  0  0  0  0  0  0  0  0  0
  134.5770   71.5400  224.8650 C   0  0  0  0  0  0  0  0  0  0  0  0
  131.6573   72.4977  228.8525 H   0  0  0  0  0  0  0  0  0  0  0  0
  131.5848   73.9215  227.7597 H   0  0  0  0  0  0  0  0  0  0  0  0
  130.2492   72.7203  227.7597 H   0  0  0  0  0  0  0  0  0  0  0  0
  133.9000   71.9660  227.8850 H   0  0  0  0  0  0  0  0  0  0  0  0
  133.8400   69.1449  227.1633 H   0  0  0  0  0  0  0  0  0  0  0  0
  135.0428   67.7743  225.4818 H   0  0  0  0  0  0  0  0  0  0  0  0
  135.5197   68.0247  222.4507 H   0  0  0  0  0  0  0  0  0  0  0  0
  137.8662   68.2041  222.0559 H   0  0  0  0  0  0  0  0  0  0  0  0
  139.7577   66.4385  226.7159 H   0  0  0  0  0  0  0  0  0  0  0  0
  141.2837   67.0911  228.6024 H   0  0  0  0  0  0  0  0  0  0  0  0
  141.9395   69.4628  228.8533 H   0  0  0  0  0  0  0  0  0  0  0  0
  137.1870   71.0477  222.9021 H   0  0  0  0  0  0  0  0  0  0  0  0
  138.1536   72.3129  223.8076 H   0  0  0  0  0  0  0  0  0  0  0  0
  138.8222   70.7376  221.3940 H   0  0  0  0  0  0  0  0  0  0  0  0
  139.2576   72.7214  220.2981 H   0  0  0  0  0  0  0  0  0  0  0  0
  137.7174   72.9675  221.2401 H   0  0  0  0  0  0  0  0  0  0  0  0
  139.0378   74.9640  221.4506 H   0  0  0  0  0  0  0  0  0  0  0  0
  139.0768   74.1092  223.0159 H   0  0  0  0  0  0  0  0  0  0  0  0
  141.1320   74.4780  221.0020 H   0  0  0  0  0  0  0  0  0  0  0  0
  141.3436   72.3520  220.7041 H   0  0  0  0  0  0  0  0  0  0  0  0
  142.3221   72.6305  222.2325 H   0  0  0  0  0  0  0  0  0  0  0  0
  140.9492   70.6105  222.3325 H   0  0  0  0  0  0  0  0  0  0  0  0
  140.5256   71.8719  223.5755 H   0  0  0  0  0  0  0  0  0  0  0  0
  135.6246   71.2253  223.0518 H   0  0  0  0  0  0  0  0  0  0  0  0
  134.4496   72.6166  224.6784 H   0  0  0  0  0  0  0  0  0  0  0  0
  1  2  1  0
  2  3  2  0
  2  4  1  0
  4  5  1  0
  5  6  2  0
  6  7  1  0
  7  8  2  0
  8  9  1  0
  9 10  2  0
 10 11  1  0
 11 12  2  0
 12 13  1  0
 13 14  2  0
 14 15  1  0
 15 16  2  0
 16 17  1  0
 17 18  1  0
 17 19  2  0
 19 20  1  0
 20 21  2  0
 20 22  1  0
 22 23  1  0
 23 24  1  0
 24 25  1  0
 25 26  1  0
 26 27  1  0
 27 28  1  0
 28 29  1  0
  8 30  1  0
 30 31  2  0
 31  5  1  0
 22 11  1  0
 29 24  1  0
 19 13  1  0
  1 32  1  0
  1 33  1  0
  1 34  1  0
  4 35  1  0
  6 36  1  0
  7 37  1  0
  9 38  1  0
 10 39  1  0
 14 40  1  0
 15 41  1  0
 16 42  1  0
 23 43  1  0
 23 44  1  0
 24 45  1  0
 25 46  1  0
 25 47  1  0
 26 48  1  0
 26 49  1  0
 27 50  1  0
 28 51  1  0
 28 52  1  0
 29 53  1  0
 29 54  1  0
 30 55  1  0
 31 56  1  0
M  END
>  <smiles>  (9) 
CC(=O)Nc1ccc(/C=C/c2nc3cccc(Cl)c3c(=O)n2CC2CCNCC2)cc1

>  <score_type>  (9) 
oracle

>  <origin>  (9) 
autodockgpu

>  <m_score__min__energy>  (9) 
-8.9499999999999993

>  <m_primary>  (9) 
energy

>  <rmsd>  (9) 
11.11359982282016

>  <m_score__min__rmsd>  (9) 
11.11359982282016

>  <meeko>  (9) 
{"free_energy": -7.98, "intermolecular_energy": -9.77, "internal_energy": -1.81, "cluster_size": 17, "cluster_id": 3, "rank_in_cluster": 9}

>  <energy>  (9) 
-8.42

>  <cluster_rmsd>  (9) 
1.13

>  <cluster>  (9) 
2

$$$$

     RDKit          3D

 56 59  0  0  0  0  0  0  0  0999 V2000
  142.7160   82.4080  216.3490 C   0  0  0  0  0  0  0  0  0  0  0  0
  142.2980   81.3910  217.3450 C   0  0  0  0  0  0  0  0  0  0  0  0
  141.9080   81.7540  218.4900 O   0  0  0  0  0  0  0  0  0  0  0  0
  142.3440   80.0250  216.9890 N   0  0  0  0  0  0  0  0  0  0  0  0
  141.9490   79.0270  217.9220 C   0  0  0  0  0  0  0  0  0  0  0  0
  142.9570   78.2470  218.4620 C   0  0  0  0  0  0  0  0  0  0  0  0
  142.6080   77.2590  219.3800 C   0  0  0  0  0  0  0  0  0  0  0  0
  141.3150   77.0260  219.7700 C   0  0  0  0  0  0  0  0  0  0  0  0
  140.9250   76.0160  220.7130 C   0  0  0  0  0  0  0  0  0  0  0  0
  140.6920   76.2170  221.9970 C   0  0  0  0  0  0  0  0  0  0  0  0
  139.7410   77.2380  222.4270 C   0  0  0  0  0  0  0  0  0  0  0  0
  138.4540   77.1130  222.0580 N   0  0  0  0  0  0  0  0  0  0  0  0
  137.4740   77.9740  222.3770 C   0  0  0  0  0  0  0  0  0  0  0  0
  136.1610   77.7810  221.9600 C   0  0  0  0  0  0  0  0  0  0  0  0
  135.1810   78.7090  222.3210 C   0  0  0  0  0  0  0  0  0  0  0  0
  135.5490   79.7940  223.0840 C   0  0  0  0  0  0  0  0  0  0  0  0
  136.8560   79.9800  223.4960 C   0  0  0  0  0  0  0  0  0  0  0  0
  137.2800   81.3750  224.4680 Cl  0  0  0  0  0  0  0  0  0  0  0  0
  137.8290   79.0660  223.1420 C   0  0  0  0  0  0  0  0  0  0  0  0
  139.1480   79.1970  223.5230 C   0  0  0  0  0  0  0  0  0  0  0  0
  139.4190   80.2180  224.2260 O   0  0  0  0  0  0  0  0  0  0  0  0
  140.1030   78.2960  223.1730 N   0  0  0  0  0  0  0  0  0  0  0  0
  141.4790   78.4820  223.5910 C   0  0  0  0  0  0  0  0  0  0  0  0
  142.2170   79.5250  222.8140 C   0  0  0  0  0  0  0  0  0  0  0  0
  141.8920   79.5990  221.3610 C   0  0  0  0  0  0  0  0  0  0  0  0
  140.5800   80.3070  221.0860 C   0  0  0  0  0  0  0  0  0  0  0  0
  140.7620   81.7090  221.3920 N   0  0  0  0  0  0  0  0  0  0  0  0
  141.7810   81.9630  222.3600 C   0  0  0  0  0  0  0  0  0  0  0  0
  141.9330   80.8900  223.4090 C   0  0  0  0  0  0  0  0  0  0  0  0
  140.3430   77.8460  219.1880 C   0  0  0  0  0  0  0  0  0  0  0  0
  140.6350   78.8240  218.2880 C   0  0  0  0  0  0  0  0  0  0  0  0
  143.0840   83.3033  216.8715 H   0  0  0  0  0  0  0  0  0  0  0  0
  143.5177   81.9959  215.7185 H   0  0  0  0  0  0  0  0  0  0  0  0
  141.8563   82.6788  215.7185 H   0  0  0  0  0  0  0  0  0  0  0  0
  142.6660   79.7130  216.0390 H   0  0  0  0  0  0  0  0  0  0  0  0
  144.0069   78.4033  218.1736 H   0  0  0  0  0  0  0  0  0  0  0  0
  143.4066   76.6376  219.8115 H   0  0  0  0  0  0  0  0  0  0  0  0
  140.8109   74.9896  220.3343 H   0  0  0  0  0  0  0  0  0  0  0  0
  141.2185   75.6105  222.7486 H   0  0  0  0  0  0  0  0  0  0  0  0
  135.8963   76.9043  221.3506 H   0  0  0  0  0  0  0  0  0  0  0  0
  134.1368   78.5754  222.0020 H   0  0  0  0  0  0  0  0  0  0  0  0
  134.7851   80.5308  223.3730 H   0  0  0  0  0  0  0  0  0  0  0  0
  141.4815   78.7748  224.6513 H   0  0  0  0  0  0  0  0  0  0  0  0
  141.9966   77.5279  223.4128 H   0  0  0  0  0  0  0  0  0  0  0  0
  143.2736   79.2280  222.8875 H   0  0  0  0  0  0  0  0  0  0  0  0
  142.6988   80.1430  220.8480 H   0  0  0  0  0  0  0  0  0  0  0  0
  141.7947   78.5676  220.9912 H   0  0  0  0  0  0  0  0  0  0  0  0
  140.3049   80.1875  220.0277 H   0  0  0  0  0  0  0  0  0  0  0  0
  139.7760   79.8800  221.7034 H   0  0  0  0  0  0  0  0  0  0  0  0
  141.0420   82.1990  220.5070 H   0  0  0  0  0  0  0  0  0  0  0  0
  142.7399   82.0631  221.8304 H   0  0  0  0  0  0  0  0  0  0  0  0
  141.4839   82.8788  222.8920 H   0  0  0  0  0  0  0  0  0  0  0  0
  142.7652   81.1638  224.0742 H   0  0  0  0  0  0  0  0  0  0  0  0
  140.9805   80.8224  223.9550 H   0  0  0  0  0  0  0  0  0  0  0  0
  139.2913   77.6929  219.4716 H   0  0  0  0  0  0  0  0  0  0  0  0
  139.8342   79.4439  217.8585 H   0  0  0  0  0  0  0  0  0  0  0  0
  1  2  1  0
  2  3  2  0
  2  4  1  0
  4  5  1  0
  5  6  2  0
  6  7  1  0
  7  8  2  0
  8  9  1  0
  9 10  2  0
 10 11  1  0
 11 12  2  0
 12 13  1  0
 13 14  2  0
 14 15  1  0
 15 16  2  0
 16 17  1  0
 17 18  1  0
 17 19  2  0
 19 20  1  0
 20 21  2  0
 20 22  1  0
 22 23  1  0
 23 24  1  0
 24 25  1  0
 25 26  1  0
 26 27  1  0
 27 28  1  0
 28 29  1  0
  8 30  1  0
 30 31  2  0
 31  5  1  0
 22 11  1  0
 29 24  1  0
 19 13  1  0
  1 32  1  0
  1 33  1  0
  1 34  1  0
  4 35  1  0
  6 36  1  0
  7 37  1  0
  9 38  1  0
 10 39  1  0
 14 40  1  0
 15 41  1  0
 16 42  1  0
 23 43  1  0
 23 44  1  0
 24 45  1  0
 25 46  1  0
 25 47  1  0
 26 48  1  0
 26 49  1  0
 27 50  1  0
 28 51  1  0
 28 52  1  0
 29 53  1  0
 29 54  1  0
 30 55  1  0
 31 56  1  0
M  END
>  <smiles>  (10) 
CC(=O)Nc1ccc(/C=C/c2nc3cccc(Cl)c3c(=O)n2CC2CCNCC2)cc1

>  <score_type>  (10) 
oracle

>  <origin>  (10) 
autodockgpu

>  <m_score__min__energy>  (10) 
-8.9499999999999993

>  <m_primary>  (10) 
energy

>  <rmsd>  (10) 
4.467740864158419

>  <m_score__min__rmsd>  (10) 
4.467740864158419

>  <meeko>  (10) 
{"free_energy": -6.28, "intermolecular_energy": -8.07, "internal_energy": -2.92, "cluster_size": 4, "cluster_id": 7, "rank_in_cluster": 4}

>  <energy>  (10) 
-8.39

>  <cluster_rmsd>  (10) 
0.85

>  <cluster>  (10) 
2

$$$$

     RDKit          3D

 56 59  0  0  0  0  0  0  0  0999 V2000
  142.7420   82.4430  216.5870 C   0  0  0  0  0  0  0  0  0  0  0  0
  142.2950   81.3870  217.5280 C   0  0  0  0  0  0  0  0  0  0  0  0
  141.8630   81.7040  218.6720 O   0  0  0  0  0  0  0  0  0  0  0  0
  142.3640   80.0350  217.1230 N   0  0  0  0  0  0  0  0  0  0  0  0
  141.9430   79.0000  218.0030 C   0  0  0  0  0  0  0  0  0  0  0  0
  142.9330   78.1770  218.5130 C   0  0  0  0  0  0  0  0  0  0  0  0
  142.5580   77.1520  219.3780 C   0  0  0  0  0  0  0  0  0  0  0  0
  141.2580   76.9240  219.7470 C   0  0  0  0  0  0  0  0  0  0  0  0
  140.8420   75.8760  220.6360 C   0  0  0  0  0  0  0  0  0  0  0  0
  140.5430   76.0300  221.9130 C   0  0  0  0  0  0  0  0  0  0  0  0
  139.6330   77.0890  222.3390 C   0  0  0  0  0  0  0  0  0  0  0  0
  138.3420   77.0140  221.9700 N   0  0  0  0  0  0  0  0  0  0  0  0
  137.3970   77.9130  222.2850 C   0  0  0  0  0  0  0  0  0  0  0  0
  136.0770   77.7700  221.8670 C   0  0  0  0  0  0  0  0  0  0  0  0
  135.1330   78.7370  222.2250 C   0  0  0  0  0  0  0  0  0  0  0  0
  135.5430   79.8090  222.9840 C   0  0  0  0  0  0  0  0  0  0  0  0
  136.8570   79.9460  223.3970 C   0  0  0  0  0  0  0  0  0  0  0  0
  137.3340   81.3260  224.3640 Cl  0  0  0  0  0  0  0  0  0  0  0  0
  137.7930   78.9930  223.0460 C   0  0  0  0  0  0  0  0  0  0  0  0
  139.1160   79.0740  223.4270 C   0  0  0  0  0  0  0  0  0  0  0  0
  139.4260   80.0860  224.1270 O   0  0  0  0  0  0  0  0  0  0  0  0
  140.0350   78.1350  223.0810 N   0  0  0  0  0  0  0  0  0  0  0  0
  141.4170   78.2680  223.4990 C   0  0  0  0  0  0  0  0  0  0  0  0
  142.1740   79.3340  222.7730 C   0  0  0  0  0  0  0  0  0  0  0  0
  141.8120   79.5210  221.3400 C   0  0  0  0  0  0  0  0  0  0  0  0
  140.5220   80.2960  221.1540 C   0  0  0  0  0  0  0  0  0  0  0  0
  140.7680   81.6650  221.5500 N   0  0  0  0  0  0  0  0  0  0  0  0
  141.8240   81.8120  222.5010 C   0  0  0  0  0  0  0  0  0  0  0  0
  141.9620   80.6650  223.4690 C   0  0  0  0  0  0  0  0  0  0  0  0
  140.3060   77.7880  219.1980 C   0  0  0  0  0  0  0  0  0  0  0  0
  140.6230   78.8030  218.3490 C   0  0  0  0  0  0  0  0  0  0  0  0
  143.1089   83.3099  217.1561 H   0  0  0  0  0  0  0  0  0  0  0  0
  143.5514   82.0510  215.9536 H   0  0  0  0  0  0  0  0  0  0  0  0
  141.8972   82.7512  215.9536 H   0  0  0  0  0  0  0  0  0  0  0  0
  142.7210   79.7610  216.1740 H   0  0  0  0  0  0  0  0  0  0  0  0
  143.9882   78.3289  218.2419 H   0  0  0  0  0  0  0  0  0  0  0  0
  143.3414   76.4951  219.7838 H   0  0  0  0  0  0  0  0  0  0  0  0
  140.7661   74.8610  220.2189 H   0  0  0  0  0  0  0  0  0  0  0  0
  140.9832   75.3549  222.6617 H   0  0  0  0  0  0  0  0  0  0  0  0
  135.7789   76.9027  221.2596 H   0  0  0  0  0  0  0  0  0  0  0  0
  134.0843   78.6429  221.9066 H   0  0  0  0  0  0  0  0  0  0  0  0
  134.8083   80.5762  223.2696 H   0  0  0  0  0  0  0  0  0  0  0  0
  141.4319   78.5042  224.5732 H   0  0  0  0  0  0  0  0  0  0  0  0
  141.9120   77.3134  223.2673 H   0  0  0  0  0  0  0  0  0  0  0  0
  143.2195   78.9927  222.7937 H   0  0  0  0  0  0  0  0  0  0  0  0
  142.6254   80.0682  220.8410 H   0  0  0  0  0  0  0  0  0  0  0  0
  141.6631   78.5222  220.9039 H   0  0  0  0  0  0  0  0  0  0  0  0
  140.2134   80.2613  220.0987 H   0  0  0  0  0  0  0  0  0  0  0  0
  139.7189   79.8577  221.7646 H   0  0  0  0  0  0  0  0  0  0  0  0
  141.0430   82.2050  220.6920 H   0  0  0  0  0  0  0  0  0  0  0  0
  142.7707   81.9112  221.9497 H   0  0  0  0  0  0  0  0  0  0  0  0
  141.5796   82.6997  223.1029 H   0  0  0  0  0  0  0  0  0  0  0  0
  142.8230   80.8600  224.1253 H   0  0  0  0  0  0  0  0  0  0  0  0
  141.0236   80.5963  224.0387 H   0  0  0  0  0  0  0  0  0  0  0  0
  139.2493   77.6402  219.4653 H   0  0  0  0  0  0  0  0  0  0  0  0
  139.8369   79.4574  217.9443 H   0  0  0  0  0  0  0  0  0  0  0  0
  1  2  1  0
  2  3  2  0
  2  4  1  0
  4  5  1  0
  5  6  2  0
  6  7  1  0
  7  8  2  0
  8  9  1  0
  9 10  2  0
 10 11  1  0
 11 12  2  0
 12 13  1  0
 13 14  2  0
 14 15  1  0
 15 16  2  0
 16 17  1  0
 17 18  1  0
 17 19  2  0
 19 20  1  0
 20 21  2  0
 20 22  1  0
 22 23  1  0
 23 24  1  0
 24 25  1  0
 25 26  1  0
 26 27  1  0
 27 28  1  0
 28 29  1  0
  8 30  1  0
 30 31  2  0
 31  5  1  0
 22 11  1  0
 29 24  1  0
 19 13  1  0
  1 32  1  0
  1 33  1  0
  1 34  1  0
  4 35  1  0
  6 36  1  0
  7 37  1  0
  9 38  1  0
 10 39  1  0
 14 40  1  0
 15 41  1  0
 16 42  1  0
 23 43  1  0
 23 44  1  0
 24 45  1  0
 25 46  1  0
 25 47  1  0
 26 48  1  0
 26 49  1  0
 27 50  1  0
 28 51  1  0
 28 52  1  0
 29 53  1  0
 29 54  1  0
 30 55  1  0
 31 56  1  0
M  END
>  <smiles>  (11) 
CC(=O)Nc1ccc(/C=C/c2nc3cccc(Cl)c3c(=O)n2CC2CCNCC2)cc1

>  <score_type>  (11) 
oracle

>  <origin>  (11) 
autodockgpu

>  <m_score__min__energy>  (11) 
-8.9499999999999993

>  <m_primary>  (11) 
energy

>  <rmsd>  (11) 
4.438435190978287

>  <m_score__min__rmsd>  (11) 
4.438435190978287

>  <meeko>  (11) 
{"free_energy": -6.39, "intermolecular_energy": -8.18, "internal_energy": -2.83, "cluster_size": 4, "cluster_id": 7, "rank_in_cluster": 2}

>  <energy>  (11) 
-8.37

>  <cluster_rmsd>  (11) 
1.79

>  <cluster>  (11) 
2

$$$$

     RDKit          3D

 56 59  0  0  0  0  0  0  0  0999 V2000
  142.5920   79.3140  218.2340 C   0  0  0  0  0  0  0  0  0  0  0  0
  142.2180   77.9300  218.6180 C   0  0  0  0  0  0  0  0  0  0  0  0
  141.6510   77.1750  217.7790 O   0  0  0  0  0  0  0  0  0  0  0  0
  142.5070   77.4810  219.9260 N   0  0  0  0  0  0  0  0  0  0  0  0
  142.1600   76.1590  220.3230 C   0  0  0  0  0  0  0  0  0  0  0  0
  141.0060   76.0180  221.0740 C   0  0  0  0  0  0  0  0  0  0  0  0
  140.6360   74.7390  221.4810 C   0  0  0  0  0  0  0  0  0  0  0  0
  141.3600   73.6180  221.1720 C   0  0  0  0  0  0  0  0  0  0  0  0
  141.0040   72.2870  221.5770 C   0  0  0  0  0  0  0  0  0  0  0  0
  139.8850   71.9480  222.1900 C   0  0  0  0  0  0  0  0  0  0  0  0
  139.9230   71.2240  223.4570 C   0  0  0  0  0  0  0  0  0  0  0  0
  140.4300   71.8450  224.5370 N   0  0  0  0  0  0  0  0  0  0  0  0
  140.5310   71.3020  225.7610 C   0  0  0  0  0  0  0  0  0  0  0  0
  141.0680   72.0060  226.8350 C   0  0  0  0  0  0  0  0  0  0  0  0
  141.1490   71.3930  228.0880 C   0  0  0  0  0  0  0  0  0  0  0  0
  140.6900   70.1010  228.2210 C   0  0  0  0  0  0  0  0  0  0  0  0
  140.1570   69.4070  227.1490 C   0  0  0  0  0  0  0  0  0  0  0  0
  139.5850   67.7660  227.3640 Cl  0  0  0  0  0  0  0  0  0  0  0  0
  140.0750   70.0090  225.9090 C   0  0  0  0  0  0  0  0  0  0  0  0
  139.5540   69.3690  224.8040 C   0  0  0  0  0  0  0  0  0  0  0  0
  139.1480   68.1820  224.9960 O   0  0  0  0  0  0  0  0  0  0  0  0
  139.4740   69.9630  223.5840 N   0  0  0  0  0  0  0  0  0  0  0  0
  138.9250   69.2460  222.4510 C   0  0  0  0  0  0  0  0  0  0  0  0
  137.5270   69.6440  222.0960 C   0  0  0  0  0  0  0  0  0  0  0  0
  136.7210   68.6080  221.3910 C   0  0  0  0  0  0  0  0  0  0  0  0
  136.1910   67.5360  222.3240 C   0  0  0  0  0  0  0  0  0  0  0  0
  135.1790   68.1410  223.1620 N   0  0  0  0  0  0  0  0  0  0  0  0
  135.3420   69.5480  223.3430 C   0  0  0  0  0  0  0  0  0  0  0  0
  136.7750   70.0180  223.3590 C   0  0  0  0  0  0  0  0  0  0  0  0
  142.5150   73.8260  220.4130 C   0  0  0  0  0  0  0  0  0  0  0  0
  142.9180   75.0560  219.9910 C   0  0  0  0  0  0  0  0  0  0  0  0
  142.7544   79.9150  219.1409 H   0  0  0  0  0  0  0  0  0  0  0  0
  143.5164   79.2921  217.6382 H   0  0  0  0  0  0  0  0  0  0  0  0
  141.7823   79.7607  217.6382 H   0  0  0  0  0  0  0  0  0  0  0  0
  142.9780   78.1000  220.6310 H   0  0  0  0  0  0  0  0  0  0  0  0
  140.3969   76.8938  221.3424 H   0  0  0  0  0  0  0  0  0  0  0  0
  139.7197   74.6233  222.0785 H   0  0  0  0  0  0  0  0  0  0  0  0
  141.7230   71.4837  221.3584 H   0  0  0  0  0  0  0  0  0  0  0  0
  138.9159   72.2133  221.7423 H   0  0  0  0  0  0  0  0  0  0  0  0
  141.4259   73.0371  226.6984 H   0  0  0  0  0  0  0  0  0  0  0  0
  141.5704   71.9308  228.9501 H   0  0  0  0  0  0  0  0  0  0  0  0
  140.7486   69.6091  229.2031 H   0  0  0  0  0  0  0  0  0  0  0  0
  139.5693   69.4322  221.5791 H   0  0  0  0  0  0  0  0  0  0  0  0
  138.8904   68.1836  222.7341 H   0  0  0  0  0  0  0  0  0  0  0  0
  137.6473   70.4833  221.3952 H   0  0  0  0  0  0  0  0  0  0  0  0
  135.8678   69.1003  220.9015 H   0  0  0  0  0  0  0  0  0  0  0  0
  137.3819   68.1146  220.6632 H   0  0  0  0  0  0  0  0  0  0  0  0
  135.7508   66.7149  221.7391 H   0  0  0  0  0  0  0  0  0  0  0  0
  137.0049   67.1253  222.9396 H   0  0  0  0  0  0  0  0  0  0  0  0
  134.2470   67.9920  222.7010 H   0  0  0  0  0  0  0  0  0  0  0  0
  134.8217   70.0620  222.5214 H   0  0  0  0  0  0  0  0  0  0  0  0
  134.9256   69.7848  224.3332 H   0  0  0  0  0  0  0  0  0  0  0  0
  136.7852   71.1130  223.4636 H   0  0  0  0  0  0  0  0  0  0  0  0
  137.2775   69.5243  224.2038 H   0  0  0  0  0  0  0  0  0  0  0  0
  143.1282   72.9535  220.1435 H   0  0  0  0  0  0  0  0  0  0  0  0
  143.8350   75.1683  219.3939 H   0  0  0  0  0  0  0  0  0  0  0  0
  1  2  1  0
  2  3  2  0
  2  4  1  0
  4  5  1  0
  5  6  2  0
  6  7  1  0
  7  8  2  0
  8  9  1  0
  9 10  2  0
 10 11  1  0
 11 12  2  0
 12 13  1  0
 13 14  2  0
 14 15  1  0
 15 16  2  0
 16 17  1  0
 17 18  1  0
 17 19  2  0
 19 20  1  0
 20 21  2  0
 20 22  1  0
 22 23  1  0
 23 24  1  0
 24 25  1  0
 25 26  1  0
 26 27  1  0
 27 28  1  0
 28 29  1  0
  8 30  1  0
 30 31  2  0
 31  5  1  0
 22 11  1  0
 29 24  1  0
 19 13  1  0
  1 32  1  0
  1 33  1  0
  1 34  1  0
  4 35  1  0
  6 36  1  0
  7 37  1  0
  9 38  1  0
 10 39  1  0
 14 40  1  0
 15 41  1  0
 16 42  1  0
 23 43  1  0
 23 44  1  0
 24 45  1  0
 25 46  1  0
 25 47  1  0
 26 48  1  0
 26 49  1  0
 27 50  1  0
 28 51  1  0
 28 52  1  0
 29 53  1  0
 29 54  1  0
 30 55  1  0
 31 56  1  0
M  END
>  <smiles>  (12) 
CC(=O)Nc1ccc(/C=C/c2nc3cccc(Cl)c3c(=O)n2CC2CCNCC2)cc1

>  <score_type>  (12) 
oracle

>  <origin>  (12) 
autodockgpu

>  <m_score__min__energy>  (12) 
-8.9499999999999993

>  <m_primary>  (12) 
energy

>  <rmsd>  (12) 
11.333111231084933

>  <m_score__min__rmsd>  (12) 
11.333111231084933

>  <meeko>  (12) 
{"free_energy": -8.37, "intermolecular_energy": -10.16, "internal_energy": -1.41, "cluster_size": 15, "cluster_id": 2, "rank_in_cluster": 6}

>  <energy>  (12) 
-8.36

>  <cluster_rmsd>  (12) 
0.61

>  <cluster>  (12) 
2

$$$$

     RDKit          3D

 56 59  0  0  0  0  0  0  0  0999 V2000
  140.9230   68.1410  229.0040 C   0  0  0  0  0  0  0  0  0  0  0  0
  140.8290   68.6420  227.6100 C   0  0  0  0  0  0  0  0  0  0  0  0
  141.4570   68.0540  226.6860 O   0  0  0  0  0  0  0  0  0  0  0  0
  140.0300   69.7770  227.3440 N   0  0  0  0  0  0  0  0  0  0  0  0
  139.9200   70.2810  226.0180 C   0  0  0  0  0  0  0  0  0  0  0  0
  140.7780   71.3100  225.6710 C   0  0  0  0  0  0  0  0  0  0  0  0
  140.6990   71.8280  224.3810 C   0  0  0  0  0  0  0  0  0  0  0  0
  139.8130   71.3660  223.4440 C   0  0  0  0  0  0  0  0  0  0  0  0
  139.7080   71.8810  222.1070 C   0  0  0  0  0  0  0  0  0  0  0  0
  140.6660   72.5100  221.4520 C   0  0  0  0  0  0  0  0  0  0  0  0
  140.6850   73.9690  221.3860 C   0  0  0  0  0  0  0  0  0  0  0  0
  139.7240   74.6540  222.0300 N   0  0  0  0  0  0  0  0  0  0  0  0
  139.6160   75.9920  222.0530 C   0  0  0  0  0  0  0  0  0  0  0  0
  138.5920   76.6350  222.7420 C   0  0  0  0  0  0  0  0  0  0  0  0
  138.5280   78.0300  222.7330 C   0  0  0  0  0  0  0  0  0  0  0  0
  139.4860   78.7310  222.0370 C   0  0  0  0  0  0  0  0  0  0  0  0
  140.5020   78.0860  221.3540 C   0  0  0  0  0  0  0  0  0  0  0  0
  141.7020   79.0170  220.4820 Cl  0  0  0  0  0  0  0  0  0  0  0  0
  140.5710   76.7060  221.3600 C   0  0  0  0  0  0  0  0  0  0  0  0
  141.5580   76.0080  220.6980 C   0  0  0  0  0  0  0  0  0  0  0  0
  142.4110   76.7130  220.0780 O   0  0  0  0  0  0  0  0  0  0  0  0
  141.6240   74.6500  220.7050 N   0  0  0  0  0  0  0  0  0  0  0  0
  142.6770   73.9600  219.9880 C   0  0  0  0  0  0  0  0  0  0  0  0
  143.7540   73.4080  220.8670 C   0  0  0  0  0  0  0  0  0  0  0  0
  143.9650   71.9350  220.7820 C   0  0  0  0  0  0  0  0  0  0  0  0
  144.7450   71.5210  219.5490 C   0  0  0  0  0  0  0  0  0  0  0  0
  146.1070   71.9790  219.7130 N   0  0  0  0  0  0  0  0  0  0  0  0
  146.2370   73.1150  220.5700 C   0  0  0  0  0  0  0  0  0  0  0  0
  145.0730   74.0730  220.5250 C   0  0  0  0  0  0  0  0  0  0  0  0
  138.9730   70.3270  223.8550 C   0  0  0  0  0  0  0  0  0  0  0  0
  139.0130   69.7880  225.1040 C   0  0  0  0  0  0  0  0  0  0  0  0
  140.7666   68.9745  229.7045 H   0  0  0  0  0  0  0  0  0  0  0  0
  140.1533   67.3729  229.1703 H   0  0  0  0  0  0  0  0  0  0  0  0
  141.9188   67.7042  229.1703 H   0  0  0  0  0  0  0  0  0  0  0  0
  139.5030   70.2720  228.1050 H   0  0  0  0  0  0  0  0  0  0  0  0
  141.5035   71.7083  226.3955 H   0  0  0  0  0  0  0  0  0  0  0  0
  141.3794   72.6459  224.1014 H   0  0  0  0  0  0  0  0  0  0  0  0
  138.7497   71.7394  221.5858 H   0  0  0  0  0  0  0  0  0  0  0  0
  141.4562   71.9308  220.9519 H   0  0  0  0  0  0  0  0  0  0  0  0
  137.8390   76.0490  223.2894 H   0  0  0  0  0  0  0  0  0  0  0  0
  137.7275   78.5581  223.2717 H   0  0  0  0  0  0  0  0  0  0  0  0
  139.4431   79.8301  222.0233 H   0  0  0  0  0  0  0  0  0  0  0  0
  142.2259   73.1266  219.4295 H   0  0  0  0  0  0  0  0  0  0  0  0
  143.1532   74.7030  219.3314 H   0  0  0  0  0  0  0  0  0  0  0  0
  143.4113   73.6204  221.8904 H   0  0  0  0  0  0  0  0  0  0  0  0
  144.5190   71.6077  221.6741 H   0  0  0  0  0  0  0  0  0  0  0  0
  142.9736   71.4624  220.7197 H   0  0  0  0  0  0  0  0  0  0  0  0
  144.7283   70.4260  219.4458 H   0  0  0  0  0  0  0  0  0  0  0  0
  144.2977   71.9613  218.6456 H   0  0  0  0  0  0  0  0  0  0  0  0
  146.6610   71.1980  220.1440 H   0  0  0  0  0  0  0  0  0  0  0  0
  146.3445   72.7543  221.6036 H   0  0  0  0  0  0  0  0  0  0  0  0
  147.1147   73.6745  220.2143 H   0  0  0  0  0  0  0  0  0  0  0  0
  145.2560   74.8832  221.2462 H   0  0  0  0  0  0  0  0  0  0  0  0
  144.9959   74.4539  219.4959 H   0  0  0  0  0  0  0  0  0  0  0  0
  138.2450   69.9259  223.1345 H   0  0  0  0  0  0  0  0  0  0  0  0
  138.3311   68.9703  225.3805 H   0  0  0  0  0  0  0  0  0  0  0  0
  1  2  1  0
  2  3  2  0
  2  4  1  0
  4  5  1  0
  5  6  2  0
  6  7  1  0
  7  8  2  0
  8  9  1  0
  9 10  2  0
 10 11  1  0
 11 12  2  0
 12 13  1  0
 13 14  2  0
 14 15  1  0
 15 16  2  0
 16 17  1  0
 17 18  1  0
 17 19  2  0
 19 20  1  0
 20 21  2  0
 20 22  1  0
 22 23  1  0
 23 24  1  0
 24 25  1  0
 25 26  1  0
 26 27  1  0
 27 28  1  0
 28 29  1  0
  8 30  1  0
 30 31  2  0
 31  5  1  0
 22 11  1  0
 29 24  1  0
 19 13  1  0
  1 32  1  0
  1 33  1  0
  1 34  1  0
  4 35  1  0
  6 36  1  0
  7 37  1  0
  9 38  1  0
 10 39  1  0
 14 40  1  0
 15 41  1  0
 16 42  1  0
 23 43  1  0
 23 44  1  0
 24 45  1  0
 25 46  1  0
 25 47  1  0
 26 48  1  0
 26 49  1  0
 27 50  1  0
 28 51  1  0
 28 52  1  0
 29 53  1  0
 29 54  1  0
 30 55  1  0
 31 56  1  0
M  END
>  <smiles>  (13) 
CC(=O)Nc1ccc(/C=C/c2nc3cccc(Cl)c3c(=O)n2CC2CCNCC2)cc1

>  <score_type>  (13) 
oracle

>  <origin>  (13) 
autodockgpu

>  <m_score__min__energy>  (13) 
-8.9499999999999993

>  <m_primary>  (13) 
energy

>  <rmsd>  (13) 
5.580242142048553

>  <m_score__min__rmsd>  (13) 
5.580242142048553

>  <meeko>  (13) 
{"free_energy": -8.95, "intermolecular_energy": -10.74, "internal_energy": -1.42, "cluster_size": 5, "cluster_id": 1, "rank_in_cluster": 1}

>  <energy>  (13) 
-8.34

>  <cluster_rmsd>  (13) 
1.08

>  <cluster>  (13) 
2

$$$$

     RDKit          3D

 56 59  0  0  0  0  0  0  0  0999 V2000
  131.5050   73.2590  227.5970 C   0  0  0  0  0  0  0  0  0  0  0  0
  132.2080   72.4760  226.5500 C   0  0  0  0  0  0  0  0  0  0  0  0
  131.7290   72.4120  225.3840 O   0  0  0  0  0  0  0  0  0  0  0  0
  133.4110   71.8140  226.8830 N   0  0  0  0  0  0  0  0  0  0  0  0
  134.1080   71.0560  225.9010 C   0  0  0  0  0  0  0  0  0  0  0  0
  134.3670   69.7320  226.2070 C   0  0  0  0  0  0  0  0  0  0  0  0
  135.0480   68.9590  225.2690 C   0  0  0  0  0  0  0  0  0  0  0  0
  135.4700   69.4500  224.0620 C   0  0  0  0  0  0  0  0  0  0  0  0
  136.1740   68.6790  223.0760 C   0  0  0  0  0  0  0  0  0  0  0  0
  137.4830   68.5220  223.0190 C   0  0  0  0  0  0  0  0  0  0  0  0
  138.3360   69.0150  224.0980 C   0  0  0  0  0  0  0  0  0  0  0  0
  138.8250   68.1310  224.9860 N   0  0  0  0  0  0  0  0  0  0  0  0
  139.6160   68.4410  226.0250 C   0  0  0  0  0  0  0  0  0  0  0  0
  140.0860   67.4720  226.9060 C   0  0  0  0  0  0  0  0  0  0  0  0
  140.9070   67.8510  227.9710 C   0  0  0  0  0  0  0  0  0  0  0  0
  141.2260   69.1820  228.1170 C   0  0  0  0  0  0  0  0  0  0  0  0
  140.7560   70.1410  227.2380 C   0  0  0  0  0  0  0  0  0  0  0  0
  141.1890   71.8240  227.4610 Cl  0  0  0  0  0  0  0  0  0  0  0  0
  139.9440   69.7720  226.1830 C   0  0  0  0  0  0  0  0  0  0  0  0
  139.4450   70.6810  225.2750 C   0  0  0  0  0  0  0  0  0  0  0  0
  139.7790   71.8900  225.4660 O   0  0  0  0  0  0  0  0  0  0  0  0
  138.6470   70.3160  224.2380 N   0  0  0  0  0  0  0  0  0  0  0  0
  138.1400   71.3100  223.3130 C   0  0  0  0  0  0  0  0  0  0  0  0
  139.0210   71.5470  222.1280 C   0  0  0  0  0  0  0  0  0  0  0  0
  138.6930   72.7480  221.3090 C   0  0  0  0  0  0  0  0  0  0  0  0
  139.1730   74.0410  221.9390 C   0  0  0  0  0  0  0  0  0  0  0  0
  140.6190   74.0560  221.8710 N   0  0  0  0  0  0  0  0  0  0  0  0
  141.2090   72.7560  221.8260 C   0  0  0  0  0  0  0  0  0  0  0  0
  140.4580   71.6970  222.5920 C   0  0  0  0  0  0  0  0  0  0  0  0
  135.1790   70.7950  223.8130 C   0  0  0  0  0  0  0  0  0  0  0  0
  134.5160   71.5900  224.6970 C   0  0  0  0  0  0  0  0  0  0  0  0
  131.8200   72.9081  228.5908 H   0  0  0  0  0  0  0  0  0  0  0  0
  131.7553   74.3246  227.4880 H   0  0  0  0  0  0  0  0  0  0  0  0
  130.4187   73.1245  227.4880 H   0  0  0  0  0  0  0  0  0  0  0  0
  133.8180   71.8620  227.8500 H   0  0  0  0  0  0  0  0  0  0  0  0
  134.0437   69.3007  227.1659 H   0  0  0  0  0  0  0  0  0  0  0  0
  135.2564   67.9059  225.5088 H   0  0  0  0  0  0  0  0  0  0  0  0
  135.5720   68.1775  222.3040 H   0  0  0  0  0  0  0  0  0  0  0  0
  137.9352   68.0164  222.1530 H   0  0  0  0  0  0  0  0  0  0  0  0
  139.8133   66.4157  226.7651 H   0  0  0  0  0  0  0  0  0  0  0  0
  141.2906   67.1010  228.6784 H   0  0  0  0  0  0  0  0  0  0  0  0
  141.8705   69.4906  228.9533 H   0  0  0  0  0  0  0  0  0  0  0  0
  137.1567   70.9752  222.9510 H   0  0  0  0  0  0  0  0  0  0  0  0
  138.0886   72.2600  223.8651 H   0  0  0  0  0  0  0  0  0  0  0  0
  138.8592   70.6703  221.4836 H   0  0  0  0  0  0  0  0  0  0  0  0
  139.1680   72.6406  220.3227 H   0  0  0  0  0  0  0  0  0  0  0  0
  137.5972   72.8055  221.2316 H   0  0  0  0  0  0  0  0  0  0  0  0
  138.7635   74.9004  221.3879 H   0  0  0  0  0  0  0  0  0  0  0  0
  138.8367   74.1073  222.9842 H   0  0  0  0  0  0  0  0  0  0  0  0
  140.8950   74.5560  220.9900 H   0  0  0  0  0  0  0  0  0  0  0  0
  141.2662   72.4419  220.7734 H   0  0  0  0  0  0  0  0  0  0  0  0
  142.1952   72.8455  222.3049 H   0  0  0  0  0  0  0  0  0  0  0  0
  140.9732   70.7343  222.4587 H   0  0  0  0  0  0  0  0  0  0  0  0
  140.4359   72.0037  223.6482 H   0  0  0  0  0  0  0  0  0  0  0  0
  135.5015   71.2318  222.8563 H   0  0  0  0  0  0  0  0  0  0  0  0
  134.3088   72.6427  224.4545 H   0  0  0  0  0  0  0  0  0  0  0  0
  1  2  1  0
  2  3  2  0
  2  4  1  0
  4  5  1  0
  5  6  2  0
  6  7  1  0
  7  8  2  0
  8  9  1  0
  9 10  2  0
 10 11  1  0
 11 12  2  0
 12 13  1  0
 13 14  2  0
 14 15  1  0
 15 16  2  0
 16 17  1  0
 17 18  1  0
 17 19  2  0
 19 20  1  0
 20 21  2  0
 20 22  1  0
 22 23  1  0
 23 24  1  0
 24 25  1  0
 25 26  1  0
 26 27  1  0
 27 28  1  0
 28 29  1  0
  8 30  1  0
 30 31  2  0
 31  5  1  0
 22 11  1  0
 29 24  1  0
 19 13  1  0
  1 32  1  0
  1 33  1  0
  1 34  1  0
  4 35  1  0
  6 36  1  0
  7 37  1  0
  9 38  1  0
 10 39  1  0
 14 40  1  0
 15 41  1  0
 16 42  1  0
 23 43  1  0
 23 44  1  0
 24 45  1  0
 25 46  1  0
 25 47  1  0
 26 48  1  0
 26 49  1  0
 27 50  1  0
 28 51  1  0
 28 52  1  0
 29 53  1  0
 29 54  1  0
 30 55  1  0
 31 56  1  0
M  END
>  <smiles>  (14) 
CC(=O)Nc1ccc(/C=C/c2nc3cccc(Cl)c3c(=O)n2CC2CCNCC2)cc1

>  <score_type>  (14) 
oracle

>  <origin>  (14) 
autodockgpu

>  <m_score__min__energy>  (14) 
-8.9499999999999993

>  <m_primary>  (14) 
energy

>  <rmsd>  (14) 
11.152371530338662

>  <m_score__min__rmsd>  (14) 
11.152371530338662

>  <meeko>  (14) 
{"free_energy": -8.08, "intermolecular_energy": -9.87, "internal_energy": -1.78, "cluster_size": 17, "cluster_id": 3, "rank_in_cluster": 4}

>  <energy>  (14) 
-8.33

>  <cluster_rmsd>  (14) 
1.12

>  <cluster>  (14) 
2

$$$$

     RDKit          3D

 56 59  0  0  0  0  0  0  0  0999 V2000
  140.2030   80.5450  223.4680 C   0  0  0  0  0  0  0  0  0  0  0  0
  140.4820   79.1020  223.2690 C   0  0  0  0  0  0  0  0  0  0  0  0
  141.4620   78.5620  223.8570 O   0  0  0  0  0  0  0  0  0  0  0  0
  139.6390   78.3520  222.4180 N   0  0  0  0  0  0  0  0  0  0  0  0
  139.8810   76.9660  222.2080 C   0  0  0  0  0  0  0  0  0  0  0  0
  138.8330   76.1040  222.4800 C   0  0  0  0  0  0  0  0  0  0  0  0
  139.0340   74.7400  222.2850 C   0  0  0  0  0  0  0  0  0  0  0  0
  140.2180   74.2160  221.8380 C   0  0  0  0  0  0  0  0  0  0  0  0
  140.4550   72.8150  221.6280 C   0  0  0  0  0  0  0  0  0  0  0  0
  139.6280   71.8410  221.9600 C   0  0  0  0  0  0  0  0  0  0  0  0
  139.7700   71.1520  223.2400 C   0  0  0  0  0  0  0  0  0  0  0  0
  140.3150   71.8180  224.2720 N   0  0  0  0  0  0  0  0  0  0  0  0
  140.5100   71.3120  225.5000 C   0  0  0  0  0  0  0  0  0  0  0  0
  141.0810   72.0620  226.5230 C   0  0  0  0  0  0  0  0  0  0  0  0
  141.2600   71.4850  227.7830 C   0  0  0  0  0  0  0  0  0  0  0  0
  140.8630   70.1810  227.9730 C   0  0  0  0  0  0  0  0  0  0  0  0
  140.2950   69.4400  226.9520 C   0  0  0  0  0  0  0  0  0  0  0  0
  139.8020   67.7830  227.2390 Cl  0  0  0  0  0  0  0  0  0  0  0  0
  140.1150   70.0060  225.7050 C   0  0  0  0  0  0  0  0  0  0  0  0
  139.5560   69.3190  224.6490 C   0  0  0  0  0  0  0  0  0  0  0  0
  139.2100   68.1220  224.8920 O   0  0  0  0  0  0  0  0  0  0  0  0
  139.3800   69.8780  223.4230 N   0  0  0  0  0  0  0  0  0  0  0  0
  138.7940   69.1120  222.3410 C   0  0  0  0  0  0  0  0  0  0  0  0
  137.3000   69.1670  222.2940 C   0  0  0  0  0  0  0  0  0  0  0  0
  136.6270   69.5310  223.5730 C   0  0  0  0  0  0  0  0  0  0  0  0
  136.6830   71.0170  223.8670 C   0  0  0  0  0  0  0  0  0  0  0  0
  135.8290   71.6900  222.9120 N   0  0  0  0  0  0  0  0  0  0  0  0
  135.6640   70.9810  221.6840 C   0  0  0  0  0  0  0  0  0  0  0  0
  136.8670   70.1810  221.2520 C   0  0  0  0  0  0  0  0  0  0  0  0
  141.2370   75.1380  221.5820 C   0  0  0  0  0  0  0  0  0  0  0  0
  141.0890   76.4790  221.7560 C   0  0  0  0  0  0  0  0  0  0  0  0
  140.1604   80.7651  224.5449 H   0  0  0  0  0  0  0  0  0  0  0  0
  141.0026   81.1405  223.0033 H   0  0  0  0  0  0  0  0  0  0  0  0
  139.2390   80.7996  223.0033 H   0  0  0  0  0  0  0  0  0  0  0  0
  138.8220   78.7910  221.9260 H   0  0  0  0  0  0  0  0  0  0  0  0
  137.8667   76.4863  222.8407 H   0  0  0  0  0  0  0  0  0  0  0  0
  138.2035   74.0514  222.4999 H   0  0  0  0  0  0  0  0  0  0  0  0
  141.4043   72.5300  221.1510 H   0  0  0  0  0  0  0  0  0  0  0  0
  138.8259   71.5461  221.2674 H   0  0  0  0  0  0  0  0  0  0  0  0
  141.3895   73.1021  226.3413 H   0  0  0  0  0  0  0  0  0  0  0  0
  141.7088   72.0609  228.6057 H   0  0  0  0  0  0  0  0  0  0  0  0
  141.0007   69.7166  228.9606 H   0  0  0  0  0  0  0  0  0  0  0  0
  139.1843   69.5031  221.3898 H   0  0  0  0  0  0  0  0  0  0  0  0
  139.0678   68.0604  222.5119 H   0  0  0  0  0  0  0  0  0  0  0  0
  136.9924   68.1381  222.0559 H   0  0  0  0  0  0  0  0  0  0  0  0
  135.5722   69.2244  223.5142 H   0  0  0  0  0  0  0  0  0  0  0  0
  137.1591   69.0136  224.3849 H   0  0  0  0  0  0  0  0  0  0  0  0
  136.3256   71.2098  224.8893 H   0  0  0  0  0  0  0  0  0  0  0  0
  137.7160   71.3860  223.7851 H   0  0  0  0  0  0  0  0  0  0  0  0
  134.8780   71.7910  223.3450 H   0  0  0  0  0  0  0  0  0  0  0  0
  134.8160   70.2898  221.7987 H   0  0  0  0  0  0  0  0  0  0  0  0
  135.5005   71.7411  220.9059 H   0  0  0  0  0  0  0  0  0  0  0  0
  136.6194   69.6470  220.3227 H   0  0  0  0  0  0  0  0  0  0  0  0
  137.6998   70.8849  221.1068 H   0  0  0  0  0  0  0  0  0  0  0  0
  142.2057   74.7608  221.2223 H   0  0  0  0  0  0  0  0  0  0  0  0
  141.9212   77.1649  221.5392 H   0  0  0  0  0  0  0  0  0  0  0  0
  1  2  1  0
  2  3  2  0
  2  4  1  0
  4  5  1  0
  5  6  2  0
  6  7  1  0
  7  8  2  0
  8  9  1  0
  9 10  2  0
 10 11  1  0
 11 12  2  0
 12 13  1  0
 13 14  2  0
 14 15  1  0
 15 16  2  0
 16 17  1  0
 17 18  1  0
 17 19  2  0
 19 20  1  0
 20 21  2  0
 20 22  1  0
 22 23  1  0
 23 24  1  0
 24 25  1  0
 25 26  1  0
 26 27  1  0
 27 28  1  0
 28 29  1  0
  8 30  1  0
 30 31  2  0
 31  5  1  0
 22 11  1  0
 29 24  1  0
 19 13  1  0
  1 32  1  0
  1 33  1  0
  1 34  1  0
  4 35  1  0
  6 36  1  0
  7 37  1  0
  9 38  1  0
 10 39  1  0
 14 40  1  0
 15 41  1  0
 16 42  1  0
 23 43  1  0
 23 44  1  0
 24 45  1  0
 25 46  1  0
 25 47  1  0
 26 48  1  0
 26 49  1  0
 27 50  1  0
 28 51  1  0
 28 52  1  0
 29 53  1  0
 29 54  1  0
 30 55  1  0
 31 56  1  0
M  END
>  <smiles>  (15) 
CC(=O)Nc1ccc(/C=C/c2nc3cccc(Cl)c3c(=O)n2CC2CCNCC2)cc1

>  <score_type>  (15) 
oracle

>  <origin>  (15) 
autodockgpu

>  <m_score__min__energy>  (15) 
-8.9499999999999993

>  <m_primary>  (15) 
energy

>  <rmsd>  (15) 
11.33948813568486

>  <m_score__min__rmsd>  (15) 
11.33948813568486

>  <meeko>  (15) 
{"free_energy": -7.95, "intermolecular_energy": -9.74, "internal_energy": -1.73, "cluster_size": 15, "cluster_id": 2, "rank_in_cluster": 13}

>  <energy>  (15) 
-8.29

>  <cluster_rmsd>  (15) 
1.13

>  <cluster>  (15) 
2

$$$$

     RDKit          3D

 56 59  0  0  0  0  0  0  0  0999 V2000
  132.2860   72.1020  227.2390 C   0  0  0  0  0  0  0  0  0  0  0  0
  133.1140   73.0970  226.5130 C   0  0  0  0  0  0  0  0  0  0  0  0
  133.1380   74.2990  226.9010 O   0  0  0  0  0  0  0  0  0  0  0  0
  133.8650   72.6760  225.3930 N   0  0  0  0  0  0  0  0  0  0  0  0
  134.6680   73.6070  224.6770 C   0  0  0  0  0  0  0  0  0  0  0  0
  135.0530   73.2410  223.3990 C   0  0  0  0  0  0  0  0  0  0  0  0
  135.8400   74.1280  222.6680 C   0  0  0  0  0  0  0  0  0  0  0  0
  136.2480   75.3410  223.1560 C   0  0  0  0  0  0  0  0  0  0  0  0
  137.0590   76.2750  222.4260 C   0  0  0  0  0  0  0  0  0  0  0  0
  138.2810   76.6480  222.7580 C   0  0  0  0  0  0  0  0  0  0  0  0
  139.4430   76.0090  222.1450 C   0  0  0  0  0  0  0  0  0  0  0  0
  139.5580   74.6720  222.2250 N   0  0  0  0  0  0  0  0  0  0  0  0
  140.5700   73.9540  221.7130 C   0  0  0  0  0  0  0  0  0  0  0  0
  140.6230   72.5690  221.8330 C   0  0  0  0  0  0  0  0  0  0  0  0
  141.7000   71.8710  221.2800 C   0  0  0  0  0  0  0  0  0  0  0  0
  142.6820   72.5820  220.6290 C   0  0  0  0  0  0  0  0  0  0  0  0
  142.6230   73.9590  220.5120 C   0  0  0  0  0  0  0  0  0  0  0  0
  143.8950   74.8240  219.6730 Cl  0  0  0  0  0  0  0  0  0  0  0  0
  141.5610   74.6540  221.0560 C   0  0  0  0  0  0  0  0  0  0  0  0
  141.4470   76.0250  220.9720 C   0  0  0  0  0  0  0  0  0  0  0  0
  142.3850   76.6190  220.3570 O   0  0  0  0  0  0  0  0  0  0  0  0
  140.4010   76.7070  221.5090 N   0  0  0  0  0  0  0  0  0  0  0  0
  140.3290   78.1500  221.4010 C   0  0  0  0  0  0  0  0  0  0  0  0
  141.5920   78.8540  221.7810 C   0  0  0  0  0  0  0  0  0  0  0  0
  141.7040   80.2700  221.3280 C   0  0  0  0  0  0  0  0  0  0  0  0
  140.9000   81.2290  222.1840 C   0  0  0  0  0  0  0  0  0  0  0  0
  141.5400   81.3100  223.4780 N   0  0  0  0  0  0  0  0  0  0  0  0
  142.2940   80.1470  223.8250 C   0  0  0  0  0  0  0  0  0  0  0  0
  141.7350   78.8520  223.2910 C   0  0  0  0  0  0  0  0  0  0  0  0
  135.8270   75.6520  224.4520 C   0  0  0  0  0  0  0  0  0  0  0  0
  135.0580   74.8190  225.2060 C   0  0  0  0  0  0  0  0  0  0  0  0
  132.4059   72.2461  228.3229 H   0  0  0  0  0  0  0  0  0  0  0  0
  131.2288   72.2357  226.9661 H   0  0  0  0  0  0  0  0  0  0  0  0
  132.6096   71.0867  226.9661 H   0  0  0  0  0  0  0  0  0  0  0  0
  133.8520   71.6790  225.0640 H   0  0  0  0  0  0  0  0  0  0  0  0
  134.7456   72.2751  222.9717 H   0  0  0  0  0  0  0  0  0  0  0  0
  136.1480   73.8409  221.6518 H   0  0  0  0  0  0  0  0  0  0  0  0
  136.6264   76.7156  221.5157 H   0  0  0  0  0  0  0  0  0  0  0  0
  138.4254   77.4457  223.5015 H   0  0  0  0  0  0  0  0  0  0  0  0
  139.8232   72.0274  222.3592 H   0  0  0  0  0  0  0  0  0  0  0  0
  141.7615   70.7759  221.3634 H   0  0  0  0  0  0  0  0  0  0  0  0
  143.5346   72.0422  220.1911 H   0  0  0  0  0  0  0  0  0  0  0  0
  140.0905   78.4070  220.3584 H   0  0  0  0  0  0  0  0  0  0  0  0
  139.5550   78.4829  222.1082 H   0  0  0  0  0  0  0  0  0  0  0  0
  142.3859   78.2926  221.2667 H   0  0  0  0  0  0  0  0  0  0  0  0
  142.7621   80.5681  221.3664 H   0  0  0  0  0  0  0  0  0  0  0  0
  141.3006   80.3224  220.3060 H   0  0  0  0  0  0  0  0  0  0  0  0
  140.8797   82.2232  221.7138 H   0  0  0  0  0  0  0  0  0  0  0  0
  139.8643   80.8738  222.2894 H   0  0  0  0  0  0  0  0  0  0  0  0
  142.2070   82.1200  223.4580 H   0  0  0  0  0  0  0  0  0  0  0  0
  143.3134   80.2690  223.4302 H   0  0  0  0  0  0  0  0  0  0  0  0
  142.2614   80.0710  224.9219 H   0  0  0  0  0  0  0  0  0  0  0  0
  142.4094   78.0322  223.5794 H   0  0  0  0  0  0  0  0  0  0  0  0
  140.7302   78.7224  223.7195 H   0  0  0  0  0  0  0  0  0  0  0  0
  136.1318   76.6167  224.8838 H   0  0  0  0  0  0  0  0  0  0  0  0
  134.7524   75.1087  226.2222 H   0  0  0  0  0  0  0  0  0  0  0  0
  1  2  1  0
  2  3  2  0
  2  4  1  0
  4  5  1  0
  5  6  2  0
  6  7  1  0
  7  8  2  0
  8  9  1  0
  9 10  2  0
 10 11  1  0
 11 12  2  0
 12 13  1  0
 13 14  2  0
 14 15  1  0
 15 16  2  0
 16 17  1  0
 17 18  1  0
 17 19  2  0
 19 20  1  0
 20 21  2  0
 20 22  1  0
 22 23  1  0
 23 24  1  0
 24 25  1  0
 25 26  1  0
 26 27  1  0
 27 28  1  0
 28 29  1  0
  8 30  1  0
 30 31  2  0
 31  5  1  0
 22 11  1  0
 29 24  1  0
 19 13  1  0
  1 32  1  0
  1 33  1  0
  1 34  1  0
  4 35  1  0
  6 36  1  0
  7 37  1  0
  9 38  1  0
 10 39  1  0
 14 40  1  0
 15 41  1  0
 16 42  1  0
 23 43  1  0
 23 44  1  0
 24 45  1  0
 25 46  1  0
 25 47  1  0
 26 48  1  0
 26 49  1  0
 27 50  1  0
 28 51  1  0
 28 52  1  0
 29 53  1  0
 29 54  1  0
 30 55  1  0
 31 56  1  0
M  END
>  <smiles>  (16) 
CC(=O)Nc1ccc(/C=C/c2nc3cccc(Cl)c3c(=O)n2CC2CCNCC2)cc1

>  <score_type>  (16) 
oracle

>  <origin>  (16) 
autodockgpu

>  <m_score__min__energy>  (16) 
-8.9499999999999993

>  <m_primary>  (16) 
energy

>  <rmsd>  (16) 
7.4625762035900145

>  <m_score__min__rmsd>  (16) 
7.4625762035900145

>  <meeko>  (16) 
{"free_energy": -7.88, "intermolecular_energy": -9.67, "internal_energy": -1.07, "cluster_size": 3, "cluster_id": 6, "rank_in_cluster": 2}

>  <energy>  (16) 
-8.28

>  <cluster_rmsd>  (16) 
1.12

>  <cluster>  (16) 
2

$$$$

     RDKit          3D

 56 59  0  0  0  0  0  0  0  0999 V2000
  132.5100   73.6690  227.5190 C   0  0  0  0  0  0  0  0  0  0  0  0
  133.3630   72.9120  226.5690 C   0  0  0  0  0  0  0  0  0  0  0  0
  134.3290   73.4880  225.9940 O   0  0  0  0  0  0  0  0  0  0  0  0
  133.0750   71.5510  226.3260 N   0  0  0  0  0  0  0  0  0  0  0  0
  133.8750   70.7990  225.4210 C   0  0  0  0  0  0  0  0  0  0  0  0
  134.6610   69.8000  225.9670 C   0  0  0  0  0  0  0  0  0  0  0  0
  135.4580   69.0440  225.1110 C   0  0  0  0  0  0  0  0  0  0  0  0
  135.4970   69.2450  223.7560 C   0  0  0  0  0  0  0  0  0  0  0  0
  136.3080   68.4820  222.8480 C   0  0  0  0  0  0  0  0  0  0  0  0
  137.6280   68.4770  222.8230 C   0  0  0  0  0  0  0  0  0  0  0  0
  138.3930   68.9810  223.9590 C   0  0  0  0  0  0  0  0  0  0  0  0
  138.8990   68.0970  224.8370 N   0  0  0  0  0  0  0  0  0  0  0  0
  139.6180   68.4160  225.9250 C   0  0  0  0  0  0  0  0  0  0  0  0
  140.1110   67.4460  226.7910 C   0  0  0  0  0  0  0  0  0  0  0  0
  140.8530   67.8340  227.9090 C   0  0  0  0  0  0  0  0  0  0  0  0
  141.0750   69.1770  228.1200 C   0  0  0  0  0  0  0  0  0  0  0  0
  140.5820   70.1370  227.2540 C   0  0  0  0  0  0  0  0  0  0  0  0
  140.8890   71.8350  227.5610 Cl  0  0  0  0  0  0  0  0  0  0  0  0
  139.8480   69.7580  226.1480 C   0  0  0  0  0  0  0  0  0  0  0  0
  139.3310   70.6680  225.2500 C   0  0  0  0  0  0  0  0  0  0  0  0
  139.5730   71.8880  225.5020 O   0  0  0  0  0  0  0  0  0  0  0  0
  138.6090   70.2930  224.1620 N   0  0  0  0  0  0  0  0  0  0  0  0
  138.0790   71.2880  223.2500 C   0  0  0  0  0  0  0  0  0  0  0  0
  138.9720   71.5880  222.0890 C   0  0  0  0  0  0  0  0  0  0  0  0
  138.6250   72.8080  221.3060 C   0  0  0  0  0  0  0  0  0  0  0  0
  139.0610   74.0900  221.9870 C   0  0  0  0  0  0  0  0  0  0  0  0
  140.5060   74.1450  221.9430 N   0  0  0  0  0  0  0  0  0  0  0  0
  141.1310   72.8640  221.8640 C   0  0  0  0  0  0  0  0  0  0  0  0
  140.3970   71.7600  222.5820 C   0  0  0  0  0  0  0  0  0  0  0  0
  134.6810   70.2680  223.2650 C   0  0  0  0  0  0  0  0  0  0  0  0
  133.8860   71.0340  224.0610 C   0  0  0  0  0  0  0  0  0  0  0  0
  132.7957   73.4154  228.5505 H   0  0  0  0  0  0  0  0  0  0  0  0
  132.6472   74.7481  227.3552 H   0  0  0  0  0  0  0  0  0  0  0  0
  131.4549   73.4045  227.3552 H   0  0  0  0  0  0  0  0  0  0  0  0
  132.2750   71.0630  226.8000 H   0  0  0  0  0  0  0  0  0  0  0  0
  134.6566   69.6076  227.0500 H   0  0  0  0  0  0  0  0  0  0  0  0
  136.0847   68.2494  225.5421 H   0  0  0  0  0  0  0  0  0  0  0  0
  135.7865   67.8504  222.1137 H   0  0  0  0  0  0  0  0  0  0  0  0
  138.1554   68.0898  221.9388 H   0  0  0  0  0  0  0  0  0  0  0  0
  139.9180   66.3806  226.5969 H   0  0  0  0  0  0  0  0  0  0  0  0
  141.2518   67.0827  228.6065 H   0  0  0  0  0  0  0  0  0  0  0  0
  141.6578   69.4937  228.9975 H   0  0  0  0  0  0  0  0  0  0  0  0
  137.1172   70.9226  222.8608 H   0  0  0  0  0  0  0  0  0  0  0  0
  137.9780   72.2218  223.8226 H   0  0  0  0  0  0  0  0  0  0  0  0
  138.8442   70.7298  221.4128 H   0  0  0  0  0  0  0  0  0  0  0  0
  139.1177   72.7469  220.3244 H   0  0  0  0  0  0  0  0  0  0  0  0
  137.5294   72.8399  221.2130 H   0  0  0  0  0  0  0  0  0  0  0  0
  138.6373   74.9570  221.4589 H   0  0  0  0  0  0  0  0  0  0  0  0
  138.7073   74.1113  223.0284 H   0  0  0  0  0  0  0  0  0  0  0  0
  140.7820   74.6820  221.0840 H   0  0  0  0  0  0  0  0  0  0  0  0
  141.2126   72.5874  220.8025 H   0  0  0  0  0  0  0  0  0  0  0  0
  142.1071   72.9631  222.3615 H   0  0  0  0  0  0  0  0  0  0  0  0
  140.9400   70.8163  222.4254 H   0  0  0  0  0  0  0  0  0  0  0  0
  140.3501   72.0299  223.6474 H   0  0  0  0  0  0  0  0  0  0  0  0
  134.6813   70.4636  222.1825 H   0  0  0  0  0  0  0  0  0  0  0  0
  133.2615   71.8286  223.6269 H   0  0  0  0  0  0  0  0  0  0  0  0
  1  2  1  0
  2  3  2  0
  2  4  1  0
  4  5  1  0
  5  6  2  0
  6  7  1  0
  7  8  2  0
  8  9  1  0
  9 10  2  0
 10 11  1  0
 11 12  2  0
 12 13  1  0
 13 14  2  0
 14 15  1  0
 15 16  2  0
 16 17  1  0
 17 18  1  0
 17 19  2  0
 19 20  1  0
 20 21  2  0
 20 22  1  0
 22 23  1  0
 23 24  1  0
 24 25  1  0
 25 26  1  0
 26 27  1  0
 27 28  1  0
 28 29  1  0
  8 30  1  0
 30 31  2  0
 31  5  1  0
 22 11  1  0
 29 24  1  0
 19 13  1  0
  1 32  1  0
  1 33  1  0
  1 34  1  0
  4 35  1  0
  6 36  1  0
  7 37  1  0
  9 38  1  0
 10 39  1  0
 14 40  1  0
 15 41  1  0
 16 42  1  0
 23 43  1  0
 23 44  1  0
 24 45  1  0
 25 46  1  0
 25 47  1  0
 26 48  1  0
 26 49  1  0
 27 50  1  0
 28 51  1  0
 28 52  1  0
 29 53  1  0
 29 54  1  0
 30 55  1  0
 31 56  1  0
M  END
>  <smiles>  (17) 
CC(=O)Nc1ccc(/C=C/c2nc3cccc(Cl)c3c(=O)n2CC2CCNCC2)cc1

>  <score_type>  (17) 
oracle

>  <origin>  (17) 
autodockgpu

>  <m_score__min__energy>  (17) 
-8.9499999999999993

>  <m_primary>  (17) 
energy

>  <rmsd>  (17) 
11.136811403531533

>  <m_score__min__rmsd>  (17) 
11.136811403531533

>  <meeko>  (17) 
{"free_energy": -8.02, "intermolecular_energy": -9.81, "internal_energy": -1.93, "cluster_size": 17, "cluster_id": 3, "rank_in_cluster": 7}

>  <energy>  (17) 
-8.07

>  <cluster_rmsd>  (17) 
1.29

>  <cluster>  (17) 
2

$$$$

     RDKit          3D

 56 59  0  0  0  0  0  0  0  0999 V2000
  142.7160   82.4360  216.3940 C   0  0  0  0  0  0  0  0  0  0  0  0
  142.2890   81.4110  217.3790 C   0  0  0  0  0  0  0  0  0  0  0  0
  141.8870   81.7660  218.5230 O   0  0  0  0  0  0  0  0  0  0  0  0
  142.3420   80.0470  217.0140 N   0  0  0  0  0  0  0  0  0  0  0  0
  141.9400   79.0420  217.9370 C   0  0  0  0  0  0  0  0  0  0  0  0
  142.9410   78.2440  218.4620 C   0  0  0  0  0  0  0  0  0  0  0  0
  142.5840   77.2480  219.3690 C   0  0  0  0  0  0  0  0  0  0  0  0
  141.2910   77.0260  219.7630 C   0  0  0  0  0  0  0  0  0  0  0  0
  140.8930   76.0080  220.6950 C   0  0  0  0  0  0  0  0  0  0  0  0
  140.6550   76.1980  221.9790 C   0  0  0  0  0  0  0  0  0  0  0  0
  139.7170   77.2300  222.4150 C   0  0  0  0  0  0  0  0  0  0  0  0
  138.4280   77.1220  222.0480 N   0  0  0  0  0  0  0  0  0  0  0  0
  137.4600   77.9940  222.3720 C   0  0  0  0  0  0  0  0  0  0  0  0
  136.1430   77.8190  221.9570 C   0  0  0  0  0  0  0  0  0  0  0  0
  135.1750   78.7570  222.3230 C   0  0  0  0  0  0  0  0  0  0  0  0
  135.5580   79.8350  223.0890 C   0  0  0  0  0  0  0  0  0  0  0  0
  136.8690   80.0040  223.4990 C   0  0  0  0  0  0  0  0  0  0  0  0
  137.3110   81.3900  224.4740 Cl  0  0  0  0  0  0  0  0  0  0  0  0
  137.8290   79.0790  223.1400 C   0  0  0  0  0  0  0  0  0  0  0  0
  139.1500   79.1930  223.5180 C   0  0  0  0  0  0  0  0  0  0  0  0
  139.4360   80.2080  224.2240 O   0  0  0  0  0  0  0  0  0  0  0  0
  140.0940   78.2810  223.1630 N   0  0  0  0  0  0  0  0  0  0  0  0
  141.4720   78.4480  223.5790 C   0  0  0  0  0  0  0  0  0  0  0  0
  142.2170   79.4970  222.8170 C   0  0  0  0  0  0  0  0  0  0  0  0
  141.8940   79.5920  221.3650 C   0  0  0  0  0  0  0  0  0  0  0  0
  140.5860   80.3110  221.0980 C   0  0  0  0  0  0  0  0  0  0  0  0
  140.7740   81.7080  221.4230 N   0  0  0  0  0  0  0  0  0  0  0  0
  141.7950   81.9430  222.3950 C   0  0  0  0  0  0  0  0  0  0  0  0
  141.9400   80.8560  223.4300 C   0  0  0  0  0  0  0  0  0  0  0  0
  140.3260   77.8650  219.1970 C   0  0  0  0  0  0  0  0  0  0  0  0
  140.6250   78.8500  218.3080 C   0  0  0  0  0  0  0  0  0  0  0  0
  143.0861   83.3245  216.9265 H   0  0  0  0  0  0  0  0  0  0  0  0
  143.5182   82.0262  215.7628 H   0  0  0  0  0  0  0  0  0  0  0  0
  141.8601   82.7169  215.7628 H   0  0  0  0  0  0  0  0  0  0  0  0
  142.6750   79.7420  216.0660 H   0  0  0  0  0  0  0  0  0  0  0  0
  143.9914   78.3919  218.1710 H   0  0  0  0  0  0  0  0  0  0  0  0
  143.3769   76.6109  219.7877 H   0  0  0  0  0  0  0  0  0  0  0  0
  140.7770   74.9855  220.3063 H   0  0  0  0  0  0  0  0  0  0  0  0
  141.1668   75.5746  222.7269 H   0  0  0  0  0  0  0  0  0  0  0  0
  135.8664   76.9479  221.3449 H   0  0  0  0  0  0  0  0  0  0  0  0
  134.1286   78.6370  222.0059 H   0  0  0  0  0  0  0  0  0  0  0  0
  134.8037   80.5800  223.3823 H   0  0  0  0  0  0  0  0  0  0  0  0
  141.4804   78.7232  224.6440 H   0  0  0  0  0  0  0  0  0  0  0  0
  141.9805   77.4925  223.3831 H   0  0  0  0  0  0  0  0  0  0  0  0
  143.2719   79.1933  222.8879 H   0  0  0  0  0  0  0  0  0  0  0  0
  142.7043   80.1382  220.8601 H   0  0  0  0  0  0  0  0  0  0  0  0
  141.7914   78.5661  220.9816 H   0  0  0  0  0  0  0  0  0  0  0  0
  140.3118   80.2072  220.0378 H   0  0  0  0  0  0  0  0  0  0  0  0
  139.7793   79.8799  221.7091 H   0  0  0  0  0  0  0  0  0  0  0  0
  141.0580   82.2090  220.5450 H   0  0  0  0  0  0  0  0  0  0  0  0
  142.7546   82.0438  221.8668 H   0  0  0  0  0  0  0  0  0  0  0  0
  141.5034   82.8537  222.9388 H   0  0  0  0  0  0  0  0  0  0  0  0
  142.7731   81.1164  224.0994 H   0  0  0  0  0  0  0  0  0  0  0  0
  140.9868   80.7866  223.9745 H   0  0  0  0  0  0  0  0  0  0  0  0
  139.2741   77.7214  219.4847 H   0  0  0  0  0  0  0  0  0  0  0  0
  139.8295   79.4847  217.8906 H   0  0  0  0  0  0  0  0  0  0  0  0
  1  2  1  0
  2  3  2  0
  2  4  1  0
  4  5  1  0
  5  6  2  0
  6  7  1  0
  7  8  2  0
  8  9  1  0
  9 10  2  0
 10 11  1  0
 11 12  2  0
 12 13  1  0
 13 14  2  0
 14 15  1  0
 15 16  2  0
 16 17  1  0
 17 18  1  0
 17 19  2  0
 19 20  1  0
 20 21  2  0
 20 22  1  0
 22 23  1  0
 23 24  1  0
 24 25  1  0
 25 26  1  0
 26 27  1  0
 27 28  1  0
 28 29  1  0
  8 30  1  0
 30 31  2  0
 31  5  1  0
 22 11  1  0
 29 24  1  0
 19 13  1  0
  1 32  1  0
  1 33  1  0
  1 34  1  0
  4 35  1  0
  6 36  1  0
  7 37  1  0
  9 38  1  0
 10 39  1  0
 14 40  1  0
 15 41  1  0
 16 42  1  0
 23 43  1  0
 23 44  1  0
 24 45  1  0
 25 46  1  0
 25 47  1  0
 26 48  1  0
 26 49  1  0
 27 50  1  0
 28 51  1  0
 28 52  1  0
 29 53  1  0
 29 54  1  0
 30 55  1  0
 31 56  1  0
M  END
>  <smiles>  (18) 
CC(=O)Nc1ccc(/C=C/c2nc3cccc(Cl)c3c(=O)n2CC2CCNCC2)cc1

>  <score_type>  (18) 
oracle

>  <origin>  (18) 
autodockgpu

>  <m_score__min__energy>  (18) 
-8.9499999999999993

>  <m_primary>  (18) 
energy

>  <rmsd>  (18) 
4.457492787496479

>  <m_score__min__rmsd>  (18) 
4.457492787496479

>  <meeko>  (18) 
{"free_energy": -6.32, "intermolecular_energy": -8.11, "internal_energy": -2.9, "cluster_size": 4, "cluster_id": 7, "rank_in_cluster": 3}

>  <energy>  (18) 
-7.95

>  <cluster_rmsd>  (18) 
1.31

>  <cluster>  (18) 
2

$$$$

     RDKit          3D

 56 59  0  0  0  0  0  0  0  0999 V2000
  142.6760   79.0440  218.0750 C   0  0  0  0  0  0  0  0  0  0  0  0
  142.1990   77.7190  218.5430 C   0  0  0  0  0  0  0  0  0  0  0  0
  141.1650   77.2050  218.0320 O   0  0  0  0  0  0  0  0  0  0  0  0
  142.9180   77.0530  219.5620 N   0  0  0  0  0  0  0  0  0  0  0  0
  142.4850   75.7820  220.0320 C   0  0  0  0  0  0  0  0  0  0  0  0
  141.2920   75.7520  220.7320 C   0  0  0  0  0  0  0  0  0  0  0  0
  140.8380   74.5250  221.2080 C   0  0  0  0  0  0  0  0  0  0  0  0
  141.5160   73.3510  221.0130 C   0  0  0  0  0  0  0  0  0  0  0  0
  141.0720   72.0710  221.4920 C   0  0  0  0  0  0  0  0  0  0  0  0
  139.9850   71.8580  222.2090 C   0  0  0  0  0  0  0  0  0  0  0  0
  140.0770   71.2450  223.5320 C   0  0  0  0  0  0  0  0  0  0  0  0
  140.6110   71.9620  224.5360 N   0  0  0  0  0  0  0  0  0  0  0  0
  140.7610   71.5280  225.7970 C   0  0  0  0  0  0  0  0  0  0  0  0
  141.3240   72.3270  226.7880 C   0  0  0  0  0  0  0  0  0  0  0  0
  141.4560   71.8240  228.0850 C   0  0  0  0  0  0  0  0  0  0  0  0
  141.0220   70.5430  228.3430 C   0  0  0  0  0  0  0  0  0  0  0  0
  140.4630   69.7540  227.3540 C   0  0  0  0  0  0  0  0  0  0  0  0
  139.9230   68.1300  227.7280 Cl  0  0  0  0  0  0  0  0  0  0  0  0
  140.3300   70.2460  226.0710 C   0  0  0  0  0  0  0  0  0  0  0  0
  139.7810   69.5080  225.0440 C   0  0  0  0  0  0  0  0  0  0  0  0
  139.4000   68.3370  225.3500 O   0  0  0  0  0  0  0  0  0  0  0  0
  139.6510   69.9950  223.7810 N   0  0  0  0  0  0  0  0  0  0  0  0
  139.0750   69.1770  222.7330 C   0  0  0  0  0  0  0  0  0  0  0  0
  137.5800   69.1420  222.7390 C   0  0  0  0  0  0  0  0  0  0  0  0
  136.9240   69.7730  223.9190 C   0  0  0  0  0  0  0  0  0  0  0  0
  136.8990   71.2870  223.8410 C   0  0  0  0  0  0  0  0  0  0  0  0
  135.9770   71.6600  222.7890 N   0  0  0  0  0  0  0  0  0  0  0  0
  135.8190   70.6640  221.7780 C   0  0  0  0  0  0  0  0  0  0  0  0
  137.0550   69.8460  221.5020 C   0  0  0  0  0  0  0  0  0  0  0  0
  142.7140   73.4470  220.2990 C   0  0  0  0  0  0  0  0  0  0  0  0
  143.1990   74.6220  219.8140 C   0  0  0  0  0  0  0  0  0  0  0  0
  142.9046   79.6791  218.9435 H   0  0  0  0  0  0  0  0  0  0  0  0
  143.5835   78.9133  217.4673 H   0  0  0  0  0  0  0  0  0  0  0  0
  141.8934   79.5217  217.4673 H   0  0  0  0  0  0  0  0  0  0  0  0
  143.7790   77.4720  219.9930 H   0  0  0  0  0  0  0  0  0  0  0  0
  140.7174   76.6733  220.9078 H   0  0  0  0  0  0  0  0  0  0  0  0
  139.8908   74.4971  221.7666 H   0  0  0  0  0  0  0  0  0  0  0  0
  141.6895   71.1962  221.2401 H   0  0  0  0  0  0  0  0  0  0  0  0
  139.0017   72.1442  221.8074 H   0  0  0  0  0  0  0  0  0  0  0  0
  141.6625   73.3467  226.5519 H   0  0  0  0  0  0  0  0  0  0  0  0
  141.8974   72.4387  228.8833 H   0  0  0  0  0  0  0  0  0  0  0  0
  141.1223   70.1372  229.3605 H   0  0  0  0  0  0  0  0  0  0  0  0
  139.4075   69.5741  221.7625 H   0  0  0  0  0  0  0  0  0  0  0  0
  139.4175   68.1468  222.9099 H   0  0  0  0  0  0  0  0  0  0  0  0
  137.3291   68.0715  222.7714 H   0  0  0  0  0  0  0  0  0  0  0  0
  135.8883   69.4077  223.9818 H   0  0  0  0  0  0  0  0  0  0  0  0
  137.5099   69.4980  224.8085 H   0  0  0  0  0  0  0  0  0  0  0  0
  136.5614   71.7057  224.8005 H   0  0  0  0  0  0  0  0  0  0  0  0
  137.9048   71.6777  223.6272 H   0  0  0  0  0  0  0  0  0  0  0  0
  135.0350   71.8150  223.2260 H   0  0  0  0  0  0  0  0  0  0  0  0
  135.0181   69.9792  222.0937 H   0  0  0  0  0  0  0  0  0  0  0  0
  135.5867   71.2006  220.8463 H   0  0  0  0  0  0  0  0  0  0  0  0
  136.8131   69.0884  220.7421 H   0  0  0  0  0  0  0  0  0  0  0  0
  137.8386   70.5353  221.1545 H   0  0  0  0  0  0  0  0  0  0  0  0
  143.2923   72.5284  220.1207 H   0  0  0  0  0  0  0  0  0  0  0  0
  144.1467   74.6466  219.2561 H   0  0  0  0  0  0  0  0  0  0  0  0
  1  2  1  0
  2  3  2  0
  2  4  1  0
  4  5  1  0
  5  6  2  0
  6  7  1  0
  7  8  2  0
  8  9  1  0
  9 10  2  0
 10 11  1  0
 11 12  2  0
 12 13  1  0
 13 14  2  0
 14 15  1  0
 15 16  2  0
 16 17  1  0
 17 18  1  0
 17 19  2  0
 19 20  1  0
 20 21  2  0
 20 22  1  0
 22 23  1  0
 23 24  1  0
 24 25  1  0
 25 26  1  0
 26 27  1  0
 27 28  1  0
 28 29  1  0
  8 30  1  0
 30 31  2  0
 31  5  1  0
 22 11  1  0
 29 24  1  0
 19 13  1  0
  1 32  1  0
  1 33  1  0
  1 34  1  0
  4 35  1  0
  6 36  1  0
  7 37  1  0
  9 38  1  0
 10 39  1  0
 14 40  1  0
 15 41  1  0
 16 42  1  0
 23 43  1  0
 23 44  1  0
 24 45  1  0
 25 46  1  0
 25 47  1  0
 26 48  1  0
 26 49  1  0
 27 50  1  0
 28 51  1  0
 28 52  1  0
 29 53  1  0
 29 54  1  0
 30 55  1  0
 31 56  1  0
M  END
>  <smiles>  (19) 
CC(=O)Nc1ccc(/C=C/c2nc3cccc(Cl)c3c(=O)n2CC2CCNCC2)cc1

>  <score_type>  (19) 
oracle

>  <origin>  (19) 
autodockgpu

>  <m_score__min__energy>  (19) 
-8.9499999999999993

>  <m_primary>  (19) 
energy

>  <rmsd>  (19) 
11.232922765186578

>  <m_score__min__rmsd>  (19) 
11.232922765186578

>  <meeko>  (19) 
{"free_energy": -8.13, "intermolecular_energy": -9.92, "internal_energy": -1.53, "cluster_size": 2, "cluster_id": 5, "rank_in_cluster": 1}

>  <energy>  (19) 
-7.94

>  <cluster_rmsd>  (19) 
1.26

>  <cluster>  (19) 
2

$$$$

     RDKit          3D

 56 59  0  0  0  0  0  0  0  0999 V2000
  133.1520   74.4060  226.5040 C   0  0  0  0  0  0  0  0  0  0  0  0
  134.0070   73.5090  225.6880 C   0  0  0  0  0  0  0  0  0  0  0  0
  135.0030   73.9790  225.0690 O   0  0  0  0  0  0  0  0  0  0  0  0
  133.6880   72.1340  225.6200 N   0  0  0  0  0  0  0  0  0  0  0  0
  134.4900   71.2490  224.8460 C   0  0  0  0  0  0  0  0  0  0  0  0
  134.9180   70.0910  225.4710 C   0  0  0  0  0  0  0  0  0  0  0  0
  135.7060   69.2020  224.7440 C   0  0  0  0  0  0  0  0  0  0  0  0
  136.0720   69.4210  223.4420 C   0  0  0  0  0  0  0  0  0  0  0  0
  136.8820   68.5230  222.6670 C   0  0  0  0  0  0  0  0  0  0  0  0
  138.1760   68.3240  222.8340 C   0  0  0  0  0  0  0  0  0  0  0  0
  138.8820   68.9360  223.9570 C   0  0  0  0  0  0  0  0  0  0  0  0
  139.1380   68.1830  225.0420 N   0  0  0  0  0  0  0  0  0  0  0  0
  139.7720   68.6120  226.1440 C   0  0  0  0  0  0  0  0  0  0  0  0
  140.0040   67.7750  227.2320 C   0  0  0  0  0  0  0  0  0  0  0  0
  140.6700   68.2740  228.3540 C   0  0  0  0  0  0  0  0  0  0  0  0
  141.0790   69.5880  228.3480 C   0  0  0  0  0  0  0  0  0  0  0  0
  140.8460   70.4150  227.2640 C   0  0  0  0  0  0  0  0  0  0  0  0
  141.3850   72.0810  227.3000 Cl  0  0  0  0  0  0  0  0  0  0  0  0
  140.1890   69.9270  226.1520 C   0  0  0  0  0  0  0  0  0  0  0  0
  139.9280   70.7020  225.0420 C   0  0  0  0  0  0  0  0  0  0  0  0
  140.3330   71.9030  225.1010 O   0  0  0  0  0  0  0  0  0  0  0  0
  139.2800   70.2200  223.9490 N   0  0  0  0  0  0  0  0  0  0  0  0
  139.0230   71.0760  222.8080 C   0  0  0  0  0  0  0  0  0  0  0  0
  140.2530   71.6780  222.2060 C   0  0  0  0  0  0  0  0  0  0  0  0
  140.6880   71.0940  220.9060 C   0  0  0  0  0  0  0  0  0  0  0  0
  139.8610   71.5830  219.7330 C   0  0  0  0  0  0  0  0  0  0  0  0
  140.1790   72.9790  219.5210 N   0  0  0  0  0  0  0  0  0  0  0  0
  140.6380   73.6530  220.6930 C   0  0  0  0  0  0  0  0  0  0  0  0
  140.0280   73.1610  221.9810 C   0  0  0  0  0  0  0  0  0  0  0  0
  135.6080   70.6080  222.8670 C   0  0  0  0  0  0  0  0  0  0  0  0
  134.8370   71.5080  223.5360 C   0  0  0  0  0  0  0  0  0  0  0  0
  133.3342   74.2148  227.5718 H   0  0  0  0  0  0  0  0  0  0  0  0
  133.3941   75.4538  226.2726 H   0  0  0  0  0  0  0  0  0  0  0  0
  132.0938   74.2144  226.2726 H   0  0  0  0  0  0  0  0  0  0  0  0
  132.8630   71.7330  226.1310 H   0  0  0  0  0  0  0  0  0  0  0  0
  134.6431   69.8782  226.5146 H   0  0  0  0  0  0  0  0  0  0  0  0
  136.0504   68.2815  225.2380 H   0  0  0  0  0  0  0  0  0  0  0  0
  136.3828   67.9544  221.8686 H   0  0  0  0  0  0  0  0  0  0  0  0
  138.7273   67.6923  222.1219 H   0  0  0  0  0  0  0  0  0  0  0  0
  139.6654   66.7287  227.2083 H   0  0  0  0  0  0  0  0  0  0  0  0
  140.8635   67.6299  229.2244 H   0  0  0  0  0  0  0  0  0  0  0  0
  141.6041   69.9905  229.2268 H   0  0  0  0  0  0  0  0  0  0  0  0
  138.5171   70.4787  222.0352 H   0  0  0  0  0  0  0  0  0  0  0  0
  138.4064   71.9114  223.1711 H   0  0  0  0  0  0  0  0  0  0  0  0
  141.0504   71.4625  222.9325 H   0  0  0  0  0  0  0  0  0  0  0  0
  141.7392   71.3677  220.7326 H   0  0  0  0  0  0  0  0  0  0  0  0
  140.5542   70.0042  220.9726 H   0  0  0  0  0  0  0  0  0  0  0  0
  140.1080   71.0017  218.8324 H   0  0  0  0  0  0  0  0  0  0  0  0
  138.7878   71.4599  219.9407 H   0  0  0  0  0  0  0  0  0  0  0  0
  140.9490   73.0300  218.8090 H   0  0  0  0  0  0  0  0  0  0  0  0
  141.7283   73.5230  220.7584 H   0  0  0  0  0  0  0  0  0  0  0  0
  140.3338   74.7047  220.5864 H   0  0  0  0  0  0  0  0  0  0  0  0
  140.4772   73.7161  222.8177 H   0  0  0  0  0  0  0  0  0  0  0  0
  138.9423   73.3268  221.9192 H   0  0  0  0  0  0  0  0  0  0  0  0
  135.8793   70.8249  221.8233 H   0  0  0  0  0  0  0  0  0  0  0  0
  134.4955   72.4284  223.0397 H   0  0  0  0  0  0  0  0  0  0  0  0
  1  2  1  0
  2  3  2  0
  2  4  1  0
  4  5  1  0
  5  6  2  0
  6  7  1  0
  7  8  2  0
  8  9  1  0
  9 10  2  0
 10 11  1  0
 11 12  2  0
 12 13  1  0
 13 14  2  0
 14 15  1  0
 15 16  2  0
 16 17  1  0
 17 18  1  0
 17 19  2  0
 19 20  1  0
 20 21  2  0
 20 22  1  0
 22 23  1  0
 23 24  1  0
 24 25  1  0
 25 26  1  0
 26 27  1  0
 27 28  1  0
 28 29  1  0
  8 30  1  0
 30 31  2  0
 31  5  1  0
 22 11  1  0
 29 24  1  0
 19 13  1  0
  1 32  1  0
  1 33  1  0
  1 34  1  0
  4 35  1  0
  6 36  1  0
  7 37  1  0
  9 38  1  0
 10 39  1  0
 14 40  1  0
 15 41  1  0
 16 42  1  0
 23 43  1  0
 23 44  1  0
 24 45  1  0
 25 46  1  0
 25 47  1  0
 26 48  1  0
 26 49  1  0
 27 50  1  0
 28 51  1  0
 28 52  1  0
 29 53  1  0
 29 54  1  0
 30 55  1  0
 31 56  1  0
M  END
>  <smiles>  (20) 
CC(=O)Nc1ccc(/C=C/c2nc3cccc(Cl)c3c(=O)n2CC2CCNCC2)cc1

>  <score_type>  (20) 
oracle

>  <origin>  (20) 
autodockgpu

>  <m_score__min__energy>  (20) 
-8.9499999999999993

>  <m_primary>  (20) 
energy

>  <rmsd>  (20) 
11.101353529689595

>  <m_score__min__rmsd>  (20) 
11.101353529689595

>  <meeko>  (20) 
{"free_energy": -7.4, "intermolecular_energy": -9.19, "internal_energy": -1.86, "cluster_size": 17, "cluster_id": 3, "rank_in_cluster": 15}

>  <energy>  (20) 
-7.87

>  <cluster_rmsd>  (20) 
1.27

>  <cluster>  (20) 
2

$$$$

     RDKit          3D

 56 59  0  0  0  0  0  0  0  0999 V2000
  132.5180   73.1710  227.1720 C   0  0  0  0  0  0  0  0  0  0  0  0
  133.4780   72.3970  226.3470 C   0  0  0  0  0  0  0  0  0  0  0  0
  134.5770   72.9170  226.0050 O   0  0  0  0  0  0  0  0  0  0  0  0
  133.1400   71.0820  225.9570 N   0  0  0  0  0  0  0  0  0  0  0  0
  134.0400   70.3150  225.1650 C   0  0  0  0  0  0  0  0  0  0  0  0
  133.7910   70.2750  223.8050 C   0  0  0  0  0  0  0  0  0  0  0  0
  134.6510   69.5330  222.9980 C   0  0  0  0  0  0  0  0  0  0  0  0
  135.7290   68.8450  223.4910 C   0  0  0  0  0  0  0  0  0  0  0  0
  136.6320   68.0720  222.6850 C   0  0  0  0  0  0  0  0  0  0  0  0
  137.9390   68.2460  222.6200 C   0  0  0  0  0  0  0  0  0  0  0  0
  138.6610   68.8570  223.7330 C   0  0  0  0  0  0  0  0  0  0  0  0
  138.8400   68.1380  224.8550 N   0  0  0  0  0  0  0  0  0  0  0  0
  139.4790   68.5700  225.9530 C   0  0  0  0  0  0  0  0  0  0  0  0
  139.6260   67.7690  227.0820 C   0  0  0  0  0  0  0  0  0  0  0  0
  140.3010   68.2700  228.1980 C   0  0  0  0  0  0  0  0  0  0  0  0
  140.8030   69.5510  228.1450 C   0  0  0  0  0  0  0  0  0  0  0  0
  140.6540   70.3420  227.0200 C   0  0  0  0  0  0  0  0  0  0  0  0
  141.3090   71.9670  226.9970 Cl  0  0  0  0  0  0  0  0  0  0  0  0
  139.9870   69.8520  225.9150 C   0  0  0  0  0  0  0  0  0  0  0  0
  139.8070   70.5920  224.7660 C   0  0  0  0  0  0  0  0  0  0  0  0
  140.2950   71.7640  224.7830 O   0  0  0  0  0  0  0  0  0  0  0  0
  139.1510   70.1080  223.6790 N   0  0  0  0  0  0  0  0  0  0  0  0
  138.9800   70.9280  222.4960 C   0  0  0  0  0  0  0  0  0  0  0  0
  138.2240   72.1950  222.7350 C   0  0  0  0  0  0  0  0  0  0  0  0
  137.7940   72.9320  221.5130 C   0  0  0  0  0  0  0  0  0  0  0  0
  136.5750   72.3170  220.8520 C   0  0  0  0  0  0  0  0  0  0  0  0
  135.4390   72.5470  221.7190 N   0  0  0  0  0  0  0  0  0  0  0  0
  135.7840   72.7020  223.0960 C   0  0  0  0  0  0  0  0  0  0  0  0
  136.9750   71.8910  223.5410 C   0  0  0  0  0  0  0  0  0  0  0  0
  135.9250   68.9240  224.8730 C   0  0  0  0  0  0  0  0  0  0  0  0
  135.1130   69.6350  225.7010 C   0  0  0  0  0  0  0  0  0  0  0  0
  132.7297   73.0003  228.2379 H   0  0  0  0  0  0  0  0  0  0  0  0
  132.6200   74.2425  226.9449 H   0  0  0  0  0  0  0  0  0  0  0  0
  131.4926   72.8441  226.9449 H   0  0  0  0  0  0  0  0  0  0  0  0
  132.2290   70.6400  226.2370 H   0  0  0  0  0  0  0  0  0  0  0  0
  132.9362   70.8150  223.3717 H   0  0  0  0  0  0  0  0  0  0  0  0
  134.4559   69.4978  221.9160 H   0  0  0  0  0  0  0  0  0  0  0  0
  136.1988   67.2686  222.0711 H   0  0  0  0  0  0  0  0  0  0  0  0
  138.4882   67.9286  221.7213 H   0  0  0  0  0  0  0  0  0  0  0  0
  139.2138   66.7492  227.0954 H   0  0  0  0  0  0  0  0  0  0  0  0
  140.4287   67.6538  229.1002 H   0  0  0  0  0  0  0  0  0  0  0  0
  141.3355   69.9552  229.0185 H   0  0  0  0  0  0  0  0  0  0  0  0
  139.9763   71.1881  222.1092 H   0  0  0  0  0  0  0  0  0  0  0  0
  138.3882   70.3356  221.7826 H   0  0  0  0  0  0  0  0  0  0  0  0
  138.9366   72.8461  223.2626 H   0  0  0  0  0  0  0  0  0  0  0  0
  137.5558   73.9686  221.7937 H   0  0  0  0  0  0  0  0  0  0  0  0
  138.6215   72.8840  220.7899 H   0  0  0  0  0  0  0  0  0  0  0  0
  136.4012   72.7895  219.8740 H   0  0  0  0  0  0  0  0  0  0  0  0
  136.7261   71.2389  220.6941 H   0  0  0  0  0  0  0  0  0  0  0  0
  134.9740   73.4370  221.4110 H   0  0  0  0  0  0  0  0  0  0  0  0
  136.0057   73.7642  223.2765 H   0  0  0  0  0  0  0  0  0  0  0  0
  134.9238   72.3356  223.6756 H   0  0  0  0  0  0  0  0  0  0  0  0
  137.1764   72.1130  224.5994 H   0  0  0  0  0  0  0  0  0  0  0  0
  136.7305   70.8295  223.3876 H   0  0  0  0  0  0  0  0  0  0  0  0
  136.7774   68.3850  225.3122 H   0  0  0  0  0  0  0  0  0  0  0  0
  135.3097   69.6670  226.7828 H   0  0  0  0  0  0  0  0  0  0  0  0
  1  2  1  0
  2  3  2  0
  2  4  1  0
  4  5  1  0
  5  6  2  0
  6  7  1  0
  7  8  2  0
  8  9  1  0
  9 10  2  0
 10 11  1  0
 11 12  2  0
 12 13  1  0
 13 14  2  0
 14 15  1  0
 15 16  2  0
 16 17  1  0
 17 18  1  0
 17 19  2  0
 19 20  1  0
 20 21  2  0
 20 22  1  0
 22 23  1  0
 23 24  1  0
 24 25  1  0
 25 26  1  0
 26 27  1  0
 27 28  1  0
 28 29  1  0
  8 30  1  0
 30 31  2  0
 31  5  1  0
 22 11  1  0
 29 24  1  0
 19 13  1  0
  1 32  1  0
  1 33  1  0
  1 34  1  0
  4 35  1  0
  6 36  1  0
  7 37  1  0
  9 38  1  0
 10 39  1  0
 14 40  1  0
 15 41  1  0
 16 42  1  0
 23 43  1  0
 23 44  1  0
 24 45  1  0
 25 46  1  0
 25 47  1  0
 26 48  1  0
 26 49  1  0
 27 50  1  0
 28 51  1  0
 28 52  1  0
 29 53  1  0
 29 54  1  0
 30 55  1  0
 31 56  1  0
M  END
>  <smiles>  (21) 
CC(=O)Nc1ccc(/C=C/c2nc3cccc(Cl)c3c(=O)n2CC2CCNCC2)cc1

>  <score_type>  (21) 
oracle

>  <origin>  (21) 
autodockgpu

>  <m_score__min__energy>  (21) 
-8.9499999999999993

>  <m_primary>  (21) 
energy

>  <rmsd>  (21) 
10.99065284972283

>  <m_score__min__rmsd>  (21) 
10.99065284972283

>  <meeko>  (21) 
{"free_energy": -6.88, "intermolecular_energy": -8.67, "internal_energy": -2.52, "cluster_size": 17, "cluster_id": 3, "rank_in_cluster": 16}

>  <energy>  (21) 
-8.24

>  <cluster_rmsd>  (21) 
0.0

>  <cluster>  (21) 
3

$$$$

     RDKit          3D

 56 59  0  0  0  0  0  0  0  0999 V2000
  131.3240   72.9040  227.7680 C   0  0  0  0  0  0  0  0  0  0  0  0
  132.0120   72.0890  226.7360 C   0  0  0  0  0  0  0  0  0  0  0  0
  131.3950   71.7490  225.6880 O   0  0  0  0  0  0  0  0  0  0  0  0
  133.3550   71.7060  226.9490 N   0  0  0  0  0  0  0  0  0  0  0  0
  134.0410   70.9250  225.9770 C   0  0  0  0  0  0  0  0  0  0  0  0
  134.4180   71.5710  224.8130 C   0  0  0  0  0  0  0  0  0  0  0  0
  135.0910   70.8380  223.8390 C   0  0  0  0  0  0  0  0  0  0  0  0
  135.3950   69.5100  223.9820 C   0  0  0  0  0  0  0  0  0  0  0  0
  136.0870   68.7270  222.9960 C   0  0  0  0  0  0  0  0  0  0  0  0
  137.3880   68.5090  222.9680 C   0  0  0  0  0  0  0  0  0  0  0  0
  138.2460   69.0060  224.0410 C   0  0  0  0  0  0  0  0  0  0  0  0
  138.7360   68.1270  224.9330 N   0  0  0  0  0  0  0  0  0  0  0  0
  139.5310   68.4410  225.9670 C   0  0  0  0  0  0  0  0  0  0  0  0
  140.0010   67.4760  226.8530 C   0  0  0  0  0  0  0  0  0  0  0  0
  140.8270   67.8580  227.9130 C   0  0  0  0  0  0  0  0  0  0  0  0
  141.1510   69.1890  228.0490 C   0  0  0  0  0  0  0  0  0  0  0  0
  140.6800   70.1440  227.1660 C   0  0  0  0  0  0  0  0  0  0  0  0
  141.1190   71.8270  227.3770 Cl  0  0  0  0  0  0  0  0  0  0  0  0
  139.8640   69.7710  226.1160 C   0  0  0  0  0  0  0  0  0  0  0  0
  139.3650   70.6760  225.2040 C   0  0  0  0  0  0  0  0  0  0  0  0
  139.7030   71.8860  225.3860 O   0  0  0  0  0  0  0  0  0  0  0  0
  138.5610   70.3070  224.1710 N   0  0  0  0  0  0  0  0  0  0  0  0
  138.0550   71.2970  223.2420 C   0  0  0  0  0  0  0  0  0  0  0  0
  138.9500   71.5500  222.0710 C   0  0  0  0  0  0  0  0  0  0  0  0
  138.6590   72.7870  221.2910 C   0  0  0  0  0  0  0  0  0  0  0  0
  139.1700   74.0440  221.9680 C   0  0  0  0  0  0  0  0  0  0  0  0
  140.6160   74.0220  221.9080 N   0  0  0  0  0  0  0  0  0  0  0  0
  141.1710   72.7090  221.8220 C   0  0  0  0  0  0  0  0  0  0  0  0
  140.3860   71.6450  222.5480 C   0  0  0  0  0  0  0  0  0  0  0  0
  134.9860   68.9140  225.1790 C   0  0  0  0  0  0  0  0  0  0  0  0
  134.3270   69.5880  226.1600 C   0  0  0  0  0  0  0  0  0  0  0  0
  131.6192   72.5543  228.7683 H   0  0  0  0  0  0  0  0  0  0  0  0
  131.6077   73.9602  227.6503 H   0  0  0  0  0  0  0  0  0  0  0  0
  130.2351   72.8015  227.6503 H   0  0  0  0  0  0  0  0  0  0  0  0
  133.8770   71.9830  227.8170 H   0  0  0  0  0  0  0  0  0  0  0  0
  134.1918   72.6367  224.6609 H   0  0  0  0  0  0  0  0  0  0  0  0
  135.3923   71.3486  222.9125 H   0  0  0  0  0  0  0  0  0  0  0  0
  135.4820   68.2714  222.1982 H   0  0  0  0  0  0  0  0  0  0  0  0
  137.8299   67.9490  222.1307 H   0  0  0  0  0  0  0  0  0  0  0  0
  139.7240   66.4198  226.7196 H   0  0  0  0  0  0  0  0  0  0  0  0
  141.2103   67.1111  228.6238 H   0  0  0  0  0  0  0  0  0  0  0  0
  141.8004   69.5008  228.8803 H   0  0  0  0  0  0  0  0  0  0  0  0
  137.0817   70.9505  222.8643 H   0  0  0  0  0  0  0  0  0  0  0  0
  137.9831   72.2443  223.7964 H   0  0  0  0  0  0  0  0  0  0  0  0
  138.7697   70.7004  221.3959 H   0  0  0  0  0  0  0  0  0  0  0  0
  139.1371   72.7005  220.3041 H   0  0  0  0  0  0  0  0  0  0  0  0
  137.5657   72.8767  221.2091 H   0  0  0  0  0  0  0  0  0  0  0  0
  138.7872   74.9328  221.4450 H   0  0  0  0  0  0  0  0  0  0  0  0
  138.8293   74.0832  223.0132 H   0  0  0  0  0  0  0  0  0  0  0  0
  140.9110   74.5430  221.0460 H   0  0  0  0  0  0  0  0  0  0  0  0
  141.2265   72.4292  220.7596 H   0  0  0  0  0  0  0  0  0  0  0  0
  142.1563   72.7553  222.3089 H   0  0  0  0  0  0  0  0  0  0  0  0
  140.8759   70.6736  222.3854 H   0  0  0  0  0  0  0  0  0  0  0  0
  140.3650   71.9164  223.6138 H   0  0  0  0  0  0  0  0  0  0  0  0
  135.2079   67.8480  225.3351 H   0  0  0  0  0  0  0  0  0  0  0  0
  134.0267   69.0745  227.0853 H   0  0  0  0  0  0  0  0  0  0  0  0
  1  2  1  0
  2  3  2  0
  2  4  1  0
  4  5  1  0
  5  6  2  0
  6  7  1  0
  7  8  2  0
  8  9  1  0
  9 10  2  0
 10 11  1  0
 11 12  2  0
 12 13  1  0
 13 14  2  0
 14 15  1  0
 15 16  2  0
 16 17  1  0
 17 18  1  0
 17 19  2  0
 19 20  1  0
 20 21  2  0
 20 22  1  0
 22 23  1  0
 23 24  1  0
 24 25  1  0
 25 26  1  0
 26 27  1  0
 27 28  1  0
 28 29  1  0
  8 30  1  0
 30 31  2  0
 31  5  1  0
 22 11  1  0
 29 24  1  0
 19 13  1  0
  1 32  1  0
  1 33  1  0
  1 34  1  0
  4 35  1  0
  6 36  1  0
  7 37  1  0
  9 38  1  0
 10 39  1  0
 14 40  1  0
 15 41  1  0
 16 42  1  0
 23 43  1  0
 23 44  1  0
 24 45  1  0
 25 46  1  0
 25 47  1  0
 26 48  1  0
 26 49  1  0
 27 50  1  0
 28 51  1  0
 28 52  1  0
 29 53  1  0
 29 54  1  0
 30 55  1  0
 31 56  1  0
M  END
>  <smiles>  (22) 
CC(=O)Nc1ccc(/C=C/c2nc3cccc(Cl)c3c(=O)n2CC2CCNCC2)cc1

>  <score_type>  (22) 
oracle

>  <origin>  (22) 
autodockgpu

>  <m_score__min__energy>  (22) 
-8.9499999999999993

>  <m_primary>  (22) 
energy

>  <rmsd>  (22) 
11.129769824156309

>  <m_score__min__rmsd>  (22) 
11.129769824156309

>  <meeko>  (22) 
{"free_energy": -8.09, "intermolecular_energy": -9.88, "internal_energy": -1.78, "cluster_size": 17, "cluster_id": 3, "rank_in_cluster": 3}

>  <energy>  (22) 
-8.09

>  <cluster_rmsd>  (22) 
0.34

>  <cluster>  (22) 
3

$$$$

     RDKit          3D

 56 59  0  0  0  0  0  0  0  0999 V2000
  132.2340   73.7040  227.5700 C   0  0  0  0  0  0  0  0  0  0  0  0
  133.1680   73.0380  226.6280 C   0  0  0  0  0  0  0  0  0  0  0  0
  134.1520   73.6760  226.1590 O   0  0  0  0  0  0  0  0  0  0  0  0
  132.9370   71.6900  226.2730 N   0  0  0  0  0  0  0  0  0  0  0  0
  133.8150   71.0240  225.3730 C   0  0  0  0  0  0  0  0  0  0  0  0
  134.3840   69.8440  225.8180 C   0  0  0  0  0  0  0  0  0  0  0  0
  135.2500   69.1660  224.9640 C   0  0  0  0  0  0  0  0  0  0  0  0
  135.5600   69.6120  223.7060 C   0  0  0  0  0  0  0  0  0  0  0  0
  136.4480   68.9350  222.8030 C   0  0  0  0  0  0  0  0  0  0  0  0
  137.6000   68.3820  223.1350 C   0  0  0  0  0  0  0  0  0  0  0  0
  138.4210   68.9600  224.1960 C   0  0  0  0  0  0  0  0  0  0  0  0
  138.8130   68.1680  225.2100 N   0  0  0  0  0  0  0  0  0  0  0  0
  139.5640   68.5630  226.2490 C   0  0  0  0  0  0  0  0  0  0  0  0
  139.9320   67.6860  227.2660 C   0  0  0  0  0  0  0  0  0  0  0  0
  140.7160   68.1510  228.3250 C   0  0  0  0  0  0  0  0  0  0  0  0
  141.1020   69.4720  228.3300 C   0  0  0  0  0  0  0  0  0  0  0  0
  140.7330   70.3390  227.3170 C   0  0  0  0  0  0  0  0  0  0  0  0
  141.2480   72.0130  227.3630 Cl  0  0  0  0  0  0  0  0  0  0  0  0
  139.9590   69.8850  226.2670 C   0  0  0  0  0  0  0  0  0  0  0  0
  139.5600   70.7000  225.2290 C   0  0  0  0  0  0  0  0  0  0  0  0
  139.9510   71.9060  225.2940 O   0  0  0  0  0  0  0  0  0  0  0  0
  138.7980   70.2510  224.1980 N   0  0  0  0  0  0  0  0  0  0  0  0
  138.3970   71.1490  223.1330 C   0  0  0  0  0  0  0  0  0  0  0  0
  139.3800   71.2410  222.0100 C   0  0  0  0  0  0  0  0  0  0  0  0
  138.9820   72.1200  220.8730 C   0  0  0  0  0  0  0  0  0  0  0  0
  139.1700   73.5940  221.1730 C   0  0  0  0  0  0  0  0  0  0  0  0
  140.5920   73.8560  221.2300 N   0  0  0  0  0  0  0  0  0  0  0  0
  141.3760   72.7170  221.5870 C   0  0  0  0  0  0  0  0  0  0  0  0
  140.7020   71.7620  222.5400 C   0  0  0  0  0  0  0  0  0  0  0  0
  134.9530   70.8090  223.3150 C   0  0  0  0  0  0  0  0  0  0  0  0
  134.1010   71.5080  224.1140 C   0  0  0  0  0  0  0  0  0  0  0  0
  132.5392   73.4864  228.6042 H   0  0  0  0  0  0  0  0  0  0  0  0
  132.2568   74.7909  227.4020 H   0  0  0  0  0  0  0  0  0  0  0  0
  131.2139   73.3283  227.4020 H   0  0  0  0  0  0  0  0  0  0  0  0
  132.1220   71.1500  226.6580 H   0  0  0  0  0  0  0  0  0  0  0  0
  134.1581   69.4516  226.8205 H   0  0  0  0  0  0  0  0  0  0  0  0
  135.7064   68.2289  225.3156 H   0  0  0  0  0  0  0  0  0  0  0  0
  136.1433   68.8720  221.7479 H   0  0  0  0  0  0  0  0  0  0  0  0
  137.9441   67.4794  222.6088 H   0  0  0  0  0  0  0  0  0  0  0  0
  139.6080   66.6352  227.2360 H   0  0  0  0  0  0  0  0  0  0  0  0
  141.0186   67.4749  229.1382 H   0  0  0  0  0  0  0  0  0  0  0  0
  141.7189   69.8476  229.1596 H   0  0  0  0  0  0  0  0  0  0  0  0
  137.4386   70.7952  222.7252 H   0  0  0  0  0  0  0  0  0  0  0  0
  138.3253   72.1537  223.5751 H   0  0  0  0  0  0  0  0  0  0  0  0
  139.4418   70.2171  221.6128 H   0  0  0  0  0  0  0  0  0  0  0  0
  139.5939   71.8593  219.9969 H   0  0  0  0  0  0  0  0  0  0  0  0
  137.9104   71.9549  220.6876 H   0  0  0  0  0  0  0  0  0  0  0  0
  138.7095   74.1993  220.3783 H   0  0  0  0  0  0  0  0  0  0  0  0
  138.6925   73.8555  222.1289 H   0  0  0  0  0  0  0  0  0  0  0  0
  140.9020   74.1620  220.2750 H   0  0  0  0  0  0  0  0  0  0  0  0
  141.6204   72.1669  220.6663 H   0  0  0  0  0  0  0  0  0  0  0  0
  142.2641   73.1023  222.1094 H   0  0  0  0  0  0  0  0  0  0  0  0
  141.3724   70.9075  222.7146 H   0  0  0  0  0  0  0  0  0  0  0  0
  140.4934   72.3123  223.4693 H   0  0  0  0  0  0  0  0  0  0  0  0
  135.1746   71.2053  222.3131 H   0  0  0  0  0  0  0  0  0  0  0  0
  133.6472   72.4455  223.7603 H   0  0  0  0  0  0  0  0  0  0  0  0
  1  2  1  0
  2  3  2  0
  2  4  1  0
  4  5  1  0
  5  6  2  0
  6  7  1  0
  7  8  2  0
  8  9  1  0
  9 10  2  0
 10 11  1  0
 11 12  2  0
 12 13  1  0
 13 14  2  0
 14 15  1  0
 15 16  2  0
 16 17  1  0
 17 18  1  0
 17 19  2  0
 19 20  1  0
 20 21  2  0
 20 22  1  0
 22 23  1  0
 23 24  1  0
 24 25  1  0
 25 26  1  0
 26 27  1  0
 27 28  1  0
 28 29  1  0
  8 30  1  0
 30 31  2  0
 31  5  1  0
 22 11  1  0
 29 24  1  0
 19 13  1  0
  1 32  1  0
  1 33  1  0
  1 34  1  0
  4 35  1  0
  6 36  1  0
  7 37  1  0
  9 38  1  0
 10 39  1  0
 14 40  1  0
 15 41  1  0
 16 42  1  0
 23 43  1  0
 23 44  1  0
 24 45  1  0
 25 46  1  0
 25 47  1  0
 26 48  1  0
 26 49  1  0
 27 50  1  0
 28 51  1  0
 28 52  1  0
 29 53  1  0
 29 54  1  0
 30 55  1  0
 31 56  1  0
M  END
>  <smiles>  (23) 
CC(=O)Nc1ccc(/C=C/c2nc3cccc(Cl)c3c(=O)n2CC2CCNCC2)cc1

>  <score_type>  (23) 
oracle

>  <origin>  (23) 
autodockgpu

>  <m_score__min__energy>  (23) 
-8.9499999999999993

>  <m_primary>  (23) 
energy

>  <rmsd>  (23) 
11.099983970273813

>  <m_score__min__rmsd>  (23) 
11.099983970273813

>  <meeko>  (23) 
{"free_energy": -8.07, "intermolecular_energy": -9.86, "internal_energy": -1.6, "cluster_size": 17, "cluster_id": 3, "rank_in_cluster": 5}

>  <energy>  (23) 
-8.09

>  <cluster_rmsd>  (23) 
0.88

>  <cluster>  (23) 
3

$$$$

     RDKit          3D

 56 59  0  0  0  0  0  0  0  0999 V2000
  131.6910   71.6980  226.7590 C   0  0  0  0  0  0  0  0  0  0  0  0
  132.6860   70.8050  226.1170 C   0  0  0  0  0  0  0  0  0  0  0  0
  132.7710   69.5960  226.4740 O   0  0  0  0  0  0  0  0  0  0  0  0
  133.5260   71.3290  225.1080 N   0  0  0  0  0  0  0  0  0  0  0  0
  134.4900   70.4970  224.4740 C   0  0  0  0  0  0  0  0  0  0  0  0
  134.4990   70.5000  223.0900 C   0  0  0  0  0  0  0  0  0  0  0  0
  135.4290   69.6970  222.4340 C   0  0  0  0  0  0  0  0  0  0  0  0
  136.3320   68.9080  223.0960 C   0  0  0  0  0  0  0  0  0  0  0  0
  137.3020   68.0690  222.4480 C   0  0  0  0  0  0  0  0  0  0  0  0
  138.6110   68.1760  222.5760 C   0  0  0  0  0  0  0  0  0  0  0  0
  139.1910   68.8500  223.7340 C   0  0  0  0  0  0  0  0  0  0  0  0
  139.2420   68.1880  224.9040 N   0  0  0  0  0  0  0  0  0  0  0  0
  139.7420   68.6830  226.0470 C   0  0  0  0  0  0  0  0  0  0  0  0
  139.7620   67.9390  227.2240 C   0  0  0  0  0  0  0  0  0  0  0  0
  140.2950   68.5030  228.3850 C   0  0  0  0  0  0  0  0  0  0  0  0
  140.7880   69.7870  228.3290 C   0  0  0  0  0  0  0  0  0  0  0  0
  140.7650   70.5210  227.1570 C   0  0  0  0  0  0  0  0  0  0  0  0
  141.4040   72.1530  227.1310 Cl  0  0  0  0  0  0  0  0  0  0  0  0
  140.2390   69.9680  226.0060 C   0  0  0  0  0  0  0  0  0  0  0  0
  140.1900   70.6500  224.8080 C   0  0  0  0  0  0  0  0  0  0  0  0
  140.6610   71.8280  224.8250 O   0  0  0  0  0  0  0  0  0  0  0  0
  139.6710   70.1040  223.6770 N   0  0  0  0  0  0  0  0  0  0  0  0
  139.6340   70.8640  222.4430 C   0  0  0  0  0  0  0  0  0  0  0  0
  138.2540   71.1970  221.9720 C   0  0  0  0  0  0  0  0  0  0  0  0
  137.6470   72.4200  222.5690 C   0  0  0  0  0  0  0  0  0  0  0  0
  138.1770   73.7010  221.9550 C   0  0  0  0  0  0  0  0  0  0  0  0
  137.6740   73.7840  220.6010 N   0  0  0  0  0  0  0  0  0  0  0  0
  137.3750   72.5160  220.0160 C   0  0  0  0  0  0  0  0  0  0  0  0
  138.2690   71.3880  220.4680 C   0  0  0  0  0  0  0  0  0  0  0  0
  136.2720   68.9480  224.4920 C   0  0  0  0  0  0  0  0  0  0  0  0
  135.3830   69.7160  225.1780 C   0  0  0  0  0  0  0  0  0  0  0  0
  131.7791   71.6189  227.8526 H   0  0  0  0  0  0  0  0  0  0  0  0
  131.8778   72.7371  226.4503 H   0  0  0  0  0  0  0  0  0  0  0  0
  130.6781   71.4003  226.4503 H   0  0  0  0  0  0  0  0  0  0  0  0
  133.4630   72.3320  224.8040 H   0  0  0  0  0  0  0  0  0  0  0  0
  133.7898   71.1206  222.5226 H   0  0  0  0  0  0  0  0  0  0  0  0
  135.4387   69.6964  221.3340 H   0  0  0  0  0  0  0  0  0  0  0  0
  136.9223   67.2723  221.7915 H   0  0  0  0  0  0  0  0  0  0  0  0
  139.2708   67.7538  221.8037 H   0  0  0  0  0  0  0  0  0  0  0  0
  139.3610   66.9148  227.2391 H   0  0  0  0  0  0  0  0  0  0  0  0
  140.3204   67.9327  229.3253 H   0  0  0  0  0  0  0  0  0  0  0  0
  141.2103   70.2401  229.2380 H   0  0  0  0  0  0  0  0  0  0  0  0
  140.1818   71.8049  222.6002 H   0  0  0  0  0  0  0  0  0  0  0  0
  140.0900   70.2315  221.6671 H   0  0  0  0  0  0  0  0  0  0  0  0
  137.6369   70.3463  222.2968 H   0  0  0  0  0  0  0  0  0  0  0  0
  136.5583   72.3818  222.4166 H   0  0  0  0  0  0  0  0  0  0  0  0
  137.9104   72.4319  223.6369 H   0  0  0  0  0  0  0  0  0  0  0  0
  137.8288   74.5669  222.5372 H   0  0  0  0  0  0  0  0  0  0  0  0
  139.2770   73.7013  221.9568 H   0  0  0  0  0  0  0  0  0  0  0  0
  136.7820   74.3380  220.6210 H   0  0  0  0  0  0  0  0  0  0  0  0
  136.3377   72.2556  220.2735 H   0  0  0  0  0  0  0  0  0  0  0  0
  137.5368   72.6267  218.9336 H   0  0  0  0  0  0  0  0  0  0  0  0
  137.9289   70.4567  219.9915 H   0  0  0  0  0  0  0  0  0  0  0  0
  139.2985   71.6420  220.1753 H   0  0  0  0  0  0  0  0  0  0  0  0
  136.9782   68.3281  225.0639 H   0  0  0  0  0  0  0  0  0  0  0  0
  135.3763   69.7143  226.2780 H   0  0  0  0  0  0  0  0  0  0  0  0
  1  2  1  0
  2  3  2  0
  2  4  1  0
  4  5  1  0
  5  6  2  0
  6  7  1  0
  7  8  2  0
  8  9  1  0
  9 10  2  0
 10 11  1  0
 11 12  2  0
 12 13  1  0
 13 14  2  0
 14 15  1  0
 15 16  2  0
 16 17  1  0
 17 18  1  0
 17 19  2  0
 19 20  1  0
 20 21  2  0
 20 22  1  0
 22 23  1  0
 23 24  1  0
 24 25  1  0
 25 26  1  0
 26 27  1  0
 27 28  1  0
 28 29  1  0
  8 30  1  0
 30 31  2  0
 31  5  1  0
 22 11  1  0
 29 24  1  0
 19 13  1  0
  1 32  1  0
  1 33  1  0
  1 34  1  0
  4 35  1  0
  6 36  1  0
  7 37  1  0
  9 38  1  0
 10 39  1  0
 14 40  1  0
 15 41  1  0
 16 42  1  0
 23 43  1  0
 23 44  1  0
 24 45  1  0
 25 46  1  0
 25 47  1  0
 26 48  1  0
 26 49  1  0
 27 50  1  0
 28 51  1  0
 28 52  1  0
 29 53  1  0
 29 54  1  0
 30 55  1  0
 31 56  1  0
M  END
>  <smiles>  (24) 
CC(=O)Nc1ccc(/C=C/c2nc3cccc(Cl)c3c(=O)n2CC2CCNCC2)cc1

>  <score_type>  (24) 
oracle

>  <origin>  (24) 
autodockgpu

>  <m_score__min__energy>  (24) 
-8.9499999999999993

>  <m_primary>  (24) 
energy

>  <rmsd>  (24) 
11.16040477856902

>  <m_score__min__rmsd>  (24) 
11.16040477856902

>  <meeko>  (24) 
{"free_energy": -6.77, "intermolecular_energy": -8.56, "internal_energy": -2.06, "cluster_size": 17, "cluster_id": 3, "rank_in_cluster": 17}

>  <energy>  (24) 
-8.08

>  <cluster_rmsd>  (24) 
0.79

>  <cluster>  (24) 
3

$$$$

     RDKit          3D

 56 59  0  0  0  0  0  0  0  0999 V2000
  132.2290   76.2410  227.6710 C   0  0  0  0  0  0  0  0  0  0  0  0
  132.6920   74.9580  227.0850 C   0  0  0  0  0  0  0  0  0  0  0  0
  133.3510   74.9590  226.0080 O   0  0  0  0  0  0  0  0  0  0  0  0
  132.3820   73.7510  227.7510 N   0  0  0  0  0  0  0  0  0  0  0  0
  132.8110   72.5050  227.2140 C   0  0  0  0  0  0  0  0  0  0  0  0
  131.9960   71.9270  226.2570 C   0  0  0  0  0  0  0  0  0  0  0  0
  132.3840   70.7070  225.7100 C   0  0  0  0  0  0  0  0  0  0  0  0
  133.5340   70.0570  226.0750 C   0  0  0  0  0  0  0  0  0  0  0  0
  133.9600   68.7980  225.5280 C   0  0  0  0  0  0  0  0  0  0  0  0
  134.7340   68.6470  224.4700 C   0  0  0  0  0  0  0  0  0  0  0  0
  136.0510   69.2750  224.4190 C   0  0  0  0  0  0  0  0  0  0  0  0
  137.0140   68.8160  225.2370 N   0  0  0  0  0  0  0  0  0  0  0  0
  138.2660   69.2980  225.3000 C   0  0  0  0  0  0  0  0  0  0  0  0
  139.2130   68.7710  226.1740 C   0  0  0  0  0  0  0  0  0  0  0  0
  140.5010   69.3110  226.1980 C   0  0  0  0  0  0  0  0  0  0  0  0
  140.7950   70.3550  225.3500 C   0  0  0  0  0  0  0  0  0  0  0  0
  139.8490   70.8730  224.4830 C   0  0  0  0  0  0  0  0  0  0  0  0
  140.2680   72.2020  223.4200 Cl  0  0  0  0  0  0  0  0  0  0  0  0
  138.5740   70.3430  224.4550 C   0  0  0  0  0  0  0  0  0  0  0  0
  137.5900   70.8170  223.6140 C   0  0  0  0  0  0  0  0  0  0  0  0
  137.9270   71.7790  222.8580 O   0  0  0  0  0  0  0  0  0  0  0  0
  136.3360   70.2940  223.5890 N   0  0  0  0  0  0  0  0  0  0  0  0
  135.3320   70.8320  222.6920 C   0  0  0  0  0  0  0  0  0  0  0  0
  134.3350   71.7260  223.3570 C   0  0  0  0  0  0  0  0  0  0  0  0
  134.8650   72.5750  224.4620 C   0  0  0  0  0  0  0  0  0  0  0  0
  135.6320   73.7830  223.9620 C   0  0  0  0  0  0  0  0  0  0  0  0
  134.6810   74.6910  223.3580 N   0  0  0  0  0  0  0  0  0  0  0  0
  133.5060   74.0510  222.8580 C   0  0  0  0  0  0  0  0  0  0  0  0
  133.7280   72.6570  222.3250 C   0  0  0  0  0  0  0  0  0  0  0  0
  134.3130   70.6910  227.0460 C   0  0  0  0  0  0  0  0  0  0  0  0
  133.9770   71.8830  227.6100 C   0  0  0  0  0  0  0  0  0  0  0  0
  132.2536   76.1728  228.7686 H   0  0  0  0  0  0  0  0  0  0  0  0
  132.8900   77.0553  227.3393 H   0  0  0  0  0  0  0  0  0  0  0  0
  131.2003   76.4456  227.3393 H   0  0  0  0  0  0  0  0  0  0  0  0
  131.8350   73.7400  228.6470 H   0  0  0  0  0  0  0  0  0  0  0  0
  131.0656   72.4187  225.9366 H   0  0  0  0  0  0  0  0  0  0  0  0
  131.7379   70.2435  224.9500 H   0  0  0  0  0  0  0  0  0  0  0  0
  133.6121   67.8848  226.0331 H   0  0  0  0  0  0  0  0  0  0  0  0
  134.3841   68.0432  223.6197 H   0  0  0  0  0  0  0  0  0  0  0  0
  138.9491   67.9363  226.8401 H   0  0  0  0  0  0  0  0  0  0  0  0
  141.2649   68.9102  226.8806 H   0  0  0  0  0  0  0  0  0  0  0  0
  141.8062   70.7878  225.3620 H   0  0  0  0  0  0  0  0  0  0  0  0
  135.8434   71.4085  221.9071 H   0  0  0  0  0  0  0  0  0  0  0  0
  134.7715   69.9741  222.2922 H   0  0  0  0  0  0  0  0  0  0  0  0
  133.6044   71.0385  223.8081 H   0  0  0  0  0  0  0  0  0  0  0  0
  134.0194   72.9243  225.0727 H   0  0  0  0  0  0  0  0  0  0  0  0
  135.5644   71.9584  225.0456 H   0  0  0  0  0  0  0  0  0  0  0  0
  136.1402   74.2780  224.8027 H   0  0  0  0  0  0  0  0  0  0  0  0
  136.3927   73.4787  223.2280 H   0  0  0  0  0  0  0  0  0  0  0  0
  134.3750   75.3750  224.0940 H   0  0  0  0  0  0  0  0  0  0  0  0
  132.7727   73.9928  223.6759 H   0  0  0  0  0  0  0  0  0  0  0  0
  133.1583   74.6575  222.0088 H   0  0  0  0  0  0  0  0  0  0  0  0
  132.7599   72.2443  222.0048 H   0  0  0  0  0  0  0  0  0  0  0  0
  134.4360   72.7306  221.4864 H   0  0  0  0  0  0  0  0  0  0  0  0
  135.2437   70.2027  227.3706 H   0  0  0  0  0  0  0  0  0  0  0  0
  134.6252   72.3436  228.3701 H   0  0  0  0  0  0  0  0  0  0  0  0
  1  2  1  0
  2  3  2  0
  2  4  1  0
  4  5  1  0
  5  6  2  0
  6  7  1  0
  7  8  2  0
  8  9  1  0
  9 10  2  0
 10 11  1  0
 11 12  2  0
 12 13  1  0
 13 14  2  0
 14 15  1  0
 15 16  2  0
 16 17  1  0
 17 18  1  0
 17 19  2  0
 19 20  1  0
 20 21  2  0
 20 22  1  0
 22 23  1  0
 23 24  1  0
 24 25  1  0
 25 26  1  0
 26 27  1  0
 27 28  1  0
 28 29  1  0
  8 30  1  0
 30 31  2  0
 31  5  1  0
 22 11  1  0
 29 24  1  0
 19 13  1  0
  1 32  1  0
  1 33  1  0
  1 34  1  0
  4 35  1  0
  6 36  1  0
  7 37  1  0
  9 38  1  0
 10 39  1  0
 14 40  1  0
 15 41  1  0
 16 42  1  0
 23 43  1  0
 23 44  1  0
 24 45  1  0
 25 46  1  0
 25 47  1  0
 26 48  1  0
 26 49  1  0
 27 50  1  0
 28 51  1  0
 28 52  1  0
 29 53  1  0
 29 54  1  0
 30 55  1  0
 31 56  1  0
M  END
>  <smiles>  (25) 
CC(=O)Nc1ccc(/C=C/c2nc3cccc(Cl)c3c(=O)n2CC2CCNCC2)cc1

>  <score_type>  (25) 
oracle

>  <origin>  (25) 
autodockgpu

>  <m_score__min__energy>  (25) 
-8.9499999999999993

>  <m_primary>  (25) 
energy

>  <rmsd>  (25) 
11.29906995820307

>  <m_score__min__rmsd>  (25) 
11.29906995820307

>  <meeko>  (25) 
{"free_energy": -5.95, "intermolecular_energy": -7.74, "internal_energy": -3.24, "cluster_size": 1, "cluster_id": 9, "rank_in_cluster": 1}

>  <energy>  (25) 
-8.07

>  <cluster_rmsd>  (25) 
0.4

>  <cluster>  (25) 
3

$$$$

     RDKit          3D

 56 59  0  0  0  0  0  0  0  0999 V2000
  140.7570   68.1580  229.0080 C   0  0  0  0  0  0  0  0  0  0  0  0
  140.4420   69.1170  227.9200 C   0  0  0  0  0  0  0  0  0  0  0  0
  140.0660   70.2890  228.2040 O   0  0  0  0  0  0  0  0  0  0  0  0
  140.5710   68.6970  226.5780 N   0  0  0  0  0  0  0  0  0  0  0  0
  140.2770   69.5940  225.5140 C   0  0  0  0  0  0  0  0  0  0  0  0
  140.9960   70.7760  225.4810 C   0  0  0  0  0  0  0  0  0  0  0  0
  140.7340   71.6790  224.4530 C   0  0  0  0  0  0  0  0  0  0  0  0
  139.8000   71.4500  223.4770 C   0  0  0  0  0  0  0  0  0  0  0  0
  139.5080   72.3610  222.4060 C   0  0  0  0  0  0  0  0  0  0  0  0
  140.2720   72.5700  221.3500 C   0  0  0  0  0  0  0  0  0  0  0  0
  140.6900   73.9230  220.9940 C   0  0  0  0  0  0  0  0  0  0  0  0
  140.6000   74.8900  221.9230 N   0  0  0  0  0  0  0  0  0  0  0  0
  140.9450   76.1730  221.7360 C   0  0  0  0  0  0  0  0  0  0  0  0
  140.8240   77.1220  222.7470 C   0  0  0  0  0  0  0  0  0  0  0  0
  141.1980   78.4450  222.4970 C   0  0  0  0  0  0  0  0  0  0  0  0
  141.6770   78.7700  221.2480 C   0  0  0  0  0  0  0  0  0  0  0  0
  141.7950   77.8220  220.2470 C   0  0  0  0  0  0  0  0  0  0  0  0
  142.4110   78.2810  218.6730 Cl  0  0  0  0  0  0  0  0  0  0  0  0
  141.4270   76.5130  220.4890 C   0  0  0  0  0  0  0  0  0  0  0  0
  141.5220   75.5250  219.5330 C   0  0  0  0  0  0  0  0  0  0  0  0
  141.9730   75.8910  218.4050 O   0  0  0  0  0  0  0  0  0  0  0  0
  141.1590   74.2370  219.7730 N   0  0  0  0  0  0  0  0  0  0  0  0
  141.2700   73.2350  218.7320 C   0  0  0  0  0  0  0  0  0  0  0  0
  142.6250   72.6120  218.6260 C   0  0  0  0  0  0  0  0  0  0  0  0
  143.7370   73.3730  219.2630 C   0  0  0  0  0  0  0  0  0  0  0  0
  143.7710   73.2170  220.7710 C   0  0  0  0  0  0  0  0  0  0  0  0
  144.1720   71.8590  221.0650 N   0  0  0  0  0  0  0  0  0  0  0  0
  143.8590   70.9250  220.0300 C   0  0  0  0  0  0  0  0  0  0  0  0
  142.5980   71.2360  219.2640 C   0  0  0  0  0  0  0  0  0  0  0  0
  139.1070   70.2390  223.5660 C   0  0  0  0  0  0  0  0  0  0  0  0
  139.3280   69.3250  224.5500 C   0  0  0  0  0  0  0  0  0  0  0  0
  140.5976   68.6434  229.9822 H   0  0  0  0  0  0  0  0  0  0  0  0
  140.1002   67.2796  228.9241 H   0  0  0  0  0  0  0  0  0  0  0  0
  141.8067   67.8402  228.9241 H   0  0  0  0  0  0  0  0  0  0  0  0
  140.8840   67.7250  226.3320 H   0  0  0  0  0  0  0  0  0  0  0  0
  141.7545   70.9967  226.2464 H   0  0  0  0  0  0  0  0  0  0  0  0
  141.3035   72.6197  224.4235 H   0  0  0  0  0  0  0  0  0  0  0  0
  138.5700   72.9319  222.4710 H   0  0  0  0  0  0  0  0  0  0  0  0
  140.5962   71.7185  220.7336 H   0  0  0  0  0  0  0  0  0  0  0  0
  140.4369   76.8328  223.7352 H   0  0  0  0  0  0  0  0  0  0  0  0
  141.1114   79.2108  223.2819 H   0  0  0  0  0  0  0  0  0  0  0  0
  141.9732   79.8089  221.0406 H   0  0  0  0  0  0  0  0  0  0  0  0
  140.5393   72.4393  218.9391 H   0  0  0  0  0  0  0  0  0  0  0  0
  141.0811   73.7475  217.7772 H   0  0  0  0  0  0  0  0  0  0  0  0
  142.8341   72.5883  217.5463 H   0  0  0  0  0  0  0  0  0  0  0  0
  144.6908   73.0114  218.8512 H   0  0  0  0  0  0  0  0  0  0  0  0
  143.5748   74.4389  219.0450 H   0  0  0  0  0  0  0  0  0  0  0  0
  144.4946   73.9232  221.2042 H   0  0  0  0  0  0  0  0  0  0  0  0
  142.7811   73.4276  221.2019 H   0  0  0  0  0  0  0  0  0  0  0  0
  145.2150   71.8490  221.1890 H   0  0  0  0  0  0  0  0  0  0  0  0
  144.6974   70.9080  219.3182 H   0  0  0  0  0  0  0  0  0  0  0  0
  143.6927   69.9564  220.5241 H   0  0  0  0  0  0  0  0  0  0  0  0
  142.4727   70.4832  218.4718 H   0  0  0  0  0  0  0  0  0  0  0  0
  141.7620   71.2174  219.9787 H   0  0  0  0  0  0  0  0  0  0  0  0
  138.3463   70.0140  222.8039 H   0  0  0  0  0  0  0  0  0  0  0  0
  138.7576   68.3848  224.5761 H   0  0  0  0  0  0  0  0  0  0  0  0
  1  2  1  0
  2  3  2  0
  2  4  1  0
  4  5  1  0
  5  6  2  0
  6  7  1  0
  7  8  2  0
  8  9  1  0
  9 10  2  0
 10 11  1  0
 11 12  2  0
 12 13  1  0
 13 14  2  0
 14 15  1  0
 15 16  2  0
 16 17  1  0
 17 18  1  0
 17 19  2  0
 19 20  1  0
 20 21  2  0
 20 22  1  0
 22 23  1  0
 23 24  1  0
 24 25  1  0
 25 26  1  0
 26 27  1  0
 27 28  1  0
 28 29  1  0
  8 30  1  0
 30 31  2  0
 31  5  1  0
 22 11  1  0
 29 24  1  0
 19 13  1  0
  1 32  1  0
  1 33  1  0
  1 34  1  0
  4 35  1  0
  6 36  1  0
  7 37  1  0
  9 38  1  0
 10 39  1  0
 14 40  1  0
 15 41  1  0
 16 42  1  0
 23 43  1  0
 23 44  1  0
 24 45  1  0
 25 46  1  0
 25 47  1  0
 26 48  1  0
 26 49  1  0
 27 50  1  0
 28 51  1  0
 28 52  1  0
 29 53  1  0
 29 54  1  0
 30 55  1  0
 31 56  1  0
M  END
>  <smiles>  (26) 
CC(=O)Nc1ccc(/C=C/c2nc3cccc(Cl)c3c(=O)n2CC2CCNCC2)cc1

>  <score_type>  (26) 
oracle

>  <origin>  (26) 
autodockgpu

>  <m_score__min__energy>  (26) 
-8.9499999999999993

>  <m_primary>  (26) 
energy

>  <rmsd>  (26) 
5.3886854658350725

>  <m_score__min__rmsd>  (26) 
5.3886854658350725

>  <meeko>  (26) 
{"free_energy": -7.42, "intermolecular_energy": -9.21, "internal_energy": -1.63, "cluster_size": 5, "cluster_id": 1, "rank_in_cluster": 5}

>  <energy>  (26) 
-8.06

>  <cluster_rmsd>  (26) 
0.31

>  <cluster>  (26) 
3

$$$$

     RDKit          3D

 56 59  0  0  0  0  0  0  0  0999 V2000
  142.2010   80.3050  222.7200 C   0  0  0  0  0  0  0  0  0  0  0  0
  141.7070   78.9100  222.8270 C   0  0  0  0  0  0  0  0  0  0  0  0
  141.8120   78.2860  223.9200 O   0  0  0  0  0  0  0  0  0  0  0  0
  141.1220   78.3030  221.6920 N   0  0  0  0  0  0  0  0  0  0  0  0
  140.6390   76.9670  221.7630 C   0  0  0  0  0  0  0  0  0  0  0  0
  141.4500   75.9840  221.2250 C   0  0  0  0  0  0  0  0  0  0  0  0
  141.0090   74.6640  221.2760 C   0  0  0  0  0  0  0  0  0  0  0  0
  139.8130   74.2970  221.8340 C   0  0  0  0  0  0  0  0  0  0  0  0
  139.3310   72.9450  221.9010 C   0  0  0  0  0  0  0  0  0  0  0  0
  140.0760   71.8790  222.1280 C   0  0  0  0  0  0  0  0  0  0  0  0
  140.0910   71.2530  223.4470 C   0  0  0  0  0  0  0  0  0  0  0  0
  140.6240   71.9350  224.4760 N   0  0  0  0  0  0  0  0  0  0  0  0
  140.7080   71.4850  225.7380 C   0  0  0  0  0  0  0  0  0  0  0  0
  141.2740   72.2470  226.7550 C   0  0  0  0  0  0  0  0  0  0  0  0
  141.3350   71.7290  228.0510 C   0  0  0  0  0  0  0  0  0  0  0  0
  140.8300   70.4700  228.2820 C   0  0  0  0  0  0  0  0  0  0  0  0
  140.2680   69.7160  227.2670 C   0  0  0  0  0  0  0  0  0  0  0  0
  139.6350   68.1180  227.6070 Cl  0  0  0  0  0  0  0  0  0  0  0  0
  140.2040   70.2240  225.9840 C   0  0  0  0  0  0  0  0  0  0  0  0
  139.6570   69.5220  224.9320 C   0  0  0  0  0  0  0  0  0  0  0  0
  139.2070   68.3690  225.2140 O   0  0  0  0  0  0  0  0  0  0  0  0
  139.5960   70.0230  223.6700 N   0  0  0  0  0  0  0  0  0  0  0  0
  139.0170   69.2430  222.5950 C   0  0  0  0  0  0  0  0  0  0  0  0
  137.5270   69.3400  222.5030 C   0  0  0  0  0  0  0  0  0  0  0  0
  136.8400   69.8760  223.7120 C   0  0  0  0  0  0  0  0  0  0  0  0
  136.9420   71.3840  223.8290 C   0  0  0  0  0  0  0  0  0  0  0  0
  136.1330   71.9650  222.7800 N   0  0  0  0  0  0  0  0  0  0  0  0
  135.9690   71.1200  221.6400 C   0  0  0  0  0  0  0  0  0  0  0  0
  137.1530   70.2360  221.3380 C   0  0  0  0  0  0  0  0  0  0  0  0
  139.0390   75.3360  222.3590 C   0  0  0  0  0  0  0  0  0  0  0  0
  139.4270   76.6400  222.3330 C   0  0  0  0  0  0  0  0  0  0  0  0
  142.3480   80.7202  223.7280 H   0  0  0  0  0  0  0  0  0  0  0  0
  143.1572   80.3147  222.1764 H   0  0  0  0  0  0  0  0  0  0  0  0
  141.4640   80.9143  222.1764 H   0  0  0  0  0  0  0  0  0  0  0  0
  141.0300   78.8140  220.7790 H   0  0  0  0  0  0  0  0  0  0  0  0
  142.4181   76.2383  220.7688 H   0  0  0  0  0  0  0  0  0  0  0  0
  141.6509   73.8797  220.8484 H   0  0  0  0  0  0  0  0  0  0  0  0
  138.2531   72.7851  221.7509 H   0  0  0  0  0  0  0  0  0  0  0  0
  140.6900   71.4593  221.3175 H   0  0  0  0  0  0  0  0  0  0  0  0
  141.6707   73.2503  226.5402 H   0  0  0  0  0  0  0  0  0  0  0  0
  141.7775   72.3154  228.8697 H   0  0  0  0  0  0  0  0  0  0  0  0
  140.8742   70.0526  229.2988 H   0  0  0  0  0  0  0  0  0  0  0  0
  139.4452   69.5938  221.6444 H   0  0  0  0  0  0  0  0  0  0  0  0
  139.2536   68.1895  222.8049 H   0  0  0  0  0  0  0  0  0  0  0  0
  137.1885   68.3006  222.3803 H   0  0  0  0  0  0  0  0  0  0  0  0
  135.7766   69.5989  223.6631 H   0  0  0  0  0  0  0  0  0  0  0  0
  137.3361   69.4424  224.5928 H   0  0  0  0  0  0  0  0  0  0  0  0
  136.5700   71.7090  224.8118 H   0  0  0  0  0  0  0  0  0  0  0  0
  137.9889   71.7070  223.7301 H   0  0  0  0  0  0  0  0  0  0  0  0
  135.1770   72.1480  223.1730 H   0  0  0  0  0  0  0  0  0  0  0  0
  135.0949   70.4752  221.8138 H   0  0  0  0  0  0  0  0  0  0  0  0
  135.8483   71.7862  220.7730 H   0  0  0  0  0  0  0  0  0  0  0  0
  136.9080   69.6034  220.4721 H   0  0  0  0  0  0  0  0  0  0  0  0
  138.0128   70.8909  221.1333 H   0  0  0  0  0  0  0  0  0  0  0  0
  138.0694   75.0874  222.8152 H   0  0  0  0  0  0  0  0  0  0  0  0
  138.7827   77.4222  222.7607 H   0  0  0  0  0  0  0  0  0  0  0  0
  1  2  1  0
  2  3  2  0
  2  4  1  0
  4  5  1  0
  5  6  2  0
  6  7  1  0
  7  8  2  0
  8  9  1  0
  9 10  2  0
 10 11  1  0
 11 12  2  0
 12 13  1  0
 13 14  2  0
 14 15  1  0
 15 16  2  0
 16 17  1  0
 17 18  1  0
 17 19  2  0
 19 20  1  0
 20 21  2  0
 20 22  1  0
 22 23  1  0
 23 24  1  0
 24 25  1  0
 25 26  1  0
 26 27  1  0
 27 28  1  0
 28 29  1  0
  8 30  1  0
 30 31  2  0
 31  5  1  0
 22 11  1  0
 29 24  1  0
 19 13  1  0
  1 32  1  0
  1 33  1  0
  1 34  1  0
  4 35  1  0
  6 36  1  0
  7 37  1  0
  9 38  1  0
 10 39  1  0
 14 40  1  0
 15 41  1  0
 16 42  1  0
 23 43  1  0
 23 44  1  0
 24 45  1  0
 25 46  1  0
 25 47  1  0
 26 48  1  0
 26 49  1  0
 27 50  1  0
 28 51  1  0
 28 52  1  0
 29 53  1  0
 29 54  1  0
 30 55  1  0
 31 56  1  0
M  END
>  <smiles>  (27) 
CC(=O)Nc1ccc(/C=C/c2nc3cccc(Cl)c3c(=O)n2CC2CCNCC2)cc1

>  <score_type>  (27) 
oracle

>  <origin>  (27) 
autodockgpu

>  <m_score__min__energy>  (27) 
-8.9499999999999993

>  <m_primary>  (27) 
energy

>  <rmsd>  (27) 
11.185770868668897

>  <m_score__min__rmsd>  (27) 
11.185770868668897

>  <meeko>  (27) 
{"free_energy": -8.28, "intermolecular_energy": -10.07, "internal_energy": -1.81, "cluster_size": 15, "cluster_id": 2, "rank_in_cluster": 11}

>  <energy>  (27) 
-8.02

>  <cluster_rmsd>  (27) 
0.28

>  <cluster>  (27) 
3

$$$$

     RDKit          3D

 56 59  0  0  0  0  0  0  0  0999 V2000
  141.3840   80.7560  222.5960 C   0  0  0  0  0  0  0  0  0  0  0  0
  141.3410   79.2730  222.6260 C   0  0  0  0  0  0  0  0  0  0  0  0
  141.8170   78.6490  223.6160 O   0  0  0  0  0  0  0  0  0  0  0  0
  140.7630   78.5830  221.5370 N   0  0  0  0  0  0  0  0  0  0  0  0
  140.7080   77.1610  221.5370 C   0  0  0  0  0  0  0  0  0  0  0  0
  139.6850   76.5790  222.2650 C   0  0  0  0  0  0  0  0  0  0  0  0
  139.5990   75.1900  222.2890 C   0  0  0  0  0  0  0  0  0  0  0  0
  140.4790   74.3760  221.6250 C   0  0  0  0  0  0  0  0  0  0  0  0
  140.4170   72.9410  221.6310 C   0  0  0  0  0  0  0  0  0  0  0  0
  139.4040   72.2220  222.0770 C   0  0  0  0  0  0  0  0  0  0  0  0
  139.5560   71.3810  223.2620 C   0  0  0  0  0  0  0  0  0  0  0  0
  140.1470   71.9050  224.3500 N   0  0  0  0  0  0  0  0  0  0  0  0
  140.3560   71.2510  225.5030 C   0  0  0  0  0  0  0  0  0  0  0  0
  140.9760   71.8580  226.5910 C   0  0  0  0  0  0  0  0  0  0  0  0
  141.1680   71.1300  227.7680 C   0  0  0  0  0  0  0  0  0  0  0  0
  140.7350   69.8250  227.8140 C   0  0  0  0  0  0  0  0  0  0  0  0
  140.1200   69.2260  226.7290 C   0  0  0  0  0  0  0  0  0  0  0  0
  139.5830   67.5620  226.8320 Cl  0  0  0  0  0  0  0  0  0  0  0  0
  139.9270   69.9420  225.5630 C   0  0  0  0  0  0  0  0  0  0  0  0
  139.3200   69.4000  224.4500 C   0  0  0  0  0  0  0  0  0  0  0  0
  138.9430   68.1940  224.5600 O   0  0  0  0  0  0  0  0  0  0  0  0
  139.1320   70.1060  223.3040 N   0  0  0  0  0  0  0  0  0  0  0  0
  138.4950   69.4910  222.1560 C   0  0  0  0  0  0  0  0  0  0  0  0
  137.0390   69.8040  222.0250 C   0  0  0  0  0  0  0  0  0  0  0  0
  136.2040   68.7430  221.3940 C   0  0  0  0  0  0  0  0  0  0  0  0
  135.8850   67.6030  222.3410 C   0  0  0  0  0  0  0  0  0  0  0  0
  134.9700   68.1040  223.3440 N   0  0  0  0  0  0  0  0  0  0  0  0
  135.0700   69.5110  223.5670 C   0  0  0  0  0  0  0  0  0  0  0  0
  136.4580   70.0770  223.3990 C   0  0  0  0  0  0  0  0  0  0  0  0
  141.4900   75.0240  220.9090 C   0  0  0  0  0  0  0  0  0  0  0  0
  141.6150   76.3780  220.8550 C   0  0  0  0  0  0  0  0  0  0  0  0
  141.3952   81.1434  223.6255 H   0  0  0  0  0  0  0  0  0  0  0  0
  142.2921   81.0859  222.0701 H   0  0  0  0  0  0  0  0  0  0  0  0
  140.4966   81.1380  222.0701 H   0  0  0  0  0  0  0  0  0  0  0  0
  140.3650   79.0920  220.7100 H   0  0  0  0  0  0  0  0  0  0  0  0
  138.9582   77.1985  222.8109 H   0  0  0  0  0  0  0  0  0  0  0  0
  138.7875   74.7243  222.8675 H   0  0  0  0  0  0  0  0  0  0  0  0
  141.2851   72.3965  221.2310 H   0  0  0  0  0  0  0  0  0  0  0  0
  138.4378   72.2562  221.5524 H   0  0  0  0  0  0  0  0  0  0  0  0
  141.3124   72.9032  226.5249 H   0  0  0  0  0  0  0  0  0  0  0  0
  141.6553   71.5908  228.6399 H   0  0  0  0  0  0  0  0  0  0  0  0
  140.8814   69.2434  228.7361 H   0  0  0  0  0  0  0  0  0  0  0  0
  139.0068   69.8420  221.2478 H   0  0  0  0  0  0  0  0  0  0  0  0
  138.5741   68.4027  222.2948 H   0  0  0  0  0  0  0  0  0  0  0  0
  137.0031   70.6754  221.3546 H   0  0  0  0  0  0  0  0  0  0  0  0
  135.2591   69.1941  221.0567 H   0  0  0  0  0  0  0  0  0  0  0  0
  136.7798   68.3245  220.5554 H   0  0  0  0  0  0  0  0  0  0  0  0
  135.4167   66.7761  221.7869 H   0  0  0  0  0  0  0  0  0  0  0  0
  136.8046   67.2271  222.8133 H   0  0  0  0  0  0  0  0  0  0  0  0
  133.9920   67.9080  223.0150 H   0  0  0  0  0  0  0  0  0  0  0  0
  134.4038   70.0194  222.8545 H   0  0  0  0  0  0  0  0  0  0  0  0
  134.7895   69.6806  224.6170 H   0  0  0  0  0  0  0  0  0  0  0  0
  136.4153   71.1653  223.5531 H   0  0  0  0  0  0  0  0  0  0  0  0
  137.1085   69.5867  224.1382 H   0  0  0  0  0  0  0  0  0  0  0  0
  142.2203   74.4092  220.3625 H   0  0  0  0  0  0  0  0  0  0  0  0
  142.4276   76.8409  220.2758 H   0  0  0  0  0  0  0  0  0  0  0  0
  1  2  1  0
  2  3  2  0
  2  4  1  0
  4  5  1  0
  5  6  2  0
  6  7  1  0
  7  8  2  0
  8  9  1  0
  9 10  2  0
 10 11  1  0
 11 12  2  0
 12 13  1  0
 13 14  2  0
 14 15  1  0
 15 16  2  0
 16 17  1  0
 17 18  1  0
 17 19  2  0
 19 20  1  0
 20 21  2  0
 20 22  1  0
 22 23  1  0
 23 24  1  0
 24 25  1  0
 25 26  1  0
 26 27  1  0
 27 28  1  0
 28 29  1  0
  8 30  1  0
 30 31  2  0
 31  5  1  0
 22 11  1  0
 29 24  1  0
 19 13  1  0
  1 32  1  0
  1 33  1  0
  1 34  1  0
  4 35  1  0
  6 36  1  0
  7 37  1  0
  9 38  1  0
 10 39  1  0
 14 40  1  0
 15 41  1  0
 16 42  1  0
 23 43  1  0
 23 44  1  0
 24 45  1  0
 25 46  1  0
 25 47  1  0
 26 48  1  0
 26 49  1  0
 27 50  1  0
 28 51  1  0
 28 52  1  0
 29 53  1  0
 29 54  1  0
 30 55  1  0
 31 56  1  0
M  END
>  <smiles>  (28) 
CC(=O)Nc1ccc(/C=C/c2nc3cccc(Cl)c3c(=O)n2CC2CCNCC2)cc1

>  <score_type>  (28) 
oracle

>  <origin>  (28) 
autodockgpu

>  <m_score__min__energy>  (28) 
-8.9499999999999993

>  <m_primary>  (28) 
energy

>  <rmsd>  (28) 
11.368790319892254

>  <m_score__min__rmsd>  (28) 
11.368790319892254

>  <meeko>  (28) 
{"free_energy": -8.36, "intermolecular_energy": -10.15, "internal_energy": -1.46, "cluster_size": 15, "cluster_id": 2, "rank_in_cluster": 7}

>  <energy>  (28) 
-8.02

>  <cluster_rmsd>  (28) 
0.41

>  <cluster>  (28) 
3

$$$$

     RDKit          3D

 56 59  0  0  0  0  0  0  0  0999 V2000
  132.7630   74.1130  227.2480 C   0  0  0  0  0  0  0  0  0  0  0  0
  133.5950   73.2270  226.3970 C   0  0  0  0  0  0  0  0  0  0  0  0
  134.5780   73.7030  225.7640 O   0  0  0  0  0  0  0  0  0  0  0  0
  133.2680   71.8540  226.3130 N   0  0  0  0  0  0  0  0  0  0  0  0
  134.0480   70.9800  225.5050 C   0  0  0  0  0  0  0  0  0  0  0  0
  134.1740   71.3160  224.1690 C   0  0  0  0  0  0  0  0  0  0  0  0
  134.9300   70.4830  223.3470 C   0  0  0  0  0  0  0  0  0  0  0  0
  135.5510   69.3500  223.8030 C   0  0  0  0  0  0  0  0  0  0  0  0
  136.3360   68.4710  222.9810 C   0  0  0  0  0  0  0  0  0  0  0  0
  137.6550   68.4410  222.9360 C   0  0  0  0  0  0  0  0  0  0  0  0
  138.4460   68.9530  224.0510 C   0  0  0  0  0  0  0  0  0  0  0  0
  138.9700   68.0740  224.9240 N   0  0  0  0  0  0  0  0  0  0  0  0
  139.7130   68.4000  225.9930 C   0  0  0  0  0  0  0  0  0  0  0  0
  140.2240   67.4340  226.8550 C   0  0  0  0  0  0  0  0  0  0  0  0
  140.9920   67.8290  227.9540 C   0  0  0  0  0  0  0  0  0  0  0  0
  141.2200   69.1730  228.1500 C   0  0  0  0  0  0  0  0  0  0  0  0
  140.7090   70.1280  227.2890 C   0  0  0  0  0  0  0  0  0  0  0  0
  141.0250   71.8270  227.5770 Cl  0  0  0  0  0  0  0  0  0  0  0  0
  139.9500   69.7420  226.2020 C   0  0  0  0  0  0  0  0  0  0  0  0
  139.4150   70.6470  225.3100 C   0  0  0  0  0  0  0  0  0  0  0  0
  139.6640   71.8680  225.5470 O   0  0  0  0  0  0  0  0  0  0  0  0
  138.6680   70.2650  224.2400 N   0  0  0  0  0  0  0  0  0  0  0  0
  138.1200   71.2550  223.3340 C   0  0  0  0  0  0  0  0  0  0  0  0
  139.0030   71.5720  222.1700 C   0  0  0  0  0  0  0  0  0  0  0  0
  138.5810   72.7340  221.3370 C   0  0  0  0  0  0  0  0  0  0  0  0
  138.9200   74.0680  221.9720 C   0  0  0  0  0  0  0  0  0  0  0  0
  140.3580   74.2220  221.9380 N   0  0  0  0  0  0  0  0  0  0  0  0
  141.0720   72.9840  221.9140 C   0  0  0  0  0  0  0  0  0  0  0  0
  140.4060   71.8600  222.6680 C   0  0  0  0  0  0  0  0  0  0  0  0
  135.3850   69.0640  225.1610 C   0  0  0  0  0  0  0  0  0  0  0  0
  134.6570   69.8470  226.0030 C   0  0  0  0  0  0  0  0  0  0  0  0
  132.9646   73.8983  228.3079 H   0  0  0  0  0  0  0  0  0  0  0  0
  133.0085   75.1636  227.0335 H   0  0  0  0  0  0  0  0  0  0  0  0
  131.6991   73.9339  227.0335 H   0  0  0  0  0  0  0  0  0  0  0  0
  132.4530   71.4480  226.8360 H   0  0  0  0  0  0  0  0  0  0  0  0
  133.6897   72.2177  223.7660 H   0  0  0  0  0  0  0  0  0  0  0  0
  135.0329   70.7468  222.2841 H   0  0  0  0  0  0  0  0  0  0  0  0
  135.7930   67.7647  222.3359 H   0  0  0  0  0  0  0  0  0  0  0  0
  138.1618   68.0271  222.0518 H   0  0  0  0  0  0  0  0  0  0  0  0
  140.0249   66.3676  226.6727 H   0  0  0  0  0  0  0  0  0  0  0  0
  141.4056   67.0822  228.6477 H   0  0  0  0  0  0  0  0  0  0  0  0
  141.8229   69.4950  229.0119 H   0  0  0  0  0  0  0  0  0  0  0  0
  137.1618   70.8771  222.9479 H   0  0  0  0  0  0  0  0  0  0  0  0
  138.0085   72.1853  223.9103 H   0  0  0  0  0  0  0  0  0  0  0  0
  138.9425   70.6823  221.5260 H   0  0  0  0  0  0  0  0  0  0  0  0
  139.0876   72.6700  220.3627 H   0  0  0  0  0  0  0  0  0  0  0  0
  137.4870   72.6860  221.2330 H   0  0  0  0  0  0  0  0  0  0  0  0
  138.4431   74.8829  221.4076 H   0  0  0  0  0  0  0  0  0  0  0  0
  138.5545   74.1036  223.0089 H   0  0  0  0  0  0  0  0  0  0  0  0
  140.6070   74.7430  221.0610 H   0  0  0  0  0  0  0  0  0  0  0  0
  141.1852   72.6735  220.8648 H   0  0  0  0  0  0  0  0  0  0  0  0
  142.0334   73.1690  222.4155 H   0  0  0  0  0  0  0  0  0  0  0  0
  141.0139   70.9504  222.5531 H   0  0  0  0  0  0  0  0  0  0  0  0
  140.3282   72.1668  223.7215 H   0  0  0  0  0  0  0  0  0  0  0  0
  135.8659   68.1627  225.5688 H   0  0  0  0  0  0  0  0  0  0  0  0
  134.5557   69.5802  227.0653 H   0  0  0  0  0  0  0  0  0  0  0  0
  1  2  1  0
  2  3  2  0
  2  4  1  0
  4  5  1  0
  5  6  2  0
  6  7  1  0
  7  8  2  0
  8  9  1  0
  9 10  2  0
 10 11  1  0
 11 12  2  0
 12 13  1  0
 13 14  2  0
 14 15  1  0
 15 16  2  0
 16 17  1  0
 17 18  1  0
 17 19  2  0
 19 20  1  0
 20 21  2  0
 20 22  1  0
 22 23  1  0
 23 24  1  0
 24 25  1  0
 25 26  1  0
 26 27  1  0
 27 28  1  0
 28 29  1  0
  8 30  1  0
 30 31  2  0
 31  5  1  0
 22 11  1  0
 29 24  1  0
 19 13  1  0
  1 32  1  0
  1 33  1  0
  1 34  1  0
  4 35  1  0
  6 36  1  0
  7 37  1  0
  9 38  1  0
 10 39  1  0
 14 40  1  0
 15 41  1  0
 16 42  1  0
 23 43  1  0
 23 44  1  0
 24 45  1  0
 25 46  1  0
 25 47  1  0
 26 48  1  0
 26 49  1  0
 27 50  1  0
 28 51  1  0
 28 52  1  0
 29 53  1  0
 29 54  1  0
 30 55  1  0
 31 56  1  0
M  END
>  <smiles>  (29) 
CC(=O)Nc1ccc(/C=C/c2nc3cccc(Cl)c3c(=O)n2CC2CCNCC2)cc1

>  <score_type>  (29) 
oracle

>  <origin>  (29) 
autodockgpu

>  <m_score__min__energy>  (29) 
-8.9499999999999993

>  <m_primary>  (29) 
energy

>  <rmsd>  (29) 
11.17677768876007

>  <m_score__min__rmsd>  (29) 
11.17677768876007

>  <meeko>  (29) 
{"free_energy": -8.02, "intermolecular_energy": -9.81, "internal_energy": -1.89, "cluster_size": 17, "cluster_id": 3, "rank_in_cluster": 8}

>  <energy>  (29) 
-7.98

>  <cluster_rmsd>  (29) 
0.9

>  <cluster>  (29) 
3

$$$$

     RDKit          3D

 56 59  0  0  0  0  0  0  0  0999 V2000
  143.6890   77.0790  215.9460 C   0  0  0  0  0  0  0  0  0  0  0  0
  142.8470   76.4140  216.9710 C   0  0  0  0  0  0  0  0  0  0  0  0
  141.5890   76.4950  216.9020 O   0  0  0  0  0  0  0  0  0  0  0  0
  143.4760   75.6980  218.0140 N   0  0  0  0  0  0  0  0  0  0  0  0
  142.6960   75.0510  219.0120 C   0  0  0  0  0  0  0  0  0  0  0  0
  142.0890   75.8650  219.9520 C   0  0  0  0  0  0  0  0  0  0  0  0
  141.3170   75.2660  220.9440 C   0  0  0  0  0  0  0  0  0  0  0  0
  141.1320   73.9110  221.0300 C   0  0  0  0  0  0  0  0  0  0  0  0
  140.3430   73.2640  222.0420 C   0  0  0  0  0  0  0  0  0  0  0  0
  140.0410   71.9800  222.0700 C   0  0  0  0  0  0  0  0  0  0  0  0
  140.0440   71.2460  223.3330 C   0  0  0  0  0  0  0  0  0  0  0  0
  140.5260   71.8560  224.4300 N   0  0  0  0  0  0  0  0  0  0  0  0
  140.5930   71.3040  225.6520 C   0  0  0  0  0  0  0  0  0  0  0  0
  141.1060   71.9960  226.7450 C   0  0  0  0  0  0  0  0  0  0  0  0
  141.1520   71.3730  227.9940 C   0  0  0  0  0  0  0  0  0  0  0  0
  140.6860   70.0820  228.1050 C   0  0  0  0  0  0  0  0  0  0  0  0
  140.1780   69.3990  227.0150 C   0  0  0  0  0  0  0  0  0  0  0  0
  139.5940   67.7580  227.2020 Cl  0  0  0  0  0  0  0  0  0  0  0  0
  140.1290   70.0110  225.7780 C   0  0  0  0  0  0  0  0  0  0  0  0
  139.6340   69.3810  224.6550 C   0  0  0  0  0  0  0  0  0  0  0  0
  139.2190   68.1940  224.8270 O   0  0  0  0  0  0  0  0  0  0  0  0
  139.5880   69.9850  223.4380 N   0  0  0  0  0  0  0  0  0  0  0  0
  139.0650   69.2790  222.2850 C   0  0  0  0  0  0  0  0  0  0  0  0
  137.6520   69.6300  221.9440 C   0  0  0  0  0  0  0  0  0  0  0  0
  136.8600   68.5520  221.2870 C   0  0  0  0  0  0  0  0  0  0  0  0
  136.3750   67.4980  222.2640 C   0  0  0  0  0  0  0  0  0  0  0  0
  135.3620   68.1040  223.1000 N   0  0  0  0  0  0  0  0  0  0  0  0
  135.4930   69.5200  223.2340 C   0  0  0  0  0  0  0  0  0  0  0  0
  136.9130   70.0260  223.2080 C   0  0  0  0  0  0  0  0  0  0  0  0
  141.7720   73.1430  220.0530 C   0  0  0  0  0  0  0  0  0  0  0  0
  142.5360   73.6820  219.0640 C   0  0  0  0  0  0  0  0  0  0  0  0
  144.4593   77.6873  216.4426 H   0  0  0  0  0  0  0  0  0  0  0  0
  144.1726   76.3165  215.3178 H   0  0  0  0  0  0  0  0  0  0  0  0
  143.0593   77.7261  215.3178 H   0  0  0  0  0  0  0  0  0  0  0  0
  144.5220   75.6250  218.0810 H   0  0  0  0  0  0  0  0  0  0  0  0
  142.2132   76.9574  219.9165 H   0  0  0  0  0  0  0  0  0  0  0  0
  140.8334   75.9102  221.6931 H   0  0  0  0  0  0  0  0  0  0  0  0
  139.9594   73.8908  222.8605 H   0  0  0  0  0  0  0  0  0  0  0  0
  139.7852   71.4586  221.1358 H   0  0  0  0  0  0  0  0  0  0  0  0
  141.4726   73.0263  226.6260 H   0  0  0  0  0  0  0  0  0  0  0  0
  141.5522   71.9027  228.8711 H   0  0  0  0  0  0  0  0  0  0  0  0
  140.7186   69.5819  229.0842 H   0  0  0  0  0  0  0  0  0  0  0  0
  139.6989   69.5162  221.4178 H   0  0  0  0  0  0  0  0  0  0  0  0
  139.0740   68.2084  222.5374 H   0  0  0  0  0  0  0  0  0  0  0  0
  137.7386   70.4490  221.2148 H   0  0  0  0  0  0  0  0  0  0  0  0
  135.9857   69.0067  220.7984 H   0  0  0  0  0  0  0  0  0  0  0  0
  137.5196   68.0523  220.5623 H   0  0  0  0  0  0  0  0  0  0  0  0
  135.9468   66.6468  221.7144 H   0  0  0  0  0  0  0  0  0  0  0  0
  137.2100   67.1292  222.8777 H   0  0  0  0  0  0  0  0  0  0  0  0
  134.4260   67.9170  222.6620 H   0  0  0  0  0  0  0  0  0  0  0  0
  134.9448   69.9947  222.4069 H   0  0  0  0  0  0  0  0  0  0  0  0
  135.0893   69.7773  224.2244 H   0  0  0  0  0  0  0  0  0  0  0  0
  136.8968   71.1237  223.2770 H   0  0  0  0  0  0  0  0  0  0  0  0
  137.4430   69.5729  224.0587 H   0  0  0  0  0  0  0  0  0  0  0  0
  141.6524   72.0500  220.0851 H   0  0  0  0  0  0  0  0  0  0  0  0
  143.0190   73.0351  218.3168 H   0  0  0  0  0  0  0  0  0  0  0  0
  1  2  1  0
  2  3  2  0
  2  4  1  0
  4  5  1  0
  5  6  2  0
  6  7  1  0
  7  8  2  0
  8  9  1  0
  9 10  2  0
 10 11  1  0
 11 12  2  0
 12 13  1  0
 13 14  2  0
 14 15  1  0
 15 16  2  0
 16 17  1  0
 17 18  1  0
 17 19  2  0
 19 20  1  0
 20 21  2  0
 20 22  1  0
 22 23  1  0
 23 24  1  0
 24 25  1  0
 25 26  1  0
 26 27  1  0
 27 28  1  0
 28 29  1  0
  8 30  1  0
 30 31  2  0
 31  5  1  0
 22 11  1  0
 29 24  1  0
 19 13  1  0
  1 32  1  0
  1 33  1  0
  1 34  1  0
  4 35  1  0
  6 36  1  0
  7 37  1  0
  9 38  1  0
 10 39  1  0
 14 40  1  0
 15 41  1  0
 16 42  1  0
 23 43  1  0
 23 44  1  0
 24 45  1  0
 25 46  1  0
 25 47  1  0
 26 48  1  0
 26 49  1  0
 27 50  1  0
 28 51  1  0
 28 52  1  0
 29 53  1  0
 29 54  1  0
 30 55  1  0
 31 56  1  0
M  END
>  <smiles>  (30) 
CC(=O)Nc1ccc(/C=C/c2nc3cccc(Cl)c3c(=O)n2CC2CCNCC2)cc1

>  <score_type>  (30) 
oracle

>  <origin>  (30) 
autodockgpu

>  <m_score__min__energy>  (30) 
-8.9499999999999993

>  <m_primary>  (30) 
energy

>  <rmsd>  (30) 
11.290423552722348

>  <m_score__min__rmsd>  (30) 
11.290423552722348

>  <meeko>  (30) 
{"free_energy": -7.74, "intermolecular_energy": -9.53, "internal_energy": -1.41, "cluster_size": 2, "cluster_id": 5, "rank_in_cluster": 2}

>  <energy>  (30) 
-7.96

>  <cluster_rmsd>  (30) 
0.95

>  <cluster>  (30) 
3

$$$$

     RDKit          3D

 56 59  0  0  0  0  0  0  0  0999 V2000
  140.9520   80.2210  223.4250 C   0  0  0  0  0  0  0  0  0  0  0  0
  140.8760   78.7530  223.2180 C   0  0  0  0  0  0  0  0  0  0  0  0
  141.7820   78.0040  223.6790 O   0  0  0  0  0  0  0  0  0  0  0  0
  139.7810   78.2190  222.5020 N   0  0  0  0  0  0  0  0  0  0  0  0
  139.6810   76.8160  222.2870 C   0  0  0  0  0  0  0  0  0  0  0  0
  138.4120   76.2680  222.3420 C   0  0  0  0  0  0  0  0  0  0  0  0
  138.2750   74.8970  222.1360 C   0  0  0  0  0  0  0  0  0  0  0  0
  139.3380   74.0710  221.8830 C   0  0  0  0  0  0  0  0  0  0  0  0
  139.2290   72.6550  221.6670 C   0  0  0  0  0  0  0  0  0  0  0  0
  140.1320   71.7570  222.0140 C   0  0  0  0  0  0  0  0  0  0  0  0
  140.1200   71.1720  223.3520 C   0  0  0  0  0  0  0  0  0  0  0  0
  140.6430   71.8800  224.3690 N   0  0  0  0  0  0  0  0  0  0  0  0
  140.7020   71.4680  225.6450 C   0  0  0  0  0  0  0  0  0  0  0  0
  141.2600   72.2570  226.6470 C   0  0  0  0  0  0  0  0  0  0  0  0
  141.2950   71.7790  227.9590 C   0  0  0  0  0  0  0  0  0  0  0  0
  140.7740   70.5320  228.2210 C   0  0  0  0  0  0  0  0  0  0  0  0
  140.2210   69.7530  227.2200 C   0  0  0  0  0  0  0  0  0  0  0  0
  139.5670   68.1720  227.5990 Cl  0  0  0  0  0  0  0  0  0  0  0  0
  140.1830   70.2210  225.9220 C   0  0  0  0  0  0  0  0  0  0  0  0
  139.6450   69.4910  224.8830 C   0  0  0  0  0  0  0  0  0  0  0  0
  139.1800   68.3520  225.1930 O   0  0  0  0  0  0  0  0  0  0  0  0
  139.6090   69.9540  223.6050 N   0  0  0  0  0  0  0  0  0  0  0  0
  139.0400   69.1460  222.5450 C   0  0  0  0  0  0  0  0  0  0  0  0
  137.5490   69.2230  222.4530 C   0  0  0  0  0  0  0  0  0  0  0  0
  136.8510   69.7130  223.6750 C   0  0  0  0  0  0  0  0  0  0  0  0
  136.9290   71.2180  223.8350 C   0  0  0  0  0  0  0  0  0  0  0  0
  136.1130   71.8160  222.8010 N   0  0  0  0  0  0  0  0  0  0  0  0
  135.9650   71.0010  221.6370 C   0  0  0  0  0  0  0  0  0  0  0  0
  137.1630   70.1450  221.3130 C   0  0  0  0  0  0  0  0  0  0  0  0
  140.5940   74.6840  221.8410 C   0  0  0  0  0  0  0  0  0  0  0  0
  140.7780   76.0180  222.0350 C   0  0  0  0  0  0  0  0  0  0  0  0
  140.9633   80.4392  224.5031 H   0  0  0  0  0  0  0  0  0  0  0  0
  141.8714   80.6094  222.9627 H   0  0  0  0  0  0  0  0  0  0  0  0
  140.0776   80.7022  222.9627 H   0  0  0  0  0  0  0  0  0  0  0  0
  139.0230   78.8330  222.1140 H   0  0  0  0  0  0  0  0  0  0  0  0
  137.5335   76.8987  222.5432 H   0  0  0  0  0  0  0  0  0  0  0  0
  137.2674   74.4578  222.1785 H   0  0  0  0  0  0  0  0  0  0  0  0
  138.3177   72.2888  221.1715 H   0  0  0  0  0  0  0  0  0  0  0  0
  140.8996   71.4469  221.2897 H   0  0  0  0  0  0  0  0  0  0  0  0
  141.6702   73.2492  226.4074 H   0  0  0  0  0  0  0  0  0  0  0  0
  141.7299   72.3865  228.7663 H   0  0  0  0  0  0  0  0  0  0  0  0
  140.7979   70.1456  229.2506 H   0  0  0  0  0  0  0  0  0  0  0  0
  139.4633   69.4840  221.5876 H   0  0  0  0  0  0  0  0  0  0  0  0
  139.2905   68.0996  222.7739 H   0  0  0  0  0  0  0  0  0  0  0  0
  137.2272   68.1822  222.3006 H   0  0  0  0  0  0  0  0  0  0  0  0
  135.7922   69.4207  223.6155 H   0  0  0  0  0  0  0  0  0  0  0  0
  137.3518   69.2621  224.5445 H   0  0  0  0  0  0  0  0  0  0  0  0
  136.5500   71.5090  224.8258 H   0  0  0  0  0  0  0  0  0  0  0  0
  137.9709   71.5600  223.7478 H   0  0  0  0  0  0  0  0  0  0  0  0
  135.1530   71.9720  223.1970 H   0  0  0  0  0  0  0  0  0  0  0  0
  135.1009   70.3378  221.7903 H   0  0  0  0  0  0  0  0  0  0  0  0
  135.8357   71.6896  220.7890 H   0  0  0  0  0  0  0  0  0  0  0  0
  136.9296   69.5331  220.4292 H   0  0  0  0  0  0  0  0  0  0  0  0
  138.0126   70.8188  221.1285 H   0  0  0  0  0  0  0  0  0  0  0  0
  141.4759   74.0575  221.6415 H   0  0  0  0  0  0  0  0  0  0  0  0
  141.7869   76.4541  221.9916 H   0  0  0  0  0  0  0  0  0  0  0  0
  1  2  1  0
  2  3  2  0
  2  4  1  0
  4  5  1  0
  5  6  2  0
  6  7  1  0
  7  8  2  0
  8  9  1  0
  9 10  2  0
 10 11  1  0
 11 12  2  0
 12 13  1  0
 13 14  2  0
 14 15  1  0
 15 16  2  0
 16 17  1  0
 17 18  1  0
 17 19  2  0
 19 20  1  0
 20 21  2  0
 20 22  1  0
 22 23  1  0
 23 24  1  0
 24 25  1  0
 25 26  1  0
 26 27  1  0
 27 28  1  0
 28 29  1  0
  8 30  1  0
 30 31  2  0
 31  5  1  0
 22 11  1  0
 29 24  1  0
 19 13  1  0
  1 32  1  0
  1 33  1  0
  1 34  1  0
  4 35  1  0
  6 36  1  0
  7 37  1  0
  9 38  1  0
 10 39  1  0
 14 40  1  0
 15 41  1  0
 16 42  1  0
 23 43  1  0
 23 44  1  0
 24 45  1  0
 25 46  1  0
 25 47  1  0
 26 48  1  0
 26 49  1  0
 27 50  1  0
 28 51  1  0
 28 52  1  0
 29 53  1  0
 29 54  1  0
 30 55  1  0
 31 56  1  0
M  END
>  <smiles>  (31) 
CC(=O)Nc1ccc(/C=C/c2nc3cccc(Cl)c3c(=O)n2CC2CCNCC2)cc1

>  <score_type>  (31) 
oracle

>  <origin>  (31) 
autodockgpu

>  <m_score__min__energy>  (31) 
-8.9499999999999993

>  <m_primary>  (31) 
energy

>  <rmsd>  (31) 
11.18319252315855

>  <m_score__min__rmsd>  (31) 
11.18319252315855

>  <meeko>  (31) 
{"free_energy": -7.87, "intermolecular_energy": -9.66, "internal_energy": -1.84, "cluster_size": 15, "cluster_id": 2, "rank_in_cluster": 15}

>  <energy>  (31) 
-7.93

>  <cluster_rmsd>  (31) 
0.46

>  <cluster>  (31) 
3

$$$$

     RDKit          3D

 56 59  0  0  0  0  0  0  0  0999 V2000
  131.9520   72.2480  227.6030 C   0  0  0  0  0  0  0  0  0  0  0  0
  132.8100   73.2030  226.8590 C   0  0  0  0  0  0  0  0  0  0  0  0
  132.8720   74.4100  227.2240 O   0  0  0  0  0  0  0  0  0  0  0  0
  133.5460   72.7370  225.7460 N   0  0  0  0  0  0  0  0  0  0  0  0
  134.3770   73.6290  225.0120 C   0  0  0  0  0  0  0  0  0  0  0  0
  134.7450   73.2300  223.7400 C   0  0  0  0  0  0  0  0  0  0  0  0
  135.5590   74.0780  222.9920 C   0  0  0  0  0  0  0  0  0  0  0  0
  136.0080   75.2850  223.4590 C   0  0  0  0  0  0  0  0  0  0  0  0
  136.8470   76.1800  222.7120 C   0  0  0  0  0  0  0  0  0  0  0  0
  138.0450   76.5930  223.0830 C   0  0  0  0  0  0  0  0  0  0  0  0
  139.2400   76.1230  222.3870 C   0  0  0  0  0  0  0  0  0  0  0  0
  139.4800   74.8010  222.3430 N   0  0  0  0  0  0  0  0  0  0  0  0
  140.5360   74.2300  221.7440 C   0  0  0  0  0  0  0  0  0  0  0  0
  140.7210   72.8500  221.7370 C   0  0  0  0  0  0  0  0  0  0  0  0
  141.8390   72.3090  221.0980 C   0  0  0  0  0  0  0  0  0  0  0  0
  142.7300   73.1640  220.4900 C   0  0  0  0  0  0  0  0  0  0  0  0
  142.5400   74.5340  220.4990 C   0  0  0  0  0  0  0  0  0  0  0  0
  143.7000   75.5850  219.7110 Cl  0  0  0  0  0  0  0  0  0  0  0  0
  141.4370   75.0750  221.1300 C   0  0  0  0  0  0  0  0  0  0  0  0
  141.1950   76.4310  221.1720 C   0  0  0  0  0  0  0  0  0  0  0  0
  142.0530   77.1630  220.5910 O   0  0  0  0  0  0  0  0  0  0  0  0
  140.1080   76.9610  221.7940 N   0  0  0  0  0  0  0  0  0  0  0  0
  139.9000   78.3950  221.8180 C   0  0  0  0  0  0  0  0  0  0  0  0
  140.3550   79.0570  223.0800 C   0  0  0  0  0  0  0  0  0  0  0  0
  141.7350   78.7130  223.5280 C   0  0  0  0  0  0  0  0  0  0  0  0
  142.8080   79.4430  222.7450 C   0  0  0  0  0  0  0  0  0  0  0  0
  142.7470   80.8420  223.1100 N   0  0  0  0  0  0  0  0  0  0  0  0
  141.4610   81.2670  223.5620 C   0  0  0  0  0  0  0  0  0  0  0  0
  140.3000   80.5620  222.9070 C   0  0  0  0  0  0  0  0  0  0  0  0
  135.6020   75.6310  224.7510 C   0  0  0  0  0  0  0  0  0  0  0  0
  134.8080   74.8370  225.5200 C   0  0  0  0  0  0  0  0  0  0  0  0
  132.0875   72.3988  228.6841 H   0  0  0  0  0  0  0  0  0  0  0  0
  130.8981   72.4188  227.3382 H   0  0  0  0  0  0  0  0  0  0  0  0
  132.2343   71.2184  227.3382 H   0  0  0  0  0  0  0  0  0  0  0  0
  133.5010   71.7360  225.4350 H   0  0  0  0  0  0  0  0  0  0  0  0
  134.4039   72.2682  223.3295 H   0  0  0  0  0  0  0  0  0  0  0  0
  135.8547   73.7639  221.9801 H   0  0  0  0  0  0  0  0  0  0  0  0
  136.4597   76.5519  221.7520 H   0  0  0  0  0  0  0  0  0  0  0  0
  138.1438   77.2965  223.9228 H   0  0  0  0  0  0  0  0  0  0  0  0
  139.9921   72.1907  222.2310 H   0  0  0  0  0  0  0  0  0  0  0  0
  142.0041   71.2216  221.0810 H   0  0  0  0  0  0  0  0  0  0  0  0
  143.6142   72.7479  219.9850 H   0  0  0  0  0  0  0  0  0  0  0  0
  140.4527   78.8384  220.9766 H   0  0  0  0  0  0  0  0  0  0  0  0
  138.8147   78.5594  221.7470 H   0  0  0  0  0  0  0  0  0  0  0  0
  139.6676   78.6815  223.8523 H   0  0  0  0  0  0  0  0  0  0  0  0
  141.8351   78.9772  224.5911 H   0  0  0  0  0  0  0  0  0  0  0  0
  141.8782   77.6355  223.3590 H   0  0  0  0  0  0  0  0  0  0  0  0
  143.7978   79.0337  222.9954 H   0  0  0  0  0  0  0  0  0  0  0  0
  142.6455   79.3204  221.6640 H   0  0  0  0  0  0  0  0  0  0  0  0
  143.4230   81.0000  223.8980 H   0  0  0  0  0  0  0  0  0  0  0  0
  141.4026   81.0896  224.6460 H   0  0  0  0  0  0  0  0  0  0  0  0
  141.3719   82.3298  223.2929 H   0  0  0  0  0  0  0  0  0  0  0  0
  139.3658   80.9334  223.3534 H   0  0  0  0  0  0  0  0  0  0  0  0
  140.3487   80.7740  221.8287 H   0  0  0  0  0  0  0  0  0  0  0  0
  135.9407   76.5916  225.1664 H   0  0  0  0  0  0  0  0  0  0  0  0
  134.5143   75.1538  226.5316 H   0  0  0  0  0  0  0  0  0  0  0  0
  1  2  1  0
  2  3  2  0
  2  4  1  0
  4  5  1  0
  5  6  2  0
  6  7  1  0
  7  8  2  0
  8  9  1  0
  9 10  2  0
 10 11  1  0
 11 12  2  0
 12 13  1  0
 13 14  2  0
 14 15  1  0
 15 16  2  0
 16 17  1  0
 17 18  1  0
 17 19  2  0
 19 20  1  0
 20 21  2  0
 20 22  1  0
 22 23  1  0
 23 24  1  0
 24 25  1  0
 25 26  1  0
 26 27  1  0
 27 28  1  0
 28 29  1  0
  8 30  1  0
 30 31  2  0
 31  5  1  0
 22 11  1  0
 29 24  1  0
 19 13  1  0
  1 32  1  0
  1 33  1  0
  1 34  1  0
  4 35  1  0
  6 36  1  0
  7 37  1  0
  9 38  1  0
 10 39  1  0
 14 40  1  0
 15 41  1  0
 16 42  1  0
 23 43  1  0
 23 44  1  0
 24 45  1  0
 25 46  1  0
 25 47  1  0
 26 48  1  0
 26 49  1  0
 27 50  1  0
 28 51  1  0
 28 52  1  0
 29 53  1  0
 29 54  1  0
 30 55  1  0
 31 56  1  0
M  END
>  <smiles>  (32) 
CC(=O)Nc1ccc(/C=C/c2nc3cccc(Cl)c3c(=O)n2CC2CCNCC2)cc1

>  <score_type>  (32) 
oracle

>  <origin>  (32) 
autodockgpu

>  <m_score__min__energy>  (32) 
-8.9499999999999993

>  <m_primary>  (32) 
energy

>  <rmsd>  (32) 
7.446656229283747

>  <m_score__min__rmsd>  (32) 
7.446656229283747

>  <meeko>  (32) 
{"free_energy": -7.97, "intermolecular_energy": -9.76, "internal_energy": -1.2, "cluster_size": 3, "cluster_id": 6, "rank_in_cluster": 1}

>  <energy>  (32) 
-7.87

>  <cluster_rmsd>  (32) 
0.92

>  <cluster>  (32) 
3

$$$$

     RDKit          3D

 56 59  0  0  0  0  0  0  0  0999 V2000
  146.0880   67.1370  218.3840 C   0  0  0  0  0  0  0  0  0  0  0  0
  145.3010   68.0870  219.2090 C   0  0  0  0  0  0  0  0  0  0  0  0
  145.4820   68.1370  220.4580 O   0  0  0  0  0  0  0  0  0  0  0  0
  144.3560   68.9240  218.5740 N   0  0  0  0  0  0  0  0  0  0  0  0
  143.5860   69.8440  219.3380 C   0  0  0  0  0  0  0  0  0  0  0  0
  142.2230   69.6110  219.4040 C   0  0  0  0  0  0  0  0  0  0  0  0
  141.4370   70.4920  220.1420 C   0  0  0  0  0  0  0  0  0  0  0  0
  141.9520   71.5750  220.8050 C   0  0  0  0  0  0  0  0  0  0  0  0
  141.1670   72.5010  221.5740 C   0  0  0  0  0  0  0  0  0  0  0  0
  140.0280   72.2200  222.1780 C   0  0  0  0  0  0  0  0  0  0  0  0
  140.0080   71.3690  223.3640 C   0  0  0  0  0  0  0  0  0  0  0  0
  140.4780   71.8680  224.5210 N   0  0  0  0  0  0  0  0  0  0  0  0
  140.5240   71.2020  225.6850 C   0  0  0  0  0  0  0  0  0  0  0  0
  141.0260   71.7840  226.8460 C   0  0  0  0  0  0  0  0  0  0  0  0
  141.0490   71.0440  228.0310 C   0  0  0  0  0  0  0  0  0  0  0  0
  140.5720   69.7530  228.0130 C   0  0  0  0  0  0  0  0  0  0  0  0
  140.0750   69.1810  226.8560 C   0  0  0  0  0  0  0  0  0  0  0  0
  139.4770   67.5340  226.8790 Cl  0  0  0  0  0  0  0  0  0  0  0  0
  140.0490   69.9070  225.6820 C   0  0  0  0  0  0  0  0  0  0  0  0
  139.5650   69.3920  224.4980 C   0  0  0  0  0  0  0  0  0  0  0  0
  139.1390   68.1970  224.5510 O   0  0  0  0  0  0  0  0  0  0  0  0
  139.5410   70.1090  223.3440 N   0  0  0  0  0  0  0  0  0  0  0  0
  139.0290   69.5200  222.1220 C   0  0  0  0  0  0  0  0  0  0  0  0
  137.5860   69.8120  221.8610 C   0  0  0  0  0  0  0  0  0  0  0  0
  136.7900   68.6840  221.3010 C   0  0  0  0  0  0  0  0  0  0  0  0
  136.4040   67.6580  222.3490 C   0  0  0  0  0  0  0  0  0  0  0  0
  135.4270   68.2670  223.2250 N   0  0  0  0  0  0  0  0  0  0  0  0
  135.5190   69.6910  223.2930 C   0  0  0  0  0  0  0  0  0  0  0  0
  136.9180   70.2380  223.1540 C   0  0  0  0  0  0  0  0  0  0  0  0
  143.3340   71.7570  220.7000 C   0  0  0  0  0  0  0  0  0  0  0  0
  144.1430   70.9240  219.9900 C   0  0  0  0  0  0  0  0  0  0  0  0
  146.6502   66.4583  219.0423 H   0  0  0  0  0  0  0  0  0  0  0  0
  145.4069   66.5513  217.7491 H   0  0  0  0  0  0  0  0  0  0  0  0
  146.7902   67.6972  217.7491 H   0  0  0  0  0  0  0  0  0  0  0  0
  144.1980   68.8900  217.5370 H   0  0  0  0  0  0  0  0  0  0  0  0
  141.7723   68.7514  218.8864 H   0  0  0  0  0  0  0  0  0  0  0  0
  140.3534   70.3104  220.1952 H   0  0  0  0  0  0  0  0  0  0  0  0
  141.5471   73.5291  221.6668 H   0  0  0  0  0  0  0  0  0  0  0  0
  139.0861   72.6302  221.7848 H   0  0  0  0  0  0  0  0  0  0  0  0
  141.4014   72.8178  226.8304 H   0  0  0  0  0  0  0  0  0  0  0  0
  141.4405   71.4844  228.9598 H   0  0  0  0  0  0  0  0  0  0  0  0
  140.5864   69.1622  228.9408 H   0  0  0  0  0  0  0  0  0  0  0  0
  139.6181   69.9085  221.2782 H   0  0  0  0  0  0  0  0  0  0  0  0
  139.1163   68.4293  222.2350 H   0  0  0  0  0  0  0  0  0  0  0  0
  137.5974   70.6015  221.0952 H   0  0  0  0  0  0  0  0  0  0  0  0
  135.8715   69.0908  220.8528 H   0  0  0  0  0  0  0  0  0  0  0  0
  137.4179   68.1746  220.5552 H   0  0  0  0  0  0  0  0  0  0  0  0
  135.9700   66.7717  221.8630 H   0  0  0  0  0  0  0  0  0  0  0  0
  137.2886   67.3414  222.9210 H   0  0  0  0  0  0  0  0  0  0  0  0
  134.4720   68.0330  222.8570 H   0  0  0  0  0  0  0  0  0  0  0  0
  134.9037   70.1134  222.4849 H   0  0  0  0  0  0  0  0  0  0  0  0
  135.1706   69.9780  224.2961 H   0  0  0  0  0  0  0  0  0  0  0  0
  136.8708   71.3367  223.1806 H   0  0  0  0  0  0  0  0  0  0  0  0
  137.5162   69.8369  223.9854 H   0  0  0  0  0  0  0  0  0  0  0  0
  143.7897   72.6149  221.2161 H   0  0  0  0  0  0  0  0  0  0  0  0
  145.2259   71.1096  219.9370 H   0  0  0  0  0  0  0  0  0  0  0  0
  1  2  1  0
  2  3  2  0
  2  4  1  0
  4  5  1  0
  5  6  2  0
  6  7  1  0
  7  8  2  0
  8  9  1  0
  9 10  2  0
 10 11  1  0
 11 12  2  0
 12 13  1  0
 13 14  2  0
 14 15  1  0
 15 16  2  0
 16 17  1  0
 17 18  1  0
 17 19  2  0
 19 20  1  0
 20 21  2  0
 20 22  1  0
 22 23  1  0
 23 24  1  0
 24 25  1  0
 25 26  1  0
 26 27  1  0
 27 28  1  0
 28 29  1  0
  8 30  1  0
 30 31  2  0
 31  5  1  0
 22 11  1  0
 29 24  1  0
 19 13  1  0
  1 32  1  0
  1 33  1  0
  1 34  1  0
  4 35  1  0
  6 36  1  0
  7 37  1  0
  9 38  1  0
 10 39  1  0
 14 40  1  0
 15 41  1  0
 16 42  1  0
 23 43  1  0
 23 44  1  0
 24 45  1  0
 25 46  1  0
 25 47  1  0
 26 48  1  0
 26 49  1  0
 27 50  1  0
 28 51  1  0
 28 52  1  0
 29 53  1  0
 29 54  1  0
 30 55  1  0
 31 56  1  0
M  END
>  <smiles>  (33) 
CC(=O)Nc1ccc(/C=C/c2nc3cccc(Cl)c3c(=O)n2CC2CCNCC2)cc1

>  <score_type>  (33) 
oracle

>  <origin>  (33) 
autodockgpu

>  <m_score__min__energy>  (33) 
-8.9499999999999993

>  <m_primary>  (33) 
energy

>  <rmsd>  (33) 
11.358335363186557

>  <m_score__min__rmsd>  (33) 
11.358335363186557

>  <meeko>  (33) 
{"free_energy": -8.23, "intermolecular_energy": -10.02, "internal_energy": -1.74, "cluster_size": 2, "cluster_id": 4, "rank_in_cluster": 1}

>  <energy>  (33) 
-7.65

>  <cluster_rmsd>  (33) 
0.91

>  <cluster>  (33) 
3

$$$$

     RDKit          3D

 56 59  0  0  0  0  0  0  0  0999 V2000
  146.3390   70.8970  216.1700 C   0  0  0  0  0  0  0  0  0  0  0  0
  145.5840   71.6790  217.1800 C   0  0  0  0  0  0  0  0  0  0  0  0
  145.9480   72.8540  217.4680 O   0  0  0  0  0  0  0  0  0  0  0  0
  144.4630   71.0880  217.8050 N   0  0  0  0  0  0  0  0  0  0  0  0
  143.7190   71.8130  218.7780 C   0  0  0  0  0  0  0  0  0  0  0  0
  142.3900   72.0630  218.4840 C   0  0  0  0  0  0  0  0  0  0  0  0
  141.6310   72.7710  219.4130 C   0  0  0  0  0  0  0  0  0  0  0  0
  142.1390   73.2280  220.6000 C   0  0  0  0  0  0  0  0  0  0  0  0
  141.3820   73.9600  221.5760 C   0  0  0  0  0  0  0  0  0  0  0  0
  140.4530   74.8580  221.3070 C   0  0  0  0  0  0  0  0  0  0  0  0
  140.7820   76.2800  221.2830 C   0  0  0  0  0  0  0  0  0  0  0  0
  141.0230   76.9040  222.4500 N   0  0  0  0  0  0  0  0  0  0  0  0
  141.3330   78.2030  222.5790 C   0  0  0  0  0  0  0  0  0  0  0  0
  141.5710   78.7830  223.8220 C   0  0  0  0  0  0  0  0  0  0  0  0
  141.8900   80.1410  223.8980 C   0  0  0  0  0  0  0  0  0  0  0  0
  141.9590   80.8690  222.7320 C   0  0  0  0  0  0  0  0  0  0  0  0
  141.7210   80.2870  221.4990 C   0  0  0  0  0  0  0  0  0  0  0  0
  141.8210   81.2520  220.0400 Cl  0  0  0  0  0  0  0  0  0  0  0  0
  141.4060   78.9450  221.4180 C   0  0  0  0  0  0  0  0  0  0  0  0
  141.1590   78.3100  220.2200 C   0  0  0  0  0  0  0  0  0  0  0  0
  141.2410   79.0370  219.1830 O   0  0  0  0  0  0  0  0  0  0  0  0
  140.8490   76.9890  220.1420 N   0  0  0  0  0  0  0  0  0  0  0  0
  140.5900   76.3670  218.8590 C   0  0  0  0  0  0  0  0  0  0  0  0
  141.7030   76.5180  217.8720 C   0  0  0  0  0  0  0  0  0  0  0  0
  143.0520   76.7730  218.4530 C   0  0  0  0  0  0  0  0  0  0  0  0
  143.7000   75.5200  219.0090 C   0  0  0  0  0  0  0  0  0  0  0  0
  144.0450   74.6680  217.8910 N   0  0  0  0  0  0  0  0  0  0  0  0
  143.2310   74.8720  216.7360 C   0  0  0  0  0  0  0  0  0  0  0  0
  141.8050   75.2600  217.0310 C   0  0  0  0  0  0  0  0  0  0  0  0
  143.4880   72.9440  220.8380 C   0  0  0  0  0  0  0  0  0  0  0  0
  144.2700   72.2570  219.9620 C   0  0  0  0  0  0  0  0  0  0  0  0
  147.0159   70.1959  216.6802 H   0  0  0  0  0  0  0  0  0  0  0  0
  145.6343   70.3339  215.5405 H   0  0  0  0  0  0  0  0  0  0  0  0
  146.9266   71.5815  215.5405 H   0  0  0  0  0  0  0  0  0  0  0  0
  144.1520   70.1130  217.5730 H   0  0  0  0  0  0  0  0  0  0  0  0
  141.9447   71.7119  217.5414 H   0  0  0  0  0  0  0  0  0  0  0  0
  140.5744   72.9724  219.1825 H   0  0  0  0  0  0  0  0  0  0  0  0
  141.5939   73.7554  222.6358 H   0  0  0  0  0  0  0  0  0  0  0  0
  139.4230   74.5325  221.0993 H   0  0  0  0  0  0  0  0  0  0  0  0
  141.5083   78.1765  224.7376 H   0  0  0  0  0  0  0  0  0  0  0  0
  142.0821   80.6187  224.8700 H   0  0  0  0  0  0  0  0  0  0  0  0
  142.2093   81.9390  222.7812 H   0  0  0  0  0  0  0  0  0  0  0  0
  140.4179   75.2932  219.0241 H   0  0  0  0  0  0  0  0  0  0  0  0
  139.7144   76.8764  218.4303 H   0  0  0  0  0  0  0  0  0  0  0  0
  141.4350   77.4116  217.2892 H   0  0  0  0  0  0  0  0  0  0  0  0
  143.7012   77.1846  217.6662 H   0  0  0  0  0  0  0  0  0  0  0  0
  142.9246   77.4778  219.2879 H   0  0  0  0  0  0  0  0  0  0  0  0
  144.6074   75.7857  219.5712 H   0  0  0  0  0  0  0  0  0  0  0  0
  143.0103   75.0002  219.6902 H   0  0  0  0  0  0  0  0  0  0  0  0
  145.0360   74.8810  217.6170 H   0  0  0  0  0  0  0  0  0  0  0  0
  143.6860   75.6717  216.1331 H   0  0  0  0  0  0  0  0  0  0  0  0
  143.1880   73.9059  216.2117 H   0  0  0  0  0  0  0  0  0  0  0  0
  141.2822   75.4302  216.0782 H   0  0  0  0  0  0  0  0  0  0  0  0
  141.3490   74.4392  217.6041 H   0  0  0  0  0  0  0  0  0  0  0  0
  143.9382   73.2931  221.7790 H   0  0  0  0  0  0  0  0  0  0  0  0
  145.3266   72.0584  220.1946 H   0  0  0  0  0  0  0  0  0  0  0  0
  1  2  1  0
  2  3  2  0
  2  4  1  0
  4  5  1  0
  5  6  2  0
  6  7  1  0
  7  8  2  0
  8  9  1  0
  9 10  2  0
 10 11  1  0
 11 12  2  0
 12 13  1  0
 13 14  2  0
 14 15  1  0
 15 16  2  0
 16 17  1  0
 17 18  1  0
 17 19  2  0
 19 20  1  0
 20 21  2  0
 20 22  1  0
 22 23  1  0
 23 24  1  0
 24 25  1  0
 25 26  1  0
 26 27  1  0
 27 28  1  0
 28 29  1  0
  8 30  1  0
 30 31  2  0
 31  5  1  0
 22 11  1  0
 29 24  1  0
 19 13  1  0
  1 32  1  0
  1 33  1  0
  1 34  1  0
  4 35  1  0
  6 36  1  0
  7 37  1  0
  9 38  1  0
 10 39  1  0
 14 40  1  0
 15 41  1  0
 16 42  1  0
 23 43  1  0
 23 44  1  0
 24 45  1  0
 25 46  1  0
 25 47  1  0
 26 48  1  0
 26 49  1  0
 27 50  1  0
 28 51  1  0
 28 52  1  0
 29 53  1  0
 29 54  1  0
 30 55  1  0
 31 56  1  0
M  END
>  <smiles>  (34) 
CC(=O)Nc1ccc(/C=C/c2nc3cccc(Cl)c3c(=O)n2CC2CCNCC2)cc1

>  <score_type>  (34) 
oracle

>  <origin>  (34) 
autodockgpu

>  <m_score__min__energy>  (34) 
-8.9499999999999993

>  <m_primary>  (34) 
energy

>  <rmsd>  (34) 
3.9478730301048586

>  <m_score__min__rmsd>  (34) 
3.9478730301048586

>  <meeko>  (34) 
{"free_energy": -5.95, "intermolecular_energy": -7.74, "internal_energy": -2.89, "cluster_size": 1, "cluster_id": 8, "rank_in_cluster": 1}

>  <energy>  (34) 
-7.49

>  <cluster_rmsd>  (34) 
1.25

>  <cluster>  (34) 
3

$$$$

     RDKit          3D

 56 59  0  0  0  0  0  0  0  0999 V2000
  146.1440   66.9450  218.5140 C   0  0  0  0  0  0  0  0  0  0  0  0
  145.3460   67.9250  219.2900 C   0  0  0  0  0  0  0  0  0  0  0  0
  145.6050   68.1230  220.5110 O   0  0  0  0  0  0  0  0  0  0  0  0
  144.3020   68.6240  218.6430 N   0  0  0  0  0  0  0  0  0  0  0  0
  143.5200   69.5700  219.3610 C   0  0  0  0  0  0  0  0  0  0  0  0
  142.1500   69.3730  219.3600 C   0  0  0  0  0  0  0  0  0  0  0  0
  141.3520   70.2800  220.0530 C   0  0  0  0  0  0  0  0  0  0  0  0
  141.8600   71.3540  220.7330 C   0  0  0  0  0  0  0  0  0  0  0  0
  141.0630   72.3060  221.4560 C   0  0  0  0  0  0  0  0  0  0  0  0
  139.9500   72.0310  222.1100 C   0  0  0  0  0  0  0  0  0  0  0  0
  139.9940   71.2900  223.3680 C   0  0  0  0  0  0  0  0  0  0  0  0
  140.4820   71.9050  224.4590 N   0  0  0  0  0  0  0  0  0  0  0  0
  140.5840   71.3480  225.6760 C   0  0  0  0  0  0  0  0  0  0  0  0
  141.1010   72.0460  226.7640 C   0  0  0  0  0  0  0  0  0  0  0  0
  141.1840   71.4180  228.0080 C   0  0  0  0  0  0  0  0  0  0  0  0
  140.7500   70.1160  228.1210 C   0  0  0  0  0  0  0  0  0  0  0  0
  140.2370   69.4270  227.0360 C   0  0  0  0  0  0  0  0  0  0  0  0
  139.6940   67.7720  227.2250 Cl  0  0  0  0  0  0  0  0  0  0  0  0
  140.1520   70.0440  225.8030 C   0  0  0  0  0  0  0  0  0  0  0  0
  139.6500   69.4100  224.6870 C   0  0  0  0  0  0  0  0  0  0  0  0
  139.2660   68.2130  224.8590 O   0  0  0  0  0  0  0  0  0  0  0  0
  139.5680   70.0190  223.4750 N   0  0  0  0  0  0  0  0  0  0  0  0
  139.0400   69.3080  222.3270 C   0  0  0  0  0  0  0  0  0  0  0  0
  137.5520   69.3830  222.1940 C   0  0  0  0  0  0  0  0  0  0  0  0
  136.8030   69.6350  223.4570 C   0  0  0  0  0  0  0  0  0  0  0  0
  136.8480   71.0870  223.8910 C   0  0  0  0  0  0  0  0  0  0  0  0
  136.0590   71.8540  222.9530 N   0  0  0  0  0  0  0  0  0  0  0  0
  135.9660   71.2630  221.6550 C   0  0  0  0  0  0  0  0  0  0  0  0
  137.1900   70.4940  221.2260 C   0  0  0  0  0  0  0  0  0  0  0  0
  143.2500   71.5000  220.6960 C   0  0  0  0  0  0  0  0  0  0  0  0
  144.0720   70.6400  220.0340 C   0  0  0  0  0  0  0  0  0  0  0  0
  146.6839   66.2819  219.2059 H   0  0  0  0  0  0  0  0  0  0  0  0
  145.4735   66.3460  217.8803 H   0  0  0  0  0  0  0  0  0  0  0  0
  146.8664   67.4802  217.8803 H   0  0  0  0  0  0  0  0  0  0  0  0
  144.0790   68.4670  217.6290 H   0  0  0  0  0  0  0  0  0  0  0  0
  141.7029   68.5218  218.8255 H   0  0  0  0  0  0  0  0  0  0  0  0
  140.2628   70.1262  220.0540 H   0  0  0  0  0  0  0  0  0  0  0  0
  141.4089   73.3502  221.4652 H   0  0  0  0  0  0  0  0  0  0  0  0
  138.9824   72.3622  221.7048 H   0  0  0  0  0  0  0  0  0  0  0  0
  141.4417   73.0850  226.6443 H   0  0  0  0  0  0  0  0  0  0  0  0
  141.5880   71.9525  228.8804 H   0  0  0  0  0  0  0  0  0  0  0  0
  140.8126   69.6118  229.0966 H   0  0  0  0  0  0  0  0  0  0  0  0
  139.4900   69.7355  221.4189 H   0  0  0  0  0  0  0  0  0  0  0  0
  139.2930   68.2467  222.4671 H   0  0  0  0  0  0  0  0  0  0  0  0
  137.2544   68.3838  221.8434 H   0  0  0  0  0  0  0  0  0  0  0  0
  135.7524   69.3466  223.3053 H   0  0  0  0  0  0  0  0  0  0  0  0
  137.2813   69.0393  224.2484 H   0  0  0  0  0  0  0  0  0  0  0  0
  136.4288   71.1881  224.9030 H   0  0  0  0  0  0  0  0  0  0  0  0
  137.8860   71.4509  223.9073 H   0  0  0  0  0  0  0  0  0  0  0  0
  135.0830   71.9250  223.3340 H   0  0  0  0  0  0  0  0  0  0  0  0
  135.1092   70.5732  221.6528 H   0  0  0  0  0  0  0  0  0  0  0  0
  135.8537   72.0930  220.9420 H   0  0  0  0  0  0  0  0  0  0  0  0
  136.9989   70.0511  220.2374 H   0  0  0  0  0  0  0  0  0  0  0  0
  138.0335   71.1996  221.1992 H   0  0  0  0  0  0  0  0  0  0  0  0
  143.7013   72.3508  221.2274 H   0  0  0  0  0  0  0  0  0  0  0  0
  145.1609   70.7962  220.0358 H   0  0  0  0  0  0  0  0  0  0  0  0
  1  2  1  0
  2  3  2  0
  2  4  1  0
  4  5  1  0
  5  6  2  0
  6  7  1  0
  7  8  2  0
  8  9  1  0
  9 10  2  0
 10 11  1  0
 11 12  2  0
 12 13  1  0
 13 14  2  0
 14 15  1  0
 15 16  2  0
 16 17  1  0
 17 18  1  0
 17 19  2  0
 19 20  1  0
 20 21  2  0
 20 22  1  0
 22 23  1  0
 23 24  1  0
 24 25  1  0
 25 26  1  0
 26 27  1  0
 27 28  1  0
 28 29  1  0
  8 30  1  0
 30 31  2  0
 31  5  1  0
 22 11  1  0
 29 24  1  0
 19 13  1  0
  1 32  1  0
  1 33  1  0
  1 34  1  0
  4 35  1  0
  6 36  1  0
  7 37  1  0
  9 38  1  0
 10 39  1  0
 14 40  1  0
 15 41  1  0
 16 42  1  0
 23 43  1  0
 23 44  1  0
 24 45  1  0
 25 46  1  0
 25 47  1  0
 26 48  1  0
 26 49  1  0
 27 50  1  0
 28 51  1  0
 28 52  1  0
 29 53  1  0
 29 54  1  0
 30 55  1  0
 31 56  1  0
M  END
>  <smiles>  (35) 
CC(=O)Nc1ccc(/C=C/c2nc3cccc(Cl)c3c(=O)n2CC2CCNCC2)cc1

>  <score_type>  (35) 
oracle

>  <origin>  (35) 
autodockgpu

>  <m_score__min__energy>  (35) 
-8.9499999999999993

>  <m_primary>  (35) 
energy

>  <rmsd>  (35) 
11.304117152048395

>  <m_score__min__rmsd>  (35) 
11.304117152048395

>  <meeko>  (35) 
{"free_energy": -8.0, "intermolecular_energy": -9.79, "internal_energy": -1.82, "cluster_size": 2, "cluster_id": 4, "rank_in_cluster": 2}

>  <energy>  (35) 
-7.4

>  <cluster_rmsd>  (35) 
1.16

>  <cluster>  (35) 
3

$$$$

     RDKit          3D

 56 59  0  0  0  0  0  0  0  0999 V2000
  132.2990   73.6270  227.3120 C   0  0  0  0  0  0  0  0  0  0  0  0
  133.2220   72.8250  226.4710 C   0  0  0  0  0  0  0  0  0  0  0  0
  134.3450   73.3000  226.1410 O   0  0  0  0  0  0  0  0  0  0  0  0
  132.8220   71.5360  226.0530 N   0  0  0  0  0  0  0  0  0  0  0  0
  133.6860   70.7440  225.2460 C   0  0  0  0  0  0  0  0  0  0  0  0
  134.7620   70.1510  225.8830 C   0  0  0  0  0  0  0  0  0  0  0  0
  135.6290   69.3690  225.1250 C   0  0  0  0  0  0  0  0  0  0  0  0
  135.4640   69.1610  223.7810 C   0  0  0  0  0  0  0  0  0  0  0  0
  136.3410   68.3600  222.9720 C   0  0  0  0  0  0  0  0  0  0  0  0
  137.6440   68.5360  222.8530 C   0  0  0  0  0  0  0  0  0  0  0  0
  138.4340   69.0160  223.9840 C   0  0  0  0  0  0  0  0  0  0  0  0
  138.9450   68.1150  224.8400 N   0  0  0  0  0  0  0  0  0  0  0  0
  139.6850   68.4110  225.9200 C   0  0  0  0  0  0  0  0  0  0  0  0
  140.1830   67.4230  226.7640 C   0  0  0  0  0  0  0  0  0  0  0  0
  140.9480   67.7880  227.8740 C   0  0  0  0  0  0  0  0  0  0  0  0
  141.1860   69.1250  228.1000 C   0  0  0  0  0  0  0  0  0  0  0  0
  140.6890   70.1030  227.2580 C   0  0  0  0  0  0  0  0  0  0  0  0
  141.0170   71.7920  227.5830 Cl  0  0  0  0  0  0  0  0  0  0  0  0
  139.9320   69.7470  226.1580 C   0  0  0  0  0  0  0  0  0  0  0  0
  139.4090   70.6750  225.2830 C   0  0  0  0  0  0  0  0  0  0  0  0
  139.6680   71.8890  225.5480 O   0  0  0  0  0  0  0  0  0  0  0  0
  138.6650   70.3230  224.2020 N   0  0  0  0  0  0  0  0  0  0  0  0
  138.1300   71.3360  223.3140 C   0  0  0  0  0  0  0  0  0  0  0  0
  139.0090   71.6480  222.1440 C   0  0  0  0  0  0  0  0  0  0  0  0
  138.6070   72.8320  221.3330 C   0  0  0  0  0  0  0  0  0  0  0  0
  138.9870   74.1490  221.9830 C   0  0  0  0  0  0  0  0  0  0  0  0
  140.4280   74.2660  221.9350 N   0  0  0  0  0  0  0  0  0  0  0  0
  141.1090   73.0120  221.8850 C   0  0  0  0  0  0  0  0  0  0  0  0
  140.4240   71.8930  222.6300 C   0  0  0  0  0  0  0  0  0  0  0  0
  134.3600   69.7870  223.1950 C   0  0  0  0  0  0  0  0  0  0  0  0
  133.4850   70.5600  223.8940 C   0  0  0  0  0  0  0  0  0  0  0  0
  132.5146   73.4397  228.3743 H   0  0  0  0  0  0  0  0  0  0  0  0
  132.4382   74.6959  227.0925 H   0  0  0  0  0  0  0  0  0  0  0  0
  131.2600   73.3399  227.0925 H   0  0  0  0  0  0  0  0  0  0  0  0
  131.8910   71.1330  226.3230 H   0  0  0  0  0  0  0  0  0  0  0  0
  134.9279   70.2940  226.9610 H   0  0  0  0  0  0  0  0  0  0  0  0
  136.4856   68.8966  225.6281 H   0  0  0  0  0  0  0  0  0  0  0  0
  135.8896   67.5323  222.4054 H   0  0  0  0  0  0  0  0  0  0  0  0
  138.1386   68.3195  221.8946 H   0  0  0  0  0  0  0  0  0  0  0  0
  139.9757   66.3624  226.5585 H   0  0  0  0  0  0  0  0  0  0  0  0
  141.3520   67.0231  228.5535 H   0  0  0  0  0  0  0  0  0  0  0  0
  141.7865   69.4228  228.9722 H   0  0  0  0  0  0  0  0  0  0  0  0
  137.1598   70.9842  222.9332 H   0  0  0  0  0  0  0  0  0  0  0  0
  138.0449   72.2613  223.9027 H   0  0  0  0  0  0  0  0  0  0  0  0
  138.9195   70.7696  221.4879 H   0  0  0  0  0  0  0  0  0  0  0  0
  139.1005   72.7694  220.3519 H   0  0  0  0  0  0  0  0  0  0  0  0
  137.5110   72.8130  221.2416 H   0  0  0  0  0  0  0  0  0  0  0  0
  138.5253   74.9837  221.4352 H   0  0  0  0  0  0  0  0  0  0  0  0
  138.6334   74.1799  223.0242 H   0  0  0  0  0  0  0  0  0  0  0  0
  140.6800   74.7940  221.0630 H   0  0  0  0  0  0  0  0  0  0  0  0
  141.2025   72.7146  220.8301 H   0  0  0  0  0  0  0  0  0  0  0  0
  142.0799   73.1656  222.3787 H   0  0  0  0  0  0  0  0  0  0  0  0
  141.0076   70.9705  222.4941 H   0  0  0  0  0  0  0  0  0  0  0  0
  140.3661   72.1849  223.6890 H   0  0  0  0  0  0  0  0  0  0  0  0
  134.1904   69.6481  222.1171 H   0  0  0  0  0  0  0  0  0  0  0  0
  132.6296   71.0314  223.3879 H   0  0  0  0  0  0  0  0  0  0  0  0
  1  2  1  0
  2  3  2  0
  2  4  1  0
  4  5  1  0
  5  6  2  0
  6  7  1  0
  7  8  2  0
  8  9  1  0
  9 10  2  0
 10 11  1  0
 11 12  2  0
 12 13  1  0
 13 14  2  0
 14 15  1  0
 15 16  2  0
 16 17  1  0
 17 18  1  0
 17 19  2  0
 19 20  1  0
 20 21  2  0
 20 22  1  0
 22 23  1  0
 23 24  1  0
 24 25  1  0
 25 26  1  0
 26 27  1  0
 27 28  1  0
 28 29  1  0
  8 30  1  0
 30 31  2  0
 31  5  1  0
 22 11  1  0
 29 24  1  0
 19 13  1  0
  1 32  1  0
  1 33  1  0
  1 34  1  0
  4 35  1  0
  6 36  1  0
  7 37  1  0
  9 38  1  0
 10 39  1  0
 14 40  1  0
 15 41  1  0
 16 42  1  0
 23 43  1  0
 23 44  1  0
 24 45  1  0
 25 46  1  0
 25 47  1  0
 26 48  1  0
 26 49  1  0
 27 50  1  0
 28 51  1  0
 28 52  1  0
 29 53  1  0
 29 54  1  0
 30 55  1  0
 31 56  1  0
M  END
>  <smiles>  (36) 
CC(=O)Nc1ccc(/C=C/c2nc3cccc(Cl)c3c(=O)n2CC2CCNCC2)cc1

>  <score_type>  (36) 
oracle

>  <origin>  (36) 
autodockgpu

>  <m_score__min__energy>  (36) 
-8.9499999999999993

>  <m_primary>  (36) 
energy

>  <rmsd>  (36) 
11.15225379381147

>  <m_score__min__rmsd>  (36) 
11.15225379381147

>  <meeko>  (36) 
{"free_energy": -8.06, "intermolecular_energy": -9.85, "internal_energy": -1.82, "cluster_size": 17, "cluster_id": 3, "rank_in_cluster": 6}

>  <energy>  (36) 
-6.88

>  <cluster_rmsd>  (36) 
1.68

>  <cluster>  (36) 
3

$$$$

     RDKit          3D

 56 59  0  0  0  0  0  0  0  0999 V2000
  132.5170   73.5020  227.5780 C   0  0  0  0  0  0  0  0  0  0  0  0
  133.4230   72.8330  226.6110 C   0  0  0  0  0  0  0  0  0  0  0  0
  134.3450   73.4910  226.0520 O   0  0  0  0  0  0  0  0  0  0  0  0
  133.2330   71.4610  226.3320 N   0  0  0  0  0  0  0  0  0  0  0  0
  134.0850   70.7920  225.4090 C   0  0  0  0  0  0  0  0  0  0  0  0
  134.6720   69.6170  225.8450 C   0  0  0  0  0  0  0  0  0  0  0  0
  135.5130   68.9360  224.9690 C   0  0  0  0  0  0  0  0  0  0  0  0
  135.7830   69.3740  223.6990 C   0  0  0  0  0  0  0  0  0  0  0  0
  136.6450   68.6940  222.7740 C   0  0  0  0  0  0  0  0  0  0  0  0
  137.9630   68.7610  222.7660 C   0  0  0  0  0  0  0  0  0  0  0  0
  138.6880   69.2440  223.9380 C   0  0  0  0  0  0  0  0  0  0  0  0
  138.8840   68.3980  224.9660 N   0  0  0  0  0  0  0  0  0  0  0  0
  139.5280   68.7040  226.1030 C   0  0  0  0  0  0  0  0  0  0  0  0
  139.6940   67.7760  227.1260 C   0  0  0  0  0  0  0  0  0  0  0  0
  140.3730   68.1480  228.2890 C   0  0  0  0  0  0  0  0  0  0  0  0
  140.8590   69.4320  228.3870 C   0  0  0  0  0  0  0  0  0  0  0  0
  140.6910   70.3510  227.3660 C   0  0  0  0  0  0  0  0  0  0  0  0
  141.3270   71.9740  227.5330 Cl  0  0  0  0  0  0  0  0  0  0  0  0
  140.0210   69.9880  226.2140 C   0  0  0  0  0  0  0  0  0  0  0  0
  139.8220   70.8580  225.1630 C   0  0  0  0  0  0  0  0  0  0  0  0
  140.2970   72.0250  225.3170 O   0  0  0  0  0  0  0  0  0  0  0  0
  139.1620   70.4980  224.0310 N   0  0  0  0  0  0  0  0  0  0  0  0
  138.9710   71.4520  222.9560 C   0  0  0  0  0  0  0  0  0  0  0  0
  140.2160   72.1790  222.5560 C   0  0  0  0  0  0  0  0  0  0  0  0
  141.0550   71.5040  221.5260 C   0  0  0  0  0  0  0  0  0  0  0  0
  140.5020   71.6570  220.1220 C   0  0  0  0  0  0  0  0  0  0  0  0
  140.6600   73.0420  219.7340 N   0  0  0  0  0  0  0  0  0  0  0  0
  140.6950   73.9510  220.8340 C   0  0  0  0  0  0  0  0  0  0  0  0
  139.8470   73.5460  222.0130 C   0  0  0  0  0  0  0  0  0  0  0  0
  135.1600   70.5670  223.3190 C   0  0  0  0  0  0  0  0  0  0  0  0
  134.3310   71.2690  224.1390 C   0  0  0  0  0  0  0  0  0  0  0  0
  132.8367   73.2659  228.6037 H   0  0  0  0  0  0  0  0  0  0  0  0
  132.5550   74.5904  227.4234 H   0  0  0  0  0  0  0  0  0  0  0  0
  131.4879   73.1454  227.4234 H   0  0  0  0  0  0  0  0  0  0  0  0
  132.4700   70.9050  226.7910 H   0  0  0  0  0  0  0  0  0  0  0  0
  134.4792   69.2313  226.8570 H   0  0  0  0  0  0  0  0  0  0  0  0
  135.9827   68.0025  225.3125 H   0  0  0  0  0  0  0  0  0  0  0  0
  136.1673   68.0650  222.0084 H   0  0  0  0  0  0  0  0  0  0  0  0
  138.5198   68.4506  221.8695 H   0  0  0  0  0  0  0  0  0  0  0  0
  139.2937   66.7569  227.0201 H   0  0  0  0  0  0  0  0  0  0  0  0
  140.5163   67.4295  229.1095 H   0  0  0  0  0  0  0  0  0  0  0  0
  141.3940   69.7351  229.2991 H   0  0  0  0  0  0  0  0  0  0  0  0
  138.5897   70.9108  222.0775 H   0  0  0  0  0  0  0  0  0  0  0  0
  138.2659   72.2106  223.3267 H   0  0  0  0  0  0  0  0  0  0  0  0
  140.8184   72.2230  223.4753 H   0  0  0  0  0  0  0  0  0  0  0  0
  142.0646   71.9396  221.5550 H   0  0  0  0  0  0  0  0  0  0  0  0
  141.0660   70.4295  221.7613 H   0  0  0  0  0  0  0  0  0  0  0  0
  141.0569   71.0082  219.4283 H   0  0  0  0  0  0  0  0  0  0  0  0
  139.4411   71.3680  220.0928 H   0  0  0  0  0  0  0  0  0  0  0  0
  141.5740   73.1320  219.2240 H   0  0  0  0  0  0  0  0  0  0  0  0
  141.7374   74.0364  221.1749 H   0  0  0  0  0  0  0  0  0  0  0  0
  140.2811   74.9011  220.4653 H   0  0  0  0  0  0  0  0  0  0  0  0
  139.9779   74.2897  222.8129 H   0  0  0  0  0  0  0  0  0  0  0  0
  138.8028   73.4972  221.6706 H   0  0  0  0  0  0  0  0  0  0  0  0
  135.3492   70.9571  222.3080 H   0  0  0  0  0  0  0  0  0  0  0  0
  133.8641   72.2032  223.7936 H   0  0  0  0  0  0  0  0  0  0  0  0
  1  2  1  0
  2  3  2  0
  2  4  1  0
  4  5  1  0
  5  6  2  0
  6  7  1  0
  7  8  2  0
  8  9  1  0
  9 10  2  0
 10 11  1  0
 11 12  2  0
 12 13  1  0
 13 14  2  0
 14 15  1  0
 15 16  2  0
 16 17  1  0
 17 18  1  0
 17 19  2  0
 19 20  1  0
 20 21  2  0
 20 22  1  0
 22 23  1  0
 23 24  1  0
 24 25  1  0
 25 26  1  0
 26 27  1  0
 27 28  1  0
 28 29  1  0
  8 30  1  0
 30 31  2  0
 31  5  1  0
 22 11  1  0
 29 24  1  0
 19 13  1  0
  1 32  1  0
  1 33  1  0
  1 34  1  0
  4 35  1  0
  6 36  1  0
  7 37  1  0
  9 38  1  0
 10 39  1  0
 14 40  1  0
 15 41  1  0
 16 42  1  0
 23 43  1  0
 23 44  1  0
 24 45  1  0
 25 46  1  0
 25 47  1  0
 26 48  1  0
 26 49  1  0
 27 50  1  0
 28 51  1  0
 28 52  1  0
 29 53  1  0
 29 54  1  0
 30 55  1  0
 31 56  1  0
M  END
>  <smiles>  (37) 
CC(=O)Nc1ccc(/C=C/c2nc3cccc(Cl)c3c(=O)n2CC2CCNCC2)cc1

>  <score_type>  (37) 
oracle

>  <origin>  (37) 
autodockgpu

>  <m_score__min__energy>  (37) 
-8.9499999999999993

>  <m_primary>  (37) 
energy

>  <rmsd>  (37) 
11.09059918485205

>  <m_score__min__rmsd>  (37) 
11.09059918485205

>  <meeko>  (37) 
{"free_energy": -7.65, "intermolecular_energy": -9.44, "internal_energy": -1.73, "cluster_size": 17, "cluster_id": 3, "rank_in_cluster": 13}

>  <energy>  (37) 
-6.77

>  <cluster_rmsd>  (37) 
1.59

>  <cluster>  (37) 
3

$$$$

     RDKit          3D

 56 59  0  0  0  0  0  0  0  0999 V2000
  141.8180   80.5620  220.4250 C   0  0  0  0  0  0  0  0  0  0  0  0
  141.1620   79.2400  220.5800 C   0  0  0  0  0  0  0  0  0  0  0  0
  139.9860   79.0660  220.1530 O   0  0  0  0  0  0  0  0  0  0  0  0
  141.8730   78.1930  221.2080 N   0  0  0  0  0  0  0  0  0  0  0  0
  141.2710   76.9140  221.3710 C   0  0  0  0  0  0  0  0  0  0  0  0
  140.1320   76.8590  222.1560 C   0  0  0  0  0  0  0  0  0  0  0  0
  139.5160   75.6240  222.3390 C   0  0  0  0  0  0  0  0  0  0  0  0
  139.9840   74.4650  221.7770 C   0  0  0  0  0  0  0  0  0  0  0  0
  139.3710   73.1780  221.9470 C   0  0  0  0  0  0  0  0  0  0  0  0
  140.0160   72.0310  222.0500 C   0  0  0  0  0  0  0  0  0  0  0  0
  140.0310   71.3000  223.3150 C   0  0  0  0  0  0  0  0  0  0  0  0
  140.5440   71.9050  224.4010 N   0  0  0  0  0  0  0  0  0  0  0  0
  140.6250   71.3550  225.6220 C   0  0  0  0  0  0  0  0  0  0  0  0
  141.1690   72.0430  226.7040 C   0  0  0  0  0  0  0  0  0  0  0  0
  141.2280   71.4220  227.9540 C   0  0  0  0  0  0  0  0  0  0  0  0
  140.7430   70.1390  228.0770 C   0  0  0  0  0  0  0  0  0  0  0  0
  140.2040   69.4620  226.9990 C   0  0  0  0  0  0  0  0  0  0  0  0
  139.5970   67.8310  227.2020 Cl  0  0  0  0  0  0  0  0  0  0  0  0
  140.1420   70.0710  225.7610 C   0  0  0  0  0  0  0  0  0  0  0  0
  139.6160   69.4460  224.6500 C   0  0  0  0  0  0  0  0  0  0  0  0
  139.1850   68.2670  224.8330 O   0  0  0  0  0  0  0  0  0  0  0  0
  139.5570   70.0480  223.4320 N   0  0  0  0  0  0  0  0  0  0  0  0
  139.0010   69.3470  222.2920 C   0  0  0  0  0  0  0  0  0  0  0  0
  137.5830   69.7110  221.9840 C   0  0  0  0  0  0  0  0  0  0  0  0
  136.7700   68.6440  221.3340 C   0  0  0  0  0  0  0  0  0  0  0  0
  136.2980   67.5840  222.3100 C   0  0  0  0  0  0  0  0  0  0  0  0
  135.3070   68.1890  223.1740 N   0  0  0  0  0  0  0  0  0  0  0  0
  135.4510   69.6030  223.3180 C   0  0  0  0  0  0  0  0  0  0  0  0
  136.8740   70.0990  223.2670 C   0  0  0  0  0  0  0  0  0  0  0  0
  141.1370   74.5870  220.9960 C   0  0  0  0  0  0  0  0  0  0  0  0
  141.7750   75.7710  220.7880 C   0  0  0  0  0  0  0  0  0  0  0  0
  142.0282   80.9857  221.4181 H   0  0  0  0  0  0  0  0  0  0  0  0
  142.7606   80.4409  219.8710 H   0  0  0  0  0  0  0  0  0  0  0  0
  141.1515   81.2394  219.8710 H   0  0  0  0  0  0  0  0  0  0  0  0
  142.8510   78.3270  221.5670 H   0  0  0  0  0  0  0  0  0  0  0  0
  139.7243   77.7676  222.6231 H   0  0  0  0  0  0  0  0  0  0  0  0
  138.6118   75.5763  222.9636 H   0  0  0  0  0  0  0  0  0  0  0  0
  138.2726   73.1450  221.9955 H   0  0  0  0  0  0  0  0  0  0  0  0
  140.5461   71.6225  221.1770 H   0  0  0  0  0  0  0  0  0  0  0  0
  141.5492   73.0672  226.5753 H   0  0  0  0  0  0  0  0  0  0  0  0
  141.6531   71.9470  228.8221 H   0  0  0  0  0  0  0  0  0  0  0  0
  140.7855   69.6408  229.0568 H   0  0  0  0  0  0  0  0  0  0  0  0
  139.6165   69.5785  221.4102 H   0  0  0  0  0  0  0  0  0  0  0  0
  139.0063   68.2763  222.5443 H   0  0  0  0  0  0  0  0  0  0  0  0
  137.6594   70.5365  221.2610 H   0  0  0  0  0  0  0  0  0  0  0  0
  135.8888   69.1091  220.8679 H   0  0  0  0  0  0  0  0  0  0  0  0
  137.4115   68.1466  220.5916 H   0  0  0  0  0  0  0  0  0  0  0  0
  135.8518   66.7417  221.7610 H   0  0  0  0  0  0  0  0  0  0  0  0
  137.1431   67.2028  222.9021 H   0  0  0  0  0  0  0  0  0  0  0  0
  134.3620   68.0120  222.7540 H   0  0  0  0  0  0  0  0  0  0  0  0
  134.8892   70.0892  222.5068 H   0  0  0  0  0  0  0  0  0  0  0  0
  135.0697   69.8542  224.3188 H   0  0  0  0  0  0  0  0  0  0  0  0
  136.8675   71.1960  223.3476 H   0  0  0  0  0  0  0  0  0  0  0  0
  137.4185   69.6332  224.1016 H   0  0  0  0  0  0  0  0  0  0  0  0
  141.5488   73.6815  220.5265 H   0  0  0  0  0  0  0  0  0  0  0  0
  142.6796   75.8153  220.1638 H   0  0  0  0  0  0  0  0  0  0  0  0
  1  2  1  0
  2  3  2  0
  2  4  1  0
  4  5  1  0
  5  6  2  0
  6  7  1  0
  7  8  2  0
  8  9  1  0
  9 10  2  0
 10 11  1  0
 11 12  2  0
 12 13  1  0
 13 14  2  0
 14 15  1  0
 15 16  2  0
 16 17  1  0
 17 18  1  0
 17 19  2  0
 19 20  1  0
 20 21  2  0
 20 22  1  0
 22 23  1  0
 23 24  1  0
 24 25  1  0
 25 26  1  0
 26 27  1  0
 27 28  1  0
 28 29  1  0
  8 30  1  0
 30 31  2  0
 31  5  1  0
 22 11  1  0
 29 24  1  0
 19 13  1  0
  1 32  1  0
  1 33  1  0
  1 34  1  0
  4 35  1  0
  6 36  1  0
  7 37  1  0
  9 38  1  0
 10 39  1  0
 14 40  1  0
 15 41  1  0
 16 42  1  0
 23 43  1  0
 23 44  1  0
 24 45  1  0
 25 46  1  0
 25 47  1  0
 26 48  1  0
 26 49  1  0
 27 50  1  0
 28 51  1  0
 28 52  1  0
 29 53  1  0
 29 54  1  0
 30 55  1  0
 31 56  1  0
M  END
>  <smiles>  (38) 
CC(=O)Nc1ccc(/C=C/c2nc3cccc(Cl)c3c(=O)n2CC2CCNCC2)cc1

>  <score_type>  (38) 
oracle

>  <origin>  (38) 
autodockgpu

>  <m_score__min__energy>  (38) 
-8.9499999999999993

>  <m_primary>  (38) 
energy

>  <rmsd>  (38) 
11.243330797786372

>  <m_score__min__rmsd>  (38) 
11.243330797786372

>  <meeko>  (38) 
{"free_energy": -8.34, "intermolecular_energy": -10.13, "internal_energy": -1.5, "cluster_size": 15, "cluster_id": 2, "rank_in_cluster": 8}

>  <energy>  (38) 
-8.23

>  <cluster_rmsd>  (38) 
0.0

>  <cluster>  (38) 
4

$$$$

     RDKit          3D

 56 59  0  0  0  0  0  0  0  0999 V2000
  142.7740   82.4490  216.5120 C   0  0  0  0  0  0  0  0  0  0  0  0
  142.3240   81.4040  217.4630 C   0  0  0  0  0  0  0  0  0  0  0  0
  141.9070   81.7320  218.6090 O   0  0  0  0  0  0  0  0  0  0  0  0
  142.3720   80.0490  217.0640 N   0  0  0  0  0  0  0  0  0  0  0  0
  141.9470   79.0230  217.9540 C   0  0  0  0  0  0  0  0  0  0  0  0
  142.9350   78.2110  218.4820 C   0  0  0  0  0  0  0  0  0  0  0  0
  142.5560   77.1950  219.3570 C   0  0  0  0  0  0  0  0  0  0  0  0
  141.2550   76.9670  219.7180 C   0  0  0  0  0  0  0  0  0  0  0  0
  140.8340   75.9290  220.6170 C   0  0  0  0  0  0  0  0  0  0  0  0
  140.5740   76.0890  221.9010 C   0  0  0  0  0  0  0  0  0  0  0  0
  139.6530   77.1310  222.3470 C   0  0  0  0  0  0  0  0  0  0  0  0
  138.3600   77.0440  221.9870 N   0  0  0  0  0  0  0  0  0  0  0  0
  137.4060   77.9270  222.3200 C   0  0  0  0  0  0  0  0  0  0  0  0
  136.0850   77.7720  221.9120 C   0  0  0  0  0  0  0  0  0  0  0  0
  135.1330   78.7220  222.2880 C   0  0  0  0  0  0  0  0  0  0  0  0
  135.5350   79.7910  223.0570 C   0  0  0  0  0  0  0  0  0  0  0  0
  136.8500   79.9390  223.4610 C   0  0  0  0  0  0  0  0  0  0  0  0
  137.3170   81.3150  224.4400 Cl  0  0  0  0  0  0  0  0  0  0  0  0
  137.7950   79.0030  223.0920 C   0  0  0  0  0  0  0  0  0  0  0  0
  139.1200   79.0960  223.4630 C   0  0  0  0  0  0  0  0  0  0  0  0
  139.4230   80.1040  224.1720 O   0  0  0  0  0  0  0  0  0  0  0  0
  140.0490   78.1730  223.0980 N   0  0  0  0  0  0  0  0  0  0  0  0
  141.4320   78.3190  223.5070 C   0  0  0  0  0  0  0  0  0  0  0  0
  142.1810   79.3760  222.7600 C   0  0  0  0  0  0  0  0  0  0  0  0
  141.8160   79.5330  221.3230 C   0  0  0  0  0  0  0  0  0  0  0  0
  140.5200   80.2940  221.1240 C   0  0  0  0  0  0  0  0  0  0  0  0
  140.7570   81.6730  221.4930 N   0  0  0  0  0  0  0  0  0  0  0  0
  141.8120   81.8460  222.4400 C   0  0  0  0  0  0  0  0  0  0  0  0
  141.9590   80.7180  223.4300 C   0  0  0  0  0  0  0  0  0  0  0  0
  140.3040   77.8210  219.1500 C   0  0  0  0  0  0  0  0  0  0  0  0
  140.6240   78.8270  218.2910 C   0  0  0  0  0  0  0  0  0  0  0  0
  143.1483   83.3183  217.0726 H   0  0  0  0  0  0  0  0  0  0  0  0
  143.5787   82.0467  215.8790 H   0  0  0  0  0  0  0  0  0  0  0  0
  141.9288   82.7572  215.8790 H   0  0  0  0  0  0  0  0  0  0  0  0
  142.7160   79.7660  216.1130 H   0  0  0  0  0  0  0  0  0  0  0  0
  143.9919   78.3635  218.2180 H   0  0  0  0  0  0  0  0  0  0  0  0
  143.3383   76.5459  219.7773 H   0  0  0  0  0  0  0  0  0  0  0  0
  140.7188   74.9172  220.2010 H   0  0  0  0  0  0  0  0  0  0  0  0
  141.0548   75.4324  222.6411 H   0  0  0  0  0  0  0  0  0  0  0  0
  135.7926   76.9076  221.2978 H   0  0  0  0  0  0  0  0  0  0  0  0
  134.0832   78.6184  221.9761 H   0  0  0  0  0  0  0  0  0  0  0  0
  134.7930   80.5454  223.3574 H   0  0  0  0  0  0  0  0  0  0  0  0
  141.4509   78.5731  224.5771 H   0  0  0  0  0  0  0  0  0  0  0  0
  141.9301   77.3628  223.2887 H   0  0  0  0  0  0  0  0  0  0  0  0
  143.2290   79.0429  222.7864 H   0  0  0  0  0  0  0  0  0  0  0  0
  142.6245   80.0770  220.8128 H   0  0  0  0  0  0  0  0  0  0  0  0
  141.6746   78.5250  220.9060 H   0  0  0  0  0  0  0  0  0  0  0  0
  140.2100   80.2364  220.0701 H   0  0  0  0  0  0  0  0  0  0  0  0
  139.7209   79.8617  221.7441 H   0  0  0  0  0  0  0  0  0  0  0  0
  141.0270   82.1980  220.6250 H   0  0  0  0  0  0  0  0  0  0  0  0
  142.7576   81.9418  221.8863 H   0  0  0  0  0  0  0  0  0  0  0  0
  141.5614   82.7432  223.0250 H   0  0  0  0  0  0  0  0  0  0  0  0
  142.8185   80.9321  224.0822 H   0  0  0  0  0  0  0  0  0  0  0  0
  141.0210   80.6530  224.0010 H   0  0  0  0  0  0  0  0  0  0  0  0
  139.2456   77.6723  219.4103 H   0  0  0  0  0  0  0  0  0  0  0  0
  139.8393   79.4740  217.8718 H   0  0  0  0  0  0  0  0  0  0  0  0
  1  2  1  0
  2  3  2  0
  2  4  1  0
  4  5  1  0
  5  6  2  0
  6  7  1  0
  7  8  2  0
  8  9  1  0
  9 10  2  0
 10 11  1  0
 11 12  2  0
 12 13  1  0
 13 14  2  0
 14 15  1  0
 15 16  2  0
 16 17  1  0
 17 18  1  0
 17 19  2  0
 19 20  1  0
 20 21  2  0
 20 22  1  0
 22 23  1  0
 23 24  1  0
 24 25  1  0
 25 26  1  0
 26 27  1  0
 27 28  1  0
 28 29  1  0
  8 30  1  0
 30 31  2  0
 31  5  1  0
 22 11  1  0
 29 24  1  0
 19 13  1  0
  1 32  1  0
  1 33  1  0
  1 34  1  0
  4 35  1  0
  6 36  1  0
  7 37  1  0
  9 38  1  0
 10 39  1  0
 14 40  1  0
 15 41  1  0
 16 42  1  0
 23 43  1  0
 23 44  1  0
 24 45  1  0
 25 46  1  0
 25 47  1  0
 26 48  1  0
 26 49  1  0
 27 50  1  0
 28 51  1  0
 28 52  1  0
 29 53  1  0
 29 54  1  0
 30 55  1  0
 31 56  1  0
M  END
>  <smiles>  (39) 
CC(=O)Nc1ccc(/C=C/c2nc3cccc(Cl)c3c(=O)n2CC2CCNCC2)cc1

>  <score_type>  (39) 
oracle

>  <origin>  (39) 
autodockgpu

>  <m_score__min__energy>  (39) 
-8.9499999999999993

>  <m_primary>  (39) 
energy

>  <rmsd>  (39) 
4.446734166802806

>  <m_score__min__rmsd>  (39) 
4.446734166802806

>  <meeko>  (39) 
{"free_energy": -6.4, "intermolecular_energy": -8.19, "internal_energy": -2.86, "cluster_size": 4, "cluster_id": 7, "rank_in_cluster": 1}

>  <energy>  (39) 
-8.0

>  <cluster_rmsd>  (39) 
1.08

>  <cluster>  (39) 
4

$$$$

     RDKit          3D

 56 59  0  0  0  0  0  0  0  0999 V2000
  141.4150   80.6690  222.9150 C   0  0  0  0  0  0  0  0  0  0  0  0
  141.2880   79.1910  222.9190 C   0  0  0  0  0  0  0  0  0  0  0  0
  141.8220   78.5160  223.8440 O   0  0  0  0  0  0  0  0  0  0  0  0
  140.5670   78.5620  221.8790 N   0  0  0  0  0  0  0  0  0  0  0  0
  140.4290   77.1460  221.8560 C   0  0  0  0  0  0  0  0  0  0  0  0
  141.4430   76.4330  221.2420 C   0  0  0  0  0  0  0  0  0  0  0  0
  141.3420   75.0450  221.2000 C   0  0  0  0  0  0  0  0  0  0  0  0
  140.2870   74.3570  221.7390 C   0  0  0  0  0  0  0  0  0  0  0  0
  140.1540   72.9270  221.7100 C   0  0  0  0  0  0  0  0  0  0  0  0
  139.1500   72.2420  222.2260 C   0  0  0  0  0  0  0  0  0  0  0  0
  139.3590   71.3780  223.3840 C   0  0  0  0  0  0  0  0  0  0  0  0
  139.9940   71.8830  224.4570 N   0  0  0  0  0  0  0  0  0  0  0  0
  140.2570   71.2070  225.5860 C   0  0  0  0  0  0  0  0  0  0  0  0
  140.9200   71.7960  226.6580 C   0  0  0  0  0  0  0  0  0  0  0  0
  141.1680   71.0450  227.8100 C   0  0  0  0  0  0  0  0  0  0  0  0
  140.7460   69.7350  227.8470 C   0  0  0  0  0  0  0  0  0  0  0  0
  140.0870   69.1550  226.7780 C   0  0  0  0  0  0  0  0  0  0  0  0
  139.5650   67.4850  226.8690 Cl  0  0  0  0  0  0  0  0  0  0  0  0
  139.8390   69.8930  225.6370 C   0  0  0  0  0  0  0  0  0  0  0  0
  139.1870   69.3710  224.5400 C   0  0  0  0  0  0  0  0  0  0  0  0
  138.8230   68.1600  224.6400 O   0  0  0  0  0  0  0  0  0  0  0  0
  138.9450   70.0990  223.4180 N   0  0  0  0  0  0  0  0  0  0  0  0
  138.2620   69.5030  222.2870 C   0  0  0  0  0  0  0  0  0  0  0  0
  136.8090   69.8450  222.2010 C   0  0  0  0  0  0  0  0  0  0  0  0
  135.9450   68.8300  221.5350 C   0  0  0  0  0  0  0  0  0  0  0  0
  135.6260   67.6480  222.4290 C   0  0  0  0  0  0  0  0  0  0  0  0
  134.7390   68.1120  223.4740 N   0  0  0  0  0  0  0  0  0  0  0  0
  134.8660   69.5040  223.7660 C   0  0  0  0  0  0  0  0  0  0  0  0
  136.2590   70.0570  223.5990 C   0  0  0  0  0  0  0  0  0  0  0  0
  139.2950   75.1340  222.3440 C   0  0  0  0  0  0  0  0  0  0  0  0
  139.3490   76.4920  222.4100 C   0  0  0  0  0  0  0  0  0  0  0  0
  141.4466   81.0371  223.9511 H   0  0  0  0  0  0  0  0  0  0  0  0
  142.3411   80.9560  222.3955 H   0  0  0  0  0  0  0  0  0  0  0  0
  140.5514   81.1098  222.3955 H   0  0  0  0  0  0  0  0  0  0  0  0
  140.1200   79.1150  221.1060 H   0  0  0  0  0  0  0  0  0  0  0  0
  142.3070   76.9494  220.7983 H   0  0  0  0  0  0  0  0  0  0  0  0
  142.1460   74.4748  220.7117 H   0  0  0  0  0  0  0  0  0  0  0  0
  140.9545   72.3555  221.2174 H   0  0  0  0  0  0  0  0  0  0  0  0
  138.1479   72.3230  221.7796 H   0  0  0  0  0  0  0  0  0  0  0  0
  141.2464   72.8448  226.5992 H   0  0  0  0  0  0  0  0  0  0  0  0
  141.6896   71.4912  228.6695 H   0  0  0  0  0  0  0  0  0  0  0  0
  140.9376   69.1349  228.7488 H   0  0  0  0  0  0  0  0  0  0  0  0
  138.7533   69.8488  221.3656 H   0  0  0  0  0  0  0  0  0  0  0  0
  138.3236   68.4126  222.4183 H   0  0  0  0  0  0  0  0  0  0  0  0
  136.7744   70.7496  221.5761 H   0  0  0  0  0  0  0  0  0  0  0  0
  135.0011   69.3118  221.2402 H   0  0  0  0  0  0  0  0  0  0  0  0
  136.4980   68.4459  220.6651 H   0  0  0  0  0  0  0  0  0  0  0  0
  135.1335   66.8578  221.8434 H   0  0  0  0  0  0  0  0  0  0  0  0
  136.5481   67.2338  222.8628 H   0  0  0  0  0  0  0  0  0  0  0  0
  133.7520   67.9480  223.1560 H   0  0  0  0  0  0  0  0  0  0  0  0
  134.1943   70.0580  223.0938 H   0  0  0  0  0  0  0  0  0  0  0  0
  134.6089   69.6238  224.8288 H   0  0  0  0  0  0  0  0  0  0  0  0
  136.2366   71.1366  223.8084 H   0  0  0  0  0  0  0  0  0  0  0  0
  136.9158   69.5205  224.2995 H   0  0  0  0  0  0  0  0  0  0  0  0
  138.4284   74.6227  222.7884 H   0  0  0  0  0  0  0  0  0  0  0  0
  138.5430   77.0596  222.8981 H   0  0  0  0  0  0  0  0  0  0  0  0
  1  2  1  0
  2  3  2  0
  2  4  1  0
  4  5  1  0
  5  6  2  0
  6  7  1  0
  7  8  2  0
  8  9  1  0
  9 10  2  0
 10 11  1  0
 11 12  2  0
 12 13  1  0
 13 14  2  0
 14 15  1  0
 15 16  2  0
 16 17  1  0
 17 18  1  0
 17 19  2  0
 19 20  1  0
 20 21  2  0
 20 22  1  0
 22 23  1  0
 23 24  1  0
 24 25  1  0
 25 26  1  0
 26 27  1  0
 27 28  1  0
 28 29  1  0
  8 30  1  0
 30 31  2  0
 31  5  1  0
 22 11  1  0
 29 24  1  0
 19 13  1  0
  1 32  1  0
  1 33  1  0
  1 34  1  0
  4 35  1  0
  6 36  1  0
  7 37  1  0
  9 38  1  0
 10 39  1  0
 14 40  1  0
 15 41  1  0
 16 42  1  0
 23 43  1  0
 23 44  1  0
 24 45  1  0
 25 46  1  0
 25 47  1  0
 26 48  1  0
 26 49  1  0
 27 50  1  0
 28 51  1  0
 28 52  1  0
 29 53  1  0
 29 54  1  0
 30 55  1  0
 31 56  1  0
M  END
>  <smiles>  (40) 
CC(=O)Nc1ccc(/C=C/c2nc3cccc(Cl)c3c(=O)n2CC2CCNCC2)cc1

>  <score_type>  (40) 
oracle

>  <origin>  (40) 
autodockgpu

>  <m_score__min__energy>  (40) 
-8.9499999999999993

>  <m_primary>  (40) 
energy

>  <rmsd>  (40) 
11.455372904041246

>  <m_score__min__rmsd>  (40) 
11.455372904041246

>  <meeko>  (40) 
{"free_energy": -8.46, "intermolecular_energy": -10.25, "internal_energy": -1.47, "cluster_size": 15, "cluster_id": 2, "rank_in_cluster": 3}

>  <energy>  (40) 
-8.13

>  <cluster_rmsd>  (40) 
0.0

>  <cluster>  (40) 
5

$$$$

     RDKit          3D

 56 59  0  0  0  0  0  0  0  0999 V2000
  141.3590   80.7110  223.2460 C   0  0  0  0  0  0  0  0  0  0  0  0
  141.1750   79.2400  223.1760 C   0  0  0  0  0  0  0  0  0  0  0  0
  141.8030   78.4880  223.9730 O   0  0  0  0  0  0  0  0  0  0  0  0
  140.2930   78.7060  222.2100 N   0  0  0  0  0  0  0  0  0  0  0  0
  140.0960   77.3000  222.1180 C   0  0  0  0  0  0  0  0  0  0  0  0
  138.8330   76.8280  222.4300 C   0  0  0  0  0  0  0  0  0  0  0  0
  138.6040   75.4560  222.3510 C   0  0  0  0  0  0  0  0  0  0  0  0
  139.5690   74.5580  221.9800 C   0  0  0  0  0  0  0  0  0  0  0  0
  139.3630   73.1390  221.8910 C   0  0  0  0  0  0  0  0  0  0  0  0
  140.2780   72.2170  222.1290 C   0  0  0  0  0  0  0  0  0  0  0  0
  140.2090   71.3990  223.3370 C   0  0  0  0  0  0  0  0  0  0  0  0
  140.6540   71.9220  224.4930 N   0  0  0  0  0  0  0  0  0  0  0  0
  140.6540   71.2870  225.6750 C   0  0  0  0  0  0  0  0  0  0  0  0
  141.1320   71.8910  226.8350 C   0  0  0  0  0  0  0  0  0  0  0  0
  141.1080   71.1840  228.0390 C   0  0  0  0  0  0  0  0  0  0  0  0
  140.6110   69.9000  228.0410 C   0  0  0  0  0  0  0  0  0  0  0  0
  140.1370   69.3050  226.8850 C   0  0  0  0  0  0  0  0  0  0  0  0
  139.5110   67.6690  226.9340 Cl  0  0  0  0  0  0  0  0  0  0  0  0
  140.1580   70.0000  225.6920 C   0  0  0  0  0  0  0  0  0  0  0  0
  139.7000   69.4600  224.5090 C   0  0  0  0  0  0  0  0  0  0  0  0
  139.2530   68.2750  224.5800 O   0  0  0  0  0  0  0  0  0  0  0  0
  139.7210   70.1460  223.3350 N   0  0  0  0  0  0  0  0  0  0  0  0
  139.2360   69.5330  222.1150 C   0  0  0  0  0  0  0  0  0  0  0  0
  137.7510   69.5920  221.9510 C   0  0  0  0  0  0  0  0  0  0  0  0
  136.9740   69.8670  223.1940 C   0  0  0  0  0  0  0  0  0  0  0  0
  136.9990   71.3290  223.5930 C   0  0  0  0  0  0  0  0  0  0  0  0
  136.2210   72.0660  222.6210 N   0  0  0  0  0  0  0  0  0  0  0  0
  136.1590   71.4430  221.3370 C   0  0  0  0  0  0  0  0  0  0  0  0
  137.3970   70.6740  220.9500 C   0  0  0  0  0  0  0  0  0  0  0  0
  140.8230   75.0970  221.6790 C   0  0  0  0  0  0  0  0  0  0  0  0
  141.0960   76.4290  221.7400 C   0  0  0  0  0  0  0  0  0  0  0  0
  141.3984   81.0259  224.2992 H   0  0  0  0  0  0  0  0  0  0  0  0
  142.2987   80.9872  222.7453 H   0  0  0  0  0  0  0  0  0  0  0  0
  140.5163   81.2102  222.7453 H   0  0  0  0  0  0  0  0  0  0  0  0
  139.7660   79.3230  221.5430 H   0  0  0  0  0  0  0  0  0  0  0  0
  138.0312   77.5178  222.7323 H   0  0  0  0  0  0  0  0  0  0  0  0
  137.6016   75.0765  222.5981 H   0  0  0  0  0  0  0  0  0  0  0  0
  138.3604   72.7919  221.6007 H   0  0  0  0  0  0  0  0  0  0  0  0
  141.0982   72.0640  221.4121 H   0  0  0  0  0  0  0  0  0  0  0  0
  141.5257   72.9176  226.8032 H   0  0  0  0  0  0  0  0  0  0  0  0
  141.4787   71.6436  228.9671 H   0  0  0  0  0  0  0  0  0  0  0  0
  140.5902   69.3337  228.9838 H   0  0  0  0  0  0  0  0  0  0  0  0
  139.6987   70.0496  221.2612 H   0  0  0  0  0  0  0  0  0  0  0  0
  139.5076   68.4682  222.1652 H   0  0  0  0  0  0  0  0  0  0  0  0
  137.4702   68.5818  221.6183 H   0  0  0  0  0  0  0  0  0  0  0  0
  135.9290   69.5660  223.0287 H   0  0  0  0  0  0  0  0  0  0  0  0
  137.4406   69.2941  224.0089 H   0  0  0  0  0  0  0  0  0  0  0  0
  136.5599   71.4512  224.5941 H   0  0  0  0  0  0  0  0  0  0  0  0
  138.0334   71.7023  223.6201 H   0  0  0  0  0  0  0  0  0  0  0  0
  135.2370   72.1370  222.9820 H   0  0  0  0  0  0  0  0  0  0  0  0
  135.3080   70.7461  221.3349 H   0  0  0  0  0  0  0  0  0  0  0  0
  136.0549   72.2549  220.6022 H   0  0  0  0  0  0  0  0  0  0  0  0
  137.2275   70.2046  219.9697 H   0  0  0  0  0  0  0  0  0  0  0  0
  138.2347   71.3863  220.9208 H   0  0  0  0  0  0  0  0  0  0  0  0
  141.6286   74.4111  221.3781 H   0  0  0  0  0  0  0  0  0  0  0  0
  142.0994   76.8051  221.4915 H   0  0  0  0  0  0  0  0  0  0  0  0
  1  2  1  0
  2  3  2  0
  2  4  1  0
  4  5  1  0
  5  6  2  0
  6  7  1  0
  7  8  2  0
  8  9  1  0
  9 10  2  0
 10 11  1  0
 11 12  2  0
 12 13  1  0
 13 14  2  0
 14 15  1  0
 15 16  2  0
 16 17  1  0
 17 18  1  0
 17 19  2  0
 19 20  1  0
 20 21  2  0
 20 22  1  0
 22 23  1  0
 23 24  1  0
 24 25  1  0
 25 26  1  0
 26 27  1  0
 27 28  1  0
 28 29  1  0
  8 30  1  0
 30 31  2  0
 31  5  1  0
 22 11  1  0
 29 24  1  0
 19 13  1  0
  1 32  1  0
  1 33  1  0
  1 34  1  0
  4 35  1  0
  6 36  1  0
  7 37  1  0
  9 38  1  0
 10 39  1  0
 14 40  1  0
 15 41  1  0
 16 42  1  0
 23 43  1  0
 23 44  1  0
 24 45  1  0
 25 46  1  0
 25 47  1  0
 26 48  1  0
 26 49  1  0
 27 50  1  0
 28 51  1  0
 28 52  1  0
 29 53  1  0
 29 54  1  0
 30 55  1  0
 31 56  1  0
M  END
>  <smiles>  (41) 
CC(=O)Nc1ccc(/C=C/c2nc3cccc(Cl)c3c(=O)n2CC2CCNCC2)cc1

>  <score_type>  (41) 
oracle

>  <origin>  (41) 
autodockgpu

>  <m_score__min__energy>  (41) 
-8.9499999999999993

>  <m_primary>  (41) 
energy

>  <rmsd>  (41) 
11.226148808025036

>  <m_score__min__rmsd>  (41) 
11.226148808025036

>  <meeko>  (41) 
{"free_energy": -8.07, "intermolecular_energy": -9.86, "internal_energy": -1.8, "cluster_size": 15, "cluster_id": 2, "rank_in_cluster": 12}

>  <energy>  (41) 
-7.74

>  <cluster_rmsd>  (41) 
1.52

>  <cluster>  (41) 
5

$$$$

     RDKit          3D

 56 59  0  0  0  0  0  0  0  0999 V2000
  141.0200   68.1740  228.9800 C   0  0  0  0  0  0  0  0  0  0  0  0
  140.8860   68.6330  227.5750 C   0  0  0  0  0  0  0  0  0  0  0  0
  141.4070   67.9620  226.6410 O   0  0  0  0  0  0  0  0  0  0  0  0
  140.1700   69.8220  227.3090 N   0  0  0  0  0  0  0  0  0  0  0  0
  140.0240   70.2870  225.9720 C   0  0  0  0  0  0  0  0  0  0  0  0
  140.8110   71.3620  225.5990 C   0  0  0  0  0  0  0  0  0  0  0  0
  140.6950   71.8450  224.2980 C   0  0  0  0  0  0  0  0  0  0  0  0
  139.8390   71.3040  223.3750 C   0  0  0  0  0  0  0  0  0  0  0  0
  139.6970   71.7810  222.0270 C   0  0  0  0  0  0  0  0  0  0  0  0
  140.6130   72.4500  221.3520 C   0  0  0  0  0  0  0  0  0  0  0  0
  140.6260   73.9110  221.3690 C   0  0  0  0  0  0  0  0  0  0  0  0
  139.6440   74.5550  222.0240 N   0  0  0  0  0  0  0  0  0  0  0  0
  139.5270   75.8880  222.1200 C   0  0  0  0  0  0  0  0  0  0  0  0
  138.4820   76.4870  222.8160 C   0  0  0  0  0  0  0  0  0  0  0  0
  138.4100   77.8810  222.8840 C   0  0  0  0  0  0  0  0  0  0  0  0
  139.3830   78.6230  222.2540 C   0  0  0  0  0  0  0  0  0  0  0  0
  140.4200   78.0220  221.5630 C   0  0  0  0  0  0  0  0  0  0  0  0
  141.6370   79.0060  220.7770 Cl  0  0  0  0  0  0  0  0  0  0  0  0
  140.4960   76.6450  221.4930 C   0  0  0  0  0  0  0  0  0  0  0  0
  141.5050   75.9890  220.8210 C   0  0  0  0  0  0  0  0  0  0  0  0
  142.3700   76.7320  220.2640 O   0  0  0  0  0  0  0  0  0  0  0  0
  141.5780   74.6330  220.7530 N   0  0  0  0  0  0  0  0  0  0  0  0
  142.6540   73.9890  220.0270 C   0  0  0  0  0  0  0  0  0  0  0  0
  143.7190   73.4090  220.9020 C   0  0  0  0  0  0  0  0  0  0  0  0
  143.9680   71.9490  220.7350 C   0  0  0  0  0  0  0  0  0  0  0  0
  144.7900   71.6280  219.5020 C   0  0  0  0  0  0  0  0  0  0  0  0
  146.1360   72.1050  219.7320 N   0  0  0  0  0  0  0  0  0  0  0  0
  146.2150   73.1890  220.6590 C   0  0  0  0  0  0  0  0  0  0  0  0
  145.0310   74.1220  220.6380 C   0  0  0  0  0  0  0  0  0  0  0  0
  139.0710   70.2220  223.8130 C   0  0  0  0  0  0  0  0  0  0  0  0
  139.1490   69.7140  225.0730 C   0  0  0  0  0  0  0  0  0  0  0  0
  140.7780   69.0031  229.6612 H   0  0  0  0  0  0  0  0  0  0  0  0
  140.3285   67.3377  229.1600 H   0  0  0  0  0  0  0  0  0  0  0  0
  142.0528   67.8411  229.1600 H   0  0  0  0  0  0  0  0  0  0  0  0
  139.7320   70.3860  228.0790 H   0  0  0  0  0  0  0  0  0  0  0  0
  141.5104   71.8233  226.3118 H   0  0  0  0  0  0  0  0  0  0  0  0
  141.3190   72.6997  223.9977 H   0  0  0  0  0  0  0  0  0  0  0  0
  138.7462   71.5712  221.5152 H   0  0  0  0  0  0  0  0  0  0  0  0
  141.3719   71.9038  220.7726 H   0  0  0  0  0  0  0  0  0  0  0  0
  137.7180   75.8680  223.3091 H   0  0  0  0  0  0  0  0  0  0  0  0
  137.5926   78.3750  223.4298 H   0  0  0  0  0  0  0  0  0  0  0  0
  139.3350   79.7209  222.3010 H   0  0  0  0  0  0  0  0  0  0  0  0
  142.2247   73.1775  219.4211 H   0  0  0  0  0  0  0  0  0  0  0  0
  143.1345   74.7670  219.4156 H   0  0  0  0  0  0  0  0  0  0  0  0
  143.3428   73.5518  221.9258 H   0  0  0  0  0  0  0  0  0  0  0  0
  144.5060   71.5811  221.6211 H   0  0  0  0  0  0  0  0  0  0  0  0
  142.9904   71.4587  220.6169 H   0  0  0  0  0  0  0  0  0  0  0  0
  144.8019   70.5412  219.3326 H   0  0  0  0  0  0  0  0  0  0  0  0
  144.3569   72.1124  218.6144 H   0  0  0  0  0  0  0  0  0  0  0  0
  146.6960   71.3110  220.1310 H   0  0  0  0  0  0  0  0  0  0  0  0
  146.3022   72.7684  221.6717 H   0  0  0  0  0  0  0  0  0  0  0  0
  147.0887   73.7883  220.3632 H   0  0  0  0  0  0  0  0  0  0  0  0
  145.1753   74.8911  221.4111 H   0  0  0  0  0  0  0  0  0  0  0  0
  144.9730   74.5625  219.6317 H   0  0  0  0  0  0  0  0  0  0  0  0
  138.3689   69.7581  223.1046 H   0  0  0  0  0  0  0  0  0  0  0  0
  138.5236   68.8592  225.3700 H   0  0  0  0  0  0  0  0  0  0  0  0
  1  2  1  0
  2  3  2  0
  2  4  1  0
  4  5  1  0
  5  6  2  0
  6  7  1  0
  7  8  2  0
  8  9  1  0
  9 10  2  0
 10 11  1  0
 11 12  2  0
 12 13  1  0
 13 14  2  0
 14 15  1  0
 15 16  2  0
 16 17  1  0
 17 18  1  0
 17 19  2  0
 19 20  1  0
 20 21  2  0
 20 22  1  0
 22 23  1  0
 23 24  1  0
 24 25  1  0
 25 26  1  0
 26 27  1  0
 27 28  1  0
 28 29  1  0
  8 30  1  0
 30 31  2  0
 31  5  1  0
 22 11  1  0
 29 24  1  0
 19 13  1  0
  1 32  1  0
  1 33  1  0
  1 34  1  0
  4 35  1  0
  6 36  1  0
  7 37  1  0
  9 38  1  0
 10 39  1  0
 14 40  1  0
 15 41  1  0
 16 42  1  0
 23 43  1  0
 23 44  1  0
 24 45  1  0
 25 46  1  0
 25 47  1  0
 26 48  1  0
 26 49  1  0
 27 50  1  0
 28 51  1  0
 28 52  1  0
 29 53  1  0
 29 54  1  0
 30 55  1  0
 31 56  1  0
M  END
>  <smiles>  (42) 
CC(=O)Nc1ccc(/C=C/c2nc3cccc(Cl)c3c(=O)n2CC2CCNCC2)cc1

>  <score_type>  (42) 
oracle

>  <origin>  (42) 
autodockgpu

>  <m_score__min__energy>  (42) 
-8.9499999999999993

>  <m_primary>  (42) 
energy

>  <rmsd>  (42) 
5.60536380718251

>  <m_score__min__rmsd>  (42) 
5.60536380718251

>  <meeko>  (42) 
{"free_energy": -8.86, "intermolecular_energy": -10.65, "internal_energy": -1.46, "cluster_size": 5, "cluster_id": 1, "rank_in_cluster": 2}

>  <energy>  (42) 
-7.97

>  <cluster_rmsd>  (42) 
0.0

>  <cluster>  (42) 
6

$$$$

     RDKit          3D

 56 59  0  0  0  0  0  0  0  0999 V2000
  141.9330   80.4520  223.0010 C   0  0  0  0  0  0  0  0  0  0  0  0
  141.5250   79.0250  223.0340 C   0  0  0  0  0  0  0  0  0  0  0  0
  141.8630   78.2960  224.0090 O   0  0  0  0  0  0  0  0  0  0  0  0
  140.7600   78.5070  221.9650 N   0  0  0  0  0  0  0  0  0  0  0  0
  140.3540   77.1440  221.9690 C   0  0  0  0  0  0  0  0  0  0  0  0
  141.2920   76.2150  221.5550 C   0  0  0  0  0  0  0  0  0  0  0  0
  140.9300   74.8700  221.5450 C   0  0  0  0  0  0  0  0  0  0  0  0
  139.6900   74.4280  221.9260 C   0  0  0  0  0  0  0  0  0  0  0  0
  139.2880   73.0490  221.9260 C   0  0  0  0  0  0  0  0  0  0  0  0
  140.0920   72.0180  222.1080 C   0  0  0  0  0  0  0  0  0  0  0  0
  140.0830   71.2850  223.3710 C   0  0  0  0  0  0  0  0  0  0  0  0
  140.5580   71.8940  224.4710 N   0  0  0  0  0  0  0  0  0  0  0  0
  140.6140   71.3420  225.6940 C   0  0  0  0  0  0  0  0  0  0  0  0
  141.1190   72.0340  226.7900 C   0  0  0  0  0  0  0  0  0  0  0  0
  141.1540   71.4110  228.0410 C   0  0  0  0  0  0  0  0  0  0  0  0
  140.6830   70.1220  228.1480 C   0  0  0  0  0  0  0  0  0  0  0  0
  140.1810   69.4400  227.0540 C   0  0  0  0  0  0  0  0  0  0  0  0
  139.5910   67.8000  227.2380 Cl  0  0  0  0  0  0  0  0  0  0  0  0
  140.1440   70.0510  225.8170 C   0  0  0  0  0  0  0  0  0  0  0  0
  139.6560   69.4220  224.6910 C   0  0  0  0  0  0  0  0  0  0  0  0
  139.2360   68.2370  224.8600 O   0  0  0  0  0  0  0  0  0  0  0  0
  139.6220   70.0260  223.4730 N   0  0  0  0  0  0  0  0  0  0  0  0
  139.1060   69.3210  222.3160 C   0  0  0  0  0  0  0  0  0  0  0  0
  137.6190   69.3940  222.1700 C   0  0  0  0  0  0  0  0  0  0  0  0
  136.8610   69.6820  223.4200 C   0  0  0  0  0  0  0  0  0  0  0  0
  136.9050   71.1450  223.8130 C   0  0  0  0  0  0  0  0  0  0  0  0
  136.1230   71.8870  222.8480 N   0  0  0  0  0  0  0  0  0  0  0  0
  136.0400   71.2600  221.5670 C   0  0  0  0  0  0  0  0  0  0  0  0
  137.2660   70.4770  221.1690 C   0  0  0  0  0  0  0  0  0  0  0  0
  138.7880   75.4150  222.3330 C   0  0  0  0  0  0  0  0  0  0  0  0
  139.0940   76.7400  222.3600 C   0  0  0  0  0  0  0  0  0  0  0  0
  142.0401   80.8266  224.0297 H   0  0  0  0  0  0  0  0  0  0  0  0
  142.8941   80.5465  222.4744 H   0  0  0  0  0  0  0  0  0  0  0  0
  141.1671   81.0403  222.4744 H   0  0  0  0  0  0  0  0  0  0  0  0
  140.4740   79.1050  221.1510 H   0  0  0  0  0  0  0  0  0  0  0  0
  142.2981   76.5306  221.2417 H   0  0  0  0  0  0  0  0  0  0  0  0
  141.6733   74.1288  221.2163 H   0  0  0  0  0  0  0  0  0  0  0  0
  138.2219   72.8343  221.7606 H   0  0  0  0  0  0  0  0  0  0  0  0
  140.7739   71.7087  221.3022 H   0  0  0  0  0  0  0  0  0  0  0  0
  141.4880   73.0636  226.6732 H   0  0  0  0  0  0  0  0  0  0  0  0
  141.5494   71.9395  228.9209 H   0  0  0  0  0  0  0  0  0  0  0  0
  140.7063   69.6219  229.1275 H   0  0  0  0  0  0  0  0  0  0  0  0
  139.5634   69.7549  221.4146 H   0  0  0  0  0  0  0  0  0  0  0  0
  139.3599   68.2594  222.4519 H   0  0  0  0  0  0  0  0  0  0  0  0
  137.3225   68.3857  221.8454 H   0  0  0  0  0  0  0  0  0  0  0  0
  135.8111   69.3907  223.2687 H   0  0  0  0  0  0  0  0  0  0  0  0
  137.3324   69.1081  224.2314 H   0  0  0  0  0  0  0  0  0  0  0  0
  136.4791   71.2750  224.8188 H   0  0  0  0  0  0  0  0  0  0  0  0
  137.9434   71.5078  223.8259 H   0  0  0  0  0  0  0  0  0  0  0  0
  135.1450   71.9690  223.2190 H   0  0  0  0  0  0  0  0  0  0  0  0
  135.1820   70.5717  221.5772 H   0  0  0  0  0  0  0  0  0  0  0  0
  135.9356   72.0702  220.8303 H   0  0  0  0  0  0  0  0  0  0  0  0
  137.0813   70.0065  220.1920 H   0  0  0  0  0  0  0  0  0  0  0  0
  138.1108   71.1803  221.1286 H   0  0  0  0  0  0  0  0  0  0  0  0
  137.7805   75.1048  222.6471 H   0  0  0  0  0  0  0  0  0  0  0  0
  138.3480   77.4785  222.6887 H   0  0  0  0  0  0  0  0  0  0  0  0
  1  2  1  0
  2  3  2  0
  2  4  1  0
  4  5  1  0
  5  6  2  0
  6  7  1  0
  7  8  2  0
  8  9  1  0
  9 10  2  0
 10 11  1  0
 11 12  2  0
 12 13  1  0
 13 14  2  0
 14 15  1  0
 15 16  2  0
 16 17  1  0
 17 18  1  0
 17 19  2  0
 19 20  1  0
 20 21  2  0
 20 22  1  0
 22 23  1  0
 23 24  1  0
 24 25  1  0
 25 26  1  0
 26 27  1  0
 27 28  1  0
 28 29  1  0
  8 30  1  0
 30 31  2  0
 31  5  1  0
 22 11  1  0
 29 24  1  0
 19 13  1  0
  1 32  1  0
  1 33  1  0
  1 34  1  0
  4 35  1  0
  6 36  1  0
  7 37  1  0
  9 38  1  0
 10 39  1  0
 14 40  1  0
 15 41  1  0
 16 42  1  0
 23 43  1  0
 23 44  1  0
 24 45  1  0
 25 46  1  0
 25 47  1  0
 26 48  1  0
 26 49  1  0
 27 50  1  0
 28 51  1  0
 28 52  1  0
 29 53  1  0
 29 54  1  0
 30 55  1  0
 31 56  1  0
M  END
>  <smiles>  (43) 
CC(=O)Nc1ccc(/C=C/c2nc3cccc(Cl)c3c(=O)n2CC2CCNCC2)cc1

>  <score_type>  (43) 
oracle

>  <origin>  (43) 
autodockgpu

>  <m_score__min__energy>  (43) 
-8.9499999999999993

>  <m_primary>  (43) 
energy

>  <rmsd>  (43) 
11.278291171766842

>  <m_score__min__rmsd>  (43) 
11.278291171766842

>  <meeko>  (43) 
{"free_energy": -8.29, "intermolecular_energy": -10.08, "internal_energy": -1.79, "cluster_size": 15, "cluster_id": 2, "rank_in_cluster": 10}

>  <energy>  (43) 
-7.88

>  <cluster_rmsd>  (43) 
0.79

>  <cluster>  (43) 
6

$$$$

     RDKit          3D

 56 59  0  0  0  0  0  0  0  0999 V2000
  131.9510   73.5050  227.3350 C   0  0  0  0  0  0  0  0  0  0  0  0
  132.9380   72.7050  226.5700 C   0  0  0  0  0  0  0  0  0  0  0  0
  134.1150   73.1350  226.4160 O   0  0  0  0  0  0  0  0  0  0  0  0
  132.5370   71.4650  226.0230 N   0  0  0  0  0  0  0  0  0  0  0  0
  133.4610   70.6750  225.2840 C   0  0  0  0  0  0  0  0  0  0  0  0
  133.2210   70.5430  223.9270 C   0  0  0  0  0  0  0  0  0  0  0  0
  134.1040   69.7760  223.1720 C   0  0  0  0  0  0  0  0  0  0  0  0
  135.1970   69.1490  223.7100 C   0  0  0  0  0  0  0  0  0  0  0  0
  136.1250   68.3520  222.9570 C   0  0  0  0  0  0  0  0  0  0  0  0
  137.3820   68.6710  222.7110 C   0  0  0  0  0  0  0  0  0  0  0  0
  138.2640   69.0980  223.7930 C   0  0  0  0  0  0  0  0  0  0  0  0
  138.7860   68.1620  224.6050 N   0  0  0  0  0  0  0  0  0  0  0  0
  139.6060   68.4090  225.6380 C   0  0  0  0  0  0  0  0  0  0  0  0
  140.1090   67.3870  226.4380 C   0  0  0  0  0  0  0  0  0  0  0  0
  140.9600   67.7010  227.5010 C   0  0  0  0  0  0  0  0  0  0  0  0
  141.2760   69.0220  227.7250 C   0  0  0  0  0  0  0  0  0  0  0  0
  140.7730   70.0330  226.9260 C   0  0  0  0  0  0  0  0  0  0  0  0
  141.2030   71.7010  227.2470 Cl  0  0  0  0  0  0  0  0  0  0  0  0
  139.9320   69.7280  225.8740 C   0  0  0  0  0  0  0  0  0  0  0  0
  139.4000   70.6910  225.0440 C   0  0  0  0  0  0  0  0  0  0  0  0
  139.7320   71.8880  225.3040 O   0  0  0  0  0  0  0  0  0  0  0  0
  138.5720   70.3890  224.0090 N   0  0  0  0  0  0  0  0  0  0  0  0
  138.0310   71.4380  223.1680 C   0  0  0  0  0  0  0  0  0  0  0  0
  138.8660   71.7490  221.9670 C   0  0  0  0  0  0  0  0  0  0  0  0
  138.5320   73.0170  221.2590 C   0  0  0  0  0  0  0  0  0  0  0  0
  139.0720   74.2460  221.9650 C   0  0  0  0  0  0  0  0  0  0  0  0
  140.5120   74.2350  221.8320 N   0  0  0  0  0  0  0  0  0  0  0  0
  141.0680   72.9300  221.6600 C   0  0  0  0  0  0  0  0  0  0  0  0
  140.3240   71.8310  222.3750 C   0  0  0  0  0  0  0  0  0  0  0  0
  135.3840   69.3190  225.0850 C   0  0  0  0  0  0  0  0  0  0  0  0
  134.5490   70.0590  225.8650 C   0  0  0  0  0  0  0  0  0  0  0  0
  132.1226   73.3659  228.4126 H   0  0  0  0  0  0  0  0  0  0  0  0
  132.0647   74.5690  227.0799 H   0  0  0  0  0  0  0  0  0  0  0  0
  130.9336   73.1735  227.0799 H   0  0  0  0  0  0  0  0  0  0  0  0
  131.5610   71.0980  226.1450 H   0  0  0  0  0  0  0  0  0  0  0  0
  132.3547   71.0317  223.4573 H   0  0  0  0  0  0  0  0  0  0  0  0
  133.9155   69.6684  222.0936 H   0  0  0  0  0  0  0  0  0  0  0  0
  135.7579   67.3974  222.5521 H   0  0  0  0  0  0  0  0  0  0  0  0
  137.7680   68.6146  221.6825 H   0  0  0  0  0  0  0  0  0  0  0  0
  139.8387   66.3402  226.2350 H   0  0  0  0  0  0  0  0  0  0  0  0
  141.3690   66.9089  228.1455 H   0  0  0  0  0  0  0  0  0  0  0  0
  141.9446   69.2799  228.5595 H   0  0  0  0  0  0  0  0  0  0  0  0
  137.0340   71.1254  222.8241 H   0  0  0  0  0  0  0  0  0  0  0  0
  138.0021   72.3518  223.7796 H   0  0  0  0  0  0  0  0  0  0  0  0
  138.6553   70.9291  221.2646 H   0  0  0  0  0  0  0  0  0  0  0  0
  138.9601   72.9771  220.2465 H   0  0  0  0  0  0  0  0  0  0  0  0
  137.4357   73.1039  221.2362 H   0  0  0  0  0  0  0  0  0  0  0  0
  138.6603   75.1548  221.5018 H   0  0  0  0  0  0  0  0  0  0  0  0
  138.7840   74.2370  223.0266 H   0  0  0  0  0  0  0  0  0  0  0  0
  140.7630   74.7960  220.9810 H   0  0  0  0  0  0  0  0  0  0  0  0
  141.0723   72.6980  220.5848 H   0  0  0  0  0  0  0  0  0  0  0  0
  142.0761   72.9606  222.0992 H   0  0  0  0  0  0  0  0  0  0  0  0
  140.8083   70.8706  222.1445 H   0  0  0  0  0  0  0  0  0  0  0  0
  140.3554   72.0548  223.4515 H   0  0  0  0  0  0  0  0  0  0  0  0
  136.2480   68.8310  225.5598 H   0  0  0  0  0  0  0  0  0  0  0  0
  134.7396   70.1639  226.9433 H   0  0  0  0  0  0  0  0  0  0  0  0
  1  2  1  0
  2  3  2  0
  2  4  1  0
  4  5  1  0
  5  6  2  0
  6  7  1  0
  7  8  2  0
  8  9  1  0
  9 10  2  0
 10 11  1  0
 11 12  2  0
 12 13  1  0
 13 14  2  0
 14 15  1  0
 15 16  2  0
 16 17  1  0
 17 18  1  0
 17 19  2  0
 19 20  1  0
 20 21  2  0
 20 22  1  0
 22 23  1  0
 23 24  1  0
 24 25  1  0
 25 26  1  0
 26 27  1  0
 27 28  1  0
 28 29  1  0
  8 30  1  0
 30 31  2  0
 31  5  1  0
 22 11  1  0
 29 24  1  0
 19 13  1  0
  1 32  1  0
  1 33  1  0
  1 34  1  0
  4 35  1  0
  6 36  1  0
  7 37  1  0
  9 38  1  0
 10 39  1  0
 14 40  1  0
 15 41  1  0
 16 42  1  0
 23 43  1  0
 23 44  1  0
 24 45  1  0
 25 46  1  0
 25 47  1  0
 26 48  1  0
 26 49  1  0
 27 50  1  0
 28 51  1  0
 28 52  1  0
 29 53  1  0
 29 54  1  0
 30 55  1  0
 31 56  1  0
M  END
>  <smiles>  (44) 
CC(=O)Nc1ccc(/C=C/c2nc3cccc(Cl)c3c(=O)n2CC2CCNCC2)cc1

>  <score_type>  (44) 
oracle

>  <origin>  (44) 
autodockgpu

>  <m_score__min__energy>  (44) 
-8.9499999999999993

>  <m_primary>  (44) 
energy

>  <rmsd>  (44) 
11.080002003564806

>  <m_score__min__rmsd>  (44) 
11.080002003564806

>  <meeko>  (44) 
{"free_energy": -7.93, "intermolecular_energy": -9.72, "internal_energy": -1.78, "cluster_size": 17, "cluster_id": 3, "rank_in_cluster": 11}

>  <energy>  (44) 
-7.54

>  <cluster_rmsd>  (44) 
0.56

>  <cluster>  (44) 
6

$$$$

     RDKit          3D

 56 59  0  0  0  0  0  0  0  0999 V2000
  140.4240   68.3350  228.7940 C   0  0  0  0  0  0  0  0  0  0  0  0
  140.5230   69.2050  227.5960 C   0  0  0  0  0  0  0  0  0  0  0  0
  141.4030   70.1090  227.5450 O   0  0  0  0  0  0  0  0  0  0  0  0
  139.6210   69.0010  226.5270 N   0  0  0  0  0  0  0  0  0  0  0  0
  139.6910   69.8190  225.3650 C   0  0  0  0  0  0  0  0  0  0  0  0
  139.1670   69.2890  224.1990 C   0  0  0  0  0  0  0  0  0  0  0  0
  139.2180   70.0610  223.0410 C   0  0  0  0  0  0  0  0  0  0  0  0
  139.7610   71.3190  223.0060 C   0  0  0  0  0  0  0  0  0  0  0  0
  139.8280   72.1380  221.8280 C   0  0  0  0  0  0  0  0  0  0  0  0
  140.8930   72.8010  221.4180 C   0  0  0  0  0  0  0  0  0  0  0  0
  140.8800   74.2600  221.3560 C   0  0  0  0  0  0  0  0  0  0  0  0
  139.9030   74.9220  222.0010 N   0  0  0  0  0  0  0  0  0  0  0  0
  139.7650   76.2570  222.0280 C   0  0  0  0  0  0  0  0  0  0  0  0
  138.7260   76.8750  222.7170 C   0  0  0  0  0  0  0  0  0  0  0  0
  138.6300   78.2690  222.7120 C   0  0  0  0  0  0  0  0  0  0  0  0
  139.5740   78.9920  222.0190 C   0  0  0  0  0  0  0  0  0  0  0  0
  140.6050   78.3720  221.3350 C   0  0  0  0  0  0  0  0  0  0  0  0
  141.7850   79.3330  220.4670 Cl  0  0  0  0  0  0  0  0  0  0  0  0
  140.7040   76.9950  221.3380 C   0  0  0  0  0  0  0  0  0  0  0  0
  141.7080   76.3200  220.6760 C   0  0  0  0  0  0  0  0  0  0  0  0
  142.5460   77.0460  220.0580 O   0  0  0  0  0  0  0  0  0  0  0  0
  141.8030   74.9640  220.6790 N   0  0  0  0  0  0  0  0  0  0  0  0
  142.8730   74.3000  219.9610 C   0  0  0  0  0  0  0  0  0  0  0  0
  143.8630   73.6090  220.8440 C   0  0  0  0  0  0  0  0  0  0  0  0
  143.9280   72.1270  220.7050 C   0  0  0  0  0  0  0  0  0  0  0  0
  144.6970   71.6820  219.4760 C   0  0  0  0  0  0  0  0  0  0  0  0
  146.0930   71.9930  219.6920 N   0  0  0  0  0  0  0  0  0  0  0  0
  146.3120   73.0770  220.5960 C   0  0  0  0  0  0  0  0  0  0  0  0
  145.2520   74.1490  220.5600 C   0  0  0  0  0  0  0  0  0  0  0  0
  140.2730   71.7980  224.2150 C   0  0  0  0  0  0  0  0  0  0  0  0
  140.2460   71.0820  225.3720 C   0  0  0  0  0  0  0  0  0  0  0  0
  140.4942   68.9519  229.7020 H   0  0  0  0  0  0  0  0  0  0  0  0
  139.4598   67.8056  228.7841 H   0  0  0  0  0  0  0  0  0  0  0  0
  141.2446   67.6025  228.7841 H   0  0  0  0  0  0  0  0  0  0  0  0
  138.8860   68.2520  226.5600 H   0  0  0  0  0  0  0  0  0  0  0  0
  138.7215   68.2833  224.1871 H   0  0  0  0  0  0  0  0  0  0  0  0
  138.8036   69.6421  222.1121 H   0  0  0  0  0  0  0  0  0  0  0  0
  138.9167   72.2194  221.2173 H   0  0  0  0  0  0  0  0  0  0  0  0
  141.7976   72.2503  221.1206 H   0  0  0  0  0  0  0  0  0  0  0  0
  137.9856   76.2706  223.2616 H   0  0  0  0  0  0  0  0  0  0  0  0
  137.8170   78.7778  223.2507 H   0  0  0  0  0  0  0  0  0  0  0  0
  139.5074   80.0899  222.0085 H   0  0  0  0  0  0  0  0  0  0  0  0
  142.4264   73.5512  219.2903 H   0  0  0  0  0  0  0  0  0  0  0  0
  143.4237   75.0819  219.4175 H   0  0  0  0  0  0  0  0  0  0  0  0
  143.5140   73.8165  221.8663 H   0  0  0  0  0  0  0  0  0  0  0  0
  144.4210   71.7123  221.5966 H   0  0  0  0  0  0  0  0  0  0  0  0
  142.8964   71.7601  220.5993 H   0  0  0  0  0  0  0  0  0  0  0  0
  144.5732   70.5989  219.3288 H   0  0  0  0  0  0  0  0  0  0  0  0
  144.3222   72.1985  218.5800 H   0  0  0  0  0  0  0  0  0  0  0  0
  146.5530   71.1440  220.1040 H   0  0  0  0  0  0  0  0  0  0  0  0
  146.3530   72.6694  221.6168 H   0  0  0  0  0  0  0  0  0  0  0  0
  147.2514   73.5572  220.2848 H   0  0  0  0  0  0  0  0  0  0  0  0
  145.4952   74.9098  221.3163 H   0  0  0  0  0  0  0  0  0  0  0  0
  145.2425   74.5728  219.5449 H   0  0  0  0  0  0  0  0  0  0  0  0
  140.7197   72.8031  224.2322 H   0  0  0  0  0  0  0  0  0  0  0  0
  140.6607   71.5042  226.2993 H   0  0  0  0  0  0  0  0  0  0  0  0
  1  2  1  0
  2  3  2  0
  2  4  1  0
  4  5  1  0
  5  6  2  0
  6  7  1  0
  7  8  2  0
  8  9  1  0
  9 10  2  0
 10 11  1  0
 11 12  2  0
 12 13  1  0
 13 14  2  0
 14 15  1  0
 15 16  2  0
 16 17  1  0
 17 18  1  0
 17 19  2  0
 19 20  1  0
 20 21  2  0
 20 22  1  0
 22 23  1  0
 23 24  1  0
 24 25  1  0
 25 26  1  0
 26 27  1  0
 27 28  1  0
 28 29  1  0
  8 30  1  0
 30 31  2  0
 31  5  1  0
 22 11  1  0
 29 24  1  0
 19 13  1  0
  1 32  1  0
  1 33  1  0
  1 34  1  0
  4 35  1  0
  6 36  1  0
  7 37  1  0
  9 38  1  0
 10 39  1  0
 14 40  1  0
 15 41  1  0
 16 42  1  0
 23 43  1  0
 23 44  1  0
 24 45  1  0
 25 46  1  0
 25 47  1  0
 26 48  1  0
 26 49  1  0
 27 50  1  0
 28 51  1  0
 28 52  1  0
 29 53  1  0
 29 54  1  0
 30 55  1  0
 31 56  1  0
M  END
>  <smiles>  (45) 
CC(=O)Nc1ccc(/C=C/c2nc3cccc(Cl)c3c(=O)n2CC2CCNCC2)cc1

>  <score_type>  (45) 
oracle

>  <origin>  (45) 
autodockgpu

>  <m_score__min__energy>  (45) 
-8.9499999999999993

>  <m_primary>  (45) 
energy

>  <rmsd>  (45) 
5.38182674686396

>  <m_score__min__rmsd>  (45) 
5.38182674686396

>  <meeko>  (45) 
{"free_energy": -8.7, "intermolecular_energy": -10.49, "internal_energy": -1.09, "cluster_size": 5, "cluster_id": 1, "rank_in_cluster": 4}

>  <energy>  (45) 
-6.4

>  <cluster_rmsd>  (45) 
0.0

>  <cluster>  (45) 
7

$$$$

     RDKit          3D

 56 59  0  0  0  0  0  0  0  0999 V2000
  142.0410   80.3340  223.1100 C   0  0  0  0  0  0  0  0  0  0  0  0
  141.6140   78.9130  223.1130 C   0  0  0  0  0  0  0  0  0  0  0  0
  141.8660   78.1820  224.1120 O   0  0  0  0  0  0  0  0  0  0  0  0
  140.9270   78.4020  221.9890 N   0  0  0  0  0  0  0  0  0  0  0  0
  140.5050   77.0440  221.9630 C   0  0  0  0  0  0  0  0  0  0  0  0
  139.1950   76.7930  222.3330 C   0  0  0  0  0  0  0  0  0  0  0  0
  138.7470   75.4740  222.3210 C   0  0  0  0  0  0  0  0  0  0  0  0
  139.5410   74.4190  221.9580 C   0  0  0  0  0  0  0  0  0  0  0  0
  139.1080   73.0500  221.9360 C   0  0  0  0  0  0  0  0  0  0  0  0
  139.8910   71.9970  222.0810 C   0  0  0  0  0  0  0  0  0  0  0  0
  139.9250   71.2670  223.3450 C   0  0  0  0  0  0  0  0  0  0  0  0
  140.4220   71.8850  224.4310 N   0  0  0  0  0  0  0  0  0  0  0  0
  140.5170   71.3370  225.6530 C   0  0  0  0  0  0  0  0  0  0  0  0
  141.0430   72.0380  226.7340 C   0  0  0  0  0  0  0  0  0  0  0  0
  141.1180   71.4190  227.9840 C   0  0  0  0  0  0  0  0  0  0  0  0
  140.6670   70.1240  228.1070 C   0  0  0  0  0  0  0  0  0  0  0  0
  140.1440   69.4330  227.0290 C   0  0  0  0  0  0  0  0  0  0  0  0
  139.5800   67.7870  227.2320 Cl  0  0  0  0  0  0  0  0  0  0  0  0
  140.0670   70.0400  225.7910 C   0  0  0  0  0  0  0  0  0  0  0  0
  139.5570   69.4030  224.6800 C   0  0  0  0  0  0  0  0  0  0  0  0
  139.1570   68.2130  224.8630 O   0  0  0  0  0  0  0  0  0  0  0  0
  139.4830   70.0030  223.4620 N   0  0  0  0  0  0  0  0  0  0  0  0
  138.9450   69.2890  222.3210 C   0  0  0  0  0  0  0  0  0  0  0  0
  137.4550   69.3550  222.2070 C   0  0  0  0  0  0  0  0  0  0  0  0
  136.7230   69.6570  223.4690 C   0  0  0  0  0  0  0  0  0  0  0  0
  136.7710   71.1270  223.8400 C   0  0  0  0  0  0  0  0  0  0  0  0
  135.9650   71.8510  222.8820 N   0  0  0  0  0  0  0  0  0  0  0  0
  135.8560   71.2060  221.6120 C   0  0  0  0  0  0  0  0  0  0  0  0
  137.0760   70.4220  221.1980 C   0  0  0  0  0  0  0  0  0  0  0  0
  140.8530   74.7370  221.5960 C   0  0  0  0  0  0  0  0  0  0  0  0
  141.3380   76.0090  221.5920 C   0  0  0  0  0  0  0  0  0  0  0  0
  142.1471   80.6872  224.1463 H   0  0  0  0  0  0  0  0  0  0  0  0
  143.0064   80.4257  222.5907 H   0  0  0  0  0  0  0  0  0  0  0  0
  141.2861   80.9426  222.5907 H   0  0  0  0  0  0  0  0  0  0  0  0
  140.7120   79.0020  221.1540 H   0  0  0  0  0  0  0  0  0  0  0  0
  138.5251   77.6138  222.6288 H   0  0  0  0  0  0  0  0  0  0  0  0
  137.7072   75.2705  222.6168 H   0  0  0  0  0  0  0  0  0  0  0  0
  138.0344   72.8631  221.7858 H   0  0  0  0  0  0  0  0  0  0  0  0
  140.5227   71.6671  221.2430 H   0  0  0  0  0  0  0  0  0  0  0  0
  141.3970   73.0715  226.6051 H   0  0  0  0  0  0  0  0  0  0  0  0
  141.5289   71.9552  228.8521 H   0  0  0  0  0  0  0  0  0  0  0  0
  140.7240   69.6267  229.0865 H   0  0  0  0  0  0  0  0  0  0  0  0
  139.3809   69.7193  221.4073 H   0  0  0  0  0  0  0  0  0  0  0  0
  139.2063   68.2293  222.4577 H   0  0  0  0  0  0  0  0  0  0  0  0
  137.1552   68.3411  221.9036 H   0  0  0  0  0  0  0  0  0  0  0  0
  135.6711   69.3602  223.3446 H   0  0  0  0  0  0  0  0  0  0  0  0
  137.2129   69.0955  224.2781 H   0  0  0  0  0  0  0  0  0  0  0  0
  136.3674   71.2707  224.8531 H   0  0  0  0  0  0  0  0  0  0  0  0
  137.8080   71.4936  223.8248 H   0  0  0  0  0  0  0  0  0  0  0  0
  134.9950   71.9360  223.2740 H   0  0  0  0  0  0  0  0  0  0  0  0
  135.0011   70.5149  221.6507 H   0  0  0  0  0  0  0  0  0  0  0  0
  135.7320   72.0054  220.8666 H   0  0  0  0  0  0  0  0  0  0  0  0
  136.8716   69.9366  220.2323 H   0  0  0  0  0  0  0  0  0  0  0  0
  137.9170   71.1276  221.1282 H   0  0  0  0  0  0  0  0  0  0  0  0
  141.5267   73.9194  221.2998 H   0  0  0  0  0  0  0  0  0  0  0  0
  142.3788   76.2085  221.2973 H   0  0  0  0  0  0  0  0  0  0  0  0
  1  2  1  0
  2  3  2  0
  2  4  1  0
  4  5  1  0
  5  6  2  0
  6  7  1  0
  7  8  2  0
  8  9  1  0
  9 10  2  0
 10 11  1  0
 11 12  2  0
 12 13  1  0
 13 14  2  0
 14 15  1  0
 15 16  2  0
 16 17  1  0
 17 18  1  0
 17 19  2  0
 19 20  1  0
 20 21  2  0
 20 22  1  0
 22 23  1  0
 23 24  1  0
 24 25  1  0
 25 26  1  0
 26 27  1  0
 27 28  1  0
 28 29  1  0
  8 30  1  0
 30 31  2  0
 31  5  1  0
 22 11  1  0
 29 24  1  0
 19 13  1  0
  1 32  1  0
  1 33  1  0
  1 34  1  0
  4 35  1  0
  6 36  1  0
  7 37  1  0
  9 38  1  0
 10 39  1  0
 14 40  1  0
 15 41  1  0
 16 42  1  0
 23 43  1  0
 23 44  1  0
 24 45  1  0
 25 46  1  0
 25 47  1  0
 26 48  1  0
 26 49  1  0
 27 50  1  0
 28 51  1  0
 28 52  1  0
 29 53  1  0
 29 54  1  0
 30 55  1  0
 31 56  1  0
M  END
>  <smiles>  (46) 
CC(=O)Nc1ccc(/C=C/c2nc3cccc(Cl)c3c(=O)n2CC2CCNCC2)cc1

>  <score_type>  (46) 
oracle

>  <origin>  (46) 
autodockgpu

>  <m_score__min__energy>  (46) 
-8.9499999999999993

>  <m_primary>  (46) 
energy

>  <rmsd>  (46) 
11.303780360472127

>  <m_score__min__rmsd>  (46) 
11.303780360472127

>  <meeko>  (46) 
{"free_energy": -8.33, "intermolecular_energy": -10.12, "internal_energy": -1.8, "cluster_size": 15, "cluster_id": 2, "rank_in_cluster": 9}

>  <energy>  (46) 
-6.39

>  <cluster_rmsd>  (46) 
0.06

>  <cluster>  (46) 
7

$$$$

     RDKit          3D

 56 59  0  0  0  0  0  0  0  0999 V2000
  141.6340   80.6450  222.6580 C   0  0  0  0  0  0  0  0  0  0  0  0
  141.5190   79.1650  222.6840 C   0  0  0  0  0  0  0  0  0  0  0  0
  141.8280   78.5280  223.7300 O   0  0  0  0  0  0  0  0  0  0  0  0
  141.0620   78.4940  221.5280 N   0  0  0  0  0  0  0  0  0  0  0  0
  140.9410   77.0770  221.5220 C   0  0  0  0  0  0  0  0  0  0  0  0
  139.9000   76.5390  222.2570 C   0  0  0  0  0  0  0  0  0  0  0  0
  139.7510   75.1540  222.2760 C   0  0  0  0  0  0  0  0  0  0  0  0
  140.5860   74.3050  221.5990 C   0  0  0  0  0  0  0  0  0  0  0  0
  140.4580   72.8740  221.5990 C   0  0  0  0  0  0  0  0  0  0  0  0
  139.4250   72.1990  222.0670 C   0  0  0  0  0  0  0  0  0  0  0  0
  139.5630   71.3600  223.2550 C   0  0  0  0  0  0  0  0  0  0  0  0
  140.1190   71.8940  224.3570 N   0  0  0  0  0  0  0  0  0  0  0  0
  140.3110   71.2430  225.5150 C   0  0  0  0  0  0  0  0  0  0  0  0
  140.8930   71.8610  226.6180 C   0  0  0  0  0  0  0  0  0  0  0  0
  141.0700   71.1350  227.7990 C   0  0  0  0  0  0  0  0  0  0  0  0
  140.6590   69.8220  227.8340 C   0  0  0  0  0  0  0  0  0  0  0  0
  140.0810   69.2140  226.7340 C   0  0  0  0  0  0  0  0  0  0  0  0
  139.5710   67.5400  226.8250 Cl  0  0  0  0  0  0  0  0  0  0  0  0
  139.9040   69.9260  225.5650 C   0  0  0  0  0  0  0  0  0  0  0  0
  139.3340   69.3750  224.4370 C   0  0  0  0  0  0  0  0  0  0  0  0
  138.9760   68.1620  224.5370 O   0  0  0  0  0  0  0  0  0  0  0  0
  139.1610   70.0780  223.2870 N   0  0  0  0  0  0  0  0  0  0  0  0
  138.5630   69.4520  222.1240 C   0  0  0  0  0  0  0  0  0  0  0  0
  137.0690   69.5110  222.0990 C   0  0  0  0  0  0  0  0  0  0  0  0
  136.4100   69.7370  223.4170 C   0  0  0  0  0  0  0  0  0  0  0  0
  136.4700   71.1830  223.8670 C   0  0  0  0  0  0  0  0  0  0  0  0
  135.6060   71.9530  222.9980 N   0  0  0  0  0  0  0  0  0  0  0  0
  135.4270   71.3780  221.7030 C   0  0  0  0  0  0  0  0  0  0  0  0
  136.6250   70.6290  221.1760 C   0  0  0  0  0  0  0  0  0  0  0  0
  141.6180   74.9090  220.8760 C   0  0  0  0  0  0  0  0  0  0  0  0
  141.8050   76.2560  220.8270 C   0  0  0  0  0  0  0  0  0  0  0  0
  141.6638   81.0286  223.6885 H   0  0  0  0  0  0  0  0  0  0  0  0
  142.5571   80.9319  222.1331 H   0  0  0  0  0  0  0  0  0  0  0  0
  140.7663   81.0710  222.1331 H   0  0  0  0  0  0  0  0  0  0  0  0
  140.8020   79.0150  220.6540 H   0  0  0  0  0  0  0  0  0  0  0  0
  139.2073   77.1883  222.8125 H   0  0  0  0  0  0  0  0  0  0  0  0
  138.9255   74.7227  222.8612 H   0  0  0  0  0  0  0  0  0  0  0  0
  141.2897   72.2930  221.1738 H   0  0  0  0  0  0  0  0  0  0  0  0
  138.4521   72.2687  221.5584 H   0  0  0  0  0  0  0  0  0  0  0  0
  141.2111   72.9124  226.5606 H   0  0  0  0  0  0  0  0  0  0  0  0
  141.5284   71.6034  228.6824 H   0  0  0  0  0  0  0  0  0  0  0  0
  140.7933   69.2420  228.7590 H   0  0  0  0  0  0  0  0  0  0  0  0
  138.9438   69.9587  221.2249 H   0  0  0  0  0  0  0  0  0  0  0  0
  138.8377   68.3875  222.1604 H   0  0  0  0  0  0  0  0  0  0  0  0
  136.7586   68.5130  221.7559 H   0  0  0  0  0  0  0  0  0  0  0  0
  135.3545   69.4378  223.3374 H   0  0  0  0  0  0  0  0  0  0  0  0
  136.9509   69.1367  224.1634 H   0  0  0  0  0  0  0  0  0  0  0  0
  136.1237   71.2657  224.9078 H   0  0  0  0  0  0  0  0  0  0  0  0
  137.5023   71.5594  223.8141 H   0  0  0  0  0  0  0  0  0  0  0  0
  134.6590   72.0060  223.4500 H   0  0  0  0  0  0  0  0  0  0  0  0
  134.5798   70.6781  221.7528 H   0  0  0  0  0  0  0  0  0  0  0  0
  135.2553   72.2161  221.0116 H   0  0  0  0  0  0  0  0  0  0  0  0
  136.3672   70.1964  220.1980 H   0  0  0  0  0  0  0  0  0  0  0  0
  137.4564   71.3451  221.0979 H   0  0  0  0  0  0  0  0  0  0  0  0
  142.3135   74.2639  220.3191 H   0  0  0  0  0  0  0  0  0  0  0  0
  142.6325   76.6838  220.2421 H   0  0  0  0  0  0  0  0  0  0  0  0
  1  2  1  0
  2  3  2  0
  2  4  1  0
  4  5  1  0
  5  6  2  0
  6  7  1  0
  7  8  2  0
  8  9  1  0
  9 10  2  0
 10 11  1  0
 11 12  2  0
 12 13  1  0
 13 14  2  0
 14 15  1  0
 15 16  2  0
 16 17  1  0
 17 18  1  0
 17 19  2  0
 19 20  1  0
 20 21  2  0
 20 22  1  0
 22 23  1  0
 23 24  1  0
 24 25  1  0
 25 26  1  0
 26 27  1  0
 27 28  1  0
 28 29  1  0
  8 30  1  0
 30 31  2  0
 31  5  1  0
 22 11  1  0
 29 24  1  0
 19 13  1  0
  1 32  1  0
  1 33  1  0
  1 34  1  0
  4 35  1  0
  6 36  1  0
  7 37  1  0
  9 38  1  0
 10 39  1  0
 14 40  1  0
 15 41  1  0
 16 42  1  0
 23 43  1  0
 23 44  1  0
 24 45  1  0
 25 46  1  0
 25 47  1  0
 26 48  1  0
 26 49  1  0
 27 50  1  0
 28 51  1  0
 28 52  1  0
 29 53  1  0
 29 54  1  0
 30 55  1  0
 31 56  1  0
M  END
>  <smiles>  (47) 
CC(=O)Nc1ccc(/C=C/c2nc3cccc(Cl)c3c(=O)n2CC2CCNCC2)cc1

>  <score_type>  (47) 
oracle

>  <origin>  (47) 
autodockgpu

>  <m_score__min__energy>  (47) 
-8.9499999999999993

>  <m_primary>  (47) 
energy

>  <rmsd>  (47) 
11.375661058553668

>  <m_score__min__rmsd>  (47) 
11.375661058553668

>  <meeko>  (47) 
{"free_energy": -7.94, "intermolecular_energy": -9.73, "internal_energy": -1.6, "cluster_size": 15, "cluster_id": 2, "rank_in_cluster": 14}

>  <energy>  (47) 
-6.32

>  <cluster_rmsd>  (47) 
0.1

>  <cluster>  (47) 
7

$$$$

     RDKit          3D

 56 59  0  0  0  0  0  0  0  0999 V2000
  131.0770   72.6600  227.8340 C   0  0  0  0  0  0  0  0  0  0  0  0
  131.8170   71.8980  226.7990 C   0  0  0  0  0  0  0  0  0  0  0  0
  131.2270   71.5320  225.7440 O   0  0  0  0  0  0  0  0  0  0  0  0
  133.1800   71.5940  227.0160 N   0  0  0  0  0  0  0  0  0  0  0  0
  133.9160   70.8650  226.0410 C   0  0  0  0  0  0  0  0  0  0  0  0
  133.9740   69.4920  226.2050 C   0  0  0  0  0  0  0  0  0  0  0  0
  134.6870   68.7450  225.2700 C   0  0  0  0  0  0  0  0  0  0  0  0
  135.3290   69.3070  224.1990 C   0  0  0  0  0  0  0  0  0  0  0  0
  136.0720   68.5630  223.2190 C   0  0  0  0  0  0  0  0  0  0  0  0
  137.3740   68.6450  223.0230 C   0  0  0  0  0  0  0  0  0  0  0  0
  138.2590   69.0930  224.0950 C   0  0  0  0  0  0  0  0  0  0  0  0
  138.7330   68.1800  224.9610 N   0  0  0  0  0  0  0  0  0  0  0  0
  139.5490   68.4480  225.9920 C   0  0  0  0  0  0  0  0  0  0  0  0
  140.0020   67.4500  226.8500 C   0  0  0  0  0  0  0  0  0  0  0  0
  140.8510   67.7850  227.9080 C   0  0  0  0  0  0  0  0  0  0  0  0
  141.2150   69.1020  228.0700 C   0  0  0  0  0  0  0  0  0  0  0  0
  140.7620   70.0900  227.2130 C   0  0  0  0  0  0  0  0  0  0  0  0
  141.2530   71.7540  227.4550 Cl  0  0  0  0  0  0  0  0  0  0  0  0
  139.9230   69.7640  226.1660 C   0  0  0  0  0  0  0  0  0  0  0  0
  139.4400   70.7040  225.2800 C   0  0  0  0  0  0  0  0  0  0  0  0
  139.8160   71.8990  225.4840 O   0  0  0  0  0  0  0  0  0  0  0  0
  138.6140   70.3810  224.2500 N   0  0  0  0  0  0  0  0  0  0  0  0
  138.1250   71.4060  223.3490 C   0  0  0  0  0  0  0  0  0  0  0  0
  138.9880   71.6230  222.1470 C   0  0  0  0  0  0  0  0  0  0  0  0
  138.6740   72.8350  221.3370 C   0  0  0  0  0  0  0  0  0  0  0  0
  139.2000   74.1130  221.9600 C   0  0  0  0  0  0  0  0  0  0  0  0
  140.6430   74.0910  221.8620 N   0  0  0  0  0  0  0  0  0  0  0  0
  141.1990   72.7770  221.8010 C   0  0  0  0  0  0  0  0  0  0  0  0
  140.4370   71.7350  222.5810 C   0  0  0  0  0  0  0  0  0  0  0  0
  135.2340   70.6970  224.0890 C   0  0  0  0  0  0  0  0  0  0  0  0
  134.5500   71.4700  224.9760 C   0  0  0  0  0  0  0  0  0  0  0  0
  131.3983   72.3292  228.8327 H   0  0  0  0  0  0  0  0  0  0  0  0
  131.2862   73.7337  227.7185 H   0  0  0  0  0  0  0  0  0  0  0  0
  129.9976   72.4823  227.7185 H   0  0  0  0  0  0  0  0  0  0  0  0
  133.6800   71.8940  227.8890 H   0  0  0  0  0  0  0  0  0  0  0  0
  133.4701   69.0032  227.0518 H   0  0  0  0  0  0  0  0  0  0  0  0
  134.7366   67.6536  225.3979 H   0  0  0  0  0  0  0  0  0  0  0  0
  135.5084   67.8677  222.5795 H   0  0  0  0  0  0  0  0  0  0  0  0
  137.7965   68.3738  222.0443 H   0  0  0  0  0  0  0  0  0  0  0  0
  139.6939   66.4053  226.6963 H   0  0  0  0  0  0  0  0  0  0  0  0
  141.2208   67.0116  228.5973 H   0  0  0  0  0  0  0  0  0  0  0  0
  141.8820   69.3763  228.9006 H   0  0  0  0  0  0  0  0  0  0  0  0
  137.1214   71.1145  223.0059 H   0  0  0  0  0  0  0  0  0  0  0  0
  138.1228   72.3503  223.9132 H   0  0  0  0  0  0  0  0  0  0  0  0
  138.7910   70.7519  221.5048 H   0  0  0  0  0  0  0  0  0  0  0  0
  139.1258   72.7182  220.3409 H   0  0  0  0  0  0  0  0  0  0  0  0
  137.5787   72.9208  221.2820 H   0  0  0  0  0  0  0  0  0  0  0  0
  138.8014   74.9843  221.4197 H   0  0  0  0  0  0  0  0  0  0  0  0
  138.8873   74.1847  223.0122 H   0  0  0  0  0  0  0  0  0  0  0  0
  140.9140   74.5860  220.9760 H   0  0  0  0  0  0  0  0  0  0  0  0
  141.2257   72.4646  220.7466 H   0  0  0  0  0  0  0  0  0  0  0  0
  142.1974   72.8399  222.2583 H   0  0  0  0  0  0  0  0  0  0  0  0
  140.9245   70.7598  222.4351 H   0  0  0  0  0  0  0  0  0  0  0  0
  140.4448   72.0394  223.6380 H   0  0  0  0  0  0  0  0  0  0  0  0
  135.7367   71.1904  223.2441 H   0  0  0  0  0  0  0  0  0  0  0  0
  134.5035   72.5612  224.8455 H   0  0  0  0  0  0  0  0  0  0  0  0
  1  2  1  0
  2  3  2  0
  2  4  1  0
  4  5  1  0
  5  6  2  0
  6  7  1  0
  7  8  2  0
  8  9  1  0
  9 10  2  0
 10 11  1  0
 11 12  2  0
 12 13  1  0
 13 14  2  0
 14 15  1  0
 15 16  2  0
 16 17  1  0
 17 18  1  0
 17 19  2  0
 19 20  1  0
 20 21  2  0
 20 22  1  0
 22 23  1  0
 23 24  1  0
 24 25  1  0
 25 26  1  0
 26 27  1  0
 27 28  1  0
 28 29  1  0
  8 30  1  0
 30 31  2  0
 31  5  1  0
 22 11  1  0
 29 24  1  0
 19 13  1  0
  1 32  1  0
  1 33  1  0
  1 34  1  0
  4 35  1  0
  6 36  1  0
  7 37  1  0
  9 38  1  0
 10 39  1  0
 14 40  1  0
 15 41  1  0
 16 42  1  0
 23 43  1  0
 23 44  1  0
 24 45  1  0
 25 46  1  0
 25 47  1  0
 26 48  1  0
 26 49  1  0
 27 50  1  0
 28 51  1  0
 28 52  1  0
 29 53  1  0
 29 54  1  0
 30 55  1  0
 31 56  1  0
M  END
>  <smiles>  (48) 
CC(=O)Nc1ccc(/C=C/c2nc3cccc(Cl)c3c(=O)n2CC2CCNCC2)cc1

>  <score_type>  (48) 
oracle

>  <origin>  (48) 
autodockgpu

>  <m_score__min__energy>  (48) 
-8.9499999999999993

>  <m_primary>  (48) 
energy

>  <rmsd>  (48) 
11.15540695488965

>  <m_score__min__rmsd>  (48) 
11.15540695488965

>  <meeko>  (48) 
{"free_energy": -7.96, "intermolecular_energy": -9.75, "internal_energy": -1.78, "cluster_size": 17, "cluster_id": 3, "rank_in_cluster": 10}

>  <energy>  (48) 
-6.28

>  <cluster_rmsd>  (48) 
0.12

>  <cluster>  (48) 
7

$$$$

     RDKit          3D

 56 59  0  0  0  0  0  0  0  0999 V2000
  132.1370   73.3240  227.5810 C   0  0  0  0  0  0  0  0  0  0  0  0
  133.0990   72.7090  226.6330 C   0  0  0  0  0  0  0  0  0  0  0  0
  134.1010   73.3680  226.2360 O   0  0  0  0  0  0  0  0  0  0  0  0
  132.8720   71.3870  226.1890 N   0  0  0  0  0  0  0  0  0  0  0  0
  133.7770   70.7710  225.2800 C   0  0  0  0  0  0  0  0  0  0  0  0
  134.7410   69.9430  225.8280 C   0  0  0  0  0  0  0  0  0  0  0  0
  135.6440   69.3230  224.9680 C   0  0  0  0  0  0  0  0  0  0  0  0
  135.6200   69.4950  223.6090 C   0  0  0  0  0  0  0  0  0  0  0  0
  136.5380   68.8700  222.6980 C   0  0  0  0  0  0  0  0  0  0  0  0
  137.6930   68.3240  223.0300 C   0  0  0  0  0  0  0  0  0  0  0  0
  138.4920   68.8850  224.1160 C   0  0  0  0  0  0  0  0  0  0  0  0
  138.9950   68.0500  225.0420 N   0  0  0  0  0  0  0  0  0  0  0  0
  139.7420   68.4240  226.0930 C   0  0  0  0  0  0  0  0  0  0  0  0
  140.2300   67.5020  227.0140 C   0  0  0  0  0  0  0  0  0  0  0  0
  141.0030   67.9470  228.0890 C   0  0  0  0  0  0  0  0  0  0  0  0
  141.2590   69.2950  228.2050 C   0  0  0  0  0  0  0  0  0  0  0  0
  140.7710   70.2060  227.2860 C   0  0  0  0  0  0  0  0  0  0  0  0
  141.1220   71.9130  227.4710 Cl  0  0  0  0  0  0  0  0  0  0  0  0
  140.0070   69.7720  226.2210 C   0  0  0  0  0  0  0  0  0  0  0  0
  139.4930   70.6320  225.2730 C   0  0  0  0  0  0  0  0  0  0  0  0
  139.7680   71.8600  225.4380 O   0  0  0  0  0  0  0  0  0  0  0  0
  138.7410   70.2020  224.2260 N   0  0  0  0  0  0  0  0  0  0  0  0
  138.2170   71.1460  223.2600 C   0  0  0  0  0  0  0  0  0  0  0  0
  139.1310   71.4110  222.1070 C   0  0  0  0  0  0  0  0  0  0  0  0
  138.7980   72.6050  221.2790 C   0  0  0  0  0  0  0  0  0  0  0  0
  139.2190   73.9090  221.9280 C   0  0  0  0  0  0  0  0  0  0  0  0
  140.6650   73.9650  221.9100 N   0  0  0  0  0  0  0  0  0  0  0  0
  141.2930   72.6820  221.8830 C   0  0  0  0  0  0  0  0  0  0  0  0
  140.5460   71.6000  222.6210 C   0  0  0  0  0  0  0  0  0  0  0  0
  134.6230   70.3430  223.1170 C   0  0  0  0  0  0  0  0  0  0  0  0
  133.7190   70.9710  223.9160 C   0  0  0  0  0  0  0  0  0  0  0  0
  132.4575   73.1191  228.6131 H   0  0  0  0  0  0  0  0  0  0  0  0
  132.1040   74.4111  227.4163 H   0  0  0  0  0  0  0  0  0  0  0  0
  131.1365   72.8976  227.4163 H   0  0  0  0  0  0  0  0  0  0  0  0
  132.0420   70.8310  226.5130 H   0  0  0  0  0  0  0  0  0  0  0  0
  134.7926   69.7789  226.9145 H   0  0  0  0  0  0  0  0  0  0  0  0
  136.4121   68.6646  225.3999 H   0  0  0  0  0  0  0  0  0  0  0  0
  136.2550   68.8442  221.6353 H   0  0  0  0  0  0  0  0  0  0  0  0
  138.0562   67.4403  222.4849 H   0  0  0  0  0  0  0  0  0  0  0  0
  140.0087   66.4309  226.8964 H   0  0  0  0  0  0  0  0  0  0  0  0
  141.3992   67.2350  228.8279 H   0  0  0  0  0  0  0  0  0  0  0  0
  141.8660   69.6557  229.0485 H   0  0  0  0  0  0  0  0  0  0  0  0
  137.2706   70.7474  222.8659 H   0  0  0  0  0  0  0  0  0  0  0  0
  138.0883   72.1020  223.7887 H   0  0  0  0  0  0  0  0  0  0  0  0
  139.0161   70.5321  221.4556 H   0  0  0  0  0  0  0  0  0  0  0  0
  139.3102   72.5139  220.3098 H   0  0  0  0  0  0  0  0  0  0  0  0
  137.7044   72.6319  221.1632 H   0  0  0  0  0  0  0  0  0  0  0  0
  138.8045   74.7582  221.3649 H   0  0  0  0  0  0  0  0  0  0  0  0
  138.8450   73.9625  222.9611 H   0  0  0  0  0  0  0  0  0  0  0  0
  140.9580   74.4750  221.0400 H   0  0  0  0  0  0  0  0  0  0  0  0
  141.3953   72.3725  220.8324 H   0  0  0  0  0  0  0  0  0  0  0  0
  142.2593   72.7979  222.3956 H   0  0  0  0  0  0  0  0  0  0  0  0
  141.0925   70.6525  222.5041 H   0  0  0  0  0  0  0  0  0  0  0  0
  140.4787   71.9030  223.6763 H   0  0  0  0  0  0  0  0  0  0  0  0
  134.5671   70.5103  222.0312 H   0  0  0  0  0  0  0  0  0  0  0  0
  132.9524   71.6291  223.4809 H   0  0  0  0  0  0  0  0  0  0  0  0
  1  2  1  0
  2  3  2  0
  2  4  1  0
  4  5  1  0
  5  6  2  0
  6  7  1  0
  7  8  2  0
  8  9  1  0
  9 10  2  0
 10 11  1  0
 11 12  2  0
 12 13  1  0
 13 14  2  0
 14 15  1  0
 15 16  2  0
 16 17  1  0
 17 18  1  0
 17 19  2  0
 19 20  1  0
 20 21  2  0
 20 22  1  0
 22 23  1  0
 23 24  1  0
 24 25  1  0
 25 26  1  0
 26 27  1  0
 27 28  1  0
 28 29  1  0
  8 30  1  0
 30 31  2  0
 31  5  1  0
 22 11  1  0
 29 24  1  0
 19 13  1  0
  1 32  1  0
  1 33  1  0
  1 34  1  0
  4 35  1  0
  6 36  1  0
  7 37  1  0
  9 38  1  0
 10 39  1  0
 14 40  1  0
 15 41  1  0
 16 42  1  0
 23 43  1  0
 23 44  1  0
 24 45  1  0
 25 46  1  0
 25 47  1  0
 26 48  1  0
 26 49  1  0
 27 50  1  0
 28 51  1  0
 28 52  1  0
 29 53  1  0
 29 54  1  0
 30 55  1  0
 31 56  1  0
M  END
>  <smiles>  (49) 
CC(=O)Nc1ccc(/C=C/c2nc3cccc(Cl)c3c(=O)n2CC2CCNCC2)cc1

>  <score_type>  (49) 
oracle

>  <origin>  (49) 
autodockgpu

>  <m_score__min__energy>  (49) 
-8.9499999999999993

>  <m_primary>  (49) 
energy

>  <rmsd>  (49) 
11.157671778978608

>  <m_score__min__rmsd>  (49) 
11.157671778978608

>  <meeko>  (49) 
{"free_energy": -8.24, "intermolecular_energy": -10.03, "internal_energy": -1.43, "cluster_size": 17, "cluster_id": 3, "rank_in_cluster": 1}

>  <energy>  (49) 
-5.95

>  <cluster_rmsd>  (49) 
0.0

>  <cluster>  (49) 
8

$$$$

     RDKit          3D

 56 59  0  0  0  0  0  0  0  0999 V2000
  131.1170   72.6700  227.7110 C   0  0  0  0  0  0  0  0  0  0  0  0
  131.8980   71.9610  226.6680 C   0  0  0  0  0  0  0  0  0  0  0  0
  131.3680   71.7020  225.5510 O   0  0  0  0  0  0  0  0  0  0  0  0
  133.2320   71.5860  226.9480 N   0  0  0  0  0  0  0  0  0  0  0  0
  134.0060   70.9040  225.9680 C   0  0  0  0  0  0  0  0  0  0  0  0
  134.0630   69.5250  226.0690 C   0  0  0  0  0  0  0  0  0  0  0  0
  134.8120   68.8250  225.1270 C   0  0  0  0  0  0  0  0  0  0  0  0
  135.4910   69.4380  224.1080 C   0  0  0  0  0  0  0  0  0  0  0  0
  136.2720   68.7430  223.1220 C   0  0  0  0  0  0  0  0  0  0  0  0
  137.5820   68.8290  222.9850 C   0  0  0  0  0  0  0  0  0  0  0  0
  138.4150   69.2880  224.0930 C   0  0  0  0  0  0  0  0  0  0  0  0
  138.6680   68.4360  225.1020 N   0  0  0  0  0  0  0  0  0  0  0  0
  139.4120   68.7210  226.1820 C   0  0  0  0  0  0  0  0  0  0  0  0
  139.6330   67.7880  227.1910 C   0  0  0  0  0  0  0  0  0  0  0  0
  140.4160   68.1380  228.2930 C   0  0  0  0  0  0  0  0  0  0  0  0
  140.9490   69.4070  228.3480 C   0  0  0  0  0  0  0  0  0  0  0  0
  140.7260   70.3300  227.3420 C   0  0  0  0  0  0  0  0  0  0  0  0
  141.4240   71.9330  227.4530 Cl  0  0  0  0  0  0  0  0  0  0  0  0
  139.9530   69.9890  226.2500 C   0  0  0  0  0  0  0  0  0  0  0  0
  139.6950   70.8650  225.2170 C   0  0  0  0  0  0  0  0  0  0  0  0
  140.2170   72.0170  225.3290 O   0  0  0  0  0  0  0  0  0  0  0  0
  138.9340   70.5270  224.1440 N   0  0  0  0  0  0  0  0  0  0  0  0
  138.6850   71.4870  223.0860 C   0  0  0  0  0  0  0  0  0  0  0  0
  139.9200   72.1400  222.5510 C   0  0  0  0  0  0  0  0  0  0  0  0
  140.6530   71.3740  221.5030 C   0  0  0  0  0  0  0  0  0  0  0  0
  139.9990   71.4680  220.1390 C   0  0  0  0  0  0  0  0  0  0  0  0
  140.1750   72.8210  219.6560 N   0  0  0  0  0  0  0  0  0  0  0  0
  140.3270   73.7900  220.6940 C   0  0  0  0  0  0  0  0  0  0  0  0
  139.5580   73.4870  221.9560 C   0  0  0  0  0  0  0  0  0  0  0  0
  135.3950   70.8320  224.0600 C   0  0  0  0  0  0  0  0  0  0  0  0
  134.6760   71.5600  224.9570 C   0  0  0  0  0  0  0  0  0  0  0  0
  131.4639   72.3551  228.7063 H   0  0  0  0  0  0  0  0  0  0  0  0
  131.2577   73.7553  227.6001 H   0  0  0  0  0  0  0  0  0  0  0  0
  130.0503   72.4253  227.6001 H   0  0  0  0  0  0  0  0  0  0  0  0
  133.6810   71.7960  227.8730 H   0  0  0  0  0  0  0  0  0  0  0  0
  133.5303   68.9956  226.8728 H   0  0  0  0  0  0  0  0  0  0  0  0
  134.8606   67.7288  225.2049 H   0  0  0  0  0  0  0  0  0  0  0  0
  135.7337   68.0851  222.4239 H   0  0  0  0  0  0  0  0  0  0  0  0
  138.0499   68.5527  222.0286 H   0  0  0  0  0  0  0  0  0  0  0  0
  139.1939   66.7819  227.1208 H   0  0  0  0  0  0  0  0  0  0  0  0
  140.6033   67.4151  229.1007 H   0  0  0  0  0  0  0  0  0  0  0  0
  141.5665   69.6932  229.2122 H   0  0  0  0  0  0  0  0  0  0  0  0
  138.1833   70.9656  222.2575 H   0  0  0  0  0  0  0  0  0  0  0  0
  138.0669   72.2859  223.5215 H   0  0  0  0  0  0  0  0  0  0  0  0
  140.5930   72.2129  223.4181 H   0  0  0  0  0  0  0  0  0  0  0  0
  141.6765   71.7703  221.4297 H   0  0  0  0  0  0  0  0  0  0  0  0
  140.6448   70.3152  221.8011 H   0  0  0  0  0  0  0  0  0  0  0  0
  140.4750   70.7585  219.4462 H   0  0  0  0  0  0  0  0  0  0  0  0
  138.9293   71.2209  220.2080 H   0  0  0  0  0  0  0  0  0  0  0  0
  141.0500   72.8450  219.0750 H   0  0  0  0  0  0  0  0  0  0  0  0
  141.3949   73.8532  220.9502 H   0  0  0  0  0  0  0  0  0  0  0  0
  139.9200   74.7333  220.3008 H   0  0  0  0  0  0  0  0  0  0  0  0
  139.7758   74.2696  222.6976 H   0  0  0  0  0  0  0  0  0  0  0  0
  138.4894   73.4599  221.6963 H   0  0  0  0  0  0  0  0  0  0  0  0
  135.9264   71.3660  223.2584 H   0  0  0  0  0  0  0  0  0  0  0  0
  134.6299   72.6561  224.8768 H   0  0  0  0  0  0  0  0  0  0  0  0
  1  2  1  0
  2  3  2  0
  2  4  1  0
  4  5  1  0
  5  6  2  0
  6  7  1  0
  7  8  2  0
  8  9  1  0
  9 10  2  0
 10 11  1  0
 11 12  2  0
 12 13  1  0
 13 14  2  0
 14 15  1  0
 15 16  2  0
 16 17  1  0
 17 18  1  0
 17 19  2  0
 19 20  1  0
 20 21  2  0
 20 22  1  0
 22 23  1  0
 23 24  1  0
 24 25  1  0
 25 26  1  0
 26 27  1  0
 27 28  1  0
 28 29  1  0
  8 30  1  0
 30 31  2  0
 31  5  1  0
 22 11  1  0
 29 24  1  0
 19 13  1  0
  1 32  1  0
  1 33  1  0
  1 34  1  0
  4 35  1  0
  6 36  1  0
  7 37  1  0
  9 38  1  0
 10 39  1  0
 14 40  1  0
 15 41  1  0
 16 42  1  0
 23 43  1  0
 23 44  1  0
 24 45  1  0
 25 46  1  0
 25 47  1  0
 26 48  1  0
 26 49  1  0
 27 50  1  0
 28 51  1  0
 28 52  1  0
 29 53  1  0
 29 54  1  0
 30 55  1  0
 31 56  1  0
M  END
>  <smiles>  (50) 
CC(=O)Nc1ccc(/C=C/c2nc3cccc(Cl)c3c(=O)n2CC2CCNCC2)cc1

>  <score_type>  (50) 
oracle

>  <origin>  (50) 
autodockgpu

>  <m_score__min__energy>  (50) 
-8.9499999999999993

>  <m_primary>  (50) 
energy

>  <rmsd>  (50) 
11.129988087146973

>  <m_score__min__rmsd>  (50) 
11.129988087146973

>  <meeko>  (50) 
{"free_energy": -7.49, "intermolecular_energy": -9.28, "internal_energy": -1.76, "cluster_size": 17, "cluster_id": 3, "rank_in_cluster": 14}

>  <energy>  (50) 
-5.95

>  <cluster_rmsd>  (50) 
0.0

>  <cluster>  (50) 
9

$$$$
