
     RDKit          3D

 56 60  0  0  0  0  0  0  0  0999 V2000
  135.6250   75.3950  223.6200 O   0  0  0  0  0  0  0  0  0  0  0  0
  135.6930   74.1360  223.6000 C   0  0  0  0  0  0  0  0  0  0  0  0
  135.0080   73.4380  224.5720 C   0  0  0  0  0  0  0  0  0  0  0  0
  134.2830   74.1390  225.5160 C   0  0  0  0  0  0  0  0  0  0  0  0
  134.2120   75.8860  225.5100 Cl  0  0  0  0  0  0  0  0  0  0  0  0
  133.6070   73.3840  226.4790 C   0  0  0  0  0  0  0  0  0  0  0  0
  133.6700   72.0060  226.4720 C   0  0  0  0  0  0  0  0  0  0  0  0
  134.3990   71.3170  225.5230 C   0  0  0  0  0  0  0  0  0  0  0  0
  135.0660   72.0600  224.5740 C   0  0  0  0  0  0  0  0  0  0  0  0
  135.7980   71.4790  223.6130 N   0  0  0  0  0  0  0  0  0  0  0  0
  136.4650   72.1600  222.6650 C   0  0  0  0  0  0  0  0  0  0  0  0
  137.2290   71.4390  221.6540 C   0  0  0  0  0  0  0  0  0  0  0  0
  138.4980   71.1810  221.8810 C   0  0  0  0  0  0  0  0  0  0  0  0
  139.0850   71.0180  223.1980 C   0  0  0  0  0  0  0  0  0  0  0  0
  140.1360   71.8360  223.6160 C   0  0  0  0  0  0  0  0  0  0  0  0
  140.7180   71.7120  224.8580 C   0  0  0  0  0  0  0  0  0  0  0  0
  140.2890   70.7650  225.7560 C   0  0  0  0  0  0  0  0  0  0  0  0
  140.9620   70.6920  227.0650 C   0  0  0  0  0  0  0  0  0  0  0  0
  140.1530   70.7190  228.3250 C   0  0  0  0  0  0  0  0  0  0  0  0
  141.0550   71.8740  227.9540 C   0  0  0  0  0  0  0  0  0  0  0  0
  139.2570   69.9450  225.3710 C   0  0  0  0  0  0  0  0  0  0  0  0
  138.6670   70.0740  224.1130 C   0  0  0  0  0  0  0  0  0  0  0  0
  136.4280   73.5020  222.6390 N   0  0  0  0  0  0  0  0  0  0  0  0
  137.1080   74.3280  221.6940 C   0  0  0  0  0  0  0  0  0  0  0  0
  138.5520   74.5700  221.9510 C   0  0  0  0  0  0  0  0  0  0  0  0
  139.4720   74.3150  220.7890 C   0  0  0  0  0  0  0  0  0  0  0  0
  140.8910   74.4110  221.3660 C   0  0  0  0  0  0  0  0  0  0  0  0
  141.0230   75.5990  222.1680 N   0  0  0  0  0  0  0  0  0  0  0  0
  140.0160   76.6020  221.8950 C   0  0  0  0  0  0  0  0  0  0  0  0
  138.6910   76.0380  222.3640 C   0  0  0  0  0  0  0  0  0  0  0  0
  133.0166   73.8959  227.2532 H   0  0  0  0  0  0  0  0  0  0  0  0
  133.1251   71.4411  227.2427 H   0  0  0  0  0  0  0  0  0  0  0  0
  134.4453   70.2180  225.5248 H   0  0  0  0  0  0  0  0  0  0  0  0
  136.7517   71.1163  220.7170 H   0  0  0  0  0  0  0  0  0  0  0  0
  139.1625   71.0816  221.0100 H   0  0  0  0  0  0  0  0  0  0  0  0
  140.5130   72.6075  222.9285 H   0  0  0  0  0  0  0  0  0  0  0  0
  141.5427   72.3845  225.1365 H   0  0  0  0  0  0  0  0  0  0  0  0
  141.7022   70.0064  226.6268 H   0  0  0  0  0  0  0  0  0  0  0  0
  139.0600   70.8339  228.2778 H   0  0  0  0  0  0  0  0  0  0  0  0
  140.0421   70.0608  229.1993 H   0  0  0  0  0  0  0  0  0  0  0  0
  140.6186   72.8338  227.6403 H   0  0  0  0  0  0  0  0  0  0  0  0
  141.8766   72.4101  228.4516 H   0  0  0  0  0  0  0  0  0  0  0  0
  138.8897   69.1746  226.0649 H   0  0  0  0  0  0  0  0  0  0  0  0
  137.8408   69.4003  223.8418 H   0  0  0  0  0  0  0  0  0  0  0  0
  137.0184   73.8516  220.7066 H   0  0  0  0  0  0  0  0  0  0  0  0
  136.6273   75.3147  221.7669 H   0  0  0  0  0  0  0  0  0  0  0  0
  138.8601   73.8523  222.7255 H   0  0  0  0  0  0  0  0  0  0  0  0
  139.2939   73.3140  220.3692 H   0  0  0  0  0  0  0  0  0  0  0  0
  139.3116   75.0357  219.9736 H   0  0  0  0  0  0  0  0  0  0  0  0
  141.0898   73.5274  221.9903 H   0  0  0  0  0  0  0  0  0  0  0  0
  141.6129   74.4558  220.5372 H   0  0  0  0  0  0  0  0  0  0  0  0
  141.9720   76.0470  222.0630 H   0  0  0  0  0  0  0  0  0  0  0  0
  140.2472   77.5281  222.4418 H   0  0  0  0  0  0  0  0  0  0  0  0
  139.9825   76.8429  220.8222 H   0  0  0  0  0  0  0  0  0  0  0  0
  138.6346   76.1118  223.4601 H   0  0  0  0  0  0  0  0  0  0  0  0
  137.8769   76.6147  221.9007 H   0  0  0  0  0  0  0  0  0  0  0  0
  1  2  2  0
  2  3  1  0
  3  4  2  0
  4  5  1  0
  4  6  1  0
  6  7  2  0
  7  8  1  0
  8  9  2  0
  9 10  1  0
 10 11  2  0
 11 12  1  0
 12 13  2  0
 13 14  1  0
 14 15  2  0
 15 16  1  0
 16 17  2  0
 17 18  1  0
 18 19  1  0
 19 20  1  0
 17 21  1  0
 21 22  2  0
 11 23  1  0
 23 24  1  0
 24 25  1  0
 25 26  1  0
 26 27  1  0
 27 28  1  0
 28 29  1  0
 29 30  1  0
 23  2  1  0
 30 25  1  0
  9  3  1  0
 22 14  1  0
 20 18  1  0
  6 31  1  0
  7 32  1  0
  8 33  1  0
 12 34  1  0
 13 35  1  0
 15 36  1  0
 16 37  1  0
 18 38  1  0
 19 39  1  0
 19 40  1  0
 20 41  1  0
 20 42  1  0
 21 43  1  0
 22 44  1  0
 24 45  1  0
 24 46  1  0
 25 47  1  0
 26 48  1  0
 26 49  1  0
 27 50  1  0
 27 51  1  0
 28 52  1  0
 29 53  1  0
 29 54  1  0
 30 55  1  0
 30 56  1  0
M  END
>  <smiles>  (1) 
O=c1c2c(Cl)cccc2nc(/C=C/c2ccc(C3CC3)cc2)n1CC1CCNCC1

>  <score_type>  (1) 
oracle

>  <origin>  (1) 
autodockgpu

>  <m_score__min__energy>  (1) 
-8.9000000000000004

>  <m_primary>  (1) 
energy

>  <rmsd>  (1) 
8.80677557171682

>  <m_score__min__rmsd>  (1) 
8.80677557171682

>  <meeko>  (1) 
{"free_energy": -7.82, "intermolecular_energy": -9.61, "internal_energy": -2.21, "cluster_size": 13, "cluster_id": 6, "rank_in_cluster": 7}

>  <energy>  (1) 
-8.9

>  <cluster_rmsd>  (1) 
0.0

>  <cluster>  (1) 
1

$$$$

     RDKit          3D

 56 60  0  0  0  0  0  0  0  0999 V2000
  136.6770   77.5200  223.0980 O   0  0  0  0  0  0  0  0  0  0  0  0
  137.7030   76.8650  222.7700 C   0  0  0  0  0  0  0  0  0  0  0  0
  138.9020   77.5420  222.6900 C   0  0  0  0  0  0  0  0  0  0  0  0
  138.9290   78.8940  222.9680 C   0  0  0  0  0  0  0  0  0  0  0  0
  137.4850   79.7700  223.4200 Cl  0  0  0  0  0  0  0  0  0  0  0  0
  140.1690   79.5320  222.8720 C   0  0  0  0  0  0  0  0  0  0  0  0
  141.3010   78.8300  222.5160 C   0  0  0  0  0  0  0  0  0  0  0  0
  141.2620   77.4780  222.2390 C   0  0  0  0  0  0  0  0  0  0  0  0
  140.0400   76.8480  222.3340 C   0  0  0  0  0  0  0  0  0  0  0  0
  139.9030   75.5380  222.0840 N   0  0  0  0  0  0  0  0  0  0  0  0
  138.7340   74.8790  222.1640 C   0  0  0  0  0  0  0  0  0  0  0  0
  138.6850   73.4490  221.8830 C   0  0  0  0  0  0  0  0  0  0  0  0
  139.6990   72.6960  222.2500 C   0  0  0  0  0  0  0  0  0  0  0  0
  139.7100   71.8420  223.4240 C   0  0  0  0  0  0  0  0  0  0  0  0
  138.6890   70.9150  223.6400 C   0  0  0  0  0  0  0  0  0  0  0  0
  138.6640   70.0880  224.7410 C   0  0  0  0  0  0  0  0  0  0  0  0
  139.6540   70.1370  225.6920 C   0  0  0  0  0  0  0  0  0  0  0  0
  139.5580   69.2220  226.8430 C   0  0  0  0  0  0  0  0  0  0  0  0
  140.4910   69.3790  228.0040 C   0  0  0  0  0  0  0  0  0  0  0  0
  140.5830   68.1780  227.0890 C   0  0  0  0  0  0  0  0  0  0  0  0
  140.6710   71.0410  225.5060 C   0  0  0  0  0  0  0  0  0  0  0  0
  140.6950   71.8770  224.3890 C   0  0  0  0  0  0  0  0  0  0  0  0
  137.6100   75.5270  222.5070 N   0  0  0  0  0  0  0  0  0  0  0  0
  136.3140   74.9370  222.6070 C   0  0  0  0  0  0  0  0  0  0  0  0
  135.7440   74.8320  223.9770 C   0  0  0  0  0  0  0  0  0  0  0  0
  134.5420   75.6930  224.2500 C   0  0  0  0  0  0  0  0  0  0  0  0
  134.2950   75.5780  225.7600 C   0  0  0  0  0  0  0  0  0  0  0  0
  134.3230   74.1980  226.1650 N   0  0  0  0  0  0  0  0  0  0  0  0
  134.1280   73.2650  225.0760 C   0  0  0  0  0  0  0  0  0  0  0  0
  135.3460   73.3670  224.1810 C   0  0  0  0  0  0  0  0  0  0  0  0
  140.2427   80.6090  223.0834 H   0  0  0  0  0  0  0  0  0  0  0  0
  142.2617   79.3618  222.4509 H   0  0  0  0  0  0  0  0  0  0  0  0
  142.1697   76.9259  221.9540 H   0  0  0  0  0  0  0  0  0  0  0  0
  137.8157   73.0080  221.3733 H   0  0  0  0  0  0  0  0  0  0  0  0
  140.6027   72.7146  221.6231 H   0  0  0  0  0  0  0  0  0  0  0  0
  137.8747   70.8424  222.9040 H   0  0  0  0  0  0  0  0  0  0  0  0
  137.8354   69.3746  224.8611 H   0  0  0  0  0  0  0  0  0  0  0  0
  138.4655   69.2045  226.7163 H   0  0  0  0  0  0  0  0  0  0  0  0
  141.2743   70.1510  227.9830 H   0  0  0  0  0  0  0  0  0  0  0  0
  140.3749   69.5315  229.0872 H   0  0  0  0  0  0  0  0  0  0  0  0
  141.4367   68.0729  226.4034 H   0  0  0  0  0  0  0  0  0  0  0  0
  140.5640   67.0875  227.2323 H   0  0  0  0  0  0  0  0  0  0  0  0
  141.4793   71.1071  226.2492 H   0  0  0  0  0  0  0  0  0  0  0  0
  141.5269   72.5874  224.2742 H   0  0  0  0  0  0  0  0  0  0  0  0
  135.6226   75.5412  222.0013 H   0  0  0  0  0  0  0  0  0  0  0  0
  136.4346   73.9008  222.2582 H   0  0  0  0  0  0  0  0  0  0  0  0
  136.5182   75.1906  224.6712 H   0  0  0  0  0  0  0  0  0  0  0  0
  134.7452   76.7376  223.9714 H   0  0  0  0  0  0  0  0  0  0  0  0
  133.6669   75.3719  223.6660 H   0  0  0  0  0  0  0  0  0  0  0  0
  135.0783   76.1308  226.2993 H   0  0  0  0  0  0  0  0  0  0  0  0
  133.3070   76.0007  225.9950 H   0  0  0  0  0  0  0  0  0  0  0  0
  133.6100   73.9860  226.9120 H   0  0  0  0  0  0  0  0  0  0  0  0
  134.0321   72.2417  225.4680 H   0  0  0  0  0  0  0  0  0  0  0  0
  133.2100   73.5003  224.5175 H   0  0  0  0  0  0  0  0  0  0  0  0
  136.1832   72.8264  224.6468 H   0  0  0  0  0  0  0  0  0  0  0  0
  135.1052   72.9254  223.2027 H   0  0  0  0  0  0  0  0  0  0  0  0
  1  2  2  0
  2  3  1  0
  3  4  2  0
  4  5  1  0
  4  6  1  0
  6  7  2  0
  7  8  1  0
  8  9  2  0
  9 10  1  0
 10 11  2  0
 11 12  1  0
 12 13  2  0
 13 14  1  0
 14 15  2  0
 15 16  1  0
 16 17  2  0
 17 18  1  0
 18 19  1  0
 19 20  1  0
 17 21  1  0
 21 22  2  0
 11 23  1  0
 23 24  1  0
 24 25  1  0
 25 26  1  0
 26 27  1  0
 27 28  1  0
 28 29  1  0
 29 30  1  0
 23  2  1  0
 30 25  1  0
  9  3  1  0
 22 14  1  0
 20 18  1  0
  6 31  1  0
  7 32  1  0
  8 33  1  0
 12 34  1  0
 13 35  1  0
 15 36  1  0
 16 37  1  0
 18 38  1  0
 19 39  1  0
 19 40  1  0
 20 41  1  0
 20 42  1  0
 21 43  1  0
 22 44  1  0
 24 45  1  0
 24 46  1  0
 25 47  1  0
 26 48  1  0
 26 49  1  0
 27 50  1  0
 27 51  1  0
 28 52  1  0
 29 53  1  0
 29 54  1  0
 30 55  1  0
 30 56  1  0
M  END
>  <smiles>  (2) 
O=c1c2c(Cl)cccc2nc(/C=C/c2ccc(C3CC3)cc2)n1CC1CCNCC1

>  <score_type>  (2) 
oracle

>  <origin>  (2) 
autodockgpu

>  <m_score__min__energy>  (2) 
-8.9000000000000004

>  <m_primary>  (2) 
energy

>  <rmsd>  (2) 
6.412375103388779

>  <m_score__min__rmsd>  (2) 
6.412375103388779

>  <meeko>  (2) 
{"free_energy": -8.4, "intermolecular_energy": -10.19, "internal_energy": -1.52, "cluster_size": 5, "cluster_id": 4, "rank_in_cluster": 3}

>  <energy>  (2) 
-8.85

>  <cluster_rmsd>  (2) 
0.14

>  <cluster>  (2) 
1

$$$$

     RDKit          3D

 56 60  0  0  0  0  0  0  0  0999 V2000
  142.1000   75.6490  218.9880 O   0  0  0  0  0  0  0  0  0  0  0  0
  141.4500   75.5310  220.0610 C   0  0  0  0  0  0  0  0  0  0  0  0
  141.1900   76.6740  220.7870 C   0  0  0  0  0  0  0  0  0  0  0  0
  141.6480   77.8880  220.3140 C   0  0  0  0  0  0  0  0  0  0  0  0
  142.5470   78.0130  218.8190 Cl  0  0  0  0  0  0  0  0  0  0  0  0
  141.3580   79.0160  221.0880 C   0  0  0  0  0  0  0  0  0  0  0  0
  140.6480   78.9040  222.2640 C   0  0  0  0  0  0  0  0  0  0  0  0
  140.1960   77.6850  222.7280 C   0  0  0  0  0  0  0  0  0  0  0  0
  140.4810   76.5730  221.9650 C   0  0  0  0  0  0  0  0  0  0  0  0
  140.0830   75.3470  222.3340 N   0  0  0  0  0  0  0  0  0  0  0  0
  140.3350   74.2330  221.6260 C   0  0  0  0  0  0  0  0  0  0  0  0
  139.8520   72.9430  222.1040 C   0  0  0  0  0  0  0  0  0  0  0  0
  140.7110   72.1010  222.6350 C   0  0  0  0  0  0  0  0  0  0  0  0
  140.4170   71.2120  223.7440 C   0  0  0  0  0  0  0  0  0  0  0  0
  141.0430   71.3860  224.9810 C   0  0  0  0  0  0  0  0  0  0  0  0
  140.7910   70.5640  226.0560 C   0  0  0  0  0  0  0  0  0  0  0  0
  139.9020   69.5210  225.9640 C   0  0  0  0  0  0  0  0  0  0  0  0
  139.6860   68.6840  227.1580 C   0  0  0  0  0  0  0  0  0  0  0  0
  139.9110   69.2550  228.5240 C   0  0  0  0  0  0  0  0  0  0  0  0
  140.8210   68.1830  227.9680 C   0  0  0  0  0  0  0  0  0  0  0  0
  139.2730   69.3250  224.7590 C   0  0  0  0  0  0  0  0  0  0  0  0
  139.5290   70.1600  223.6710 C   0  0  0  0  0  0  0  0  0  0  0  0
  141.0240   74.3000  220.4760 N   0  0  0  0  0  0  0  0  0  0  0  0
  141.3650   73.1870  219.6510 C   0  0  0  0  0  0  0  0  0  0  0  0
  142.8050   72.8210  219.6020 C   0  0  0  0  0  0  0  0  0  0  0  0
  143.6130   73.1920  220.8150 C   0  0  0  0  0  0  0  0  0  0  0  0
  145.0730   72.9230  220.4280 C   0  0  0  0  0  0  0  0  0  0  0  0
  145.1970   71.6220  219.8260 N   0  0  0  0  0  0  0  0  0  0  0  0
  144.0920   70.7350  220.1190 C   0  0  0  0  0  0  0  0  0  0  0  0
  142.8720   71.3020  219.4220 C   0  0  0  0  0  0  0  0  0  0  0  0
  141.7012   80.0062  220.7537 H   0  0  0  0  0  0  0  0  0  0  0  0
  140.4357   79.8110  222.8490 H   0  0  0  0  0  0  0  0  0  0  0  0
  139.6313   77.6043  223.6685 H   0  0  0  0  0  0  0  0  0  0  0  0
  138.7874   72.6788  222.0218 H   0  0  0  0  0  0  0  0  0  0  0  0
  141.7244   72.0680  222.2085 H   0  0  0  0  0  0  0  0  0  0  0  0
  141.7628   72.2092  225.1000 H   0  0  0  0  0  0  0  0  0  0  0  0
  141.3119   70.7460  227.0076 H   0  0  0  0  0  0  0  0  0  0  0  0
  138.8431   68.1995  226.6434 H   0  0  0  0  0  0  0  0  0  0  0  0
  140.2770   70.2859  228.6388 H   0  0  0  0  0  0  0  0  0  0  0  0
  139.3040   69.3734  229.4337 H   0  0  0  0  0  0  0  0  0  0  0  0
  141.8534   68.4322  227.6815 H   0  0  0  0  0  0  0  0  0  0  0  0
  141.1550   67.1922  228.3098 H   0  0  0  0  0  0  0  0  0  0  0  0
  138.5567   68.4973  224.6500 H   0  0  0  0  0  0  0  0  0  0  0  0
  139.0044   69.9725  222.7225 H   0  0  0  0  0  0  0  0  0  0  0  0
  140.8093   72.3127  220.0209 H   0  0  0  0  0  0  0  0  0  0  0  0
  141.1041   73.4902  218.6263 H   0  0  0  0  0  0  0  0  0  0  0  0
  143.2494   73.3933  218.7744 H   0  0  0  0  0  0  0  0  0  0  0  0
  143.4698   74.2540  221.0631 H   0  0  0  0  0  0  0  0  0  0  0  0
  143.3109   72.6142  221.7009 H   0  0  0  0  0  0  0  0  0  0  0  0
  145.4055   73.6881  219.7110 H   0  0  0  0  0  0  0  0  0  0  0  0
  145.6965   72.9599  221.3335 H   0  0  0  0  0  0  0  0  0  0  0  0
  146.0920   71.1380  220.1030 H   0  0  0  0  0  0  0  0  0  0  0  0
  144.3078   69.7249  219.7407 H   0  0  0  0  0  0  0  0  0  0  0  0
  143.9253   70.6607  221.2037 H   0  0  0  0  0  0  0  0  0  0  0  0
  142.9273   71.0674  218.3487 H   0  0  0  0  0  0  0  0  0  0  0  0
  141.9705   70.8527  219.8641 H   0  0  0  0  0  0  0  0  0  0  0  0
  1  2  2  0
  2  3  1  0
  3  4  2  0
  4  5  1  0
  4  6  1  0
  6  7  2  0
  7  8  1  0
  8  9  2  0
  9 10  1  0
 10 11  2  0
 11 12  1  0
 12 13  2  0
 13 14  1  0
 14 15  2  0
 15 16  1  0
 16 17  2  0
 17 18  1  0
 18 19  1  0
 19 20  1  0
 17 21  1  0
 21 22  2  0
 11 23  1  0
 23 24  1  0
 24 25  1  0
 25 26  1  0
 26 27  1  0
 27 28  1  0
 28 29  1  0
 29 30  1  0
 23  2  1  0
 30 25  1  0
  9  3  1  0
 22 14  1  0
 20 18  1  0
  6 31  1  0
  7 32  1  0
  8 33  1  0
 12 34  1  0
 13 35  1  0
 15 36  1  0
 16 37  1  0
 18 38  1  0
 19 39  1  0
 19 40  1  0
 20 41  1  0
 20 42  1  0
 21 43  1  0
 22 44  1  0
 24 45  1  0
 24 46  1  0
 25 47  1  0
 26 48  1  0
 26 49  1  0
 27 50  1  0
 27 51  1  0
 28 52  1  0
 29 53  1  0
 29 54  1  0
 30 55  1  0
 30 56  1  0
M  END
>  <smiles>  (3) 
O=c1c2c(Cl)cccc2nc(/C=C/c2ccc(C3CC3)cc2)n1CC1CCNCC1

>  <score_type>  (3) 
oracle

>  <origin>  (3) 
autodockgpu

>  <m_score__min__energy>  (3) 
-8.9000000000000004

>  <m_primary>  (3) 
energy

>  <rmsd>  (3) 
5.271298512021665

>  <m_score__min__rmsd>  (3) 
5.271298512021665

>  <meeko>  (3) 
{"free_energy": -8.32, "intermolecular_energy": -10.11, "internal_energy": -1.47, "cluster_size": 12, "cluster_id": 1, "rank_in_cluster": 11}

>  <energy>  (3) 
-8.82

>  <cluster_rmsd>  (3) 
0.67

>  <cluster>  (3) 
1

$$$$

     RDKit          3D

 56 60  0  0  0  0  0  0  0  0999 V2000
  140.2600   71.8750  225.1900 O   0  0  0  0  0  0  0  0  0  0  0  0
  139.7890   70.7060  225.1730 C   0  0  0  0  0  0  0  0  0  0  0  0
  140.0350   69.8960  226.2620 C   0  0  0  0  0  0  0  0  0  0  0  0
  140.7800   70.3920  227.3130 C   0  0  0  0  0  0  0  0  0  0  0  0
  141.4160   72.0220  227.3010 Cl  0  0  0  0  0  0  0  0  0  0  0  0
  141.0010   69.5310  228.3910 C   0  0  0  0  0  0  0  0  0  0  0  0
  140.4930   68.2490  228.3890 C   0  0  0  0  0  0  0  0  0  0  0  0
  139.7510   67.7620  227.3310 C   0  0  0  0  0  0  0  0  0  0  0  0
  139.5320   68.6120  226.2690 C   0  0  0  0  0  0  0  0  0  0  0  0
  138.8230   68.2290  225.1970 N   0  0  0  0  0  0  0  0  0  0  0  0
  138.5820   69.0190  224.1370 C   0  0  0  0  0  0  0  0  0  0  0  0
  137.7900   68.5170  223.0210 C   0  0  0  0  0  0  0  0  0  0  0  0
  136.5100   68.8140  222.9660 C   0  0  0  0  0  0  0  0  0  0  0  0
  135.7820   69.5200  224.0040 C   0  0  0  0  0  0  0  0  0  0  0  0
  135.6860   70.9130  223.9840 C   0  0  0  0  0  0  0  0  0  0  0  0
  135.0050   71.6190  224.9500 C   0  0  0  0  0  0  0  0  0  0  0  0
  134.3790   70.9810  225.9920 C   0  0  0  0  0  0  0  0  0  0  0  0
  133.6700   71.8040  226.9880 C   0  0  0  0  0  0  0  0  0  0  0  0
  132.1790   71.9310  226.9290 C   0  0  0  0  0  0  0  0  0  0  0  0
  133.0730   73.1120  226.6270 C   0  0  0  0  0  0  0  0  0  0  0  0
  134.4570   69.6100  226.0380 C   0  0  0  0  0  0  0  0  0  0  0  0
  135.1480   68.8970  225.0570 C   0  0  0  0  0  0  0  0  0  0  0  0
  139.0600   70.2730  224.1020 N   0  0  0  0  0  0  0  0  0  0  0  0
  138.8820   71.1950  223.0260 C   0  0  0  0  0  0  0  0  0  0  0  0
  140.1220   71.7750  222.4470 C   0  0  0  0  0  0  0  0  0  0  0  0
  140.5530   71.2030  221.1240 C   0  0  0  0  0  0  0  0  0  0  0  0
  141.9460   71.7920  220.8620 C   0  0  0  0  0  0  0  0  0  0  0  0
  141.9360   73.2130  221.0850 N   0  0  0  0  0  0  0  0  0  0  0  0
  140.6130   73.7990  221.0540 C   0  0  0  0  0  0  0  0  0  0  0  0
  139.8680   73.2740  222.2640 C   0  0  0  0  0  0  0  0  0  0  0  0
  141.5882   69.8805  229.2530 H   0  0  0  0  0  0  0  0  0  0  0  0
  140.6840   67.5965  229.2537 H   0  0  0  0  0  0  0  0  0  0  0  0
  139.3511   66.7373  227.3359 H   0  0  0  0  0  0  0  0  0  0  0  0
  138.2551   67.9001  222.2380 H   0  0  0  0  0  0  0  0  0  0  0  0
  135.9518   68.5054  222.0698 H   0  0  0  0  0  0  0  0  0  0  0  0
  136.1721   71.4662  223.1669 H   0  0  0  0  0  0  0  0  0  0  0  0
  134.9616   72.7163  224.8856 H   0  0  0  0  0  0  0  0  0  0  0  0
  134.3967   71.4802  227.7476 H   0  0  0  0  0  0  0  0  0  0  0  0
  131.6144   71.4441  226.1202 H   0  0  0  0  0  0  0  0  0  0  0  0
  131.3479   71.7345  227.6223 H   0  0  0  0  0  0  0  0  0  0  0  0
  133.1567   73.4893  225.5971 H   0  0  0  0  0  0  0  0  0  0  0  0
  133.1606   74.1393  227.0105 H   0  0  0  0  0  0  0  0  0  0  0  0
  133.9678   69.0665  226.8598 H   0  0  0  0  0  0  0  0  0  0  0  0
  135.1878   67.7999  225.1269 H   0  0  0  0  0  0  0  0  0  0  0  0
  138.3484   70.6707  222.2196 H   0  0  0  0  0  0  0  0  0  0  0  0
  138.3316   72.0454  223.4549 H   0  0  0  0  0  0  0  0  0  0  0  0
  140.9386   71.5365  223.1443 H   0  0  0  0  0  0  0  0  0  0  0  0
  140.6025   70.1054  221.1767 H   0  0  0  0  0  0  0  0  0  0  0  0
  139.8449   71.4516  220.3197 H   0  0  0  0  0  0  0  0  0  0  0  0
  142.6723   71.3229  221.5420 H   0  0  0  0  0  0  0  0  0  0  0  0
  142.2274   71.5953  219.8170 H   0  0  0  0  0  0  0  0  0  0  0  0
  142.5420   73.7290  220.3930 H   0  0  0  0  0  0  0  0  0  0  0  0
  140.6843   74.8957  221.1007 H   0  0  0  0  0  0  0  0  0  0  0  0
  140.0880   73.5344  220.1243 H   0  0  0  0  0  0  0  0  0  0  0  0
  140.2116   73.8107  223.1606 H   0  0  0  0  0  0  0  0  0  0  0  0
  138.7903   73.4345  222.1131 H   0  0  0  0  0  0  0  0  0  0  0  0
  1  2  2  0
  2  3  1  0
  3  4  2  0
  4  5  1  0
  4  6  1  0
  6  7  2  0
  7  8  1  0
  8  9  2  0
  9 10  1  0
 10 11  2  0
 11 12  1  0
 12 13  2  0
 13 14  1  0
 14 15  2  0
 15 16  1  0
 16 17  2  0
 17 18  1  0
 18 19  1  0
 19 20  1  0
 17 21  1  0
 21 22  2  0
 11 23  1  0
 23 24  1  0
 24 25  1  0
 25 26  1  0
 26 27  1  0
 27 28  1  0
 28 29  1  0
 29 30  1  0
 23  2  1  0
 30 25  1  0
  9  3  1  0
 22 14  1  0
 20 18  1  0
  6 31  1  0
  7 32  1  0
  8 33  1  0
 12 34  1  0
 13 35  1  0
 15 36  1  0
 16 37  1  0
 18 38  1  0
 19 39  1  0
 19 40  1  0
 20 41  1  0
 20 42  1  0
 21 43  1  0
 22 44  1  0
 24 45  1  0
 24 46  1  0
 25 47  1  0
 26 48  1  0
 26 49  1  0
 27 50  1  0
 27 51  1  0
 28 52  1  0
 29 53  1  0
 29 54  1  0
 30 55  1  0
 30 56  1  0
M  END
>  <smiles>  (4) 
O=c1c2c(Cl)cccc2nc(/C=C/c2ccc(C3CC3)cc2)n1CC1CCNCC1

>  <score_type>  (4) 
oracle

>  <origin>  (4) 
autodockgpu

>  <m_score__min__energy>  (4) 
-8.9000000000000004

>  <m_primary>  (4) 
energy

>  <rmsd>  (4) 
11.211831123298532

>  <m_score__min__rmsd>  (4) 
11.211831123298532

>  <meeko>  (4) 
{"free_energy": -8.24, "intermolecular_energy": -10.03, "internal_energy": -1.82, "cluster_size": 12, "cluster_id": 5, "rank_in_cluster": 4}

>  <energy>  (4) 
-8.8

>  <cluster_rmsd>  (4) 
0.21

>  <cluster>  (4) 
1

$$$$

     RDKit          3D

 56 60  0  0  0  0  0  0  0  0999 V2000
  140.3580   71.8860  225.1280 O   0  0  0  0  0  0  0  0  0  0  0  0
  139.9450   70.6950  225.1050 C   0  0  0  0  0  0  0  0  0  0  0  0
  140.1990   69.9030  226.2040 C   0  0  0  0  0  0  0  0  0  0  0  0
  140.8880   70.4400  227.2740 C   0  0  0  0  0  0  0  0  0  0  0  0
  141.4440   72.0980  227.2710 Cl  0  0  0  0  0  0  0  0  0  0  0  0
  141.1190   69.5950  228.3630 C   0  0  0  0  0  0  0  0  0  0  0  0
  140.6750   68.2900  228.3540 C   0  0  0  0  0  0  0  0  0  0  0  0
  139.9880   67.7630  227.2780 C   0  0  0  0  0  0  0  0  0  0  0  0
  139.7600   68.5960  226.2050 C   0  0  0  0  0  0  0  0  0  0  0  0
  139.1010   68.1740  225.1160 N   0  0  0  0  0  0  0  0  0  0  0  0
  138.8530   68.9470  224.0440 C   0  0  0  0  0  0  0  0  0  0  0  0
  138.1190   68.4010  222.9090 C   0  0  0  0  0  0  0  0  0  0  0  0
  136.8270   68.6300  222.8180 C   0  0  0  0  0  0  0  0  0  0  0  0
  136.0990   69.5850  223.6330 C   0  0  0  0  0  0  0  0  0  0  0  0
  135.5790   69.2110  224.8740 C   0  0  0  0  0  0  0  0  0  0  0  0
  134.8830   70.0880  225.6760 C   0  0  0  0  0  0  0  0  0  0  0  0
  134.6640   71.3880  225.2900 C   0  0  0  0  0  0  0  0  0  0  0  0
  133.9090   72.2670  226.2010 C   0  0  0  0  0  0  0  0  0  0  0  0
  133.1640   71.6800  227.3600 C   0  0  0  0  0  0  0  0  0  0  0  0
  132.4270   72.3000  226.1940 C   0  0  0  0  0  0  0  0  0  0  0  0
  135.1630   71.7830  224.0730 C   0  0  0  0  0  0  0  0  0  0  0  0
  135.8690   70.8930  223.2630 C   0  0  0  0  0  0  0  0  0  0  0  0
  139.2690   70.2220  224.0150 N   0  0  0  0  0  0  0  0  0  0  0  0
  139.0780   71.1290  222.9300 C   0  0  0  0  0  0  0  0  0  0  0  0
  140.3070   71.7510  222.3680 C   0  0  0  0  0  0  0  0  0  0  0  0
  140.7960   71.1690  221.0710 C   0  0  0  0  0  0  0  0  0  0  0  0
  142.1690   71.8120  220.8300 C   0  0  0  0  0  0  0  0  0  0  0  0
  142.0920   73.2360  221.0200 N   0  0  0  0  0  0  0  0  0  0  0  0
  140.7460   73.7630  220.9430 C   0  0  0  0  0  0  0  0  0  0  0  0
  139.9930   73.2330  222.1460 C   0  0  0  0  0  0  0  0  0  0  0  0
  141.6628   69.9767  229.2397 H   0  0  0  0  0  0  0  0  0  0  0  0
  140.8732   67.6512  229.2273 H   0  0  0  0  0  0  0  0  0  0  0  0
  139.6372   66.7204  227.2779 H   0  0  0  0  0  0  0  0  0  0  0  0
  138.6371   67.8074  222.1414 H   0  0  0  0  0  0  0  0  0  0  0  0
  136.2579   68.0570  222.0712 H   0  0  0  0  0  0  0  0  0  0  0  0
  135.7307   68.1791  225.2234 H   0  0  0  0  0  0  0  0  0  0  0  0
  134.4948   69.7406  226.6448 H   0  0  0  0  0  0  0  0  0  0  0  0
  134.6897   73.0327  226.0812 H   0  0  0  0  0  0  0  0  0  0  0  0
  133.1445   70.5904  227.5099 H   0  0  0  0  0  0  0  0  0  0  0  0
  133.1699   71.8260  228.4503 H   0  0  0  0  0  0  0  0  0  0  0  0
  131.8659   71.6615  225.4958 H   0  0  0  0  0  0  0  0  0  0  0  0
  131.6671   73.0877  226.0844 H   0  0  0  0  0  0  0  0  0  0  0  0
  135.0037   72.8165  223.7317 H   0  0  0  0  0  0  0  0  0  0  0  0
  136.2554   71.2471  222.2959 H   0  0  0  0  0  0  0  0  0  0  0  0
  138.5786   70.5801  222.1180 H   0  0  0  0  0  0  0  0  0  0  0  0
  138.4900   71.9617  223.3433 H   0  0  0  0  0  0  0  0  0  0  0  0
  141.1159   71.5646  223.0898 H   0  0  0  0  0  0  0  0  0  0  0  0
  140.8912   70.0760  221.1508 H   0  0  0  0  0  0  0  0  0  0  0  0
  140.0991   71.3684  220.2436 H   0  0  0  0  0  0  0  0  0  0  0  0
  142.8971   71.3899  221.5384 H   0  0  0  0  0  0  0  0  0  0  0  0
  142.4856   71.6047  219.7972 H   0  0  0  0  0  0  0  0  0  0  0  0
  142.6930   73.7630  220.3320 H   0  0  0  0  0  0  0  0  0  0  0  0
  140.7690   74.8625  220.9661 H   0  0  0  0  0  0  0  0  0  0  0  0
  140.2570   73.4551  220.0070 H   0  0  0  0  0  0  0  0  0  0  0  0
  140.2902   73.8032  223.0385 H   0  0  0  0  0  0  0  0  0  0  0  0
  138.9135   73.3438  221.9658 H   0  0  0  0  0  0  0  0  0  0  0  0
  1  2  2  0
  2  3  1  0
  3  4  2  0
  4  5  1  0
  4  6  1  0
  6  7  2  0
  7  8  1  0
  8  9  2  0
  9 10  1  0
 10 11  2  0
 11 12  1  0
 12 13  2  0
 13 14  1  0
 14 15  2  0
 15 16  1  0
 16 17  2  0
 17 18  1  0
 18 19  1  0
 19 20  1  0
 17 21  1  0
 21 22  2  0
 11 23  1  0
 23 24  1  0
 24 25  1  0
 25 26  1  0
 26 27  1  0
 27 28  1  0
 28 29  1  0
 29 30  1  0
 23  2  1  0
 30 25  1  0
  9  3  1  0
 22 14  1  0
 20 18  1  0
  6 31  1  0
  7 32  1  0
  8 33  1  0
 12 34  1  0
 13 35  1  0
 15 36  1  0
 16 37  1  0
 18 38  1  0
 19 39  1  0
 19 40  1  0
 20 41  1  0
 20 42  1  0
 21 43  1  0
 22 44  1  0
 24 45  1  0
 24 46  1  0
 25 47  1  0
 26 48  1  0
 26 49  1  0
 27 50  1  0
 27 51  1  0
 28 52  1  0
 29 53  1  0
 29 54  1  0
 30 55  1  0
 30 56  1  0
M  END
>  <smiles>  (5) 
O=c1c2c(Cl)cccc2nc(/C=C/c2ccc(C3CC3)cc2)n1CC1CCNCC1

>  <score_type>  (5) 
oracle

>  <origin>  (5) 
autodockgpu

>  <m_score__min__energy>  (5) 
-8.9000000000000004

>  <m_primary>  (5) 
energy

>  <rmsd>  (5) 
11.18494630262569

>  <m_score__min__rmsd>  (5) 
11.18494630262569

>  <meeko>  (5) 
{"free_energy": -8.06, "intermolecular_energy": -9.85, "internal_energy": -1.84, "cluster_size": 12, "cluster_id": 5, "rank_in_cluster": 7}

>  <energy>  (5) 
-8.8

>  <cluster_rmsd>  (5) 
0.69

>  <cluster>  (5) 
1

$$$$

     RDKit          3D

 56 60  0  0  0  0  0  0  0  0999 V2000
  141.1800   76.4180  222.3150 O   0  0  0  0  0  0  0  0  0  0  0  0
  140.1140   75.7810  222.1010 C   0  0  0  0  0  0  0  0  0  0  0  0
  138.9190   76.4500  222.2660 C   0  0  0  0  0  0  0  0  0  0  0  0
  138.9390   77.7750  222.6550 C   0  0  0  0  0  0  0  0  0  0  0  0
  140.4390   78.6260  222.9430 Cl  0  0  0  0  0  0  0  0  0  0  0  0
  137.7010   78.4060  222.8080 C   0  0  0  0  0  0  0  0  0  0  0  0
  136.5250   77.7230  222.5770 C   0  0  0  0  0  0  0  0  0  0  0  0
  136.5170   76.3980  222.1890 C   0  0  0  0  0  0  0  0  0  0  0  0
  137.7370   75.7760  222.0380 C   0  0  0  0  0  0  0  0  0  0  0  0
  137.8290   74.4920  221.6630 N   0  0  0  0  0  0  0  0  0  0  0  0
  138.9940   73.8410  221.5020 C   0  0  0  0  0  0  0  0  0  0  0  0
  138.9940   72.4450  221.0820 C   0  0  0  0  0  0  0  0  0  0  0  0
  138.5460   71.5320  221.9150 C   0  0  0  0  0  0  0  0  0  0  0  0
  139.1350   71.2330  223.2080 C   0  0  0  0  0  0  0  0  0  0  0  0
  138.5520   70.2880  224.0540 C   0  0  0  0  0  0  0  0  0  0  0  0
  139.0810   69.9770  225.2870 C   0  0  0  0  0  0  0  0  0  0  0  0
  140.2200   70.5890  225.7500 C   0  0  0  0  0  0  0  0  0  0  0  0
  140.7250   70.2050  227.0800 C   0  0  0  0  0  0  0  0  0  0  0  0
  139.8320   70.3060  228.2780 C   0  0  0  0  0  0  0  0  0  0  0  0
  141.0250   71.2210  228.1170 C   0  0  0  0  0  0  0  0  0  0  0  0
  140.8150   71.5240  224.9380 C   0  0  0  0  0  0  0  0  0  0  0  0
  140.2780   71.8370  223.6890 C   0  0  0  0  0  0  0  0  0  0  0  0
  140.1600   74.4710  221.7170 N   0  0  0  0  0  0  0  0  0  0  0  0
  141.4530   73.8790  221.5930 C   0  0  0  0  0  0  0  0  0  0  0  0
  142.1870   74.1610  220.3310 C   0  0  0  0  0  0  0  0  0  0  0  0
  142.5850   75.5950  220.1170 C   0  0  0  0  0  0  0  0  0  0  0  0
  143.1080   75.6600  218.6750 C   0  0  0  0  0  0  0  0  0  0  0  0
  144.0390   74.5900  218.4350 N   0  0  0  0  0  0  0  0  0  0  0  0
  144.5910   74.0140  219.6430 C   0  0  0  0  0  0  0  0  0  0  0  0
  143.4560   73.3050  220.3540 C   0  0  0  0  0  0  0  0  0  0  0  0
  137.6641   79.4612  223.1167 H   0  0  0  0  0  0  0  0  0  0  0  0
  135.5672   78.2485  222.7055 H   0  0  0  0  0  0  0  0  0  0  0  0
  135.5745   75.8606  222.0077 H   0  0  0  0  0  0  0  0  0  0  0  0
  139.3625   72.1605  220.0854 H   0  0  0  0  0  0  0  0  0  0  0  0
  137.6616   70.9531  221.6106 H   0  0  0  0  0  0  0  0  0  0  0  0
  137.6375   69.7734  223.7241 H   0  0  0  0  0  0  0  0  0  0  0  0
  138.5813   69.2234  225.9134 H   0  0  0  0  0  0  0  0  0  0  0  0
  141.3089   69.4017  226.6069 H   0  0  0  0  0  0  0  0  0  0  0  0
  138.8119   70.7045  228.1750 H   0  0  0  0  0  0  0  0  0  0  0  0
  139.4776   69.6094  229.0521 H   0  0  0  0  0  0  0  0  0  0  0  0
  140.8738   72.2889  227.9007 H   0  0  0  0  0  0  0  0  0  0  0  0
  141.9030   71.4697  228.7313 H   0  0  0  0  0  0  0  0  0  0  0  0
  141.7287   72.0336  225.2779 H   0  0  0  0  0  0  0  0  0  0  0  0
  140.7830   72.5907  223.0670 H   0  0  0  0  0  0  0  0  0  0  0  0
  142.0698   74.2425  222.4281 H   0  0  0  0  0  0  0  0  0  0  0  0
  141.2804   72.7926  221.5961 H   0  0  0  0  0  0  0  0  0  0  0  0
  141.4998   73.9263  219.5047 H   0  0  0  0  0  0  0  0  0  0  0  0
  141.7166   76.2586  220.2421 H   0  0  0  0  0  0  0  0  0  0  0  0
  143.3435   75.9226  220.8432 H   0  0  0  0  0  0  0  0  0  0  0  0
  142.2623   75.5690  217.9774 H   0  0  0  0  0  0  0  0  0  0  0  0
  143.6196   76.6217  218.5220 H   0  0  0  0  0  0  0  0  0  0  0  0
  144.8390   74.8880  217.8160 H   0  0  0  0  0  0  0  0  0  0  0  0
  145.3856   73.2964  219.3906 H   0  0  0  0  0  0  0  0  0  0  0  0
  145.0306   74.7924  220.2839 H   0  0  0  0  0  0  0  0  0  0  0  0
  143.2556   72.3480  219.8501 H   0  0  0  0  0  0  0  0  0  0  0  0
  143.7471   73.1307  221.4004 H   0  0  0  0  0  0  0  0  0  0  0  0
  1  2  2  0
  2  3  1  0
  3  4  2  0
  4  5  1  0
  4  6  1  0
  6  7  2  0
  7  8  1  0
  8  9  2  0
  9 10  1  0
 10 11  2  0
 11 12  1  0
 12 13  2  0
 13 14  1  0
 14 15  2  0
 15 16  1  0
 16 17  2  0
 17 18  1  0
 18 19  1  0
 19 20  1  0
 17 21  1  0
 21 22  2  0
 11 23  1  0
 23 24  1  0
 24 25  1  0
 25 26  1  0
 26 27  1  0
 27 28  1  0
 28 29  1  0
 29 30  1  0
 23  2  1  0
 30 25  1  0
  9  3  1  0
 22 14  1  0
 20 18  1  0
  6 31  1  0
  7 32  1  0
  8 33  1  0
 12 34  1  0
 13 35  1  0
 15 36  1  0
 16 37  1  0
 18 38  1  0
 19 39  1  0
 19 40  1  0
 20 41  1  0
 20 42  1  0
 21 43  1  0
 22 44  1  0
 24 45  1  0
 24 46  1  0
 25 47  1  0
 26 48  1  0
 26 49  1  0
 27 50  1  0
 27 51  1  0
 28 52  1  0
 29 53  1  0
 29 54  1  0
 30 55  1  0
 30 56  1  0
M  END
>  <smiles>  (6) 
O=c1c2c(Cl)cccc2nc(/C=C/c2ccc(C3CC3)cc2)n1CC1CCNCC1

>  <score_type>  (6) 
oracle

>  <origin>  (6) 
autodockgpu

>  <m_score__min__energy>  (6) 
-8.9000000000000004

>  <m_primary>  (6) 
energy

>  <rmsd>  (6) 
4.520625379356415

>  <m_score__min__rmsd>  (6) 
4.520625379356415

>  <meeko>  (6) 
{"free_energy": -7.72, "intermolecular_energy": -9.51, "internal_energy": -1.46, "cluster_size": 1, "cluster_id": 7, "rank_in_cluster": 1}

>  <energy>  (6) 
-8.78

>  <cluster_rmsd>  (6) 
0.75

>  <cluster>  (6) 
1

$$$$

     RDKit          3D

 56 60  0  0  0  0  0  0  0  0999 V2000
  140.3090   71.9260  225.2410 O   0  0  0  0  0  0  0  0  0  0  0  0
  139.8690   70.7470  225.1640 C   0  0  0  0  0  0  0  0  0  0  0  0
  140.1230   69.8950  226.2180 C   0  0  0  0  0  0  0  0  0  0  0  0
  140.8390   70.3610  227.3020 C   0  0  0  0  0  0  0  0  0  0  0  0
  141.4330   72.0050  227.3730 Cl  0  0  0  0  0  0  0  0  0  0  0  0
  141.0690   69.4570  228.3430 C   0  0  0  0  0  0  0  0  0  0  0  0
  140.5940   68.1640  228.2740 C   0  0  0  0  0  0  0  0  0  0  0  0
  139.8800   67.7070  227.1850 C   0  0  0  0  0  0  0  0  0  0  0  0
  139.6530   68.5990  226.1590 C   0  0  0  0  0  0  0  0  0  0  0  0
  138.9690   68.2480  225.0610 N   0  0  0  0  0  0  0  0  0  0  0  0
  138.7210   69.0790  224.0350 C   0  0  0  0  0  0  0  0  0  0  0  0
  137.9580   68.6080  222.8850 C   0  0  0  0  0  0  0  0  0  0  0  0
  136.6650   68.8450  222.8410 C   0  0  0  0  0  0  0  0  0  0  0  0
  135.9250   69.5750  223.8540 C   0  0  0  0  0  0  0  0  0  0  0  0
  135.3660   68.9080  224.9460 C   0  0  0  0  0  0  0  0  0  0  0  0
  134.6570   69.5660  225.9270 C   0  0  0  0  0  0  0  0  0  0  0  0
  134.4640   70.9240  225.8780 C   0  0  0  0  0  0  0  0  0  0  0  0
  133.6930   71.5570  226.9640 C   0  0  0  0  0  0  0  0  0  0  0  0
  132.2200   71.7740  226.8080 C   0  0  0  0  0  0  0  0  0  0  0  0
  133.1800   72.9420  226.8430 C   0  0  0  0  0  0  0  0  0  0  0  0
  135.0020   71.6060  224.8140 C   0  0  0  0  0  0  0  0  0  0  0  0
  135.7200   70.9390  223.8220 C   0  0  0  0  0  0  0  0  0  0  0  0
  139.1660   70.3450  224.0630 N   0  0  0  0  0  0  0  0  0  0  0  0
  138.9790   71.3100  223.0280 C   0  0  0  0  0  0  0  0  0  0  0  0
  140.2150   71.8580  222.4080 C   0  0  0  0  0  0  0  0  0  0  0  0
  140.6940   71.1470  221.1730 C   0  0  0  0  0  0  0  0  0  0  0  0
  142.0740   71.7450  220.8700 C   0  0  0  0  0  0  0  0  0  0  0  0
  142.0170   73.1810  220.9220 N   0  0  0  0  0  0  0  0  0  0  0  0
  140.6790   73.7170  220.7950 C   0  0  0  0  0  0  0  0  0  0  0  0
  139.9210   73.3160  222.0440 C   0  0  0  0  0  0  0  0  0  0  0  0
  141.6359   69.7809  229.2283 H   0  0  0  0  0  0  0  0  0  0  0  0
  140.7898   67.4775  229.1108 H   0  0  0  0  0  0  0  0  0  0  0  0
  139.5073   66.6731  227.1377 H   0  0  0  0  0  0  0  0  0  0  0  0
  138.4552   68.0639  222.0684 H   0  0  0  0  0  0  0  0  0  0  0  0
  136.1047   68.4628  221.9750 H   0  0  0  0  0  0  0  0  0  0  0  0
  135.4963   67.8187  225.0258 H   0  0  0  0  0  0  0  0  0  0  0  0
  134.2373   68.9917  226.7661 H   0  0  0  0  0  0  0  0  0  0  0  0
  134.3330   71.0415  227.6952 H   0  0  0  0  0  0  0  0  0  0  0  0
  131.7173   71.4997  225.8689 H   0  0  0  0  0  0  0  0  0  0  0  0
  131.3209   71.4815  227.3702 H   0  0  0  0  0  0  0  0  0  0  0  0
  133.3737   73.5224  225.9289 H   0  0  0  0  0  0  0  0  0  0  0  0
  133.2675   73.8592  227.4438 H   0  0  0  0  0  0  0  0  0  0  0  0
  134.8643   72.6951  224.7433 H   0  0  0  0  0  0  0  0  0  0  0  0
  136.1369   71.5198  222.9860 H   0  0  0  0  0  0  0  0  0  0  0  0
  138.3858   70.8369  222.2316 H   0  0  0  0  0  0  0  0  0  0  0  0
  138.4877   72.1674  223.5112 H   0  0  0  0  0  0  0  0  0  0  0  0
  141.0223   71.7310  223.1443 H   0  0  0  0  0  0  0  0  0  0  0  0
  140.7750   70.0657  221.3581 H   0  0  0  0  0  0  0  0  0  0  0  0
  139.9981   71.2749  220.3307 H   0  0  0  0  0  0  0  0  0  0  0  0
  142.7980   71.3832  221.6149 H   0  0  0  0  0  0  0  0  0  0  0  0
  142.3851   71.4351  219.8614 H   0  0  0  0  0  0  0  0  0  0  0  0
  142.6240   73.6320  220.1860 H   0  0  0  0  0  0  0  0  0  0  0  0
  140.7174   74.8132  220.7120 H   0  0  0  0  0  0  0  0  0  0  0  0
  140.1839   73.3275  219.8932 H   0  0  0  0  0  0  0  0  0  0  0  0
  140.2276   73.9655  222.8771 H   0  0  0  0  0  0  0  0  0  0  0  0
  138.8428   73.4237  221.8545 H   0  0  0  0  0  0  0  0  0  0  0  0
  1  2  2  0
  2  3  1  0
  3  4  2  0
  4  5  1  0
  4  6  1  0
  6  7  2  0
  7  8  1  0
  8  9  2  0
  9 10  1  0
 10 11  2  0
 11 12  1  0
 12 13  2  0
 13 14  1  0
 14 15  2  0
 15 16  1  0
 16 17  2  0
 17 18  1  0
 18 19  1  0
 19 20  1  0
 17 21  1  0
 21 22  2  0
 11 23  1  0
 23 24  1  0
 24 25  1  0
 25 26  1  0
 26 27  1  0
 27 28  1  0
 28 29  1  0
 29 30  1  0
 23  2  1  0
 30 25  1  0
  9  3  1  0
 22 14  1  0
 20 18  1  0
  6 31  1  0
  7 32  1  0
  8 33  1  0
 12 34  1  0
 13 35  1  0
 15 36  1  0
 16 37  1  0
 18 38  1  0
 19 39  1  0
 19 40  1  0
 20 41  1  0
 20 42  1  0
 21 43  1  0
 22 44  1  0
 24 45  1  0
 24 46  1  0
 25 47  1  0
 26 48  1  0
 26 49  1  0
 27 50  1  0
 27 51  1  0
 28 52  1  0
 29 53  1  0
 29 54  1  0
 30 55  1  0
 30 56  1  0
M  END
>  <smiles>  (7) 
O=c1c2c(Cl)cccc2nc(/C=C/c2ccc(C3CC3)cc2)n1CC1CCNCC1

>  <score_type>  (7) 
oracle

>  <origin>  (7) 
autodockgpu

>  <m_score__min__energy>  (7) 
-8.9000000000000004

>  <m_primary>  (7) 
energy

>  <rmsd>  (7) 
11.215704857490445

>  <m_score__min__rmsd>  (7) 
11.215704857490445

>  <meeko>  (7) 
{"free_energy": -8.18, "intermolecular_energy": -9.97, "internal_energy": -1.86, "cluster_size": 12, "cluster_id": 5, "rank_in_cluster": 5}

>  <energy>  (7) 
-8.78

>  <cluster_rmsd>  (7) 
0.27

>  <cluster>  (7) 
1

$$$$

     RDKit          3D

 56 60  0  0  0  0  0  0  0  0999 V2000
  142.1400   75.0840  218.8430 O   0  0  0  0  0  0  0  0  0  0  0  0
  141.4680   75.0240  219.9070 C   0  0  0  0  0  0  0  0  0  0  0  0
  141.3400   76.1760  220.6540 C   0  0  0  0  0  0  0  0  0  0  0  0
  141.9480   77.3340  220.2120 C   0  0  0  0  0  0  0  0  0  0  0  0
  142.8740   77.3790  218.7290 Cl  0  0  0  0  0  0  0  0  0  0  0  0
  141.7880   78.4730  221.0070 C   0  0  0  0  0  0  0  0  0  0  0  0
  141.0550   78.4250  222.1740 C   0  0  0  0  0  0  0  0  0  0  0  0
  140.4530   77.2610  222.6070 C   0  0  0  0  0  0  0  0  0  0  0  0
  140.6100   76.1380  221.8240 C   0  0  0  0  0  0  0  0  0  0  0  0
  140.0610   74.9620  222.1620 N   0  0  0  0  0  0  0  0  0  0  0  0
  140.1850   73.8400  221.4330 C   0  0  0  0  0  0  0  0  0  0  0  0
  139.5430   72.6090  221.8780 C   0  0  0  0  0  0  0  0  0  0  0  0
  140.2890   71.6500  222.3800 C   0  0  0  0  0  0  0  0  0  0  0  0
  140.2140   71.1780  223.7500 C   0  0  0  0  0  0  0  0  0  0  0  0
  139.5800   69.9710  224.0540 C   0  0  0  0  0  0  0  0  0  0  0  0
  139.4880   69.4900  225.3410 C   0  0  0  0  0  0  0  0  0  0  0  0
  140.0220   70.1810  226.4010 C   0  0  0  0  0  0  0  0  0  0  0  0
  139.8830   69.6030  227.7490 C   0  0  0  0  0  0  0  0  0  0  0  0
  141.0740   69.0080  228.4350 C   0  0  0  0  0  0  0  0  0  0  0  0
  139.9270   68.1380  227.9710 C   0  0  0  0  0  0  0  0  0  0  0  0
  140.6510   71.3730  226.1320 C   0  0  0  0  0  0  0  0  0  0  0  0
  140.7430   71.8580  224.8270 C   0  0  0  0  0  0  0  0  0  0  0  0
  140.8910   73.8470  220.2910 N   0  0  0  0  0  0  0  0  0  0  0  0
  141.1030   72.7170  219.4450 C   0  0  0  0  0  0  0  0  0  0  0  0
  142.4340   72.0600  219.5470 C   0  0  0  0  0  0  0  0  0  0  0  0
  143.3890   72.3470  218.4220 C   0  0  0  0  0  0  0  0  0  0  0  0
  144.5710   71.3930  218.6410 C   0  0  0  0  0  0  0  0  0  0  0  0
  145.0060   71.4450  220.0110 N   0  0  0  0  0  0  0  0  0  0  0  0
  144.5740   72.6320  220.7160 C   0  0  0  0  0  0  0  0  0  0  0  0
  143.0680   72.5430  220.8550 C   0  0  0  0  0  0  0  0  0  0  0  0
  142.2532   79.4204  220.6973 H   0  0  0  0  0  0  0  0  0  0  0  0
  140.9471   79.3392  222.7761 H   0  0  0  0  0  0  0  0  0  0  0  0
  139.8711   77.2309  223.5400 H   0  0  0  0  0  0  0  0  0  0  0  0
  138.4532   72.4848  221.7951 H   0  0  0  0  0  0  0  0  0  0  0  0
  141.0222   71.1714  221.7141 H   0  0  0  0  0  0  0  0  0  0  0  0
  139.1382   69.3835  223.2357 H   0  0  0  0  0  0  0  0  0  0  0  0
  138.9767   68.5334  225.5237 H   0  0  0  0  0  0  0  0  0  0  0  0
  139.1543   70.3903  227.9925 H   0  0  0  0  0  0  0  0  0  0  0  0
  142.0446   68.9646  227.9191 H   0  0  0  0  0  0  0  0  0  0  0  0
  141.5935   69.1763  229.3899 H   0  0  0  0  0  0  0  0  0  0  0  0
  140.0636   67.4564  227.1185 H   0  0  0  0  0  0  0  0  0  0  0  0
  139.2637   67.4039  228.4517 H   0  0  0  0  0  0  0  0  0  0  0  0
  141.0884   71.9533  226.9578 H   0  0  0  0  0  0  0  0  0  0  0  0
  141.2550   72.8156  224.6511 H   0  0  0  0  0  0  0  0  0  0  0  0
  140.3382   71.9656  219.6909 H   0  0  0  0  0  0  0  0  0  0  0  0
  141.0440   73.1040  218.4170 H   0  0  0  0  0  0  0  0  0  0  0  0
  142.2571   70.9751  219.5046 H   0  0  0  0  0  0  0  0  0  0  0  0
  142.9106   72.1512  217.4510 H   0  0  0  0  0  0  0  0  0  0  0  0
  143.7078   73.3997  218.4131 H   0  0  0  0  0  0  0  0  0  0  0  0
  144.2590   70.3666  218.3979 H   0  0  0  0  0  0  0  0  0  0  0  0
  145.4030   71.6978  217.9892 H   0  0  0  0  0  0  0  0  0  0  0  0
  146.0540   71.3700  220.1000 H   0  0  0  0  0  0  0  0  0  0  0  0
  145.0431   72.6723  221.7101 H   0  0  0  0  0  0  0  0  0  0  0  0
  144.8640   73.5407  220.1680 H   0  0  0  0  0  0  0  0  0  0  0  0
  142.8203   71.8352  221.6598 H   0  0  0  0  0  0  0  0  0  0  0  0
  142.6739   73.5421  221.0926 H   0  0  0  0  0  0  0  0  0  0  0  0
  1  2  2  0
  2  3  1  0
  3  4  2  0
  4  5  1  0
  4  6  1  0
  6  7  2  0
  7  8  1  0
  8  9  2  0
  9 10  1  0
 10 11  2  0
 11 12  1  0
 12 13  2  0
 13 14  1  0
 14 15  2  0
 15 16  1  0
 16 17  2  0
 17 18  1  0
 18 19  1  0
 19 20  1  0
 17 21  1  0
 21 22  2  0
 11 23  1  0
 23 24  1  0
 24 25  1  0
 25 26  1  0
 26 27  1  0
 27 28  1  0
 28 29  1  0
 29 30  1  0
 23  2  1  0
 30 25  1  0
  9  3  1  0
 22 14  1  0
 20 18  1  0
  6 31  1  0
  7 32  1  0
  8 33  1  0
 12 34  1  0
 13 35  1  0
 15 36  1  0
 16 37  1  0
 18 38  1  0
 19 39  1  0
 19 40  1  0
 20 41  1  0
 20 42  1  0
 21 43  1  0
 22 44  1  0
 24 45  1  0
 24 46  1  0
 25 47  1  0
 26 48  1  0
 26 49  1  0
 27 50  1  0
 27 51  1  0
 28 52  1  0
 29 53  1  0
 29 54  1  0
 30 55  1  0
 30 56  1  0
M  END
>  <smiles>  (8) 
O=c1c2c(Cl)cccc2nc(/C=C/c2ccc(C3CC3)cc2)n1CC1CCNCC1

>  <score_type>  (8) 
oracle

>  <origin>  (8) 
autodockgpu

>  <m_score__min__energy>  (8) 
-8.9000000000000004

>  <m_primary>  (8) 
energy

>  <rmsd>  (8) 
5.667708686754432

>  <m_score__min__rmsd>  (8) 
5.667708686754432

>  <meeko>  (8) 
{"free_energy": -8.06, "intermolecular_energy": -9.85, "internal_energy": -1.5, "cluster_size": 12, "cluster_id": 1, "rank_in_cluster": 12}

>  <energy>  (8) 
-8.7

>  <cluster_rmsd>  (8) 
0.89

>  <cluster>  (8) 
1

$$$$

     RDKit          3D

 56 60  0  0  0  0  0  0  0  0999 V2000
  135.6440   75.0770  223.7000 O   0  0  0  0  0  0  0  0  0  0  0  0
  135.7500   73.8230  223.6260 C   0  0  0  0  0  0  0  0  0  0  0  0
  135.0990   73.0630  224.5750 C   0  0  0  0  0  0  0  0  0  0  0  0
  134.3660   73.6990  225.5570 C   0  0  0  0  0  0  0  0  0  0  0  0
  134.2410   75.4420  225.6270 Cl  0  0  0  0  0  0  0  0  0  0  0  0
  133.7260   72.8830  226.4940 C   0  0  0  0  0  0  0  0  0  0  0  0
  133.8320   71.5100  226.4270 C   0  0  0  0  0  0  0  0  0  0  0  0
  134.5690   70.8840  225.4410 C   0  0  0  0  0  0  0  0  0  0  0  0
  135.2000   71.6890  224.5170 C   0  0  0  0  0  0  0  0  0  0  0  0
  135.9370   71.1730  223.5220 N   0  0  0  0  0  0  0  0  0  0  0  0
  136.5700   71.9140  222.5970 C   0  0  0  0  0  0  0  0  0  0  0  0
  137.3420   71.2610  221.5460 C   0  0  0  0  0  0  0  0  0  0  0  0
  138.4330   70.6050  221.8750 C   0  0  0  0  0  0  0  0  0  0  0  0
  139.0760   70.6710  223.1750 C   0  0  0  0  0  0  0  0  0  0  0  0
  138.7080   69.7930  224.1960 C   0  0  0  0  0  0  0  0  0  0  0  0
  139.2930   69.8240  225.4420 C   0  0  0  0  0  0  0  0  0  0  0  0
  140.2790   70.7310  225.7440 C   0  0  0  0  0  0  0  0  0  0  0  0
  140.8570   70.7040  227.1000 C   0  0  0  0  0  0  0  0  0  0  0  0
  139.9580   70.6770  228.2970 C   0  0  0  0  0  0  0  0  0  0  0  0
  140.8050   71.8910  227.9870 C   0  0  0  0  0  0  0  0  0  0  0  0
  140.6600   71.6090  224.7590 C   0  0  0  0  0  0  0  0  0  0  0  0
  140.0660   71.5750  223.4970 C   0  0  0  0  0  0  0  0  0  0  0  0
  136.4910   73.2530  222.6290 N   0  0  0  0  0  0  0  0  0  0  0  0
  137.1320   74.1400  221.7130 C   0  0  0  0  0  0  0  0  0  0  0  0
  138.5960   74.3290  221.8950 C   0  0  0  0  0  0  0  0  0  0  0  0
  139.4460   74.0340  220.6900 C   0  0  0  0  0  0  0  0  0  0  0  0
  140.8940   74.0800  221.1940 C   0  0  0  0  0  0  0  0  0  0  0  0
  141.1110   75.2660  221.9790 N   0  0  0  0  0  0  0  0  0  0  0  0
  140.1290   76.3040  221.7510 C   0  0  0  0  0  0  0  0  0  0  0  0
  138.8090   75.7930  222.2900 C   0  0  0  0  0  0  0  0  0  0  0  0
  133.1295   73.3425  227.2959 H   0  0  0  0  0  0  0  0  0  0  0  0
  133.3153   70.8963  227.1796 H   0  0  0  0  0  0  0  0  0  0  0  0
  134.6492   69.7879  225.3949 H   0  0  0  0  0  0  0  0  0  0  0  0
  137.0172   71.3163  220.4965 H   0  0  0  0  0  0  0  0  0  0  0  0
  138.8913   69.9602  221.1107 H   0  0  0  0  0  0  0  0  0  0  0  0
  137.9220   69.0493  223.9979 H   0  0  0  0  0  0  0  0  0  0  0  0
  138.9643   69.1086  226.2103 H   0  0  0  0  0  0  0  0  0  0  0  0
  141.6715   70.0692  226.7212 H   0  0  0  0  0  0  0  0  0  0  0  0
  138.8662   70.7176  228.1692 H   0  0  0  0  0  0  0  0  0  0  0  0
  139.8280   70.0131  229.1644 H   0  0  0  0  0  0  0  0  0  0  0  0
  140.3291   72.8189  227.6369 H   0  0  0  0  0  0  0  0  0  0  0  0
  141.5497   72.4819  228.5404 H   0  0  0  0  0  0  0  0  0  0  0  0
  141.4454   72.3502  224.9682 H   0  0  0  0  0  0  0  0  0  0  0  0
  140.3986   72.2935  222.7334 H   0  0  0  0  0  0  0  0  0  0  0  0
  136.9680   73.7496  220.6978 H   0  0  0  0  0  0  0  0  0  0  0  0
  136.6833   75.1272  221.8975 H   0  0  0  0  0  0  0  0  0  0  0  0
  138.9167   73.6040  222.6576 H   0  0  0  0  0  0  0  0  0  0  0  0
  139.2100   73.0382  220.2867 H   0  0  0  0  0  0  0  0  0  0  0  0
  139.2714   74.7560  219.8787 H   0  0  0  0  0  0  0  0  0  0  0  0
  141.0909   73.1931  221.8141 H   0  0  0  0  0  0  0  0  0  0  0  0
  141.5740   74.0932  220.3295 H   0  0  0  0  0  0  0  0  0  0  0  0
  142.0690   75.6770  221.8240 H   0  0  0  0  0  0  0  0  0  0  0  0
  140.4219   77.2234  222.2792 H   0  0  0  0  0  0  0  0  0  0  0  0
  140.0498   76.5401  220.6796 H   0  0  0  0  0  0  0  0  0  0  0  0
  138.8104   75.8749  223.3869 H   0  0  0  0  0  0  0  0  0  0  0  0
  137.9944   76.3973  221.8643 H   0  0  0  0  0  0  0  0  0  0  0  0
  1  2  2  0
  2  3  1  0
  3  4  2  0
  4  5  1  0
  4  6  1  0
  6  7  2  0
  7  8  1  0
  8  9  2  0
  9 10  1  0
 10 11  2  0
 11 12  1  0
 12 13  2  0
 13 14  1  0
 14 15  2  0
 15 16  1  0
 16 17  2  0
 17 18  1  0
 18 19  1  0
 19 20  1  0
 17 21  1  0
 21 22  2  0
 11 23  1  0
 23 24  1  0
 24 25  1  0
 25 26  1  0
 26 27  1  0
 27 28  1  0
 28 29  1  0
 29 30  1  0
 23  2  1  0
 30 25  1  0
  9  3  1  0
 22 14  1  0
 20 18  1  0
  6 31  1  0
  7 32  1  0
  8 33  1  0
 12 34  1  0
 13 35  1  0
 15 36  1  0
 16 37  1  0
 18 38  1  0
 19 39  1  0
 19 40  1  0
 20 41  1  0
 20 42  1  0
 21 43  1  0
 22 44  1  0
 24 45  1  0
 24 46  1  0
 25 47  1  0
 26 48  1  0
 26 49  1  0
 27 50  1  0
 27 51  1  0
 28 52  1  0
 29 53  1  0
 29 54  1  0
 30 55  1  0
 30 56  1  0
M  END
>  <smiles>  (9) 
O=c1c2c(Cl)cccc2nc(/C=C/c2ccc(C3CC3)cc2)n1CC1CCNCC1

>  <score_type>  (9) 
oracle

>  <origin>  (9) 
autodockgpu

>  <m_score__min__energy>  (9) 
-8.9000000000000004

>  <m_primary>  (9) 
energy

>  <rmsd>  (9) 
9.017469248793498

>  <m_score__min__rmsd>  (9) 
9.017469248793498

>  <meeko>  (9) 
{"free_energy": -7.81, "intermolecular_energy": -9.6, "internal_energy": -2.31, "cluster_size": 13, "cluster_id": 6, "rank_in_cluster": 8}

>  <energy>  (9) 
-8.67

>  <cluster_rmsd>  (9) 
0.79

>  <cluster>  (9) 
1

$$$$

     RDKit          3D

 56 60  0  0  0  0  0  0  0  0999 V2000
  135.5840   75.1680  223.8310 O   0  0  0  0  0  0  0  0  0  0  0  0
  135.7360   73.9230  223.7090 C   0  0  0  0  0  0  0  0  0  0  0  0
  135.1080   73.1040  224.6240 C   0  0  0  0  0  0  0  0  0  0  0  0
  134.3480   73.6750  225.6250 C   0  0  0  0  0  0  0  0  0  0  0  0
  134.1600   75.4090  225.7620 Cl  0  0  0  0  0  0  0  0  0  0  0  0
  133.7330   72.8010  226.5270 C   0  0  0  0  0  0  0  0  0  0  0  0
  133.8890   71.4360  226.4070 C   0  0  0  0  0  0  0  0  0  0  0  0
  134.6520   70.8760  225.4030 C   0  0  0  0  0  0  0  0  0  0  0  0
  135.2580   71.7370  224.5140 C   0  0  0  0  0  0  0  0  0  0  0  0
  136.0170   71.2860  223.5050 N   0  0  0  0  0  0  0  0  0  0  0  0
  136.6280   72.0850  222.6130 C   0  0  0  0  0  0  0  0  0  0  0  0
  137.4280   71.5010  221.5430 C   0  0  0  0  0  0  0  0  0  0  0  0
  138.6210   71.0260  221.8280 C   0  0  0  0  0  0  0  0  0  0  0  0
  139.1590   70.8990  223.1700 C   0  0  0  0  0  0  0  0  0  0  0  0
  140.1480   71.7730  223.6260 C   0  0  0  0  0  0  0  0  0  0  0  0
  140.6830   71.6850  224.8920 C   0  0  0  0  0  0  0  0  0  0  0  0
  140.2670   70.7210  225.7770 C   0  0  0  0  0  0  0  0  0  0  0  0
  140.8870   70.6890  227.1130 C   0  0  0  0  0  0  0  0  0  0  0  0
  140.0320   70.7930  228.3380 C   0  0  0  0  0  0  0  0  0  0  0  0
  140.9790   71.9070  227.9530 C   0  0  0  0  0  0  0  0  0  0  0  0
  139.2950   69.8470  225.3550 C   0  0  0  0  0  0  0  0  0  0  0  0
  138.7530   69.9390  224.0730 C   0  0  0  0  0  0  0  0  0  0  0  0
  136.5020   73.4190  222.6960 N   0  0  0  0  0  0  0  0  0  0  0  0
  137.1150   74.3620  221.8180 C   0  0  0  0  0  0  0  0  0  0  0  0
  138.5770   74.5690  221.9930 C   0  0  0  0  0  0  0  0  0  0  0  0
  139.4200   74.3300  220.7710 C   0  0  0  0  0  0  0  0  0  0  0  0
  140.8720   74.3830  221.2630 C   0  0  0  0  0  0  0  0  0  0  0  0
  141.0770   75.5440  222.0860 N   0  0  0  0  0  0  0  0  0  0  0  0
  140.0770   76.5740  221.9030 C   0  0  0  0  0  0  0  0  0  0  0  0
  138.7710   76.0220  222.4370 C   0  0  0  0  0  0  0  0  0  0  0  0
  133.1169   73.2075  227.3426 H   0  0  0  0  0  0  0  0  0  0  0  0
  133.3912   70.7752  227.1320 H   0  0  0  0  0  0  0  0  0  0  0  0
  134.7717   69.7860  225.3157 H   0  0  0  0  0  0  0  0  0  0  0  0
  137.0403   71.4584  220.5145 H   0  0  0  0  0  0  0  0  0  0  0  0
  139.2558   70.7021  220.9901 H   0  0  0  0  0  0  0  0  0  0  0  0
  140.5129   72.5601  222.9497 H   0  0  0  0  0  0  0  0  0  0  0  0
  141.4589   72.4011  225.2003 H   0  0  0  0  0  0  0  0  0  0  0  0
  141.6239   69.9655  226.7343 H   0  0  0  0  0  0  0  0  0  0  0  0
  138.9452   70.9340  228.2431 H   0  0  0  0  0  0  0  0  0  0  0  0
  139.8700   70.1773  229.2350 H   0  0  0  0  0  0  0  0  0  0  0  0
  140.5815   72.8629  227.5811 H   0  0  0  0  0  0  0  0  0  0  0  0
  141.7956   72.4433  228.4586 H   0  0  0  0  0  0  0  0  0  0  0  0
  138.9385   69.0624  226.0386 H   0  0  0  0  0  0  0  0  0  0  0  0
  137.9754   69.2215  223.7721 H   0  0  0  0  0  0  0  0  0  0  0  0
  136.9458   74.0192  220.7866 H   0  0  0  0  0  0  0  0  0  0  0  0
  136.6504   75.3303  222.0558 H   0  0  0  0  0  0  0  0  0  0  0  0
  138.9162   73.8234  222.7271 H   0  0  0  0  0  0  0  0  0  0  0  0
  139.1966   73.3448  220.3357 H   0  0  0  0  0  0  0  0  0  0  0  0
  139.2256   75.0765  219.9868 H   0  0  0  0  0  0  0  0  0  0  0  0
  141.0896   73.4787  221.8503 H   0  0  0  0  0  0  0  0  0  0  0  0
  141.5432   74.4374  220.3932 H   0  0  0  0  0  0  0  0  0  0  0  0
  142.0270   75.9770  221.9370 H   0  0  0  0  0  0  0  0  0  0  0  0
  140.3605   77.4792  222.4599 H   0  0  0  0  0  0  0  0  0  0  0  0
  139.9835   76.8467  220.8415 H   0  0  0  0  0  0  0  0  0  0  0  0
  138.7829   76.0655  223.5361 H   0  0  0  0  0  0  0  0  0  0  0  0
  137.9423   76.6271  222.0407 H   0  0  0  0  0  0  0  0  0  0  0  0
  1  2  2  0
  2  3  1  0
  3  4  2  0
  4  5  1  0
  4  6  1  0
  6  7  2  0
  7  8  1  0
  8  9  2  0
  9 10  1  0
 10 11  2  0
 11 12  1  0
 12 13  2  0
 13 14  1  0
 14 15  2  0
 15 16  1  0
 16 17  2  0
 17 18  1  0
 18 19  1  0
 19 20  1  0
 17 21  1  0
 21 22  2  0
 11 23  1  0
 23 24  1  0
 24 25  1  0
 25 26  1  0
 26 27  1  0
 27 28  1  0
 28 29  1  0
 29 30  1  0
 23  2  1  0
 30 25  1  0
  9  3  1  0
 22 14  1  0
 20 18  1  0
  6 31  1  0
  7 32  1  0
  8 33  1  0
 12 34  1  0
 13 35  1  0
 15 36  1  0
 16 37  1  0
 18 38  1  0
 19 39  1  0
 19 40  1  0
 20 41  1  0
 20 42  1  0
 21 43  1  0
 22 44  1  0
 24 45  1  0
 24 46  1  0
 25 47  1  0
 26 48  1  0
 26 49  1  0
 27 50  1  0
 27 51  1  0
 28 52  1  0
 29 53  1  0
 29 54  1  0
 30 55  1  0
 30 56  1  0
M  END
>  <smiles>  (10) 
O=c1c2c(Cl)cccc2nc(/C=C/c2ccc(C3CC3)cc2)n1CC1CCNCC1

>  <score_type>  (10) 
oracle

>  <origin>  (10) 
autodockgpu

>  <m_score__min__energy>  (10) 
-8.9000000000000004

>  <m_primary>  (10) 
energy

>  <rmsd>  (10) 
8.992327782335435

>  <m_score__min__rmsd>  (10) 
8.992327782335435

>  <meeko>  (10) 
{"free_energy": -7.83, "intermolecular_energy": -9.62, "internal_energy": -2.27, "cluster_size": 13, "cluster_id": 6, "rank_in_cluster": 5}

>  <energy>  (10) 
-8.62

>  <cluster_rmsd>  (10) 
0.78

>  <cluster>  (10) 
1

$$$$

     RDKit          3D

 56 60  0  0  0  0  0  0  0  0999 V2000
  140.3540   71.9260  225.1540 O   0  0  0  0  0  0  0  0  0  0  0  0
  139.9720   70.7270  225.0850 C   0  0  0  0  0  0  0  0  0  0  0  0
  140.2110   69.9100  226.1700 C   0  0  0  0  0  0  0  0  0  0  0  0
  140.8530   70.4340  227.2750 C   0  0  0  0  0  0  0  0  0  0  0  0
  141.3690   72.1040  227.3340 Cl  0  0  0  0  0  0  0  0  0  0  0  0
  141.0710   69.5640  228.3480 C   0  0  0  0  0  0  0  0  0  0  0  0
  140.6590   68.2500  228.2890 C   0  0  0  0  0  0  0  0  0  0  0  0
  140.0190   67.7370  227.1780 C   0  0  0  0  0  0  0  0  0  0  0  0
  139.8040   68.5940  226.1210 C   0  0  0  0  0  0  0  0  0  0  0  0
  139.1900   68.1870  225.0000 N   0  0  0  0  0  0  0  0  0  0  0  0
  138.9560   68.9830  223.9430 C   0  0  0  0  0  0  0  0  0  0  0  0
  138.2710   68.4520  222.7700 C   0  0  0  0  0  0  0  0  0  0  0  0
  137.0130   68.7770  222.5690 C   0  0  0  0  0  0  0  0  0  0  0  0
  136.2290   69.6280  223.4460 C   0  0  0  0  0  0  0  0  0  0  0  0
  135.7500   69.1440  224.6650 C   0  0  0  0  0  0  0  0  0  0  0  0
  135.0040   69.9200  225.5240 C   0  0  0  0  0  0  0  0  0  0  0  0
  134.6900   71.2220  225.2190 C   0  0  0  0  0  0  0  0  0  0  0  0
  133.8870   71.9890  226.1880 C   0  0  0  0  0  0  0  0  0  0  0  0
  133.8180   71.5500  227.6180 C   0  0  0  0  0  0  0  0  0  0  0  0
  132.6050   71.4650  226.7180 C   0  0  0  0  0  0  0  0  0  0  0  0
  135.1480   71.7240  224.0250 C   0  0  0  0  0  0  0  0  0  0  0  0
  135.9050   70.9360  223.1570 C   0  0  0  0  0  0  0  0  0  0  0  0
  139.3420   70.2690  223.9620 N   0  0  0  0  0  0  0  0  0  0  0  0
  139.1620   71.2010  222.8960 C   0  0  0  0  0  0  0  0  0  0  0  0
  140.4000   71.6720  222.2190 C   0  0  0  0  0  0  0  0  0  0  0  0
  140.6700   71.0730  220.8660 C   0  0  0  0  0  0  0  0  0  0  0  0
  142.0850   71.5360  220.4940 C   0  0  0  0  0  0  0  0  0  0  0  0
  142.2220   72.9510  220.7180 N   0  0  0  0  0  0  0  0  0  0  0  0
  140.9590   73.6540  220.7940 C   0  0  0  0  0  0  0  0  0  0  0  0
  140.2690   73.1890  222.0590 C   0  0  0  0  0  0  0  0  0  0  0  0
  141.5782   69.9334  229.2515 H   0  0  0  0  0  0  0  0  0  0  0  0
  140.8451   67.5919  229.1505 H   0  0  0  0  0  0  0  0  0  0  0  0
  139.6941   66.6868  227.1386 H   0  0  0  0  0  0  0  0  0  0  0  0
  138.7977   67.7912  222.0658 H   0  0  0  0  0  0  0  0  0  0  0  0
  136.5190   68.3753  221.6720 H   0  0  0  0  0  0  0  0  0  0  0  0
  135.9766   68.1058  224.9493 H   0  0  0  0  0  0  0  0  0  0  0  0
  134.6527   69.4887  226.4730 H   0  0  0  0  0  0  0  0  0  0  0  0
  134.1770   72.9143  225.6687 H   0  0  0  0  0  0  0  0  0  0  0  0
  134.3327   70.6327  227.9400 H   0  0  0  0  0  0  0  0  0  0  0  0
  134.0408   72.0120  228.5911 H   0  0  0  0  0  0  0  0  0  0  0  0
  132.2330   70.4840  226.3874 H   0  0  0  0  0  0  0  0  0  0  0  0
  131.5721   71.8400  226.7670 H   0  0  0  0  0  0  0  0  0  0  0  0
  134.9144   72.7629  223.7490 H   0  0  0  0  0  0  0  0  0  0  0  0
  136.2548   71.3735  222.2103 H   0  0  0  0  0  0  0  0  0  0  0  0
  138.5253   70.7235  222.1367 H   0  0  0  0  0  0  0  0  0  0  0  0
  138.7211   72.0961  223.3590 H   0  0  0  0  0  0  0  0  0  0  0  0
  141.2455   71.3560  222.8477 H   0  0  0  0  0  0  0  0  0  0  0  0
  140.6240   69.9750  220.9145 H   0  0  0  0  0  0  0  0  0  0  0  0
  139.9254   71.3899  220.1209 H   0  0  0  0  0  0  0  0  0  0  0  0
  142.8176   70.9978  221.1134 H   0  0  0  0  0  0  0  0  0  0  0  0
  142.2632   71.3231  219.4296 H   0  0  0  0  0  0  0  0  0  0  0  0
  142.8150   73.4160  219.9800 H   0  0  0  0  0  0  0  0  0  0  0  0
  141.1327   74.7394  220.8356 H   0  0  0  0  0  0  0  0  0  0  0  0
  140.3395   73.4450  219.9094 H   0  0  0  0  0  0  0  0  0  0  0  0
  140.7306   73.6849  222.9256 H   0  0  0  0  0  0  0  0  0  0  0  0
  139.2017   73.4477  221.9959 H   0  0  0  0  0  0  0  0  0  0  0  0
  1  2  2  0
  2  3  1  0
  3  4  2  0
  4  5  1  0
  4  6  1  0
  6  7  2  0
  7  8  1  0
  8  9  2  0
  9 10  1  0
 10 11  2  0
 11 12  1  0
 12 13  2  0
 13 14  1  0
 14 15  2  0
 15 16  1  0
 16 17  2  0
 17 18  1  0
 18 19  1  0
 19 20  1  0
 17 21  1  0
 21 22  2  0
 11 23  1  0
 23 24  1  0
 24 25  1  0
 25 26  1  0
 26 27  1  0
 27 28  1  0
 28 29  1  0
 29 30  1  0
 23  2  1  0
 30 25  1  0
  9  3  1  0
 22 14  1  0
 20 18  1  0
  6 31  1  0
  7 32  1  0
  8 33  1  0
 12 34  1  0
 13 35  1  0
 15 36  1  0
 16 37  1  0
 18 38  1  0
 19 39  1  0
 19 40  1  0
 20 41  1  0
 20 42  1  0
 21 43  1  0
 22 44  1  0
 24 45  1  0
 24 46  1  0
 25 47  1  0
 26 48  1  0
 26 49  1  0
 27 50  1  0
 27 51  1  0
 28 52  1  0
 29 53  1  0
 29 54  1  0
 30 55  1  0
 30 56  1  0
M  END
>  <smiles>  (11) 
O=c1c2c(Cl)cccc2nc(/C=C/c2ccc(C3CC3)cc2)n1CC1CCNCC1

>  <score_type>  (11) 
oracle

>  <origin>  (11) 
autodockgpu

>  <m_score__min__energy>  (11) 
-8.9000000000000004

>  <m_primary>  (11) 
energy

>  <rmsd>  (11) 
11.170142006944385

>  <m_score__min__rmsd>  (11) 
11.170142006944385

>  <meeko>  (11) 
{"free_energy": -8.05, "intermolecular_energy": -9.84, "internal_energy": -1.91, "cluster_size": 12, "cluster_id": 5, "rank_in_cluster": 8}

>  <energy>  (11) 
-8.32

>  <cluster_rmsd>  (11) 
0.93

>  <cluster>  (11) 
1

$$$$

     RDKit          3D

 56 60  0  0  0  0  0  0  0  0999 V2000
  140.2180   71.9100  225.0990 O   0  0  0  0  0  0  0  0  0  0  0  0
  139.7980   70.7230  225.0490 C   0  0  0  0  0  0  0  0  0  0  0  0
  140.0170   69.9150  226.1450 C   0  0  0  0  0  0  0  0  0  0  0  0
  140.6810   70.4330  227.2390 C   0  0  0  0  0  0  0  0  0  0  0  0
  141.2490   72.0870  227.2720 Cl  0  0  0  0  0  0  0  0  0  0  0  0
  140.8770   69.5730  228.3230 C   0  0  0  0  0  0  0  0  0  0  0  0
  140.4230   68.2710  228.2850 C   0  0  0  0  0  0  0  0  0  0  0  0
  139.7620   67.7630  227.1860 C   0  0  0  0  0  0  0  0  0  0  0  0
  139.5670   68.6120  226.1170 C   0  0  0  0  0  0  0  0  0  0  0  0
  138.9350   68.2090  225.0060 N   0  0  0  0  0  0  0  0  0  0  0  0
  138.7200   68.9970  223.9390 C   0  0  0  0  0  0  0  0  0  0  0  0
  138.0130   68.4710  222.7770 C   0  0  0  0  0  0  0  0  0  0  0  0
  136.6990   68.5350  222.7510 C   0  0  0  0  0  0  0  0  0  0  0  0
  135.8960   69.3590  223.6360 C   0  0  0  0  0  0  0  0  0  0  0  0
  135.6200   68.9430  224.9400 C   0  0  0  0  0  0  0  0  0  0  0  0
  134.8620   69.6960  225.8090 C   0  0  0  0  0  0  0  0  0  0  0  0
  134.3340   70.9050  225.4310 C   0  0  0  0  0  0  0  0  0  0  0  0
  133.5320   71.6530  226.4160 C   0  0  0  0  0  0  0  0  0  0  0  0
  132.3150   72.4070  225.9730 C   0  0  0  0  0  0  0  0  0  0  0  0
  133.5480   73.1350  226.4620 C   0  0  0  0  0  0  0  0  0  0  0  0
  134.5880   71.3400  224.1530 C   0  0  0  0  0  0  0  0  0  0  0  0
  135.3570   70.5760  223.2740 C   0  0  0  0  0  0  0  0  0  0  0  0
  139.1470   70.2690  223.9370 N   0  0  0  0  0  0  0  0  0  0  0  0
  138.9910   71.1910  222.8580 C   0  0  0  0  0  0  0  0  0  0  0  0
  140.2450   71.7460  222.2810 C   0  0  0  0  0  0  0  0  0  0  0  0
  140.6670   71.1640  220.9610 C   0  0  0  0  0  0  0  0  0  0  0  0
  142.0720   71.7230  220.7020 C   0  0  0  0  0  0  0  0  0  0  0  0
  142.0910   73.1450  220.9230 N   0  0  0  0  0  0  0  0  0  0  0  0
  140.7810   73.7580  220.8890 C   0  0  0  0  0  0  0  0  0  0  0  0
  140.0220   73.2500  222.0970 C   0  0  0  0  0  0  0  0  0  0  0  0
  141.4003   69.9393  229.2185 H   0  0  0  0  0  0  0  0  0  0  0  0
  140.5928   67.6198  229.1551 H   0  0  0  0  0  0  0  0  0  0  0  0
  139.4049   66.7228  227.1633 H   0  0  0  0  0  0  0  0  0  0  0  0
  138.5685   68.0285  221.9370 H   0  0  0  0  0  0  0  0  0  0  0  0
  136.1719   67.9208  222.0061 H   0  0  0  0  0  0  0  0  0  0  0  0
  136.0224   67.9793  225.2856 H   0  0  0  0  0  0  0  0  0  0  0  0
  134.6761   69.3209  226.8262 H   0  0  0  0  0  0  0  0  0  0  0  0
  133.7358   70.8643  227.1552 H   0  0  0  0  0  0  0  0  0  0  0  0
  132.0409   72.4376  224.9081 H   0  0  0  0  0  0  0  0  0  0  0  0
  131.2487   72.4025  226.2433 H   0  0  0  0  0  0  0  0  0  0  0  0
  134.1702   73.7005  225.7528 H   0  0  0  0  0  0  0  0  0  0  0  0
  133.7503   73.8868  227.2391 H   0  0  0  0  0  0  0  0  0  0  0  0
  134.1793   72.3046  223.8175 H   0  0  0  0  0  0  0  0  0  0  0  0
  135.5394   70.9571  222.2584 H   0  0  0  0  0  0  0  0  0  0  0  0
  138.4502   70.6748  222.0511 H   0  0  0  0  0  0  0  0  0  0  0  0
  138.4560   72.0531  223.2828 H   0  0  0  0  0  0  0  0  0  0  0  0
  141.0554   71.4920  222.9801 H   0  0  0  0  0  0  0  0  0  0  0  0
  140.6934   70.0656  221.0151 H   0  0  0  0  0  0  0  0  0  0  0  0
  139.9664   71.4265  220.1546 H   0  0  0  0  0  0  0  0  0  0  0  0
  142.7866   71.2399  221.3846 H   0  0  0  0  0  0  0  0  0  0  0  0
  142.3521   71.5188  219.6580 H   0  0  0  0  0  0  0  0  0  0  0  0
  142.7090   73.6480  220.2320 H   0  0  0  0  0  0  0  0  0  0  0  0
  140.8752   74.8530  220.9353 H   0  0  0  0  0  0  0  0  0  0  0  0
  140.2528   73.5033  219.9583 H   0  0  0  0  0  0  0  0  0  0  0  0
  140.3742   73.7800  222.9943 H   0  0  0  0  0  0  0  0  0  0  0  0
  138.9482   73.4329  221.9436 H   0  0  0  0  0  0  0  0  0  0  0  0
  1  2  2  0
  2  3  1  0
  3  4  2  0
  4  5  1  0
  4  6  1  0
  6  7  2  0
  7  8  1  0
  8  9  2  0
  9 10  1  0
 10 11  2  0
 11 12  1  0
 12 13  2  0
 13 14  1  0
 14 15  2  0
 15 16  1  0
 16 17  2  0
 17 18  1  0
 18 19  1  0
 19 20  1  0
 17 21  1  0
 21 22  2  0
 11 23  1  0
 23 24  1  0
 24 25  1  0
 25 26  1  0
 26 27  1  0
 27 28  1  0
 28 29  1  0
 29 30  1  0
 23  2  1  0
 30 25  1  0
  9  3  1  0
 22 14  1  0
 20 18  1  0
  6 31  1  0
  7 32  1  0
  8 33  1  0
 12 34  1  0
 13 35  1  0
 15 36  1  0
 16 37  1  0
 18 38  1  0
 19 39  1  0
 19 40  1  0
 20 41  1  0
 20 42  1  0
 21 43  1  0
 22 44  1  0
 24 45  1  0
 24 46  1  0
 25 47  1  0
 26 48  1  0
 26 49  1  0
 27 50  1  0
 27 51  1  0
 28 52  1  0
 29 53  1  0
 29 54  1  0
 30 55  1  0
 30 56  1  0
M  END
>  <smiles>  (12) 
O=c1c2c(Cl)cccc2nc(/C=C/c2ccc(C3CC3)cc2)n1CC1CCNCC1

>  <score_type>  (12) 
oracle

>  <origin>  (12) 
autodockgpu

>  <m_score__min__energy>  (12) 
-8.9000000000000004

>  <m_primary>  (12) 
energy

>  <rmsd>  (12) 
11.149094971303057

>  <m_score__min__rmsd>  (12) 
11.149094971303057

>  <meeko>  (12) 
{"free_energy": -7.86, "intermolecular_energy": -9.64, "internal_energy": -1.85, "cluster_size": 12, "cluster_id": 5, "rank_in_cluster": 10}

>  <energy>  (12) 
-8.06

>  <cluster_rmsd>  (12) 
0.94

>  <cluster>  (12) 
1

$$$$

     RDKit          3D

 56 60  0  0  0  0  0  0  0  0999 V2000
  136.7110   77.5580  223.0360 O   0  0  0  0  0  0  0  0  0  0  0  0
  137.7410   76.8990  222.7350 C   0  0  0  0  0  0  0  0  0  0  0  0
  138.9420   77.5740  222.6700 C   0  0  0  0  0  0  0  0  0  0  0  0
  138.9660   78.9290  222.9330 C   0  0  0  0  0  0  0  0  0  0  0  0
  137.5140   79.8110  223.3480 Cl  0  0  0  0  0  0  0  0  0  0  0  0
  140.2080   79.5650  222.8540 C   0  0  0  0  0  0  0  0  0  0  0  0
  141.3460   78.8580  222.5270 C   0  0  0  0  0  0  0  0  0  0  0  0
  141.3110   77.5030  222.2640 C   0  0  0  0  0  0  0  0  0  0  0  0
  140.0860   76.8760  222.3430 C   0  0  0  0  0  0  0  0  0  0  0  0
  139.9530   75.5630  222.1060 N   0  0  0  0  0  0  0  0  0  0  0  0
  138.7820   74.9060  222.1710 C   0  0  0  0  0  0  0  0  0  0  0  0
  138.7380   73.4720  221.9050 C   0  0  0  0  0  0  0  0  0  0  0  0
  139.7330   72.7190  222.3210 C   0  0  0  0  0  0  0  0  0  0  0  0
  139.6630   71.8090  223.4500 C   0  0  0  0  0  0  0  0  0  0  0  0
  140.6710   71.7970  224.4160 C   0  0  0  0  0  0  0  0  0  0  0  0
  140.6410   70.9490  225.5010 C   0  0  0  0  0  0  0  0  0  0  0  0
  139.6070   70.0640  225.6870 C   0  0  0  0  0  0  0  0  0  0  0  0
  139.6450   69.1880  226.8710 C   0  0  0  0  0  0  0  0  0  0  0  0
  140.6640   69.4230  227.9440 C   0  0  0  0  0  0  0  0  0  0  0  0
  140.7290   68.1940  227.0640 C   0  0  0  0  0  0  0  0  0  0  0  0
  138.6020   70.0540  224.7510 C   0  0  0  0  0  0  0  0  0  0  0  0
  138.6340   70.9140  223.6530 C   0  0  0  0  0  0  0  0  0  0  0  0
  137.6520   75.5580  222.4850 N   0  0  0  0  0  0  0  0  0  0  0  0
  136.3550   74.9700  222.5680 C   0  0  0  0  0  0  0  0  0  0  0  0
  135.7720   74.8520  223.9310 C   0  0  0  0  0  0  0  0  0  0  0  0
  134.5670   75.7100  224.2010 C   0  0  0  0  0  0  0  0  0  0  0  0
  134.3060   75.5800  225.7070 C   0  0  0  0  0  0  0  0  0  0  0  0
  134.3310   74.1960  226.1000 N   0  0  0  0  0  0  0  0  0  0  0  0
  134.1460   73.2740  225.0000 C   0  0  0  0  0  0  0  0  0  0  0  0
  135.3720   73.3850  224.1170 C   0  0  0  0  0  0  0  0  0  0  0  0
  140.2788   80.6441  223.0554 H   0  0  0  0  0  0  0  0  0  0  0  0
  142.3083   79.3883  222.4742 H   0  0  0  0  0  0  0  0  0  0  0  0
  142.2232   76.9467  222.0022 H   0  0  0  0  0  0  0  0  0  0  0  0
  137.8878   73.0285  221.3661 H   0  0  0  0  0  0  0  0  0  0  0  0
  140.6856   72.7833  221.7748 H   0  0  0  0  0  0  0  0  0  0  0  0
  141.5190   72.4891  224.3067 H   0  0  0  0  0  0  0  0  0  0  0  0
  141.4614   70.9811  226.2331 H   0  0  0  0  0  0  0  0  0  0  0  0
  138.5474   69.1236  226.8372 H   0  0  0  0  0  0  0  0  0  0  0  0
  141.4103   70.2232  227.8317 H   0  0  0  0  0  0  0  0  0  0  0  0
  140.6320   69.6100  229.0275 H   0  0  0  0  0  0  0  0  0  0  0  0
  141.5265   68.0971  226.3126 H   0  0  0  0  0  0  0  0  0  0  0  0
  140.7669   67.1095  227.2441 H   0  0  0  0  0  0  0  0  0  0  0  0
  137.7590   69.3573  224.8689 H   0  0  0  0  0  0  0  0  0  0  0  0
  137.8105   70.8768  222.9246 H   0  0  0  0  0  0  0  0  0  0  0  0
  135.6702   75.5816  221.9622 H   0  0  0  0  0  0  0  0  0  0  0  0
  136.4774   73.9370  222.2105 H   0  0  0  0  0  0  0  0  0  0  0  0
  136.5396   75.2043  224.6357 H   0  0  0  0  0  0  0  0  0  0  0  0
  134.7724   76.7573  223.9347 H   0  0  0  0  0  0  0  0  0  0  0  0
  133.6975   75.3945  223.6056 H   0  0  0  0  0  0  0  0  0  0  0  0
  135.0838   76.1281  226.2588 H   0  0  0  0  0  0  0  0  0  0  0  0
  133.3153   75.9995  225.9362 H   0  0  0  0  0  0  0  0  0  0  0  0
  133.6110   73.9770  226.8380 H   0  0  0  0  0  0  0  0  0  0  0  0
  134.0467   72.2468  225.3809 H   0  0  0  0  0  0  0  0  0  0  0  0
  133.2331   73.5149  224.4356 H   0  0  0  0  0  0  0  0  0  0  0  0
  136.2050   72.8398  224.5849 H   0  0  0  0  0  0  0  0  0  0  0  0
  135.1398   72.9533  223.1322 H   0  0  0  0  0  0  0  0  0  0  0  0
  1  2  2  0
  2  3  1  0
  3  4  2  0
  4  5  1  0
  4  6  1  0
  6  7  2  0
  7  8  1  0
  8  9  2  0
  9 10  1  0
 10 11  2  0
 11 12  1  0
 12 13  2  0
 13 14  1  0
 14 15  2  0
 15 16  1  0
 16 17  2  0
 17 18  1  0
 18 19  1  0
 19 20  1  0
 17 21  1  0
 21 22  2  0
 11 23  1  0
 23 24  1  0
 24 25  1  0
 25 26  1  0
 26 27  1  0
 27 28  1  0
 28 29  1  0
 29 30  1  0
 23  2  1  0
 30 25  1  0
  9  3  1  0
 22 14  1  0
 20 18  1  0
  6 31  1  0
  7 32  1  0
  8 33  1  0
 12 34  1  0
 13 35  1  0
 15 36  1  0
 16 37  1  0
 18 38  1  0
 19 39  1  0
 19 40  1  0
 20 41  1  0
 20 42  1  0
 21 43  1  0
 22 44  1  0
 24 45  1  0
 24 46  1  0
 25 47  1  0
 26 48  1  0
 26 49  1  0
 27 50  1  0
 27 51  1  0
 28 52  1  0
 29 53  1  0
 29 54  1  0
 30 55  1  0
 30 56  1  0
M  END
>  <smiles>  (13) 
O=c1c2c(Cl)cccc2nc(/C=C/c2ccc(C3CC3)cc2)n1CC1CCNCC1

>  <score_type>  (13) 
oracle

>  <origin>  (13) 
autodockgpu

>  <m_score__min__energy>  (13) 
-8.9000000000000004

>  <m_primary>  (13) 
energy

>  <rmsd>  (13) 
6.377462373909604

>  <m_score__min__rmsd>  (13) 
6.377462373909604

>  <meeko>  (13) 
{"free_energy": -8.43, "intermolecular_energy": -10.22, "internal_energy": -1.52, "cluster_size": 5, "cluster_id": 4, "rank_in_cluster": 1}

>  <energy>  (13) 
-8.73

>  <cluster_rmsd>  (13) 
0.0

>  <cluster>  (13) 
2

$$$$

     RDKit          3D

 56 60  0  0  0  0  0  0  0  0999 V2000
  142.3470   76.0600  218.7350 O   0  0  0  0  0  0  0  0  0  0  0  0
  141.7690   75.7010  219.7960 C   0  0  0  0  0  0  0  0  0  0  0  0
  141.3100   76.6870  220.6450 C   0  0  0  0  0  0  0  0  0  0  0  0
  141.5010   78.0110  220.3020 C   0  0  0  0  0  0  0  0  0  0  0  0
  142.3070   78.4700  218.8190 Cl  0  0  0  0  0  0  0  0  0  0  0  0
  141.0170   78.9690  221.1960 C   0  0  0  0  0  0  0  0  0  0  0  0
  140.3820   78.5940  222.3610 C   0  0  0  0  0  0  0  0  0  0  0  0
  140.1980   77.2670  222.6950 C   0  0  0  0  0  0  0  0  0  0  0  0
  140.6740   76.3220  221.8130 C   0  0  0  0  0  0  0  0  0  0  0  0
  140.5410   75.0090  222.0510 N   0  0  0  0  0  0  0  0  0  0  0  0
  140.9880   74.0490  221.2230 C   0  0  0  0  0  0  0  0  0  0  0  0
  140.7880   72.6450  221.5620 C   0  0  0  0  0  0  0  0  0  0  0  0
  139.8420   72.3280  222.4190 C   0  0  0  0  0  0  0  0  0  0  0  0
  140.0210   71.4480  223.5590 C   0  0  0  0  0  0  0  0  0  0  0  0
  140.7300   71.8750  224.6830 C   0  0  0  0  0  0  0  0  0  0  0  0
  140.9220   71.0690  225.7840 C   0  0  0  0  0  0  0  0  0  0  0  0
  140.4210   69.7920  225.8280 C   0  0  0  0  0  0  0  0  0  0  0  0
  140.6680   68.9890  227.0400 C   0  0  0  0  0  0  0  0  0  0  0  0
  139.5840   68.1150  227.5920 C   0  0  0  0  0  0  0  0  0  0  0  0
  140.0520   69.3430  228.3410 C   0  0  0  0  0  0  0  0  0  0  0  0
  139.7190   69.3440  224.7350 C   0  0  0  0  0  0  0  0  0  0  0  0
  139.5250   70.1620  223.6220 C   0  0  0  0  0  0  0  0  0  0  0  0
  141.6110   74.3740  220.0790 N   0  0  0  0  0  0  0  0  0  0  0  0
  142.1400   73.4440  219.1340 C   0  0  0  0  0  0  0  0  0  0  0  0
  143.5750   73.0880  219.2950 C   0  0  0  0  0  0  0  0  0  0  0  0
  144.1380   73.2610  220.6790 C   0  0  0  0  0  0  0  0  0  0  0  0
  145.6510   73.0540  220.5300 C   0  0  0  0  0  0  0  0  0  0  0  0
  145.9180   71.8640  219.7670 N   0  0  0  0  0  0  0  0  0  0  0  0
  144.8020   70.9440  219.7110 C   0  0  0  0  0  0  0  0  0  0  0  0
  143.7140   71.6150  218.8980 C   0  0  0  0  0  0  0  0  0  0  0  0
  141.1442   80.0374  220.9674 H   0  0  0  0  0  0  0  0  0  0  0  0
  140.0118   79.3735  223.0431 H   0  0  0  0  0  0  0  0  0  0  0  0
  139.6919   76.9763  223.6274 H   0  0  0  0  0  0  0  0  0  0  0  0
  141.4172   71.8647  221.1090 H   0  0  0  0  0  0  0  0  0  0  0  0
  138.8434   72.7610  222.2603 H   0  0  0  0  0  0  0  0  0  0  0  0
  141.1505   72.8914  224.6901 H   0  0  0  0  0  0  0  0  0  0  0  0
  141.4877   71.4565  226.6442 H   0  0  0  0  0  0  0  0  0  0  0  0
  141.7033   68.8307  226.7038 H   0  0  0  0  0  0  0  0  0  0  0  0
  138.5908   68.1009  227.1193 H   0  0  0  0  0  0  0  0  0  0  0  0
  139.4832   67.0450  227.8265 H   0  0  0  0  0  0  0  0  0  0  0  0
  139.3968   70.2232  228.4179 H   0  0  0  0  0  0  0  0  0  0  0  0
  140.4327   69.5378  229.3545 H   0  0  0  0  0  0  0  0  0  0  0  0
  139.3039   68.3253  224.7378 H   0  0  0  0  0  0  0  0  0  0  0  0
  138.9575   69.7687  222.7657 H   0  0  0  0  0  0  0  0  0  0  0  0
  141.5535   72.5166  219.2115 H   0  0  0  0  0  0  0  0  0  0  0  0
  142.0690   73.9447  218.1572 H   0  0  0  0  0  0  0  0  0  0  0  0
  144.1470   73.7828  218.6625 H   0  0  0  0  0  0  0  0  0  0  0  0
  143.9229   74.2707  221.0589 H   0  0  0  0  0  0  0  0  0  0  0  0
  143.6955   72.5510  221.3932 H   0  0  0  0  0  0  0  0  0  0  0  0
  146.0872   73.9219  220.0137 H   0  0  0  0  0  0  0  0  0  0  0  0
  146.0982   72.9469  221.5293 H   0  0  0  0  0  0  0  0  0  0  0  0
  146.7590   71.3400  220.1260 H   0  0  0  0  0  0  0  0  0  0  0  0
  145.1103   70.0054  219.2273 H   0  0  0  0  0  0  0  0  0  0  0  0
  144.4428   70.7011  220.7220 H   0  0  0  0  0  0  0  0  0  0  0  0
  143.9693   71.5510  217.8299 H   0  0  0  0  0  0  0  0  0  0  0  0
  142.7596   71.1037  219.0924 H   0  0  0  0  0  0  0  0  0  0  0  0
  1  2  2  0
  2  3  1  0
  3  4  2  0
  4  5  1  0
  4  6  1  0
  6  7  2  0
  7  8  1  0
  8  9  2  0
  9 10  1  0
 10 11  2  0
 11 12  1  0
 12 13  2  0
 13 14  1  0
 14 15  2  0
 15 16  1  0
 16 17  2  0
 17 18  1  0
 18 19  1  0
 19 20  1  0
 17 21  1  0
 21 22  2  0
 11 23  1  0
 23 24  1  0
 24 25  1  0
 25 26  1  0
 26 27  1  0
 27 28  1  0
 28 29  1  0
 29 30  1  0
 23  2  1  0
 30 25  1  0
  9  3  1  0
 22 14  1  0
 20 18  1  0
  6 31  1  0
  7 32  1  0
  8 33  1  0
 12 34  1  0
 13 35  1  0
 15 36  1  0
 16 37  1  0
 18 38  1  0
 19 39  1  0
 19 40  1  0
 20 41  1  0
 20 42  1  0
 21 43  1  0
 22 44  1  0
 24 45  1  0
 24 46  1  0
 25 47  1  0
 26 48  1  0
 26 49  1  0
 27 50  1  0
 27 51  1  0
 28 52  1  0
 29 53  1  0
 29 54  1  0
 30 55  1  0
 30 56  1  0
M  END
>  <smiles>  (14) 
O=c1c2c(Cl)cccc2nc(/C=C/c2ccc(C3CC3)cc2)n1CC1CCNCC1

>  <score_type>  (14) 
oracle

>  <origin>  (14) 
autodockgpu

>  <m_score__min__energy>  (14) 
-8.9000000000000004

>  <m_primary>  (14) 
energy

>  <rmsd>  (14) 
5.409826782914822

>  <m_score__min__rmsd>  (14) 
5.409826782914822

>  <meeko>  (14) 
{"free_energy": -8.62, "intermolecular_energy": -10.41, "internal_energy": -1.39, "cluster_size": 12, "cluster_id": 1, "rank_in_cluster": 10}

>  <energy>  (14) 
-8.72

>  <cluster_rmsd>  (14) 
0.03

>  <cluster>  (14) 
2

$$$$

     RDKit          3D

 56 60  0  0  0  0  0  0  0  0999 V2000
  142.5210   75.6910  218.8240 O   0  0  0  0  0  0  0  0  0  0  0  0
  141.9000   75.4430  219.8930 C   0  0  0  0  0  0  0  0  0  0  0  0
  141.4530   76.5120  220.6410 C   0  0  0  0  0  0  0  0  0  0  0  0
  141.7020   77.7950  220.1950 C   0  0  0  0  0  0  0  0  0  0  0  0
  142.5670   78.0990  218.7060 Cl  0  0  0  0  0  0  0  0  0  0  0  0
  141.2280   78.8420  220.9900 C   0  0  0  0  0  0  0  0  0  0  0  0
  140.5460   78.5880  222.1620 C   0  0  0  0  0  0  0  0  0  0  0  0
  140.3040   77.3010  222.5990 C   0  0  0  0  0  0  0  0  0  0  0  0
  140.7710   76.2690  221.8150 C   0  0  0  0  0  0  0  0  0  0  0  0
  140.5830   74.9860  222.1570 N   0  0  0  0  0  0  0  0  0  0  0  0
  141.0180   73.9450  221.4270 C   0  0  0  0  0  0  0  0  0  0  0  0
  140.7570   72.5830  221.8760 C   0  0  0  0  0  0  0  0  0  0  0  0
  139.7410   72.3640  222.6820 C   0  0  0  0  0  0  0  0  0  0  0  0
  139.7530   71.4260  223.7900 C   0  0  0  0  0  0  0  0  0  0  0  0
  140.6980   71.5450  224.8120 C   0  0  0  0  0  0  0  0  0  0  0  0
  140.7410   70.6760  225.8790 C   0  0  0  0  0  0  0  0  0  0  0  0
  139.8490   69.6380  225.9910 C   0  0  0  0  0  0  0  0  0  0  0  0
  139.9590   68.7490  227.1610 C   0  0  0  0  0  0  0  0  0  0  0  0
  141.0250   68.9890  228.1860 C   0  0  0  0  0  0  0  0  0  0  0  0
  141.0670   67.7720  227.2890 C   0  0  0  0  0  0  0  0  0  0  0  0
  138.9090   69.4960  225.0000 C   0  0  0  0  0  0  0  0  0  0  0  0
  138.8660   70.3790  223.9200 C   0  0  0  0  0  0  0  0  0  0  0  0
  141.6860   74.1500  220.2810 N   0  0  0  0  0  0  0  0  0  0  0  0
  142.2070   73.1270  219.4340 C   0  0  0  0  0  0  0  0  0  0  0  0
  143.6830   72.9490  219.4500 C   0  0  0  0  0  0  0  0  0  0  0  0
  144.3220   72.9350  220.8120 C   0  0  0  0  0  0  0  0  0  0  0  0
  145.8340   72.9710  220.5500 C   0  0  0  0  0  0  0  0  0  0  0  0
  146.1910   71.9940  219.5560 N   0  0  0  0  0  0  0  0  0  0  0  0
  145.1990   70.9560  219.3750 C   0  0  0  0  0  0  0  0  0  0  0  0
  143.9770   71.6110  218.7650 C   0  0  0  0  0  0  0  0  0  0  0  0
  141.4009   79.8823  220.6772 H   0  0  0  0  0  0  0  0  0  0  0  0
  140.1851   79.4343  222.7649 H   0  0  0  0  0  0  0  0  0  0  0  0
  139.7602   77.1074  223.5354 H   0  0  0  0  0  0  0  0  0  0  0  0
  141.3987   71.7526  221.5464 H   0  0  0  0  0  0  0  0  0  0  0  0
  138.8161   72.9321  222.5039 H   0  0  0  0  0  0  0  0  0  0  0  0
  141.4334   72.3615  224.7625 H   0  0  0  0  0  0  0  0  0  0  0  0
  141.5054   70.8160  226.6575 H   0  0  0  0  0  0  0  0  0  0  0  0
  138.8623   68.6661  227.1796 H   0  0  0  0  0  0  0  0  0  0  0  0
  141.7517   69.8031  228.0475 H   0  0  0  0  0  0  0  0  0  0  0  0
  141.0429   69.1630  229.2720 H   0  0  0  0  0  0  0  0  0  0  0  0
  141.8284   67.6973  226.4987 H   0  0  0  0  0  0  0  0  0  0  0  0
  141.1314   66.6863  227.4537 H   0  0  0  0  0  0  0  0  0  0  0  0
  138.1796   68.6747  225.0582 H   0  0  0  0  0  0  0  0  0  0  0  0
  138.0979   70.2344  223.1460 H   0  0  0  0  0  0  0  0  0  0  0  0
  141.7508   72.1738  219.7396 H   0  0  0  0  0  0  0  0  0  0  0  0
  141.9597   73.4398  218.4088 H   0  0  0  0  0  0  0  0  0  0  0  0
  144.1134   73.8224  218.9381 H   0  0  0  0  0  0  0  0  0  0  0  0
  144.0105   73.8156  221.3929 H   0  0  0  0  0  0  0  0  0  0  0  0
  144.0275   72.0494  221.3942 H   0  0  0  0  0  0  0  0  0  0  0  0
  146.1169   73.9723  220.1930 H   0  0  0  0  0  0  0  0  0  0  0  0
  146.3652   72.7410  221.4854 H   0  0  0  0  0  0  0  0  0  0  0  0
  147.1170   71.5340  219.7630 H   0  0  0  0  0  0  0  0  0  0  0  0
  145.5860   70.1773  218.7012 H   0  0  0  0  0  0  0  0  0  0  0  0
  144.9505   70.4796  220.3348 H   0  0  0  0  0  0  0  0  0  0  0  0
  144.1572   71.7853  217.6939 H   0  0  0  0  0  0  0  0  0  0  0  0
  143.1123   70.9451  218.9024 H   0  0  0  0  0  0  0  0  0  0  0  0
  1  2  2  0
  2  3  1  0
  3  4  2  0
  4  5  1  0
  4  6  1  0
  6  7  2  0
  7  8  1  0
  8  9  2  0
  9 10  1  0
 10 11  2  0
 11 12  1  0
 12 13  2  0
 13 14  1  0
 14 15  2  0
 15 16  1  0
 16 17  2  0
 17 18  1  0
 18 19  1  0
 19 20  1  0
 17 21  1  0
 21 22  2  0
 11 23  1  0
 23 24  1  0
 24 25  1  0
 25 26  1  0
 26 27  1  0
 27 28  1  0
 28 29  1  0
 29 30  1  0
 23  2  1  0
 30 25  1  0
  9  3  1  0
 22 14  1  0
 20 18  1  0
  6 31  1  0
  7 32  1  0
  8 33  1  0
 12 34  1  0
 13 35  1  0
 15 36  1  0
 16 37  1  0
 18 38  1  0
 19 39  1  0
 19 40  1  0
 20 41  1  0
 20 42  1  0
 21 43  1  0
 22 44  1  0
 24 45  1  0
 24 46  1  0
 25 47  1  0
 26 48  1  0
 26 49  1  0
 27 50  1  0
 27 51  1  0
 28 52  1  0
 29 53  1  0
 29 54  1  0
 30 55  1  0
 30 56  1  0
M  END
>  <smiles>  (15) 
O=c1c2c(Cl)cccc2nc(/C=C/c2ccc(C3CC3)cc2)n1CC1CCNCC1

>  <score_type>  (15) 
oracle

>  <origin>  (15) 
autodockgpu

>  <m_score__min__energy>  (15) 
-8.9000000000000004

>  <m_primary>  (15) 
energy

>  <rmsd>  (15) 
5.594516402837514

>  <m_score__min__rmsd>  (15) 
5.594516402837514

>  <meeko>  (15) 
{"free_energy": -8.82, "intermolecular_energy": -10.6, "internal_energy": -1.31, "cluster_size": 12, "cluster_id": 1, "rank_in_cluster": 3}

>  <energy>  (15) 
-8.72

>  <cluster_rmsd>  (15) 
0.31

>  <cluster>  (15) 
2

$$$$

     RDKit          3D

 56 60  0  0  0  0  0  0  0  0999 V2000
  135.5570   75.2400  223.6820 O   0  0  0  0  0  0  0  0  0  0  0  0
  135.7410   73.9930  223.6510 C   0  0  0  0  0  0  0  0  0  0  0  0
  135.1020   73.2240  224.6010 C   0  0  0  0  0  0  0  0  0  0  0  0
  134.2980   73.8430  225.5370 C   0  0  0  0  0  0  0  0  0  0  0  0
  134.0660   75.5770  225.5480 Cl  0  0  0  0  0  0  0  0  0  0  0  0
  133.6740   73.0180  226.4770 C   0  0  0  0  0  0  0  0  0  0  0  0
  133.8640   71.6520  226.4570 C   0  0  0  0  0  0  0  0  0  0  0  0
  134.6720   71.0440  225.5170 C   0  0  0  0  0  0  0  0  0  0  0  0
  135.2860   71.8570  224.5900 C   0  0  0  0  0  0  0  0  0  0  0  0
  136.0880   71.3570  223.6390 N   0  0  0  0  0  0  0  0  0  0  0  0
  136.7090   72.1070  222.7130 C   0  0  0  0  0  0  0  0  0  0  0  0
  137.5560   71.4710  221.7100 C   0  0  0  0  0  0  0  0  0  0  0  0
  138.8170   71.2360  222.0020 C   0  0  0  0  0  0  0  0  0  0  0  0
  139.3210   70.9790  223.3380 C   0  0  0  0  0  0  0  0  0  0  0  0
  138.8730   69.8770  224.0690 C   0  0  0  0  0  0  0  0  0  0  0  0
  139.3270   69.6000  225.3390 C   0  0  0  0  0  0  0  0  0  0  0  0
  140.2530   70.4050  225.9570 C   0  0  0  0  0  0  0  0  0  0  0  0
  140.6900   70.0450  227.3170 C   0  0  0  0  0  0  0  0  0  0  0  0
  140.6890   68.6110  227.7490 C   0  0  0  0  0  0  0  0  0  0  0  0
  139.7220   69.6060  228.3510 C   0  0  0  0  0  0  0  0  0  0  0  0
  140.7100   71.4980  225.2620 C   0  0  0  0  0  0  0  0  0  0  0  0
  140.2490   71.7760  223.9750 C   0  0  0  0  0  0  0  0  0  0  0  0
  136.5500   73.4400  222.6990 N   0  0  0  0  0  0  0  0  0  0  0  0
  137.1700   74.3370  221.7780 C   0  0  0  0  0  0  0  0  0  0  0  0
  138.6310   74.5520  221.9530 C   0  0  0  0  0  0  0  0  0  0  0  0
  139.4720   74.3400  220.7240 C   0  0  0  0  0  0  0  0  0  0  0  0
  140.9260   74.3970  221.2130 C   0  0  0  0  0  0  0  0  0  0  0  0
  141.1230   75.5460  222.0550 N   0  0  0  0  0  0  0  0  0  0  0  0
  140.1140   76.5700  221.8910 C   0  0  0  0  0  0  0  0  0  0  0  0
  138.8140   76.0000  222.4190 C   0  0  0  0  0  0  0  0  0  0  0  0
  133.0226   73.4641  227.2430 H   0  0  0  0  0  0  0  0  0  0  0  0
  133.3581   71.0302  227.2103 H   0  0  0  0  0  0  0  0  0  0  0  0
  134.8195   69.9540  225.5087 H   0  0  0  0  0  0  0  0  0  0  0  0
  137.1476   71.1929  220.7272 H   0  0  0  0  0  0  0  0  0  0  0  0
  139.5411   71.2342  221.1740 H   0  0  0  0  0  0  0  0  0  0  0  0
  138.1302   69.2055  223.6136 H   0  0  0  0  0  0  0  0  0  0  0  0
  138.9407   68.7170  225.8691 H   0  0  0  0  0  0  0  0  0  0  0  0
  141.4433   70.8451  227.2674 H   0  0  0  0  0  0  0  0  0  0  0  0
  140.3240   67.8287  227.0673 H   0  0  0  0  0  0  0  0  0  0  0  0
  141.4402   67.9111  228.1439 H   0  0  0  0  0  0  0  0  0  0  0  0
  138.6502   69.5458  228.1109 H   0  0  0  0  0  0  0  0  0  0  0  0
  139.4748   69.9300  229.3727 H   0  0  0  0  0  0  0  0  0  0  0  0
  141.4510   72.1645  225.7274 H   0  0  0  0  0  0  0  0  0  0  0  0
  140.6388   72.6608  223.4505 H   0  0  0  0  0  0  0  0  0  0  0  0
  137.0080   73.9420  220.7642 H   0  0  0  0  0  0  0  0  0  0  0  0
  136.7043   75.3164  221.9623 H   0  0  0  0  0  0  0  0  0  0  0  0
  138.9786   73.7976  222.6742 H   0  0  0  0  0  0  0  0  0  0  0  0
  139.2553   73.3603  220.2732 H   0  0  0  0  0  0  0  0  0  0  0  0
  139.2689   75.0974  219.9526 H   0  0  0  0  0  0  0  0  0  0  0  0
  141.1530   73.4848  221.7843 H   0  0  0  0  0  0  0  0  0  0  0  0
  141.5944   74.4716  220.3425 H   0  0  0  0  0  0  0  0  0  0  0  0
  142.0690   75.9890  221.9100 H   0  0  0  0  0  0  0  0  0  0  0  0
  140.3917   77.4686  222.4615 H   0  0  0  0  0  0  0  0  0  0  0  0
  140.0155   76.8580  220.8340 H   0  0  0  0  0  0  0  0  0  0  0  0
  138.8278   76.0268  223.5186 H   0  0  0  0  0  0  0  0  0  0  0  0
  137.9796   76.6045  222.0339 H   0  0  0  0  0  0  0  0  0  0  0  0
  1  2  2  0
  2  3  1  0
  3  4  2  0
  4  5  1  0
  4  6  1  0
  6  7  2  0
  7  8  1  0
  8  9  2  0
  9 10  1  0
 10 11  2  0
 11 12  1  0
 12 13  2  0
 13 14  1  0
 14 15  2  0
 15 16  1  0
 16 17  2  0
 17 18  1  0
 18 19  1  0
 19 20  1  0
 17 21  1  0
 21 22  2  0
 11 23  1  0
 23 24  1  0
 24 25  1  0
 25 26  1  0
 26 27  1  0
 27 28  1  0
 28 29  1  0
 29 30  1  0
 23  2  1  0
 30 25  1  0
  9  3  1  0
 22 14  1  0
 20 18  1  0
  6 31  1  0
  7 32  1  0
  8 33  1  0
 12 34  1  0
 13 35  1  0
 15 36  1  0
 16 37  1  0
 18 38  1  0
 19 39  1  0
 19 40  1  0
 20 41  1  0
 20 42  1  0
 21 43  1  0
 22 44  1  0
 24 45  1  0
 24 46  1  0
 25 47  1  0
 26 48  1  0
 26 49  1  0
 27 50  1  0
 27 51  1  0
 28 52  1  0
 29 53  1  0
 29 54  1  0
 30 55  1  0
 30 56  1  0
M  END
>  <smiles>  (16) 
O=c1c2c(Cl)cccc2nc(/C=C/c2ccc(C3CC3)cc2)n1CC1CCNCC1

>  <score_type>  (16) 
oracle

>  <origin>  (16) 
autodockgpu

>  <m_score__min__energy>  (16) 
-8.9000000000000004

>  <m_primary>  (16) 
energy

>  <rmsd>  (16) 
8.90056726079852

>  <m_score__min__rmsd>  (16) 
8.90056726079852

>  <meeko>  (16) 
{"free_energy": -7.83, "intermolecular_energy": -9.62, "internal_energy": -2.11, "cluster_size": 13, "cluster_id": 6, "rank_in_cluster": 6}

>  <energy>  (16) 
-8.62

>  <cluster_rmsd>  (16) 
0.35

>  <cluster>  (16) 
2

$$$$

     RDKit          3D

 56 60  0  0  0  0  0  0  0  0999 V2000
  140.2310   71.9090  225.1880 O   0  0  0  0  0  0  0  0  0  0  0  0
  139.7730   70.7360  225.1480 C   0  0  0  0  0  0  0  0  0  0  0  0
  140.0410   69.9020  226.2130 C   0  0  0  0  0  0  0  0  0  0  0  0
  140.7940   70.3810  227.2680 C   0  0  0  0  0  0  0  0  0  0  0  0
  141.4130   72.0160  227.2880 Cl  0  0  0  0  0  0  0  0  0  0  0  0
  141.0370   69.4960  228.3210 C   0  0  0  0  0  0  0  0  0  0  0  0
  140.5420   68.2090  228.2940 C   0  0  0  0  0  0  0  0  0  0  0  0
  139.7920   67.7400  227.2340 C   0  0  0  0  0  0  0  0  0  0  0  0
  139.5510   68.6130  226.1950 C   0  0  0  0  0  0  0  0  0  0  0  0
  138.8330   68.2490  225.1240 N   0  0  0  0  0  0  0  0  0  0  0  0
  138.5700   69.0620  224.0860 C   0  0  0  0  0  0  0  0  0  0  0  0
  137.7700   68.5790  222.9680 C   0  0  0  0  0  0  0  0  0  0  0  0
  136.4730   68.7990  222.9730 C   0  0  0  0  0  0  0  0  0  0  0  0
  135.7610   69.5090  224.0190 C   0  0  0  0  0  0  0  0  0  0  0  0
  135.6660   70.9020  223.9960 C   0  0  0  0  0  0  0  0  0  0  0  0
  134.9990   71.6120  224.9710 C   0  0  0  0  0  0  0  0  0  0  0  0
  134.3900   70.9760  226.0240 C   0  0  0  0  0  0  0  0  0  0  0  0
  133.6960   71.8030  227.0290 C   0  0  0  0  0  0  0  0  0  0  0  0
  132.2030   71.9140  227.0050 C   0  0  0  0  0  0  0  0  0  0  0  0
  133.0770   73.1010  226.6690 C   0  0  0  0  0  0  0  0  0  0  0  0
  134.4680   69.6060  226.0740 C   0  0  0  0  0  0  0  0  0  0  0  0
  135.1430   68.8890  225.0850 C   0  0  0  0  0  0  0  0  0  0  0  0
  139.0340   70.3220  224.0760 N   0  0  0  0  0  0  0  0  0  0  0  0
  138.8340   71.2670  223.0250 C   0  0  0  0  0  0  0  0  0  0  0  0
  140.0600   71.8890  222.4570 C   0  0  0  0  0  0  0  0  0  0  0  0
  140.6370   71.2030  221.2500 C   0  0  0  0  0  0  0  0  0  0  0  0
  141.9900   71.8860  221.0050 C   0  0  0  0  0  0  0  0  0  0  0  0
  141.8400   73.3160  221.0420 N   0  0  0  0  0  0  0  0  0  0  0  0
  140.4780   73.7650  220.8510 C   0  0  0  0  0  0  0  0  0  0  0  0
  139.6910   73.3230  222.0680 C   0  0  0  0  0  0  0  0  0  0  0  0
  141.6316   69.8303  229.1840 H   0  0  0  0  0  0  0  0  0  0  0  0
  140.7505   67.5378  229.1402 H   0  0  0  0  0  0  0  0  0  0  0  0
  139.4026   66.7113  227.2192 H   0  0  0  0  0  0  0  0  0  0  0  0
  138.2426   68.0396  222.1339 H   0  0  0  0  0  0  0  0  0  0  0  0
  135.8867   68.4176  222.1240 H   0  0  0  0  0  0  0  0  0  0  0  0
  136.1405   71.4523  223.1702 H   0  0  0  0  0  0  0  0  0  0  0  0
  134.9538   72.7090  224.9040 H   0  0  0  0  0  0  0  0  0  0  0  0
  134.4442   71.4947  227.7741 H   0  0  0  0  0  0  0  0  0  0  0  0
  131.6242   71.4127  226.2153 H   0  0  0  0  0  0  0  0  0  0  0  0
  131.3910   71.7164  227.7203 H   0  0  0  0  0  0  0  0  0  0  0  0
  133.1318   73.4681  225.6335 H   0  0  0  0  0  0  0  0  0  0  0  0
  133.1631   74.1332  227.0395 H   0  0  0  0  0  0  0  0  0  0  0  0
  133.9916   69.0659  226.9055 H   0  0  0  0  0  0  0  0  0  0  0  0
  135.1836   67.7922  225.1581 H   0  0  0  0  0  0  0  0  0  0  0  0
  138.3092   70.7523  222.2067 H   0  0  0  0  0  0  0  0  0  0  0  0
  138.2677   72.0943  223.4777 H   0  0  0  0  0  0  0  0  0  0  0  0
  140.8398   71.8178  223.2295 H   0  0  0  0  0  0  0  0  0  0  0  0
  140.7770   70.1298  221.4468 H   0  0  0  0  0  0  0  0  0  0  0  0
  139.9732   71.2821  220.3765 H   0  0  0  0  0  0  0  0  0  0  0  0
  142.7002   71.5751  221.7853 H   0  0  0  0  0  0  0  0  0  0  0  0
  142.3663   71.5907  220.0145 H   0  0  0  0  0  0  0  0  0  0  0  0
  142.4500   73.7990  220.3310 H   0  0  0  0  0  0  0  0  0  0  0  0
  140.4506   74.8610  220.7610 H   0  0  0  0  0  0  0  0  0  0  0  0
  140.0499   73.3400  219.9311 H   0  0  0  0  0  0  0  0  0  0  0  0
  139.9175   73.9953  222.9087 H   0  0  0  0  0  0  0  0  0  0  0  0
  138.6179   73.3605  221.8291 H   0  0  0  0  0  0  0  0  0  0  0  0
  1  2  2  0
  2  3  1  0
  3  4  2  0
  4  5  1  0
  4  6  1  0
  6  7  2  0
  7  8  1  0
  8  9  2  0
  9 10  1  0
 10 11  2  0
 11 12  1  0
 12 13  2  0
 13 14  1  0
 14 15  2  0
 15 16  1  0
 16 17  2  0
 17 18  1  0
 18 19  1  0
 19 20  1  0
 17 21  1  0
 21 22  2  0
 11 23  1  0
 23 24  1  0
 24 25  1  0
 25 26  1  0
 26 27  1  0
 27 28  1  0
 28 29  1  0
 29 30  1  0
 23  2  1  0
 30 25  1  0
  9  3  1  0
 22 14  1  0
 20 18  1  0
  6 31  1  0
  7 32  1  0
  8 33  1  0
 12 34  1  0
 13 35  1  0
 15 36  1  0
 16 37  1  0
 18 38  1  0
 19 39  1  0
 19 40  1  0
 20 41  1  0
 20 42  1  0
 21 43  1  0
 22 44  1  0
 24 45  1  0
 24 46  1  0
 25 47  1  0
 26 48  1  0
 26 49  1  0
 27 50  1  0
 27 51  1  0
 28 52  1  0
 29 53  1  0
 29 54  1  0
 30 55  1  0
 30 56  1  0
M  END
>  <smiles>  (17) 
O=c1c2c(Cl)cccc2nc(/C=C/c2ccc(C3CC3)cc2)n1CC1CCNCC1

>  <score_type>  (17) 
oracle

>  <origin>  (17) 
autodockgpu

>  <m_score__min__energy>  (17) 
-8.9000000000000004

>  <m_primary>  (17) 
energy

>  <rmsd>  (17) 
11.203684525991408

>  <m_score__min__rmsd>  (17) 
11.203684525991408

>  <meeko>  (17) 
{"free_energy": -8.27, "intermolecular_energy": -10.06, "internal_energy": -1.82, "cluster_size": 12, "cluster_id": 5, "rank_in_cluster": 2}

>  <energy>  (17) 
-8.36

>  <cluster_rmsd>  (17) 
0.68

>  <cluster>  (17) 
2

$$$$

     RDKit          3D

 56 60  0  0  0  0  0  0  0  0999 V2000
  142.2490   75.7240  218.6730 O   0  0  0  0  0  0  0  0  0  0  0  0
  141.7620   75.4860  219.8110 C   0  0  0  0  0  0  0  0  0  0  0  0
  141.4400   76.5610  220.6120 C   0  0  0  0  0  0  0  0  0  0  0  0
  141.6610   77.8400  220.1410 C   0  0  0  0  0  0  0  0  0  0  0  0
  142.3380   78.1310  218.5550 Cl  0  0  0  0  0  0  0  0  0  0  0  0
  141.3170   78.8940  220.9920 C   0  0  0  0  0  0  0  0  0  0  0  0
  140.7840   78.6510  222.2400 C   0  0  0  0  0  0  0  0  0  0  0  0
  140.5680   77.3680  222.7020 C   0  0  0  0  0  0  0  0  0  0  0  0
  140.9060   76.3290  221.8630 C   0  0  0  0  0  0  0  0  0  0  0  0
  140.7320   75.0490  222.2230 N   0  0  0  0  0  0  0  0  0  0  0  0
  141.0460   74.0020  221.4420 C   0  0  0  0  0  0  0  0  0  0  0  0
  140.8110   72.6430  221.9180 C   0  0  0  0  0  0  0  0  0  0  0  0
  139.7600   72.4080  222.6730 C   0  0  0  0  0  0  0  0  0  0  0  0
  139.7180   71.4360  223.7490 C   0  0  0  0  0  0  0  0  0  0  0  0
  140.7020   71.4290  224.7410 C   0  0  0  0  0  0  0  0  0  0  0  0
  140.6960   70.5220  225.7780 C   0  0  0  0  0  0  0  0  0  0  0  0
  139.7130   69.5700  225.8880 C   0  0  0  0  0  0  0  0  0  0  0  0
  139.7760   68.6340  227.0240 C   0  0  0  0  0  0  0  0  0  0  0  0
  140.2460   69.1120  228.3630 C   0  0  0  0  0  0  0  0  0  0  0  0
  141.0710   68.1400  227.5500 C   0  0  0  0  0  0  0  0  0  0  0  0
  138.7330   69.5530  224.9260 C   0  0  0  0  0  0  0  0  0  0  0  0
  138.7400   70.4720  223.8770 C   0  0  0  0  0  0  0  0  0  0  0  0
  141.5680   74.1970  220.2200 N   0  0  0  0  0  0  0  0  0  0  0  0
  141.9530   73.1650  219.3120 C   0  0  0  0  0  0  0  0  0  0  0  0
  143.4130   72.9110  219.1870 C   0  0  0  0  0  0  0  0  0  0  0  0
  144.1260   73.7200  218.1380 C   0  0  0  0  0  0  0  0  0  0  0  0
  145.5360   73.1200  218.0530 C   0  0  0  0  0  0  0  0  0  0  0  0
  146.0910   72.9630  219.3710 N   0  0  0  0  0  0  0  0  0  0  0  0
  145.4400   73.7730  220.3780 C   0  0  0  0  0  0  0  0  0  0  0  0
  144.0370   73.2270  220.5480 C   0  0  0  0  0  0  0  0  0  0  0  0
  141.4737   79.9314  220.6615 H   0  0  0  0  0  0  0  0  0  0  0  0
  140.5236   79.5028  222.8855 H   0  0  0  0  0  0  0  0  0  0  0  0
  140.1432   77.1829  223.6996 H   0  0  0  0  0  0  0  0  0  0  0  0
  141.5008   71.8291  221.6501 H   0  0  0  0  0  0  0  0  0  0  0  0
  138.8479   72.9899  222.4744 H   0  0  0  0  0  0  0  0  0  0  0  0
  141.5099   72.1739  224.6923 H   0  0  0  0  0  0  0  0  0  0  0  0
  141.4950   70.5614  226.5331 H   0  0  0  0  0  0  0  0  0  0  0  0
  138.8684   68.1414  226.6450 H   0  0  0  0  0  0  0  0  0  0  0  0
  140.5838   70.1509  228.4917 H   0  0  0  0  0  0  0  0  0  0  0  0
  139.8289   69.1256  229.3808 H   0  0  0  0  0  0  0  0  0  0  0  0
  142.0137   68.4700  227.0891 H   0  0  0  0  0  0  0  0  0  0  0  0
  141.5082   67.1475  227.7336 H   0  0  0  0  0  0  0  0  0  0  0  0
  137.9303   68.8031  224.9837 H   0  0  0  0  0  0  0  0  0  0  0  0
  137.9378   70.4264  223.1258 H   0  0  0  0  0  0  0  0  0  0  0  0
  141.4771   72.2307  219.6446 H   0  0  0  0  0  0  0  0  0  0  0  0
  141.6284   73.5103  218.3193 H   0  0  0  0  0  0  0  0  0  0  0  0
  143.5274   71.8636  218.8709 H   0  0  0  0  0  0  0  0  0  0  0  0
  143.6116   73.6340  217.1695 H   0  0  0  0  0  0  0  0  0  0  0  0
  144.1503   74.7901  218.3916 H   0  0  0  0  0  0  0  0  0  0  0  0
  145.4833   72.1372  217.5618 H   0  0  0  0  0  0  0  0  0  0  0  0
  146.1791   73.7972  217.4718 H   0  0  0  0  0  0  0  0  0  0  0  0
  147.1240   73.1720  219.3960 H   0  0  0  0  0  0  0  0  0  0  0  0
  145.9889   73.7065  221.3290 H   0  0  0  0  0  0  0  0  0  0  0  0
  145.4154   74.8302  220.0753 H   0  0  0  0  0  0  0  0  0  0  0  0
  144.0777   72.3068  221.1494 H   0  0  0  0  0  0  0  0  0  0  0  0
  143.4204   73.9851  221.0532 H   0  0  0  0  0  0  0  0  0  0  0  0
  1  2  2  0
  2  3  1  0
  3  4  2  0
  4  5  1  0
  4  6  1  0
  6  7  2  0
  7  8  1  0
  8  9  2  0
  9 10  1  0
 10 11  2  0
 11 12  1  0
 12 13  2  0
 13 14  1  0
 14 15  2  0
 15 16  1  0
 16 17  2  0
 17 18  1  0
 18 19  1  0
 19 20  1  0
 17 21  1  0
 21 22  2  0
 11 23  1  0
 23 24  1  0
 24 25  1  0
 25 26  1  0
 26 27  1  0
 27 28  1  0
 28 29  1  0
 29 30  1  0
 23  2  1  0
 30 25  1  0
  9  3  1  0
 22 14  1  0
 20 18  1  0
  6 31  1  0
  7 32  1  0
  8 33  1  0
 12 34  1  0
 13 35  1  0
 15 36  1  0
 16 37  1  0
 18 38  1  0
 19 39  1  0
 19 40  1  0
 20 41  1  0
 20 42  1  0
 21 43  1  0
 22 44  1  0
 24 45  1  0
 24 46  1  0
 25 47  1  0
 26 48  1  0
 26 49  1  0
 27 50  1  0
 27 51  1  0
 28 52  1  0
 29 53  1  0
 29 54  1  0
 30 55  1  0
 30 56  1  0
M  END
>  <smiles>  (18) 
O=c1c2c(Cl)cccc2nc(/C=C/c2ccc(C3CC3)cc2)n1CC1CCNCC1

>  <score_type>  (18) 
oracle

>  <origin>  (18) 
autodockgpu

>  <m_score__min__energy>  (18) 
-8.9000000000000004

>  <m_primary>  (18) 
energy

>  <rmsd>  (18) 
5.2716076482398115

>  <m_score__min__rmsd>  (18) 
5.2716076482398115

>  <meeko>  (18) 
{"free_energy": -8.8, "intermolecular_energy": -10.59, "internal_energy": -1.32, "cluster_size": 12, "cluster_id": 1, "rank_in_cluster": 4}

>  <energy>  (18) 
-8.54

>  <cluster_rmsd>  (18) 
0.0

>  <cluster>  (18) 
3

$$$$

     RDKit          3D

 56 60  0  0  0  0  0  0  0  0999 V2000
  138.6610   68.6710  223.9120 O   0  0  0  0  0  0  0  0  0  0  0  0
  139.1890   69.8160  223.9090 C   0  0  0  0  0  0  0  0  0  0  0  0
  139.8730   70.2130  225.0390 C   0  0  0  0  0  0  0  0  0  0  0  0
  139.9490   69.3520  226.1150 C   0  0  0  0  0  0  0  0  0  0  0  0
  139.2040   67.7700  226.0820 Cl  0  0  0  0  0  0  0  0  0  0  0  0
  140.6530   69.8030  227.2350 C   0  0  0  0  0  0  0  0  0  0  0  0
  141.2370   71.0520  227.2490 C   0  0  0  0  0  0  0  0  0  0  0  0
  141.1530   71.9060  226.1680 C   0  0  0  0  0  0  0  0  0  0  0  0
  140.4590   71.4610  225.0630 C   0  0  0  0  0  0  0  0  0  0  0  0
  140.3250   72.2190  223.9650 N   0  0  0  0  0  0  0  0  0  0  0  0
  139.6600   71.8310  222.8640 C   0  0  0  0  0  0  0  0  0  0  0  0
  139.5760   72.7230  221.7130 C   0  0  0  0  0  0  0  0  0  0  0  0
  138.9710   73.8820  221.8520 C   0  0  0  0  0  0  0  0  0  0  0  0
  139.6430   75.1690  221.8580 C   0  0  0  0  0  0  0  0  0  0  0  0
  139.1430   76.2300  222.6160 C   0  0  0  0  0  0  0  0  0  0  0  0
  139.7520   77.4640  222.6470 C   0  0  0  0  0  0  0  0  0  0  0  0
  140.8920   77.7160  221.9250 C   0  0  0  0  0  0  0  0  0  0  0  0
  141.4860   79.0620  222.0080 C   0  0  0  0  0  0  0  0  0  0  0  0
  142.4710   79.3800  223.0910 C   0  0  0  0  0  0  0  0  0  0  0  0
  141.0980   80.0140  223.0760 C   0  0  0  0  0  0  0  0  0  0  0  0
  141.4060   76.6900  221.1690 C   0  0  0  0  0  0  0  0  0  0  0  0
  140.7880   75.4400  221.1400 C   0  0  0  0  0  0  0  0  0  0  0  0
  139.0780   70.6230  222.8120 N   0  0  0  0  0  0  0  0  0  0  0  0
  138.3340   70.1110  221.7060 C   0  0  0  0  0  0  0  0  0  0  0  0
  139.1240   69.4560  220.6300 C   0  0  0  0  0  0  0  0  0  0  0  0
  140.5790   69.8320  220.5690 C   0  0  0  0  0  0  0  0  0  0  0  0
  141.1030   69.2170  219.2650 C   0  0  0  0  0  0  0  0  0  0  0  0
  140.6890   67.8430  219.1610 N   0  0  0  0  0  0  0  0  0  0  0  0
  140.2990   67.2540  220.4240 C   0  0  0  0  0  0  0  0  0  0  0  0
  139.0250   67.9460  220.8610 C   0  0  0  0  0  0  0  0  0  0  0  0
  140.7424   69.1525  228.1176 H   0  0  0  0  0  0  0  0  0  0  0  0
  141.7847   71.3766  228.1460 H   0  0  0  0  0  0  0  0  0  0  0  0
  141.6208   72.9014  226.1873 H   0  0  0  0  0  0  0  0  0  0  0  0
  140.0111   72.4312  220.7458 H   0  0  0  0  0  0  0  0  0  0  0  0
  137.8776   73.8762  221.9724 H   0  0  0  0  0  0  0  0  0  0  0  0
  138.2300   76.0740  223.2094 H   0  0  0  0  0  0  0  0  0  0  0  0
  139.3163   78.2645  223.2629 H   0  0  0  0  0  0  0  0  0  0  0  0
  141.4918   79.1087  220.9090 H   0  0  0  0  0  0  0  0  0  0  0  0
  142.7223   78.6236  223.8491 H   0  0  0  0  0  0  0  0  0  0  0  0
  143.5056   79.7520  223.1248 H   0  0  0  0  0  0  0  0  0  0  0  0
  140.3494   79.7224  223.8273 H   0  0  0  0  0  0  0  0  0  0  0  0
  140.7176   81.0459  223.0974 H   0  0  0  0  0  0  0  0  0  0  0  0
  142.3185   76.8571  220.5779 H   0  0  0  0  0  0  0  0  0  0  0  0
  141.2293   74.6433  220.5231 H   0  0  0  0  0  0  0  0  0  0  0  0
  137.6197   69.3708  222.0959 H   0  0  0  0  0  0  0  0  0  0  0  0
  137.8658   70.9879  221.2351 H   0  0  0  0  0  0  0  0  0  0  0  0
  138.6983   69.7952  219.6741 H   0  0  0  0  0  0  0  0  0  0  0  0
  140.6937   70.9259  220.5522 H   0  0  0  0  0  0  0  0  0  0  0  0
  141.1336   69.4667  221.4460 H   0  0  0  0  0  0  0  0  0  0  0  0
  140.7031   69.7825  218.4104 H   0  0  0  0  0  0  0  0  0  0  0  0
  142.2021   69.2613  219.2640 H   0  0  0  0  0  0  0  0  0  0  0  0
  141.4340   67.2340  218.7290 H   0  0  0  0  0  0  0  0  0  0  0  0
  140.1194   66.1760  220.2986 H   0  0  0  0  0  0  0  0  0  0  0  0
  141.0914   67.3790  221.1766 H   0  0  0  0  0  0  0  0  0  0  0  0
  138.1798   67.5465  220.2813 H   0  0  0  0  0  0  0  0  0  0  0  0
  138.8721   67.7613  221.9345 H   0  0  0  0  0  0  0  0  0  0  0  0
  1  2  2  0
  2  3  1  0
  3  4  2  0
  4  5  1  0
  4  6  1  0
  6  7  2  0
  7  8  1  0
  8  9  2  0
  9 10  1  0
 10 11  2  0
 11 12  1  0
 12 13  2  0
 13 14  1  0
 14 15  2  0
 15 16  1  0
 16 17  2  0
 17 18  1  0
 18 19  1  0
 19 20  1  0
 17 21  1  0
 21 22  2  0
 11 23  1  0
 23 24  1  0
 24 25  1  0
 25 26  1  0
 26 27  1  0
 27 28  1  0
 28 29  1  0
 29 30  1  0
 23  2  1  0
 30 25  1  0
  9  3  1  0
 22 14  1  0
 20 18  1  0
  6 31  1  0
  7 32  1  0
  8 33  1  0
 12 34  1  0
 13 35  1  0
 15 36  1  0
 16 37  1  0
 18 38  1  0
 19 39  1  0
 19 40  1  0
 20 41  1  0
 20 42  1  0
 21 43  1  0
 22 44  1  0
 24 45  1  0
 24 46  1  0
 25 47  1  0
 26 48  1  0
 26 49  1  0
 27 50  1  0
 27 51  1  0
 28 52  1  0
 29 53  1  0
 29 54  1  0
 30 55  1  0
 30 56  1  0
M  END
>  <smiles>  (19) 
O=c1c2c(Cl)cccc2nc(/C=C/c2ccc(C3CC3)cc2)n1CC1CCNCC1

>  <score_type>  (19) 
oracle

>  <origin>  (19) 
autodockgpu

>  <m_score__min__energy>  (19) 
-8.9000000000000004

>  <m_primary>  (19) 
energy

>  <rmsd>  (19) 
10.426738481509316

>  <m_score__min__rmsd>  (19) 
10.426738481509316

>  <meeko>  (19) 
{"free_energy": -7.53, "intermolecular_energy": -9.32, "internal_energy": -1.42, "cluster_size": 1, "cluster_id": 8, "rank_in_cluster": 1}

>  <energy>  (19) 
-8.43

>  <cluster_rmsd>  (19) 
0.0

>  <cluster>  (19) 
4

$$$$

     RDKit          3D

 56 60  0  0  0  0  0  0  0  0999 V2000
  139.0870   68.3820  225.2750 O   0  0  0  0  0  0  0  0  0  0  0  0
  139.5260   69.5240  224.9730 C   0  0  0  0  0  0  0  0  0  0  0  0
  140.1670   70.2490  225.9550 C   0  0  0  0  0  0  0  0  0  0  0  0
  140.2990   69.7010  227.2160 C   0  0  0  0  0  0  0  0  0  0  0  0
  139.6760   68.1110  227.5970 Cl  0  0  0  0  0  0  0  0  0  0  0  0
  140.9550   70.4770  228.1750 C   0  0  0  0  0  0  0  0  0  0  0  0
  141.4420   71.7280  227.8610 C   0  0  0  0  0  0  0  0  0  0  0  0
  141.3030   72.2670  226.5980 C   0  0  0  0  0  0  0  0  0  0  0  0
  140.6560   71.5020  225.6520 C   0  0  0  0  0  0  0  0  0  0  0  0
  140.4750   71.9400  224.3980 N   0  0  0  0  0  0  0  0  0  0  0  0
  139.8520   71.2330  223.4400 C   0  0  0  0  0  0  0  0  0  0  0  0
  139.7100   71.7900  222.1000 C   0  0  0  0  0  0  0  0  0  0  0  0
  138.8650   72.7800  221.9100 C   0  0  0  0  0  0  0  0  0  0  0  0
  139.2050   74.1870  222.0140 C   0  0  0  0  0  0  0  0  0  0  0  0
  140.5190   74.6180  221.8210 C   0  0  0  0  0  0  0  0  0  0  0  0
  140.8810   75.9430  221.9110 C   0  0  0  0  0  0  0  0  0  0  0  0
  139.9570   76.9170  222.1990 C   0  0  0  0  0  0  0  0  0  0  0  0
  140.4200   78.3140  222.2800 C   0  0  0  0  0  0  0  0  0  0  0  0
  141.7740   78.6850  221.7590 C   0  0  0  0  0  0  0  0  0  0  0  0
  141.4710   78.7270  223.2400 C   0  0  0  0  0  0  0  0  0  0  0  0
  138.6560   76.5220  222.3950 C   0  0  0  0  0  0  0  0  0  0  0  0
  138.2910   75.1790  222.3030 C   0  0  0  0  0  0  0  0  0  0  0  0
  139.3630   70.0110  223.7060 N   0  0  0  0  0  0  0  0  0  0  0  0
  138.6720   69.1770  222.7770 C   0  0  0  0  0  0  0  0  0  0  0  0
  137.3300   68.6950  223.1990 C   0  0  0  0  0  0  0  0  0  0  0  0
  136.3780   69.7550  223.6810 C   0  0  0  0  0  0  0  0  0  0  0  0
  135.1800   68.9920  224.2600 C   0  0  0  0  0  0  0  0  0  0  0  0
  134.7480   67.9720  223.3420 N   0  0  0  0  0  0  0  0  0  0  0  0
  135.2010   68.1800  221.9840 C   0  0  0  0  0  0  0  0  0  0  0  0
  136.7060   68.0000  221.9860 C   0  0  0  0  0  0  0  0  0  0  0  0
  141.0847   70.0845  229.1944 H   0  0  0  0  0  0  0  0  0  0  0  0
  141.9555   72.3127  228.6385 H   0  0  0  0  0  0  0  0  0  0  0  0
  141.6929   73.2668  226.3564 H   0  0  0  0  0  0  0  0  0  0  0  0
  140.2995   71.3891  221.2623 H   0  0  0  0  0  0  0  0  0  0  0  0
  137.8265   72.5231  221.6540 H   0  0  0  0  0  0  0  0  0  0  0  0
  141.2929   73.8717  221.5886 H   0  0  0  0  0  0  0  0  0  0  0  0
  141.9312   76.2272  221.7490 H   0  0  0  0  0  0  0  0  0  0  0  0
  139.3901   78.6481  222.0859 H   0  0  0  0  0  0  0  0  0  0  0  0
  142.4413   77.9105  221.3531 H   0  0  0  0  0  0  0  0  0  0  0  0
  142.1593   79.4002  221.0174 H   0  0  0  0  0  0  0  0  0  0  0  0
  141.9219   77.9846  223.9149 H   0  0  0  0  0  0  0  0  0  0  0  0
  141.5479   79.4903  224.0283 H   0  0  0  0  0  0  0  0  0  0  0  0
  137.8903   77.2765  222.6281 H   0  0  0  0  0  0  0  0  0  0  0  0
  137.2392   74.9016  222.4663 H   0  0  0  0  0  0  0  0  0  0  0  0
  138.5460   69.7463  221.8442 H   0  0  0  0  0  0  0  0  0  0  0  0
  139.2909   68.2732  222.6761 H   0  0  0  0  0  0  0  0  0  0  0  0
  137.4883   68.0359  224.0653 H   0  0  0  0  0  0  0  0  0  0  0  0
  136.8518   70.3740  224.4571 H   0  0  0  0  0  0  0  0  0  0  0  0
  136.0775   70.4349  222.8702 H   0  0  0  0  0  0  0  0  0  0  0  0
  135.4731   68.5238  225.2113 H   0  0  0  0  0  0  0  0  0  0  0  0
  134.3527   69.6975  224.4269 H   0  0  0  0  0  0  0  0  0  0  0  0
  133.6990   67.8670  223.3270 H   0  0  0  0  0  0  0  0  0  0  0  0
  134.7335   67.4443  221.3130 H   0  0  0  0  0  0  0  0  0  0  0  0
  134.9264   69.1840  221.6282 H   0  0  0  0  0  0  0  0  0  0  0  0
  136.9416   66.9262  222.0237 H   0  0  0  0  0  0  0  0  0  0  0  0
  137.1180   68.4479  221.0697 H   0  0  0  0  0  0  0  0  0  0  0  0
  1  2  2  0
  2  3  1  0
  3  4  2  0
  4  5  1  0
  4  6  1  0
  6  7  2  0
  7  8  1  0
  8  9  2  0
  9 10  1  0
 10 11  2  0
 11 12  1  0
 12 13  2  0
 13 14  1  0
 14 15  2  0
 15 16  1  0
 16 17  2  0
 17 18  1  0
 18 19  1  0
 19 20  1  0
 17 21  1  0
 21 22  2  0
 11 23  1  0
 23 24  1  0
 24 25  1  0
 25 26  1  0
 26 27  1  0
 27 28  1  0
 28 29  1  0
 29 30  1  0
 23  2  1  0
 30 25  1  0
  9  3  1  0
 22 14  1  0
 20 18  1  0
  6 31  1  0
  7 32  1  0
  8 33  1  0
 12 34  1  0
 13 35  1  0
 15 36  1  0
 16 37  1  0
 18 38  1  0
 19 39  1  0
 19 40  1  0
 20 41  1  0
 20 42  1  0
 21 43  1  0
 22 44  1  0
 24 45  1  0
 24 46  1  0
 25 47  1  0
 26 48  1  0
 26 49  1  0
 27 50  1  0
 27 51  1  0
 28 52  1  0
 29 53  1  0
 29 54  1  0
 30 55  1  0
 30 56  1  0
M  END
>  <smiles>  (20) 
O=c1c2c(Cl)cccc2nc(/C=C/c2ccc(C3CC3)cc2)n1CC1CCNCC1

>  <score_type>  (20) 
oracle

>  <origin>  (20) 
autodockgpu

>  <m_score__min__energy>  (20) 
-8.9000000000000004

>  <m_primary>  (20) 
energy

>  <rmsd>  (20) 
11.403477686363793

>  <m_score__min__rmsd>  (20) 
11.403477686363793

>  <meeko>  (20) 
{"free_energy": -8.62, "intermolecular_energy": -10.41, "internal_energy": -1.42, "cluster_size": 5, "cluster_id": 2, "rank_in_cluster": 4}

>  <energy>  (20) 
-8.41

>  <cluster_rmsd>  (20) 
0.09

>  <cluster>  (20) 
4

$$$$

     RDKit          3D

 56 60  0  0  0  0  0  0  0  0999 V2000
  142.3550   76.5190  218.5740 O   0  0  0  0  0  0  0  0  0  0  0  0
  141.8890   76.1030  219.6680 C   0  0  0  0  0  0  0  0  0  0  0  0
  141.4370   77.0390  220.5740 C   0  0  0  0  0  0  0  0  0  0  0  0
  141.5130   78.3790  220.2490 C   0  0  0  0  0  0  0  0  0  0  0  0
  142.1660   78.9190  218.7190 Cl  0  0  0  0  0  0  0  0  0  0  0  0
  141.0420   79.2870  221.2020 C   0  0  0  0  0  0  0  0  0  0  0  0
  140.5280   78.8490  222.4040 C   0  0  0  0  0  0  0  0  0  0  0  0
  140.4580   77.5060  222.7190 C   0  0  0  0  0  0  0  0  0  0  0  0
  140.9220   76.6110  221.7800 C   0  0  0  0  0  0  0  0  0  0  0  0
  140.8940   75.2880  221.9960 N   0  0  0  0  0  0  0  0  0  0  0  0
  141.3330   74.3760  221.1120 C   0  0  0  0  0  0  0  0  0  0  0  0
  141.2530   72.9560  221.4330 C   0  0  0  0  0  0  0  0  0  0  0  0
  140.1200   72.4730  221.8940 C   0  0  0  0  0  0  0  0  0  0  0  0
  139.9990   71.6320  223.0710 C   0  0  0  0  0  0  0  0  0  0  0  0
  139.1880   70.4950  223.0540 C   0  0  0  0  0  0  0  0  0  0  0  0
  139.0480   69.6730  224.1490 C   0  0  0  0  0  0  0  0  0  0  0  0
  139.7060   69.9340  225.3260 C   0  0  0  0  0  0  0  0  0  0  0  0
  139.5050   69.0090  226.4550 C   0  0  0  0  0  0  0  0  0  0  0  0
  140.4800   68.9920  227.5920 C   0  0  0  0  0  0  0  0  0  0  0  0
  140.3680   67.8190  226.6440 C   0  0  0  0  0  0  0  0  0  0  0  0
  140.5100   71.0460  225.3720 C   0  0  0  0  0  0  0  0  0  0  0  0
  140.6520   71.8780  224.2610 C   0  0  0  0  0  0  0  0  0  0  0  0
  141.8400   74.7630  219.9310 N   0  0  0  0  0  0  0  0  0  0  0  0
  142.3500   73.8880  218.9250 C   0  0  0  0  0  0  0  0  0  0  0  0
  143.7410   73.3990  219.1230 C   0  0  0  0  0  0  0  0  0  0  0  0
  144.3240   73.6300  220.4900 C   0  0  0  0  0  0  0  0  0  0  0  0
  145.8070   73.2530  220.3670 C   0  0  0  0  0  0  0  0  0  0  0  0
  145.9450   71.9810  219.7090 N   0  0  0  0  0  0  0  0  0  0  0  0
  144.7390   71.1820  219.7250 C   0  0  0  0  0  0  0  0  0  0  0  0
  143.7240   71.8920  218.8530 C   0  0  0  0  0  0  0  0  0  0  0  0
  141.0821   80.3656  220.9899 H   0  0  0  0  0  0  0  0  0  0  0  0
  140.1638   79.5891  223.1318 H   0  0  0  0  0  0  0  0  0  0  0  0
  140.0482   77.1647  223.6811 H   0  0  0  0  0  0  0  0  0  0  0  0
  142.1249   72.3003  221.2921 H   0  0  0  0  0  0  0  0  0  0  0  0
  139.1982   72.7242  221.3488 H   0  0  0  0  0  0  0  0  0  0  0  0
  138.6414   70.2475  222.1321 H   0  0  0  0  0  0  0  0  0  0  0  0
  138.3963   68.7895  224.0801 H   0  0  0  0  0  0  0  0  0  0  0  0
  138.4192   69.1568  226.3596 H   0  0  0  0  0  0  0  0  0  0  0  0
  141.3689   69.6395  227.5677 H   0  0  0  0  0  0  0  0  0  0  0  0
  140.4157   69.1279  228.6817 H   0  0  0  0  0  0  0  0  0  0  0  0
  141.1788   67.6088  225.9310 H   0  0  0  0  0  0  0  0  0  0  0  0
  140.1900   66.7397  226.7598 H   0  0  0  0  0  0  0  0  0  0  0  0
  141.0509   71.2848  226.2996 H   0  0  0  0  0  0  0  0  0  0  0  0
  141.3062   72.7591  224.3365 H   0  0  0  0  0  0  0  0  0  0  0  0
  141.6892   73.0099  218.8776 H   0  0  0  0  0  0  0  0  0  0  0  0
  142.3767   74.4852  218.0016 H   0  0  0  0  0  0  0  0  0  0  0  0
  144.3803   73.9737  218.4367 H   0  0  0  0  0  0  0  0  0  0  0  0
  144.2176   74.6855  220.7809 H   0  0  0  0  0  0  0  0  0  0  0  0
  143.8120   73.0344  221.2602 H   0  0  0  0  0  0  0  0  0  0  0  0
  146.3301   74.0233  219.7814 H   0  0  0  0  0  0  0  0  0  0  0  0
  146.2440   73.1846  221.3742 H   0  0  0  0  0  0  0  0  0  0  0  0
  146.7280   71.4050  220.1160 H   0  0  0  0  0  0  0  0  0  0  0  0
  144.9454   70.1788  219.3237 H   0  0  0  0  0  0  0  0  0  0  0  0
  144.3603   71.0645  220.7510 H   0  0  0  0  0  0  0  0  0  0  0  0
  143.9670   71.7116  217.7955 H   0  0  0  0  0  0  0  0  0  0  0  0
  142.7222   71.5016  219.0856 H   0  0  0  0  0  0  0  0  0  0  0  0
  1  2  2  0
  2  3  1  0
  3  4  2  0
  4  5  1  0
  4  6  1  0
  6  7  2  0
  7  8  1  0
  8  9  2  0
  9 10  1  0
 10 11  2  0
 11 12  1  0
 12 13  2  0
 13 14  1  0
 14 15  2  0
 15 16  1  0
 16 17  2  0
 17 18  1  0
 18 19  1  0
 19 20  1  0
 17 21  1  0
 21 22  2  0
 11 23  1  0
 23 24  1  0
 24 25  1  0
 25 26  1  0
 26 27  1  0
 27 28  1  0
 28 29  1  0
 29 30  1  0
 23  2  1  0
 30 25  1  0
  9  3  1  0
 22 14  1  0
 20 18  1  0
  6 31  1  0
  7 32  1  0
  8 33  1  0
 12 34  1  0
 13 35  1  0
 15 36  1  0
 16 37  1  0
 18 38  1  0
 19 39  1  0
 19 40  1  0
 20 41  1  0
 20 42  1  0
 21 43  1  0
 22 44  1  0
 24 45  1  0
 24 46  1  0
 25 47  1  0
 26 48  1  0
 26 49  1  0
 27 50  1  0
 27 51  1  0
 28 52  1  0
 29 53  1  0
 29 54  1  0
 30 55  1  0
 30 56  1  0
M  END
>  <smiles>  (21) 
O=c1c2c(Cl)cccc2nc(/C=C/c2ccc(C3CC3)cc2)n1CC1CCNCC1

>  <score_type>  (21) 
oracle

>  <origin>  (21) 
autodockgpu

>  <m_score__min__energy>  (21) 
-8.9000000000000004

>  <m_primary>  (21) 
energy

>  <rmsd>  (21) 
5.248590495122864

>  <m_score__min__rmsd>  (21) 
5.248590495122864

>  <meeko>  (21) 
{"free_energy": -8.7, "intermolecular_energy": -10.49, "internal_energy": -1.34, "cluster_size": 12, "cluster_id": 1, "rank_in_cluster": 8}

>  <energy>  (21) 
-8.4

>  <cluster_rmsd>  (21) 
0.08

>  <cluster>  (21) 
4

$$$$

     RDKit          3D

 56 60  0  0  0  0  0  0  0  0999 V2000
  142.3310   75.5970  218.7380 O   0  0  0  0  0  0  0  0  0  0  0  0
  141.7870   75.3420  219.8460 C   0  0  0  0  0  0  0  0  0  0  0  0
  141.4420   76.4050  220.6550 C   0  0  0  0  0  0  0  0  0  0  0  0
  141.7050   77.6900  220.2230 C   0  0  0  0  0  0  0  0  0  0  0  0
  142.4610   78.0040  218.6780 Cl  0  0  0  0  0  0  0  0  0  0  0  0
  141.3360   78.7310  221.0800 C   0  0  0  0  0  0  0  0  0  0  0  0
  140.7400   78.4690  222.2960 C   0  0  0  0  0  0  0  0  0  0  0  0
  140.4840   77.1800  222.7190 C   0  0  0  0  0  0  0  0  0  0  0  0
  140.8460   76.1540  221.8730 C   0  0  0  0  0  0  0  0  0  0  0  0
  140.6370   74.8700  222.1970 N   0  0  0  0  0  0  0  0  0  0  0  0
  140.9720   73.8350  221.4080 C   0  0  0  0  0  0  0  0  0  0  0  0
  140.6940   72.4700  221.8420 C   0  0  0  0  0  0  0  0  0  0  0  0
  139.6870   72.2570  222.6600 C   0  0  0  0  0  0  0  0  0  0  0  0
  139.7260   71.3630  223.8020 C   0  0  0  0  0  0  0  0  0  0  0  0
  140.7080   71.5060  224.7850 C   0  0  0  0  0  0  0  0  0  0  0  0
  140.7790   70.6780  225.8830 C   0  0  0  0  0  0  0  0  0  0  0  0
  139.8770   69.6590  226.0670 C   0  0  0  0  0  0  0  0  0  0  0  0
  140.0180   68.8140  227.2660 C   0  0  0  0  0  0  0  0  0  0  0  0
  139.5170   69.3040  228.5900 C   0  0  0  0  0  0  0  0  0  0  0  0
  140.9980   69.1370  228.3300 C   0  0  0  0  0  0  0  0  0  0  0  0
  138.9000   69.4940  225.1150 C   0  0  0  0  0  0  0  0  0  0  0  0
  138.8300   70.3340  224.0040 C   0  0  0  0  0  0  0  0  0  0  0  0
  141.5540   74.0480  220.2170 N   0  0  0  0  0  0  0  0  0  0  0  0
  141.9670   73.0300  219.3060 C   0  0  0  0  0  0  0  0  0  0  0  0
  143.4330   72.8110  219.1850 C   0  0  0  0  0  0  0  0  0  0  0  0
  144.1240   73.6140  218.1170 C   0  0  0  0  0  0  0  0  0  0  0  0
  145.5490   73.0480  218.0450 C   0  0  0  0  0  0  0  0  0  0  0  0
  146.1090   72.9370  219.3650 N   0  0  0  0  0  0  0  0  0  0  0  0
  145.4380   73.7530  220.3550 C   0  0  0  0  0  0  0  0  0  0  0  0
  144.0500   73.1740  220.5380 C   0  0  0  0  0  0  0  0  0  0  0  0
  141.5234   79.7728  220.7806 H   0  0  0  0  0  0  0  0  0  0  0  0
  140.4609   79.3106  222.9470 H   0  0  0  0  0  0  0  0  0  0  0  0
  140.0104   76.9800  223.6915 H   0  0  0  0  0  0  0  0  0  0  0  0
  141.3162   71.6336  221.4909 H   0  0  0  0  0  0  0  0  0  0  0  0
  138.7477   72.7951  222.4646 H   0  0  0  0  0  0  0  0  0  0  0  0
  141.4518   72.3094  224.6781 H   0  0  0  0  0  0  0  0  0  0  0  0
  141.5736   70.8359  226.6271 H   0  0  0  0  0  0  0  0  0  0  0  0
  139.8348   67.9273  226.6413 H   0  0  0  0  0  0  0  0  0  0  0  0
  139.0812   70.3101  228.6782 H   0  0  0  0  0  0  0  0  0  0  0  0
  138.8072   68.9347  229.3449 H   0  0  0  0  0  0  0  0  0  0  0  0
  141.6427   70.0230  228.2333 H   0  0  0  0  0  0  0  0  0  0  0  0
  141.8179   68.5941  228.8231 H   0  0  0  0  0  0  0  0  0  0  0  0
  138.1617   68.6869  225.2310 H   0  0  0  0  0  0  0  0  0  0  0  0
  138.0331   70.1704  223.2636 H   0  0  0  0  0  0  0  0  0  0  0  0
  141.5123   72.0831  219.6325 H   0  0  0  0  0  0  0  0  0  0  0  0
  141.6382   73.3725  218.3138 H   0  0  0  0  0  0  0  0  0  0  0  0
  143.5741   71.7600  218.8928 H   0  0  0  0  0  0  0  0  0  0  0  0
  143.6117   73.4926  217.1512 H   0  0  0  0  0  0  0  0  0  0  0  0
  144.1205   74.6900  218.3454 H   0  0  0  0  0  0  0  0  0  0  0  0
  145.5209   72.0525  217.5778 H   0  0  0  0  0  0  0  0  0  0  0  0
  146.1742   73.7273  217.4469 H   0  0  0  0  0  0  0  0  0  0  0  0
  147.1360   73.1730  219.3850 H   0  0  0  0  0  0  0  0  0  0  0  0
  145.9889   73.7220  221.3066 H   0  0  0  0  0  0  0  0  0  0  0  0
  145.3862   74.8024  220.0295 H   0  0  0  0  0  0  0  0  0  0  0  0
  144.1153   72.2689  221.1597 H   0  0  0  0  0  0  0  0  0  0  0  0
  143.4140   73.9271  221.0263 H   0  0  0  0  0  0  0  0  0  0  0  0
  1  2  2  0
  2  3  1  0
  3  4  2  0
  4  5  1  0
  4  6  1  0
  6  7  2  0
  7  8  1  0
  8  9  2  0
  9 10  1  0
 10 11  2  0
 11 12  1  0
 12 13  2  0
 13 14  1  0
 14 15  2  0
 15 16  1  0
 16 17  2  0
 17 18  1  0
 18 19  1  0
 19 20  1  0
 17 21  1  0
 21 22  2  0
 11 23  1  0
 23 24  1  0
 24 25  1  0
 25 26  1  0
 26 27  1  0
 27 28  1  0
 28 29  1  0
 29 30  1  0
 23  2  1  0
 30 25  1  0
  9  3  1  0
 22 14  1  0
 20 18  1  0
  6 31  1  0
  7 32  1  0
  8 33  1  0
 12 34  1  0
 13 35  1  0
 15 36  1  0
 16 37  1  0
 18 38  1  0
 19 39  1  0
 19 40  1  0
 20 41  1  0
 20 42  1  0
 21 43  1  0
 22 44  1  0
 24 45  1  0
 24 46  1  0
 25 47  1  0
 26 48  1  0
 26 49  1  0
 27 50  1  0
 27 51  1  0
 28 52  1  0
 29 53  1  0
 29 54  1  0
 30 55  1  0
 30 56  1  0
M  END
>  <smiles>  (22) 
O=c1c2c(Cl)cccc2nc(/C=C/c2ccc(C3CC3)cc2)n1CC1CCNCC1

>  <score_type>  (22) 
oracle

>  <origin>  (22) 
autodockgpu

>  <m_score__min__energy>  (22) 
-8.9000000000000004

>  <m_primary>  (22) 
energy

>  <rmsd>  (22) 
5.378039832494623

>  <m_score__min__rmsd>  (22) 
5.378039832494623

>  <meeko>  (22) 
{"free_energy": -8.78, "intermolecular_energy": -10.57, "internal_energy": -1.31, "cluster_size": 12, "cluster_id": 1, "rank_in_cluster": 7}

>  <energy>  (22) 
-8.34

>  <cluster_rmsd>  (22) 
0.71

>  <cluster>  (22) 
4

$$$$

     RDKit          3D

 56 60  0  0  0  0  0  0  0  0999 V2000
  135.2620   75.8530  224.2490 O   0  0  0  0  0  0  0  0  0  0  0  0
  135.3920   74.6180  224.0350 C   0  0  0  0  0  0  0  0  0  0  0  0
  134.7290   73.7460  224.8730 C   0  0  0  0  0  0  0  0  0  0  0  0
  133.9600   74.2550  225.9010 C   0  0  0  0  0  0  0  0  0  0  0  0
  133.8030   75.9770  226.1660 Cl  0  0  0  0  0  0  0  0  0  0  0  0
  133.3090   73.3290  226.7210 C   0  0  0  0  0  0  0  0  0  0  0  0
  133.4400   71.9740  226.5000 C   0  0  0  0  0  0  0  0  0  0  0  0
  134.2120   71.4750  225.4710 C   0  0  0  0  0  0  0  0  0  0  0  0
  134.8530   72.3880  224.6620 C   0  0  0  0  0  0  0  0  0  0  0  0
  135.6250   71.9990  223.6370 N   0  0  0  0  0  0  0  0  0  0  0  0
  136.2700   72.8490  222.8200 C   0  0  0  0  0  0  0  0  0  0  0  0
  137.0790   72.3310  221.7230 C   0  0  0  0  0  0  0  0  0  0  0  0
  137.8900   71.3220  221.9560 C   0  0  0  0  0  0  0  0  0  0  0  0
  138.6590   71.1440  223.1740 C   0  0  0  0  0  0  0  0  0  0  0  0
  139.8210   71.8870  223.3970 C   0  0  0  0  0  0  0  0  0  0  0  0
  140.5760   71.7470  224.5400 C   0  0  0  0  0  0  0  0  0  0  0  0
  140.2210   70.8590  225.5260 C   0  0  0  0  0  0  0  0  0  0  0  0
  141.0810   70.7640  226.7190 C   0  0  0  0  0  0  0  0  0  0  0  0
  140.4800   70.4280  228.0490 C   0  0  0  0  0  0  0  0  0  0  0  0
  141.0520   71.8020  227.7780 C   0  0  0  0  0  0  0  0  0  0  0  0
  139.0830   70.1140  225.3320 C   0  0  0  0  0  0  0  0  0  0  0  0
  138.3180   70.2590  224.1740 C   0  0  0  0  0  0  0  0  0  0  0  0
  136.1680   74.1750  223.0020 N   0  0  0  0  0  0  0  0  0  0  0  0
  136.8180   75.1700  222.2100 C   0  0  0  0  0  0  0  0  0  0  0  0
  138.2980   75.2440  222.3340 C   0  0  0  0  0  0  0  0  0  0  0  0
  139.0740   74.8510  221.1080 C   0  0  0  0  0  0  0  0  0  0  0  0
  140.5410   74.7930  221.5580 C   0  0  0  0  0  0  0  0  0  0  0  0
  140.8810   75.9770  222.3010 N   0  0  0  0  0  0  0  0  0  0  0  0
  139.9770   77.0850  222.0790 C   0  0  0  0  0  0  0  0  0  0  0  0
  138.6420   76.6960  222.6800 C   0  0  0  0  0  0  0  0  0  0  0  0
  132.6842   73.6855  227.5532 H   0  0  0  0  0  0  0  0  0  0  0  0
  132.9141   71.2711  227.1629 H   0  0  0  0  0  0  0  0  0  0  0  0
  134.3117   70.3924  225.3033 H   0  0  0  0  0  0  0  0  0  0  0  0
  137.0123   72.7758  220.7192 H   0  0  0  0  0  0  0  0  0  0  0  0
  137.9928   70.5581  221.1712 H   0  0  0  0  0  0  0  0  0  0  0  0
  140.1441   72.6091  222.6327 H   0  0  0  0  0  0  0  0  0  0  0  0
  141.4816   72.3586  224.6660 H   0  0  0  0  0  0  0  0  0  0  0  0
  141.8766   70.3363  226.0912 H   0  0  0  0  0  0  0  0  0  0  0  0
  139.3928   70.2911  228.1455 H   0  0  0  0  0  0  0  0  0  0  0  0
  140.6417   69.6476  228.8072 H   0  0  0  0  0  0  0  0  0  0  0  0
  140.3807   72.6680  227.6812 H   0  0  0  0  0  0  0  0  0  0  0  0
  141.8055   72.4404  228.2624 H   0  0  0  0  0  0  0  0  0  0  0  0
  138.7702   69.3924  226.1011 H   0  0  0  0  0  0  0  0  0  0  0  0
  137.4122   69.6463  224.0553 H   0  0  0  0  0  0  0  0  0  0  0  0
  136.5792   74.9683  221.1554 H   0  0  0  0  0  0  0  0  0  0  0  0
  136.4427   76.1345  222.5827 H   0  0  0  0  0  0  0  0  0  0  0  0
  138.5893   74.5151  223.1046 H   0  0  0  0  0  0  0  0  0  0  0  0
  138.7441   73.8675  220.7421 H   0  0  0  0  0  0  0  0  0  0  0  0
  138.9260   75.5636  220.2832 H   0  0  0  0  0  0  0  0  0  0  0  0
  140.6907   73.9089  222.1952 H   0  0  0  0  0  0  0  0  0  0  0  0
  141.1863   74.7298  220.6694 H   0  0  0  0  0  0  0  0  0  0  0  0
  141.8620   76.3060  222.0990 H   0  0  0  0  0  0  0  0  0  0  0  0
  140.3624   77.9909  222.5697 H   0  0  0  0  0  0  0  0  0  0  0  0
  139.8759   77.2995  221.0048 H   0  0  0  0  0  0  0  0  0  0  0  0
  138.6922   76.8050  223.7734 H   0  0  0  0  0  0  0  0  0  0  0  0
  137.8623   77.3533  222.2677 H   0  0  0  0  0  0  0  0  0  0  0  0
  1  2  2  0
  2  3  1  0
  3  4  2  0
  4  5  1  0
  4  6  1  0
  6  7  2  0
  7  8  1  0
  8  9  2  0
  9 10  1  0
 10 11  2  0
 11 12  1  0
 12 13  2  0
 13 14  1  0
 14 15  2  0
 15 16  1  0
 16 17  2  0
 17 18  1  0
 18 19  1  0
 19 20  1  0
 17 21  1  0
 21 22  2  0
 11 23  1  0
 23 24  1  0
 24 25  1  0
 25 26  1  0
 26 27  1  0
 27 28  1  0
 28 29  1  0
 29 30  1  0
 23  2  1  0
 30 25  1  0
  9  3  1  0
 22 14  1  0
 20 18  1  0
  6 31  1  0
  7 32  1  0
  8 33  1  0
 12 34  1  0
 13 35  1  0
 15 36  1  0
 16 37  1  0
 18 38  1  0
 19 39  1  0
 19 40  1  0
 20 41  1  0
 20 42  1  0
 21 43  1  0
 22 44  1  0
 24 45  1  0
 24 46  1  0
 25 47  1  0
 26 48  1  0
 26 49  1  0
 27 50  1  0
 27 51  1  0
 28 52  1  0
 29 53  1  0
 29 54  1  0
 30 55  1  0
 30 56  1  0
M  END
>  <smiles>  (23) 
O=c1c2c(Cl)cccc2nc(/C=C/c2ccc(C3CC3)cc2)n1CC1CCNCC1

>  <score_type>  (23) 
oracle

>  <origin>  (23) 
autodockgpu

>  <m_score__min__energy>  (23) 
-8.9000000000000004

>  <m_primary>  (23) 
energy

>  <rmsd>  (23) 
8.857007271434135

>  <m_score__min__rmsd>  (23) 
8.857007271434135

>  <meeko>  (23) 
{"free_energy": -7.92, "intermolecular_energy": -9.71, "internal_energy": -2.05, "cluster_size": 13, "cluster_id": 6, "rank_in_cluster": 2}

>  <energy>  (23) 
-8.28

>  <cluster_rmsd>  (23) 
0.48

>  <cluster>  (23) 
4

$$$$

     RDKit          3D

 56 60  0  0  0  0  0  0  0  0999 V2000
  135.9380   76.0400  222.2510 O   0  0  0  0  0  0  0  0  0  0  0  0
  136.0000   74.8480  222.6560 C   0  0  0  0  0  0  0  0  0  0  0  0
  135.3160   74.5230  223.8090 C   0  0  0  0  0  0  0  0  0  0  0  0
  134.5990   75.5050  224.4640 C   0  0  0  0  0  0  0  0  0  0  0  0
  134.5360   77.1490  223.8690 Cl  0  0  0  0  0  0  0  0  0  0  0  0
  133.9240   75.1230  225.6260 C   0  0  0  0  0  0  0  0  0  0  0  0
  133.9810   73.8240  226.0840 C   0  0  0  0  0  0  0  0  0  0  0  0
  134.7020   72.8500  225.4220 C   0  0  0  0  0  0  0  0  0  0  0  0
  135.3670   73.2260  224.2750 C   0  0  0  0  0  0  0  0  0  0  0  0
  136.0920   72.3510  223.5640 N   0  0  0  0  0  0  0  0  0  0  0  0
  136.7580   72.6680  222.4410 C   0  0  0  0  0  0  0  0  0  0  0  0
  137.5130   71.6430  221.7290 C   0  0  0  0  0  0  0  0  0  0  0  0
  138.7760   71.4530  222.0420 C   0  0  0  0  0  0  0  0  0  0  0  0
  139.2610   71.1670  223.3800 C   0  0  0  0  0  0  0  0  0  0  0  0
  138.6700   70.1660  224.1520 C   0  0  0  0  0  0  0  0  0  0  0  0
  139.1010   69.8650  225.4250 C   0  0  0  0  0  0  0  0  0  0  0  0
  140.1450   70.5440  226.0030 C   0  0  0  0  0  0  0  0  0  0  0  0
  140.5500   70.1660  227.3690 C   0  0  0  0  0  0  0  0  0  0  0  0
  140.6590   68.7200  227.7450 C   0  0  0  0  0  0  0  0  0  0  0  0
  139.5780   69.5980  228.3350 C   0  0  0  0  0  0  0  0  0  0  0  0
  140.7460   71.5350  225.2670 C   0  0  0  0  0  0  0  0  0  0  0  0
  140.3080   71.8380  223.9770 C   0  0  0  0  0  0  0  0  0  0  0  0
  136.7270   73.9220  221.9630 N   0  0  0  0  0  0  0  0  0  0  0  0
  137.4060   74.3770  220.7930 C   0  0  0  0  0  0  0  0  0  0  0  0
  138.6840   75.1030  221.0150 C   0  0  0  0  0  0  0  0  0  0  0  0
  138.9070   75.6170  222.4110 C   0  0  0  0  0  0  0  0  0  0  0  0
  140.1550   76.5050  222.3210 C   0  0  0  0  0  0  0  0  0  0  0  0
  141.2020   75.8230  221.6090 N   0  0  0  0  0  0  0  0  0  0  0  0
  141.0260   74.3880  221.5450 C   0  0  0  0  0  0  0  0  0  0  0  0
  139.8150   74.1290  220.6720 C   0  0  0  0  0  0  0  0  0  0  0  0
  133.3388   75.8693  226.1833 H   0  0  0  0  0  0  0  0  0  0  0  0
  133.4373   73.5560  227.0019 H   0  0  0  0  0  0  0  0  0  0  0  0
  134.7438   71.8160  225.7950 H   0  0  0  0  0  0  0  0  0  0  0  0
  137.0342   71.0394  220.9439 H   0  0  0  0  0  0  0  0  0  0  0  0
  139.5179   71.5152  221.2322 H   0  0  0  0  0  0  0  0  0  0  0  0
  137.8294   69.5967  223.7285 H   0  0  0  0  0  0  0  0  0  0  0  0
  138.5992   69.0653  225.9895 H   0  0  0  0  0  0  0  0  0  0  0  0
  141.2292   71.0310  227.3884 H   0  0  0  0  0  0  0  0  0  0  0  0
  140.3994   67.9383  227.0159 H   0  0  0  0  0  0  0  0  0  0  0  0
  141.4513   68.0735  228.1504 H   0  0  0  0  0  0  0  0  0  0  0  0
  138.5287   69.4528  228.0385 H   0  0  0  0  0  0  0  0  0  0  0  0
  139.2544   69.8543  229.3546 H   0  0  0  0  0  0  0  0  0  0  0  0
  141.5853   72.0986  225.7005 H   0  0  0  0  0  0  0  0  0  0  0  0
  140.8145   72.6384  223.4178 H   0  0  0  0  0  0  0  0  0  0  0  0
  137.6237   73.4981  220.1684 H   0  0  0  0  0  0  0  0  0  0  0  0
  136.7297   75.1085  220.3266 H   0  0  0  0  0  0  0  0  0  0  0  0
  138.6531   76.0001  220.3792 H   0  0  0  0  0  0  0  0  0  0  0  0
  138.0400   76.2039  222.7485 H   0  0  0  0  0  0  0  0  0  0  0  0
  139.0377   74.7980  223.1336 H   0  0  0  0  0  0  0  0  0  0  0  0
  139.9014   77.4348  221.7907 H   0  0  0  0  0  0  0  0  0  0  0  0
  140.5048   76.7350  223.3382 H   0  0  0  0  0  0  0  0  0  0  0  0
  142.1550   76.0210  222.0140 H   0  0  0  0  0  0  0  0  0  0  0  0
  141.9172   73.9173  221.1042 H   0  0  0  0  0  0  0  0  0  0  0  0
  140.8832   73.9647  222.5502 H   0  0  0  0  0  0  0  0  0  0  0  0
  140.0960   74.2588  219.6165 H   0  0  0  0  0  0  0  0  0  0  0  0
  139.4638   73.1017  220.8491 H   0  0  0  0  0  0  0  0  0  0  0  0
  1  2  2  0
  2  3  1  0
  3  4  2  0
  4  5  1  0
  4  6  1  0
  6  7  2  0
  7  8  1  0
  8  9  2  0
  9 10  1  0
 10 11  2  0
 11 12  1  0
 12 13  2  0
 13 14  1  0
 14 15  2  0
 15 16  1  0
 16 17  2  0
 17 18  1  0
 18 19  1  0
 19 20  1  0
 17 21  1  0
 21 22  2  0
 11 23  1  0
 23 24  1  0
 24 25  1  0
 25 26  1  0
 26 27  1  0
 27 28  1  0
 28 29  1  0
 29 30  1  0
 23  2  1  0
 30 25  1  0
  9  3  1  0
 22 14  1  0
 20 18  1  0
  6 31  1  0
  7 32  1  0
  8 33  1  0
 12 34  1  0
 13 35  1  0
 15 36  1  0
 16 37  1  0
 18 38  1  0
 19 39  1  0
 19 40  1  0
 20 41  1  0
 20 42  1  0
 21 43  1  0
 22 44  1  0
 24 45  1  0
 24 46  1  0
 25 47  1  0
 26 48  1  0
 26 49  1  0
 27 50  1  0
 27 51  1  0
 28 52  1  0
 29 53  1  0
 29 54  1  0
 30 55  1  0
 30 56  1  0
M  END
>  <smiles>  (24) 
O=c1c2c(Cl)cccc2nc(/C=C/c2ccc(C3CC3)cc2)n1CC1CCNCC1

>  <score_type>  (24) 
oracle

>  <origin>  (24) 
autodockgpu

>  <m_score__min__energy>  (24) 
-8.9000000000000004

>  <m_primary>  (24) 
energy

>  <rmsd>  (24) 
7.8692908803567

>  <m_score__min__rmsd>  (24) 
7.8692908803567

>  <meeko>  (24) 
{"free_energy": -7.17, "intermolecular_energy": -8.96, "internal_energy": -2.02, "cluster_size": 13, "cluster_id": 6, "rank_in_cluster": 13}

>  <energy>  (24) 
-8.28

>  <cluster_rmsd>  (24) 
0.0

>  <cluster>  (24) 
5

$$$$

     RDKit          3D

 56 60  0  0  0  0  0  0  0  0999 V2000
  136.5300   77.3470  223.0790 O   0  0  0  0  0  0  0  0  0  0  0  0
  137.4990   76.6040  222.7700 C   0  0  0  0  0  0  0  0  0  0  0  0
  138.7430   77.1860  222.6400 C   0  0  0  0  0  0  0  0  0  0  0  0
  138.8740   78.5440  222.8520 C   0  0  0  0  0  0  0  0  0  0  0  0
  137.5050   79.5440  223.2810 Cl  0  0  0  0  0  0  0  0  0  0  0  0
  140.1550   79.0840  222.7070 C   0  0  0  0  0  0  0  0  0  0  0  0
  141.2260   78.2840  222.3690 C   0  0  0  0  0  0  0  0  0  0  0  0
  141.0840   76.9270  222.1590 C   0  0  0  0  0  0  0  0  0  0  0  0
  139.8210   76.3950  222.3010 C   0  0  0  0  0  0  0  0  0  0  0  0
  139.5850   75.0880  222.1180 N   0  0  0  0  0  0  0  0  0  0  0  0
  138.3730   74.5210  222.2460 C   0  0  0  0  0  0  0  0  0  0  0  0
  138.2160   73.0860  222.0350 C   0  0  0  0  0  0  0  0  0  0  0  0
  139.2480   72.2980  222.2430 C   0  0  0  0  0  0  0  0  0  0  0  0
  139.4570   71.5110  223.4450 C   0  0  0  0  0  0  0  0  0  0  0  0
  138.4890   70.6020  223.8780 C   0  0  0  0  0  0  0  0  0  0  0  0
  138.6510   69.8390  225.0120 C   0  0  0  0  0  0  0  0  0  0  0  0
  139.7840   69.9350  225.7820 C   0  0  0  0  0  0  0  0  0  0  0  0
  139.8840   69.0860  226.9820 C   0  0  0  0  0  0  0  0  0  0  0  0
  139.6030   69.6650  228.3350 C   0  0  0  0  0  0  0  0  0  0  0  0
  141.0010   69.2370  227.9460 C   0  0  0  0  0  0  0  0  0  0  0  0
  140.7530   70.8220  225.3800 C   0  0  0  0  0  0  0  0  0  0  0  0
  140.5870   71.5950  224.2300 C   0  0  0  0  0  0  0  0  0  0  0  0
  137.3050   75.2650  222.5730 N   0  0  0  0  0  0  0  0  0  0  0  0
  135.9720   74.7780  222.7200 C   0  0  0  0  0  0  0  0  0  0  0  0
  135.4560   74.6840  224.1120 C   0  0  0  0  0  0  0  0  0  0  0  0
  134.2530   75.5330  224.4180 C   0  0  0  0  0  0  0  0  0  0  0  0
  134.0650   75.4360  225.9380 C   0  0  0  0  0  0  0  0  0  0  0  0
  134.1280   74.0630  226.3610 N   0  0  0  0  0  0  0  0  0  0  0  0
  133.9050   73.1120  225.2930 C   0  0  0  0  0  0  0  0  0  0  0  0
  135.0870   73.2180  224.3510 C   0  0  0  0  0  0  0  0  0  0  0  0
  140.3108   80.1614  222.8646 H   0  0  0  0  0  0  0  0  0  0  0  0
  142.2215   78.7399  222.2637 H   0  0  0  0  0  0  0  0  0  0  0  0
  141.9439   76.2963  221.8893 H   0  0  0  0  0  0  0  0  0  0  0  0
  137.2515   72.6706  221.7077 H   0  0  0  0  0  0  0  0  0  0  0  0
  140.0070   72.2303  221.4497 H   0  0  0  0  0  0  0  0  0  0  0  0
  137.5646   70.4920  223.2921 H   0  0  0  0  0  0  0  0  0  0  0  0
  137.8566   69.1379  225.3076 H   0  0  0  0  0  0  0  0  0  0  0  0
  139.4896   68.2423  226.3967 H   0  0  0  0  0  0  0  0  0  0  0  0
  139.3610   70.7329  228.4398 H   0  0  0  0  0  0  0  0  0  0  0  0
  138.9129   69.4316  229.1592 H   0  0  0  0  0  0  0  0  0  0  0  0
  141.7795   69.9943  227.7715 H   0  0  0  0  0  0  0  0  0  0  0  0
  141.7550   68.5607  228.3749 H   0  0  0  0  0  0  0  0  0  0  0  0
  141.6735   70.9245  225.9735 H   0  0  0  0  0  0  0  0  0  0  0  0
  141.3847   72.2948  223.9402 H   0  0  0  0  0  0  0  0  0  0  0  0
  135.3055   75.4504  222.1599 H   0  0  0  0  0  0  0  0  0  0  0  0
  135.9935   73.7445  222.3440 H   0  0  0  0  0  0  0  0  0  0  0  0
  136.2509   75.0620  224.7718 H   0  0  0  0  0  0  0  0  0  0  0  0
  134.4311   76.5761  224.1176 H   0  0  0  0  0  0  0  0  0  0  0  0
  133.3610   75.1924  223.8719 H   0  0  0  0  0  0  0  0  0  0  0  0
  134.8602   76.0072  226.4394 H   0  0  0  0  0  0  0  0  0  0  0  0
  133.0805   75.8481  226.2043 H   0  0  0  0  0  0  0  0  0  0  0  0
  133.4470   73.8530  227.1380 H   0  0  0  0  0  0  0  0  0  0  0  0
  133.8384   72.0932  225.7023 H   0  0  0  0  0  0  0  0  0  0  0  0
  132.9633   73.3267  224.7667 H   0  0  0  0  0  0  0  0  0  0  0  0
  135.9487   72.6957  224.7921 H   0  0  0  0  0  0  0  0  0  0  0  0
  134.8157   72.7593  223.3887 H   0  0  0  0  0  0  0  0  0  0  0  0
  1  2  2  0
  2  3  1  0
  3  4  2  0
  4  5  1  0
  4  6  1  0
  6  7  2  0
  7  8  1  0
  8  9  2  0
  9 10  1  0
 10 11  2  0
 11 12  1  0
 12 13  2  0
 13 14  1  0
 14 15  2  0
 15 16  1  0
 16 17  2  0
 17 18  1  0
 18 19  1  0
 19 20  1  0
 17 21  1  0
 21 22  2  0
 11 23  1  0
 23 24  1  0
 24 25  1  0
 25 26  1  0
 26 27  1  0
 27 28  1  0
 28 29  1  0
 29 30  1  0
 23  2  1  0
 30 25  1  0
  9  3  1  0
 22 14  1  0
 20 18  1  0
  6 31  1  0
  7 32  1  0
  8 33  1  0
 12 34  1  0
 13 35  1  0
 15 36  1  0
 16 37  1  0
 18 38  1  0
 19 39  1  0
 19 40  1  0
 20 41  1  0
 20 42  1  0
 21 43  1  0
 22 44  1  0
 24 45  1  0
 24 46  1  0
 25 47  1  0
 26 48  1  0
 26 49  1  0
 27 50  1  0
 27 51  1  0
 28 52  1  0
 29 53  1  0
 29 54  1  0
 30 55  1  0
 30 56  1  0
M  END
>  <smiles>  (25) 
O=c1c2c(Cl)cccc2nc(/C=C/c2ccc(C3CC3)cc2)n1CC1CCNCC1

>  <score_type>  (25) 
oracle

>  <origin>  (25) 
autodockgpu

>  <m_score__min__energy>  (25) 
-8.9000000000000004

>  <m_primary>  (25) 
energy

>  <rmsd>  (25) 
6.729406392303099

>  <m_score__min__rmsd>  (25) 
6.729406392303099

>  <meeko>  (25) 
{"free_energy": -8.28, "intermolecular_energy": -10.07, "internal_energy": -1.5, "cluster_size": 5, "cluster_id": 4, "rank_in_cluster": 5}

>  <energy>  (25) 
-8.27

>  <cluster_rmsd>  (25) 
0.03

>  <cluster>  (25) 
5

$$$$

     RDKit          3D

 56 60  0  0  0  0  0  0  0  0999 V2000
  142.2890   75.6650  218.7060 O   0  0  0  0  0  0  0  0  0  0  0  0
  141.7770   75.4060  219.8280 C   0  0  0  0  0  0  0  0  0  0  0  0
  141.4350   76.4660  220.6410 C   0  0  0  0  0  0  0  0  0  0  0  0
  141.6660   77.7530  220.1980 C   0  0  0  0  0  0  0  0  0  0  0  0
  142.3790   78.0730  218.6330 Cl  0  0  0  0  0  0  0  0  0  0  0  0
  141.3020   78.7920  221.0600 C   0  0  0  0  0  0  0  0  0  0  0  0
  140.7400   78.5260  222.2910 C   0  0  0  0  0  0  0  0  0  0  0  0
  140.5150   77.2350  222.7240 C   0  0  0  0  0  0  0  0  0  0  0  0
  140.8730   76.2110  221.8740 C   0  0  0  0  0  0  0  0  0  0  0  0
  140.6920   74.9250  222.2080 N   0  0  0  0  0  0  0  0  0  0  0  0
  141.0240   73.8920  221.4150 C   0  0  0  0  0  0  0  0  0  0  0  0
  140.7800   72.5250  221.8610 C   0  0  0  0  0  0  0  0  0  0  0  0
  139.7270   72.2810  222.6100 C   0  0  0  0  0  0  0  0  0  0  0  0
  139.7270   71.4190  223.7770 C   0  0  0  0  0  0  0  0  0  0  0  0
  140.6880   71.5760  224.7780 C   0  0  0  0  0  0  0  0  0  0  0  0
  140.7210   70.7780  225.9000 C   0  0  0  0  0  0  0  0  0  0  0  0
  139.8000   69.7780  226.0910 C   0  0  0  0  0  0  0  0  0  0  0  0
  139.9000   68.9650  227.3170 C   0  0  0  0  0  0  0  0  0  0  0  0
  140.9690   69.2580  228.3240 C   0  0  0  0  0  0  0  0  0  0  0  0
  140.9960   67.9850  227.5080 C   0  0  0  0  0  0  0  0  0  0  0  0
  138.8430   69.6000  225.1230 C   0  0  0  0  0  0  0  0  0  0  0  0
  138.8110   70.4100  223.9870 C   0  0  0  0  0  0  0  0  0  0  0  0
  141.5740   74.1090  220.2090 N   0  0  0  0  0  0  0  0  0  0  0  0
  141.9800   73.0950  219.2920 C   0  0  0  0  0  0  0  0  0  0  0  0
  143.4450   72.8660  219.1720 C   0  0  0  0  0  0  0  0  0  0  0  0
  144.1450   73.6690  218.1110 C   0  0  0  0  0  0  0  0  0  0  0  0
  145.5650   73.0940  218.0370 C   0  0  0  0  0  0  0  0  0  0  0  0
  146.1220   72.9700  219.3580 N   0  0  0  0  0  0  0  0  0  0  0  0
  145.4550   73.7840  220.3510 C   0  0  0  0  0  0  0  0  0  0  0  0
  144.0620   73.2150  220.5290 C   0  0  0  0  0  0  0  0  0  0  0  0
  141.4661   79.8352  220.7522 H   0  0  0  0  0  0  0  0  0  0  0  0
  140.4635   79.3657  222.9456 H   0  0  0  0  0  0  0  0  0  0  0  0
  140.0678   77.0315  223.7082 H   0  0  0  0  0  0  0  0  0  0  0  0
  141.4646   71.7126  221.5759 H   0  0  0  0  0  0  0  0  0  0  0  0
  138.7790   72.7647  222.3320 H   0  0  0  0  0  0  0  0  0  0  0  0
  141.4459   72.3654  224.6663 H   0  0  0  0  0  0  0  0  0  0  0  0
  141.5005   70.9452  226.6579 H   0  0  0  0  0  0  0  0  0  0  0  0
  138.8024   68.8968  227.3410 H   0  0  0  0  0  0  0  0  0  0  0  0
  141.7053   70.0526  228.1331 H   0  0  0  0  0  0  0  0  0  0  0  0
  140.9896   69.5018  229.3964 H   0  0  0  0  0  0  0  0  0  0  0  0
  141.7560   67.8501  226.7243 H   0  0  0  0  0  0  0  0  0  0  0  0
  141.0475   66.9116  227.7427 H   0  0  0  0  0  0  0  0  0  0  0  0
  138.0902   68.8072  225.2446 H   0  0  0  0  0  0  0  0  0  0  0  0
  138.0284   70.2376  223.2335 H   0  0  0  0  0  0  0  0  0  0  0  0
  141.5176   72.1493  219.6111 H   0  0  0  0  0  0  0  0  0  0  0  0
  141.6550   73.4466  218.3017 H   0  0  0  0  0  0  0  0  0  0  0  0
  143.5782   71.8160  218.8724 H   0  0  0  0  0  0  0  0  0  0  0  0
  143.6335   73.5575  217.1435 H   0  0  0  0  0  0  0  0  0  0  0  0
  144.1500   74.7433  218.3471 H   0  0  0  0  0  0  0  0  0  0  0  0
  145.5308   72.1020  217.5628 H   0  0  0  0  0  0  0  0  0  0  0  0
  146.1960   73.7728  217.4444 H   0  0  0  0  0  0  0  0  0  0  0  0
  147.1510   73.1980  219.3800 H   0  0  0  0  0  0  0  0  0  0  0  0
  146.0040   73.7432  221.3033 H   0  0  0  0  0  0  0  0  0  0  0  0
  145.4111   74.8355  220.0308 H   0  0  0  0  0  0  0  0  0  0  0  0
  144.1190   72.3054  221.1449 H   0  0  0  0  0  0  0  0  0  0  0  0
  143.4311   73.9693  221.0219 H   0  0  0  0  0  0  0  0  0  0  0  0
  1  2  2  0
  2  3  1  0
  3  4  2  0
  4  5  1  0
  4  6  1  0
  6  7  2  0
  7  8  1  0
  8  9  2  0
  9 10  1  0
 10 11  2  0
 11 12  1  0
 12 13  2  0
 13 14  1  0
 14 15  2  0
 15 16  1  0
 16 17  2  0
 17 18  1  0
 18 19  1  0
 19 20  1  0
 17 21  1  0
 21 22  2  0
 11 23  1  0
 23 24  1  0
 24 25  1  0
 25 26  1  0
 26 27  1  0
 27 28  1  0
 28 29  1  0
 29 30  1  0
 23  2  1  0
 30 25  1  0
  9  3  1  0
 22 14  1  0
 20 18  1  0
  6 31  1  0
  7 32  1  0
  8 33  1  0
 12 34  1  0
 13 35  1  0
 15 36  1  0
 16 37  1  0
 18 38  1  0
 19 39  1  0
 19 40  1  0
 20 41  1  0
 20 42  1  0
 21 43  1  0
 22 44  1  0
 24 45  1  0
 24 46  1  0
 25 47  1  0
 26 48  1  0
 26 49  1  0
 27 50  1  0
 27 51  1  0
 28 52  1  0
 29 53  1  0
 29 54  1  0
 30 55  1  0
 30 56  1  0
M  END
>  <smiles>  (26) 
O=c1c2c(Cl)cccc2nc(/C=C/c2ccc(C3CC3)cc2)n1CC1CCNCC1

>  <score_type>  (26) 
oracle

>  <origin>  (26) 
autodockgpu

>  <m_score__min__energy>  (26) 
-8.9000000000000004

>  <m_primary>  (26) 
energy

>  <rmsd>  (26) 
5.337172539026249

>  <m_score__min__rmsd>  (26) 
5.337172539026249

>  <meeko>  (26) 
{"free_energy": -8.85, "intermolecular_energy": -10.64, "internal_energy": -1.33, "cluster_size": 12, "cluster_id": 1, "rank_in_cluster": 2}

>  <energy>  (26) 
-8.25

>  <cluster_rmsd>  (26) 
0.14

>  <cluster>  (26) 
5

$$$$

     RDKit          3D

 56 60  0  0  0  0  0  0  0  0999 V2000
  135.1700   76.1420  224.0850 O   0  0  0  0  0  0  0  0  0  0  0  0
  135.3220   74.8920  224.0470 C   0  0  0  0  0  0  0  0  0  0  0  0
  134.6330   74.1310  224.9690 C   0  0  0  0  0  0  0  0  0  0  0  0
  133.8150   74.7630  225.8840 C   0  0  0  0  0  0  0  0  0  0  0  0
  133.6280   76.5020  225.9040 Cl  0  0  0  0  0  0  0  0  0  0  0  0
  133.1400   73.9460  226.7960 C   0  0  0  0  0  0  0  0  0  0  0  0
  133.2940   72.5760  226.7680 C   0  0  0  0  0  0  0  0  0  0  0  0
  134.1160   71.9550  225.8490 C   0  0  0  0  0  0  0  0  0  0  0  0
  134.7810   72.7600  224.9500 C   0  0  0  0  0  0  0  0  0  0  0  0
  135.6000   72.2470  224.0200 N   0  0  0  0  0  0  0  0  0  0  0  0
  136.2700   72.9890  223.1220 C   0  0  0  0  0  0  0  0  0  0  0  0
  137.1320   72.3400  222.1410 C   0  0  0  0  0  0  0  0  0  0  0  0
  137.5930   71.1360  222.4000 C   0  0  0  0  0  0  0  0  0  0  0  0
  138.3360   70.7750  223.5940 C   0  0  0  0  0  0  0  0  0  0  0  0
  139.5180   71.4400  223.9250 C   0  0  0  0  0  0  0  0  0  0  0  0
  140.2500   71.1270  225.0490 C   0  0  0  0  0  0  0  0  0  0  0  0
  139.8490   70.1340  225.9070 C   0  0  0  0  0  0  0  0  0  0  0  0
  140.6860   69.8560  227.0880 C   0  0  0  0  0  0  0  0  0  0  0  0
  140.9860   68.4400  227.4760 C   0  0  0  0  0  0  0  0  0  0  0  0
  140.1030   69.3140  228.3390 C   0  0  0  0  0  0  0  0  0  0  0  0
  138.6900   69.4610  225.6060 C   0  0  0  0  0  0  0  0  0  0  0  0
  137.9490   69.7810  224.4680 C   0  0  0  0  0  0  0  0  0  0  0  0
  136.1460   74.3260  223.1170 N   0  0  0  0  0  0  0  0  0  0  0  0
  136.8190   75.2140  222.2240 C   0  0  0  0  0  0  0  0  0  0  0  0
  138.3000   75.2700  222.3450 C   0  0  0  0  0  0  0  0  0  0  0  0
  139.0690   74.8610  221.1190 C   0  0  0  0  0  0  0  0  0  0  0  0
  140.5350   74.7870  221.5670 C   0  0  0  0  0  0  0  0  0  0  0  0
  140.8920   75.9700  222.3040 N   0  0  0  0  0  0  0  0  0  0  0  0
  140.0020   77.0890  222.0780 C   0  0  0  0  0  0  0  0  0  0  0  0
  138.6630   76.7190  222.6830 C   0  0  0  0  0  0  0  0  0  0  0  0
  132.4771   74.4023  227.5460 H   0  0  0  0  0  0  0  0  0  0  0  0
  132.7470   71.9611  227.4979 H   0  0  0  0  0  0  0  0  0  0  0  0
  134.2352   70.8616  225.8350 H   0  0  0  0  0  0  0  0  0  0  0  0
  137.3920   72.8486  221.2010 H   0  0  0  0  0  0  0  0  0  0  0  0
  137.4020   70.3458  221.6590 H   0  0  0  0  0  0  0  0  0  0  0  0
  139.8777   72.2427  223.2645 H   0  0  0  0  0  0  0  0  0  0  0  0
  141.1741   71.6839  225.2630 H   0  0  0  0  0  0  0  0  0  0  0  0
  141.2887   70.7447  226.8493 H   0  0  0  0  0  0  0  0  0  0  0  0
  140.5504   67.6064  226.9056 H   0  0  0  0  0  0  0  0  0  0  0  0
  141.8992   67.8480  227.6362 H   0  0  0  0  0  0  0  0  0  0  0  0
  139.0231   69.1138  228.4008 H   0  0  0  0  0  0  0  0  0  0  0  0
  140.1067   69.6207  229.3954 H   0  0  0  0  0  0  0  0  0  0  0  0
  138.3410   68.6580  226.2719 H   0  0  0  0  0  0  0  0  0  0  0  0
  137.0248   69.2215  224.2609 H   0  0  0  0  0  0  0  0  0  0  0  0
  136.5779   74.9032  221.1968 H   0  0  0  0  0  0  0  0  0  0  0  0
  136.4641   76.2212  222.4879 H   0  0  0  0  0  0  0  0  0  0  0  0
  138.5835   74.5413  223.1188 H   0  0  0  0  0  0  0  0  0  0  0  0
  138.7262   73.8799  220.7586 H   0  0  0  0  0  0  0  0  0  0  0  0
  138.9285   75.5710  220.2907 H   0  0  0  0  0  0  0  0  0  0  0  0
  140.6744   73.9041  222.2081 H   0  0  0  0  0  0  0  0  0  0  0  0
  141.1777   74.7119  220.6775 H   0  0  0  0  0  0  0  0  0  0  0  0
  141.8770   76.2860  222.0990 H   0  0  0  0  0  0  0  0  0  0  0  0
  140.3996   77.9921  222.5641 H   0  0  0  0  0  0  0  0  0  0  0  0
  139.9022   77.3005  221.0031 H   0  0  0  0  0  0  0  0  0  0  0  0
  138.7164   76.8327  223.7758 H   0  0  0  0  0  0  0  0  0  0  0  0
  137.8909   77.3837  222.2682 H   0  0  0  0  0  0  0  0  0  0  0  0
  1  2  2  0
  2  3  1  0
  3  4  2  0
  4  5  1  0
  4  6  1  0
  6  7  2  0
  7  8  1  0
  8  9  2  0
  9 10  1  0
 10 11  2  0
 11 12  1  0
 12 13  2  0
 13 14  1  0
 14 15  2  0
 15 16  1  0
 16 17  2  0
 17 18  1  0
 18 19  1  0
 19 20  1  0
 17 21  1  0
 21 22  2  0
 11 23  1  0
 23 24  1  0
 24 25  1  0
 25 26  1  0
 26 27  1  0
 27 28  1  0
 28 29  1  0
 29 30  1  0
 23  2  1  0
 30 25  1  0
  9  3  1  0
 22 14  1  0
 20 18  1  0
  6 31  1  0
  7 32  1  0
  8 33  1  0
 12 34  1  0
 13 35  1  0
 15 36  1  0
 16 37  1  0
 18 38  1  0
 19 39  1  0
 19 40  1  0
 20 41  1  0
 20 42  1  0
 21 43  1  0
 22 44  1  0
 24 45  1  0
 24 46  1  0
 25 47  1  0
 26 48  1  0
 26 49  1  0
 27 50  1  0
 27 51  1  0
 28 52  1  0
 29 53  1  0
 29 54  1  0
 30 55  1  0
 30 56  1  0
M  END
>  <smiles>  (27) 
O=c1c2c(Cl)cccc2nc(/C=C/c2ccc(C3CC3)cc2)n1CC1CCNCC1

>  <score_type>  (27) 
oracle

>  <origin>  (27) 
autodockgpu

>  <m_score__min__energy>  (27) 
-8.9000000000000004

>  <m_primary>  (27) 
energy

>  <rmsd>  (27) 
8.699506328309445

>  <m_score__min__rmsd>  (27) 
8.699506328309445

>  <meeko>  (27) 
{"free_energy": -7.86, "intermolecular_energy": -9.65, "internal_energy": -1.75, "cluster_size": 13, "cluster_id": 6, "rank_in_cluster": 3}

>  <energy>  (27) 
-8.24

>  <cluster_rmsd>  (27) 
0.11

>  <cluster>  (27) 
5

$$$$

     RDKit          3D

 56 60  0  0  0  0  0  0  0  0999 V2000
  139.1990   68.2700  225.5410 O   0  0  0  0  0  0  0  0  0  0  0  0
  139.6010   69.4070  225.1780 C   0  0  0  0  0  0  0  0  0  0  0  0
  140.2190   70.2040  226.1190 C   0  0  0  0  0  0  0  0  0  0  0  0
  140.3690   69.7280  227.4070 C   0  0  0  0  0  0  0  0  0  0  0  0
  139.7990   68.1420  227.8740 Cl  0  0  0  0  0  0  0  0  0  0  0  0
  141.0010   70.5740  228.3220 C   0  0  0  0  0  0  0  0  0  0  0  0
  141.4480   71.8220  227.9410 C   0  0  0  0  0  0  0  0  0  0  0  0
  141.2910   72.2890  226.6510 C   0  0  0  0  0  0  0  0  0  0  0  0
  140.6680   71.4540  225.7490 C   0  0  0  0  0  0  0  0  0  0  0  0
  140.4720   71.8190  224.4740 N   0  0  0  0  0  0  0  0  0  0  0  0
  139.8710   71.0420  223.5560 C   0  0  0  0  0  0  0  0  0  0  0  0
  139.7110   71.5230  222.1890 C   0  0  0  0  0  0  0  0  0  0  0  0
  138.9660   72.5850  221.9730 C   0  0  0  0  0  0  0  0  0  0  0  0
  139.4540   73.9520  221.9840 C   0  0  0  0  0  0  0  0  0  0  0  0
  140.7770   74.2380  221.6400 C   0  0  0  0  0  0  0  0  0  0  0  0
  141.2770   75.5210  221.6390 C   0  0  0  0  0  0  0  0  0  0  0  0
  140.4910   76.5930  221.9810 C   0  0  0  0  0  0  0  0  0  0  0  0
  141.0970   77.9360  221.9580 C   0  0  0  0  0  0  0  0  0  0  0  0
  141.5230   78.5880  223.2370 C   0  0  0  0  0  0  0  0  0  0  0  0
  140.3580   79.1280  222.4390 C   0  0  0  0  0  0  0  0  0  0  0  0
  139.1850   76.3420  222.3250 C   0  0  0  0  0  0  0  0  0  0  0  0
  138.6800   75.0410  222.3250 C   0  0  0  0  0  0  0  0  0  0  0  0
  139.4220   69.8210  223.8880 N   0  0  0  0  0  0  0  0  0  0  0  0
  138.7570   68.9180  223.0060 C   0  0  0  0  0  0  0  0  0  0  0  0
  137.3710   68.5330  223.3830 C   0  0  0  0  0  0  0  0  0  0  0  0
  136.5390   69.6210  224.0030 C   0  0  0  0  0  0  0  0  0  0  0  0
  135.2640   68.9240  224.4990 C   0  0  0  0  0  0  0  0  0  0  0  0
  134.7260   68.0780  223.4680 N   0  0  0  0  0  0  0  0  0  0  0  0
  135.2000   68.4020  222.1400 C   0  0  0  0  0  0  0  0  0  0  0  0
  136.6760   68.0640  222.1010 C   0  0  0  0  0  0  0  0  0  0  0  0
  141.1440   70.2402  229.3603 H   0  0  0  0  0  0  0  0  0  0  0  0
  141.9432   72.4630  228.6853 H   0  0  0  0  0  0  0  0  0  0  0  0
  141.6485   73.2865  226.3556 H   0  0  0  0  0  0  0  0  0  0  0  0
  140.2049   71.0065  221.3527 H   0  0  0  0  0  0  0  0  0  0  0  0
  137.8967   72.4260  221.7695 H   0  0  0  0  0  0  0  0  0  0  0  0
  141.4433   73.4088  221.3599 H   0  0  0  0  0  0  0  0  0  0  0  0
  142.3271   75.6902  221.3586 H   0  0  0  0  0  0  0  0  0  0  0  0
  141.5927   77.6759  221.0111 H   0  0  0  0  0  0  0  0  0  0  0  0
  141.3477   78.0844  224.1991 H   0  0  0  0  0  0  0  0  0  0  0  0
  142.4630   79.0029  223.6297 H   0  0  0  0  0  0  0  0  0  0  0  0
  139.3324   79.0216  222.8223 H   0  0  0  0  0  0  0  0  0  0  0  0
  140.0961   80.1064  222.0098 H   0  0  0  0  0  0  0  0  0  0  0  0
  138.5277   77.1786  222.6045 H   0  0  0  0  0  0  0  0  0  0  0  0
  137.6291   74.8788  222.6065 H   0  0  0  0  0  0  0  0  0  0  0  0
  138.7162   69.3883  222.0124 H   0  0  0  0  0  0  0  0  0  0  0  0
  139.3414   67.9868  223.0426 H   0  0  0  0  0  0  0  0  0  0  0  0
  137.4569   67.7585  224.1594 H   0  0  0  0  0  0  0  0  0  0  0  0
  137.0761   70.0851  224.8433 H   0  0  0  0  0  0  0  0  0  0  0  0
  136.3145   70.4243  223.2859 H   0  0  0  0  0  0  0  0  0  0  0  0
  135.5041   68.3130  225.3816 H   0  0  0  0  0  0  0  0  0  0  0  0
  134.5172   69.6877  224.7620 H   0  0  0  0  0  0  0  0  0  0  0  0
  133.6710   68.0880  223.4540 H   0  0  0  0  0  0  0  0  0  0  0  0
  134.6567   67.8085  221.3899 H   0  0  0  0  0  0  0  0  0  0  0  0
  135.0351   69.4657  221.9133 H   0  0  0  0  0  0  0  0  0  0  0  0
  136.7949   66.9748  222.0031 H   0  0  0  0  0  0  0  0  0  0  0  0
  137.1342   68.5758  221.2418 H   0  0  0  0  0  0  0  0  0  0  0  0
  1  2  2  0
  2  3  1  0
  3  4  2  0
  4  5  1  0
  4  6  1  0
  6  7  2  0
  7  8  1  0
  8  9  2  0
  9 10  1  0
 10 11  2  0
 11 12  1  0
 12 13  2  0
 13 14  1  0
 14 15  2  0
 15 16  1  0
 16 17  2  0
 17 18  1  0
 18 19  1  0
 19 20  1  0
 17 21  1  0
 21 22  2  0
 11 23  1  0
 23 24  1  0
 24 25  1  0
 25 26  1  0
 26 27  1  0
 27 28  1  0
 28 29  1  0
 29 30  1  0
 23  2  1  0
 30 25  1  0
  9  3  1  0
 22 14  1  0
 20 18  1  0
  6 31  1  0
  7 32  1  0
  8 33  1  0
 12 34  1  0
 13 35  1  0
 15 36  1  0
 16 37  1  0
 18 38  1  0
 19 39  1  0
 19 40  1  0
 20 41  1  0
 20 42  1  0
 21 43  1  0
 22 44  1  0
 24 45  1  0
 24 46  1  0
 25 47  1  0
 26 48  1  0
 26 49  1  0
 27 50  1  0
 27 51  1  0
 28 52  1  0
 29 53  1  0
 29 54  1  0
 30 55  1  0
 30 56  1  0
M  END
>  <smiles>  (28) 
O=c1c2c(Cl)cccc2nc(/C=C/c2ccc(C3CC3)cc2)n1CC1CCNCC1

>  <score_type>  (28) 
oracle

>  <origin>  (28) 
autodockgpu

>  <m_score__min__energy>  (28) 
-8.9000000000000004

>  <m_primary>  (28) 
energy

>  <rmsd>  (28) 
11.516939700320474

>  <m_score__min__rmsd>  (28) 
11.516939700320474

>  <meeko>  (28) 
{"free_energy": -8.72, "intermolecular_energy": -10.51, "internal_energy": -1.49, "cluster_size": 5, "cluster_id": 2, "rank_in_cluster": 3}

>  <energy>  (28) 
-8.18

>  <cluster_rmsd>  (28) 
0.19

>  <cluster>  (28) 
5

$$$$

     RDKit          3D

 56 60  0  0  0  0  0  0  0  0999 V2000
  142.4710   75.8610  218.6900 O   0  0  0  0  0  0  0  0  0  0  0  0
  141.8610   75.5730  219.7540 C   0  0  0  0  0  0  0  0  0  0  0  0
  141.4370   76.6130  220.5560 C   0  0  0  0  0  0  0  0  0  0  0  0
  141.6960   77.9110  220.1640 C   0  0  0  0  0  0  0  0  0  0  0  0
  142.5450   78.2710  218.6780 Cl  0  0  0  0  0  0  0  0  0  0  0  0
  141.2460   78.9270  221.0120 C   0  0  0  0  0  0  0  0  0  0  0  0
  140.5770   78.6300  222.1810 C   0  0  0  0  0  0  0  0  0  0  0  0
  140.3250   77.3270  222.5630 C   0  0  0  0  0  0  0  0  0  0  0  0
  140.7680   76.3260  221.7270 C   0  0  0  0  0  0  0  0  0  0  0  0
  140.5690   75.0310  222.0140 N   0  0  0  0  0  0  0  0  0  0  0  0
  140.9810   74.0190  221.2320 C   0  0  0  0  0  0  0  0  0  0  0  0
  140.7090   72.6410  221.6240 C   0  0  0  0  0  0  0  0  0  0  0  0
  139.6660   72.3910  222.3850 C   0  0  0  0  0  0  0  0  0  0  0  0
  139.6770   71.5090  223.5380 C   0  0  0  0  0  0  0  0  0  0  0  0
  140.7330   71.5440  224.4500 C   0  0  0  0  0  0  0  0  0  0  0  0
  140.7800   70.7240  225.5550 C   0  0  0  0  0  0  0  0  0  0  0  0
  139.7790   69.8210  225.8160 C   0  0  0  0  0  0  0  0  0  0  0  0
  139.8990   68.9770  227.0180 C   0  0  0  0  0  0  0  0  0  0  0  0
  139.5460   69.5330  228.3630 C   0  0  0  0  0  0  0  0  0  0  0  0
  140.9770   69.1940  228.0120 C   0  0  0  0  0  0  0  0  0  0  0  0
  138.7270   69.7640  224.9350 C   0  0  0  0  0  0  0  0  0  0  0  0
  138.6810   70.5970  223.8160 C   0  0  0  0  0  0  0  0  0  0  0  0
  141.6360   74.2670  220.0870 N   0  0  0  0  0  0  0  0  0  0  0  0
  142.1330   73.2760  219.1890 C   0  0  0  0  0  0  0  0  0  0  0  0
  143.5760   72.9400  219.3140 C   0  0  0  0  0  0  0  0  0  0  0  0
  144.1690   73.1190  220.6840 C   0  0  0  0  0  0  0  0  0  0  0  0
  145.6810   72.9330  220.4990 C   0  0  0  0  0  0  0  0  0  0  0  0
  145.9470   71.7480  219.7270 N   0  0  0  0  0  0  0  0  0  0  0  0
  144.8430   70.8130  219.6950 C   0  0  0  0  0  0  0  0  0  0  0  0
  143.7270   71.4710  218.9100 C   0  0  0  0  0  0  0  0  0  0  0  0
  141.4280   79.9780  220.7433 H   0  0  0  0  0  0  0  0  0  0  0  0
  140.2351   79.4528  222.8261 H   0  0  0  0  0  0  0  0  0  0  0  0
  139.7919   77.0978  223.4975 H   0  0  0  0  0  0  0  0  0  0  0  0
  141.3652   71.8243  221.2888 H   0  0  0  0  0  0  0  0  0  0  0  0
  138.7173   72.8856  222.1296 H   0  0  0  0  0  0  0  0  0  0  0  0
  141.5573   72.2522  224.2798 H   0  0  0  0  0  0  0  0  0  0  0  0
  141.6361   70.7936  226.2422 H   0  0  0  0  0  0  0  0  0  0  0  0
  139.5738   68.1123  226.4209 H   0  0  0  0  0  0  0  0  0  0  0  0
  139.2353   70.5835  228.4626 H   0  0  0  0  0  0  0  0  0  0  0  0
  138.8496   69.2547  229.1677 H   0  0  0  0  0  0  0  0  0  0  0  0
  141.7114   69.9987  227.8600 H   0  0  0  0  0  0  0  0  0  0  0  0
  141.7596   68.5644  228.4605 H   0  0  0  0  0  0  0  0  0  0  0  0
  137.9085   69.0513  225.1139 H   0  0  0  0  0  0  0  0  0  0  0  0
  137.8216   70.5234  223.1333 H   0  0  0  0  0  0  0  0  0  0  0  0
  141.5580   72.3533  219.3562 H   0  0  0  0  0  0  0  0  0  0  0  0
  142.0174   73.7062  218.1832 H   0  0  0  0  0  0  0  0  0  0  0  0
  144.1227   73.6436  218.6690 H   0  0  0  0  0  0  0  0  0  0  0  0
  143.9491   74.1251  221.0704 H   0  0  0  0  0  0  0  0  0  0  0  0
  143.7534   72.4021  221.4074 H   0  0  0  0  0  0  0  0  0  0  0  0
  146.0929   73.8079  219.9747 H   0  0  0  0  0  0  0  0  0  0  0  0
  146.1527   72.8299  221.4874 H   0  0  0  0  0  0  0  0  0  0  0  0
  146.8040   71.2360  220.0640 H   0  0  0  0  0  0  0  0  0  0  0  0
  145.1526   69.8799  219.2015 H   0  0  0  0  0  0  0  0  0  0  0  0
  144.5114   70.5626  220.7135 H   0  0  0  0  0  0  0  0  0  0  0  0
  143.9581   71.4135  217.8361 H   0  0  0  0  0  0  0  0  0  0  0  0
  142.7849   70.9457  219.1257 H   0  0  0  0  0  0  0  0  0  0  0  0
  1  2  2  0
  2  3  1  0
  3  4  2  0
  4  5  1  0
  4  6  1  0
  6  7  2  0
  7  8  1  0
  8  9  2  0
  9 10  1  0
 10 11  2  0
 11 12  1  0
 12 13  2  0
 13 14  1  0
 14 15  2  0
 15 16  1  0
 16 17  2  0
 17 18  1  0
 18 19  1  0
 19 20  1  0
 17 21  1  0
 21 22  2  0
 11 23  1  0
 23 24  1  0
 24 25  1  0
 25 26  1  0
 26 27  1  0
 27 28  1  0
 28 29  1  0
 29 30  1  0
 23  2  1  0
 30 25  1  0
  9  3  1  0
 22 14  1  0
 20 18  1  0
  6 31  1  0
  7 32  1  0
  8 33  1  0
 12 34  1  0
 13 35  1  0
 15 36  1  0
 16 37  1  0
 18 38  1  0
 19 39  1  0
 19 40  1  0
 20 41  1  0
 20 42  1  0
 21 43  1  0
 22 44  1  0
 24 45  1  0
 24 46  1  0
 25 47  1  0
 26 48  1  0
 26 49  1  0
 27 50  1  0
 27 51  1  0
 28 52  1  0
 29 53  1  0
 29 54  1  0
 30 55  1  0
 30 56  1  0
M  END
>  <smiles>  (29) 
O=c1c2c(Cl)cccc2nc(/C=C/c2ccc(C3CC3)cc2)n1CC1CCNCC1

>  <score_type>  (29) 
oracle

>  <origin>  (29) 
autodockgpu

>  <m_score__min__energy>  (29) 
-8.9000000000000004

>  <m_primary>  (29) 
energy

>  <rmsd>  (29) 
5.496391998210204

>  <m_score__min__rmsd>  (29) 
5.496391998210204

>  <meeko>  (29) 
{"free_energy": -8.67, "intermolecular_energy": -10.46, "internal_energy": -1.37, "cluster_size": 12, "cluster_id": 1, "rank_in_cluster": 9}

>  <energy>  (29) 
-8.1

>  <cluster_rmsd>  (29) 
0.4

>  <cluster>  (29) 
5

$$$$

     RDKit          3D

 56 60  0  0  0  0  0  0  0  0999 V2000
  135.5840   74.9660  223.7340 O   0  0  0  0  0  0  0  0  0  0  0  0
  135.7260   73.7160  223.6550 C   0  0  0  0  0  0  0  0  0  0  0  0
  135.1080   72.9360  224.6100 C   0  0  0  0  0  0  0  0  0  0  0  0
  134.3690   73.5480  225.6020 C   0  0  0  0  0  0  0  0  0  0  0  0
  134.1940   75.2870  225.6790 Cl  0  0  0  0  0  0  0  0  0  0  0  0
  133.7640   72.7120  226.5450 C   0  0  0  0  0  0  0  0  0  0  0  0
  133.9090   71.3430  226.4730 C   0  0  0  0  0  0  0  0  0  0  0  0
  134.6520   70.7410  225.4770 C   0  0  0  0  0  0  0  0  0  0  0  0
  135.2480   71.5650  224.5470 C   0  0  0  0  0  0  0  0  0  0  0  0
  135.9870   71.0720  223.5440 N   0  0  0  0  0  0  0  0  0  0  0  0
  136.5880   71.8330  222.6130 C   0  0  0  0  0  0  0  0  0  0  0  0
  137.3660   71.2050  221.5510 C   0  0  0  0  0  0  0  0  0  0  0  0
  138.5850   70.7900  221.8180 C   0  0  0  0  0  0  0  0  0  0  0  0
  139.1950   70.8130  223.1350 C   0  0  0  0  0  0  0  0  0  0  0  0
  138.8640   69.8490  224.0900 C   0  0  0  0  0  0  0  0  0  0  0  0
  139.4210   69.8380  225.3490 C   0  0  0  0  0  0  0  0  0  0  0  0
  140.3380   70.7850  225.7320 C   0  0  0  0  0  0  0  0  0  0  0  0
  140.8890   70.7090  227.0970 C   0  0  0  0  0  0  0  0  0  0  0  0
  139.9750   70.8050  228.2800 C   0  0  0  0  0  0  0  0  0  0  0  0
  140.9650   71.9050  227.9690 C   0  0  0  0  0  0  0  0  0  0  0  0
  140.6810   71.7480  224.8140 C   0  0  0  0  0  0  0  0  0  0  0  0
  140.1160   71.7570  223.5380 C   0  0  0  0  0  0  0  0  0  0  0  0
  136.4710   73.1700  222.6490 N   0  0  0  0  0  0  0  0  0  0  0  0
  137.0750   74.0770  221.7270 C   0  0  0  0  0  0  0  0  0  0  0  0
  138.5140   74.3810  221.9510 C   0  0  0  0  0  0  0  0  0  0  0  0
  139.4190   74.1520  220.7720 C   0  0  0  0  0  0  0  0  0  0  0  0
  140.8440   74.3130  221.3180 C   0  0  0  0  0  0  0  0  0  0  0  0
  140.9440   75.5130  222.1040 N   0  0  0  0  0  0  0  0  0  0  0  0
  139.8900   76.4710  221.8440 C   0  0  0  0  0  0  0  0  0  0  0  0
  138.6000   75.8580  222.3460 C   0  0  0  0  0  0  0  0  0  0  0  0
  133.1643   73.1524  227.3552 H   0  0  0  0  0  0  0  0  0  0  0  0
  133.4192   70.7128  227.2300 H   0  0  0  0  0  0  0  0  0  0  0  0
  134.7637   69.6478  225.4278 H   0  0  0  0  0  0  0  0  0  0  0  0
  136.9405   71.0807  220.5443 H   0  0  0  0  0  0  0  0  0  0  0  0
  139.1851   70.3975  220.9839 H   0  0  0  0  0  0  0  0  0  0  0  0
  138.1323   69.0710  223.8268 H   0  0  0  0  0  0  0  0  0  0  0  0
  139.1253   69.0546  226.0623 H   0  0  0  0  0  0  0  0  0  0  0  0
  141.6284   69.9776  226.7387 H   0  0  0  0  0  0  0  0  0  0  0  0
  138.8978   70.9733  228.1341 H   0  0  0  0  0  0  0  0  0  0  0  0
  139.7540   70.1733  229.1530 H   0  0  0  0  0  0  0  0  0  0  0  0
  140.6081   72.8780  227.6003 H   0  0  0  0  0  0  0  0  0  0  0  0
  141.7666   72.4106  228.5275 H   0  0  0  0  0  0  0  0  0  0  0  0
  141.4115   72.5231  225.0888 H   0  0  0  0  0  0  0  0  0  0  0  0
  140.4154   72.5436  222.8298 H   0  0  0  0  0  0  0  0  0  0  0  0
  136.9759   73.6468  220.7195 H   0  0  0  0  0  0  0  0  0  0  0  0
  136.5475   75.0323  221.8658 H   0  0  0  0  0  0  0  0  0  0  0  0
  138.8681   73.6850  222.7257 H   0  0  0  0  0  0  0  0  0  0  0  0
  139.2741   73.1400  220.3659 H   0  0  0  0  0  0  0  0  0  0  0  0
  139.2117   74.8564  219.9530 H   0  0  0  0  0  0  0  0  0  0  0  0
  141.0919   73.4453  221.9470 H   0  0  0  0  0  0  0  0  0  0  0  0
  141.5458   74.3786  220.4735 H   0  0  0  0  0  0  0  0  0  0  0  0
  141.8710   75.9990  221.9750 H   0  0  0  0  0  0  0  0  0  0  0  0
  140.0941   77.4111  222.3775 H   0  0  0  0  0  0  0  0  0  0  0  0
  139.8238   76.6995  220.7700 H   0  0  0  0  0  0  0  0  0  0  0  0
  138.5629   75.9415  223.4422 H   0  0  0  0  0  0  0  0  0  0  0  0
  137.7533   76.3953  221.8939 H   0  0  0  0  0  0  0  0  0  0  0  0
  1  2  2  0
  2  3  1  0
  3  4  2  0
  4  5  1  0
  4  6  1  0
  6  7  2  0
  7  8  1  0
  8  9  2  0
  9 10  1  0
 10 11  2  0
 11 12  1  0
 12 13  2  0
 13 14  1  0
 14 15  2  0
 15 16  1  0
 16 17  2  0
 17 18  1  0
 18 19  1  0
 19 20  1  0
 17 21  1  0
 21 22  2  0
 11 23  1  0
 23 24  1  0
 24 25  1  0
 25 26  1  0
 26 27  1  0
 27 28  1  0
 28 29  1  0
 29 30  1  0
 23  2  1  0
 30 25  1  0
  9  3  1  0
 22 14  1  0
 20 18  1  0
  6 31  1  0
  7 32  1  0
  8 33  1  0
 12 34  1  0
 13 35  1  0
 15 36  1  0
 16 37  1  0
 18 38  1  0
 19 39  1  0
 19 40  1  0
 20 41  1  0
 20 42  1  0
 21 43  1  0
 22 44  1  0
 24 45  1  0
 24 46  1  0
 25 47  1  0
 26 48  1  0
 26 49  1  0
 27 50  1  0
 27 51  1  0
 28 52  1  0
 29 53  1  0
 29 54  1  0
 30 55  1  0
 30 56  1  0
M  END
>  <smiles>  (30) 
O=c1c2c(Cl)cccc2nc(/C=C/c2ccc(C3CC3)cc2)n1CC1CCNCC1

>  <score_type>  (30) 
oracle

>  <origin>  (30) 
autodockgpu

>  <m_score__min__energy>  (30) 
-8.9000000000000004

>  <m_primary>  (30) 
energy

>  <rmsd>  (30) 
9.099646649597208

>  <m_score__min__rmsd>  (30) 
9.099646649597208

>  <meeko>  (30) 
{"free_energy": -7.78, "intermolecular_energy": -9.57, "internal_energy": -2.33, "cluster_size": 13, "cluster_id": 6, "rank_in_cluster": 10}

>  <energy>  (30) 
-8.06

>  <cluster_rmsd>  (30) 
0.45

>  <cluster>  (30) 
5

$$$$

     RDKit          3D

 56 60  0  0  0  0  0  0  0  0999 V2000
  135.6480   75.0120  223.6000 O   0  0  0  0  0  0  0  0  0  0  0  0
  135.7550   73.7560  223.5970 C   0  0  0  0  0  0  0  0  0  0  0  0
  135.1000   73.0510  224.5850 C   0  0  0  0  0  0  0  0  0  0  0  0
  134.3630   73.7420  225.5260 C   0  0  0  0  0  0  0  0  0  0  0  0
  134.2370   75.4860  225.4970 Cl  0  0  0  0  0  0  0  0  0  0  0  0
  133.7190   72.9800  226.5060 C   0  0  0  0  0  0  0  0  0  0  0  0
  133.8250   71.6050  226.5170 C   0  0  0  0  0  0  0  0  0  0  0  0
  134.5660   70.9250  225.5720 C   0  0  0  0  0  0  0  0  0  0  0  0
  135.2010   71.6760  224.6060 C   0  0  0  0  0  0  0  0  0  0  0  0
  135.9420   71.1040  223.6460 N   0  0  0  0  0  0  0  0  0  0  0  0
  136.5790   71.7910  222.6820 C   0  0  0  0  0  0  0  0  0  0  0  0
  137.3550   71.0800  221.6740 C   0  0  0  0  0  0  0  0  0  0  0  0
  138.6100   70.7830  221.9310 C   0  0  0  0  0  0  0  0  0  0  0  0
  139.2150   70.8280  223.2500 C   0  0  0  0  0  0  0  0  0  0  0  0
  138.8920   69.8710  224.2150 C   0  0  0  0  0  0  0  0  0  0  0  0
  139.4440   69.8810  225.4760 C   0  0  0  0  0  0  0  0  0  0  0  0
  140.3490   70.8430  225.8510 C   0  0  0  0  0  0  0  0  0  0  0  0
  140.8960   70.7880  227.2190 C   0  0  0  0  0  0  0  0  0  0  0  0
  140.0530   70.2660  228.3420 C   0  0  0  0  0  0  0  0  0  0  0  0
  140.4400   71.7270  228.2730 C   0  0  0  0  0  0  0  0  0  0  0  0
  140.6840   71.7980  224.9230 C   0  0  0  0  0  0  0  0  0  0  0  0
  140.1250   71.7860  223.6450 C   0  0  0  0  0  0  0  0  0  0  0  0
  136.5000   73.1310  222.6380 N   0  0  0  0  0  0  0  0  0  0  0  0
  137.1450   73.9640  221.6750 C   0  0  0  0  0  0  0  0  0  0  0  0
  138.5690   74.2990  221.9440 C   0  0  0  0  0  0  0  0  0  0  0  0
  139.5140   74.0950  220.7920 C   0  0  0  0  0  0  0  0  0  0  0  0
  140.9180   74.2850  221.3820 C   0  0  0  0  0  0  0  0  0  0  0  0
  140.9670   75.4840  222.1750 N   0  0  0  0  0  0  0  0  0  0  0  0
  139.9010   76.4190  221.8860 C   0  0  0  0  0  0  0  0  0  0  0  0
  138.6100   75.7760  222.3470 C   0  0  0  0  0  0  0  0  0  0  0  0
  133.1198   73.4842  227.2785 H   0  0  0  0  0  0  0  0  0  0  0  0
  133.3046   71.0347  227.3005 H   0  0  0  0  0  0  0  0  0  0  0  0
  134.6467   69.8281  225.5889 H   0  0  0  0  0  0  0  0  0  0  0  0
  136.8985   70.7965  220.7142 H   0  0  0  0  0  0  0  0  0  0  0  0
  139.2464   70.4789  221.0869 H   0  0  0  0  0  0  0  0  0  0  0  0
  138.1708   69.0812  223.9580 H   0  0  0  0  0  0  0  0  0  0  0  0
  139.1543   69.1028  226.1975 H   0  0  0  0  0  0  0  0  0  0  0  0
  141.8794   70.5330  226.7973 H   0  0  0  0  0  0  0  0  0  0  0  0
  139.0127   69.9605  228.1563 H   0  0  0  0  0  0  0  0  0  0  0  0
  140.1514   69.4638  229.0882 H   0  0  0  0  0  0  0  0  0  0  0  0
  139.6795   72.4871  228.0409 H   0  0  0  0  0  0  0  0  0  0  0  0
  140.9376   72.4329  228.9542 H   0  0  0  0  0  0  0  0  0  0  0  0
  141.4044   72.5847  225.1915 H   0  0  0  0  0  0  0  0  0  0  0  0
  140.4199   72.5667  222.9284 H   0  0  0  0  0  0  0  0  0  0  0  0
  137.0989   73.4509  220.7031 H   0  0  0  0  0  0  0  0  0  0  0  0
  136.6063   74.9225  221.7075 H   0  0  0  0  0  0  0  0  0  0  0  0
  138.9150   73.6080  222.7268 H   0  0  0  0  0  0  0  0  0  0  0  0
  139.4039   73.0819  220.3780 H   0  0  0  0  0  0  0  0  0  0  0  0
  139.3160   74.7980  219.9695 H   0  0  0  0  0  0  0  0  0  0  0  0
  141.1657   73.4204  222.0154 H   0  0  0  0  0  0  0  0  0  0  0  0
  141.6438   74.3694  220.5597 H   0  0  0  0  0  0  0  0  0  0  0  0
  141.8870   75.9910  222.0770 H   0  0  0  0  0  0  0  0  0  0  0  0
  140.0681   77.3615  222.4281 H   0  0  0  0  0  0  0  0  0  0  0  0
  139.8623   76.6497  220.8112 H   0  0  0  0  0  0  0  0  0  0  0  0
  138.5382   75.8540  223.4419 H   0  0  0  0  0  0  0  0  0  0  0  0
  137.7654   76.2966  221.8720 H   0  0  0  0  0  0  0  0  0  0  0  0
  1  2  2  0
  2  3  1  0
  3  4  2  0
  4  5  1  0
  4  6  1  0
  6  7  2  0
  7  8  1  0
  8  9  2  0
  9 10  1  0
 10 11  2  0
 11 12  1  0
 12 13  2  0
 13 14  1  0
 14 15  2  0
 15 16  1  0
 16 17  2  0
 17 18  1  0
 18 19  1  0
 19 20  1  0
 17 21  1  0
 21 22  2  0
 11 23  1  0
 23 24  1  0
 24 25  1  0
 25 26  1  0
 26 27  1  0
 27 28  1  0
 28 29  1  0
 29 30  1  0
 23  2  1  0
 30 25  1  0
  9  3  1  0
 22 14  1  0
 20 18  1  0
  6 31  1  0
  7 32  1  0
  8 33  1  0
 12 34  1  0
 13 35  1  0
 15 36  1  0
 16 37  1  0
 18 38  1  0
 19 39  1  0
 19 40  1  0
 20 41  1  0
 20 42  1  0
 21 43  1  0
 22 44  1  0
 24 45  1  0
 24 46  1  0
 25 47  1  0
 26 48  1  0
 26 49  1  0
 27 50  1  0
 27 51  1  0
 28 52  1  0
 29 53  1  0
 29 54  1  0
 30 55  1  0
 30 56  1  0
M  END
>  <smiles>  (31) 
O=c1c2c(Cl)cccc2nc(/C=C/c2ccc(C3CC3)cc2)n1CC1CCNCC1

>  <score_type>  (31) 
oracle

>  <origin>  (31) 
autodockgpu

>  <m_score__min__energy>  (31) 
-8.9000000000000004

>  <m_primary>  (31) 
energy

>  <rmsd>  (31) 
9.020932654624417

>  <m_score__min__rmsd>  (31) 
9.020932654624417

>  <meeko>  (31) 
{"free_energy": -7.68, "intermolecular_energy": -9.47, "internal_energy": -2.32, "cluster_size": 13, "cluster_id": 6, "rank_in_cluster": 12}

>  <energy>  (31) 
-8.05

>  <cluster_rmsd>  (31) 
0.54

>  <cluster>  (31) 
5

$$$$

     RDKit          3D

 56 60  0  0  0  0  0  0  0  0999 V2000
  139.2330   68.2230  225.1930 O   0  0  0  0  0  0  0  0  0  0  0  0
  139.5740   69.3980  224.8940 C   0  0  0  0  0  0  0  0  0  0  0  0
  140.1930   70.1570  225.8650 C   0  0  0  0  0  0  0  0  0  0  0  0
  140.4110   69.6050  227.1110 C   0  0  0  0  0  0  0  0  0  0  0  0
  139.9230   67.9680  227.4900 Cl  0  0  0  0  0  0  0  0  0  0  0  0
  141.0410   70.4160  228.0590 C   0  0  0  0  0  0  0  0  0  0  0  0
  141.4220   71.7040  227.7480 C   0  0  0  0  0  0  0  0  0  0  0  0
  141.1980   72.2470  226.4990 C   0  0  0  0  0  0  0  0  0  0  0  0
  140.5770   71.4470  225.5640 C   0  0  0  0  0  0  0  0  0  0  0  0
  140.3180   71.8870  224.3240 N   0  0  0  0  0  0  0  0  0  0  0  0
  139.7160   71.1470  223.3770 C   0  0  0  0  0  0  0  0  0  0  0  0
  139.4860   71.7090  222.0520 C   0  0  0  0  0  0  0  0  0  0  0  0
  138.8250   72.8410  221.9490 C   0  0  0  0  0  0  0  0  0  0  0  0
  139.4370   74.1580  221.9590 C   0  0  0  0  0  0  0  0  0  0  0  0
  138.6890   75.2880  222.2940 C   0  0  0  0  0  0  0  0  0  0  0  0
  139.2330   76.5530  222.3150 C   0  0  0  0  0  0  0  0  0  0  0  0
  140.5530   76.7670  222.0030 C   0  0  0  0  0  0  0  0  0  0  0  0
  141.0630   78.1480  222.0460 C   0  0  0  0  0  0  0  0  0  0  0  0
  141.7540   78.6530  223.2750 C   0  0  0  0  0  0  0  0  0  0  0  0
  140.4020   79.1920  222.8660 C   0  0  0  0  0  0  0  0  0  0  0  0
  141.3130   75.6730  221.6680 C   0  0  0  0  0  0  0  0  0  0  0  0
  140.7600   74.3920  221.6490 C   0  0  0  0  0  0  0  0  0  0  0  0
  139.3310   69.8880  223.6420 N   0  0  0  0  0  0  0  0  0  0  0  0
  138.6700   69.0170  222.7240 C   0  0  0  0  0  0  0  0  0  0  0  0
  137.3160   68.5490  223.1210 C   0  0  0  0  0  0  0  0  0  0  0  0
  136.3190   69.6310  223.4340 C   0  0  0  0  0  0  0  0  0  0  0  0
  135.1040   68.9030  224.0250 C   0  0  0  0  0  0  0  0  0  0  0  0
  134.7430   67.7830  223.1970 N   0  0  0  0  0  0  0  0  0  0  0  0
  135.2700   67.8580  221.8510 C   0  0  0  0  0  0  0  0  0  0  0  0
  136.7740   67.7160  221.9550 C   0  0  0  0  0  0  0  0  0  0  0  0
  141.2355   70.0212  229.0671 H   0  0  0  0  0  0  0  0  0  0  0  0
  141.9180   72.3155  228.5162 H   0  0  0  0  0  0  0  0  0  0  0  0
  141.5027   73.2765  226.2595 H   0  0  0  0  0  0  0  0  0  0  0  0
  139.8589   71.1951  221.1538 H   0  0  0  0  0  0  0  0  0  0  0  0
  137.7310   72.7866  221.8481 H   0  0  0  0  0  0  0  0  0  0  0  0
  137.6266   75.1635  222.5505 H   0  0  0  0  0  0  0  0  0  0  0  0
  138.5976   77.4088  222.5870 H   0  0  0  0  0  0  0  0  0  0  0  0
  141.3250   78.0660  220.9808 H   0  0  0  0  0  0  0  0  0  0  0  0
  141.8468   78.0081  224.1613 H   0  0  0  0  0  0  0  0  0  0  0  0
  142.7381   79.0919  223.4960 H   0  0  0  0  0  0  0  0  0  0  0  0
  139.5087   78.9430  223.4576 H   0  0  0  0  0  0  0  0  0  0  0  0
  139.9914   80.1930  222.6673 H   0  0  0  0  0  0  0  0  0  0  0  0
  142.3738   75.8088  221.4107 H   0  0  0  0  0  0  0  0  0  0  0  0
  141.4010   73.5403  221.3776 H   0  0  0  0  0  0  0  0  0  0  0  0
  138.5734   69.5497  221.7664 H   0  0  0  0  0  0  0  0  0  0  0  0
  139.2924   68.1112  222.6780 H   0  0  0  0  0  0  0  0  0  0  0  0
  137.4370   67.9879  224.0593 H   0  0  0  0  0  0  0  0  0  0  0  0
  136.7362   70.3399  224.1643 H   0  0  0  0  0  0  0  0  0  0  0  0
  136.0529   70.2146  222.5404 H   0  0  0  0  0  0  0  0  0  0  0  0
  135.3519   68.5432  225.0345 H   0  0  0  0  0  0  0  0  0  0  0  0
  134.2558   69.6017  224.0724 H   0  0  0  0  0  0  0  0  0  0  0  0
  133.6990   67.6520  223.1360 H   0  0  0  0  0  0  0  0  0  0  0  0
  134.8555   67.0447  221.2373 H   0  0  0  0  0  0  0  0  0  0  0  0
  134.9980   68.8121  221.3759 H   0  0  0  0  0  0  0  0  0  0  0  0
  137.0266   66.6580  222.1187 H   0  0  0  0  0  0  0  0  0  0  0  0
  137.2292   68.0763  221.0207 H   0  0  0  0  0  0  0  0  0  0  0  0
  1  2  2  0
  2  3  1  0
  3  4  2  0
  4  5  1  0
  4  6  1  0
  6  7  2  0
  7  8  1  0
  8  9  2  0
  9 10  1  0
 10 11  2  0
 11 12  1  0
 12 13  2  0
 13 14  1  0
 14 15  2  0
 15 16  1  0
 16 17  2  0
 17 18  1  0
 18 19  1  0
 19 20  1  0
 17 21  1  0
 21 22  2  0
 11 23  1  0
 23 24  1  0
 24 25  1  0
 25 26  1  0
 26 27  1  0
 27 28  1  0
 28 29  1  0
 29 30  1  0
 23  2  1  0
 30 25  1  0
  9  3  1  0
 22 14  1  0
 20 18  1  0
  6 31  1  0
  7 32  1  0
  8 33  1  0
 12 34  1  0
 13 35  1  0
 15 36  1  0
 16 37  1  0
 18 38  1  0
 19 39  1  0
 19 40  1  0
 20 41  1  0
 20 42  1  0
 21 43  1  0
 22 44  1  0
 24 45  1  0
 24 46  1  0
 25 47  1  0
 26 48  1  0
 26 49  1  0
 27 50  1  0
 27 51  1  0
 28 52  1  0
 29 53  1  0
 29 54  1  0
 30 55  1  0
 30 56  1  0
M  END
>  <smiles>  (32) 
O=c1c2c(Cl)cccc2nc(/C=C/c2ccc(C3CC3)cc2)n1CC1CCNCC1

>  <score_type>  (32) 
oracle

>  <origin>  (32) 
autodockgpu

>  <m_score__min__energy>  (32) 
-8.9000000000000004

>  <m_primary>  (32) 
energy

>  <rmsd>  (32) 
11.420252003670454

>  <m_score__min__rmsd>  (32) 
11.420252003670454

>  <meeko>  (32) 
{"free_energy": -8.72, "intermolecular_energy": -10.51, "internal_energy": -1.44, "cluster_size": 5, "cluster_id": 2, "rank_in_cluster": 2}

>  <energy>  (32) 
-8.01

>  <cluster_rmsd>  (32) 
0.54

>  <cluster>  (32) 
5

$$$$

     RDKit          3D

 56 60  0  0  0  0  0  0  0  0999 V2000
  140.2210   71.9080  225.1480 O   0  0  0  0  0  0  0  0  0  0  0  0
  139.7620   70.7350  225.1170 C   0  0  0  0  0  0  0  0  0  0  0  0
  140.0290   69.9090  226.1880 C   0  0  0  0  0  0  0  0  0  0  0  0
  140.7800   70.3960  227.2400 C   0  0  0  0  0  0  0  0  0  0  0  0
  141.3990   72.0310  227.2490 Cl  0  0  0  0  0  0  0  0  0  0  0  0
  141.0220   69.5180  228.3010 C   0  0  0  0  0  0  0  0  0  0  0  0
  140.5270   68.2310  228.2820 C   0  0  0  0  0  0  0  0  0  0  0  0
  139.7790   67.7550  227.2250 C   0  0  0  0  0  0  0  0  0  0  0  0
  139.5390   68.6200  226.1790 C   0  0  0  0  0  0  0  0  0  0  0  0
  138.8220   68.2480  225.1090 N   0  0  0  0  0  0  0  0  0  0  0  0
  138.5610   69.0530  224.0650 C   0  0  0  0  0  0  0  0  0  0  0  0
  137.7620   68.5610  222.9490 C   0  0  0  0  0  0  0  0  0  0  0  0
  136.4680   68.7910  222.9460 C   0  0  0  0  0  0  0  0  0  0  0  0
  135.7530   69.5030  223.9890 C   0  0  0  0  0  0  0  0  0  0  0  0
  135.6630   70.8960  223.9670 C   0  0  0  0  0  0  0  0  0  0  0  0
  134.9940   71.6070  224.9380 C   0  0  0  0  0  0  0  0  0  0  0  0
  134.3770   70.9740  225.9880 C   0  0  0  0  0  0  0  0  0  0  0  0
  133.6820   71.8020  226.9890 C   0  0  0  0  0  0  0  0  0  0  0  0
  132.1870   71.9040  226.9690 C   0  0  0  0  0  0  0  0  0  0  0  0
  133.0540   73.0950  226.6230 C   0  0  0  0  0  0  0  0  0  0  0  0
  134.4500   69.6030  226.0360 C   0  0  0  0  0  0  0  0  0  0  0  0
  135.1270   68.8840  225.0510 C   0  0  0  0  0  0  0  0  0  0  0  0
  139.0250   70.3130  224.0460 N   0  0  0  0  0  0  0  0  0  0  0  0
  138.8260   71.2500  222.9880 C   0  0  0  0  0  0  0  0  0  0  0  0
  140.0520   71.8770  222.4260 C   0  0  0  0  0  0  0  0  0  0  0  0
  140.6240   71.2070  221.2070 C   0  0  0  0  0  0  0  0  0  0  0  0
  141.9780   71.8890  220.9680 C   0  0  0  0  0  0  0  0  0  0  0  0
  141.8320   73.3190  221.0260 N   0  0  0  0  0  0  0  0  0  0  0  0
  140.4700   73.7750  220.8460 C   0  0  0  0  0  0  0  0  0  0  0  0
  139.6860   73.3170  222.0590 C   0  0  0  0  0  0  0  0  0  0  0  0
  141.6153   69.8585  229.1625 H   0  0  0  0  0  0  0  0  0  0  0  0
  140.7342   67.5656  229.1331 H   0  0  0  0  0  0  0  0  0  0  0  0
  139.3897   66.7262  227.2173 H   0  0  0  0  0  0  0  0  0  0  0  0
  138.2339   68.0071  222.1241 H   0  0  0  0  0  0  0  0  0  0  0  0
  135.8850   68.4169  222.0915 H   0  0  0  0  0  0  0  0  0  0  0  0
  136.1439   71.4454  223.1442 H   0  0  0  0  0  0  0  0  0  0  0  0
  134.9532   72.7042  224.8709 H   0  0  0  0  0  0  0  0  0  0  0  0
  134.4343   71.5026  227.7336 H   0  0  0  0  0  0  0  0  0  0  0  0
  131.6087   71.3947  226.1840 H   0  0  0  0  0  0  0  0  0  0  0  0
  131.3784   71.7059  227.6879 H   0  0  0  0  0  0  0  0  0  0  0  0
  133.1035   73.4562  225.5852 H   0  0  0  0  0  0  0  0  0  0  0  0
  133.1353   74.1298  226.9871 H   0  0  0  0  0  0  0  0  0  0  0  0
  133.9670   69.0638  226.8642 H   0  0  0  0  0  0  0  0  0  0  0  0
  135.1629   67.7870  225.1235 H   0  0  0  0  0  0  0  0  0  0  0  0
  138.3112   70.7267  222.1688 H   0  0  0  0  0  0  0  0  0  0  0  0
  138.2500   72.0758  223.4310 H   0  0  0  0  0  0  0  0  0  0  0  0
  140.8336   71.7925  223.1954 H   0  0  0  0  0  0  0  0  0  0  0  0
  140.7613   70.1306  221.3876 H   0  0  0  0  0  0  0  0  0  0  0  0
  139.9580   71.3012  220.3366 H   0  0  0  0  0  0  0  0  0  0  0  0
  142.6895   71.5649  221.7417 H   0  0  0  0  0  0  0  0  0  0  0  0
  142.3509   71.6067  219.9724 H   0  0  0  0  0  0  0  0  0  0  0  0
  142.4410   73.8120  220.3200 H   0  0  0  0  0  0  0  0  0  0  0  0
  140.4455   74.8723  220.7725 H   0  0  0  0  0  0  0  0  0  0  0  0
  140.0376   73.3652  219.9213 H   0  0  0  0  0  0  0  0  0  0  0  0
  139.9171   73.9763  222.9087 H   0  0  0  0  0  0  0  0  0  0  0  0
  138.6123   73.3606  221.8239 H   0  0  0  0  0  0  0  0  0  0  0  0
  1  2  2  0
  2  3  1  0
  3  4  2  0
  4  5  1  0
  4  6  1  0
  6  7  2  0
  7  8  1  0
  8  9  2  0
  9 10  1  0
 10 11  2  0
 11 12  1  0
 12 13  2  0
 13 14  1  0
 14 15  2  0
 15 16  1  0
 16 17  2  0
 17 18  1  0
 18 19  1  0
 19 20  1  0
 17 21  1  0
 21 22  2  0
 11 23  1  0
 23 24  1  0
 24 25  1  0
 25 26  1  0
 26 27  1  0
 27 28  1  0
 28 29  1  0
 29 30  1  0
 23  2  1  0
 30 25  1  0
  9  3  1  0
 22 14  1  0
 20 18  1  0
  6 31  1  0
  7 32  1  0
  8 33  1  0
 12 34  1  0
 13 35  1  0
 15 36  1  0
 16 37  1  0
 18 38  1  0
 19 39  1  0
 19 40  1  0
 20 41  1  0
 20 42  1  0
 21 43  1  0
 22 44  1  0
 24 45  1  0
 24 46  1  0
 25 47  1  0
 26 48  1  0
 26 49  1  0
 27 50  1  0
 27 51  1  0
 28 52  1  0
 29 53  1  0
 29 54  1  0
 30 55  1  0
 30 56  1  0
M  END
>  <smiles>  (33) 
O=c1c2c(Cl)cccc2nc(/C=C/c2ccc(C3CC3)cc2)n1CC1CCNCC1

>  <score_type>  (33) 
oracle

>  <origin>  (33) 
autodockgpu

>  <m_score__min__energy>  (33) 
-8.9000000000000004

>  <m_primary>  (33) 
energy

>  <rmsd>  (33) 
11.185543811058155

>  <m_score__min__rmsd>  (33) 
11.185543811058155

>  <meeko>  (33) 
{"free_energy": -8.28, "intermolecular_energy": -10.07, "internal_energy": -1.81, "cluster_size": 12, "cluster_id": 5, "rank_in_cluster": 1}

>  <energy>  (33) 
-7.86

>  <cluster_rmsd>  (33) 
0.42

>  <cluster>  (33) 
5

$$$$

     RDKit          3D

 56 60  0  0  0  0  0  0  0  0999 V2000
  142.5070   75.6570  218.7760 O   0  0  0  0  0  0  0  0  0  0  0  0
  141.8440   75.4240  219.8220 C   0  0  0  0  0  0  0  0  0  0  0  0
  141.3750   76.5030  220.5420 C   0  0  0  0  0  0  0  0  0  0  0  0
  141.6500   77.7800  220.0940 C   0  0  0  0  0  0  0  0  0  0  0  0
  142.5750   78.0640  218.6370 Cl  0  0  0  0  0  0  0  0  0  0  0  0
  141.1530   78.8380  220.8600 C   0  0  0  0  0  0  0  0  0  0  0  0
  140.4240   78.6000  222.0070 C   0  0  0  0  0  0  0  0  0  0  0  0
  140.1570   77.3190  222.4470 C   0  0  0  0  0  0  0  0  0  0  0  0
  140.6460   76.2760  221.6910 C   0  0  0  0  0  0  0  0  0  0  0  0
  140.4370   74.9980  222.0370 N   0  0  0  0  0  0  0  0  0  0  0  0
  140.8920   73.9470  221.3350 C   0  0  0  0  0  0  0  0  0  0  0  0
  140.6050   72.5910  221.7860 C   0  0  0  0  0  0  0  0  0  0  0  0
  139.6710   72.4090  222.6940 C   0  0  0  0  0  0  0  0  0  0  0  0
  139.7500   71.4480  223.7790 C   0  0  0  0  0  0  0  0  0  0  0  0
  138.8740   70.3620  223.8340 C   0  0  0  0  0  0  0  0  0  0  0  0
  138.9180   69.4300  224.8460 C   0  0  0  0  0  0  0  0  0  0  0  0
  139.8350   69.5250  225.8640 C   0  0  0  0  0  0  0  0  0  0  0  0
  139.8200   68.4900  226.9130 C   0  0  0  0  0  0  0  0  0  0  0  0
  140.2170   68.8390  228.3150 C   0  0  0  0  0  0  0  0  0  0  0  0
  141.0760   67.9280  227.4650 C   0  0  0  0  0  0  0  0  0  0  0  0
  140.7090   70.5840  225.8370 C   0  0  0  0  0  0  0  0  0  0  0  0
  140.6640   71.5260  224.8090 C   0  0  0  0  0  0  0  0  0  0  0  0
  141.6060   74.1370  220.2130 N   0  0  0  0  0  0  0  0  0  0  0  0
  142.1530   73.1020  219.3970 C   0  0  0  0  0  0  0  0  0  0  0  0
  143.6300   72.9370  219.4460 C   0  0  0  0  0  0  0  0  0  0  0  0
  144.2340   72.8860  220.8230 C   0  0  0  0  0  0  0  0  0  0  0  0
  145.7510   72.9450  220.6010 C   0  0  0  0  0  0  0  0  0  0  0  0
  146.1440   72.0040  219.5860 N   0  0  0  0  0  0  0  0  0  0  0  0
  145.1680   70.9630  219.3470 C   0  0  0  0  0  0  0  0  0  0  0  0
  143.9550   71.6260  218.7260 C   0  0  0  0  0  0  0  0  0  0  0  0
  141.3455   79.8740  220.5444 H   0  0  0  0  0  0  0  0  0  0  0  0
  140.0451   79.4545  222.5868 H   0  0  0  0  0  0  0  0  0  0  0  0
  139.5772   77.1383  223.3642 H   0  0  0  0  0  0  0  0  0  0  0  0
  141.1597   71.7350  221.3742 H   0  0  0  0  0  0  0  0  0  0  0  0
  138.7652   73.0294  222.6263 H   0  0  0  0  0  0  0  0  0  0  0  0
  138.1215   70.2471  223.0399 H   0  0  0  0  0  0  0  0  0  0  0  0
  138.2047   68.5927  224.8392 H   0  0  0  0  0  0  0  0  0  0  0  0
  138.9301   68.0490  226.4402 H   0  0  0  0  0  0  0  0  0  0  0  0
  140.5598   69.8562  228.5555 H   0  0  0  0  0  0  0  0  0  0  0  0
  139.7416   68.7695  229.3045 H   0  0  0  0  0  0  0  0  0  0  0  0
  142.0480   68.2809  227.0899 H   0  0  0  0  0  0  0  0  0  0  0  0
  141.4892   66.9154  227.5830 H   0  0  0  0  0  0  0  0  0  0  0  0
  141.4555   70.6910  226.6378 H   0  0  0  0  0  0  0  0  0  0  0  0
  141.3819   72.3594  224.8203 H   0  0  0  0  0  0  0  0  0  0  0  0
  141.6987   72.1511  219.7122 H   0  0  0  0  0  0  0  0  0  0  0  0
  141.9241   73.3927  218.3611 H   0  0  0  0  0  0  0  0  0  0  0  0
  144.0649   73.8303  218.9739 H   0  0  0  0  0  0  0  0  0  0  0  0
  143.8986   73.7447  221.4231 H   0  0  0  0  0  0  0  0  0  0  0  0
  143.9340   71.9797  221.3695 H   0  0  0  0  0  0  0  0  0  0  0  0
  146.0321   73.9599  220.2833 H   0  0  0  0  0  0  0  0  0  0  0  0
  146.2606   72.6901  221.5419 H   0  0  0  0  0  0  0  0  0  0  0  0
  147.0690   71.5460  219.8020 H   0  0  0  0  0  0  0  0  0  0  0  0
  145.5800   70.2097  218.6594 H   0  0  0  0  0  0  0  0  0  0  0  0
  144.8999   70.4540  220.2845 H   0  0  0  0  0  0  0  0  0  0  0  0
  144.1612   71.8370  217.6663 H   0  0  0  0  0  0  0  0  0  0  0  0
  143.0939   70.9478  218.8183 H   0  0  0  0  0  0  0  0  0  0  0  0
  1  2  2  0
  2  3  1  0
  3  4  2  0
  4  5  1  0
  4  6  1  0
  6  7  2  0
  7  8  1  0
  8  9  2  0
  9 10  1  0
 10 11  2  0
 11 12  1  0
 12 13  2  0
 13 14  1  0
 14 15  2  0
 15 16  1  0
 16 17  2  0
 17 18  1  0
 18 19  1  0
 19 20  1  0
 17 21  1  0
 21 22  2  0
 11 23  1  0
 23 24  1  0
 24 25  1  0
 25 26  1  0
 26 27  1  0
 27 28  1  0
 28 29  1  0
 29 30  1  0
 23  2  1  0
 30 25  1  0
  9  3  1  0
 22 14  1  0
 20 18  1  0
  6 31  1  0
  7 32  1  0
  8 33  1  0
 12 34  1  0
 13 35  1  0
 15 36  1  0
 16 37  1  0
 18 38  1  0
 19 39  1  0
 19 40  1  0
 20 41  1  0
 20 42  1  0
 21 43  1  0
 22 44  1  0
 24 45  1  0
 24 46  1  0
 25 47  1  0
 26 48  1  0
 26 49  1  0
 27 50  1  0
 27 51  1  0
 28 52  1  0
 29 53  1  0
 29 54  1  0
 30 55  1  0
 30 56  1  0
M  END
>  <smiles>  (34) 
O=c1c2c(Cl)cccc2nc(/C=C/c2ccc(C3CC3)cc2)n1CC1CCNCC1

>  <score_type>  (34) 
oracle

>  <origin>  (34) 
autodockgpu

>  <m_score__min__energy>  (34) 
-8.9000000000000004

>  <m_primary>  (34) 
energy

>  <rmsd>  (34) 
5.579175354868774

>  <m_score__min__rmsd>  (34) 
5.579175354868774

>  <meeko>  (34) 
{"free_energy": -8.8, "intermolecular_energy": -10.59, "internal_energy": -1.3, "cluster_size": 12, "cluster_id": 1, "rank_in_cluster": 5}

>  <energy>  (34) 
-7.84

>  <cluster_rmsd>  (34) 
0.56

>  <cluster>  (34) 
5

$$$$

     RDKit          3D

 56 60  0  0  0  0  0  0  0  0999 V2000
  136.7120   77.4790  223.0930 O   0  0  0  0  0  0  0  0  0  0  0  0
  137.7380   76.8200  222.7770 C   0  0  0  0  0  0  0  0  0  0  0  0
  138.9380   77.4940  222.6950 C   0  0  0  0  0  0  0  0  0  0  0  0
  138.9670   78.8490  222.9600 C   0  0  0  0  0  0  0  0  0  0  0  0
  137.5210   79.7310  223.3970 Cl  0  0  0  0  0  0  0  0  0  0  0  0
  140.2080   79.4840  222.8620 C   0  0  0  0  0  0  0  0  0  0  0  0
  141.3400   78.7770  222.5170 C   0  0  0  0  0  0  0  0  0  0  0  0
  141.3000   77.4220  222.2540 C   0  0  0  0  0  0  0  0  0  0  0  0
  140.0760   76.7960  222.3500 C   0  0  0  0  0  0  0  0  0  0  0  0
  139.9390   75.4830  222.1130 N   0  0  0  0  0  0  0  0  0  0  0  0
  138.7690   74.8260  222.1940 C   0  0  0  0  0  0  0  0  0  0  0  0
  138.7190   73.3940  221.9270 C   0  0  0  0  0  0  0  0  0  0  0  0
  139.7120   72.6370  222.3410 C   0  0  0  0  0  0  0  0  0  0  0  0
  139.6430   71.7340  223.4760 C   0  0  0  0  0  0  0  0  0  0  0  0
  140.6630   71.7120  224.4300 C   0  0  0  0  0  0  0  0  0  0  0  0
  140.6340   70.8710  225.5200 C   0  0  0  0  0  0  0  0  0  0  0  0
  139.5900   70.0020  225.7240 C   0  0  0  0  0  0  0  0  0  0  0  0
  139.6310   69.1320  226.9130 C   0  0  0  0  0  0  0  0  0  0  0  0
  140.6700   69.3550  227.9680 C   0  0  0  0  0  0  0  0  0  0  0  0
  140.6990   68.1200  227.0950 C   0  0  0  0  0  0  0  0  0  0  0  0
  138.5730   70.0010  224.8000 C   0  0  0  0  0  0  0  0  0  0  0  0
  138.6040   70.8550  223.6970 C   0  0  0  0  0  0  0  0  0  0  0  0
  137.6440   75.4800  222.5260 N   0  0  0  0  0  0  0  0  0  0  0  0
  136.3470   74.8920  222.6270 C   0  0  0  0  0  0  0  0  0  0  0  0
  135.7750   74.7940  223.9960 C   0  0  0  0  0  0  0  0  0  0  0  0
  134.5820   75.6690  224.2670 C   0  0  0  0  0  0  0  0  0  0  0  0
  134.3320   75.5570  225.7770 C   0  0  0  0  0  0  0  0  0  0  0  0
  134.3450   74.1770  226.1830 N   0  0  0  0  0  0  0  0  0  0  0  0
  134.1400   73.2460  225.0940 C   0  0  0  0  0  0  0  0  0  0  0  0
  135.3600   73.3340  224.2010 C   0  0  0  0  0  0  0  0  0  0  0  0
  140.2826   80.5629  223.0629 H   0  0  0  0  0  0  0  0  0  0  0  0
  142.3016   79.3068  222.4493 H   0  0  0  0  0  0  0  0  0  0  0  0
  142.2079   76.8651  221.9791 H   0  0  0  0  0  0  0  0  0  0  0  0
  137.8663   72.9542  221.3890 H   0  0  0  0  0  0  0  0  0  0  0  0
  140.6615   72.6920  221.7884 H   0  0  0  0  0  0  0  0  0  0  0  0
  141.5199   72.3906  224.3062 H   0  0  0  0  0  0  0  0  0  0  0  0
  141.4636   70.8956  226.2419 H   0  0  0  0  0  0  0  0  0  0  0  0
  138.5320   69.0871  226.8967 H   0  0  0  0  0  0  0  0  0  0  0  0
  141.4288   70.1409  227.8391 H   0  0  0  0  0  0  0  0  0  0  0  0
  140.6583   69.5492  229.0507 H   0  0  0  0  0  0  0  0  0  0  0  0
  141.4828   68.0041  226.3319 H   0  0  0  0  0  0  0  0  0  0  0  0
  140.7201   67.0361  227.2812 H   0  0  0  0  0  0  0  0  0  0  0  0
  137.7218   69.3168  224.9318 H   0  0  0  0  0  0  0  0  0  0  0  0
  137.7710   70.8260  222.9792 H   0  0  0  0  0  0  0  0  0  0  0  0
  135.6572   75.4942  222.0175 H   0  0  0  0  0  0  0  0  0  0  0  0
  136.4670   73.8540  222.2833 H   0  0  0  0  0  0  0  0  0  0  0  0
  136.5529   75.1439  224.6906 H   0  0  0  0  0  0  0  0  0  0  0  0
  134.7973   76.7111  223.9884 H   0  0  0  0  0  0  0  0  0  0  0  0
  133.7040   75.3579  223.6819 H   0  0  0  0  0  0  0  0  0  0  0  0
  135.1204   76.1018  226.3170 H   0  0  0  0  0  0  0  0  0  0  0  0
  133.3481   75.9899  226.0104 H   0  0  0  0  0  0  0  0  0  0  0  0
  133.6280   73.9740  226.9300 H   0  0  0  0  0  0  0  0  0  0  0  0
  134.0317   72.2240  225.4860 H   0  0  0  0  0  0  0  0  0  0  0  0
  133.2253   73.4915  224.5345 H   0  0  0  0  0  0  0  0  0  0  0  0
  136.1904   72.7846  224.6685 H   0  0  0  0  0  0  0  0  0  0  0  0
  135.1153   72.8946  223.2227 H   0  0  0  0  0  0  0  0  0  0  0  0
  1  2  2  0
  2  3  1  0
  3  4  2  0
  4  5  1  0
  4  6  1  0
  6  7  2  0
  7  8  1  0
  8  9  2  0
  9 10  1  0
 10 11  2  0
 11 12  1  0
 12 13  2  0
 13 14  1  0
 14 15  2  0
 15 16  1  0
 16 17  2  0
 17 18  1  0
 18 19  1  0
 19 20  1  0
 17 21  1  0
 21 22  2  0
 11 23  1  0
 23 24  1  0
 24 25  1  0
 25 26  1  0
 26 27  1  0
 27 28  1  0
 28 29  1  0
 29 30  1  0
 23  2  1  0
 30 25  1  0
  9  3  1  0
 22 14  1  0
 20 18  1  0
  6 31  1  0
  7 32  1  0
  8 33  1  0
 12 34  1  0
 13 35  1  0
 15 36  1  0
 16 37  1  0
 18 38  1  0
 19 39  1  0
 19 40  1  0
 20 41  1  0
 20 42  1  0
 21 43  1  0
 22 44  1  0
 24 45  1  0
 24 46  1  0
 25 47  1  0
 26 48  1  0
 26 49  1  0
 27 50  1  0
 27 51  1  0
 28 52  1  0
 29 53  1  0
 29 54  1  0
 30 55  1  0
 30 56  1  0
M  END
>  <smiles>  (35) 
O=c1c2c(Cl)cccc2nc(/C=C/c2ccc(C3CC3)cc2)n1CC1CCNCC1

>  <score_type>  (35) 
oracle

>  <origin>  (35) 
autodockgpu

>  <m_score__min__energy>  (35) 
-8.9000000000000004

>  <m_primary>  (35) 
energy

>  <rmsd>  (35) 
6.42366486720909

>  <m_score__min__rmsd>  (35) 
6.42366486720909

>  <meeko>  (35) 
{"free_energy": -8.41, "intermolecular_energy": -10.2, "internal_energy": -1.52, "cluster_size": 5, "cluster_id": 4, "rank_in_cluster": 2}

>  <energy>  (35) 
-7.31

>  <cluster_rmsd>  (35) 
1.6

>  <cluster>  (35) 
5

$$$$

     RDKit          3D

 56 60  0  0  0  0  0  0  0  0999 V2000
  135.6620   74.9630  223.6570 O   0  0  0  0  0  0  0  0  0  0  0  0
  135.7770   73.7090  223.6220 C   0  0  0  0  0  0  0  0  0  0  0  0
  135.1350   72.9750  224.5970 C   0  0  0  0  0  0  0  0  0  0  0  0
  134.4030   73.6370  225.5630 C   0  0  0  0  0  0  0  0  0  0  0  0
  134.2660   75.3810  225.5790 Cl  0  0  0  0  0  0  0  0  0  0  0  0
  133.7720   72.8470  226.5280 C   0  0  0  0  0  0  0  0  0  0  0  0
  133.8870   71.4730  226.5040 C   0  0  0  0  0  0  0  0  0  0  0  0
  134.6230   70.8210  225.5340 C   0  0  0  0  0  0  0  0  0  0  0  0
  135.2440   71.6000  224.5820 C   0  0  0  0  0  0  0  0  0  0  0  0
  135.9800   71.0580  223.6010 N   0  0  0  0  0  0  0  0  0  0  0  0
  136.6040   71.7730  222.6500 C   0  0  0  0  0  0  0  0  0  0  0  0
  137.3750   71.0920  221.6170 C   0  0  0  0  0  0  0  0  0  0  0  0
  138.5500   70.5910  221.9280 C   0  0  0  0  0  0  0  0  0  0  0  0
  139.1420   70.6370  223.2530 C   0  0  0  0  0  0  0  0  0  0  0  0
  140.0840   71.6150  223.5780 C   0  0  0  0  0  0  0  0  0  0  0  0
  140.6680   71.6910  224.8230 C   0  0  0  0  0  0  0  0  0  0  0  0
  140.3490   70.7980  225.8160 C   0  0  0  0  0  0  0  0  0  0  0  0
  141.0160   70.9420  227.1220 C   0  0  0  0  0  0  0  0  0  0  0  0
  140.2790   71.5510  228.2760 C   0  0  0  0  0  0  0  0  0  0  0  0
  141.4450   72.2670  227.6300 C   0  0  0  0  0  0  0  0  0  0  0  0
  139.4250   69.8240  225.5240 C   0  0  0  0  0  0  0  0  0  0  0  0
  138.8340   69.7490  224.2620 C   0  0  0  0  0  0  0  0  0  0  0  0
  136.5170   73.1130  222.6400 N   0  0  0  0  0  0  0  0  0  0  0  0
  137.1480   73.9740  221.6930 C   0  0  0  0  0  0  0  0  0  0  0  0
  138.5990   74.2260  221.8980 C   0  0  0  0  0  0  0  0  0  0  0  0
  139.4780   73.9750  220.7040 C   0  0  0  0  0  0  0  0  0  0  0  0
  140.9160   74.0810  221.2300 C   0  0  0  0  0  0  0  0  0  0  0  0
  141.0690   75.2710  222.0240 N   0  0  0  0  0  0  0  0  0  0  0  0
  140.0470   76.2670  221.7870 C   0  0  0  0  0  0  0  0  0  0  0  0
  138.7420   75.6950  222.3030 C   0  0  0  0  0  0  0  0  0  0  0  0
  133.1756   73.3278  227.3174 H   0  0  0  0  0  0  0  0  0  0  0  0
  133.3786   70.8800  227.2786 H   0  0  0  0  0  0  0  0  0  0  0  0
  134.7099   69.7245  225.5219 H   0  0  0  0  0  0  0  0  0  0  0  0
  136.9802   70.9989  220.5945 H   0  0  0  0  0  0  0  0  0  0  0  0
  139.1253   70.1024  221.1278 H   0  0  0  0  0  0  0  0  0  0  0  0
  140.3699   72.3511  222.8123 H   0  0  0  0  0  0  0  0  0  0  0  0
  141.4044   72.4826  225.0258 H   0  0  0  0  0  0  0  0  0  0  0  0
  141.5352   69.9890  226.9425 H   0  0  0  0  0  0  0  0  0  0  0  0
  139.2547   71.9285  228.1405 H   0  0  0  0  0  0  0  0  0  0  0  0
  140.0227   71.2337  229.2976 H   0  0  0  0  0  0  0  0  0  0  0  0
  141.2700   73.1702  227.0270 H   0  0  0  0  0  0  0  0  0  0  0  0
  142.3934   72.6917  227.9909 H   0  0  0  0  0  0  0  0  0  0  0  0
  139.1468   69.0922  226.2967 H   0  0  0  0  0  0  0  0  0  0  0  0
  138.0982   68.9553  224.0657 H   0  0  0  0  0  0  0  0  0  0  0  0
  137.0230   73.5253  220.6965 H   0  0  0  0  0  0  0  0  0  0  0  0
  136.6598   74.9522  221.8144 H   0  0  0  0  0  0  0  0  0  0  0  0
  138.9401   73.5121  222.6621 H   0  0  0  0  0  0  0  0  0  0  0  0
  139.2913   72.9722  220.2922 H   0  0  0  0  0  0  0  0  0  0  0  0
  139.2838   74.6931  219.8937 H   0  0  0  0  0  0  0  0  0  0  0  0
  141.1423   73.2000  221.8486 H   0  0  0  0  0  0  0  0  0  0  0  0
  141.6076   74.1284  220.3759 H   0  0  0  0  0  0  0  0  0  0  0  0
  142.0110   75.7250  221.8850 H   0  0  0  0  0  0  0  0  0  0  0  0
  140.2917   77.1947  222.3251 H   0  0  0  0  0  0  0  0  0  0  0  0
  139.9739   76.5070  220.7160 H   0  0  0  0  0  0  0  0  0  0  0  0
  138.7231   75.7708  223.4002 H   0  0  0  0  0  0  0  0  0  0  0  0
  137.9084   76.2653  221.8672 H   0  0  0  0  0  0  0  0  0  0  0  0
  1  2  2  0
  2  3  1  0
  3  4  2  0
  4  5  1  0
  4  6  1  0
  6  7  2  0
  7  8  1  0
  8  9  2  0
  9 10  1  0
 10 11  2  0
 11 12  1  0
 12 13  2  0
 13 14  1  0
 14 15  2  0
 15 16  1  0
 16 17  2  0
 17 18  1  0
 18 19  1  0
 19 20  1  0
 17 21  1  0
 21 22  2  0
 11 23  1  0
 23 24  1  0
 24 25  1  0
 25 26  1  0
 26 27  1  0
 27 28  1  0
 28 29  1  0
 29 30  1  0
 23  2  1  0
 30 25  1  0
  9  3  1  0
 22 14  1  0
 20 18  1  0
  6 31  1  0
  7 32  1  0
  8 33  1  0
 12 34  1  0
 13 35  1  0
 15 36  1  0
 16 37  1  0
 18 38  1  0
 19 39  1  0
 19 40  1  0
 20 41  1  0
 20 42  1  0
 21 43  1  0
 22 44  1  0
 24 45  1  0
 24 46  1  0
 25 47  1  0
 26 48  1  0
 26 49  1  0
 27 50  1  0
 27 51  1  0
 28 52  1  0
 29 53  1  0
 29 54  1  0
 30 55  1  0
 30 56  1  0
M  END
>  <smiles>  (36) 
O=c1c2c(Cl)cccc2nc(/C=C/c2ccc(C3CC3)cc2)n1CC1CCNCC1

>  <score_type>  (36) 
oracle

>  <origin>  (36) 
autodockgpu

>  <m_score__min__energy>  (36) 
-8.9000000000000004

>  <m_primary>  (36) 
energy

>  <rmsd>  (36) 
9.063856889899307

>  <m_score__min__rmsd>  (36) 
9.063856889899307

>  <meeko>  (36) 
{"free_energy": -7.85, "intermolecular_energy": -9.64, "internal_energy": -2.34, "cluster_size": 13, "cluster_id": 6, "rank_in_cluster": 4}

>  <energy>  (36) 
-8.01

>  <cluster_rmsd>  (36) 
0.0

>  <cluster>  (36) 
6

$$$$

     RDKit          3D

 56 60  0  0  0  0  0  0  0  0999 V2000
  142.3530   76.1480  218.6300 O   0  0  0  0  0  0  0  0  0  0  0  0
  141.8340   75.8120  219.7280 C   0  0  0  0  0  0  0  0  0  0  0  0
  141.4000   76.8150  220.5700 C   0  0  0  0  0  0  0  0  0  0  0  0
  141.5530   78.1310  220.1800 C   0  0  0  0  0  0  0  0  0  0  0  0
  142.2780   78.5580  218.6470 Cl  0  0  0  0  0  0  0  0  0  0  0  0
  141.0970   79.1080  221.0700 C   0  0  0  0  0  0  0  0  0  0  0  0
  140.5260   78.7580  222.2750 C   0  0  0  0  0  0  0  0  0  0  0  0
  140.3800   77.4380  222.6550 C   0  0  0  0  0  0  0  0  0  0  0  0
  140.8290   76.4750  221.7780 C   0  0  0  0  0  0  0  0  0  0  0  0
  140.7290   75.1680  222.0590 N   0  0  0  0  0  0  0  0  0  0  0  0
  141.1500   74.1910  221.2380 C   0  0  0  0  0  0  0  0  0  0  0  0
  140.9900   72.7940  221.6270 C   0  0  0  0  0  0  0  0  0  0  0  0
  139.9050   72.4380  222.2800 C   0  0  0  0  0  0  0  0  0  0  0  0
  139.8900   71.5770  223.4480 C   0  0  0  0  0  0  0  0  0  0  0  0
  138.9860   70.5170  223.5400 C   0  0  0  0  0  0  0  0  0  0  0  0
  138.9410   69.6790  224.6320 C   0  0  0  0  0  0  0  0  0  0  0  0
  139.7930   69.8470  225.6960 C   0  0  0  0  0  0  0  0  0  0  0  0
  139.6840   68.9110  226.8290 C   0  0  0  0  0  0  0  0  0  0  0  0
  140.2680   69.2750  228.1590 C   0  0  0  0  0  0  0  0  0  0  0  0
  140.8610   68.1600  227.3270 C   0  0  0  0  0  0  0  0  0  0  0  0
  140.6930   70.8830  225.6330 C   0  0  0  0  0  0  0  0  0  0  0  0
  140.7370   71.7300  224.5260 C   0  0  0  0  0  0  0  0  0  0  0  0
  141.7120   74.4910  220.0560 N   0  0  0  0  0  0  0  0  0  0  0  0
  142.2090   73.5420  219.1130 C   0  0  0  0  0  0  0  0  0  0  0  0
  143.6360   73.1510  219.2640 C   0  0  0  0  0  0  0  0  0  0  0  0
  144.2170   73.3270  220.6400 C   0  0  0  0  0  0  0  0  0  0  0  0
  145.7230   73.0790  220.4790 C   0  0  0  0  0  0  0  0  0  0  0  0
  145.9510   71.8730  219.7280 N   0  0  0  0  0  0  0  0  0  0  0  0
  144.8120   70.9820  219.6940 C   0  0  0  0  0  0  0  0  0  0  0  0
  143.7340   71.6710  218.8840 C   0  0  0  0  0  0  0  0  0  0  0  0
  141.1952   80.1711  220.8050 H   0  0  0  0  0  0  0  0  0  0  0  0
  140.1772   79.5515  222.9523 H   0  0  0  0  0  0  0  0  0  0  0  0
  139.9239   77.1668  223.6185 H   0  0  0  0  0  0  0  0  0  0  0  0
  141.7629   72.0517  221.3787 H   0  0  0  0  0  0  0  0  0  0  0  0
  138.9404   72.8202  221.9147 H   0  0  0  0  0  0  0  0  0  0  0  0
  138.2844   70.3450  222.7104 H   0  0  0  0  0  0  0  0  0  0  0  0
  138.2082   68.8589  224.6524 H   0  0  0  0  0  0  0  0  0  0  0  0
  138.6874   68.6166  226.4683 H   0  0  0  0  0  0  0  0  0  0  0  0
  140.8132   70.2224  228.2827 H   0  0  0  0  0  0  0  0  0  0  0  0
  139.8828   69.3672  229.1852 H   0  0  0  0  0  0  0  0  0  0  0  0
  141.8419   68.2936  226.8473 H   0  0  0  0  0  0  0  0  0  0  0  0
  141.0900   67.0980  227.4996 H   0  0  0  0  0  0  0  0  0  0  0  0
  141.3895   71.0469  226.4684 H   0  0  0  0  0  0  0  0  0  0  0  0
  141.4722   72.5481  224.5120 H   0  0  0  0  0  0  0  0  0  0  0  0
  141.6001   72.6302  219.2019 H   0  0  0  0  0  0  0  0  0  0  0  0
  142.1420   74.0379  218.1334 H   0  0  0  0  0  0  0  0  0  0  0  0
  144.2190   73.8228  218.6168 H   0  0  0  0  0  0  0  0  0  0  0  0
  144.0318   74.3466  221.0088 H   0  0  0  0  0  0  0  0  0  0  0  0
  143.7636   72.6378  221.3676 H   0  0  0  0  0  0  0  0  0  0  0  0
  146.1764   73.9289  219.9478 H   0  0  0  0  0  0  0  0  0  0  0  0
  146.1775   72.9727  221.4750 H   0  0  0  0  0  0  0  0  0  0  0  0
  146.7830   71.3330  220.0850 H   0  0  0  0  0  0  0  0  0  0  0  0
  145.0912   70.0301  219.2187 H   0  0  0  0  0  0  0  0  0  0  0  0
  144.4569   70.7603  220.7112 H   0  0  0  0  0  0  0  0  0  0  0  0
  143.9770   71.5879  217.8144 H   0  0  0  0  0  0  0  0  0  0  0  0
  142.7690   71.1867  219.0942 H   0  0  0  0  0  0  0  0  0  0  0  0
  1  2  2  0
  2  3  1  0
  3  4  2  0
  4  5  1  0
  4  6  1  0
  6  7  2  0
  7  8  1  0
  8  9  2  0
  9 10  1  0
 10 11  2  0
 11 12  1  0
 12 13  2  0
 13 14  1  0
 14 15  2  0
 15 16  1  0
 16 17  2  0
 17 18  1  0
 18 19  1  0
 19 20  1  0
 17 21  1  0
 21 22  2  0
 11 23  1  0
 23 24  1  0
 24 25  1  0
 25 26  1  0
 26 27  1  0
 27 28  1  0
 28 29  1  0
 29 30  1  0
 23  2  1  0
 30 25  1  0
  9  3  1  0
 22 14  1  0
 20 18  1  0
  6 31  1  0
  7 32  1  0
  8 33  1  0
 12 34  1  0
 13 35  1  0
 15 36  1  0
 16 37  1  0
 18 38  1  0
 19 39  1  0
 19 40  1  0
 20 41  1  0
 20 42  1  0
 21 43  1  0
 22 44  1  0
 24 45  1  0
 24 46  1  0
 25 47  1  0
 26 48  1  0
 26 49  1  0
 27 50  1  0
 27 51  1  0
 28 52  1  0
 29 53  1  0
 29 54  1  0
 30 55  1  0
 30 56  1  0
M  END
>  <smiles>  (37) 
O=c1c2c(Cl)cccc2nc(/C=C/c2ccc(C3CC3)cc2)n1CC1CCNCC1

>  <score_type>  (37) 
oracle

>  <origin>  (37) 
autodockgpu

>  <m_score__min__energy>  (37) 
-8.9000000000000004

>  <m_primary>  (37) 
energy

>  <rmsd>  (37) 
5.369317940094283

>  <m_score__min__rmsd>  (37) 
5.369317940094283

>  <meeko>  (37) 
{"free_energy": -8.78, "intermolecular_energy": -10.57, "internal_energy": -1.35, "cluster_size": 12, "cluster_id": 1, "rank_in_cluster": 6}

>  <energy>  (37) 
-7.92

>  <cluster_rmsd>  (37) 
1.68

>  <cluster>  (37) 
6

$$$$

     RDKit          3D

 56 60  0  0  0  0  0  0  0  0999 V2000
  140.2830   71.9050  225.1660 O   0  0  0  0  0  0  0  0  0  0  0  0
  139.8430   70.7240  225.1370 C   0  0  0  0  0  0  0  0  0  0  0  0
  140.1100   69.9110  226.2190 C   0  0  0  0  0  0  0  0  0  0  0  0
  140.8380   70.4170  227.2770 C   0  0  0  0  0  0  0  0  0  0  0  0
  141.4310   72.0630  227.2810 Cl  0  0  0  0  0  0  0  0  0  0  0  0
  141.0810   69.5520  228.3470 C   0  0  0  0  0  0  0  0  0  0  0  0
  140.6070   68.2570  228.3320 C   0  0  0  0  0  0  0  0  0  0  0  0
  139.8800   67.7600  227.2690 C   0  0  0  0  0  0  0  0  0  0  0  0
  139.6410   68.6130  226.2130 C   0  0  0  0  0  0  0  0  0  0  0  0
  138.9440   68.2220  225.1370 N   0  0  0  0  0  0  0  0  0  0  0  0
  138.6840   69.0150  224.0840 C   0  0  0  0  0  0  0  0  0  0  0  0
  137.9080   68.5020  222.9610 C   0  0  0  0  0  0  0  0  0  0  0  0
  136.6380   68.8280  222.8660 C   0  0  0  0  0  0  0  0  0  0  0  0
  135.9040   69.5890  223.8600 C   0  0  0  0  0  0  0  0  0  0  0  0
  135.3130   68.9490  224.9520 C   0  0  0  0  0  0  0  0  0  0  0  0
  134.6090   69.6360  225.9160 C   0  0  0  0  0  0  0  0  0  0  0  0
  134.4520   70.9980  225.8500 C   0  0  0  0  0  0  0  0  0  0  0  0
  133.6850   71.6630  226.9180 C   0  0  0  0  0  0  0  0  0  0  0  0
  132.1870   71.6430  226.8880 C   0  0  0  0  0  0  0  0  0  0  0  0
  132.9530   72.9290  226.6730 C   0  0  0  0  0  0  0  0  0  0  0  0
  135.0220   71.6540  224.7860 C   0  0  0  0  0  0  0  0  0  0  0  0
  135.7350   70.9560  223.8110 C   0  0  0  0  0  0  0  0  0  0  0  0
  139.1280   70.2810  224.0610 N   0  0  0  0  0  0  0  0  0  0  0  0
  138.9280   71.2080  222.9930 C   0  0  0  0  0  0  0  0  0  0  0  0
  140.1530   71.8240  222.4190 C   0  0  0  0  0  0  0  0  0  0  0  0
  140.6640   71.1970  221.1510 C   0  0  0  0  0  0  0  0  0  0  0  0
  142.0300   71.8500  220.8980 C   0  0  0  0  0  0  0  0  0  0  0  0
  141.9310   73.2800  221.0290 N   0  0  0  0  0  0  0  0  0  0  0  0
  140.5790   73.7840  220.9180 C   0  0  0  0  0  0  0  0  0  0  0  0
  139.8210   73.2910  222.1330 C   0  0  0  0  0  0  0  0  0  0  0  0
  141.6581   69.9087  229.2129 H   0  0  0  0  0  0  0  0  0  0  0  0
  140.8140   67.6019  229.1910 H   0  0  0  0  0  0  0  0  0  0  0  0
  139.5066   66.7253  227.2648 H   0  0  0  0  0  0  0  0  0  0  0  0
  138.3772   67.8535  222.2065 H   0  0  0  0  0  0  0  0  0  0  0  0
  136.0926   68.5004  221.9687 H   0  0  0  0  0  0  0  0  0  0  0  0
  135.4135   67.8576  225.0453 H   0  0  0  0  0  0  0  0  0  0  0  0
  134.1636   69.0821  226.7556 H   0  0  0  0  0  0  0  0  0  0  0  0
  134.4561   71.3546  227.6393 H   0  0  0  0  0  0  0  0  0  0  0  0
  131.6573   71.1683  226.0489 H   0  0  0  0  0  0  0  0  0  0  0  0
  131.3939   71.3085  227.5729 H   0  0  0  0  0  0  0  0  0  0  0  0
  132.9776   73.3944  225.6766 H   0  0  0  0  0  0  0  0  0  0  0  0
  132.9457   73.9256  227.1385 H   0  0  0  0  0  0  0  0  0  0  0  0
  134.9146   72.7455  224.7016 H   0  0  0  0  0  0  0  0  0  0  0  0
  136.1777   71.5160  222.9741 H   0  0  0  0  0  0  0  0  0  0  0  0
  138.4076   70.6778  222.1818 H   0  0  0  0  0  0  0  0  0  0  0  0
  138.3573   72.0408  223.4298 H   0  0  0  0  0  0  0  0  0  0  0  0
  140.9562   71.6787  223.1564 H   0  0  0  0  0  0  0  0  0  0  0  0
  140.7740   70.1097  221.2760 H   0  0  0  0  0  0  0  0  0  0  0  0
  139.9730   71.3524  220.3093 H   0  0  0  0  0  0  0  0  0  0  0  0
  142.7564   71.4678  221.6303 H   0  0  0  0  0  0  0  0  0  0  0  0
  142.3603   71.6058  219.8776 H   0  0  0  0  0  0  0  0  0  0  0  0
  142.5310   73.7870  220.3270 H   0  0  0  0  0  0  0  0  0  0  0  0
  140.5863   74.8838  220.8980 H   0  0  0  0  0  0  0  0  0  0  0  0
  140.1042   73.4325  219.9901 H   0  0  0  0  0  0  0  0  0  0  0  0
  140.1000   73.9010  223.0048 H   0  0  0  0  0  0  0  0  0  0  0  0
  138.7422   73.3777  221.9362 H   0  0  0  0  0  0  0  0  0  0  0  0
  1  2  2  0
  2  3  1  0
  3  4  2  0
  4  5  1  0
  4  6  1  0
  6  7  2  0
  7  8  1  0
  8  9  2  0
  9 10  1  0
 10 11  2  0
 11 12  1  0
 12 13  2  0
 13 14  1  0
 14 15  2  0
 15 16  1  0
 16 17  2  0
 17 18  1  0
 18 19  1  0
 19 20  1  0
 17 21  1  0
 21 22  2  0
 11 23  1  0
 23 24  1  0
 24 25  1  0
 25 26  1  0
 26 27  1  0
 27 28  1  0
 28 29  1  0
 29 30  1  0
 23  2  1  0
 30 25  1  0
  9  3  1  0
 22 14  1  0
 20 18  1  0
  6 31  1  0
  7 32  1  0
  8 33  1  0
 12 34  1  0
 13 35  1  0
 15 36  1  0
 16 37  1  0
 18 38  1  0
 19 39  1  0
 19 40  1  0
 20 41  1  0
 20 42  1  0
 21 43  1  0
 22 44  1  0
 24 45  1  0
 24 46  1  0
 25 47  1  0
 26 48  1  0
 26 49  1  0
 27 50  1  0
 27 51  1  0
 28 52  1  0
 29 53  1  0
 29 54  1  0
 30 55  1  0
 30 56  1  0
M  END
>  <smiles>  (38) 
O=c1c2c(Cl)cccc2nc(/C=C/c2ccc(C3CC3)cc2)n1CC1CCNCC1

>  <score_type>  (38) 
oracle

>  <origin>  (38) 
autodockgpu

>  <m_score__min__energy>  (38) 
-8.9000000000000004

>  <m_primary>  (38) 
energy

>  <rmsd>  (38) 
11.189565656560191

>  <m_score__min__rmsd>  (38) 
11.189565656560191

>  <meeko>  (38) 
{"free_energy": -8.25, "intermolecular_energy": -10.04, "internal_energy": -1.81, "cluster_size": 12, "cluster_id": 5, "rank_in_cluster": 3}

>  <energy>  (38) 
-7.86

>  <cluster_rmsd>  (38) 
1.82

>  <cluster>  (38) 
6

$$$$

     RDKit          3D

 56 60  0  0  0  0  0  0  0  0999 V2000
  139.2470   68.2390  225.2270 O   0  0  0  0  0  0  0  0  0  0  0  0
  139.5910   69.4120  224.9250 C   0  0  0  0  0  0  0  0  0  0  0  0
  140.2110   70.1730  225.8940 C   0  0  0  0  0  0  0  0  0  0  0  0
  140.4260   69.6230  227.1430 C   0  0  0  0  0  0  0  0  0  0  0  0
  139.9340   67.9890  227.5250 Cl  0  0  0  0  0  0  0  0  0  0  0  0
  141.0570   70.4350  228.0890 C   0  0  0  0  0  0  0  0  0  0  0  0
  141.4400   71.7220  227.7750 C   0  0  0  0  0  0  0  0  0  0  0  0
  141.2190   72.2620  226.5240 C   0  0  0  0  0  0  0  0  0  0  0  0
  140.5980   71.4610  225.5900 C   0  0  0  0  0  0  0  0  0  0  0  0
  140.3420   71.8980  224.3490 N   0  0  0  0  0  0  0  0  0  0  0  0
  139.7390   71.1560  223.4040 C   0  0  0  0  0  0  0  0  0  0  0  0
  139.5110   71.7150  222.0760 C   0  0  0  0  0  0  0  0  0  0  0  0
  138.8470   72.8450  221.9690 C   0  0  0  0  0  0  0  0  0  0  0  0
  139.4540   74.1630  221.9750 C   0  0  0  0  0  0  0  0  0  0  0  0
  138.7030   75.2920  222.3090 C   0  0  0  0  0  0  0  0  0  0  0  0
  139.2420   76.5580  222.3260 C   0  0  0  0  0  0  0  0  0  0  0  0
  140.5610   76.7760  222.0100 C   0  0  0  0  0  0  0  0  0  0  0  0
  141.0660   78.1600  222.0490 C   0  0  0  0  0  0  0  0  0  0  0  0
  141.7520   78.6720  223.2780 C   0  0  0  0  0  0  0  0  0  0  0  0
  140.3990   79.2050  222.8620 C   0  0  0  0  0  0  0  0  0  0  0  0
  141.3240   75.6840  221.6760 C   0  0  0  0  0  0  0  0  0  0  0  0
  140.7760   74.4020  221.6600 C   0  0  0  0  0  0  0  0  0  0  0  0
  139.3510   69.8990  223.6710 N   0  0  0  0  0  0  0  0  0  0  0  0
  138.6900   69.0270  222.7550 C   0  0  0  0  0  0  0  0  0  0  0  0
  137.3340   68.5620  223.1520 C   0  0  0  0  0  0  0  0  0  0  0  0
  136.3420   69.6460  223.4740 C   0  0  0  0  0  0  0  0  0  0  0  0
  135.1250   68.9200  224.0620 C   0  0  0  0  0  0  0  0  0  0  0  0
  134.7590   67.8060  223.2290 N   0  0  0  0  0  0  0  0  0  0  0  0
  135.2820   67.8870  221.8830 C   0  0  0  0  0  0  0  0  0  0  0  0
  136.7870   67.7380  221.9830 C   0  0  0  0  0  0  0  0  0  0  0  0
  141.2509   70.0422  229.0980 H   0  0  0  0  0  0  0  0  0  0  0  0
  141.9352   72.3351  228.5424 H   0  0  0  0  0  0  0  0  0  0  0  0
  141.5261   73.2902  226.2823 H   0  0  0  0  0  0  0  0  0  0  0  0
  139.8879   71.2003  221.1799 H   0  0  0  0  0  0  0  0  0  0  0  0
  137.7532   72.7870  221.8677 H   0  0  0  0  0  0  0  0  0  0  0  0
  137.6416   75.1646  222.5680 H   0  0  0  0  0  0  0  0  0  0  0  0
  138.6043   77.4120  222.5979 H   0  0  0  0  0  0  0  0  0  0  0  0
  141.3312   78.0747  220.9848 H   0  0  0  0  0  0  0  0  0  0  0  0
  141.8440   78.0311  224.1672 H   0  0  0  0  0  0  0  0  0  0  0  0
  142.7341   79.1148  223.5003 H   0  0  0  0  0  0  0  0  0  0  0  0
  139.5046   78.9556  223.4517 H   0  0  0  0  0  0  0  0  0  0  0  0
  139.9857   80.2037  222.6576 H   0  0  0  0  0  0  0  0  0  0  0  0
  142.3840   75.8229  221.4170 H   0  0  0  0  0  0  0  0  0  0  0  0
  141.4192   73.5525  221.3871 H   0  0  0  0  0  0  0  0  0  0  0  0
  138.5954   69.5573  221.7959 H   0  0  0  0  0  0  0  0  0  0  0  0
  139.3110   68.1201  222.7122 H   0  0  0  0  0  0  0  0  0  0  0  0
  137.4543   67.9949  224.0869 H   0  0  0  0  0  0  0  0  0  0  0  0
  136.7635   70.3482  224.2083 H   0  0  0  0  0  0  0  0  0  0  0  0
  136.0768   70.2364  222.5846 H   0  0  0  0  0  0  0  0  0  0  0  0
  135.3723   68.5542  225.0695 H   0  0  0  0  0  0  0  0  0  0  0  0
  134.2796   69.6218  224.1135 H   0  0  0  0  0  0  0  0  0  0  0  0
  133.7130   67.6790  223.1700 H   0  0  0  0  0  0  0  0  0  0  0  0
  134.8626   67.0791  221.2654 H   0  0  0  0  0  0  0  0  0  0  0  0
  135.0125   68.8448  221.4140 H   0  0  0  0  0  0  0  0  0  0  0  0
  137.0356   66.6781  222.1403 H   0  0  0  0  0  0  0  0  0  0  0  0
  137.2420   68.1013  221.0497 H   0  0  0  0  0  0  0  0  0  0  0  0
  1  2  2  0
  2  3  1  0
  3  4  2  0
  4  5  1  0
  4  6  1  0
  6  7  2  0
  7  8  1  0
  8  9  2  0
  9 10  1  0
 10 11  2  0
 11 12  1  0
 12 13  2  0
 13 14  1  0
 14 15  2  0
 15 16  1  0
 16 17  2  0
 17 18  1  0
 18 19  1  0
 19 20  1  0
 17 21  1  0
 21 22  2  0
 11 23  1  0
 23 24  1  0
 24 25  1  0
 25 26  1  0
 26 27  1  0
 27 28  1  0
 28 29  1  0
 29 30  1  0
 23  2  1  0
 30 25  1  0
  9  3  1  0
 22 14  1  0
 20 18  1  0
  6 31  1  0
  7 32  1  0
  8 33  1  0
 12 34  1  0
 13 35  1  0
 15 36  1  0
 16 37  1  0
 18 38  1  0
 19 39  1  0
 19 40  1  0
 20 41  1  0
 20 42  1  0
 21 43  1  0
 22 44  1  0
 24 45  1  0
 24 46  1  0
 25 47  1  0
 26 48  1  0
 26 49  1  0
 27 50  1  0
 27 51  1  0
 28 52  1  0
 29 53  1  0
 29 54  1  0
 30 55  1  0
 30 56  1  0
M  END
>  <smiles>  (39) 
O=c1c2c(Cl)cccc2nc(/C=C/c2ccc(C3CC3)cc2)n1CC1CCNCC1

>  <score_type>  (39) 
oracle

>  <origin>  (39) 
autodockgpu

>  <m_score__min__energy>  (39) 
-8.9000000000000004

>  <m_primary>  (39) 
energy

>  <rmsd>  (39) 
11.419137792041347

>  <m_score__min__rmsd>  (39) 
11.419137792041347

>  <meeko>  (39) 
{"free_energy": -8.73, "intermolecular_energy": -10.52, "internal_energy": -1.44, "cluster_size": 5, "cluster_id": 2, "rank_in_cluster": 1}

>  <energy>  (39) 
-7.85

>  <cluster_rmsd>  (39) 
1.23

>  <cluster>  (39) 
6

$$$$

     RDKit          3D

 56 60  0  0  0  0  0  0  0  0999 V2000
  135.7850   74.9990  223.4120 O   0  0  0  0  0  0  0  0  0  0  0  0
  135.8190   73.7410  223.4760 C   0  0  0  0  0  0  0  0  0  0  0  0
  135.1300   73.1290  224.5020 C   0  0  0  0  0  0  0  0  0  0  0  0
  134.4400   73.9110  225.4070 C   0  0  0  0  0  0  0  0  0  0  0  0
  134.4160   75.6550  225.2850 Cl  0  0  0  0  0  0  0  0  0  0  0  0
  133.7590   73.2420  226.4280 C   0  0  0  0  0  0  0  0  0  0  0  0
  133.7840   71.8660  226.5130 C   0  0  0  0  0  0  0  0  0  0  0  0
  134.4780   71.0930  225.6030 C   0  0  0  0  0  0  0  0  0  0  0  0
  135.1500   71.7530  224.5960 C   0  0  0  0  0  0  0  0  0  0  0  0
  135.8500   71.0880  223.6660 N   0  0  0  0  0  0  0  0  0  0  0  0
  136.5200   71.6850  222.6650 C   0  0  0  0  0  0  0  0  0  0  0  0
  137.2470   70.8760  221.6940 C   0  0  0  0  0  0  0  0  0  0  0  0
  138.4760   70.5010  221.9730 C   0  0  0  0  0  0  0  0  0  0  0  0
  139.0810   70.5710  223.2910 C   0  0  0  0  0  0  0  0  0  0  0  0
  140.0680   71.5190  223.5710 C   0  0  0  0  0  0  0  0  0  0  0  0
  140.6660   71.6180  224.8070 C   0  0  0  0  0  0  0  0  0  0  0  0
  140.3170   70.7790  225.8370 C   0  0  0  0  0  0  0  0  0  0  0  0
  141.0010   70.9440  227.1320 C   0  0  0  0  0  0  0  0  0  0  0  0
  140.2750   71.5580  228.2890 C   0  0  0  0  0  0  0  0  0  0  0  0
  141.4230   72.2790  227.6190 C   0  0  0  0  0  0  0  0  0  0  0  0
  139.3490   69.8360  225.5900 C   0  0  0  0  0  0  0  0  0  0  0  0
  138.7450   69.7380  224.3370 C   0  0  0  0  0  0  0  0  0  0  0  0
  136.5200   73.0220  222.5490 N   0  0  0  0  0  0  0  0  0  0  0  0
  137.2070   73.7640  221.5410 C   0  0  0  0  0  0  0  0  0  0  0  0
  138.6270   74.1000  221.8250 C   0  0  0  0  0  0  0  0  0  0  0  0
  139.5940   73.8460  220.7010 C   0  0  0  0  0  0  0  0  0  0  0  0
  140.9870   74.0500  221.3110 C   0  0  0  0  0  0  0  0  0  0  0  0
  141.0290   75.2780  222.0590 N   0  0  0  0  0  0  0  0  0  0  0  0
  139.9750   76.2080  221.7120 C   0  0  0  0  0  0  0  0  0  0  0  0
  138.6700   75.5910  222.1720 C   0  0  0  0  0  0  0  0  0  0  0  0
  133.1953   73.8213  227.1741 H   0  0  0  0  0  0  0  0  0  0  0  0
  133.2361   71.3704  227.3280 H   0  0  0  0  0  0  0  0  0  0  0  0
  134.4940   69.9957  225.6784 H   0  0  0  0  0  0  0  0  0  0  0  0
  136.7753   70.5843  220.7441 H   0  0  0  0  0  0  0  0  0  0  0  0
  139.0892   70.1063  221.1495 H   0  0  0  0  0  0  0  0  0  0  0  0
  140.3787   72.2116  222.7749 H   0  0  0  0  0  0  0  0  0  0  0  0
  141.4381   72.3837  224.9729 H   0  0  0  0  0  0  0  0  0  0  0  0
  141.5273   69.9943  226.9558 H   0  0  0  0  0  0  0  0  0  0  0  0
  139.2449   71.9231  228.1643 H   0  0  0  0  0  0  0  0  0  0  0  0
  140.0370   71.2494  229.3177 H   0  0  0  0  0  0  0  0  0  0  0  0
  141.2295   73.1735  227.0087 H   0  0  0  0  0  0  0  0  0  0  0  0
  142.3718   72.7178  227.9614 H   0  0  0  0  0  0  0  0  0  0  0  0
  139.0458   69.1478  226.3928 H   0  0  0  0  0  0  0  0  0  0  0  0
  137.9740   68.9698  224.1776 H   0  0  0  0  0  0  0  0  0  0  0  0
  137.1812   73.1732  220.6135 H   0  0  0  0  0  0  0  0  0  0  0  0
  136.6834   74.7294  221.4785 H   0  0  0  0  0  0  0  0  0  0  0  0
  138.9527   73.4371  222.6402 H   0  0  0  0  0  0  0  0  0  0  0  0
  139.4852   72.8183  220.3241 H   0  0  0  0  0  0  0  0  0  0  0  0
  139.4173   74.5182  219.8484 H   0  0  0  0  0  0  0  0  0  0  0  0
  141.2164   73.2086  221.9814 H   0  0  0  0  0  0  0  0  0  0  0  0
  141.7291   74.0989  220.5005 H   0  0  0  0  0  0  0  0  0  0  0  0
  141.9530   75.7750  221.9590 H   0  0  0  0  0  0  0  0  0  0  0  0
  140.1377   77.1700  222.2201 H   0  0  0  0  0  0  0  0  0  0  0  0
  139.9593   76.3967  220.6284 H   0  0  0  0  0  0  0  0  0  0  0  0
  138.5773   75.7115  223.2614 H   0  0  0  0  0  0  0  0  0  0  0  0
  137.8383   76.0982  221.6610 H   0  0  0  0  0  0  0  0  0  0  0  0
  1  2  2  0
  2  3  1  0
  3  4  2  0
  4  5  1  0
  4  6  1  0
  6  7  2  0
  7  8  1  0
  8  9  2  0
  9 10  1  0
 10 11  2  0
 11 12  1  0
 12 13  2  0
 13 14  1  0
 14 15  2  0
 15 16  1  0
 16 17  2  0
 17 18  1  0
 18 19  1  0
 19 20  1  0
 17 21  1  0
 21 22  2  0
 11 23  1  0
 23 24  1  0
 24 25  1  0
 25 26  1  0
 26 27  1  0
 27 28  1  0
 28 29  1  0
 29 30  1  0
 23  2  1  0
 30 25  1  0
  9  3  1  0
 22 14  1  0
 20 18  1  0
  6 31  1  0
  7 32  1  0
  8 33  1  0
 12 34  1  0
 13 35  1  0
 15 36  1  0
 16 37  1  0
 18 38  1  0
 19 39  1  0
 19 40  1  0
 20 41  1  0
 20 42  1  0
 21 43  1  0
 22 44  1  0
 24 45  1  0
 24 46  1  0
 25 47  1  0
 26 48  1  0
 26 49  1  0
 27 50  1  0
 27 51  1  0
 28 52  1  0
 29 53  1  0
 29 54  1  0
 30 55  1  0
 30 56  1  0
M  END
>  <smiles>  (40) 
O=c1c2c(Cl)cccc2nc(/C=C/c2ccc(C3CC3)cc2)n1CC1CCNCC1

>  <score_type>  (40) 
oracle

>  <origin>  (40) 
autodockgpu

>  <m_score__min__energy>  (40) 
-8.9000000000000004

>  <m_primary>  (40) 
energy

>  <rmsd>  (40) 
8.941315445132624

>  <m_score__min__rmsd>  (40) 
8.941315445132624

>  <meeko>  (40) 
{"free_energy": -7.79, "intermolecular_energy": -9.58, "internal_energy": -2.33, "cluster_size": 13, "cluster_id": 6, "rank_in_cluster": 9}

>  <energy>  (40) 
-7.83

>  <cluster_rmsd>  (40) 
1.36

>  <cluster>  (40) 
6

$$$$

     RDKit          3D

 56 60  0  0  0  0  0  0  0  0999 V2000
  136.5890   77.0850  222.9830 O   0  0  0  0  0  0  0  0  0  0  0  0
  137.5200   76.3010  222.6560 C   0  0  0  0  0  0  0  0  0  0  0  0
  138.7770   76.8370  222.4670 C   0  0  0  0  0  0  0  0  0  0  0  0
  138.9620   78.1940  222.6420 C   0  0  0  0  0  0  0  0  0  0  0  0
  137.6440   79.2500  223.0960 Cl  0  0  0  0  0  0  0  0  0  0  0  0
  140.2540   78.6860  222.4380 C   0  0  0  0  0  0  0  0  0  0  0  0
  141.2850   77.8420  222.0800 C   0  0  0  0  0  0  0  0  0  0  0  0
  141.0890   76.4870  221.9080 C   0  0  0  0  0  0  0  0  0  0  0  0
  139.8150   76.0010  222.1090 C   0  0  0  0  0  0  0  0  0  0  0  0
  139.5280   74.7000  221.9650 N   0  0  0  0  0  0  0  0  0  0  0  0
  138.3030   74.1780  222.1500 C   0  0  0  0  0  0  0  0  0  0  0  0
  138.0900   72.7460  221.9800 C   0  0  0  0  0  0  0  0  0  0  0  0
  139.1000   71.9260  222.1750 C   0  0  0  0  0  0  0  0  0  0  0  0
  139.5400   71.4530  223.4740 C   0  0  0  0  0  0  0  0  0  0  0  0
  138.8040   70.4910  224.1690 C   0  0  0  0  0  0  0  0  0  0  0  0
  139.1890   70.0180  225.4030 C   0  0  0  0  0  0  0  0  0  0  0  0
  140.3280   70.4740  226.0190 C   0  0  0  0  0  0  0  0  0  0  0  0
  140.6750   69.9210  227.3400 C   0  0  0  0  0  0  0  0  0  0  0  0
  140.4030   68.4800  227.6430 C   0  0  0  0  0  0  0  0  0  0  0  0
  139.6300   69.5810  228.3350 C   0  0  0  0  0  0  0  0  0  0  0  0
  141.0720   71.4220  225.3590 C   0  0  0  0  0  0  0  0  0  0  0  0
  140.6810   71.9000  224.1080 C   0  0  0  0  0  0  0  0  0  0  0  0
  137.2740   74.9660  222.4980 N   0  0  0  0  0  0  0  0  0  0  0  0
  135.9310   74.5290  222.7050 C   0  0  0  0  0  0  0  0  0  0  0  0
  135.4620   74.4930  224.1160 C   0  0  0  0  0  0  0  0  0  0  0  0
  134.3890   75.4860  224.4700 C   0  0  0  0  0  0  0  0  0  0  0  0
  134.2490   75.4040  225.9960 C   0  0  0  0  0  0  0  0  0  0  0  0
  134.1530   74.0310  226.4150 N   0  0  0  0  0  0  0  0  0  0  0  0
  133.7700   73.1230  225.3550 C   0  0  0  0  0  0  0  0  0  0  0  0
  134.9180   73.0840  224.3680 C   0  0  0  0  0  0  0  0  0  0  0  0
  140.4516   79.7607  222.5646 H   0  0  0  0  0  0  0  0  0  0  0  0
  142.2907   78.2607  221.9275 H   0  0  0  0  0  0  0  0  0  0  0  0
  141.9166   75.8212  221.6219 H   0  0  0  0  0  0  0  0  0  0  0  0
  137.1015   72.3577  221.6935 H   0  0  0  0  0  0  0  0  0  0  0  0
  139.6502   71.5738  221.2900 H   0  0  0  0  0  0  0  0  0  0  0  0
  137.8833   70.0970  223.7139 H   0  0  0  0  0  0  0  0  0  0  0  0
  138.5714   69.2592  225.9058 H   0  0  0  0  0  0  0  0  0  0  0  0
  141.5644   70.5681  227.3582 H   0  0  0  0  0  0  0  0  0  0  0  0
  139.9076   67.8421  226.8962 H   0  0  0  0  0  0  0  0  0  0  0  0
  141.0064   67.6208  227.9710 H   0  0  0  0  0  0  0  0  0  0  0  0
  138.5687   69.7425  228.0951 H   0  0  0  0  0  0  0  0  0  0  0  0
  139.4347   69.8545  229.3824 H   0  0  0  0  0  0  0  0  0  0  0  0
  141.9902   71.8101  225.8242 H   0  0  0  0  0  0  0  0  0  0  0  0
  141.3031   72.6586  223.6105 H   0  0  0  0  0  0  0  0  0  0  0  0
  135.2678   75.2073  222.1482 H   0  0  0  0  0  0  0  0  0  0  0  0
  135.9047   73.4850  222.3594 H   0  0  0  0  0  0  0  0  0  0  0  0
  136.3239   74.7628  224.7439 H   0  0  0  0  0  0  0  0  0  0  0  0
  134.6864   76.5000  224.1643 H   0  0  0  0  0  0  0  0  0  0  0  0
  133.4406   75.2647  223.9586 H   0  0  0  0  0  0  0  0  0  0  0  0
  135.1291   75.8664  226.4666 H   0  0  0  0  0  0  0  0  0  0  0  0
  133.3358   75.9361  226.3009 H   0  0  0  0  0  0  0  0  0  0  0  0
  133.4810   73.9050  227.2170 H   0  0  0  0  0  0  0  0  0  0  0  0
  133.5902   72.1182  225.7650 H   0  0  0  0  0  0  0  0  0  0  0  0
  132.8437   73.4592  224.8662 H   0  0  0  0  0  0  0  0  0  0  0  0
  135.7225   72.4534  224.7744 H   0  0  0  0  0  0  0  0  0  0  0  0
  134.5529   72.6700  223.4165 H   0  0  0  0  0  0  0  0  0  0  0  0
  1  2  2  0
  2  3  1  0
  3  4  2  0
  4  5  1  0
  4  6  1  0
  6  7  2  0
  7  8  1  0
  8  9  2  0
  9 10  1  0
 10 11  2  0
 11 12  1  0
 12 13  2  0
 13 14  1  0
 14 15  2  0
 15 16  1  0
 16 17  2  0
 17 18  1  0
 18 19  1  0
 19 20  1  0
 17 21  1  0
 21 22  2  0
 11 23  1  0
 23 24  1  0
 24 25  1  0
 25 26  1  0
 26 27  1  0
 27 28  1  0
 28 29  1  0
 29 30  1  0
 23  2  1  0
 30 25  1  0
  9  3  1  0
 22 14  1  0
 20 18  1  0
  6 31  1  0
  7 32  1  0
  8 33  1  0
 12 34  1  0
 13 35  1  0
 15 36  1  0
 16 37  1  0
 18 38  1  0
 19 39  1  0
 19 40  1  0
 20 41  1  0
 20 42  1  0
 21 43  1  0
 22 44  1  0
 24 45  1  0
 24 46  1  0
 25 47  1  0
 26 48  1  0
 26 49  1  0
 27 50  1  0
 27 51  1  0
 28 52  1  0
 29 53  1  0
 29 54  1  0
 30 55  1  0
 30 56  1  0
M  END
>  <smiles>  (41) 
O=c1c2c(Cl)cccc2nc(/C=C/c2ccc(C3CC3)cc2)n1CC1CCNCC1

>  <score_type>  (41) 
oracle

>  <origin>  (41) 
autodockgpu

>  <m_score__min__energy>  (41) 
-8.9000000000000004

>  <m_primary>  (41) 
energy

>  <rmsd>  (41) 
6.823218585781907

>  <m_score__min__rmsd>  (41) 
6.823218585781907

>  <meeko>  (41) 
{"free_energy": -8.34, "intermolecular_energy": -10.13, "internal_energy": -1.56, "cluster_size": 5, "cluster_id": 4, "rank_in_cluster": 4}

>  <energy>  (41) 
-7.83

>  <cluster_rmsd>  (41) 
1.45

>  <cluster>  (41) 
6

$$$$

     RDKit          3D

 56 60  0  0  0  0  0  0  0  0999 V2000
  139.1770   68.1830  224.5250 O   0  0  0  0  0  0  0  0  0  0  0  0
  139.5830   69.3740  224.4610 C   0  0  0  0  0  0  0  0  0  0  0  0
  140.0580   69.9570  225.6180 C   0  0  0  0  0  0  0  0  0  0  0  0
  140.0680   69.2200  226.7850 C   0  0  0  0  0  0  0  0  0  0  0  0
  139.4970   67.5680  226.8350 Cl  0  0  0  0  0  0  0  0  0  0  0  0
  140.5580   69.8570  227.9290 C   0  0  0  0  0  0  0  0  0  0  0  0
  141.0060   71.1600  227.8760 C   0  0  0  0  0  0  0  0  0  0  0  0
  140.9900   71.8880  226.7030 C   0  0  0  0  0  0  0  0  0  0  0  0
  140.5070   71.2600  225.5760 C   0  0  0  0  0  0  0  0  0  0  0  0
  140.4540   71.8860  224.3920 N   0  0  0  0  0  0  0  0  0  0  0  0
  139.9920   71.3180  223.2640 C   0  0  0  0  0  0  0  0  0  0  0  0
  139.9820   72.0760  222.0190 C   0  0  0  0  0  0  0  0  0  0  0  0
  139.1420   73.0810  221.8950 C   0  0  0  0  0  0  0  0  0  0  0  0
  139.5210   74.4820  221.9250 C   0  0  0  0  0  0  0  0  0  0  0  0
  138.6080   75.4580  222.3300 C   0  0  0  0  0  0  0  0  0  0  0  0
  138.9300   76.7960  222.3720 C   0  0  0  0  0  0  0  0  0  0  0  0
  140.1770   77.2410  222.0110 C   0  0  0  0  0  0  0  0  0  0  0  0
  140.4470   78.6890  222.0800 C   0  0  0  0  0  0  0  0  0  0  0  0
  141.8060   79.1790  222.4730 C   0  0  0  0  0  0  0  0  0  0  0  0
  140.6120   79.3840  223.3790 C   0  0  0  0  0  0  0  0  0  0  0  0
  141.0960   76.3040  221.6060 C   0  0  0  0  0  0  0  0  0  0  0  0
  140.7680   74.9480  221.5660 C   0  0  0  0  0  0  0  0  0  0  0  0
  139.5470   70.0510  223.2750 N   0  0  0  0  0  0  0  0  0  0  0  0
  139.0210   69.3520  222.1470 C   0  0  0  0  0  0  0  0  0  0  0  0
  137.5430   69.1980  222.0990 C   0  0  0  0  0  0  0  0  0  0  0  0
  137.0240   67.8110  222.3580 C   0  0  0  0  0  0  0  0  0  0  0  0
  135.5250   67.8720  222.0300 C   0  0  0  0  0  0  0  0  0  0  0  0
  134.9240   69.0160  222.6610 N   0  0  0  0  0  0  0  0  0  0  0  0
  135.7000   69.5530  223.7580 C   0  0  0  0  0  0  0  0  0  0  0  0
  136.9640   70.1370  223.1620 C   0  0  0  0  0  0  0  0  0  0  0  0
  140.5865   69.3116  228.8838 H   0  0  0  0  0  0  0  0  0  0  0  0
  141.3866   71.6325  228.7936 H   0  0  0  0  0  0  0  0  0  0  0  0
  141.3484   72.9274  226.6697 H   0  0  0  0  0  0  0  0  0  0  0  0
  140.6646   71.8124  221.1977 H   0  0  0  0  0  0  0  0  0  0  0  0
  138.0768   72.8427  221.7589 H   0  0  0  0  0  0  0  0  0  0  0  0
  137.5954   75.1467  222.6261 H   0  0  0  0  0  0  0  0  0  0  0  0
  138.1727   77.5227  222.7014 H   0  0  0  0  0  0  0  0  0  0  0  0
  139.7844   78.8363  221.2144 H   0  0  0  0  0  0  0  0  0  0  0  0
  142.5933   78.4623  222.7498 H   0  0  0  0  0  0  0  0  0  0  0  0
  142.5655   79.8317  222.0179 H   0  0  0  0  0  0  0  0  0  0  0  0
  140.5315   78.8189  224.3193 H   0  0  0  0  0  0  0  0  0  0  0  0
  140.1416   80.2535  223.8614 H   0  0  0  0  0  0  0  0  0  0  0  0
  142.1047   76.6269  221.3090 H   0  0  0  0  0  0  0  0  0  0  0  0
  141.5303   74.2265  221.2368 H   0  0  0  0  0  0  0  0  0  0  0  0
  139.3311   69.8946  221.2418 H   0  0  0  0  0  0  0  0  0  0  0  0
  139.4204   68.3299  222.2225 H   0  0  0  0  0  0  0  0  0  0  0  0
  137.2328   69.4339  221.0704 H   0  0  0  0  0  0  0  0  0  0  0  0
  137.5312   67.0822  221.7087 H   0  0  0  0  0  0  0  0  0  0  0  0
  137.2044   67.4924  223.3953 H   0  0  0  0  0  0  0  0  0  0  0  0
  135.3944   67.9478  220.9404 H   0  0  0  0  0  0  0  0  0  0  0  0
  135.0385   66.9592  222.4043 H   0  0  0  0  0  0  0  0  0  0  0  0
  133.9510   68.8120  223.0130 H   0  0  0  0  0  0  0  0  0  0  0  0
  135.1291   70.3376  224.2761 H   0  0  0  0  0  0  0  0  0  0  0  0
  135.9379   68.7686  224.4916 H   0  0  0  0  0  0  0  0  0  0  0  0
  136.7306   71.1071  222.6989 H   0  0  0  0  0  0  0  0  0  0  0  0
  137.7067   70.2665  223.9630 H   0  0  0  0  0  0  0  0  0  0  0  0
  1  2  2  0
  2  3  1  0
  3  4  2  0
  4  5  1  0
  4  6  1  0
  6  7  2  0
  7  8  1  0
  8  9  2  0
  9 10  1  0
 10 11  2  0
 11 12  1  0
 12 13  2  0
 13 14  1  0
 14 15  2  0
 15 16  1  0
 16 17  2  0
 17 18  1  0
 18 19  1  0
 19 20  1  0
 17 21  1  0
 21 22  2  0
 11 23  1  0
 23 24  1  0
 24 25  1  0
 25 26  1  0
 26 27  1  0
 27 28  1  0
 28 29  1  0
 29 30  1  0
 23  2  1  0
 30 25  1  0
  9  3  1  0
 22 14  1  0
 20 18  1  0
  6 31  1  0
  7 32  1  0
  8 33  1  0
 12 34  1  0
 13 35  1  0
 15 36  1  0
 16 37  1  0
 18 38  1  0
 19 39  1  0
 19 40  1  0
 20 41  1  0
 20 42  1  0
 21 43  1  0
 22 44  1  0
 24 45  1  0
 24 46  1  0
 25 47  1  0
 26 48  1  0
 26 49  1  0
 27 50  1  0
 27 51  1  0
 28 52  1  0
 29 53  1  0
 29 54  1  0
 30 55  1  0
 30 56  1  0
M  END
>  <smiles>  (42) 
O=c1c2c(Cl)cccc2nc(/C=C/c2ccc(C3CC3)cc2)n1CC1CCNCC1

>  <score_type>  (42) 
oracle

>  <origin>  (42) 
autodockgpu

>  <m_score__min__energy>  (42) 
-8.9000000000000004

>  <m_primary>  (42) 
energy

>  <rmsd>  (42) 
11.51812050838929

>  <m_score__min__rmsd>  (42) 
11.51812050838929

>  <meeko>  (42) 
{"free_energy": -8.36, "intermolecular_energy": -10.15, "internal_energy": -1.44, "cluster_size": 5, "cluster_id": 2, "rank_in_cluster": 5}

>  <energy>  (42) 
-7.82

>  <cluster_rmsd>  (42) 
1.42

>  <cluster>  (42) 
6

$$$$

     RDKit          3D

 56 60  0  0  0  0  0  0  0  0999 V2000
  140.7340   71.8590  224.8140 O   0  0  0  0  0  0  0  0  0  0  0  0
  140.1780   70.7280  224.8290 C   0  0  0  0  0  0  0  0  0  0  0  0
  140.1370   70.0460  226.0270 C   0  0  0  0  0  0  0  0  0  0  0  0
  140.6990   70.6230  227.1480 C   0  0  0  0  0  0  0  0  0  0  0  0
  141.4610   72.1970  227.0880 Cl  0  0  0  0  0  0  0  0  0  0  0  0
  140.6300   69.8910  228.3370 C   0  0  0  0  0  0  0  0  0  0  0  0
  140.0260   68.6520  228.3710 C   0  0  0  0  0  0  0  0  0  0  0  0
  139.4670   68.0840  227.2440 C   0  0  0  0  0  0  0  0  0  0  0  0
  139.5350   68.8060  226.0720 C   0  0  0  0  0  0  0  0  0  0  0  0
  139.0200   68.3360  224.9260 N   0  0  0  0  0  0  0  0  0  0  0  0
  139.0600   69.0010  223.7590 C   0  0  0  0  0  0  0  0  0  0  0  0
  138.4630   68.4130  222.5660 C   0  0  0  0  0  0  0  0  0  0  0  0
  137.1550   68.4400  222.4310 C   0  0  0  0  0  0  0  0  0  0  0  0
  136.2510   69.1650  223.3040 C   0  0  0  0  0  0  0  0  0  0  0  0
  135.4220   70.1680  222.7950 C   0  0  0  0  0  0  0  0  0  0  0  0
  134.5510   70.8780  223.5900 C   0  0  0  0  0  0  0  0  0  0  0  0
  134.4540   70.6330  224.9380 C   0  0  0  0  0  0  0  0  0  0  0  0
  133.4990   71.4350  225.7240 C   0  0  0  0  0  0  0  0  0  0  0  0
  133.8860   72.8000  226.2050 C   0  0  0  0  0  0  0  0  0  0  0  0
  133.6890   71.6580  227.1770 C   0  0  0  0  0  0  0  0  0  0  0  0
  135.2580   69.6530  225.4660 C   0  0  0  0  0  0  0  0  0  0  0  0
  136.1390   68.9340  224.6590 C   0  0  0  0  0  0  0  0  0  0  0  0
  139.6400   70.2100  223.6850 N   0  0  0  0  0  0  0  0  0  0  0  0
  139.7560   70.9990  222.5010 C   0  0  0  0  0  0  0  0  0  0  0  0
  139.2100   72.3800  222.5760 C   0  0  0  0  0  0  0  0  0  0  0  0
  139.7500   73.3490  221.5610 C   0  0  0  0  0  0  0  0  0  0  0  0
  139.2160   74.7230  221.9880 C   0  0  0  0  0  0  0  0  0  0  0  0
  137.8050   74.6460  222.2600 N   0  0  0  0  0  0  0  0  0  0  0  0
  137.1590   73.4950  221.6690 C   0  0  0  0  0  0  0  0  0  0  0  0
  137.6950   72.2700  222.3820 C   0  0  0  0  0  0  0  0  0  0  0  0
  141.0633   70.3090  229.2576 H   0  0  0  0  0  0  0  0  0  0  0  0
  139.9886   68.1011  229.3224 H   0  0  0  0  0  0  0  0  0  0  0  0
  138.9866   67.0951  227.2798 H   0  0  0  0  0  0  0  0  0  0  0  0
  139.0958   67.9545  221.7918 H   0  0  0  0  0  0  0  0  0  0  0  0
  136.7154   67.8728  221.5973 H   0  0  0  0  0  0  0  0  0  0  0  0
  135.4670   70.3985  221.7204 H   0  0  0  0  0  0  0  0  0  0  0  0
  133.9202   71.6569  223.1368 H   0  0  0  0  0  0  0  0  0  0  0  0
  132.6795   71.0250  225.1154 H   0  0  0  0  0  0  0  0  0  0  0  0
  134.8954   73.1901  226.0077 H   0  0  0  0  0  0  0  0  0  0  0  0
  133.4766   73.8150  226.0950 H   0  0  0  0  0  0  0  0  0  0  0  0
  134.5559   71.2185  227.6921 H   0  0  0  0  0  0  0  0  0  0  0  0
  133.0743   71.4985  228.0752 H   0  0  0  0  0  0  0  0  0  0  0  0
  135.2063   69.4317  226.5423 H   0  0  0  0  0  0  0  0  0  0  0  0
  136.7661   68.1560  225.1189 H   0  0  0  0  0  0  0  0  0  0  0  0
  140.8246   71.0738  222.2509 H   0  0  0  0  0  0  0  0  0  0  0  0
  139.1484   70.4831  221.7429 H   0  0  0  0  0  0  0  0  0  0  0  0
  139.5113   72.7879  223.5521 H   0  0  0  0  0  0  0  0  0  0  0  0
  140.8499   73.3434  221.5702 H   0  0  0  0  0  0  0  0  0  0  0  0
  139.4387   73.0878  220.5388 H   0  0  0  0  0  0  0  0  0  0  0  0
  139.7435   75.0516  222.8956 H   0  0  0  0  0  0  0  0  0  0  0  0
  139.3854   75.4425  221.1734 H   0  0  0  0  0  0  0  0  0  0  0  0
  137.2910   75.5120  221.9460 H   0  0  0  0  0  0  0  0  0  0  0  0
  136.0693   73.5633  221.8031 H   0  0  0  0  0  0  0  0  0  0  0  0
  137.3641   73.4415  220.5896 H   0  0  0  0  0  0  0  0  0  0  0  0
  137.2099   72.1827  223.3654 H   0  0  0  0  0  0  0  0  0  0  0  0
  137.4790   71.3810  221.7713 H   0  0  0  0  0  0  0  0  0  0  0  0
  1  2  2  0
  2  3  1  0
  3  4  2  0
  4  5  1  0
  4  6  1  0
  6  7  2  0
  7  8  1  0
  8  9  2  0
  9 10  1  0
 10 11  2  0
 11 12  1  0
 12 13  2  0
 13 14  1  0
 14 15  2  0
 15 16  1  0
 16 17  2  0
 17 18  1  0
 18 19  1  0
 19 20  1  0
 17 21  1  0
 21 22  2  0
 11 23  1  0
 23 24  1  0
 24 25  1  0
 25 26  1  0
 26 27  1  0
 27 28  1  0
 28 29  1  0
 29 30  1  0
 23  2  1  0
 30 25  1  0
  9  3  1  0
 22 14  1  0
 20 18  1  0
  6 31  1  0
  7 32  1  0
  8 33  1  0
 12 34  1  0
 13 35  1  0
 15 36  1  0
 16 37  1  0
 18 38  1  0
 19 39  1  0
 19 40  1  0
 20 41  1  0
 20 42  1  0
 21 43  1  0
 22 44  1  0
 24 45  1  0
 24 46  1  0
 25 47  1  0
 26 48  1  0
 26 49  1  0
 27 50  1  0
 27 51  1  0
 28 52  1  0
 29 53  1  0
 29 54  1  0
 30 55  1  0
 30 56  1  0
M  END
>  <smiles>  (43) 
O=c1c2c(Cl)cccc2nc(/C=C/c2ccc(C3CC3)cc2)n1CC1CCNCC1

>  <score_type>  (43) 
oracle

>  <origin>  (43) 
autodockgpu

>  <m_score__min__energy>  (43) 
-8.9000000000000004

>  <m_primary>  (43) 
energy

>  <rmsd>  (43) 
10.758570275156142

>  <m_score__min__rmsd>  (43) 
10.758570275156142

>  <meeko>  (43) 
{"free_energy": -7.31, "intermolecular_energy": -9.1, "internal_energy": -2.09, "cluster_size": 12, "cluster_id": 5, "rank_in_cluster": 12}

>  <energy>  (43) 
-7.81

>  <cluster_rmsd>  (43) 
1.3

>  <cluster>  (43) 
6

$$$$

     RDKit          3D

 56 60  0  0  0  0  0  0  0  0999 V2000
  139.0480   68.2460  225.3750 O   0  0  0  0  0  0  0  0  0  0  0  0
  139.3830   69.4180  225.0550 C   0  0  0  0  0  0  0  0  0  0  0  0
  140.0730   70.1680  225.9850 C   0  0  0  0  0  0  0  0  0  0  0  0
  140.3650   69.6100  227.2140 C   0  0  0  0  0  0  0  0  0  0  0  0
  139.8830   67.9790  227.6210 Cl  0  0  0  0  0  0  0  0  0  0  0  0
  141.0650   70.4120  228.1190 C   0  0  0  0  0  0  0  0  0  0  0  0
  141.4390   71.6960  227.7850 C   0  0  0  0  0  0  0  0  0  0  0  0
  141.1410   72.2440  226.5540 C   0  0  0  0  0  0  0  0  0  0  0  0
  140.4510   71.4540  225.6610 C   0  0  0  0  0  0  0  0  0  0  0  0
  140.1170   71.8990  224.4410 N   0  0  0  0  0  0  0  0  0  0  0  0
  139.4460   71.1670  223.5350 C   0  0  0  0  0  0  0  0  0  0  0  0
  139.1360   71.7350  222.2280 C   0  0  0  0  0  0  0  0  0  0  0  0
  139.9420   71.4830  221.2200 C   0  0  0  0  0  0  0  0  0  0  0  0
  141.2260   72.1270  221.0090 C   0  0  0  0  0  0  0  0  0  0  0  0
  142.3590   71.3700  220.7010 C   0  0  0  0  0  0  0  0  0  0  0  0
  143.5930   71.9440  220.4940 C   0  0  0  0  0  0  0  0  0  0  0  0
  143.7730   73.3020  220.5820 C   0  0  0  0  0  0  0  0  0  0  0  0
  145.1240   73.8420  220.3480 C   0  0  0  0  0  0  0  0  0  0  0  0
  146.2740   72.9090  220.1200 C   0  0  0  0  0  0  0  0  0  0  0  0
  146.1860   73.7430  221.3790 C   0  0  0  0  0  0  0  0  0  0  0  0
  142.6760   74.0710  220.8850 C   0  0  0  0  0  0  0  0  0  0  0  0
  141.4260   73.4880  221.0930 C   0  0  0  0  0  0  0  0  0  0  0  0
  139.0640   69.9130  223.8220 N   0  0  0  0  0  0  0  0  0  0  0  0
  138.3350   69.0510  222.9490 C   0  0  0  0  0  0  0  0  0  0  0  0
  137.0070   68.5920  223.4360 C   0  0  0  0  0  0  0  0  0  0  0  0
  136.1660   69.6360  224.1170 C   0  0  0  0  0  0  0  0  0  0  0  0
  134.9770   68.8720  224.7160 C   0  0  0  0  0  0  0  0  0  0  0  0
  134.4070   67.9890  223.7340 N   0  0  0  0  0  0  0  0  0  0  0  0
  134.7550   68.3290  222.3710 C   0  0  0  0  0  0  0  0  0  0  0  0
  136.2400   68.0740  222.2160 C   0  0  0  0  0  0  0  0  0  0  0  0
  141.3212   70.0133  229.1117 H   0  0  0  0  0  0  0  0  0  0  0  0
  141.9903   72.3007  228.5201 H   0  0  0  0  0  0  0  0  0  0  0  0
  141.4423   73.2701  226.2963 H   0  0  0  0  0  0  0  0  0  0  0  0
  138.2438   72.3630  222.0879 H   0  0  0  0  0  0  0  0  0  0  0  0
  139.6206   70.7309  220.4845 H   0  0  0  0  0  0  0  0  0  0  0  0
  142.2617   70.2772  220.6211 H   0  0  0  0  0  0  0  0  0  0  0  0
  144.4525   71.3012  220.2531 H   0  0  0  0  0  0  0  0  0  0  0  0
  144.6751   74.6784  219.7922 H   0  0  0  0  0  0  0  0  0  0  0  0
  146.1203   71.8208  220.1661 H   0  0  0  0  0  0  0  0  0  0  0  0
  147.0213   72.7660  219.3256 H   0  0  0  0  0  0  0  0  0  0  0  0
  145.9722   73.2608  222.3443 H   0  0  0  0  0  0  0  0  0  0  0  0
  146.8488   74.4609  221.8844 H   0  0  0  0  0  0  0  0  0  0  0  0
  142.7848   75.1627  220.9648 H   0  0  0  0  0  0  0  0  0  0  0  0
  140.5705   74.1368  221.3323 H   0  0  0  0  0  0  0  0  0  0  0  0
  138.1777   69.5880  222.0020 H   0  0  0  0  0  0  0  0  0  0  0  0
  138.9454   68.1404  222.8581 H   0  0  0  0  0  0  0  0  0  0  0  0
  137.1987   67.8299  224.2057 H   0  0  0  0  0  0  0  0  0  0  0  0
  136.7410   70.1367  224.9099 H   0  0  0  0  0  0  0  0  0  0  0  0
  135.8392   70.4193  223.4173 H   0  0  0  0  0  0  0  0  0  0  0  0
  135.3215   68.2822  225.5782 H   0  0  0  0  0  0  0  0  0  0  0  0
  134.2115   69.5942  225.0360 H   0  0  0  0  0  0  0  0  0  0  0  0
  133.3560   67.9400  223.8040 H   0  0  0  0  0  0  0  0  0  0  0  0
  134.1884   67.7002  221.6684 H   0  0  0  0  0  0  0  0  0  0  0  0
  134.5126   69.3799  222.1546 H   0  0  0  0  0  0  0  0  0  0  0  0
  136.4121   66.9924  222.1135 H   0  0  0  0  0  0  0  0  0  0  0  0
  136.5988   68.6034  221.3210 H   0  0  0  0  0  0  0  0  0  0  0  0
  1  2  2  0
  2  3  1  0
  3  4  2  0
  4  5  1  0
  4  6  1  0
  6  7  2  0
  7  8  1  0
  8  9  2  0
  9 10  1  0
 10 11  2  0
 11 12  1  0
 12 13  2  0
 13 14  1  0
 14 15  2  0
 15 16  1  0
 16 17  2  0
 17 18  1  0
 18 19  1  0
 19 20  1  0
 17 21  1  0
 21 22  2  0
 11 23  1  0
 23 24  1  0
 24 25  1  0
 25 26  1  0
 26 27  1  0
 27 28  1  0
 28 29  1  0
 29 30  1  0
 23  2  1  0
 30 25  1  0
  9  3  1  0
 22 14  1  0
 20 18  1  0
  6 31  1  0
  7 32  1  0
  8 33  1  0
 12 34  1  0
 13 35  1  0
 15 36  1  0
 16 37  1  0
 18 38  1  0
 19 39  1  0
 19 40  1  0
 20 41  1  0
 20 42  1  0
 21 43  1  0
 22 44  1  0
 24 45  1  0
 24 46  1  0
 25 47  1  0
 26 48  1  0
 26 49  1  0
 27 50  1  0
 27 51  1  0
 28 52  1  0
 29 53  1  0
 29 54  1  0
 30 55  1  0
 30 56  1  0
M  END
>  <smiles>  (44) 
O=c1c2c(Cl)cccc2nc(/C=C/c2ccc(C3CC3)cc2)n1CC1CCNCC1

>  <score_type>  (44) 
oracle

>  <origin>  (44) 
autodockgpu

>  <m_score__min__energy>  (44) 
-8.9000000000000004

>  <m_primary>  (44) 
energy

>  <rmsd>  (44) 
11.592674226849287

>  <m_score__min__rmsd>  (44) 
11.592674226849287

>  <meeko>  (44) 
{"free_energy": -8.54, "intermolecular_energy": -10.33, "internal_energy": -1.47, "cluster_size": 1, "cluster_id": 3, "rank_in_cluster": 1}

>  <energy>  (44) 
-7.79

>  <cluster_rmsd>  (44) 
1.24

>  <cluster>  (44) 
6

$$$$

     RDKit          3D

 56 60  0  0  0  0  0  0  0  0999 V2000
  142.3450   75.6550  218.7040 O   0  0  0  0  0  0  0  0  0  0  0  0
  141.8130   75.3990  219.8170 C   0  0  0  0  0  0  0  0  0  0  0  0
  141.4770   76.4600  220.6310 C   0  0  0  0  0  0  0  0  0  0  0  0
  141.7350   77.7460  220.1990 C   0  0  0  0  0  0  0  0  0  0  0  0
  142.4750   78.0630  218.6460 Cl  0  0  0  0  0  0  0  0  0  0  0  0
  141.3760   78.7850  221.0620 C   0  0  0  0  0  0  0  0  0  0  0  0
  140.7930   78.5220  222.2830 C   0  0  0  0  0  0  0  0  0  0  0  0
  140.5410   77.2320  222.7060 C   0  0  0  0  0  0  0  0  0  0  0  0
  140.8940   76.2070  221.8550 C   0  0  0  0  0  0  0  0  0  0  0  0
  140.6870   74.9230  222.1790 N   0  0  0  0  0  0  0  0  0  0  0  0
  141.0130   73.8890  221.3840 C   0  0  0  0  0  0  0  0  0  0  0  0
  140.7400   72.5240  221.8190 C   0  0  0  0  0  0  0  0  0  0  0  0
  139.7610   72.3130  222.6710 C   0  0  0  0  0  0  0  0  0  0  0  0
  139.8420   71.4300  223.8200 C   0  0  0  0  0  0  0  0  0  0  0  0
  139.0090   70.3140  223.9200 C   0  0  0  0  0  0  0  0  0  0  0  0
  139.0560   69.4520  224.9940 C   0  0  0  0  0  0  0  0  0  0  0  0
  139.9340   69.6520  226.0310 C   0  0  0  0  0  0  0  0  0  0  0  0
  139.9250   68.6890  227.1460 C   0  0  0  0  0  0  0  0  0  0  0  0
  140.8220   68.9020  228.3270 C   0  0  0  0  0  0  0  0  0  0  0  0
  141.0540   67.7540  227.3700 C   0  0  0  0  0  0  0  0  0  0  0  0
  140.7650   70.7440  225.9600 C   0  0  0  0  0  0  0  0  0  0  0  0
  140.7170   71.6140  224.8700 C   0  0  0  0  0  0  0  0  0  0  0  0
  141.5830   74.1040  220.1880 N   0  0  0  0  0  0  0  0  0  0  0  0
  141.9860   73.0870  219.2710 C   0  0  0  0  0  0  0  0  0  0  0  0
  143.4490   72.8490  219.1550 C   0  0  0  0  0  0  0  0  0  0  0  0
  144.1550   73.6380  218.0870 C   0  0  0  0  0  0  0  0  0  0  0  0
  145.5720   73.0530  218.0210 C   0  0  0  0  0  0  0  0  0  0  0  0
  146.1260   72.9390  219.3440 N   0  0  0  0  0  0  0  0  0  0  0  0
  145.4630   73.7670  220.3280 C   0  0  0  0  0  0  0  0  0  0  0  0
  144.0660   73.2080  220.5090 C   0  0  0  0  0  0  0  0  0  0  0  0
  141.5613   79.8272  220.7627 H   0  0  0  0  0  0  0  0  0  0  0  0
  140.5211   79.3627  222.9383 H   0  0  0  0  0  0  0  0  0  0  0  0
  140.0772   77.0305  223.6829 H   0  0  0  0  0  0  0  0  0  0  0  0
  141.3429   71.6853  221.4408 H   0  0  0  0  0  0  0  0  0  0  0  0
  138.8127   72.8437  222.5007 H   0  0  0  0  0  0  0  0  0  0  0  0
  138.2892   70.1157  223.1122 H   0  0  0  0  0  0  0  0  0  0  0  0
  138.3771   68.5869  225.0213 H   0  0  0  0  0  0  0  0  0  0  0  0
  138.8424   68.5580  227.0014 H   0  0  0  0  0  0  0  0  0  0  0  0
  141.5171   69.7544  228.3465 H   0  0  0  0  0  0  0  0  0  0  0  0
  140.6776   68.9998  229.4131 H   0  0  0  0  0  0  0  0  0  0  0  0
  141.9220   67.7680  226.6944 H   0  0  0  0  0  0  0  0  0  0  0  0
  141.1517   66.6632  227.4730 H   0  0  0  0  0  0  0  0  0  0  0  0
  141.4789   70.9353  226.7747 H   0  0  0  0  0  0  0  0  0  0  0  0
  141.4002   72.4758  224.8475 H   0  0  0  0  0  0  0  0  0  0  0  0
  141.5169   72.1440  219.5884 H   0  0  0  0  0  0  0  0  0  0  0  0
  141.6662   73.4412  218.2799 H   0  0  0  0  0  0  0  0  0  0  0  0
  143.5768   71.7954  218.8657 H   0  0  0  0  0  0  0  0  0  0  0  0
  143.6442   73.5203  217.1199 H   0  0  0  0  0  0  0  0  0  0  0  0
  144.1660   74.7146  218.3123 H   0  0  0  0  0  0  0  0  0  0  0  0
  145.5322   72.0565  217.5569 H   0  0  0  0  0  0  0  0  0  0  0  0
  146.2082   73.7216  217.4225 H   0  0  0  0  0  0  0  0  0  0  0  0
  147.1560   73.1610  219.3660 H   0  0  0  0  0  0  0  0  0  0  0  0
  146.0103   73.7321  221.2815 H   0  0  0  0  0  0  0  0  0  0  0  0
  145.4264   74.8157  219.9980 H   0  0  0  0  0  0  0  0  0  0  0  0
  144.1166   72.3043  221.1341 H   0  0  0  0  0  0  0  0  0  0  0  0
  143.4389   73.9712  220.9929 H   0  0  0  0  0  0  0  0  0  0  0  0
  1  2  2  0
  2  3  1  0
  3  4  2  0
  4  5  1  0
  4  6  1  0
  6  7  2  0
  7  8  1  0
  8  9  2  0
  9 10  1  0
 10 11  2  0
 11 12  1  0
 12 13  2  0
 13 14  1  0
 14 15  2  0
 15 16  1  0
 16 17  2  0
 17 18  1  0
 18 19  1  0
 19 20  1  0
 17 21  1  0
 21 22  2  0
 11 23  1  0
 23 24  1  0
 24 25  1  0
 25 26  1  0
 26 27  1  0
 27 28  1  0
 28 29  1  0
 29 30  1  0
 23  2  1  0
 30 25  1  0
  9  3  1  0
 22 14  1  0
 20 18  1  0
  6 31  1  0
  7 32  1  0
  8 33  1  0
 12 34  1  0
 13 35  1  0
 15 36  1  0
 16 37  1  0
 18 38  1  0
 19 39  1  0
 19 40  1  0
 20 41  1  0
 20 42  1  0
 21 43  1  0
 22 44  1  0
 24 45  1  0
 24 46  1  0
 25 47  1  0
 26 48  1  0
 26 49  1  0
 27 50  1  0
 27 51  1  0
 28 52  1  0
 29 53  1  0
 29 54  1  0
 30 55  1  0
 30 56  1  0
M  END
>  <smiles>  (45) 
O=c1c2c(Cl)cccc2nc(/C=C/c2ccc(C3CC3)cc2)n1CC1CCNCC1

>  <score_type>  (45) 
oracle

>  <origin>  (45) 
autodockgpu

>  <m_score__min__energy>  (45) 
-8.9000000000000004

>  <m_primary>  (45) 
energy

>  <rmsd>  (45) 
5.360548703037147

>  <m_score__min__rmsd>  (45) 
5.360548703037147

>  <meeko>  (45) 
{"free_energy": -8.9, "intermolecular_energy": -10.69, "internal_energy": -1.32, "cluster_size": 12, "cluster_id": 1, "rank_in_cluster": 1}

>  <energy>  (45) 
-7.78

>  <cluster_rmsd>  (45) 
1.28

>  <cluster>  (45) 
6

$$$$

     RDKit          3D

 56 60  0  0  0  0  0  0  0  0999 V2000
  135.6960   74.9590  223.5730 O   0  0  0  0  0  0  0  0  0  0  0  0
  135.7940   73.7030  223.5730 C   0  0  0  0  0  0  0  0  0  0  0  0
  135.1400   73.0050  224.5670 C   0  0  0  0  0  0  0  0  0  0  0  0
  134.4130   73.7040  225.5100 C   0  0  0  0  0  0  0  0  0  0  0  0
  134.2990   75.4480  225.4770 Cl  0  0  0  0  0  0  0  0  0  0  0  0
  133.7690   72.9490  226.4950 C   0  0  0  0  0  0  0  0  0  0  0  0
  133.8660   71.5740  226.5100 C   0  0  0  0  0  0  0  0  0  0  0  0
  134.5970   70.8860  225.5620 C   0  0  0  0  0  0  0  0  0  0  0  0
  135.2310   71.6290  224.5910 C   0  0  0  0  0  0  0  0  0  0  0  0
  135.9630   71.0500  223.6290 N   0  0  0  0  0  0  0  0  0  0  0  0
  136.6000   71.7300  222.6600 C   0  0  0  0  0  0  0  0  0  0  0  0
  137.3660   71.0100  221.6490 C   0  0  0  0  0  0  0  0  0  0  0  0
  138.5850   70.6130  221.9400 C   0  0  0  0  0  0  0  0  0  0  0  0
  139.1860   70.6920  223.2590 C   0  0  0  0  0  0  0  0  0  0  0  0
  138.8070   69.8050  224.2680 C   0  0  0  0  0  0  0  0  0  0  0  0
  139.3540   69.8490  225.5310 C   0  0  0  0  0  0  0  0  0  0  0  0
  140.3090   70.7770  225.8640 C   0  0  0  0  0  0  0  0  0  0  0  0
  140.8470   70.7620  227.2360 C   0  0  0  0  0  0  0  0  0  0  0  0
  140.1050   71.4540  228.3380 C   0  0  0  0  0  0  0  0  0  0  0  0
  141.4380   71.9760  227.8490 C   0  0  0  0  0  0  0  0  0  0  0  0
  140.7010   71.6640  224.8900 C   0  0  0  0  0  0  0  0  0  0  0  0
  140.1460   71.6180  223.6110 C   0  0  0  0  0  0  0  0  0  0  0  0
  136.5300   73.0700  222.6120 N   0  0  0  0  0  0  0  0  0  0  0  0
  137.1750   73.8960  221.6430 C   0  0  0  0  0  0  0  0  0  0  0  0
  138.6200   74.1690  221.8700 C   0  0  0  0  0  0  0  0  0  0  0  0
  139.5140   73.9750  220.6760 C   0  0  0  0  0  0  0  0  0  0  0  0
  140.9450   74.0930  221.2190 C   0  0  0  0  0  0  0  0  0  0  0  0
  141.0670   75.2590  222.0530 N   0  0  0  0  0  0  0  0  0  0  0  0
  140.0260   76.2410  221.8380 C   0  0  0  0  0  0  0  0  0  0  0  0
  138.7300   75.6270  222.3240 C   0  0  0  0  0  0  0  0  0  0  0  0
  133.1767   73.4594  227.2687 H   0  0  0  0  0  0  0  0  0  0  0  0
  133.3469   71.0096  227.2986 H   0  0  0  0  0  0  0  0  0  0  0  0
  134.6701   69.7886  225.5815 H   0  0  0  0  0  0  0  0  0  0  0  0
  136.9312   70.8027  220.6601 H   0  0  0  0  0  0  0  0  0  0  0  0
  139.1928   70.1909  221.1261 H   0  0  0  0  0  0  0  0  0  0  0  0
  138.0444   69.0439  224.0464 H   0  0  0  0  0  0  0  0  0  0  0  0
  139.0187   69.1255  226.2887 H   0  0  0  0  0  0  0  0  0  0  0  0
  141.2130   69.7392  227.0631 H   0  0  0  0  0  0  0  0  0  0  0  0
  139.1804   72.0081  228.1188 H   0  0  0  0  0  0  0  0  0  0  0  0
  139.6902   71.1546  229.3118 H   0  0  0  0  0  0  0  0  0  0  0  0
  141.4848   72.9141  227.2765 H   0  0  0  0  0  0  0  0  0  0  0  0
  142.4003   72.2178  228.3239 H   0  0  0  0  0  0  0  0  0  0  0  0
  141.4639   72.4216  225.1225 H   0  0  0  0  0  0  0  0  0  0  0  0
  140.4852   72.3445  222.8579 H   0  0  0  0  0  0  0  0  0  0  0  0
  137.0761   73.4046  220.6639 H   0  0  0  0  0  0  0  0  0  0  0  0
  136.6763   74.8741  221.7112 H   0  0  0  0  0  0  0  0  0  0  0  0
  138.9688   73.4370  222.6133 H   0  0  0  0  0  0  0  0  0  0  0  0
  139.3516   72.9826  220.2301 H   0  0  0  0  0  0  0  0  0  0  0  0
  139.3119   74.7148  219.8875 H   0  0  0  0  0  0  0  0  0  0  0  0
  141.1839   73.1969  221.8105 H   0  0  0  0  0  0  0  0  0  0  0  0
  141.6428   74.1828  220.3734 H   0  0  0  0  0  0  0  0  0  0  0  0
  142.0000   75.7360  221.9380 H   0  0  0  0  0  0  0  0  0  0  0  0
  140.2469   77.1562  222.4068 H   0  0  0  0  0  0  0  0  0  0  0  0
  139.9567   76.5127  220.7743 H   0  0  0  0  0  0  0  0  0  0  0  0
  138.7012   75.6664  223.4229 H   0  0  0  0  0  0  0  0  0  0  0  0
  137.8883   76.1945  221.9003 H   0  0  0  0  0  0  0  0  0  0  0  0
  1  2  2  0
  2  3  1  0
  3  4  2  0
  4  5  1  0
  4  6  1  0
  6  7  2  0
  7  8  1  0
  8  9  2  0
  9 10  1  0
 10 11  2  0
 11 12  1  0
 12 13  2  0
 13 14  1  0
 14 15  2  0
 15 16  1  0
 16 17  2  0
 17 18  1  0
 18 19  1  0
 19 20  1  0
 17 21  1  0
 21 22  2  0
 11 23  1  0
 23 24  1  0
 24 25  1  0
 25 26  1  0
 26 27  1  0
 27 28  1  0
 28 29  1  0
 29 30  1  0
 23  2  1  0
 30 25  1  0
  9  3  1  0
 22 14  1  0
 20 18  1  0
  6 31  1  0
  7 32  1  0
  8 33  1  0
 12 34  1  0
 13 35  1  0
 15 36  1  0
 16 37  1  0
 18 38  1  0
 19 39  1  0
 19 40  1  0
 20 41  1  0
 20 42  1  0
 21 43  1  0
 22 44  1  0
 24 45  1  0
 24 46  1  0
 25 47  1  0
 26 48  1  0
 26 49  1  0
 27 50  1  0
 27 51  1  0
 28 52  1  0
 29 53  1  0
 29 54  1  0
 30 55  1  0
 30 56  1  0
M  END
>  <smiles>  (46) 
O=c1c2c(Cl)cccc2nc(/C=C/c2ccc(C3CC3)cc2)n1CC1CCNCC1

>  <score_type>  (46) 
oracle

>  <origin>  (46) 
autodockgpu

>  <m_score__min__energy>  (46) 
-8.9000000000000004

>  <m_primary>  (46) 
energy

>  <rmsd>  (46) 
9.025811067353043

>  <m_score__min__rmsd>  (46) 
9.025811067353043

>  <meeko>  (46) 
{"free_energy": -7.73, "intermolecular_energy": -9.52, "internal_energy": -2.34, "cluster_size": 13, "cluster_id": 6, "rank_in_cluster": 11}

>  <energy>  (46) 
-7.73

>  <cluster_rmsd>  (46) 
1.24

>  <cluster>  (46) 
6

$$$$

     RDKit          3D

 56 60  0  0  0  0  0  0  0  0999 V2000
  139.9840   71.8750  225.2270 O   0  0  0  0  0  0  0  0  0  0  0  0
  139.6890   70.6550  225.1230 C   0  0  0  0  0  0  0  0  0  0  0  0
  140.0200   69.8200  226.1690 C   0  0  0  0  0  0  0  0  0  0  0  0
  140.6540   70.3490  227.2750 C   0  0  0  0  0  0  0  0  0  0  0  0
  141.0480   72.0490  227.3840 Cl  0  0  0  0  0  0  0  0  0  0  0  0
  140.9680   69.4600  228.3070 C   0  0  0  0  0  0  0  0  0  0  0  0
  140.6520   68.1210  228.2100 C   0  0  0  0  0  0  0  0  0  0  0  0
  140.0180   67.6030  227.0980 C   0  0  0  0  0  0  0  0  0  0  0  0
  139.7080   68.4790  226.0810 C   0  0  0  0  0  0  0  0  0  0  0  0
  139.0920   68.0680  224.9630 N   0  0  0  0  0  0  0  0  0  0  0  0
  138.7690   68.8830  223.9440 C   0  0  0  0  0  0  0  0  0  0  0  0
  138.0900   68.3450  222.7710 C   0  0  0  0  0  0  0  0  0  0  0  0
  136.7750   68.3000  222.7630 C   0  0  0  0  0  0  0  0  0  0  0  0
  135.9160   69.1630  223.5520 C   0  0  0  0  0  0  0  0  0  0  0  0
  135.3800   70.3300  223.0030 C   0  0  0  0  0  0  0  0  0  0  0  0
  134.5610   71.1740  223.7190 C   0  0  0  0  0  0  0  0  0  0  0  0
  134.2280   70.9070  225.0240 C   0  0  0  0  0  0  0  0  0  0  0  0
  133.3470   71.8570  225.7260 C   0  0  0  0  0  0  0  0  0  0  0  0
  133.8670   73.2030  226.1280 C   0  0  0  0  0  0  0  0  0  0  0  0
  133.5250   72.1580  227.1670 C   0  0  0  0  0  0  0  0  0  0  0  0
  134.7410   69.7660  225.5920 C   0  0  0  0  0  0  0  0  0  0  0  0
  135.5700   68.9120  224.8640 C   0  0  0  0  0  0  0  0  0  0  0  0
  139.0600   70.1920  224.0010 N   0  0  0  0  0  0  0  0  0  0  0  0
  138.7810   71.1460  222.9770 C   0  0  0  0  0  0  0  0  0  0  0  0
  139.9310   71.9630  222.5080 C   0  0  0  0  0  0  0  0  0  0  0  0
  140.6960   71.4010  221.3410 C   0  0  0  0  0  0  0  0  0  0  0  0
  141.9380   72.2920  221.2050 C   0  0  0  0  0  0  0  0  0  0  0  0
  141.5630   73.6800  221.2430 N   0  0  0  0  0  0  0  0  0  0  0  0
  140.1640   73.9150  220.9550 C   0  0  0  0  0  0  0  0  0  0  0  0
  139.3700   73.3300  222.1050 C   0  0  0  0  0  0  0  0  0  0  0  0
  141.4743   69.8336  229.2093 H   0  0  0  0  0  0  0  0  0  0  0  0
  140.9118   67.4480  229.0404 H   0  0  0  0  0  0  0  0  0  0  0  0
  139.7704   66.5336  227.0271 H   0  0  0  0  0  0  0  0  0  0  0  0
  138.6673   67.9829  221.9075 H   0  0  0  0  0  0  0  0  0  0  0  0
  136.2929   67.5556  222.1123 H   0  0  0  0  0  0  0  0  0  0  0  0
  135.6210   70.5842  221.9603 H   0  0  0  0  0  0  0  0  0  0  0  0
  134.1658   72.0799  223.2361 H   0  0  0  0  0  0  0  0  0  0  0  0
  132.5029   71.4949  225.1207 H   0  0  0  0  0  0  0  0  0  0  0  0
  134.9170   73.4695  225.9369 H   0  0  0  0  0  0  0  0  0  0  0  0
  133.5719   74.2456  225.9386 H   0  0  0  0  0  0  0  0  0  0  0  0
  134.3269   71.6658  227.7367 H   0  0  0  0  0  0  0  0  0  0  0  0
  132.8755   72.1266  228.0542 H   0  0  0  0  0  0  0  0  0  0  0  0
  134.4945   69.5222  226.6359 H   0  0  0  0  0  0  0  0  0  0  0  0
  135.9612   68.0075  225.3527 H   0  0  0  0  0  0  0  0  0  0  0  0
  138.3819   70.5998  222.1096 H   0  0  0  0  0  0  0  0  0  0  0  0
  138.0764   71.8614  223.4262 H   0  0  0  0  0  0  0  0  0  0  0  0
  140.6539   71.9981  223.3363 H   0  0  0  0  0  0  0  0  0  0  0  0
  140.9888   70.3591  221.5379 H   0  0  0  0  0  0  0  0  0  0  0  0
  140.0935   71.3935  220.4207 H   0  0  0  0  0  0  0  0  0  0  0  0
  142.6292   72.0800  222.0340 H   0  0  0  0  0  0  0  0  0  0  0  0
  142.4272   72.0797  220.2429 H   0  0  0  0  0  0  0  0  0  0  0  0
  142.1390   74.2680  220.5840 H   0  0  0  0  0  0  0  0  0  0  0  0
  139.9714   74.9950  220.8739 H   0  0  0  0  0  0  0  0  0  0  0  0
  139.8759   73.4479  220.0017 H   0  0  0  0  0  0  0  0  0  0  0  0
  139.4258   74.0118  222.9664 H   0  0  0  0  0  0  0  0  0  0  0  0
  138.3248   73.2041  221.7861 H   0  0  0  0  0  0  0  0  0  0  0  0
  1  2  2  0
  2  3  1  0
  3  4  2  0
  4  5  1  0
  4  6  1  0
  6  7  2  0
  7  8  1  0
  8  9  2  0
  9 10  1  0
 10 11  2  0
 11 12  1  0
 12 13  2  0
 13 14  1  0
 14 15  2  0
 15 16  1  0
 16 17  2  0
 17 18  1  0
 18 19  1  0
 19 20  1  0
 17 21  1  0
 21 22  2  0
 11 23  1  0
 23 24  1  0
 24 25  1  0
 25 26  1  0
 26 27  1  0
 27 28  1  0
 28 29  1  0
 29 30  1  0
 23  2  1  0
 30 25  1  0
  9  3  1  0
 22 14  1  0
 20 18  1  0
  6 31  1  0
  7 32  1  0
  8 33  1  0
 12 34  1  0
 13 35  1  0
 15 36  1  0
 16 37  1  0
 18 38  1  0
 19 39  1  0
 19 40  1  0
 20 41  1  0
 20 42  1  0
 21 43  1  0
 22 44  1  0
 24 45  1  0
 24 46  1  0
 25 47  1  0
 26 48  1  0
 26 49  1  0
 27 50  1  0
 27 51  1  0
 28 52  1  0
 29 53  1  0
 29 54  1  0
 30 55  1  0
 30 56  1  0
M  END
>  <smiles>  (47) 
O=c1c2c(Cl)cccc2nc(/C=C/c2ccc(C3CC3)cc2)n1CC1CCNCC1

>  <score_type>  (47) 
oracle

>  <origin>  (47) 
autodockgpu

>  <m_score__min__energy>  (47) 
-8.9000000000000004

>  <m_primary>  (47) 
energy

>  <rmsd>  (47) 
11.204957824275136

>  <m_score__min__rmsd>  (47) 
11.204957824275136

>  <meeko>  (47) 
{"free_energy": -7.84, "intermolecular_energy": -9.63, "internal_energy": -1.85, "cluster_size": 12, "cluster_id": 5, "rank_in_cluster": 11}

>  <energy>  (47) 
-7.68

>  <cluster_rmsd>  (47) 
1.29

>  <cluster>  (47) 
6

$$$$

     RDKit          3D

 56 60  0  0  0  0  0  0  0  0999 V2000
  140.4030   71.8880  225.0990 O   0  0  0  0  0  0  0  0  0  0  0  0
  139.9950   70.6960  225.0650 C   0  0  0  0  0  0  0  0  0  0  0  0
  140.2260   69.9040  226.1690 C   0  0  0  0  0  0  0  0  0  0  0  0
  140.8880   70.4420  227.2550 C   0  0  0  0  0  0  0  0  0  0  0  0
  141.4380   72.1020  227.2670 Cl  0  0  0  0  0  0  0  0  0  0  0  0
  141.0970   69.5960  228.3490 C   0  0  0  0  0  0  0  0  0  0  0  0
  140.6570   68.2900  228.3270 C   0  0  0  0  0  0  0  0  0  0  0  0
  139.9970   67.7610  227.2360 C   0  0  0  0  0  0  0  0  0  0  0  0
  139.7910   68.5950  226.1580 C   0  0  0  0  0  0  0  0  0  0  0  0
  139.1600   68.1720  225.0530 N   0  0  0  0  0  0  0  0  0  0  0  0
  138.9340   68.9450  223.9770 C   0  0  0  0  0  0  0  0  0  0  0  0
  138.2290   68.3980  222.8240 C   0  0  0  0  0  0  0  0  0  0  0  0
  136.9260   68.5570  222.7430 C   0  0  0  0  0  0  0  0  0  0  0  0
  136.1410   69.4040  223.6220 C   0  0  0  0  0  0  0  0  0  0  0  0
  135.9850   70.7640  223.3480 C   0  0  0  0  0  0  0  0  0  0  0  0
  135.2490   71.6000  224.1580 C   0  0  0  0  0  0  0  0  0  0  0  0
  134.6260   71.1310  225.2880 C   0  0  0  0  0  0  0  0  0  0  0  0
  133.8570   72.0860  226.1060 C   0  0  0  0  0  0  0  0  0  0  0  0
  133.5920   71.7910  227.5500 C   0  0  0  0  0  0  0  0  0  0  0  0
  132.4690   71.7940  226.5370 C   0  0  0  0  0  0  0  0  0  0  0  0
  134.7640   69.7970  225.5840 C   0  0  0  0  0  0  0  0  0  0  0  0
  135.5100   68.9520  224.7620 C   0  0  0  0  0  0  0  0  0  0  0  0
  139.3470   70.2220  223.9590 N   0  0  0  0  0  0  0  0  0  0  0  0
  139.1780   71.1290  222.8700 C   0  0  0  0  0  0  0  0  0  0  0  0
  140.4170   71.5390  222.1580 C   0  0  0  0  0  0  0  0  0  0  0  0
  140.5380   71.0630  220.7360 C   0  0  0  0  0  0  0  0  0  0  0  0
  141.9710   71.4130  220.3120 C   0  0  0  0  0  0  0  0  0  0  0  0
  142.2760   72.7740  220.6650 N   0  0  0  0  0  0  0  0  0  0  0  0
  141.1060   73.5930  220.9000 C   0  0  0  0  0  0  0  0  0  0  0  0
  140.4450   73.0700  222.1590 C   0  0  0  0  0  0  0  0  0  0  0  0
  141.6193   69.9779  229.2386 H   0  0  0  0  0  0  0  0  0  0  0  0
  140.8369   67.6508  229.2040 H   0  0  0  0  0  0  0  0  0  0  0  0
  139.6499   66.7172  227.2273 H   0  0  0  0  0  0  0  0  0  0  0  0
  138.7774   67.8617  222.0356 H   0  0  0  0  0  0  0  0  0  0  0  0
  136.3929   68.0087  221.9523 H   0  0  0  0  0  0  0  0  0  0  0  0
  136.4675   71.1831  222.4527 H   0  0  0  0  0  0  0  0  0  0  0  0
  135.1585   72.6641  223.8945 H   0  0  0  0  0  0  0  0  0  0  0  0
  134.3259   72.9119  225.5511 H   0  0  0  0  0  0  0  0  0  0  0  0
  133.9346   70.8440  227.9926 H   0  0  0  0  0  0  0  0  0  0  0  0
  133.7887   72.3033  228.5034 H   0  0  0  0  0  0  0  0  0  0  0  0
  131.9897   70.8481  226.2444 H   0  0  0  0  0  0  0  0  0  0  0  0
  131.5021   72.3111  226.4491 H   0  0  0  0  0  0  0  0  0  0  0  0
  134.2790   69.3886  226.4829 H   0  0  0  0  0  0  0  0  0  0  0  0
  135.5979   67.8893  225.0322 H   0  0  0  0  0  0  0  0  0  0  0  0
  138.5118   70.6518  222.1363 H   0  0  0  0  0  0  0  0  0  0  0  0
  138.7758   72.0511  223.3150 H   0  0  0  0  0  0  0  0  0  0  0  0
  141.2583   71.0722  222.6912 H   0  0  0  0  0  0  0  0  0  0  0  0
  140.3735   69.9769  220.6780 H   0  0  0  0  0  0  0  0  0  0  0  0
  139.7901   71.5338  220.0810 H   0  0  0  0  0  0  0  0  0  0  0  0
  142.6754   70.7390  220.8215 H   0  0  0  0  0  0  0  0  0  0  0  0
  142.0610   71.2965  219.2219 H   0  0  0  0  0  0  0  0  0  0  0  0
  142.8720   73.2510  219.9370 H   0  0  0  0  0  0  0  0  0  0  0  0
  141.4016   74.6436  221.0370 H   0  0  0  0  0  0  0  0  0  0  0  0
  140.4153   73.5455  220.0452 H   0  0  0  0  0  0  0  0  0  0  0  0
  141.0094   73.4205  223.0357 H   0  0  0  0  0  0  0  0  0  0  0  0
  139.4110   73.4432  222.1974 H   0  0  0  0  0  0  0  0  0  0  0  0
  1  2  2  0
  2  3  1  0
  3  4  2  0
  4  5  1  0
  4  6  1  0
  6  7  2  0
  7  8  1  0
  8  9  2  0
  9 10  1  0
 10 11  2  0
 11 12  1  0
 12 13  2  0
 13 14  1  0
 14 15  2  0
 15 16  1  0
 16 17  2  0
 17 18  1  0
 18 19  1  0
 19 20  1  0
 17 21  1  0
 21 22  2  0
 11 23  1  0
 23 24  1  0
 24 25  1  0
 25 26  1  0
 26 27  1  0
 27 28  1  0
 28 29  1  0
 29 30  1  0
 23  2  1  0
 30 25  1  0
  9  3  1  0
 22 14  1  0
 20 18  1  0
  6 31  1  0
  7 32  1  0
  8 33  1  0
 12 34  1  0
 13 35  1  0
 15 36  1  0
 16 37  1  0
 18 38  1  0
 19 39  1  0
 19 40  1  0
 20 41  1  0
 20 42  1  0
 21 43  1  0
 22 44  1  0
 24 45  1  0
 24 46  1  0
 25 47  1  0
 26 48  1  0
 26 49  1  0
 27 50  1  0
 27 51  1  0
 28 52  1  0
 29 53  1  0
 29 54  1  0
 30 55  1  0
 30 56  1  0
M  END
>  <smiles>  (48) 
O=c1c2c(Cl)cccc2nc(/C=C/c2ccc(C3CC3)cc2)n1CC1CCNCC1

>  <score_type>  (48) 
oracle

>  <origin>  (48) 
autodockgpu

>  <m_score__min__energy>  (48) 
-8.9000000000000004

>  <m_primary>  (48) 
energy

>  <rmsd>  (48) 
11.168585566753817

>  <m_score__min__rmsd>  (48) 
11.168585566753817

>  <meeko>  (48) 
{"free_energy": -8.01, "intermolecular_energy": -9.8, "internal_energy": -1.9, "cluster_size": 12, "cluster_id": 5, "rank_in_cluster": 9}

>  <energy>  (48) 
-7.17

>  <cluster_rmsd>  (48) 
1.93

>  <cluster>  (48) 
6

$$$$

     RDKit          3D

 56 60  0  0  0  0  0  0  0  0999 V2000
  135.6590   73.2900  223.4680 O   0  0  0  0  0  0  0  0  0  0  0  0
  135.6590   72.0840  223.8330 C   0  0  0  0  0  0  0  0  0  0  0  0
  134.9580   71.7550  224.9740 C   0  0  0  0  0  0  0  0  0  0  0  0
  134.2920   72.7500  225.6630 C   0  0  0  0  0  0  0  0  0  0  0  0
  134.3150   74.4140  225.1250 Cl  0  0  0  0  0  0  0  0  0  0  0  0
  133.5970   72.3640  226.8130 C   0  0  0  0  0  0  0  0  0  0  0  0
  133.5870   71.0490  227.2260 C   0  0  0  0  0  0  0  0  0  0  0  0
  134.2570   70.0620  226.5300 C   0  0  0  0  0  0  0  0  0  0  0  0
  134.9420   70.4420  225.3960 C   0  0  0  0  0  0  0  0  0  0  0  0
  135.6210   69.5550  224.6550 N   0  0  0  0  0  0  0  0  0  0  0  0
  136.3030   69.8760  223.5430 C   0  0  0  0  0  0  0  0  0  0  0  0
  137.0050   68.8380  222.7960 C   0  0  0  0  0  0  0  0  0  0  0  0
  138.2230   68.5060  223.1630 C   0  0  0  0  0  0  0  0  0  0  0  0
  138.9210   69.0620  224.3080 C   0  0  0  0  0  0  0  0  0  0  0  0
  139.6890   70.2210  224.1800 C   0  0  0  0  0  0  0  0  0  0  0  0
  140.3640   70.7790  225.2420 C   0  0  0  0  0  0  0  0  0  0  0  0
  140.3170   70.2160  226.4930 C   0  0  0  0  0  0  0  0  0  0  0  0
  141.0670   70.8690  227.5800 C   0  0  0  0  0  0  0  0  0  0  0  0
  140.3950   71.8900  228.4460 C   0  0  0  0  0  0  0  0  0  0  0  0
  141.4920   72.2860  227.4840 C   0  0  0  0  0  0  0  0  0  0  0  0
  139.5700   69.0730  226.6490 C   0  0  0  0  0  0  0  0  0  0  0  0
  138.8850   68.5110  225.5710 C   0  0  0  0  0  0  0  0  0  0  0  0
  136.3380   71.1450  223.1080 N   0  0  0  0  0  0  0  0  0  0  0  0
  137.0400   71.6040  221.9540 C   0  0  0  0  0  0  0  0  0  0  0  0
  138.2990   72.3540  222.2050 C   0  0  0  0  0  0  0  0  0  0  0  0
  139.4950   71.9030  221.4130 C   0  0  0  0  0  0  0  0  0  0  0  0
  140.6870   72.6630  222.0100 C   0  0  0  0  0  0  0  0  0  0  0  0
  140.3720   74.0600  222.1420 N   0  0  0  0  0  0  0  0  0  0  0  0
  139.2630   74.4890  221.3170 C   0  0  0  0  0  0  0  0  0  0  0  0
  138.0190   73.8210  221.8640 C   0  0  0  0  0  0  0  0  0  0  0  0
  133.0507   73.1200  227.3962 H   0  0  0  0  0  0  0  0  0  0  0  0
  133.0300   70.7782  228.1351 H   0  0  0  0  0  0  0  0  0  0  0  0
  134.2444   69.0150  226.8671 H   0  0  0  0  0  0  0  0  0  0  0  0
  136.5236   68.3417  221.9405 H   0  0  0  0  0  0  0  0  0  0  0  0
  138.7509   67.7531  222.5593 H   0  0  0  0  0  0  0  0  0  0  0  0
  139.7571   70.7057  223.1949 H   0  0  0  0  0  0  0  0  0  0  0  0
  140.9530   71.6946  225.0850 H   0  0  0  0  0  0  0  0  0  0  0  0
  141.5987   69.9226  227.7579 H   0  0  0  0  0  0  0  0  0  0  0  0
  139.3536   72.1835  228.2479 H   0  0  0  0  0  0  0  0  0  0  0  0
  140.2190   72.0083  229.5254 H   0  0  0  0  0  0  0  0  0  0  0  0
  141.2502   72.8730  226.5857 H   0  0  0  0  0  0  0  0  0  0  0  0
  142.4505   72.8182  227.5739 H   0  0  0  0  0  0  0  0  0  0  0  0
  139.5113   68.5944  227.6377 H   0  0  0  0  0  0  0  0  0  0  0  0
  138.2959   67.5966  225.7348 H   0  0  0  0  0  0  0  0  0  0  0  0
  137.2897   70.7249  221.3417 H   0  0  0  0  0  0  0  0  0  0  0  0
  136.3639   72.3205  221.4645 H   0  0  0  0  0  0  0  0  0  0  0  0
  138.5674   72.1784  223.2572 H   0  0  0  0  0  0  0  0  0  0  0  0
  139.6390   70.8175  221.5173 H   0  0  0  0  0  0  0  0  0  0  0  0
  139.3756   72.1068  220.3386 H   0  0  0  0  0  0  0  0  0  0  0  0
  140.9219   72.2486  223.0015 H   0  0  0  0  0  0  0  0  0  0  0  0
  141.5532   72.5529  221.3410 H   0  0  0  0  0  0  0  0  0  0  0  0
  141.2000   74.6780  221.9290 H   0  0  0  0  0  0  0  0  0  0  0  0
  139.1569   75.5828  221.3660 H   0  0  0  0  0  0  0  0  0  0  0  0
  139.4266   74.2122  220.2650 H   0  0  0  0  0  0  0  0  0  0  0  0
  137.6962   74.3482  222.7739 H   0  0  0  0  0  0  0  0  0  0  0  0
  137.2294   73.8623  221.0992 H   0  0  0  0  0  0  0  0  0  0  0  0
  1  2  2  0
  2  3  1  0
  3  4  2  0
  4  5  1  0
  4  6  1  0
  6  7  2  0
  7  8  1  0
  8  9  2  0
  9 10  1  0
 10 11  2  0
 11 12  1  0
 12 13  2  0
 13 14  1  0
 14 15  2  0
 15 16  1  0
 16 17  2  0
 17 18  1  0
 18 19  1  0
 19 20  1  0
 17 21  1  0
 21 22  2  0
 11 23  1  0
 23 24  1  0
 24 25  1  0
 25 26  1  0
 26 27  1  0
 27 28  1  0
 28 29  1  0
 29 30  1  0
 23  2  1  0
 30 25  1  0
  9  3  1  0
 22 14  1  0
 20 18  1  0
  6 31  1  0
  7 32  1  0
  8 33  1  0
 12 34  1  0
 13 35  1  0
 15 36  1  0
 16 37  1  0
 18 38  1  0
 19 39  1  0
 19 40  1  0
 20 41  1  0
 20 42  1  0
 21 43  1  0
 22 44  1  0
 24 45  1  0
 24 46  1  0
 25 47  1  0
 26 48  1  0
 26 49  1  0
 27 50  1  0
 27 51  1  0
 28 52  1  0
 29 53  1  0
 29 54  1  0
 30 55  1  0
 30 56  1  0
M  END
>  <smiles>  (49) 
O=c1c2c(Cl)cccc2nc(/C=C/c2ccc(C3CC3)cc2)n1CC1CCNCC1

>  <score_type>  (49) 
oracle

>  <origin>  (49) 
autodockgpu

>  <m_score__min__energy>  (49) 
-8.9000000000000004

>  <m_primary>  (49) 
energy

>  <rmsd>  (49) 
10.195433075800008

>  <m_score__min__rmsd>  (49) 
10.195433075800008

>  <meeko>  (49) 
{"free_energy": -8.01, "intermolecular_energy": -9.8, "internal_energy": -2.28, "cluster_size": 13, "cluster_id": 6, "rank_in_cluster": 1}

>  <energy>  (49) 
-7.72

>  <cluster_rmsd>  (49) 
0.0

>  <cluster>  (49) 
7

$$$$

     RDKit          3D

 56 60  0  0  0  0  0  0  0  0999 V2000
  140.3230   71.9340  225.1380 O   0  0  0  0  0  0  0  0  0  0  0  0
  139.9310   70.7370  225.0860 C   0  0  0  0  0  0  0  0  0  0  0  0
  140.1890   69.9280  226.1730 C   0  0  0  0  0  0  0  0  0  0  0  0
  140.8580   70.4550  227.2590 C   0  0  0  0  0  0  0  0  0  0  0  0
  141.3860   72.1230  227.2940 Cl  0  0  0  0  0  0  0  0  0  0  0  0
  141.0950   69.5930  228.3340 C   0  0  0  0  0  0  0  0  0  0  0  0
  140.6730   68.2810  228.2940 C   0  0  0  0  0  0  0  0  0  0  0  0
  140.0050   67.7630  227.2020 C   0  0  0  0  0  0  0  0  0  0  0  0
  139.7720   68.6130  226.1430 C   0  0  0  0  0  0  0  0  0  0  0  0
  139.1310   68.2020  225.0400 N   0  0  0  0  0  0  0  0  0  0  0  0
  138.8790   68.9920  223.9820 C   0  0  0  0  0  0  0  0  0  0  0  0
  138.1650   68.4560  222.8290 C   0  0  0  0  0  0  0  0  0  0  0  0
  136.8510   68.5160  222.8110 C   0  0  0  0  0  0  0  0  0  0  0  0
  136.0520   69.3610  223.6800 C   0  0  0  0  0  0  0  0  0  0  0  0
  135.8530   70.7090  223.3750 C   0  0  0  0  0  0  0  0  0  0  0  0
  135.1020   71.5420  224.1740 C   0  0  0  0  0  0  0  0  0  0  0  0
  134.5070   71.0830  225.3230 C   0  0  0  0  0  0  0  0  0  0  0  0
  133.7190   72.0350  226.1260 C   0  0  0  0  0  0  0  0  0  0  0  0
  133.5510   71.8120  227.5980 C   0  0  0  0  0  0  0  0  0  0  0  0
  132.3780   71.6810  226.6510 C   0  0  0  0  0  0  0  0  0  0  0  0
  134.6870   69.7610  225.6480 C   0  0  0  0  0  0  0  0  0  0  0  0
  135.4470   68.9180  224.8370 C   0  0  0  0  0  0  0  0  0  0  0  0
  139.2740   70.2740  223.9820 N   0  0  0  0  0  0  0  0  0  0  0  0
  139.0760   71.1990  222.9120 C   0  0  0  0  0  0  0  0  0  0  0  0
  140.3030   71.8230  222.3490 C   0  0  0  0  0  0  0  0  0  0  0  0
  140.8170   71.2130  221.0740 C   0  0  0  0  0  0  0  0  0  0  0  0
  142.1830   71.8690  220.8320 C   0  0  0  0  0  0  0  0  0  0  0  0
  142.0830   73.2970  220.9810 N   0  0  0  0  0  0  0  0  0  0  0  0
  140.7310   73.8010  220.8730 C   0  0  0  0  0  0  0  0  0  0  0  0
  139.9700   73.2940  222.0810 C   0  0  0  0  0  0  0  0  0  0  0  0
  141.6248   69.9662  229.2228 H   0  0  0  0  0  0  0  0  0  0  0  0
  140.8741   67.6284  229.1564 H   0  0  0  0  0  0  0  0  0  0  0  0
  139.6726   66.7147  227.1786 H   0  0  0  0  0  0  0  0  0  0  0  0
  138.7159   68.0090  221.9884 H   0  0  0  0  0  0  0  0  0  0  0  0
  136.3202   67.8811  222.0864 H   0  0  0  0  0  0  0  0  0  0  0  0
  136.3125   71.1202  222.4641 H   0  0  0  0  0  0  0  0  0  0  0  0
  134.9763   72.5961  223.8859 H   0  0  0  0  0  0  0  0  0  0  0  0
  134.1007   72.8540  225.4987 H   0  0  0  0  0  0  0  0  0  0  0  0
  133.9796   70.9178  228.0741 H   0  0  0  0  0  0  0  0  0  0  0  0
  133.7626   72.3930  228.5078 H   0  0  0  0  0  0  0  0  0  0  0  0
  131.9490   70.6902  226.4406 H   0  0  0  0  0  0  0  0  0  0  0  0
  131.3751   72.1286  226.5884 H   0  0  0  0  0  0  0  0  0  0  0  0
  134.2246   69.3605  226.5622 H   0  0  0  0  0  0  0  0  0  0  0  0
  135.5676   67.8647  225.1304 H   0  0  0  0  0  0  0  0  0  0  0  0
  138.5664   70.6649  222.0965 H   0  0  0  0  0  0  0  0  0  0  0  0
  138.4949   72.0278  223.3426 H   0  0  0  0  0  0  0  0  0  0  0  0
  141.1047   71.6684  223.0861 H   0  0  0  0  0  0  0  0  0  0  0  0
  140.9269   70.1241  221.1850 H   0  0  0  0  0  0  0  0  0  0  0  0
  140.1277   71.3797  220.2331 H   0  0  0  0  0  0  0  0  0  0  0  0
  142.9080   71.4777  221.5608 H   0  0  0  0  0  0  0  0  0  0  0  0
  142.5157   71.6377  219.8094 H   0  0  0  0  0  0  0  0  0  0  0  0
  142.6840   73.8130  220.2860 H   0  0  0  0  0  0  0  0  0  0  0  0
  140.7376   74.9010  220.8653 H   0  0  0  0  0  0  0  0  0  0  0  0
  140.2586   73.4592  219.9403 H   0  0  0  0  0  0  0  0  0  0  0  0
  140.2470   73.8935  222.9607 H   0  0  0  0  0  0  0  0  0  0  0  0
  138.8915   73.3835  221.8841 H   0  0  0  0  0  0  0  0  0  0  0  0
  1  2  2  0
  2  3  1  0
  3  4  2  0
  4  5  1  0
  4  6  1  0
  6  7  2  0
  7  8  1  0
  8  9  2  0
  9 10  1  0
 10 11  2  0
 11 12  1  0
 12 13  2  0
 13 14  1  0
 14 15  2  0
 15 16  1  0
 16 17  2  0
 17 18  1  0
 18 19  1  0
 19 20  1  0
 17 21  1  0
 21 22  2  0
 11 23  1  0
 23 24  1  0
 24 25  1  0
 25 26  1  0
 26 27  1  0
 27 28  1  0
 28 29  1  0
 29 30  1  0
 23  2  1  0
 30 25  1  0
  9  3  1  0
 22 14  1  0
 20 18  1  0
  6 31  1  0
  7 32  1  0
  8 33  1  0
 12 34  1  0
 13 35  1  0
 15 36  1  0
 16 37  1  0
 18 38  1  0
 19 39  1  0
 19 40  1  0
 20 41  1  0
 20 42  1  0
 21 43  1  0
 22 44  1  0
 24 45  1  0
 24 46  1  0
 25 47  1  0
 26 48  1  0
 26 49  1  0
 27 50  1  0
 27 51  1  0
 28 52  1  0
 29 53  1  0
 29 54  1  0
 30 55  1  0
 30 56  1  0
M  END
>  <smiles>  (50) 
O=c1c2c(Cl)cccc2nc(/C=C/c2ccc(C3CC3)cc2)n1CC1CCNCC1

>  <score_type>  (50) 
oracle

>  <origin>  (50) 
autodockgpu

>  <m_score__min__energy>  (50) 
-8.9000000000000004

>  <m_primary>  (50) 
energy

>  <rmsd>  (50) 
11.152230332798418

>  <m_score__min__rmsd>  (50) 
11.152230332798418

>  <meeko>  (50) 
{"free_energy": -8.1, "intermolecular_energy": -9.89, "internal_energy": -1.84, "cluster_size": 12, "cluster_id": 5, "rank_in_cluster": 6}

>  <energy>  (50) 
-7.53

>  <cluster_rmsd>  (50) 
0.0

>  <cluster>  (50) 
8

$$$$
