
     RDKit          3D

 49 52  0  0  0  0  0  0  0  0999 V2000
  139.9140   73.7820  222.2700 O   0  0  0  0  0  0  0  0  0  0  0  0
  139.8500   72.5250  222.2320 C   0  0  0  0  0  0  0  0  0  0  0  0
  139.6300   71.9120  220.9270 N   0  0  0  0  0  0  0  0  0  0  0  0
  139.5130   72.8090  219.8360 C   0  0  0  0  0  0  0  0  0  0  0  0
  140.6680   73.5680  219.3800 C   0  0  0  0  0  0  0  0  0  0  0  0
  140.3580   74.5570  218.5870 O   0  0  0  0  0  0  0  0  0  0  0  0
  142.0480   73.3800  219.6770 N   0  0  0  0  0  0  0  0  0  0  0  0
  142.9650   72.3550  219.2210 C   0  0  0  0  0  0  0  0  0  0  0  0
  144.2550   72.6830  220.0110 C   0  0  2  0  0  0  0  0  0  0  0  0
  144.2880   72.0700  221.2360 O   0  0  0  0  0  0  0  0  0  0  0  0
  144.1530   74.2090  220.1600 C   0  0  0  0  0  0  0  0  0  0  0  0
  142.7320   74.3240  220.5830 C   0  0  1  0  0  0  0  0  0  0  0  0
  142.2020   75.7040  220.4700 C   0  0  0  0  0  0  0  0  0  0  0  0
  141.2710   76.2020  221.3570 C   0  0  0  0  0  0  0  0  0  0  0  0
  140.8440   77.5170  221.1500 C   0  0  0  0  0  0  0  0  0  0  0  0
  141.3330   78.2760  220.1110 C   0  0  0  0  0  0  0  0  0  0  0  0
  142.2640   77.7680  219.2300 C   0  0  0  0  0  0  0  0  0  0  0  0
  142.6920   76.4780  219.4210 C   0  0  0  0  0  0  0  0  0  0  0  0
  139.9810   71.6780  223.4090 C   0  0  0  0  0  0  0  0  0  0  0  0
  139.6410   70.3490  223.2630 C   0  0  0  0  0  0  0  0  0  0  0  0
  139.7430   69.4900  224.3380 C   0  0  0  0  0  0  0  0  0  0  0  0
  140.1920   70.0080  225.5500 C   0  0  0  0  0  0  0  0  0  0  0  0
  140.3000   69.1690  226.6320 C   0  0  0  0  0  0  0  0  0  0  0  0
  139.8770   67.4910  226.4760 Cl  0  0  0  0  0  0  0  0  0  0  0  0
  140.7460   69.6580  227.8560 C   0  0  0  0  0  0  0  0  0  0  0  0
  141.0710   70.9940  227.9420 C   0  0  0  0  0  0  0  0  0  0  0  0
  140.9640   71.8360  226.8590 C   0  0  0  0  0  0  0  0  0  0  0  0
  140.5170   71.3410  225.6360 C   0  0  0  0  0  0  0  0  0  0  0  0
  140.4200   72.1830  224.5910 N   0  0  0  0  0  0  0  0  0  0  0  0
  139.5850   70.8870  220.9530 H   0  0  0  0  0  0  0  0  0  0  0  0
  139.1648   72.2172  218.9766 H   0  0  0  0  0  0  0  0  0  0  0  0
  138.8415   73.5882  220.2257 H   0  0  0  0  0  0  0  0  0  0  0  0
  142.5924   71.3500  219.4681 H   0  0  0  0  0  0  0  0  0  0  0  0
  143.1086   72.3491  218.1304 H   0  0  0  0  0  0  0  0  0  0  0  0
  145.1696   72.3344  219.5091 H   0  0  0  0  0  0  0  0  0  0  0  0
  144.8110   71.2280  221.2100 H   0  0  0  0  0  0  0  0  0  0  0  0
  144.8412   74.5926  220.9276 H   0  0  0  0  0  0  0  0  0  0  0  0
  144.4204   74.7845  219.2615 H   0  0  0  0  0  0  0  0  0  0  0  0
  142.5847   74.0900  221.6477 H   0  0  0  0  0  0  0  0  0  0  0  0
  140.8830   75.5939  222.1874 H   0  0  0  0  0  0  0  0  0  0  0  0
  140.1008   77.9549  221.8326 H   0  0  0  0  0  0  0  0  0  0  0  0
  140.9741   79.3077  219.9811 H   0  0  0  0  0  0  0  0  0  0  0  0
  142.6515   78.3774  218.4002 H   0  0  0  0  0  0  0  0  0  0  0  0
  143.4351   76.0479  218.7334 H   0  0  0  0  0  0  0  0  0  0  0  0
  139.2889   69.9745  222.2905 H   0  0  0  0  0  0  0  0  0  0  0  0
  139.4774   68.4270  224.2404 H   0  0  0  0  0  0  0  0  0  0  0  0
  140.8365   68.9965  228.7302 H   0  0  0  0  0  0  0  0  0  0  0  0
  141.4253   71.3983  228.9017 H   0  0  0  0  0  0  0  0  0  0  0  0
  141.2311   72.8984  226.9588 H   0  0  0  0  0  0  0  0  0  0  0  0
  1  2  2  0
  2  3  1  0
  3  4  1  0
  4  5  1  0
  5  6  2  0
  5  7  1  0
  7  8  1  0
  8  9  1  0
  9 10  1  0
  9 11  1  0
 11 12  1  0
 12 13  1  0
 13 14  2  0
 14 15  1  0
 15 16  2  0
 16 17  1  0
 17 18  2  0
  2 19  1  0
 19 20  2  0
 20 21  1  0
 21 22  2  0
 22 23  1  0
 23 24  1  0
 23 25  2  0
 25 26  1  0
 26 27  2  0
 27 28  1  0
 28 29  2  0
 12  7  1  0
 18 13  1  0
 29 19  1  0
 28 22  1  0
  3 30  1  0
  4 31  1  0
  4 32  1  0
  8 33  1  0
  8 34  1  0
  9 35  1  6
 10 36  1  0
 11 37  1  0
 11 38  1  0
 12 39  1  1
 14 40  1  0
 15 41  1  0
 16 42  1  0
 17 43  1  0
 18 44  1  0
 20 45  1  0
 21 46  1  0
 25 47  1  0
 26 48  1  0
 27 49  1  0
M  END
>  <smiles>  (1) 
O=C(NCC(=O)N1C[C@H](O)C[C@H]1c1ccccc1)c1ccc2c(Cl)cccc2n1

>  <score_type>  (1) 
oracle

>  <origin>  (1) 
autodockgpu

>  <m_score__min__energy>  (1) 
-8.8900000000000006

>  <m_primary>  (1) 
energy

>  <rmsd>  (1) 
3.0646542735767897

>  <m_score__min__rmsd>  (1) 
3.0646542735767897

>  <meeko>  (1) 
{"free_energy": -7.84, "intermolecular_energy": -9.63, "internal_energy": -1.63, "cluster_size": 13, "cluster_id": 2, "rank_in_cluster": 9}

>  <energy>  (1) 
-8.89

>  <cluster_rmsd>  (1) 
0.0

>  <cluster>  (1) 
1

$$$$

     RDKit          3D

 49 52  0  0  0  0  0  0  0  0999 V2000
  139.6090   74.3060  221.9730 O   0  0  0  0  0  0  0  0  0  0  0  0
  140.5330   75.1610  221.9340 C   0  0  0  0  0  0  0  0  0  0  0  0
  141.8240   74.7190  221.4190 N   0  0  0  0  0  0  0  0  0  0  0  0
  141.8940   73.3620  221.0150 C   0  0  0  0  0  0  0  0  0  0  0  0
  142.0380   73.0200  219.6080 C   0  0  0  0  0  0  0  0  0  0  0  0
  140.9530   72.5180  219.0830 O   0  0  0  0  0  0  0  0  0  0  0  0
  143.1690   73.1560  218.7540 N   0  0  0  0  0  0  0  0  0  0  0  0
  143.8920   72.1510  218.0010 C   0  0  0  0  0  0  0  0  0  0  0  0
  145.0620   72.9620  217.3950 C   0  0  2  0  0  0  0  0  0  0  0  0
  146.1480   73.0160  218.2300 O   0  0  0  0  0  0  0  0  0  0  0  0
  144.4280   74.3510  217.2240 C   0  0  0  0  0  0  0  0  0  0  0  0
  143.7710   74.4900  218.5510 C   0  0  1  0  0  0  0  0  0  0  0  0
  142.7640   75.5770  218.5900 C   0  0  0  0  0  0  0  0  0  0  0  0
  141.5910   75.5110  217.8660 C   0  0  0  0  0  0  0  0  0  0  0  0
  140.7180   76.5970  217.9820 C   0  0  0  0  0  0  0  0  0  0  0  0
  141.0170   77.6780  218.7810 C   0  0  0  0  0  0  0  0  0  0  0  0
  142.1920   77.7330  219.4990 C   0  0  0  0  0  0  0  0  0  0  0  0
  143.0590   76.6740  219.3960 C   0  0  0  0  0  0  0  0  0  0  0  0
  140.3710   76.5400  222.3720 C   0  0  0  0  0  0  0  0  0  0  0  0
  139.0830   76.9700  222.6180 C   0  0  0  0  0  0  0  0  0  0  0  0
  138.8590   78.2660  223.0370 C   0  0  0  0  0  0  0  0  0  0  0  0
  139.9600   79.1040  223.1960 C   0  0  0  0  0  0  0  0  0  0  0  0
  139.7560   80.3960  223.6120 C   0  0  0  0  0  0  0  0  0  0  0  0
  138.1450   80.9650  223.9280 Cl  0  0  0  0  0  0  0  0  0  0  0  0
  140.8380   81.2560  223.7800 C   0  0  0  0  0  0  0  0  0  0  0  0
  142.1010   80.7710  223.5190 C   0  0  0  0  0  0  0  0  0  0  0  0
  142.3050   79.4760  223.1030 C   0  0  0  0  0  0  0  0  0  0  0  0
  141.2200   78.6190  222.9360 C   0  0  0  0  0  0  0  0  0  0  0  0
  141.4450   77.3570  222.5280 N   0  0  0  0  0  0  0  0  0  0  0  0
  142.5400   75.4530  221.4100 H   0  0  0  0  0  0  0  0  0  0  0  0
  142.7561   72.9211  221.5370 H   0  0  0  0  0  0  0  0  0  0  0  0
  140.8943   72.9764  221.2638 H   0  0  0  0  0  0  0  0  0  0  0  0
  144.2620   71.3511  218.6593 H   0  0  0  0  0  0  0  0  0  0  0  0
  143.2752   71.6413  217.2462 H   0  0  0  0  0  0  0  0  0  0  0  0
  145.4555   72.5240  216.4659 H   0  0  0  0  0  0  0  0  0  0  0  0
  146.3100   73.9360  218.5610 H   0  0  0  0  0  0  0  0  0  0  0  0
  145.1867   75.1302  217.0588 H   0  0  0  0  0  0  0  0  0  0  0  0
  143.7576   74.4548  216.3581 H   0  0  0  0  0  0  0  0  0  0  0  0
  144.4749   74.7770  219.3461 H   0  0  0  0  0  0  0  0  0  0  0  0
  141.3544   74.6462  217.2287 H   0  0  0  0  0  0  0  0  0  0  0  0
  139.7710   76.5877  217.4224 H   0  0  0  0  0  0  0  0  0  0  0  0
  140.3045   78.5134  218.8474 H   0  0  0  0  0  0  0  0  0  0  0  0
  142.4278   78.5990  220.1350 H   0  0  0  0  0  0  0  0  0  0  0  0
  144.0033   76.6919  219.9598 H   0  0  0  0  0  0  0  0  0  0  0  0
  138.2364   76.2813  222.4804 H   0  0  0  0  0  0  0  0  0  0  0  0
  137.8398   78.6267  223.2396 H   0  0  0  0  0  0  0  0  0  0  0  0
  140.6886   82.2940  224.1119 H   0  0  0  0  0  0  0  0  0  0  0  0
  142.9678   81.4361  223.6465 H   0  0  0  0  0  0  0  0  0  0  0  0
  143.3252   79.1171  222.9022 H   0  0  0  0  0  0  0  0  0  0  0  0
  1  2  2  0
  2  3  1  0
  3  4  1  0
  4  5  1  0
  5  6  2  0
  5  7  1  0
  7  8  1  0
  8  9  1  0
  9 10  1  0
  9 11  1  0
 11 12  1  0
 12 13  1  0
 13 14  2  0
 14 15  1  0
 15 16  2  0
 16 17  1  0
 17 18  2  0
  2 19  1  0
 19 20  2  0
 20 21  1  0
 21 22  2  0
 22 23  1  0
 23 24  1  0
 23 25  2  0
 25 26  1  0
 26 27  2  0
 27 28  1  0
 28 29  2  0
 12  7  1  0
 18 13  1  0
 29 19  1  0
 28 22  1  0
  3 30  1  0
  4 31  1  0
  4 32  1  0
  8 33  1  0
  8 34  1  0
  9 35  1  6
 10 36  1  0
 11 37  1  0
 11 38  1  0
 12 39  1  1
 14 40  1  0
 15 41  1  0
 16 42  1  0
 17 43  1  0
 18 44  1  0
 20 45  1  0
 21 46  1  0
 25 47  1  0
 26 48  1  0
 27 49  1  0
M  END
>  <smiles>  (2) 
O=C(NCC(=O)N1C[C@H](O)C[C@H]1c1ccccc1)c1ccc2c(Cl)cccc2n1

>  <score_type>  (2) 
oracle

>  <origin>  (2) 
autodockgpu

>  <m_score__min__energy>  (2) 
-8.8900000000000006

>  <m_primary>  (2) 
energy

>  <rmsd>  (2) 
7.096726473224236

>  <m_score__min__rmsd>  (2) 
7.096726473224236

>  <meeko>  (2) 
{"free_energy": -7.18, "intermolecular_energy": -8.97, "internal_energy": -2.44, "cluster_size": 7, "cluster_id": 7, "rank_in_cluster": 5}

>  <energy>  (2) 
-8.71

>  <cluster_rmsd>  (2) 
0.42

>  <cluster>  (2) 
1

$$$$

     RDKit          3D

 49 52  0  0  0  0  0  0  0  0999 V2000
  141.3870   72.5600  221.6390 O   0  0  0  0  0  0  0  0  0  0  0  0
  140.4710   72.6430  222.4990 C   0  0  0  0  0  0  0  0  0  0  0  0
  139.5060   73.7260  222.3390 N   0  0  0  0  0  0  0  0  0  0  0  0
  139.7090   74.5710  221.2190 C   0  0  0  0  0  0  0  0  0  0  0  0
  140.7790   75.5580  221.2260 C   0  0  0  0  0  0  0  0  0  0  0  0
  141.4080   75.6330  222.3680 O   0  0  0  0  0  0  0  0  0  0  0  0
  141.2170   76.4240  220.1840 N   0  0  0  0  0  0  0  0  0  0  0  0
  141.2380   76.2160  218.7500 C   0  0  0  0  0  0  0  0  0  0  0  0
  141.9340   77.4980  218.2350 C   0  0  2  0  0  0  0  0  0  0  0  0
  143.2990   77.3740  218.2020 O   0  0  0  0  0  0  0  0  0  0  0  0
  141.5000   78.5350  219.2820 C   0  0  0  0  0  0  0  0  0  0  0  0
  141.7530   77.7570  220.5240 C   0  0  1  0  0  0  0  0  0  0  0  0
  141.1010   78.3430  221.7190 C   0  0  0  0  0  0  0  0  0  0  0  0
  141.8220   78.7170  222.8340 C   0  0  0  0  0  0  0  0  0  0  0  0
  141.0970   79.2580  223.9000 C   0  0  0  0  0  0  0  0  0  0  0  0
  139.7300   79.4080  223.8380 C   0  0  0  0  0  0  0  0  0  0  0  0
  139.0190   79.0300  222.7190 C   0  0  0  0  0  0  0  0  0  0  0  0
  139.7170   78.4980  221.6640 C   0  0  0  0  0  0  0  0  0  0  0  0
  140.3380   71.7260  223.6230 C   0  0  0  0  0  0  0  0  0  0  0  0
  139.8340   70.4720  223.3490 C   0  0  0  0  0  0  0  0  0  0  0  0
  139.6830   69.5530  224.3680 C   0  0  0  0  0  0  0  0  0  0  0  0
  140.0510   69.9360  225.6550 C   0  0  0  0  0  0  0  0  0  0  0  0
  139.9070   69.0360  226.6820 C   0  0  0  0  0  0  0  0  0  0  0  0
  139.2740   67.4490  226.3650 Cl  0  0  0  0  0  0  0  0  0  0  0  0
  140.2660   69.3910  227.9790 C   0  0  0  0  0  0  0  0  0  0  0  0
  140.7640   70.6570  228.1920 C   0  0  0  0  0  0  0  0  0  0  0  0
  140.9090   71.5600  227.1640 C   0  0  0  0  0  0  0  0  0  0  0  0
  140.5480   71.2010  225.8670 C   0  0  0  0  0  0  0  0  0  0  0  0
  140.6980   72.1000  224.8780 N   0  0  0  0  0  0  0  0  0  0  0  0
  138.7840   73.7470  223.0660 H   0  0  0  0  0  0  0  0  0  0  0  0
  139.8916   73.9134  220.3563 H   0  0  0  0  0  0  0  0  0  0  0  0
  138.7997   75.1899  221.2063 H   0  0  0  0  0  0  0  0  0  0  0  0
  141.8155   75.3174  218.4872 H   0  0  0  0  0  0  0  0  0  0  0  0
  140.2402   76.0546  218.3160 H   0  0  0  0  0  0  0  0  0  0  0  0
  141.6592   77.7529  217.2008 H   0  0  0  0  0  0  0  0  0  0  0  0
  143.7250   77.7990  218.9900 H   0  0  0  0  0  0  0  0  0  0  0  0
  142.1156   79.4455  219.2364 H   0  0  0  0  0  0  0  0  0  0  0  0
  140.4725   78.9110  219.1682 H   0  0  0  0  0  0  0  0  0  0  0  0
  142.8158   77.7399  220.8070 H   0  0  0  0  0  0  0  0  0  0  0  0
  142.9142   78.5955  222.8821 H   0  0  0  0  0  0  0  0  0  0  0  0
  141.6312   79.5710  224.8092 H   0  0  0  0  0  0  0  0  0  0  0  0
  139.1948   79.8376  224.6976 H   0  0  0  0  0  0  0  0  0  0  0  0
  137.9266   79.1510  222.6732 H   0  0  0  0  0  0  0  0  0  0  0  0
  139.1744   78.1883  220.7586 H   0  0  0  0  0  0  0  0  0  0  0  0
  139.5527   70.2043  222.3198 H   0  0  0  0  0  0  0  0  0  0  0  0
  139.2836   68.5476  224.1690 H   0  0  0  0  0  0  0  0  0  0  0  0
  140.1550   68.6799  228.8109 H   0  0  0  0  0  0  0  0  0  0  0  0
  141.0535   70.9542  229.2107 H   0  0  0  0  0  0  0  0  0  0  0  0
  141.3095   72.5644  227.3659 H   0  0  0  0  0  0  0  0  0  0  0  0
  1  2  2  0
  2  3  1  0
  3  4  1  0
  4  5  1  0
  5  6  2  0
  5  7  1  0
  7  8  1  0
  8  9  1  0
  9 10  1  0
  9 11  1  0
 11 12  1  0
 12 13  1  0
 13 14  2  0
 14 15  1  0
 15 16  2  0
 16 17  1  0
 17 18  2  0
  2 19  1  0
 19 20  2  0
 20 21  1  0
 21 22  2  0
 22 23  1  0
 23 24  1  0
 23 25  2  0
 25 26  1  0
 26 27  2  0
 27 28  1  0
 28 29  2  0
 12  7  1  0
 18 13  1  0
 29 19  1  0
 28 22  1  0
  3 30  1  0
  4 31  1  0
  4 32  1  0
  8 33  1  0
  8 34  1  0
  9 35  1  6
 10 36  1  0
 11 37  1  0
 11 38  1  0
 12 39  1  1
 14 40  1  0
 15 41  1  0
 16 42  1  0
 17 43  1  0
 18 44  1  0
 20 45  1  0
 21 46  1  0
 25 47  1  0
 26 48  1  0
 27 49  1  0
M  END
>  <smiles>  (3) 
O=C(NCC(=O)N1C[C@H](O)C[C@H]1c1ccccc1)c1ccc2c(Cl)cccc2n1

>  <score_type>  (3) 
oracle

>  <origin>  (3) 
autodockgpu

>  <m_score__min__energy>  (3) 
-8.8900000000000006

>  <m_primary>  (3) 
energy

>  <rmsd>  (3) 
1.7019410707232794

>  <m_score__min__rmsd>  (3) 
1.7019410707232794

>  <meeko>  (3) 
{"free_energy": -8.89, "intermolecular_energy": -10.68, "internal_energy": -1.23, "cluster_size": 7, "cluster_id": 1, "rank_in_cluster": 1}

>  <energy>  (3) 
-7.87

>  <cluster_rmsd>  (3) 
0.52

>  <cluster>  (3) 
1

$$$$

     RDKit          3D

 49 52  0  0  0  0  0  0  0  0999 V2000
  136.2470   77.2680  222.7180 O   0  0  0  0  0  0  0  0  0  0  0  0
  136.4960   76.1160  223.1610 C   0  0  0  0  0  0  0  0  0  0  0  0
  137.7260   75.4810  222.7030 N   0  0  0  0  0  0  0  0  0  0  0  0
  138.5140   76.2400  221.8030 C   0  0  0  0  0  0  0  0  0  0  0  0
  139.9020   75.8790  221.5540 C   0  0  0  0  0  0  0  0  0  0  0  0
  140.3220   74.8920  222.2970 O   0  0  0  0  0  0  0  0  0  0  0  0
  140.8310   76.4430  220.6340 N   0  0  0  0  0  0  0  0  0  0  0  0
  141.1480   76.0520  219.2750 C   0  0  0  0  0  0  0  0  0  0  0  0
  142.3100   77.0070  218.9130 C   0  0  2  0  0  0  0  0  0  0  0  0
  143.5330   76.5000  219.2690 O   0  0  0  0  0  0  0  0  0  0  0  0
  141.9660   78.2520  219.7440 C   0  0  0  0  0  0  0  0  0  0  0  0
  141.6470   77.6040  221.0440 C   0  0  1  0  0  0  0  0  0  0  0  0
  140.9260   78.5010  221.9780 C   0  0  0  0  0  0  0  0  0  0  0  0
  139.8170   79.2220  221.5890 C   0  0  0  0  0  0  0  0  0  0  0  0
  139.2210   80.0340  222.5580 C   0  0  0  0  0  0  0  0  0  0  0  0
  139.7200   80.1090  223.8380 C   0  0  0  0  0  0  0  0  0  0  0  0
  140.8300   79.3850  224.2180 C   0  0  0  0  0  0  0  0  0  0  0  0
  141.4250   78.5820  223.2770 C   0  0  0  0  0  0  0  0  0  0  0  0
  135.6250   75.4070  224.0880 C   0  0  0  0  0  0  0  0  0  0  0  0
  135.6280   74.0290  224.0180 C   0  0  0  0  0  0  0  0  0  0  0  0
  134.8260   73.2950  224.8690 C   0  0  0  0  0  0  0  0  0  0  0  0
  134.0320   73.9860  225.7800 C   0  0  0  0  0  0  0  0  0  0  0  0
  133.2270   73.2720  226.6340 C   0  0  0  0  0  0  0  0  0  0  0  0
  133.2110   71.5360  226.5660 Cl  0  0  0  0  0  0  0  0  0  0  0  0
  132.4230   73.9360  227.5550 C   0  0  0  0  0  0  0  0  0  0  0  0
  132.4610   75.3130  227.5800 C   0  0  0  0  0  0  0  0  0  0  0  0
  133.2670   76.0280  226.7240 C   0  0  0  0  0  0  0  0  0  0  0  0
  134.0710   75.3600  225.8040 C   0  0  0  0  0  0  0  0  0  0  0  0
  134.8500   76.0810  224.9780 N   0  0  0  0  0  0  0  0  0  0  0  0
  137.8780   74.5440  223.0940 H   0  0  0  0  0  0  0  0  0  0  0  0
  138.0006   76.2091  220.8307 H   0  0  0  0  0  0  0  0  0  0  0  0
  138.5973   77.2143  222.3067 H   0  0  0  0  0  0  0  0  0  0  0  0
  141.4685   75.0008  219.2285 H   0  0  0  0  0  0  0  0  0  0  0  0
  140.2921   76.1232  218.5877 H   0  0  0  0  0  0  0  0  0  0  0  0
  142.3967   77.1914  217.8320 H   0  0  0  0  0  0  0  0  0  0  0  0
  144.0570   77.1490  219.8050 H   0  0  0  0  0  0  0  0  0  0  0  0
  142.8217   78.9382  219.8274 H   0  0  0  0  0  0  0  0  0  0  0  0
  141.1669   78.8838  219.3290 H   0  0  0  0  0  0  0  0  0  0  0  0
  142.5464   77.3259  221.6130 H   0  0  0  0  0  0  0  0  0  0  0  0
  139.4202   79.1611  220.5649 H   0  0  0  0  0  0  0  0  0  0  0  0
  138.3332   80.6263  222.2913 H   0  0  0  0  0  0  0  0  0  0  0  0
  139.2234   80.7597  224.5729 H   0  0  0  0  0  0  0  0  0  0  0  0
  141.2261   79.4488  225.2422 H   0  0  0  0  0  0  0  0  0  0  0  0
  142.3114   77.9919  223.5530 H   0  0  0  0  0  0  0  0  0  0  0  0
  136.2684   73.5160  223.2853 H   0  0  0  0  0  0  0  0  0  0  0  0
  134.8148   72.1958  224.8283 H   0  0  0  0  0  0  0  0  0  0  0  0
  131.7742   73.3765  228.2449 H   0  0  0  0  0  0  0  0  0  0  0  0
  131.8316   75.8541  228.3019 H   0  0  0  0  0  0  0  0  0  0  0  0
  133.2762   77.1271  226.7665 H   0  0  0  0  0  0  0  0  0  0  0  0
  1  2  2  0
  2  3  1  0
  3  4  1  0
  4  5  1  0
  5  6  2  0
  5  7  1  0
  7  8  1  0
  8  9  1  0
  9 10  1  0
  9 11  1  0
 11 12  1  0
 12 13  1  0
 13 14  2  0
 14 15  1  0
 15 16  2  0
 16 17  1  0
 17 18  2  0
  2 19  1  0
 19 20  2  0
 20 21  1  0
 21 22  2  0
 22 23  1  0
 23 24  1  0
 23 25  2  0
 25 26  1  0
 26 27  2  0
 27 28  1  0
 28 29  2  0
 12  7  1  0
 18 13  1  0
 29 19  1  0
 28 22  1  0
  3 30  1  0
  4 31  1  0
  4 32  1  0
  8 33  1  0
  8 34  1  0
  9 35  1  6
 10 36  1  0
 11 37  1  0
 11 38  1  0
 12 39  1  1
 14 40  1  0
 15 41  1  0
 16 42  1  0
 17 43  1  0
 18 44  1  0
 20 45  1  0
 21 46  1  0
 25 47  1  0
 26 48  1  0
 27 49  1  0
M  END
>  <smiles>  (4) 
O=C(NCC(=O)N1C[C@H](O)C[C@H]1c1ccccc1)c1ccc2c(Cl)cccc2n1

>  <score_type>  (4) 
oracle

>  <origin>  (4) 
autodockgpu

>  <m_score__min__energy>  (4) 
-8.8900000000000006

>  <m_primary>  (4) 
energy

>  <rmsd>  (4) 
5.485659171753142

>  <m_score__min__rmsd>  (4) 
5.485659171753142

>  <meeko>  (4) 
{"free_energy": -7.74, "intermolecular_energy": -9.53, "internal_energy": -1.51, "cluster_size": 3, "cluster_id": 4, "rank_in_cluster": 1}

>  <energy>  (4) 
-7.81

>  <cluster_rmsd>  (4) 
1.57

>  <cluster>  (4) 
1

$$$$

     RDKit          3D

 49 52  0  0  0  0  0  0  0  0999 V2000
  138.9820   70.6890  221.3730 O   0  0  0  0  0  0  0  0  0  0  0  0
  139.8170   71.2530  222.1270 C   0  0  0  0  0  0  0  0  0  0  0  0
  140.6200   72.3230  221.5450 N   0  0  0  0  0  0  0  0  0  0  0  0
  140.3670   72.6110  220.1800 C   0  0  0  0  0  0  0  0  0  0  0  0
  141.4470   73.0440  219.3060 C   0  0  0  0  0  0  0  0  0  0  0  0
  141.0720   73.2230  218.0690 O   0  0  0  0  0  0  0  0  0  0  0  0
  142.8150   73.2910  219.6140 N   0  0  0  0  0  0  0  0  0  0  0  0
  144.0130   72.6830  219.0720 C   0  0  0  0  0  0  0  0  0  0  0  0
  145.1320   73.3300  219.9230 C   0  0  2  0  0  0  0  0  0  0  0  0
  145.3830   72.6320  221.0760 O   0  0  0  0  0  0  0  0  0  0  0  0
  144.5340   74.7100  220.2330 C   0  0  0  0  0  0  0  0  0  0  0  0
  143.1610   74.3030  220.6320 C   0  0  1  0  0  0  0  0  0  0  0  0
  142.2030   75.4340  220.6560 C   0  0  0  0  0  0  0  0  0  0  0  0
  141.1730   75.4990  221.5710 C   0  0  0  0  0  0  0  0  0  0  0  0
  140.3330   76.6140  221.4960 C   0  0  0  0  0  0  0  0  0  0  0  0
  140.5270   77.5980  220.5540 C   0  0  0  0  0  0  0  0  0  0  0  0
  141.5590   77.5230  219.6440 C   0  0  0  0  0  0  0  0  0  0  0  0
  142.3930   76.4340  219.7050 C   0  0  0  0  0  0  0  0  0  0  0  0
  140.0120   70.8910  223.5240 C   0  0  0  0  0  0  0  0  0  0  0  0
  139.5990   69.6320  223.9060 C   0  0  0  0  0  0  0  0  0  0  0  0
  139.7540   69.2240  225.2160 C   0  0  0  0  0  0  0  0  0  0  0  0
  140.3320   70.1160  226.1160 C   0  0  0  0  0  0  0  0  0  0  0  0
  140.4940   69.7280  227.4230 C   0  0  0  0  0  0  0  0  0  0  0  0
  139.9820   68.1480  227.9320 Cl  0  0  0  0  0  0  0  0  0  0  0  0
  141.0680   70.5990  228.3440 C   0  0  0  0  0  0  0  0  0  0  0  0
  141.4620   71.8440  227.9060 C   0  0  0  0  0  0  0  0  0  0  0  0
  141.2990   72.2330  226.5960 C   0  0  0  0  0  0  0  0  0  0  0  0
  140.7250   71.3590  225.6770 C   0  0  0  0  0  0  0  0  0  0  0  0
  140.5760   71.7610  224.4020 N   0  0  0  0  0  0  0  0  0  0  0  0
  141.2840   72.7470  222.2020 H   0  0  0  0  0  0  0  0  0  0  0  0
  139.9500   71.6949  219.7362 H   0  0  0  0  0  0  0  0  0  0  0  0
  139.7172   73.4972  220.2295 H   0  0  0  0  0  0  0  0  0  0  0  0
  143.9973   71.5906  219.2004 H   0  0  0  0  0  0  0  0  0  0  0  0
  144.1358   72.8443  217.9908 H   0  0  0  0  0  0  0  0  0  0  0  0
  146.1034   73.3598  219.4078 H   0  0  0  0  0  0  0  0  0  0  0  0
  145.5640   71.6740  220.8920 H   0  0  0  0  0  0  0  0  0  0  0  0
  145.0671   75.2125  221.0536 H   0  0  0  0  0  0  0  0  0  0  0  0
  144.5843   75.4363  219.4084 H   0  0  0  0  0  0  0  0  0  0  0  0
  143.1140   73.9188  221.6617 H   0  0  0  0  0  0  0  0  0  0  0  0
  141.0199   74.7114  222.3235 H   0  0  0  0  0  0  0  0  0  0  0  0
  139.4981   76.7068  222.2061 H   0  0  0  0  0  0  0  0  0  0  0  0
  139.8453   78.4609  220.5268 H   0  0  0  0  0  0  0  0  0  0  0  0
  141.7100   78.3113  218.8918 H   0  0  0  0  0  0  0  0  0  0  0  0
  143.2253   76.3498  218.9908 H   0  0  0  0  0  0  0  0  0  0  0  0
  139.1465   68.9534  223.1679 H   0  0  0  0  0  0  0  0  0  0  0  0
  139.4304   68.2236  225.5394 H   0  0  0  0  0  0  0  0  0  0  0  0
  141.2035   70.3011  229.3942 H   0  0  0  0  0  0  0  0  0  0  0  0
  141.9182   72.5446  228.6209 H   0  0  0  0  0  0  0  0  0  0  0  0
  141.6222   73.2343  226.2752 H   0  0  0  0  0  0  0  0  0  0  0  0
  1  2  2  0
  2  3  1  0
  3  4  1  0
  4  5  1  0
  5  6  2  0
  5  7  1  0
  7  8  1  0
  8  9  1  0
  9 10  1  0
  9 11  1  0
 11 12  1  0
 12 13  1  0
 13 14  2  0
 14 15  1  0
 15 16  2  0
 16 17  1  0
 17 18  2  0
  2 19  1  0
 19 20  2  0
 20 21  1  0
 21 22  2  0
 22 23  1  0
 23 24  1  0
 23 25  2  0
 25 26  1  0
 26 27  2  0
 27 28  1  0
 28 29  2  0
 12  7  1  0
 18 13  1  0
 29 19  1  0
 28 22  1  0
  3 30  1  0
  4 31  1  0
  4 32  1  0
  8 33  1  0
  8 34  1  0
  9 35  1  6
 10 36  1  0
 11 37  1  0
 11 38  1  0
 12 39  1  1
 14 40  1  0
 15 41  1  0
 16 42  1  0
 17 43  1  0
 18 44  1  0
 20 45  1  0
 21 46  1  0
 25 47  1  0
 26 48  1  0
 27 49  1  0
M  END
>  <smiles>  (5) 
O=C(NCC(=O)N1C[C@H](O)C[C@H]1c1ccccc1)c1ccc2c(Cl)cccc2n1

>  <score_type>  (5) 
oracle

>  <origin>  (5) 
autodockgpu

>  <m_score__min__energy>  (5) 
-8.8900000000000006

>  <m_primary>  (5) 
energy

>  <rmsd>  (5) 
3.3048431890681433

>  <m_score__min__rmsd>  (5) 
3.3048431890681433

>  <meeko>  (5) 
{"free_energy": -7.51, "intermolecular_energy": -9.3, "internal_energy": -1.72, "cluster_size": 13, "cluster_id": 2, "rank_in_cluster": 11}

>  <energy>  (5) 
-7.47

>  <cluster_rmsd>  (5) 
1.78

>  <cluster>  (5) 
1

$$$$

     RDKit          3D

 49 52  0  0  0  0  0  0  0  0999 V2000
  139.6630   70.8310  221.2110 O   0  0  0  0  0  0  0  0  0  0  0  0
  139.6050   71.5980  222.2080 C   0  0  0  0  0  0  0  0  0  0  0  0
  139.2740   72.9950  221.9520 N   0  0  0  0  0  0  0  0  0  0  0  0
  139.0510   73.3370  220.5940 C   0  0  0  0  0  0  0  0  0  0  0  0
  140.1590   73.7510  219.7480 C   0  0  0  0  0  0  0  0  0  0  0  0
  139.7850   74.4350  218.7010 O   0  0  0  0  0  0  0  0  0  0  0  0
  141.5550   73.5160  219.9060 N   0  0  0  0  0  0  0  0  0  0  0  0
  142.4150   72.5500  219.2530 C   0  0  0  0  0  0  0  0  0  0  0  0
  143.7690   72.7650  219.9700 C   0  0  2  0  0  0  0  0  0  0  0  0
  143.8870   72.0010  221.1020 O   0  0  0  0  0  0  0  0  0  0  0  0
  143.7060   74.2600  220.3170 C   0  0  0  0  0  0  0  0  0  0  0  0
  142.3260   74.3320  220.8650 C   0  0  1  0  0  0  0  0  0  0  0  0
  141.8140   75.7190  220.9700 C   0  0  0  0  0  0  0  0  0  0  0  0
  140.9540   76.1060  221.9770 C   0  0  0  0  0  0  0  0  0  0  0  0
  140.5380   77.4400  221.9720 C   0  0  0  0  0  0  0  0  0  0  0  0
  140.9670   78.3240  221.0080 C   0  0  0  0  0  0  0  0  0  0  0  0
  141.8260   77.9270  220.0050 C   0  0  0  0  0  0  0  0  0  0  0  0
  142.2440   76.6200  219.9970 C   0  0  0  0  0  0  0  0  0  0  0  0
  139.8500   71.1580  223.5740 C   0  0  0  0  0  0  0  0  0  0  0  0
  139.4810   69.8680  223.8910 C   0  0  0  0  0  0  0  0  0  0  0  0
  139.6860   69.3870  225.1690 C   0  0  0  0  0  0  0  0  0  0  0  0
  140.2670   70.2400  226.1040 C   0  0  0  0  0  0  0  0  0  0  0  0
  140.4780   69.7800  227.3810 C   0  0  0  0  0  0  0  0  0  0  0  0
  140.0220   68.1590  227.8080 Cl  0  0  0  0  0  0  0  0  0  0  0  0
  141.0560   70.6100  228.3360 C   0  0  0  0  0  0  0  0  0  0  0  0
  141.4050   71.8890  227.9630 C   0  0  0  0  0  0  0  0  0  0  0  0
  141.1940   72.3500  226.6840 C   0  0  0  0  0  0  0  0  0  0  0  0
  140.6140   71.5170  225.7300 C   0  0  0  0  0  0  0  0  0  0  0  0
  140.4170   71.9900  224.4870 N   0  0  0  0  0  0  0  0  0  0  0  0
  139.2410   73.5740  222.7970 H   0  0  0  0  0  0  0  0  0  0  0  0
  138.6015   72.4542  220.1159 H   0  0  0  0  0  0  0  0  0  0  0  0
  138.4383   74.2479  220.6645 H   0  0  0  0  0  0  0  0  0  0  0  0
  142.0453   71.5247  219.4017 H   0  0  0  0  0  0  0  0  0  0  0  0
  142.4716   72.6814  218.1623 H   0  0  0  0  0  0  0  0  0  0  0  0
  144.6350   72.4761  219.3563 H   0  0  0  0  0  0  0  0  0  0  0  0
  144.8360   71.8080  221.3160 H   0  0  0  0  0  0  0  0  0  0  0  0
  144.4599   74.5382  221.0682 H   0  0  0  0  0  0  0  0  0  0  0  0
  143.9110   74.9422  219.4788 H   0  0  0  0  0  0  0  0  0  0  0  0
  142.2597   73.9663  221.9003 H   0  0  0  0  0  0  0  0  0  0  0  0
  140.6122   75.3985  222.7468 H   0  0  0  0  0  0  0  0  0  0  0  0
  139.8519   77.7918  222.7565 H   0  0  0  0  0  0  0  0  0  0  0  0
  140.6180   79.3667  221.0383 H   0  0  0  0  0  0  0  0  0  0  0  0
  142.1655   78.6358  219.2354 H   0  0  0  0  0  0  0  0  0  0  0  0
  142.9305   76.2772  219.2089 H   0  0  0  0  0  0  0  0  0  0  0  0
  139.0237   69.2226  223.1266 H   0  0  0  0  0  0  0  0  0  0  0  0
  139.3989   68.3604  225.4405 H   0  0  0  0  0  0  0  0  0  0  0  0
  141.2298   70.2541  229.3622 H   0  0  0  0  0  0  0  0  0  0  0  0
  141.8636   72.5583  228.7058 H   0  0  0  0  0  0  0  0  0  0  0  0
  141.4834   73.3765  226.4147 H   0  0  0  0  0  0  0  0  0  0  0  0
  1  2  2  0
  2  3  1  0
  3  4  1  0
  4  5  1  0
  5  6  2  0
  5  7  1  0
  7  8  1  0
  8  9  1  0
  9 10  1  0
  9 11  1  0
 11 12  1  0
 12 13  1  0
 13 14  2  0
 14 15  1  0
 15 16  2  0
 16 17  1  0
 17 18  2  0
  2 19  1  0
 19 20  2  0
 20 21  1  0
 21 22  2  0
 22 23  1  0
 23 24  1  0
 23 25  2  0
 25 26  1  0
 26 27  2  0
 27 28  1  0
 28 29  2  0
 12  7  1  0
 18 13  1  0
 29 19  1  0
 28 22  1  0
  3 30  1  0
  4 31  1  0
  4 32  1  0
  8 33  1  0
  8 34  1  0
  9 35  1  6
 10 36  1  0
 11 37  1  0
 11 38  1  0
 12 39  1  1
 14 40  1  0
 15 41  1  0
 16 42  1  0
 17 43  1  0
 18 44  1  0
 20 45  1  0
 21 46  1  0
 25 47  1  0
 26 48  1  0
 27 49  1  0
M  END
>  <smiles>  (6) 
O=C(NCC(=O)N1C[C@H](O)C[C@H]1c1ccccc1)c1ccc2c(Cl)cccc2n1

>  <score_type>  (6) 
oracle

>  <origin>  (6) 
autodockgpu

>  <m_score__min__energy>  (6) 
-8.8900000000000006

>  <m_primary>  (6) 
energy

>  <rmsd>  (6) 
2.756335036734167

>  <m_score__min__rmsd>  (6) 
2.756335036734167

>  <meeko>  (6) 
{"free_energy": -7.87, "intermolecular_energy": -9.66, "internal_energy": -1.91, "cluster_size": 13, "cluster_id": 2, "rank_in_cluster": 7}

>  <energy>  (6) 
-7.44

>  <cluster_rmsd>  (6) 
1.85

>  <cluster>  (6) 
1

$$$$

     RDKit          3D

 49 52  0  0  0  0  0  0  0  0999 V2000
  139.7760   71.3030  221.0210 O   0  0  0  0  0  0  0  0  0  0  0  0
  139.5920   71.9150  222.1050 C   0  0  0  0  0  0  0  0  0  0  0  0
  139.0740   73.2760  222.0200 N   0  0  0  0  0  0  0  0  0  0  0  0
  138.8320   73.7620  220.7100 C   0  0  0  0  0  0  0  0  0  0  0  0
  139.0580   75.1640  220.3910 C   0  0  0  0  0  0  0  0  0  0  0  0
  138.8610   75.4470  219.1320 O   0  0  0  0  0  0  0  0  0  0  0  0
  139.4520   76.2330  221.2450 N   0  0  0  0  0  0  0  0  0  0  0  0
  138.7140   76.9020  222.2980 C   0  0  0  0  0  0  0  0  0  0  0  0
  139.6870   78.0260  222.7270 C   0  0  2  0  0  0  0  0  0  0  0  0
  139.5260   79.1680  221.9850 O   0  0  0  0  0  0  0  0  0  0  0  0
  141.0540   77.3810  222.4560 C   0  0  0  0  0  0  0  0  0  0  0  0
  140.8010   76.8180  221.1040 C   0  0  1  0  0  0  0  0  0  0  0  0
  141.8130   75.8150  220.6930 C   0  0  0  0  0  0  0  0  0  0  0  0
  141.8790   74.5660  221.2730 C   0  0  0  0  0  0  0  0  0  0  0  0
  142.8760   73.7050  220.8040 C   0  0  0  0  0  0  0  0  0  0  0  0
  143.7470   74.0890  219.8090 C   0  0  0  0  0  0  0  0  0  0  0  0
  143.6720   75.3400  219.2360 C   0  0  0  0  0  0  0  0  0  0  0  0
  142.6980   76.1960  219.6870 C   0  0  0  0  0  0  0  0  0  0  0  0
  139.8700   71.3360  223.4120 C   0  0  0  0  0  0  0  0  0  0  0  0
  139.5990   69.9930  223.5700 C   0  0  0  0  0  0  0  0  0  0  0  0
  139.8400   69.3800  224.7830 C   0  0  0  0  0  0  0  0  0  0  0  0
  140.3550   70.1560  225.8190 C   0  0  0  0  0  0  0  0  0  0  0  0
  140.6000   69.5640  227.0330 C   0  0  0  0  0  0  0  0  0  0  0  0
  140.2680   67.8740  227.2600 Cl  0  0  0  0  0  0  0  0  0  0  0  0
  141.1140   70.3150  228.0860 C   0  0  0  0  0  0  0  0  0  0  0  0
  141.3650   71.6520  227.8700 C   0  0  0  0  0  0  0  0  0  0  0  0
  141.1190   72.2460  226.6540 C   0  0  0  0  0  0  0  0  0  0  0  0
  140.6050   71.4910  225.6020 C   0  0  0  0  0  0  0  0  0  0  0  0
  140.3720   72.0930  224.4220 N   0  0  0  0  0  0  0  0  0  0  0  0
  138.9450   73.7280  222.9310 H   0  0  0  0  0  0  0  0  0  0  0  0
  139.4722   73.1772  220.0331 H   0  0  0  0  0  0  0  0  0  0  0  0
  137.7424   73.6554  220.6028 H   0  0  0  0  0  0  0  0  0  0  0  0
  137.7689   77.3177  221.9187 H   0  0  0  0  0  0  0  0  0  0  0  0
  138.4244   76.2343  223.1228 H   0  0  0  0  0  0  0  0  0  0  0  0
  139.5366   78.3537  223.7662 H   0  0  0  0  0  0  0  0  0  0  0  0
  139.1390   78.9740  221.0930 H   0  0  0  0  0  0  0  0  0  0  0  0
  141.8633   78.1259  222.4446 H   0  0  0  0  0  0  0  0  0  0  0  0
  141.3836   76.6518  223.2107 H   0  0  0  0  0  0  0  0  0  0  0  0
  140.8672   77.5754  220.3090 H   0  0  0  0  0  0  0  0  0  0  0  0
  141.1809   74.2614  222.0666 H   0  0  0  0  0  0  0  0  0  0  0  0
  142.9665   72.6989  221.2394 H   0  0  0  0  0  0  0  0  0  0  0  0
  144.5176   73.3835  219.4649 H   0  0  0  0  0  0  0  0  0  0  0  0
  144.3705   75.6432  218.4422 H   0  0  0  0  0  0  0  0  0  0  0  0
  142.6150   77.2004  219.2462 H   0  0  0  0  0  0  0  0  0  0  0  0
  139.1913   69.4110  222.7303 H   0  0  0  0  0  0  0  0  0  0  0  0
  139.6314   68.3097  224.9275 H   0  0  0  0  0  0  0  0  0  0  0  0
  141.3143   69.8534  229.0641 H   0  0  0  0  0  0  0  0  0  0  0  0
  141.7726   72.2602  228.6909 H   0  0  0  0  0  0  0  0  0  0  0  0
  141.3280   73.3166  226.5123 H   0  0  0  0  0  0  0  0  0  0  0  0
  1  2  2  0
  2  3  1  0
  3  4  1  0
  4  5  1  0
  5  6  2  0
  5  7  1  0
  7  8  1  0
  8  9  1  0
  9 10  1  0
  9 11  1  0
 11 12  1  0
 12 13  1  0
 13 14  2  0
 14 15  1  0
 15 16  2  0
 16 17  1  0
 17 18  2  0
  2 19  1  0
 19 20  2  0
 20 21  1  0
 21 22  2  0
 22 23  1  0
 23 24  1  0
 23 25  2  0
 25 26  1  0
 26 27  2  0
 27 28  1  0
 28 29  2  0
 12  7  1  0
 18 13  1  0
 29 19  1  0
 28 22  1  0
  3 30  1  0
  4 31  1  0
  4 32  1  0
  8 33  1  0
  8 34  1  0
  9 35  1  1
 10 36  1  0
 11 37  1  0
 11 38  1  0
 12 39  1  6
 14 40  1  0
 15 41  1  0
 16 42  1  0
 17 43  1  0
 18 44  1  0
 20 45  1  0
 21 46  1  0
 25 47  1  0
 26 48  1  0
 27 49  1  0
M  END
>  <smiles>  (7) 
O=C(NCC(=O)N1C[C@H](O)C[C@H]1c1ccccc1)c1ccc2c(Cl)cccc2n1

>  <score_type>  (7) 
oracle

>  <origin>  (7) 
autodockgpu

>  <m_score__min__energy>  (7) 
-8.8900000000000006

>  <m_primary>  (7) 
energy

>  <rmsd>  (7) 
2.7604436372086467

>  <m_score__min__rmsd>  (7) 
2.7604436372086467

>  <meeko>  (7) 
{"free_energy": -7.58, "intermolecular_energy": -9.37, "internal_energy": -1.72, "cluster_size": 2, "cluster_id": 5, "rank_in_cluster": 2}

>  <energy>  (7) 
-7.24

>  <cluster_rmsd>  (7) 
1.95

>  <cluster>  (7) 
1

$$$$

     RDKit          3D

 49 52  0  0  0  0  0  0  0  0999 V2000
  139.7740   73.4190  222.1930 O   0  0  0  0  0  0  0  0  0  0  0  0
  140.3200   72.2970  222.3590 C   0  0  0  0  0  0  0  0  0  0  0  0
  140.9760   71.7010  221.2000 N   0  0  0  0  0  0  0  0  0  0  0  0
  140.9250   72.4600  220.0040 C   0  0  0  0  0  0  0  0  0  0  0  0
  142.1520   72.8310  219.3150 C   0  0  0  0  0  0  0  0  0  0  0  0
  142.0030   72.9610  218.0240 O   0  0  0  0  0  0  0  0  0  0  0  0
  143.4530   73.0640  219.8460 N   0  0  0  0  0  0  0  0  0  0  0  0
  144.6550   72.2620  219.7450 C   0  0  0  0  0  0  0  0  0  0  0  0
  145.6530   73.0390  220.6370 C   0  0  2  0  0  0  0  0  0  0  0  0
  145.5890   72.6520  221.9510 O   0  0  0  0  0  0  0  0  0  0  0  0
  145.1700   74.4860  220.4640 C   0  0  0  0  0  0  0  0  0  0  0  0
  143.7070   74.2840  220.6390 C   0  0  1  0  0  0  0  0  0  0  0  0
  142.9010   75.4390  220.1760 C   0  0  0  0  0  0  0  0  0  0  0  0
  141.7070   75.7820  220.7750 C   0  0  0  0  0  0  0  0  0  0  0  0
  141.0350   76.8900  220.2520 C   0  0  0  0  0  0  0  0  0  0  0  0
  141.5440   77.6040  219.1910 C   0  0  0  0  0  0  0  0  0  0  0  0
  142.7390   77.2530  218.6000 C   0  0  0  0  0  0  0  0  0  0  0  0
  143.4100   76.1670  219.1030 C   0  0  0  0  0  0  0  0  0  0  0  0
  140.3240   71.5840  223.6290 C   0  0  0  0  0  0  0  0  0  0  0  0
  139.9070   70.2700  223.6090 C   0  0  0  0  0  0  0  0  0  0  0  0
  139.8870   69.5360  224.7780 C   0  0  0  0  0  0  0  0  0  0  0  0
  140.2940   70.1630  225.9520 C   0  0  0  0  0  0  0  0  0  0  0  0
  140.2800   69.4500  227.1250 C   0  0  0  0  0  0  0  0  0  0  0  0
  139.7590   67.7920  227.1290 Cl  0  0  0  0  0  0  0  0  0  0  0  0
  140.6810   70.0500  228.3140 C   0  0  0  0  0  0  0  0  0  0  0  0
  141.0870   71.3660  228.2740 C   0  0  0  0  0  0  0  0  0  0  0  0
  141.1020   72.0820  227.0990 C   0  0  0  0  0  0  0  0  0  0  0  0
  140.7000   71.4770  225.9110 C   0  0  0  0  0  0  0  0  0  0  0  0
  140.7220   72.1960  224.7750 N   0  0  0  0  0  0  0  0  0  0  0  0
  141.4030   70.7880  221.3900 H   0  0  0  0  0  0  0  0  0  0  0  0
  140.3235   71.8808  219.2879 H   0  0  0  0  0  0  0  0  0  0  0  0
  140.5263   73.4283  220.3407 H   0  0  0  0  0  0  0  0  0  0  0  0
  144.4875   71.2449  220.1289 H   0  0  0  0  0  0  0  0  0  0  0  0
  145.0054   72.1259  218.7112 H   0  0  0  0  0  0  0  0  0  0  0  0
  146.7036   72.8737  220.3559 H   0  0  0  0  0  0  0  0  0  0  0  0
  145.0270   71.8440  222.0680 H   0  0  0  0  0  0  0  0  0  0  0  0
  145.5866   75.1517  221.2343 H   0  0  0  0  0  0  0  0  0  0  0  0
  145.4648   74.9663  219.5193 H   0  0  0  0  0  0  0  0  0  0  0  0
  143.4142   74.1869  221.6949 H   0  0  0  0  0  0  0  0  0  0  0  0
  141.3030   75.2107  221.6238 H   0  0  0  0  0  0  0  0  0  0  0  0
  140.0780   77.1984  220.6981 H   0  0  0  0  0  0  0  0  0  0  0  0
  140.9866   78.4712  218.8073 H   0  0  0  0  0  0  0  0  0  0  0  0
  143.1420   77.8257  217.7517 H   0  0  0  0  0  0  0  0  0  0  0  0
  144.3666   75.8660  218.6510 H   0  0  0  0  0  0  0  0  0  0  0  0
  139.5906   69.8070  222.6626 H   0  0  0  0  0  0  0  0  0  0  0  0
  139.5589   68.4861  224.7815 H   0  0  0  0  0  0  0  0  0  0  0  0
  140.6742   69.4892  229.2603 H   0  0  0  0  0  0  0  0  0  0  0  0
  141.4073   71.8567  229.2049 H   0  0  0  0  0  0  0  0  0  0  0  0
  141.4313   73.1315  227.0982 H   0  0  0  0  0  0  0  0  0  0  0  0
  1  2  2  0
  2  3  1  0
  3  4  1  0
  4  5  1  0
  5  6  2  0
  5  7  1  0
  7  8  1  0
  8  9  1  0
  9 10  1  0
  9 11  1  0
 11 12  1  0
 12 13  1  0
 13 14  2  0
 14 15  1  0
 15 16  2  0
 16 17  1  0
 17 18  2  0
  2 19  1  0
 19 20  2  0
 20 21  1  0
 21 22  2  0
 22 23  1  0
 23 24  1  0
 23 25  2  0
 25 26  1  0
 26 27  2  0
 27 28  1  0
 28 29  2  0
 12  7  1  0
 18 13  1  0
 29 19  1  0
 28 22  1  0
  3 30  1  0
  4 31  1  0
  4 32  1  0
  8 33  1  0
  8 34  1  0
  9 35  1  6
 10 36  1  0
 11 37  1  0
 11 38  1  0
 12 39  1  1
 14 40  1  0
 15 41  1  0
 16 42  1  0
 17 43  1  0
 18 44  1  0
 20 45  1  0
 21 46  1  0
 25 47  1  0
 26 48  1  0
 27 49  1  0
M  END
>  <smiles>  (8) 
O=C(NCC(=O)N1C[C@H](O)C[C@H]1c1ccccc1)c1ccc2c(Cl)cccc2n1

>  <score_type>  (8) 
oracle

>  <origin>  (8) 
autodockgpu

>  <m_score__min__energy>  (8) 
-8.8900000000000006

>  <m_primary>  (8) 
energy

>  <rmsd>  (8) 
3.825808883767305

>  <m_score__min__rmsd>  (8) 
3.825808883767305

>  <meeko>  (8) 
{"free_energy": -8.29, "intermolecular_energy": -10.08, "internal_energy": -1.53, "cluster_size": 13, "cluster_id": 2, "rank_in_cluster": 1}

>  <energy>  (8) 
-8.29

>  <cluster_rmsd>  (8) 
0.0

>  <cluster>  (8) 
2

$$$$

     RDKit          3D

 49 52  0  0  0  0  0  0  0  0999 V2000
  139.4170   74.4210  221.9390 O   0  0  0  0  0  0  0  0  0  0  0  0
  140.4100   75.1950  221.9610 C   0  0  0  0  0  0  0  0  0  0  0  0
  141.7000   74.6310  221.5790 N   0  0  0  0  0  0  0  0  0  0  0  0
  141.6910   73.2590  221.2200 C   0  0  0  0  0  0  0  0  0  0  0  0
  142.1080   72.8440  219.8890 C   0  0  0  0  0  0  0  0  0  0  0  0
  141.1110   72.6600  219.0670 O   0  0  0  0  0  0  0  0  0  0  0  0
  143.4190   72.6200  219.3810 N   0  0  0  0  0  0  0  0  0  0  0  0
  144.0550   71.3880  218.9590 C   0  0  0  0  0  0  0  0  0  0  0  0
  145.4960   71.8470  218.6350 C   0  0  2  0  0  0  0  0  0  0  0  0
  146.3160   71.8120  219.7340 O   0  0  0  0  0  0  0  0  0  0  0  0
  145.2680   73.2910  218.1630 C   0  0  0  0  0  0  0  0  0  0  0  0
  144.3460   73.7600  219.2310 C   0  0  1  0  0  0  0  0  0  0  0  0
  143.6450   75.0190  218.8820 C   0  0  0  0  0  0  0  0  0  0  0  0
  143.6330   76.1070  219.7300 C   0  0  0  0  0  0  0  0  0  0  0  0
  142.9390   77.2380  219.2930 C   0  0  0  0  0  0  0  0  0  0  0  0
  142.2990   77.2630  218.0750 C   0  0  0  0  0  0  0  0  0  0  0  0
  142.3170   76.1710  217.2350 C   0  0  0  0  0  0  0  0  0  0  0  0
  142.9960   75.0520  217.6500 C   0  0  0  0  0  0  0  0  0  0  0  0
  140.3270   76.5970  222.3450 C   0  0  0  0  0  0  0  0  0  0  0  0
  139.0640   77.1240  222.5180 C   0  0  0  0  0  0  0  0  0  0  0  0
  138.9140   78.4460  222.8820 C   0  0  0  0  0  0  0  0  0  0  0  0
  140.0630   79.2110  223.0640 C   0  0  0  0  0  0  0  0  0  0  0  0
  139.9340   80.5290  223.4260 C   0  0  0  0  0  0  0  0  0  0  0  0
  138.3550   81.2180  223.6500 Cl  0  0  0  0  0  0  0  0  0  0  0  0
  141.0650   81.3170  223.6150 C   0  0  0  0  0  0  0  0  0  0  0  0
  142.3010   80.7370  223.4280 C   0  0  0  0  0  0  0  0  0  0  0  0
  142.4310   79.4160  223.0650 C   0  0  0  0  0  0  0  0  0  0  0  0
  141.2960   78.6310  222.8780 C   0  0  0  0  0  0  0  0  0  0  0  0
  141.4490   77.3430  222.5230 N   0  0  0  0  0  0  0  0  0  0  0  0
  142.4730   75.3030  221.6160 H   0  0  0  0  0  0  0  0  0  0  0  0
  142.3499   72.7417  221.9330 H   0  0  0  0  0  0  0  0  0  0  0  0
  140.6209   73.0047  221.2360 H   0  0  0  0  0  0  0  0  0  0  0  0
  144.0482   70.6407  219.7662 H   0  0  0  0  0  0  0  0  0  0  0  0
  143.5493   70.9022  218.1115 H   0  0  0  0  0  0  0  0  0  0  0  0
  145.9998   71.2018  217.9002 H   0  0  0  0  0  0  0  0  0  0  0  0
  145.8220   71.5410  220.5500 H   0  0  0  0  0  0  0  0  0  0  0  0
  146.2037   73.8692  218.1465 H   0  0  0  0  0  0  0  0  0  0  0  0
  144.8834   73.3914  217.1373 H   0  0  0  0  0  0  0  0  0  0  0  0
  144.8708   74.0202  220.1621 H   0  0  0  0  0  0  0  0  0  0  0  0
  144.1451   76.0851  220.7033 H   0  0  0  0  0  0  0  0  0  0  0  0
  142.9033   78.1289  219.9372 H   0  0  0  0  0  0  0  0  0  0  0  0
  141.7627   78.1724  217.7661 H   0  0  0  0  0  0  0  0  0  0  0  0
  141.8036   76.1949  216.2625 H   0  0  0  0  0  0  0  0  0  0  0  0
  143.0280   74.1664  216.9983 H   0  0  0  0  0  0  0  0  0  0  0  0
  138.1775   76.4908  222.3659 H   0  0  0  0  0  0  0  0  0  0  0  0
  137.9149   78.8835  223.0245 H   0  0  0  0  0  0  0  0  0  0  0  0
  140.9750   82.3741  223.9058 H   0  0  0  0  0  0  0  0  0  0  0  0
  143.2062   81.3451  223.5725 H   0  0  0  0  0  0  0  0  0  0  0  0
  143.4310   78.9803  222.9226 H   0  0  0  0  0  0  0  0  0  0  0  0
  1  2  2  0
  2  3  1  0
  3  4  1  0
  4  5  1  0
  5  6  2  0
  5  7  1  0
  7  8  1  0
  8  9  1  0
  9 10  1  0
  9 11  1  0
 11 12  1  0
 12 13  1  0
 13 14  2  0
 14 15  1  0
 15 16  2  0
 16 17  1  0
 17 18  2  0
  2 19  1  0
 19 20  2  0
 20 21  1  0
 21 22  2  0
 22 23  1  0
 23 24  1  0
 23 25  2  0
 25 26  1  0
 26 27  2  0
 27 28  1  0
 28 29  2  0
 12  7  1  0
 18 13  1  0
 29 19  1  0
 28 22  1  0
  3 30  1  0
  4 31  1  0
  4 32  1  0
  8 33  1  0
  8 34  1  0
  9 35  1  6
 10 36  1  0
 11 37  1  0
 11 38  1  0
 12 39  1  1
 14 40  1  0
 15 41  1  0
 16 42  1  0
 17 43  1  0
 18 44  1  0
 20 45  1  0
 21 46  1  0
 25 47  1  0
 26 48  1  0
 27 49  1  0
M  END
>  <smiles>  (9) 
O=C(NCC(=O)N1C[C@H](O)C[C@H]1c1ccccc1)c1ccc2c(Cl)cccc2n1

>  <score_type>  (9) 
oracle

>  <origin>  (9) 
autodockgpu

>  <m_score__min__energy>  (9) 
-8.8900000000000006

>  <m_primary>  (9) 
energy

>  <rmsd>  (9) 
7.35195815220498

>  <m_score__min__rmsd>  (9) 
7.35195815220498

>  <meeko>  (9) 
{"free_energy": -7.29, "intermolecular_energy": -9.08, "internal_energy": -2.23, "cluster_size": 7, "cluster_id": 7, "rank_in_cluster": 3}

>  <energy>  (9) 
-8.23

>  <cluster_rmsd>  (9) 
0.45

>  <cluster>  (9) 
2

$$$$

     RDKit          3D

 49 52  0  0  0  0  0  0  0  0999 V2000
  140.5140   76.6320  218.5950 O   0  0  0  0  0  0  0  0  0  0  0  0
  141.7060   76.7130  218.9920 C   0  0  0  0  0  0  0  0  0  0  0  0
  142.2020   78.0410  219.3340 N   0  0  0  0  0  0  0  0  0  0  0  0
  141.2770   79.1040  219.1810 C   0  0  0  0  0  0  0  0  0  0  0  0
  140.8200   79.8540  220.3410 C   0  0  0  0  0  0  0  0  0  0  0  0
  139.6390   80.3890  220.1810 O   0  0  0  0  0  0  0  0  0  0  0  0
  141.4690   80.0750  221.5890 N   0  0  0  0  0  0  0  0  0  0  0  0
  141.9670   81.3040  222.1730 C   0  0  0  0  0  0  0  0  0  0  0  0
  142.6480   80.8090  223.4710 C   0  0  2  0  0  0  0  0  0  0  0  0
  143.9570   80.4550  223.2710 O   0  0  0  0  0  0  0  0  0  0  0  0
  141.7940   79.5820  223.8260 C   0  0  0  0  0  0  0  0  0  0  0  0
  141.7220   78.9330  222.4900 C   0  0  1  0  0  0  0  0  0  0  0  0
  140.6640   77.8980  222.4030 C   0  0  0  0  0  0  0  0  0  0  0  0
  139.3360   78.1910  222.6360 C   0  0  0  0  0  0  0  0  0  0  0  0
  138.4290   77.1330  222.5250 C   0  0  0  0  0  0  0  0  0  0  0  0
  138.8440   75.8620  222.1990 C   0  0  0  0  0  0  0  0  0  0  0  0
  140.1730   75.5800  221.9690 C   0  0  0  0  0  0  0  0  0  0  0  0
  141.0760   76.6090  222.0740 C   0  0  0  0  0  0  0  0  0  0  0  0
  142.5900   75.5630  219.1190 C   0  0  0  0  0  0  0  0  0  0  0  0
  142.2810   74.4510  218.3640 C   0  0  0  0  0  0  0  0  0  0  0  0
  143.0780   73.3260  218.4370 C   0  0  0  0  0  0  0  0  0  0  0  0
  144.1820   73.3590  219.2850 C   0  0  0  0  0  0  0  0  0  0  0  0
  144.9860   72.2490  219.3720 C   0  0  0  0  0  0  0  0  0  0  0  0
  144.6190   70.8340  218.4320 Cl  0  0  0  0  0  0  0  0  0  0  0  0
  146.0960   72.2530  220.2110 C   0  0  0  0  0  0  0  0  0  0  0  0
  146.3550   73.3920  220.9410 C   0  0  0  0  0  0  0  0  0  0  0  0
  145.5500   74.5050  220.8550 C   0  0  0  0  0  0  0  0  0  0  0  0
  144.4400   74.4970  220.0140 C   0  0  0  0  0  0  0  0  0  0  0  0
  143.6670   75.5950  219.9470 N   0  0  0  0  0  0  0  0  0  0  0  0
  143.1780   78.0500  219.6500 H   0  0  0  0  0  0  0  0  0  0  0  0
  141.7411   79.8306  218.4979 H   0  0  0  0  0  0  0  0  0  0  0  0
  140.3646   78.5928  218.8400 H   0  0  0  0  0  0  0  0  0  0  0  0
  142.6916   81.7951  221.5068 H   0  0  0  0  0  0  0  0  0  0  0  0
  141.1820   82.0541  222.3494 H   0  0  0  0  0  0  0  0  0  0  0  0
  142.6907   81.5773  224.2570 H   0  0  0  0  0  0  0  0  0  0  0  0
  144.0870   80.0060  222.3980 H   0  0  0  0  0  0  0  0  0  0  0  0
  142.2898   78.9386  224.5678 H   0  0  0  0  0  0  0  0  0  0  0  0
  140.8216   79.8081  224.2879 H   0  0  0  0  0  0  0  0  0  0  0  0
  142.6356   78.3740  222.2393 H   0  0  0  0  0  0  0  0  0  0  0  0
  139.0069   79.2078  222.8965 H   0  0  0  0  0  0  0  0  0  0  0  0
  137.3597   77.3206  222.7022 H   0  0  0  0  0  0  0  0  0  0  0  0
  138.1002   75.0554  222.1205 H   0  0  0  0  0  0  0  0  0  0  0  0
  140.5003   74.5624  221.7094 H   0  0  0  0  0  0  0  0  0  0  0  0
  142.1433   76.4118  221.8952 H   0  0  0  0  0  0  0  0  0  0  0  0
  141.4007   74.4604  217.7045 H   0  0  0  0  0  0  0  0  0  0  0  0
  142.8476   72.4296  217.8425 H   0  0  0  0  0  0  0  0  0  0  0  0
  146.7486   71.3710  220.2892 H   0  0  0  0  0  0  0  0  0  0  0  0
  147.2279   73.4126  221.6101 H   0  0  0  0  0  0  0  0  0  0  0  0
  145.7832   75.4002  221.4501 H   0  0  0  0  0  0  0  0  0  0  0  0
  1  2  2  0
  2  3  1  0
  3  4  1  0
  4  5  1  0
  5  6  2  0
  5  7  1  0
  7  8  1  0
  8  9  1  0
  9 10  1  0
  9 11  1  0
 11 12  1  0
 12 13  1  0
 13 14  2  0
 14 15  1  0
 15 16  2  0
 16 17  1  0
 17 18  2  0
  2 19  1  0
 19 20  2  0
 20 21  1  0
 21 22  2  0
 22 23  1  0
 23 24  1  0
 23 25  2  0
 25 26  1  0
 26 27  2  0
 27 28  1  0
 28 29  2  0
 12  7  1  0
 18 13  1  0
 29 19  1  0
 28 22  1  0
  3 30  1  0
  4 31  1  0
  4 32  1  0
  8 33  1  0
  8 34  1  0
  9 35  1  1
 10 36  1  0
 11 37  1  0
 11 38  1  0
 12 39  1  6
 14 40  1  0
 15 41  1  0
 16 42  1  0
 17 43  1  0
 18 44  1  0
 20 45  1  0
 21 46  1  0
 25 47  1  0
 26 48  1  0
 27 49  1  0
M  END
>  <smiles>  (10) 
O=C(NCC(=O)N1C[C@H](O)C[C@H]1c1ccccc1)c1ccc2c(Cl)cccc2n1

>  <score_type>  (10) 
oracle

>  <origin>  (10) 
autodockgpu

>  <m_score__min__energy>  (10) 
-8.8900000000000006

>  <m_primary>  (10) 
energy

>  <rmsd>  (10) 
7.479926351362972

>  <m_score__min__rmsd>  (10) 
7.479926351362972

>  <meeko>  (10) 
{"free_energy": -7.47, "intermolecular_energy": -9.26, "internal_energy": -2.28, "cluster_size": 9, "cluster_id": 6, "rank_in_cluster": 2}

>  <energy>  (10) 
-8.16

>  <cluster_rmsd>  (10) 
0.39

>  <cluster>  (10) 
2

$$$$

     RDKit          3D

 49 52  0  0  0  0  0  0  0  0999 V2000
  139.7920   73.7260  222.3390 O   0  0  0  0  0  0  0  0  0  0  0  0
  140.1820   72.5290  222.3650 C   0  0  0  0  0  0  0  0  0  0  0  0
  140.6180   71.9460  221.1010 N   0  0  0  0  0  0  0  0  0  0  0  0
  140.5560   72.8020  219.9730 C   0  0  0  0  0  0  0  0  0  0  0  0
  141.7670   73.1490  219.2450 C   0  0  0  0  0  0  0  0  0  0  0  0
  141.5730   73.3200  217.9650 O   0  0  0  0  0  0  0  0  0  0  0  0
  143.0950   73.3230  219.7290 N   0  0  0  0  0  0  0  0  0  0  0  0
  144.2900   72.5470  219.4640 C   0  0  0  0  0  0  0  0  0  0  0  0
  145.3360   73.2130  220.3900 C   0  0  2  0  0  0  0  0  0  0  0  0
  145.3440   72.6660  221.6470 O   0  0  0  0  0  0  0  0  0  0  0  0
  144.8440   74.6680  220.4250 C   0  0  0  0  0  0  0  0  0  0  0  0
  143.3930   74.4360  220.6530 C   0  0  1  0  0  0  0  0  0  0  0  0
  142.5640   75.6350  220.3830 C   0  0  0  0  0  0  0  0  0  0  0  0
  142.8580   76.5090  219.3570 C   0  0  0  0  0  0  0  0  0  0  0  0
  142.0040   77.6040  219.1990 C   0  0  0  0  0  0  0  0  0  0  0  0
  140.9220   77.7970  220.0280 C   0  0  0  0  0  0  0  0  0  0  0  0
  140.6370   76.9180  221.0500 C   0  0  0  0  0  0  0  0  0  0  0  0
  141.4670   75.8370  221.2170 C   0  0  0  0  0  0  0  0  0  0  0  0
  140.2120   71.7190  223.5750 C   0  0  0  0  0  0  0  0  0  0  0  0
  139.7620   70.4200  223.4690 C   0  0  0  0  0  0  0  0  0  0  0  0
  139.7640   69.5970  224.5770 C   0  0  0  0  0  0  0  0  0  0  0  0
  140.2270   70.1220  225.7810 C   0  0  0  0  0  0  0  0  0  0  0  0
  140.2360   69.3190  226.8950 C   0  0  0  0  0  0  0  0  0  0  0  0
  139.6750   67.6780  226.7900 Cl  0  0  0  0  0  0  0  0  0  0  0  0
  140.6940   69.8160  228.1120 C   0  0  0  0  0  0  0  0  0  0  0  0
  141.1300   71.1220  228.1590 C   0  0  0  0  0  0  0  0  0  0  0  0
  141.1220   71.9270  227.0430 C   0  0  0  0  0  0  0  0  0  0  0  0
  140.6640   71.4250  225.8270 C   0  0  0  0  0  0  0  0  0  0  0  0
  140.6640   72.2310  224.7500 N   0  0  0  0  0  0  0  0  0  0  0  0
  140.9230   70.9700  221.1790 H   0  0  0  0  0  0  0  0  0  0  0  0
  139.8793   72.3230  219.2500 H   0  0  0  0  0  0  0  0  0  0  0  0
  140.2429   73.7630  220.4071 H   0  0  0  0  0  0  0  0  0  0  0  0
  144.1431   71.4890  219.7269 H   0  0  0  0  0  0  0  0  0  0  0  0
  144.5833   72.5428  218.4038 H   0  0  0  0  0  0  0  0  0  0  0  0
  146.3694   73.0902  220.0337 H   0  0  0  0  0  0  0  0  0  0  0  0
  145.1990   71.6850  221.6200 H   0  0  0  0  0  0  0  0  0  0  0  0
  145.3023   75.2356  221.2482 H   0  0  0  0  0  0  0  0  0  0  0  0
  145.0865   75.2639  219.5328 H   0  0  0  0  0  0  0  0  0  0  0  0
  143.1584   74.2053  221.7026 H   0  0  0  0  0  0  0  0  0  0  0  0
  143.7226   76.3517  218.6954 H   0  0  0  0  0  0  0  0  0  0  0  0
  142.2008   78.3277  218.3943 H   0  0  0  0  0  0  0  0  0  0  0  0
  140.2720   78.6705  219.8713 H   0  0  0  0  0  0  0  0  0  0  0  0
  139.7722   77.0771  221.7110 H   0  0  0  0  0  0  0  0  0  0  0  0
  141.2619   75.1178  222.0237 H   0  0  0  0  0  0  0  0  0  0  0  0
  139.4015   70.0398  222.5018 H   0  0  0  0  0  0  0  0  0  0  0  0
  139.4105   68.5574  224.5111 H   0  0  0  0  0  0  0  0  0  0  0  0
  140.7074   69.1832  229.0116 H   0  0  0  0  0  0  0  0  0  0  0  0
  141.4938   71.5317  229.1128 H   0  0  0  0  0  0  0  0  0  0  0  0
  141.4769   72.9659  227.1111 H   0  0  0  0  0  0  0  0  0  0  0  0
  1  2  2  0
  2  3  1  0
  3  4  1  0
  4  5  1  0
  5  6  2  0
  5  7  1  0
  7  8  1  0
  8  9  1  0
  9 10  1  0
  9 11  1  0
 11 12  1  0
 12 13  1  0
 13 14  2  0
 14 15  1  0
 15 16  2  0
 16 17  1  0
 17 18  2  0
  2 19  1  0
 19 20  2  0
 20 21  1  0
 21 22  2  0
 22 23  1  0
 23 24  1  0
 23 25  2  0
 25 26  1  0
 26 27  2  0
 27 28  1  0
 28 29  2  0
 12  7  1  0
 18 13  1  0
 29 19  1  0
 28 22  1  0
  3 30  1  0
  4 31  1  0
  4 32  1  0
  8 33  1  0
  8 34  1  0
  9 35  1  6
 10 36  1  0
 11 37  1  0
 11 38  1  0
 12 39  1  1
 14 40  1  0
 15 41  1  0
 16 42  1  0
 17 43  1  0
 18 44  1  0
 20 45  1  0
 21 46  1  0
 25 47  1  0
 26 48  1  0
 27 49  1  0
M  END
>  <smiles>  (11) 
O=C(NCC(=O)N1C[C@H](O)C[C@H]1c1ccccc1)c1ccc2c(Cl)cccc2n1

>  <score_type>  (11) 
oracle

>  <origin>  (11) 
autodockgpu

>  <m_score__min__energy>  (11) 
-8.8900000000000006

>  <m_primary>  (11) 
energy

>  <rmsd>  (11) 
3.5522473206445397

>  <m_score__min__rmsd>  (11) 
3.5522473206445397

>  <meeko>  (11) 
{"free_energy": -8.23, "intermolecular_energy": -10.02, "internal_energy": -1.57, "cluster_size": 13, "cluster_id": 2, "rank_in_cluster": 2}

>  <energy>  (11) 
-7.93

>  <cluster_rmsd>  (11) 
1.53

>  <cluster>  (11) 
2

$$$$

     RDKit          3D

 49 52  0  0  0  0  0  0  0  0999 V2000
  140.7360   76.6100  218.8760 O   0  0  0  0  0  0  0  0  0  0  0  0
  141.9880   76.6960  218.9790 C   0  0  0  0  0  0  0  0  0  0  0  0
  142.5570   78.0380  219.0390 N   0  0  0  0  0  0  0  0  0  0  0  0
  141.6270   79.1060  218.9750 C   0  0  0  0  0  0  0  0  0  0  0  0
  140.9780   79.5900  220.1840 C   0  0  0  0  0  0  0  0  0  0  0  0
  139.6870   79.7380  220.0550 O   0  0  0  0  0  0  0  0  0  0  0  0
  141.5460   79.9120  221.4490 N   0  0  0  0  0  0  0  0  0  0  0  0
  141.9800   81.1910  221.9740 C   0  0  0  0  0  0  0  0  0  0  0  0
  142.5930   80.8020  223.3410 C   0  0  2  0  0  0  0  0  0  0  0  0
  143.9200   80.4720  223.2430 O   0  0  0  0  0  0  0  0  0  0  0  0
  141.7470   79.5810  223.7300 C   0  0  0  0  0  0  0  0  0  0  0  0
  141.7700   78.8400  222.4410 C   0  0  1  0  0  0  0  0  0  0  0  0
  140.7430   77.7740  222.3640 C   0  0  0  0  0  0  0  0  0  0  0  0
  141.0570   76.4840  221.9930 C   0  0  0  0  0  0  0  0  0  0  0  0
  140.0040   75.5650  221.9560 C   0  0  0  0  0  0  0  0  0  0  0  0
  138.7170   75.9330  222.2770 C   0  0  0  0  0  0  0  0  0  0  0  0
  138.4140   77.2250  222.6470 C   0  0  0  0  0  0  0  0  0  0  0  0
  139.4370   78.1390  222.6870 C   0  0  0  0  0  0  0  0  0  0  0  0
  142.8710   75.5400  219.0380 C   0  0  0  0  0  0  0  0  0  0  0  0
  142.7360   74.6000  218.0380 C   0  0  0  0  0  0  0  0  0  0  0  0
  143.5430   73.4790  218.0340 C   0  0  0  0  0  0  0  0  0  0  0  0
  144.4750   73.3390  219.0580 C   0  0  0  0  0  0  0  0  0  0  0  0
  145.2860   72.2310  219.0710 C   0  0  0  0  0  0  0  0  0  0  0  0
  145.1380   71.0310  217.8240 Cl  0  0  0  0  0  0  0  0  0  0  0  0
  146.2270   72.0650  220.0820 C   0  0  0  0  0  0  0  0  0  0  0  0
  146.3160   73.0360  221.0550 C   0  0  0  0  0  0  0  0  0  0  0  0
  145.5050   74.1470  221.0430 C   0  0  0  0  0  0  0  0  0  0  0  0
  144.5640   74.3100  220.0290 C   0  0  0  0  0  0  0  0  0  0  0  0
  143.7810   75.4040  220.0380 N   0  0  0  0  0  0  0  0  0  0  0  0
  143.5800   78.0500  219.1220 H   0  0  0  0  0  0  0  0  0  0  0  0
  142.1602   79.9632  218.5381 H   0  0  0  0  0  0  0  0  0  0  0  0
  140.7934   78.6758  218.4005 H   0  0  0  0  0  0  0  0  0  0  0  0
  142.7319   81.6551  221.3188 H   0  0  0  0  0  0  0  0  0  0  0  0
  141.1696   81.9307  222.0516 H   0  0  0  0  0  0  0  0  0  0  0  0
  142.5711   81.6219  224.0740 H   0  0  0  0  0  0  0  0  0  0  0  0
  144.1270   80.0390  222.3760 H   0  0  0  0  0  0  0  0  0  0  0  0
  142.2111   79.0033  224.5429 H   0  0  0  0  0  0  0  0  0  0  0  0
  140.7437   79.8128  224.1169 H   0  0  0  0  0  0  0  0  0  0  0  0
  142.7090   78.2890  222.2842 H   0  0  0  0  0  0  0  0  0  0  0  0
  142.0864   76.1918  221.7383 H   0  0  0  0  0  0  0  0  0  0  0  0
  140.2086   74.5244  221.6638 H   0  0  0  0  0  0  0  0  0  0  0  0
  137.9151   75.1811  222.2373 H   0  0  0  0  0  0  0  0  0  0  0  0
  137.3841   77.5150  222.9024 H   0  0  0  0  0  0  0  0  0  0  0  0
  139.2226   79.1776  222.9790 H   0  0  0  0  0  0  0  0  0  0  0  0
  141.9871   74.7427  217.2451 H   0  0  0  0  0  0  0  0  0  0  0  0
  143.4516   72.7188  217.2442 H   0  0  0  0  0  0  0  0  0  0  0  0
  146.8825   71.1819  220.1039 H   0  0  0  0  0  0  0  0  0  0  0  0
  147.0543   72.9200  221.8621 H   0  0  0  0  0  0  0  0  0  0  0  0
  145.5995   74.9061  221.8335 H   0  0  0  0  0  0  0  0  0  0  0  0
  1  2  2  0
  2  3  1  0
  3  4  1  0
  4  5  1  0
  5  6  2  0
  5  7  1  0
  7  8  1  0
  8  9  1  0
  9 10  1  0
  9 11  1  0
 11 12  1  0
 12 13  1  0
 13 14  2  0
 14 15  1  0
 15 16  2  0
 16 17  1  0
 17 18  2  0
  2 19  1  0
 19 20  2  0
 20 21  1  0
 21 22  2  0
 22 23  1  0
 23 24  1  0
 23 25  2  0
 25 26  1  0
 26 27  2  0
 27 28  1  0
 28 29  2  0
 12  7  1  0
 18 13  1  0
 29 19  1  0
 28 22  1  0
  3 30  1  0
  4 31  1  0
  4 32  1  0
  8 33  1  0
  8 34  1  0
  9 35  1  1
 10 36  1  0
 11 37  1  0
 11 38  1  0
 12 39  1  6
 14 40  1  0
 15 41  1  0
 16 42  1  0
 17 43  1  0
 18 44  1  0
 20 45  1  0
 21 46  1  0
 25 47  1  0
 26 48  1  0
 27 49  1  0
M  END
>  <smiles>  (12) 
O=C(NCC(=O)N1C[C@H](O)C[C@H]1c1ccccc1)c1ccc2c(Cl)cccc2n1

>  <score_type>  (12) 
oracle

>  <origin>  (12) 
autodockgpu

>  <m_score__min__energy>  (12) 
-8.8900000000000006

>  <m_primary>  (12) 
energy

>  <rmsd>  (12) 
7.545885017090322

>  <m_score__min__rmsd>  (12) 
7.545885017090322

>  <meeko>  (12) 
{"free_energy": -7.5, "intermolecular_energy": -9.29, "internal_energy": -2.08, "cluster_size": 9, "cluster_id": 6, "rank_in_cluster": 1}

>  <energy>  (12) 
-7.91

>  <cluster_rmsd>  (12) 
1.47

>  <cluster>  (12) 
2

$$$$

     RDKit          3D

 49 52  0  0  0  0  0  0  0  0999 V2000
  139.8200   71.2380  220.9870 O   0  0  0  0  0  0  0  0  0  0  0  0
  139.6870   71.8740  222.0650 C   0  0  0  0  0  0  0  0  0  0  0  0
  139.2950   73.2760  221.9640 N   0  0  0  0  0  0  0  0  0  0  0  0
  139.1050   73.7690  220.6490 C   0  0  0  0  0  0  0  0  0  0  0  0
  140.1900   73.7220  219.6810 C   0  0  0  0  0  0  0  0  0  0  0  0
  139.8050   73.9700  218.4580 O   0  0  0  0  0  0  0  0  0  0  0  0
  141.5720   73.4490  219.8840 N   0  0  0  0  0  0  0  0  0  0  0  0
  142.4230   72.4500  219.2690 C   0  0  0  0  0  0  0  0  0  0  0  0
  143.7600   72.6360  220.0250 C   0  0  2  0  0  0  0  0  0  0  0  0
  143.8230   71.8840  221.1690 O   0  0  0  0  0  0  0  0  0  0  0  0
  143.7310   74.1370  220.3530 C   0  0  0  0  0  0  0  0  0  0  0  0
  142.3370   74.2550  220.8570 C   0  0  1  0  0  0  0  0  0  0  0  0
  141.8620   75.6580  220.9290 C   0  0  0  0  0  0  0  0  0  0  0  0
  142.1860   76.5880  219.9630 C   0  0  0  0  0  0  0  0  0  0  0  0
  141.6800   77.8790  220.1390 C   0  0  0  0  0  0  0  0  0  0  0  0
  140.8970   78.2040  221.2230 C   0  0  0  0  0  0  0  0  0  0  0  0
  140.5800   77.2670  222.1830 C   0  0  0  0  0  0  0  0  0  0  0  0
  141.0690   75.9940  222.0240 C   0  0  0  0  0  0  0  0  0  0  0  0
  139.9040   71.2840  223.3790 C   0  0  0  0  0  0  0  0  0  0  0  0
  139.5680   69.9550  223.5300 C   0  0  0  0  0  0  0  0  0  0  0  0
  139.7500   69.3330  224.7490 C   0  0  0  0  0  0  0  0  0  0  0  0
  140.2720   70.0860  225.7970 C   0  0  0  0  0  0  0  0  0  0  0  0
  140.4590   69.4850  227.0170 C   0  0  0  0  0  0  0  0  0  0  0  0
  140.0440   67.8120  227.2360 Cl  0  0  0  0  0  0  0  0  0  0  0  0
  140.9800   70.2130  228.0830 C   0  0  0  0  0  0  0  0  0  0  0  0
  141.2960   71.5370  227.8740 C   0  0  0  0  0  0  0  0  0  0  0  0
  141.1100   72.1400  226.6510 C   0  0  0  0  0  0  0  0  0  0  0  0
  140.5890   71.4080  225.5870 C   0  0  0  0  0  0  0  0  0  0  0  0
  140.4140   72.0190  224.4010 N   0  0  0  0  0  0  0  0  0  0  0  0
  139.2030   73.7460  222.8710 H   0  0  0  0  0  0  0  0  0  0  0  0
  138.2704   73.1983  220.2156 H   0  0  0  0  0  0  0  0  0  0  0  0
  138.9596   74.8479  220.8068 H   0  0  0  0  0  0  0  0  0  0  0  0
  142.0194   71.4377  219.4186 H   0  0  0  0  0  0  0  0  0  0  0  0
  142.5164   72.5651  218.1790 H   0  0  0  0  0  0  0  0  0  0  0  0
  144.6345   72.3144  219.4404 H   0  0  0  0  0  0  0  0  0  0  0  0
  144.7300   71.5120  221.3150 H   0  0  0  0  0  0  0  0  0  0  0  0
  144.4693   74.4022  221.1241 H   0  0  0  0  0  0  0  0  0  0  0  0
  143.9821   74.8030  219.5143 H   0  0  0  0  0  0  0  0  0  0  0  0
  142.2286   73.9043  221.8939 H   0  0  0  0  0  0  0  0  0  0  0  0
  142.8117   76.3265  219.0969 H   0  0  0  0  0  0  0  0  0  0  0  0
  141.9131   78.6535  219.3935 H   0  0  0  0  0  0  0  0  0  0  0  0
  140.5168   79.2311  221.3254 H   0  0  0  0  0  0  0  0  0  0  0  0
  139.9551   77.5308  223.0490 H   0  0  0  0  0  0  0  0  0  0  0  0
  140.8305   75.2259  222.7744 H   0  0  0  0  0  0  0  0  0  0  0  0
  139.1555   69.3913  222.6803 H   0  0  0  0  0  0  0  0  0  0  0  0
  139.4901   68.2732  224.8881 H   0  0  0  0  0  0  0  0  0  0  0  0
  141.1351   69.7435  229.0656 H   0  0  0  0  0  0  0  0  0  0  0  0
  141.7076   72.1276  228.7058 H   0  0  0  0  0  0  0  0  0  0  0  0
  141.3727   73.1994  226.5140 H   0  0  0  0  0  0  0  0  0  0  0  0
  1  2  2  0
  2  3  1  0
  3  4  1  0
  4  5  1  0
  5  6  2  0
  5  7  1  0
  7  8  1  0
  8  9  1  0
  9 10  1  0
  9 11  1  0
 11 12  1  0
 12 13  1  0
 13 14  2  0
 14 15  1  0
 15 16  2  0
 16 17  1  0
 17 18  2  0
  2 19  1  0
 19 20  2  0
 20 21  1  0
 21 22  2  0
 22 23  1  0
 23 24  1  0
 23 25  2  0
 25 26  1  0
 26 27  2  0
 27 28  1  0
 28 29  2  0
 12  7  1  0
 18 13  1  0
 29 19  1  0
 28 22  1  0
  3 30  1  0
  4 31  1  0
  4 32  1  0
  8 33  1  0
  8 34  1  0
  9 35  1  6
 10 36  1  0
 11 37  1  0
 11 38  1  0
 12 39  1  1
 14 40  1  0
 15 41  1  0
 16 42  1  0
 17 43  1  0
 18 44  1  0
 20 45  1  0
 21 46  1  0
 25 47  1  0
 26 48  1  0
 27 49  1  0
M  END
>  <smiles>  (13) 
O=C(NCC(=O)N1C[C@H](O)C[C@H]1c1ccccc1)c1ccc2c(Cl)cccc2n1

>  <score_type>  (13) 
oracle

>  <origin>  (13) 
autodockgpu

>  <m_score__min__energy>  (13) 
-8.8900000000000006

>  <m_primary>  (13) 
energy

>  <rmsd>  (13) 
2.784823774737889

>  <m_score__min__rmsd>  (13) 
2.784823774737889

>  <meeko>  (13) 
{"free_energy": -7.91, "intermolecular_energy": -9.7, "internal_energy": -1.93, "cluster_size": 13, "cluster_id": 2, "rank_in_cluster": 5}

>  <energy>  (13) 
-7.89

>  <cluster_rmsd>  (13) 
1.53

>  <cluster>  (13) 
2

$$$$

     RDKit          3D

 49 52  0  0  0  0  0  0  0  0999 V2000
  140.0680   71.0830  221.0490 O   0  0  0  0  0  0  0  0  0  0  0  0
  139.7080   71.7120  222.0780 C   0  0  0  0  0  0  0  0  0  0  0  0
  139.0440   72.9950  221.8740 N   0  0  0  0  0  0  0  0  0  0  0  0
  138.8760   73.3930  220.5240 C   0  0  0  0  0  0  0  0  0  0  0  0
  140.0330   73.7010  219.6980 C   0  0  0  0  0  0  0  0  0  0  0  0
  139.7400   74.3940  218.6310 O   0  0  0  0  0  0  0  0  0  0  0  0
  141.4010   73.3580  219.8940 N   0  0  0  0  0  0  0  0  0  0  0  0
  142.1920   72.3070  219.2840 C   0  0  0  0  0  0  0  0  0  0  0  0
  143.5440   72.4310  220.0270 C   0  0  2  0  0  0  0  0  0  0  0  0
  143.5760   71.6900  221.1800 O   0  0  0  0  0  0  0  0  0  0  0  0
  143.5980   73.9350  220.3350 C   0  0  0  0  0  0  0  0  0  0  0  0
  142.2170   74.1340  220.8500 C   0  0  1  0  0  0  0  0  0  0  0  0
  141.8180   75.5600  220.9070 C   0  0  0  0  0  0  0  0  0  0  0  0
  142.2330   76.4730  219.9600 C   0  0  0  0  0  0  0  0  0  0  0  0
  141.7930   77.7900  220.1190 C   0  0  0  0  0  0  0  0  0  0  0  0
  140.9840   78.1560  221.1710 C   0  0  0  0  0  0  0  0  0  0  0  0
  140.5760   77.2360  222.1120 C   0  0  0  0  0  0  0  0  0  0  0  0
  141.0000   75.9380  221.9700 C   0  0  0  0  0  0  0  0  0  0  0  0
  139.9220   71.2240  223.4340 C   0  0  0  0  0  0  0  0  0  0  0  0
  139.5170   69.9340  223.7050 C   0  0  0  0  0  0  0  0  0  0  0  0
  139.6910   69.4090  224.9700 C   0  0  0  0  0  0  0  0  0  0  0  0
  140.2790   70.2170  225.9390 C   0  0  0  0  0  0  0  0  0  0  0  0
  140.4600   69.7130  227.2030 C   0  0  0  0  0  0  0  0  0  0  0  0
  139.9580   68.0910  227.5730 Cl  0  0  0  0  0  0  0  0  0  0  0  0
  141.0450   70.4970  228.1920 C   0  0  0  0  0  0  0  0  0  0  0  0
  141.4310   71.7780  227.8640 C   0  0  0  0  0  0  0  0  0  0  0  0
  141.2500   72.2850  226.5970 C   0  0  0  0  0  0  0  0  0  0  0  0
  140.6640   71.4960  225.6100 C   0  0  0  0  0  0  0  0  0  0  0  0
  140.4970   72.0130  224.3790 N   0  0  0  0  0  0  0  0  0  0  0  0
  138.7730   73.4640  222.7450 H   0  0  0  0  0  0  0  0  0  0  0  0
  138.3360   72.5782  220.0196 H   0  0  0  0  0  0  0  0  0  0  0  0
  138.3683   74.3648  220.6128 H   0  0  0  0  0  0  0  0  0  0  0  0
  141.7365   71.3196  219.4497 H   0  0  0  0  0  0  0  0  0  0  0  0
  142.2814   72.4033  218.1919 H   0  0  0  0  0  0  0  0  0  0  0  0
  144.3957   72.0564  219.4403 H   0  0  0  0  0  0  0  0  0  0  0  0
  144.5060   71.5080  221.4730 H   0  0  0  0  0  0  0  0  0  0  0  0
  144.3568   74.1704  221.0958 H   0  0  0  0  0  0  0  0  0  0  0  0
  143.8760   74.5757  219.4851 H   0  0  0  0  0  0  0  0  0  0  0  0
  142.1003   73.8031  221.8925 H   0  0  0  0  0  0  0  0  0  0  0  0
  142.8793   76.1787  219.1199 H   0  0  0  0  0  0  0  0  0  0  0  0
  142.1001   78.5514  219.3869 H   0  0  0  0  0  0  0  0  0  0  0  0
  140.6572   79.2024  221.2620 H   0  0  0  0  0  0  0  0  0  0  0  0
  139.9301   77.5325  222.9516 H   0  0  0  0  0  0  0  0  0  0  0  0
  140.6888   75.1837  222.7077 H   0  0  0  0  0  0  0  0  0  0  0  0
  139.0559   69.3240  222.9143 H   0  0  0  0  0  0  0  0  0  0  0  0
  139.3742   68.3822  225.2053 H   0  0  0  0  0  0  0  0  0  0  0  0
  141.1953   70.1046  229.2086 H   0  0  0  0  0  0  0  0  0  0  0  0
  141.8955   72.4117  228.6338 H   0  0  0  0  0  0  0  0  0  0  0  0
  141.5678   73.3121  226.3643 H   0  0  0  0  0  0  0  0  0  0  0  0
  1  2  2  0
  2  3  1  0
  3  4  1  0
  4  5  1  0
  5  6  2  0
  5  7  1  0
  7  8  1  0
  8  9  1  0
  9 10  1  0
  9 11  1  0
 11 12  1  0
 12 13  1  0
 13 14  2  0
 14 15  1  0
 15 16  2  0
 16 17  1  0
 17 18  2  0
  2 19  1  0
 19 20  2  0
 20 21  1  0
 21 22  2  0
 22 23  1  0
 23 24  1  0
 23 25  2  0
 25 26  1  0
 26 27  2  0
 27 28  1  0
 28 29  2  0
 12  7  1  0
 18 13  1  0
 29 19  1  0
 28 22  1  0
  3 30  1  0
  4 31  1  0
  4 32  1  0
  8 33  1  0
  8 34  1  0
  9 35  1  6
 10 36  1  0
 11 37  1  0
 11 38  1  0
 12 39  1  1
 14 40  1  0
 15 41  1  0
 16 42  1  0
 17 43  1  0
 18 44  1  0
 20 45  1  0
 21 46  1  0
 25 47  1  0
 26 48  1  0
 27 49  1  0
M  END
>  <smiles>  (14) 
O=C(NCC(=O)N1C[C@H](O)C[C@H]1c1ccccc1)c1ccc2c(Cl)cccc2n1

>  <score_type>  (14) 
oracle

>  <origin>  (14) 
autodockgpu

>  <m_score__min__energy>  (14) 
-8.8900000000000006

>  <m_primary>  (14) 
energy

>  <rmsd>  (14) 
2.7895195342350614

>  <m_score__min__rmsd>  (14) 
2.7895195342350614

>  <meeko>  (14) 
{"free_energy": -7.93, "intermolecular_energy": -9.72, "internal_energy": -1.95, "cluster_size": 13, "cluster_id": 2, "rank_in_cluster": 4}

>  <energy>  (14) 
-7.87

>  <cluster_rmsd>  (14) 
1.49

>  <cluster>  (14) 
2

$$$$

     RDKit          3D

 49 52  0  0  0  0  0  0  0  0999 V2000
  140.2690   71.1490  221.1570 O   0  0  0  0  0  0  0  0  0  0  0  0
  139.7370   71.6830  222.1660 C   0  0  0  0  0  0  0  0  0  0  0  0
  138.8660   72.8280  221.9280 N   0  0  0  0  0  0  0  0  0  0  0  0
  138.7120   73.2150  220.5740 C   0  0  0  0  0  0  0  0  0  0  0  0
  139.8470   73.7270  219.8210 C   0  0  0  0  0  0  0  0  0  0  0  0
  139.5320   74.6900  218.9970 O   0  0  0  0  0  0  0  0  0  0  0  0
  141.2140   73.3300  219.8640 N   0  0  0  0  0  0  0  0  0  0  0  0
  141.9030   72.2890  219.1270 C   0  0  0  0  0  0  0  0  0  0  0  0
  143.3240   72.3290  219.7380 C   0  0  2  0  0  0  0  0  0  0  0  0
  143.4390   71.5260  220.8440 O   0  0  0  0  0  0  0  0  0  0  0  0
  143.4630   73.8110  220.1160 C   0  0  0  0  0  0  0  0  0  0  0  0
  142.1460   74.0260  220.7730 C   0  0  1  0  0  0  0  0  0  0  0  0
  141.8080   75.4590  220.9430 C   0  0  0  0  0  0  0  0  0  0  0  0
  142.2740   76.4260  220.0760 C   0  0  0  0  0  0  0  0  0  0  0  0
  141.8890   77.7440  220.3370 C   0  0  0  0  0  0  0  0  0  0  0  0
  141.0840   78.0590  221.4080 C   0  0  0  0  0  0  0  0  0  0  0  0
  140.6240   77.0860  222.2680 C   0  0  0  0  0  0  0  0  0  0  0  0
  140.9940   75.7860  222.0240 C   0  0  0  0  0  0  0  0  0  0  0  0
  139.9520   71.2160  223.5280 C   0  0  0  0  0  0  0  0  0  0  0  0
  139.5590   69.9260  223.8160 C   0  0  0  0  0  0  0  0  0  0  0  0
  139.7350   69.4210  225.0890 C   0  0  0  0  0  0  0  0  0  0  0  0
  140.3100   70.2480  226.0490 C   0  0  0  0  0  0  0  0  0  0  0  0
  140.4930   69.7640  227.3210 C   0  0  0  0  0  0  0  0  0  0  0  0
  140.0060   68.1420  227.7110 Cl  0  0  0  0  0  0  0  0  0  0  0  0
  141.0660   70.5680  228.3010 C   0  0  0  0  0  0  0  0  0  0  0  0
  141.4380   71.8490  227.9550 C   0  0  0  0  0  0  0  0  0  0  0  0
  141.2570   72.3350  226.6810 C   0  0  0  0  0  0  0  0  0  0  0  0
  140.6830   71.5270  225.7030 C   0  0  0  0  0  0  0  0  0  0  0  0
  140.5140   72.0240  224.4650 N   0  0  0  0  0  0  0  0  0  0  0  0
  138.4610   73.2250  222.7830 H   0  0  0  0  0  0  0  0  0  0  0  0
  138.3472   72.3299  220.0323 H   0  0  0  0  0  0  0  0  0  0  0  0
  138.0435   74.0862  220.6390 H   0  0  0  0  0  0  0  0  0  0  0  0
  141.4293   71.3091  219.2866 H   0  0  0  0  0  0  0  0  0  0  0  0
  141.8901   72.4416  218.0377 H   0  0  0  0  0  0  0  0  0  0  0  0
  144.1004   71.9599  219.0518 H   0  0  0  0  0  0  0  0  0  0  0  0
  142.5530   71.2420  221.1850 H   0  0  0  0  0  0  0  0  0  0  0  0
  144.2994   73.9800  220.8101 H   0  0  0  0  0  0  0  0  0  0  0  0
  143.6818   74.4879  219.2770 H   0  0  0  0  0  0  0  0  0  0  0  0
  142.1175   73.6425  221.8036 H   0  0  0  0  0  0  0  0  0  0  0  0
  142.9174   76.1719  219.2208 H   0  0  0  0  0  0  0  0  0  0  0  0
  142.2372   78.5476  219.6715 H   0  0  0  0  0  0  0  0  0  0  0  0
  140.8024   79.1082  221.5807 H   0  0  0  0  0  0  0  0  0  0  0  0
  139.9808   77.3421  223.1229 H   0  0  0  0  0  0  0  0  0  0  0  0
  140.6408   74.9889  222.6948 H   0  0  0  0  0  0  0  0  0  0  0  0
  139.1060   69.3003  223.0329 H   0  0  0  0  0  0  0  0  0  0  0  0
  139.4293   68.3939  225.3372 H   0  0  0  0  0  0  0  0  0  0  0  0
  141.2179   70.1918  229.3234 H   0  0  0  0  0  0  0  0  0  0  0  0
  141.8914   72.4996  228.7173 H   0  0  0  0  0  0  0  0  0  0  0  0
  141.5656   73.3617  226.4349 H   0  0  0  0  0  0  0  0  0  0  0  0
  1  2  2  0
  2  3  1  0
  3  4  1  0
  4  5  1  0
  5  6  2  0
  5  7  1  0
  7  8  1  0
  8  9  1  0
  9 10  1  0
  9 11  1  0
 11 12  1  0
 12 13  1  0
 13 14  2  0
 14 15  1  0
 15 16  2  0
 16 17  1  0
 17 18  2  0
  2 19  1  0
 19 20  2  0
 20 21  1  0
 21 22  2  0
 22 23  1  0
 23 24  1  0
 23 25  2  0
 25 26  1  0
 26 27  2  0
 27 28  1  0
 28 29  2  0
 12  7  1  0
 18 13  1  0
 29 19  1  0
 28 22  1  0
  3 30  1  0
  4 31  1  0
  4 32  1  0
  8 33  1  0
  8 34  1  0
  9 35  1  6
 10 36  1  0
 11 37  1  0
 11 38  1  0
 12 39  1  1
 14 40  1  0
 15 41  1  0
 16 42  1  0
 17 43  1  0
 18 44  1  0
 20 45  1  0
 21 46  1  0
 25 47  1  0
 26 48  1  0
 27 49  1  0
M  END
>  <smiles>  (15) 
O=C(NCC(=O)N1C[C@H](O)C[C@H]1c1ccccc1)c1ccc2c(Cl)cccc2n1

>  <score_type>  (15) 
oracle

>  <origin>  (15) 
autodockgpu

>  <m_score__min__energy>  (15) 
-8.8900000000000006

>  <m_primary>  (15) 
energy

>  <rmsd>  (15) 
2.718845712846969

>  <m_score__min__rmsd>  (15) 
2.718845712846969

>  <meeko>  (15) 
{"free_energy": -7.35, "intermolecular_energy": -9.14, "internal_energy": -2.36, "cluster_size": 13, "cluster_id": 2, "rank_in_cluster": 13}

>  <energy>  (15) 
-7.84

>  <cluster_rmsd>  (15) 
1.01

>  <cluster>  (15) 
2

$$$$

     RDKit          3D

 49 52  0  0  0  0  0  0  0  0999 V2000
  141.2850   72.4070  221.3920 O   0  0  0  0  0  0  0  0  0  0  0  0
  140.5150   72.6620  222.3550 C   0  0  0  0  0  0  0  0  0  0  0  0
  139.7440   73.8980  222.2780 N   0  0  0  0  0  0  0  0  0  0  0  0
  139.9490   74.6810  221.1140 C   0  0  0  0  0  0  0  0  0  0  0  0
  140.8920   75.7890  221.1290 C   0  0  0  0  0  0  0  0  0  0  0  0
  141.4450   75.9830  222.2960 O   0  0  0  0  0  0  0  0  0  0  0  0
  141.2790   76.6610  220.0720 N   0  0  0  0  0  0  0  0  0  0  0  0
  141.2490   76.4540  218.6380 C   0  0  0  0  0  0  0  0  0  0  0  0
  141.9090   77.7460  218.0990 C   0  0  2  0  0  0  0  0  0  0  0  0
  143.2730   77.6400  218.0150 O   0  0  0  0  0  0  0  0  0  0  0  0
  141.5000   78.7770  219.1620 C   0  0  0  0  0  0  0  0  0  0  0  0
  141.8100   78.0020  220.3930 C   0  0  1  0  0  0  0  0  0  0  0  0
  141.1940   78.5780  221.6120 C   0  0  0  0  0  0  0  0  0  0  0  0
  139.8270   78.6910  221.7560 C   0  0  0  0  0  0  0  0  0  0  0  0
  139.3640   79.2510  222.9500 C   0  0  0  0  0  0  0  0  0  0  0  0
  140.2320   79.6670  223.9330 C   0  0  0  0  0  0  0  0  0  0  0  0
  141.5960   79.5500  223.7800 C   0  0  0  0  0  0  0  0  0  0  0  0
  142.0670   79.0020  222.6120 C   0  0  0  0  0  0  0  0  0  0  0  0
  140.3660   71.7960  223.5160 C   0  0  0  0  0  0  0  0  0  0  0  0
  139.8800   70.5260  223.2900 C   0  0  0  0  0  0  0  0  0  0  0  0
  139.7150   69.6530  224.3470 C   0  0  0  0  0  0  0  0  0  0  0  0
  140.0510   70.0990  225.6230 C   0  0  0  0  0  0  0  0  0  0  0  0
  139.8930   69.2460  226.6870 C   0  0  0  0  0  0  0  0  0  0  0  0
  139.2820   67.6390  226.4310 Cl  0  0  0  0  0  0  0  0  0  0  0  0
  140.2200   69.6630  227.9730 C   0  0  0  0  0  0  0  0  0  0  0  0
  140.7010   70.9440  228.1390 C   0  0  0  0  0  0  0  0  0  0  0  0
  140.8600   71.7990  227.0730 C   0  0  0  0  0  0  0  0  0  0  0  0
  140.5310   71.3770  225.7870 C   0  0  0  0  0  0  0  0  0  0  0  0
  140.6940   72.2310  224.7610 N   0  0  0  0  0  0  0  0  0  0  0  0
  139.1350   74.0570  223.0870 H   0  0  0  0  0  0  0  0  0  0  0  0
  140.2842   73.9918  220.3249 H   0  0  0  0  0  0  0  0  0  0  0  0
  138.9792   75.1818  220.9772 H   0  0  0  0  0  0  0  0  0  0  0  0
  141.8278   75.5632  218.3528 H   0  0  0  0  0  0  0  0  0  0  0  0
  140.2379   76.2797  218.2412 H   0  0  0  0  0  0  0  0  0  0  0  0
  141.5929   77.9979  217.0759 H   0  0  0  0  0  0  0  0  0  0  0  0
  143.6630   78.3620  217.4590 H   0  0  0  0  0  0  0  0  0  0  0  0
  142.1009   79.6959  219.0941 H   0  0  0  0  0  0  0  0  0  0  0  0
  140.4640   79.1391  219.0869 H   0  0  0  0  0  0  0  0  0  0  0  0
  142.8829   77.9997  220.6358 H   0  0  0  0  0  0  0  0  0  0  0  0
  139.1347   78.3566  220.9693 H   0  0  0  0  0  0  0  0  0  0  0  0
  138.2809   79.3616  223.1073 H   0  0  0  0  0  0  0  0  0  0  0  0
  139.8288   80.1017  224.8595 H   0  0  0  0  0  0  0  0  0  0  0  0
  142.2862   79.8849  224.5684 H   0  0  0  0  0  0  0  0  0  0  0  0
  143.1517   78.8960  222.4634 H   0  0  0  0  0  0  0  0  0  0  0  0
  139.6239   70.2083  222.2685 H   0  0  0  0  0  0  0  0  0  0  0  0
  139.3296   68.6354  224.1861 H   0  0  0  0  0  0  0  0  0  0  0  0
  140.0981   68.9891  228.8338 H   0  0  0  0  0  0  0  0  0  0  0  0
  140.9643   71.2913  229.1490 H   0  0  0  0  0  0  0  0  0  0  0  0
  141.2469   72.8157  227.2362 H   0  0  0  0  0  0  0  0  0  0  0  0
  1  2  2  0
  2  3  1  0
  3  4  1  0
  4  5  1  0
  5  6  2  0
  5  7  1  0
  7  8  1  0
  8  9  1  0
  9 10  1  0
  9 11  1  0
 11 12  1  0
 12 13  1  0
 13 14  2  0
 14 15  1  0
 15 16  2  0
 16 17  1  0
 17 18  2  0
  2 19  1  0
 19 20  2  0
 20 21  1  0
 21 22  2  0
 22 23  1  0
 23 24  1  0
 23 25  2  0
 25 26  1  0
 26 27  2  0
 27 28  1  0
 28 29  2  0
 12  7  1  0
 18 13  1  0
 29 19  1  0
 28 22  1  0
  3 30  1  0
  4 31  1  0
  4 32  1  0
  8 33  1  0
  8 34  1  0
  9 35  1  6
 10 36  1  0
 11 37  1  0
 11 38  1  0
 12 39  1  1
 14 40  1  0
 15 41  1  0
 16 42  1  0
 17 43  1  0
 18 44  1  0
 20 45  1  0
 21 46  1  0
 25 47  1  0
 26 48  1  0
 27 49  1  0
M  END
>  <smiles>  (16) 
O=C(NCC(=O)N1C[C@H](O)C[C@H]1c1ccccc1)c1ccc2c(Cl)cccc2n1

>  <score_type>  (16) 
oracle

>  <origin>  (16) 
autodockgpu

>  <m_score__min__energy>  (16) 
-8.8900000000000006

>  <m_primary>  (16) 
energy

>  <rmsd>  (16) 
1.8180858433609448

>  <m_score__min__rmsd>  (16) 
1.8180858433609448

>  <meeko>  (16) 
{"free_energy": -8.71, "intermolecular_energy": -10.5, "internal_energy": -1.15, "cluster_size": 7, "cluster_id": 1, "rank_in_cluster": 2}

>  <energy>  (16) 
-7.84

>  <cluster_rmsd>  (16) 
1.01

>  <cluster>  (16) 
2

$$$$

     RDKit          3D

 49 52  0  0  0  0  0  0  0  0999 V2000
  139.3750   74.4560  221.8950 O   0  0  0  0  0  0  0  0  0  0  0  0
  140.3810   75.2110  221.9490 C   0  0  0  0  0  0  0  0  0  0  0  0
  141.6680   74.6300  221.5820 N   0  0  0  0  0  0  0  0  0  0  0  0
  141.6410   73.2650  221.2010 C   0  0  0  0  0  0  0  0  0  0  0  0
  142.1170   72.8590  219.8870 C   0  0  0  0  0  0  0  0  0  0  0  0
  141.1600   72.7140  219.0100 O   0  0  0  0  0  0  0  0  0  0  0  0
  143.4470   72.6070  219.4440 N   0  0  0  0  0  0  0  0  0  0  0  0
  144.1030   71.3520  219.1400 C   0  0  0  0  0  0  0  0  0  0  0  0
  145.5530   71.7960  218.8330 C   0  0  2  0  0  0  0  0  0  0  0  0
  146.3320   71.8500  219.9600 O   0  0  0  0  0  0  0  0  0  0  0  0
  145.3350   73.1990  218.2460 C   0  0  0  0  0  0  0  0  0  0  0  0
  144.3730   73.7400  219.2420 C   0  0  1  0  0  0  0  0  0  0  0  0
  143.6790   74.9630  218.7740 C   0  0  0  0  0  0  0  0  0  0  0  0
  143.1710   75.0700  217.4960 C   0  0  0  0  0  0  0  0  0  0  0  0
  142.5370   76.2720  217.1690 C   0  0  0  0  0  0  0  0  0  0  0  0
  142.4260   77.2970  218.0800 C   0  0  0  0  0  0  0  0  0  0  0  0
  142.9360   77.1800  219.3550 C   0  0  0  0  0  0  0  0  0  0  0  0
  143.5620   76.0050  219.6910 C   0  0  0  0  0  0  0  0  0  0  0  0
  140.3150   76.6080  222.3540 C   0  0  0  0  0  0  0  0  0  0  0  0
  139.0600   77.1390  222.5670 C   0  0  0  0  0  0  0  0  0  0  0  0
  138.9260   78.4570  222.9540 C   0  0  0  0  0  0  0  0  0  0  0  0
  140.0840   79.2130  223.1150 C   0  0  0  0  0  0  0  0  0  0  0  0
  139.9710   80.5270  223.4990 C   0  0  0  0  0  0  0  0  0  0  0  0
  138.4020   81.2210  223.7740 Cl  0  0  0  0  0  0  0  0  0  0  0  0
  141.1110   81.3070  223.6680 C   0  0  0  0  0  0  0  0  0  0  0  0
  142.3380   80.7230  223.4410 C   0  0  0  0  0  0  0  0  0  0  0  0
  142.4520   79.4070  223.0570 C   0  0  0  0  0  0  0  0  0  0  0  0
  141.3090   78.6300  222.8890 C   0  0  0  0  0  0  0  0  0  0  0  0
  141.4450   77.3460  222.5120 N   0  0  0  0  0  0  0  0  0  0  0  0
  142.4520   75.2880  221.6450 H   0  0  0  0  0  0  0  0  0  0  0  0
  142.2469   72.7190  221.9391 H   0  0  0  0  0  0  0  0  0  0  0  0
  140.5652   73.0399  221.1568 H   0  0  0  0  0  0  0  0  0  0  0  0
  144.0708   70.6681  220.0010 H   0  0  0  0  0  0  0  0  0  0  0  0
  143.6302   70.7994  218.3147 H   0  0  0  0  0  0  0  0  0  0  0  0
  146.0860   71.1015  218.1670 H   0  0  0  0  0  0  0  0  0  0  0  0
  145.8310   71.5630  220.7660 H   0  0  0  0  0  0  0  0  0  0  0  0
  146.2679   73.7813  218.2194 H   0  0  0  0  0  0  0  0  0  0  0  0
  144.9870   73.2192  217.2027 H   0  0  0  0  0  0  0  0  0  0  0  0
  144.8622   74.0738  220.1690 H   0  0  0  0  0  0  0  0  0  0  0  0
  143.2605   74.2491  216.7693 H   0  0  0  0  0  0  0  0  0  0  0  0
  142.1173   76.4014  216.1605 H   0  0  0  0  0  0  0  0  0  0  0  0
  141.9202   78.2282  217.7849 H   0  0  0  0  0  0  0  0  0  0  0  0
  142.8445   78.0018  220.0804 H   0  0  0  0  0  0  0  0  0  0  0  0
  143.9784   75.8844  220.7020 H   0  0  0  0  0  0  0  0  0  0  0  0
  138.1665   76.5125  222.4285 H   0  0  0  0  0  0  0  0  0  0  0  0
  137.9334   78.8972  223.1301 H   0  0  0  0  0  0  0  0  0  0  0  0
  141.0346   82.3607  223.9744 H   0  0  0  0  0  0  0  0  0  0  0  0
  143.2499   81.3245  223.5701 H   0  0  0  0  0  0  0  0  0  0  0  0
  143.4458   78.9688  222.8828 H   0  0  0  0  0  0  0  0  0  0  0  0
  1  2  2  0
  2  3  1  0
  3  4  1  0
  4  5  1  0
  5  6  2  0
  5  7  1  0
  7  8  1  0
  8  9  1  0
  9 10  1  0
  9 11  1  0
 11 12  1  0
 12 13  1  0
 13 14  2  0
 14 15  1  0
 15 16  2  0
 16 17  1  0
 17 18  2  0
  2 19  1  0
 19 20  2  0
 20 21  1  0
 21 22  2  0
 22 23  1  0
 23 24  1  0
 23 25  2  0
 25 26  1  0
 26 27  2  0
 27 28  1  0
 28 29  2  0
 12  7  1  0
 18 13  1  0
 29 19  1  0
 28 22  1  0
  3 30  1  0
  4 31  1  0
  4 32  1  0
  8 33  1  0
  8 34  1  0
  9 35  1  6
 10 36  1  0
 11 37  1  0
 11 38  1  0
 12 39  1  1
 14 40  1  0
 15 41  1  0
 16 42  1  0
 17 43  1  0
 18 44  1  0
 20 45  1  0
 21 46  1  0
 25 47  1  0
 26 48  1  0
 27 49  1  0
M  END
>  <smiles>  (17) 
O=C(NCC(=O)N1C[C@H](O)C[C@H]1c1ccccc1)c1ccc2c(Cl)cccc2n1

>  <score_type>  (17) 
oracle

>  <origin>  (17) 
autodockgpu

>  <m_score__min__energy>  (17) 
-8.8900000000000006

>  <m_primary>  (17) 
energy

>  <rmsd>  (17) 
7.372511702130396

>  <m_score__min__rmsd>  (17) 
7.372511702130396

>  <meeko>  (17) 
{"free_energy": -7.34, "intermolecular_energy": -9.13, "internal_energy": -2.21, "cluster_size": 7, "cluster_id": 7, "rank_in_cluster": 1}

>  <energy>  (17) 
-7.62

>  <cluster_rmsd>  (17) 
1.42

>  <cluster>  (17) 
2

$$$$

     RDKit          3D

 49 52  0  0  0  0  0  0  0  0999 V2000
  140.6190   76.6290  218.3280 O   0  0  0  0  0  0  0  0  0  0  0  0
  141.7420   76.6890  218.8940 C   0  0  0  0  0  0  0  0  0  0  0  0
  142.1570   77.9890  219.4090 N   0  0  0  0  0  0  0  0  0  0  0  0
  141.2380   79.0510  219.2140 C   0  0  0  0  0  0  0  0  0  0  0  0
  140.8070   79.8670  220.3390 C   0  0  0  0  0  0  0  0  0  0  0  0
  139.6560   80.4510  220.1460 O   0  0  0  0  0  0  0  0  0  0  0  0
  141.4550   80.1050  221.5850 N   0  0  0  0  0  0  0  0  0  0  0  0
  141.9430   81.3440  222.1570 C   0  0  0  0  0  0  0  0  0  0  0  0
  142.6280   80.8650  223.4590 C   0  0  2  0  0  0  0  0  0  0  0  0
  143.9410   80.5210  223.2630 O   0  0  0  0  0  0  0  0  0  0  0  0
  141.7840   79.6350  223.8260 C   0  0  0  0  0  0  0  0  0  0  0  0
  141.7170   78.9730  222.4960 C   0  0  1  0  0  0  0  0  0  0  0  0
  140.6680   77.9290  222.4200 C   0  0  0  0  0  0  0  0  0  0  0  0
  139.3440   78.2030  222.6940 C   0  0  0  0  0  0  0  0  0  0  0  0
  138.4450   77.1380  222.5890 C   0  0  0  0  0  0  0  0  0  0  0  0
  138.8640   75.8770  222.2280 C   0  0  0  0  0  0  0  0  0  0  0  0
  140.1890   75.6140  221.9560 C   0  0  0  0  0  0  0  0  0  0  0  0
  141.0840   76.6500  222.0550 C   0  0  0  0  0  0  0  0  0  0  0  0
  142.6250   75.5420  219.0500 C   0  0  0  0  0  0  0  0  0  0  0  0
  142.3310   74.4210  218.3020 C   0  0  0  0  0  0  0  0  0  0  0  0
  143.1280   73.2980  218.4010 C   0  0  0  0  0  0  0  0  0  0  0  0
  144.2160   73.3420  219.2700 C   0  0  0  0  0  0  0  0  0  0  0  0
  145.0200   72.2350  219.3830 C   0  0  0  0  0  0  0  0  0  0  0  0
  144.6730   70.8090  218.4530 Cl  0  0  0  0  0  0  0  0  0  0  0  0
  146.1140   72.2490  220.2430 C   0  0  0  0  0  0  0  0  0  0  0  0
  146.3580   73.3970  220.9660 C   0  0  0  0  0  0  0  0  0  0  0  0
  145.5530   74.5070  220.8520 C   0  0  0  0  0  0  0  0  0  0  0  0
  144.4590   74.4880  219.9900 C   0  0  0  0  0  0  0  0  0  0  0  0
  143.6860   75.5850  219.8970 N   0  0  0  0  0  0  0  0  0  0  0  0
  143.0790   77.9820  219.8580 H   0  0  0  0  0  0  0  0  0  0  0  0
  141.6964   79.7353  218.4849 H   0  0  0  0  0  0  0  0  0  0  0  0
  140.3158   78.5304  218.9166 H   0  0  0  0  0  0  0  0  0  0  0  0
  142.6634   81.8349  221.4862 H   0  0  0  0  0  0  0  0  0  0  0  0
  141.1526   82.0900  222.3263 H   0  0  0  0  0  0  0  0  0  0  0  0
  142.6643   81.6405  224.2383 H   0  0  0  0  0  0  0  0  0  0  0  0
  144.0800   80.0980  222.3770 H   0  0  0  0  0  0  0  0  0  0  0  0
  142.2850   79.0026  224.5737 H   0  0  0  0  0  0  0  0  0  0  0  0
  140.8100   79.8576  224.2862 H   0  0  0  0  0  0  0  0  0  0  0  0
  142.6346   78.4189  222.2492 H   0  0  0  0  0  0  0  0  0  0  0  0
  139.0117   79.2115  222.9814 H   0  0  0  0  0  0  0  0  0  0  0  0
  137.3793   77.3110  222.7994 H   0  0  0  0  0  0  0  0  0  0  0  0
  138.1267   75.0639  222.1553 H   0  0  0  0  0  0  0  0  0  0  0  0
  140.5193   74.6049  221.6684 H   0  0  0  0  0  0  0  0  0  0  0  0
  142.1478   76.4676  221.8426 H   0  0  0  0  0  0  0  0  0  0  0  0
  141.4623   74.4218  217.6272 H   0  0  0  0  0  0  0  0  0  0  0  0
  142.9104   72.3953  217.8112 H   0  0  0  0  0  0  0  0  0  0  0  0
  146.7658   71.3686  220.3430 H   0  0  0  0  0  0  0  0  0  0  0  0
  147.2179   73.4264  221.6513 H   0  0  0  0  0  0  0  0  0  0  0  0
  145.7733   75.4092  221.4415 H   0  0  0  0  0  0  0  0  0  0  0  0
  1  2  2  0
  2  3  1  0
  3  4  1  0
  4  5  1  0
  5  6  2  0
  5  7  1  0
  7  8  1  0
  8  9  1  0
  9 10  1  0
  9 11  1  0
 11 12  1  0
 12 13  1  0
 13 14  2  0
 14 15  1  0
 15 16  2  0
 16 17  1  0
 17 18  2  0
  2 19  1  0
 19 20  2  0
 20 21  1  0
 21 22  2  0
 22 23  1  0
 23 24  1  0
 23 25  2  0
 25 26  1  0
 26 27  2  0
 27 28  1  0
 28 29  2  0
 12  7  1  0
 18 13  1  0
 29 19  1  0
 28 22  1  0
  3 30  1  0
  4 31  1  0
  4 32  1  0
  8 33  1  0
  8 34  1  0
  9 35  1  1
 10 36  1  0
 11 37  1  0
 11 38  1  0
 12 39  1  6
 14 40  1  0
 15 41  1  0
 16 42  1  0
 17 43  1  0
 18 44  1  0
 20 45  1  0
 21 46  1  0
 25 47  1  0
 26 48  1  0
 27 49  1  0
M  END
>  <smiles>  (18) 
O=C(NCC(=O)N1C[C@H](O)C[C@H]1c1ccccc1)c1ccc2c(Cl)cccc2n1

>  <score_type>  (18) 
oracle

>  <origin>  (18) 
autodockgpu

>  <m_score__min__energy>  (18) 
-8.8900000000000006

>  <m_primary>  (18) 
energy

>  <rmsd>  (18) 
7.482099193890047

>  <m_score__min__rmsd>  (18) 
7.482099193890047

>  <meeko>  (18) 
{"free_energy": -7.47, "intermolecular_energy": -9.26, "internal_energy": -2.29, "cluster_size": 9, "cluster_id": 6, "rank_in_cluster": 3}

>  <energy>  (18) 
-7.51

>  <cluster_rmsd>  (18) 
1.03

>  <cluster>  (18) 
2

$$$$

     RDKit          3D

 49 52  0  0  0  0  0  0  0  0999 V2000
  140.6120   76.6450  218.7340 O   0  0  0  0  0  0  0  0  0  0  0  0
  141.8440   76.6610  218.9910 C   0  0  0  0  0  0  0  0  0  0  0  0
  142.4620   77.9660  219.1940 N   0  0  0  0  0  0  0  0  0  0  0  0
  141.5960   79.0830  219.0800 C   0  0  0  0  0  0  0  0  0  0  0  0
  140.9720   79.6540  220.2640 C   0  0  0  0  0  0  0  0  0  0  0  0
  139.7000   79.9050  220.1090 O   0  0  0  0  0  0  0  0  0  0  0  0
  141.5470   79.9650  221.5290 N   0  0  0  0  0  0  0  0  0  0  0  0
  141.9790   81.2400  222.0650 C   0  0  0  0  0  0  0  0  0  0  0  0
  142.6010   80.8390  223.4240 C   0  0  2  0  0  0  0  0  0  0  0  0
  143.9290   80.5140  223.3150 O   0  0  0  0  0  0  0  0  0  0  0  0
  141.7620   79.6100  223.8050 C   0  0  0  0  0  0  0  0  0  0  0  0
  141.7800   78.8840  222.5070 C   0  0  1  0  0  0  0  0  0  0  0  0
  140.7570   77.8140  222.4260 C   0  0  0  0  0  0  0  0  0  0  0  0
  141.0780   76.5240  222.0600 C   0  0  0  0  0  0  0  0  0  0  0  0
  140.0280   75.6020  222.0170 C   0  0  0  0  0  0  0  0  0  0  0  0
  138.7370   75.9670  222.3280 C   0  0  0  0  0  0  0  0  0  0  0  0
  138.4270   77.2590  222.6920 C   0  0  0  0  0  0  0  0  0  0  0  0
  139.4480   78.1760  222.7380 C   0  0  0  0  0  0  0  0  0  0  0  0
  142.6600   75.4590  219.0890 C   0  0  0  0  0  0  0  0  0  0  0  0
  142.2850   74.3830  218.3110 C   0  0  0  0  0  0  0  0  0  0  0  0
  143.0150   73.2130  218.3560 C   0  0  0  0  0  0  0  0  0  0  0  0
  144.1210   73.1620  219.2010 C   0  0  0  0  0  0  0  0  0  0  0  0
  144.8590   72.0060  219.2600 C   0  0  0  0  0  0  0  0  0  0  0  0
  144.4090   70.6360  218.2910 Cl  0  0  0  0  0  0  0  0  0  0  0  0
  145.9690   71.9270  220.0960 C   0  0  0  0  0  0  0  0  0  0  0  0
  146.2960   73.0320  220.8500 C   0  0  0  0  0  0  0  0  0  0  0  0
  145.5570   74.1910  220.7910 C   0  0  0  0  0  0  0  0  0  0  0  0
  144.4470   74.2670  219.9540 C   0  0  0  0  0  0  0  0  0  0  0  0
  143.7390   75.4100  219.9140 N   0  0  0  0  0  0  0  0  0  0  0  0
  143.4660   77.9210  219.3990 H   0  0  0  0  0  0  0  0  0  0  0  0
  142.1799   79.8887  218.6111 H   0  0  0  0  0  0  0  0  0  0  0  0
  140.7408   78.6785  218.5187 H   0  0  0  0  0  0  0  0  0  0  0  0
  142.7255   81.7139  221.4106 H   0  0  0  0  0  0  0  0  0  0  0  0
  141.1662   81.9757  222.1549 H   0  0  0  0  0  0  0  0  0  0  0  0
  142.5800   81.6515  224.1652 H   0  0  0  0  0  0  0  0  0  0  0  0
  144.1360   80.1110  222.4330 H   0  0  0  0  0  0  0  0  0  0  0  0
  142.2336   79.0249  224.6083 H   0  0  0  0  0  0  0  0  0  0  0  0
  140.7604   79.8331  224.2012 H   0  0  0  0  0  0  0  0  0  0  0  0
  142.7202   78.3389  222.3369 H   0  0  0  0  0  0  0  0  0  0  0  0
  142.1102   76.2344  221.8138 H   0  0  0  0  0  0  0  0  0  0  0  0
  140.2377   74.5615  221.7282 H   0  0  0  0  0  0  0  0  0  0  0  0
  137.9379   75.2123  222.2849 H   0  0  0  0  0  0  0  0  0  0  0  0
  137.3942   77.5469  222.9380 H   0  0  0  0  0  0  0  0  0  0  0  0
  139.2288   79.2147  223.0262 H   0  0  0  0  0  0  0  0  0  0  0  0
  141.4049   74.4578  217.6555 H   0  0  0  0  0  0  0  0  0  0  0  0
  142.7316   72.3454  217.7421 H   0  0  0  0  0  0  0  0  0  0  0  0
  146.5689   71.0067  220.1529 H   0  0  0  0  0  0  0  0  0  0  0  0
  147.1701   72.9868  221.5163 H   0  0  0  0  0  0  0  0  0  0  0  0
  145.8431   75.0576  221.4051 H   0  0  0  0  0  0  0  0  0  0  0  0
  1  2  2  0
  2  3  1  0
  3  4  1  0
  4  5  1  0
  5  6  2  0
  5  7  1  0
  7  8  1  0
  8  9  1  0
  9 10  1  0
  9 11  1  0
 11 12  1  0
 12 13  1  0
 13 14  2  0
 14 15  1  0
 15 16  2  0
 16 17  1  0
 17 18  2  0
  2 19  1  0
 19 20  2  0
 20 21  1  0
 21 22  2  0
 22 23  1  0
 23 24  1  0
 23 25  2  0
 25 26  1  0
 26 27  2  0
 27 28  1  0
 28 29  2  0
 12  7  1  0
 18 13  1  0
 29 19  1  0
 28 22  1  0
  3 30  1  0
  4 31  1  0
  4 32  1  0
  8 33  1  0
  8 34  1  0
  9 35  1  1
 10 36  1  0
 11 37  1  0
 11 38  1  0
 12 39  1  6
 14 40  1  0
 15 41  1  0
 16 42  1  0
 17 43  1  0
 18 44  1  0
 20 45  1  0
 21 46  1  0
 25 47  1  0
 26 48  1  0
 27 49  1  0
M  END
>  <smiles>  (19) 
O=C(NCC(=O)N1C[C@H](O)C[C@H]1c1ccccc1)c1ccc2c(Cl)cccc2n1

>  <score_type>  (19) 
oracle

>  <origin>  (19) 
autodockgpu

>  <m_score__min__energy>  (19) 
-8.8900000000000006

>  <m_primary>  (19) 
energy

>  <rmsd>  (19) 
7.458983689667177

>  <m_score__min__rmsd>  (19) 
7.458983689667177

>  <meeko>  (19) 
{"free_energy": -7.38, "intermolecular_energy": -9.17, "internal_energy": -2.23, "cluster_size": 9, "cluster_id": 6, "rank_in_cluster": 8}

>  <energy>  (19) 
-7.35

>  <cluster_rmsd>  (19) 
1.67

>  <cluster>  (19) 
2

$$$$

     RDKit          3D

 49 52  0  0  0  0  0  0  0  0999 V2000
  140.9790   72.3200  221.2370 O   0  0  0  0  0  0  0  0  0  0  0  0
  140.3740   72.6360  222.2950 C   0  0  0  0  0  0  0  0  0  0  0  0
  139.7130   73.9360  222.3190 N   0  0  0  0  0  0  0  0  0  0  0  0
  139.8250   74.7070  221.1350 C   0  0  0  0  0  0  0  0  0  0  0  0
  141.0880   75.3400  220.7860 C   0  0  0  0  0  0  0  0  0  0  0  0
  142.0750   74.9960  221.5690 O   0  0  0  0  0  0  0  0  0  0  0  0
  141.3810   76.2560  219.7360 N   0  0  0  0  0  0  0  0  0  0  0  0
  141.3540   76.0630  218.3000 C   0  0  0  0  0  0  0  0  0  0  0  0
  141.8850   77.4160  217.7690 C   0  0  2  0  0  0  0  0  0  0  0  0
  143.2520   77.4390  217.6710 O   0  0  0  0  0  0  0  0  0  0  0  0
  141.3930   78.3920  218.8480 C   0  0  0  0  0  0  0  0  0  0  0  0
  141.7870   77.6370  220.0670 C   0  0  1  0  0  0  0  0  0  0  0  0
  141.1340   78.1400  221.2990 C   0  0  0  0  0  0  0  0  0  0  0  0
  141.8620   78.6480  222.3550 C   0  0  0  0  0  0  0  0  0  0  0  0
  141.1360   79.0920  223.4640 C   0  0  0  0  0  0  0  0  0  0  0  0
  139.7620   79.0250  223.4970 C   0  0  0  0  0  0  0  0  0  0  0  0
  139.0440   78.5140  222.4380 C   0  0  0  0  0  0  0  0  0  0  0  0
  139.7430   78.0740  221.3410 C   0  0  0  0  0  0  0  0  0  0  0  0
  140.3090   71.7770  223.4690 C   0  0  0  0  0  0  0  0  0  0  0  0
  139.8410   70.4940  223.2800 C   0  0  0  0  0  0  0  0  0  0  0  0
  139.7550   69.6270  224.3510 C   0  0  0  0  0  0  0  0  0  0  0  0
  140.1490   70.0920  225.6030 C   0  0  0  0  0  0  0  0  0  0  0  0
  140.0700   69.2450  226.6810 C   0  0  0  0  0  0  0  0  0  0  0  0
  139.4830   67.6230  226.4710 Cl  0  0  0  0  0  0  0  0  0  0  0  0
  140.4580   69.6820  227.9440 C   0  0  0  0  0  0  0  0  0  0  0  0
  140.9170   70.9740  228.0730 C   0  0  0  0  0  0  0  0  0  0  0  0
  140.9980   71.8230  226.9940 C   0  0  0  0  0  0  0  0  0  0  0  0
  140.6090   71.3820  225.7310 C   0  0  0  0  0  0  0  0  0  0  0  0
  140.6950   72.2300  224.6910 N   0  0  0  0  0  0  0  0  0  0  0  0
  139.2370   74.1420  223.2040 H   0  0  0  0  0  0  0  0  0  0  0  0
  139.5636   74.0416  220.2990 H   0  0  0  0  0  0  0  0  0  0  0  0
  139.1636   75.5635  221.3323 H   0  0  0  0  0  0  0  0  0  0  0  0
  142.0096   75.2329  217.9983 H   0  0  0  0  0  0  0  0  0  0  0  0
  140.3588   75.8003  217.9120 H   0  0  0  0  0  0  0  0  0  0  0  0
  141.5364   77.6479  216.7518 H   0  0  0  0  0  0  0  0  0  0  0  0
  143.6650   76.6620  218.1280 H   0  0  0  0  0  0  0  0  0  0  0  0
  141.9044   79.3638  218.7851 H   0  0  0  0  0  0  0  0  0  0  0  0
  140.3268   78.6557  218.7871 H   0  0  0  0  0  0  0  0  0  0  0  0
  142.8579   77.7331  220.2994 H   0  0  0  0  0  0  0  0  0  0  0  0
  142.9603   78.7011  222.3258 H   0  0  0  0  0  0  0  0  0  0  0  0
  141.6752   79.5042  224.3297 H   0  0  0  0  0  0  0  0  0  0  0  0
  139.2260   79.3867  224.3869 H   0  0  0  0  0  0  0  0  0  0  0  0
  137.9458   78.4602  222.4702 H   0  0  0  0  0  0  0  0  0  0  0  0
  139.1952   77.6623  220.4805 H   0  0  0  0  0  0  0  0  0  0  0  0
  139.5364   70.1614  222.2767 H   0  0  0  0  0  0  0  0  0  0  0  0
  139.3861   68.5991  224.2191 H   0  0  0  0  0  0  0  0  0  0  0  0
  140.3996   69.0136  228.8157 H   0  0  0  0  0  0  0  0  0  0  0  0
  141.2268   71.3362  229.0644 H   0  0  0  0  0  0  0  0  0  0  0  0
  141.3697   72.8496  227.1282 H   0  0  0  0  0  0  0  0  0  0  0  0
  1  2  2  0
  2  3  1  0
  3  4  1  0
  4  5  1  0
  5  6  2  0
  5  7  1  0
  7  8  1  0
  8  9  1  0
  9 10  1  0
  9 11  1  0
 11 12  1  0
 12 13  1  0
 13 14  2  0
 14 15  1  0
 15 16  2  0
 16 17  1  0
 17 18  2  0
  2 19  1  0
 19 20  2  0
 20 21  1  0
 21 22  2  0
 22 23  1  0
 23 24  1  0
 23 25  2  0
 25 26  1  0
 26 27  2  0
 27 28  1  0
 28 29  2  0
 12  7  1  0
 18 13  1  0
 29 19  1  0
 28 22  1  0
  3 30  1  0
  4 31  1  0
  4 32  1  0
  8 33  1  0
  8 34  1  0
  9 35  1  6
 10 36  1  0
 11 37  1  0
 11 38  1  0
 12 39  1  1
 14 40  1  0
 15 41  1  0
 16 42  1  0
 17 43  1  0
 18 44  1  0
 20 45  1  0
 21 46  1  0
 25 47  1  0
 26 48  1  0
 27 49  1  0
M  END
>  <smiles>  (20) 
O=C(NCC(=O)N1C[C@H](O)C[C@H]1c1ccccc1)c1ccc2c(Cl)cccc2n1

>  <score_type>  (20) 
oracle

>  <origin>  (20) 
autodockgpu

>  <m_score__min__energy>  (20) 
-8.8900000000000006

>  <m_primary>  (20) 
energy

>  <rmsd>  (20) 
1.68487494458242

>  <m_score__min__rmsd>  (20) 
1.68487494458242

>  <meeko>  (20) 
{"free_energy": -7.87, "intermolecular_energy": -9.66, "internal_energy": -1.37, "cluster_size": 7, "cluster_id": 1, "rank_in_cluster": 3}

>  <energy>  (20) 
-7.35

>  <cluster_rmsd>  (20) 
1.62

>  <cluster>  (20) 
2

$$$$

     RDKit          3D

 49 52  0  0  0  0  0  0  0  0999 V2000
  140.8530   76.7130  217.9230 O   0  0  0  0  0  0  0  0  0  0  0  0
  141.8540   76.7130  218.6870 C   0  0  0  0  0  0  0  0  0  0  0  0
  142.1200   77.9400  219.4300 N   0  0  0  0  0  0  0  0  0  0  0  0
  141.2110   79.0050  219.2070 C   0  0  0  0  0  0  0  0  0  0  0  0
  140.8350   79.8920  220.2970 C   0  0  0  0  0  0  0  0  0  0  0  0
  139.7360   80.5600  220.0680 O   0  0  0  0  0  0  0  0  0  0  0  0
  141.4860   80.1210  221.5430 N   0  0  0  0  0  0  0  0  0  0  0  0
  141.9860   81.3530  222.1180 C   0  0  0  0  0  0  0  0  0  0  0  0
  142.6670   80.8650  223.4190 C   0  0  2  0  0  0  0  0  0  0  0  0
  143.9750   80.5070  223.2220 O   0  0  0  0  0  0  0  0  0  0  0  0
  141.8100   79.6430  223.7840 C   0  0  0  0  0  0  0  0  0  0  0  0
  141.7360   78.9840  222.4530 C   0  0  1  0  0  0  0  0  0  0  0  0
  140.6750   77.9510  222.3740 C   0  0  0  0  0  0  0  0  0  0  0  0
  139.3600   78.2320  222.6790 C   0  0  0  0  0  0  0  0  0  0  0  0
  138.4490   77.1770  222.5690 C   0  0  0  0  0  0  0  0  0  0  0  0
  138.8490   75.9210  222.1730 C   0  0  0  0  0  0  0  0  0  0  0  0
  140.1660   75.6510  221.8710 C   0  0  0  0  0  0  0  0  0  0  0  0
  141.0720   76.6770  221.9750 C   0  0  0  0  0  0  0  0  0  0  0  0
  142.7370   75.5680  218.8550 C   0  0  0  0  0  0  0  0  0  0  0  0
  142.5110   74.4790  218.0390 C   0  0  0  0  0  0  0  0  0  0  0  0
  143.3120   73.3610  218.1460 C   0  0  0  0  0  0  0  0  0  0  0  0
  144.3350   73.3750  219.0910 C   0  0  0  0  0  0  0  0  0  0  0  0
  145.1420   72.2710  219.2130 C   0  0  0  0  0  0  0  0  0  0  0  0
  144.8790   70.8850  218.1980 Cl  0  0  0  0  0  0  0  0  0  0  0  0
  146.1720   72.2570  220.1490 C   0  0  0  0  0  0  0  0  0  0  0  0
  146.3500   73.3730  220.9370 C   0  0  0  0  0  0  0  0  0  0  0  0
  145.5420   74.4790  220.8150 C   0  0  0  0  0  0  0  0  0  0  0  0
  144.5130   74.4900  219.8770 C   0  0  0  0  0  0  0  0  0  0  0  0
  143.7350   75.5830  219.7770 N   0  0  0  0  0  0  0  0  0  0  0  0
  142.9460   77.8870  220.0350 H   0  0  0  0  0  0  0  0  0  0  0  0
  141.6524   79.6378  218.4230 H   0  0  0  0  0  0  0  0  0  0  0  0
  140.2703   78.4844  218.9744 H   0  0  0  0  0  0  0  0  0  0  0  0
  142.7109   81.8385  221.4481 H   0  0  0  0  0  0  0  0  0  0  0  0
  141.2025   82.1058  222.2896 H   0  0  0  0  0  0  0  0  0  0  0  0
  142.7123   81.6391  224.1992 H   0  0  0  0  0  0  0  0  0  0  0  0
  144.1130   80.0970  222.3300 H   0  0  0  0  0  0  0  0  0  0  0  0
  142.3044   79.0041  224.5306 H   0  0  0  0  0  0  0  0  0  0  0  0
  140.8384   79.8751  224.2446 H   0  0  0  0  0  0  0  0  0  0  0  0
  142.6478   78.4204  222.2063 H   0  0  0  0  0  0  0  0  0  0  0  0
  139.0430   79.2373  222.9936 H   0  0  0  0  0  0  0  0  0  0  0  0
  137.3892   77.3548  222.8041 H   0  0  0  0  0  0  0  0  0  0  0  0
  138.1025   75.1168  222.0961 H   0  0  0  0  0  0  0  0  0  0  0  0
  140.4814   74.6452  221.5565 H   0  0  0  0  0  0  0  0  0  0  0  0
  142.1300   76.4897  221.7391 H   0  0  0  0  0  0  0  0  0  0  0  0
  141.6930   74.5021  217.3039 H   0  0  0  0  0  0  0  0  0  0  0  0
  143.1474   72.4836  217.5033 H   0  0  0  0  0  0  0  0  0  0  0  0
  146.8259   71.3790  220.2566 H   0  0  0  0  0  0  0  0  0  0  0  0
  147.1588   73.3795  221.6825 H   0  0  0  0  0  0  0  0  0  0  0  0
  145.7086   75.3553  221.4587 H   0  0  0  0  0  0  0  0  0  0  0  0
  1  2  2  0
  2  3  1  0
  3  4  1  0
  4  5  1  0
  5  6  2  0
  5  7  1  0
  7  8  1  0
  8  9  1  0
  9 10  1  0
  9 11  1  0
 11 12  1  0
 12 13  1  0
 13 14  2  0
 14 15  1  0
 15 16  2  0
 16 17  1  0
 17 18  2  0
  2 19  1  0
 19 20  2  0
 20 21  1  0
 21 22  2  0
 22 23  1  0
 23 24  1  0
 23 25  2  0
 25 26  1  0
 26 27  2  0
 27 28  1  0
 28 29  2  0
 12  7  1  0
 18 13  1  0
 29 19  1  0
 28 22  1  0
  3 30  1  0
  4 31  1  0
  4 32  1  0
  8 33  1  0
  8 34  1  0
  9 35  1  1
 10 36  1  0
 11 37  1  0
 11 38  1  0
 12 39  1  6
 14 40  1  0
 15 41  1  0
 16 42  1  0
 17 43  1  0
 18 44  1  0
 20 45  1  0
 21 46  1  0
 25 47  1  0
 26 48  1  0
 27 49  1  0
M  END
>  <smiles>  (21) 
O=C(NCC(=O)N1C[C@H](O)C[C@H]1c1ccccc1)c1ccc2c(Cl)cccc2n1

>  <score_type>  (21) 
oracle

>  <origin>  (21) 
autodockgpu

>  <m_score__min__energy>  (21) 
-8.8900000000000006

>  <m_primary>  (21) 
energy

>  <rmsd>  (21) 
7.548542146446548

>  <m_score__min__rmsd>  (21) 
7.548542146446548

>  <meeko>  (21) 
{"free_energy": -7.41, "intermolecular_energy": -9.2, "internal_energy": -2.21, "cluster_size": 9, "cluster_id": 6, "rank_in_cluster": 6}

>  <energy>  (21) 
-8.23

>  <cluster_rmsd>  (21) 
0.0

>  <cluster>  (21) 
3

$$$$

     RDKit          3D

 49 52  0  0  0  0  0  0  0  0999 V2000
  139.8770   71.3070  221.0400 O   0  0  0  0  0  0  0  0  0  0  0  0
  140.2660   71.9070  222.0760 C   0  0  0  0  0  0  0  0  0  0  0  0
  140.7410   73.2760  221.9110 N   0  0  0  0  0  0  0  0  0  0  0  0
  140.7100   73.7840  220.5880 C   0  0  0  0  0  0  0  0  0  0  0  0
  141.5540   73.2010  219.5560 C   0  0  0  0  0  0  0  0  0  0  0  0
  142.1690   74.0910  218.8240 O   0  0  0  0  0  0  0  0  0  0  0  0
  141.7920   71.8310  219.2490 N   0  0  0  0  0  0  0  0  0  0  0  0
  141.0340   70.9210  218.4140 C   0  0  0  0  0  0  0  0  0  0  0  0
  141.7810   69.5800  218.6140 C   0  0  2  0  0  0  0  0  0  0  0  0
  141.3090   68.8750  219.6910 O   0  0  0  0  0  0  0  0  0  0  0  0
  143.2220   70.0550  218.8540 C   0  0  0  0  0  0  0  0  0  0  0  0
  142.9650   71.1480  219.8300 C   0  0  1  0  0  0  0  0  0  0  0  0
  144.1230   72.0570  220.0020 C   0  0  0  0  0  0  0  0  0  0  0  0
  144.4890   72.5460  221.2390 C   0  0  0  0  0  0  0  0  0  0  0  0
  145.5980   73.3970  221.2770 C   0  0  0  0  0  0  0  0  0  0  0  0
  146.2900   73.7270  220.1340 C   0  0  0  0  0  0  0  0  0  0  0  0
  145.9160   73.2320  218.9030 C   0  0  0  0  0  0  0  0  0  0  0  0
  144.8290   72.3960  218.8500 C   0  0  0  0  0  0  0  0  0  0  0  0
  140.2630   71.3050  223.4020 C   0  0  0  0  0  0  0  0  0  0  0  0
  139.8020   70.0080  223.4990 C   0  0  0  0  0  0  0  0  0  0  0  0
  139.7720   69.3770  224.7260 C   0  0  0  0  0  0  0  0  0  0  0  0
  140.2160   70.0870  225.8390 C   0  0  0  0  0  0  0  0  0  0  0  0
  140.1940   69.4770  227.0680 C   0  0  0  0  0  0  0  0  0  0  0  0
  139.6170   67.8450  227.2180 Cl  0  0  0  0  0  0  0  0  0  0  0  0
  140.6310   70.1620  228.1980 C   0  0  0  0  0  0  0  0  0  0  0  0
  141.0810   71.4550  228.0410 C   0  0  0  0  0  0  0  0  0  0  0  0
  141.1040   72.0670  226.8090 C   0  0  0  0  0  0  0  0  0  0  0  0
  140.6650   71.3780  225.6810 C   0  0  0  0  0  0  0  0  0  0  0  0
  140.6960   71.9980  224.4880 N   0  0  0  0  0  0  0  0  0  0  0  0
  141.0470   73.7170  222.7860 H   0  0  0  0  0  0  0  0  0  0  0  0
  139.6716   73.6891  220.2376 H   0  0  0  0  0  0  0  0  0  0  0  0
  141.1204   74.7982  220.7014 H   0  0  0  0  0  0  0  0  0  0  0  0
  139.9897   70.8483  218.7517 H   0  0  0  0  0  0  0  0  0  0  0  0
  140.9755   71.2373  217.3621 H   0  0  0  0  0  0  0  0  0  0  0  0
  141.6649   68.8896  217.7656 H   0  0  0  0  0  0  0  0  0  0  0  0
  140.7550   69.4420  220.2860 H   0  0  0  0  0  0  0  0  0  0  0  0
  143.8490   69.2603  219.2845 H   0  0  0  0  0  0  0  0  0  0  0  0
  143.7708   70.3564  217.9496 H   0  0  0  0  0  0  0  0  0  0  0  0
  142.7906   70.7752  220.8501 H   0  0  0  0  0  0  0  0  0  0  0  0
  143.9353   72.2794  222.1513 H   0  0  0  0  0  0  0  0  0  0  0  0
  145.9246   73.8119  222.2420 H   0  0  0  0  0  0  0  0  0  0  0  0
  147.1583   74.3987  220.2041 H   0  0  0  0  0  0  0  0  0  0  0  0
  146.4714   73.4987  217.9918 H   0  0  0  0  0  0  0  0  0  0  0  0
  144.5095   71.9863  217.8805 H   0  0  0  0  0  0  0  0  0  0  0  0
  139.4586   69.4773  222.5988 H   0  0  0  0  0  0  0  0  0  0  0  0
  139.4080   68.3434  224.8222 H   0  0  0  0  0  0  0  0  0  0  0  0
  140.6175   69.6845  229.1889 H   0  0  0  0  0  0  0  0  0  0  0  0
  141.4306   72.0118  228.9229 H   0  0  0  0  0  0  0  0  0  0  0  0
  141.4691   73.1004  226.7149 H   0  0  0  0  0  0  0  0  0  0  0  0
  1  2  2  0
  2  3  1  0
  3  4  1  0
  4  5  1  0
  5  6  2  0
  5  7  1  0
  7  8  1  0
  8  9  1  0
  9 10  1  0
  9 11  1  0
 11 12  1  0
 12 13  1  0
 13 14  2  0
 14 15  1  0
 15 16  2  0
 16 17  1  0
 17 18  2  0
  2 19  1  0
 19 20  2  0
 20 21  1  0
 21 22  2  0
 22 23  1  0
 23 24  1  0
 23 25  2  0
 25 26  1  0
 26 27  2  0
 27 28  1  0
 28 29  2  0
 12  7  1  0
 18 13  1  0
 29 19  1  0
 28 22  1  0
  3 30  1  0
  4 31  1  0
  4 32  1  0
  8 33  1  0
  8 34  1  0
  9 35  1  6
 10 36  1  0
 11 37  1  0
 11 38  1  0
 12 39  1  1
 14 40  1  0
 15 41  1  0
 16 42  1  0
 17 43  1  0
 18 44  1  0
 20 45  1  0
 21 46  1  0
 25 47  1  0
 26 48  1  0
 27 49  1  0
M  END
>  <smiles>  (22) 
O=C(NCC(=O)N1C[C@H](O)C[C@H]1c1ccccc1)c1ccc2c(Cl)cccc2n1

>  <score_type>  (22) 
oracle

>  <origin>  (22) 
autodockgpu

>  <m_score__min__energy>  (22) 
-8.8900000000000006

>  <m_primary>  (22) 
energy

>  <rmsd>  (22) 
3.9719763239608796

>  <m_score__min__rmsd>  (22) 
3.9719763239608796

>  <meeko>  (22) 
{"free_energy": -6.62, "intermolecular_energy": -8.41, "internal_energy": -2.73, "cluster_size": 1, "cluster_id": 9, "rank_in_cluster": 1}

>  <energy>  (22) 
-8.22

>  <cluster_rmsd>  (22) 
0.26

>  <cluster>  (22) 
3

$$$$

     RDKit          3D

 49 52  0  0  0  0  0  0  0  0999 V2000
  140.6440   76.6690  218.1960 O   0  0  0  0  0  0  0  0  0  0  0  0
  141.7040   76.6980  218.8760 C   0  0  0  0  0  0  0  0  0  0  0  0
  142.0410   77.9600  219.5250 N   0  0  0  0  0  0  0  0  0  0  0  0
  141.1270   79.0230  219.3180 C   0  0  0  0  0  0  0  0  0  0  0  0
  140.8430   79.9690  220.3870 C   0  0  0  0  0  0  0  0  0  0  0  0
  139.8280   80.7490  220.1340 O   0  0  0  0  0  0  0  0  0  0  0  0
  141.5060   80.1490  221.6350 N   0  0  0  0  0  0  0  0  0  0  0  0
  142.0380   81.3540  222.2390 C   0  0  0  0  0  0  0  0  0  0  0  0
  142.7140   80.8150  223.5230 C   0  0  2  0  0  0  0  0  0  0  0  0
  144.0120   80.4330  223.3090 O   0  0  0  0  0  0  0  0  0  0  0  0
  141.8300   79.6050  223.8600 C   0  0  0  0  0  0  0  0  0  0  0  0
  141.7340   78.9830  222.5130 C   0  0  1  0  0  0  0  0  0  0  0  0
  140.6490   77.9780  222.4130 C   0  0  0  0  0  0  0  0  0  0  0  0
  139.3270   78.3080  222.6280 C   0  0  0  0  0  0  0  0  0  0  0  0
  138.3920   77.2750  222.5060 C   0  0  0  0  0  0  0  0  0  0  0  0
  138.7760   75.9920  222.1870 C   0  0  0  0  0  0  0  0  0  0  0  0
  140.1000   75.6730  221.9740 C   0  0  0  0  0  0  0  0  0  0  0  0
  141.0290   76.6770  222.0900 C   0  0  0  0  0  0  0  0  0  0  0  0
  142.5870   75.5520  219.0350 C   0  0  0  0  0  0  0  0  0  0  0  0
  142.2980   74.4310  218.2860 C   0  0  0  0  0  0  0  0  0  0  0  0
  143.0960   73.3090  218.3880 C   0  0  0  0  0  0  0  0  0  0  0  0
  144.1800   73.3530  219.2610 C   0  0  0  0  0  0  0  0  0  0  0  0
  144.9840   72.2470  219.3770 C   0  0  0  0  0  0  0  0  0  0  0  0
  144.6420   70.8210  218.4450 Cl  0  0  0  0  0  0  0  0  0  0  0  0
  146.0750   72.2620  220.2410 C   0  0  0  0  0  0  0  0  0  0  0  0
  146.3150   73.4100  220.9650 C   0  0  0  0  0  0  0  0  0  0  0  0
  145.5100   74.5190  220.8490 C   0  0  0  0  0  0  0  0  0  0  0  0
  144.4190   74.4990  219.9830 C   0  0  0  0  0  0  0  0  0  0  0  0
  143.6450   75.5950  219.8870 N   0  0  0  0  0  0  0  0  0  0  0  0
  142.9140   77.9280  220.0640 H   0  0  0  0  0  0  0  0  0  0  0  0
  141.5122   79.6100  218.4712 H   0  0  0  0  0  0  0  0  0  0  0  0
  140.1669   78.5028  219.1851 H   0  0  0  0  0  0  0  0  0  0  0  0
  142.7708   81.8398  221.5779 H   0  0  0  0  0  0  0  0  0  0  0  0
  141.2738   82.1206  222.4346 H   0  0  0  0  0  0  0  0  0  0  0  0
  142.7816   81.5659  224.3239 H   0  0  0  0  0  0  0  0  0  0  0  0
  144.1310   80.0240  222.4130 H   0  0  0  0  0  0  0  0  0  0  0  0
  142.3123   78.9351  224.5871 H   0  0  0  0  0  0  0  0  0  0  0  0
  140.8663   79.8481  224.3314 H   0  0  0  0  0  0  0  0  0  0  0  0
  142.6310   78.4048  222.2464 H   0  0  0  0  0  0  0  0  0  0  0  0
  139.0229   79.3339  222.8831 H   0  0  0  0  0  0  0  0  0  0  0  0
  137.3260   77.4926  222.6685 H   0  0  0  0  0  0  0  0  0  0  0  0
  138.0113   75.2060  222.1004 H   0  0  0  0  0  0  0  0  0  0  0  0
  140.4025   74.6466  221.7192 H   0  0  0  0  0  0  0  0  0  0  0  0
  142.0927   76.4503  221.9250 H   0  0  0  0  0  0  0  0  0  0  0  0
  141.4321   74.4306  217.6076 H   0  0  0  0  0  0  0  0  0  0  0  0
  142.8817   72.4065  217.7968 H   0  0  0  0  0  0  0  0  0  0  0  0
  146.7275   71.3823  220.3432 H   0  0  0  0  0  0  0  0  0  0  0  0
  147.1725   73.4400  221.6533 H   0  0  0  0  0  0  0  0  0  0  0  0
  145.7274   75.4212  221.4396 H   0  0  0  0  0  0  0  0  0  0  0  0
  1  2  2  0
  2  3  1  0
  3  4  1  0
  4  5  1  0
  5  6  2  0
  5  7  1  0
  7  8  1  0
  8  9  1  0
  9 10  1  0
  9 11  1  0
 11 12  1  0
 12 13  1  0
 13 14  2  0
 14 15  1  0
 15 16  2  0
 16 17  1  0
 17 18  2  0
  2 19  1  0
 19 20  2  0
 20 21  1  0
 21 22  2  0
 22 23  1  0
 23 24  1  0
 23 25  2  0
 25 26  1  0
 26 27  2  0
 27 28  1  0
 28 29  2  0
 12  7  1  0
 18 13  1  0
 29 19  1  0
 28 22  1  0
  3 30  1  0
  4 31  1  0
  4 32  1  0
  8 33  1  0
  8 34  1  0
  9 35  1  1
 10 36  1  0
 11 37  1  0
 11 38  1  0
 12 39  1  6
 14 40  1  0
 15 41  1  0
 16 42  1  0
 17 43  1  0
 18 44  1  0
 20 45  1  0
 21 46  1  0
 25 47  1  0
 26 48  1  0
 27 49  1  0
M  END
>  <smiles>  (23) 
O=C(NCC(=O)N1C[C@H](O)C[C@H]1c1ccccc1)c1ccc2c(Cl)cccc2n1

>  <score_type>  (23) 
oracle

>  <origin>  (23) 
autodockgpu

>  <m_score__min__energy>  (23) 
-8.8900000000000006

>  <m_primary>  (23) 
energy

>  <rmsd>  (23) 
7.4822032226419966

>  <m_score__min__rmsd>  (23) 
7.4822032226419966

>  <meeko>  (23) 
{"free_energy": -7.37, "intermolecular_energy": -9.16, "internal_energy": -2.23, "cluster_size": 9, "cluster_id": 6, "rank_in_cluster": 9}

>  <energy>  (23) 
-8.21

>  <cluster_rmsd>  (23) 
0.34

>  <cluster>  (23) 
3

$$$$

     RDKit          3D

 49 52  0  0  0  0  0  0  0  0999 V2000
  140.8720   71.7200  221.2470 O   0  0  0  0  0  0  0  0  0  0  0  0
  140.4090   72.1650  222.3300 C   0  0  0  0  0  0  0  0  0  0  0  0
  139.9510   73.5500  222.3360 N   0  0  0  0  0  0  0  0  0  0  0  0
  140.0770   74.2470  221.1080 C   0  0  0  0  0  0  0  0  0  0  0  0
  141.0110   75.3550  220.9840 C   0  0  0  0  0  0  0  0  0  0  0  0
  141.4460   75.7990  222.1330 O   0  0  0  0  0  0  0  0  0  0  0  0
  141.4990   76.0000  219.8120 N   0  0  0  0  0  0  0  0  0  0  0  0
  141.2330   77.3310  219.3050 C   0  0  0  0  0  0  0  0  0  0  0  0
  141.9840   77.3320  217.9520 C   0  0  2  0  0  0  0  0  0  0  0  0
  141.2090   76.8610  216.9240 O   0  0  0  0  0  0  0  0  0  0  0  0
  143.1550   76.3790  218.2410 C   0  0  0  0  0  0  0  0  0  0  0  0
  142.4180   75.2750  218.9110 C   0  0  1  0  0  0  0  0  0  0  0  0
  143.3090   74.3420  219.6420 C   0  0  0  0  0  0  0  0  0  0  0  0
  143.0050   73.0050  219.7850 C   0  0  0  0  0  0  0  0  0  0  0  0
  143.9200   72.2230  220.4950 C   0  0  0  0  0  0  0  0  0  0  0  0
  145.0700   72.7650  221.0240 C   0  0  0  0  0  0  0  0  0  0  0  0
  145.3640   74.1030  220.8760 C   0  0  0  0  0  0  0  0  0  0  0  0
  144.4740   74.8830  220.1810 C   0  0  0  0  0  0  0  0  0  0  0  0
  140.3160   71.3740  223.5490 C   0  0  0  0  0  0  0  0  0  0  0  0
  139.8300   70.0900  223.4250 C   0  0  0  0  0  0  0  0  0  0  0  0
  139.7160   69.2850  224.5410 C   0  0  0  0  0  0  0  0  0  0  0  0
  140.1030   69.8120  225.7700 C   0  0  0  0  0  0  0  0  0  0  0  0
  139.9970   69.0280  226.8920 C   0  0  0  0  0  0  0  0  0  0  0  0
  139.3870   67.4060  226.7640 Cl  0  0  0  0  0  0  0  0  0  0  0  0
  140.3760   69.5280  228.1340 C   0  0  0  0  0  0  0  0  0  0  0  0
  140.8540   70.8180  228.1980 C   0  0  0  0  0  0  0  0  0  0  0  0
  140.9610   71.6050  227.0740 C   0  0  0  0  0  0  0  0  0  0  0  0
  140.5810   71.1010  225.8330 C   0  0  0  0  0  0  0  0  0  0  0  0
  140.6940   71.8890  224.7490 N   0  0  0  0  0  0  0  0  0  0  0  0
  139.5850   73.8610  223.2430 H   0  0  0  0  0  0  0  0  0  0  0  0
  140.3669   73.5033  220.3511 H   0  0  0  0  0  0  0  0  0  0  0  0
  139.0970   74.7340  220.9966 H   0  0  0  0  0  0  0  0  0  0  0  0
  140.1546   77.4930  219.1609 H   0  0  0  0  0  0  0  0  0  0  0  0
  141.5567   78.1318  219.9861 H   0  0  0  0  0  0  0  0  0  0  0  0
  142.2855   78.3384  217.6259 H   0  0  0  0  0  0  0  0  0  0  0  0
  141.6030   77.0770  216.0400 H   0  0  0  0  0  0  0  0  0  0  0  0
  143.6465   76.0417  217.3165 H   0  0  0  0  0  0  0  0  0  0  0  0
  143.9775   76.8145  218.8273 H   0  0  0  0  0  0  0  0  0  0  0  0
  141.9002   74.6156  218.1989 H   0  0  0  0  0  0  0  0  0  0  0  0
  142.0861   72.5743  219.3605 H   0  0  0  0  0  0  0  0  0  0  0  0
  143.7171   71.1509  220.6343 H   0  0  0  0  0  0  0  0  0  0  0  0
  145.7675   72.1173  221.5754 H   0  0  0  0  0  0  0  0  0  0  0  0
  146.2830   74.5324  221.3015 H   0  0  0  0  0  0  0  0  0  0  0  0
  144.6844   75.9544  220.0472 H   0  0  0  0  0  0  0  0  0  0  0  0
  139.5332   69.7069  222.4375 H   0  0  0  0  0  0  0  0  0  0  0  0
  139.3308   68.2577  224.4613 H   0  0  0  0  0  0  0  0  0  0  0  0
  140.2960   68.9096  229.0402 H   0  0  0  0  0  0  0  0  0  0  0  0
  141.1579   71.2296  229.1718 H   0  0  0  0  0  0  0  0  0  0  0  0
  141.3466   72.6319  227.1561 H   0  0  0  0  0  0  0  0  0  0  0  0
  1  2  2  0
  2  3  1  0
  3  4  1  0
  4  5  1  0
  5  6  2  0
  5  7  1  0
  7  8  1  0
  8  9  1  0
  9 10  1  0
  9 11  1  0
 11 12  1  0
 12 13  1  0
 13 14  2  0
 14 15  1  0
 15 16  2  0
 16 17  1  0
 17 18  2  0
  2 19  1  0
 19 20  2  0
 20 21  1  0
 21 22  2  0
 22 23  1  0
 23 24  1  0
 23 25  2  0
 25 26  1  0
 26 27  2  0
 27 28  1  0
 28 29  2  0
 12  7  1  0
 18 13  1  0
 29 19  1  0
 28 22  1  0
  3 30  1  0
  4 31  1  0
  4 32  1  0
  8 33  1  0
  8 34  1  0
  9 35  1  6
 10 36  1  0
 11 37  1  0
 11 38  1  0
 12 39  1  6
 14 40  1  0
 15 41  1  0
 16 42  1  0
 17 43  1  0
 18 44  1  0
 20 45  1  0
 21 46  1  0
 25 47  1  0
 26 48  1  0
 27 49  1  0
M  END
>  <smiles>  (24) 
O=C(NCC(=O)N1C[C@H](O)C[C@H]1c1ccccc1)c1ccc2c(Cl)cccc2n1

>  <score_type>  (24) 
oracle

>  <origin>  (24) 
autodockgpu

>  <m_score__min__energy>  (24) 
-8.8900000000000006

>  <m_primary>  (24) 
energy

>  <rmsd>  (24) 
2.168031633109394

>  <m_score__min__rmsd>  (24) 
2.168031633109394

>  <meeko>  (24) 
{"free_energy": -8.23, "intermolecular_energy": -10.02, "internal_energy": -1.77, "cluster_size": 7, "cluster_id": 3, "rank_in_cluster": 1}

>  <energy>  (24) 
-8.16

>  <cluster_rmsd>  (24) 
0.51

>  <cluster>  (24) 
3

$$$$

     RDKit          3D

 49 52  0  0  0  0  0  0  0  0999 V2000
  139.7130   71.1850  221.2140 O   0  0  0  0  0  0  0  0  0  0  0  0
  139.7360   71.9000  222.2500 C   0  0  0  0  0  0  0  0  0  0  0  0
  139.5430   73.3350  222.0710 N   0  0  0  0  0  0  0  0  0  0  0  0
  139.3470   73.7680  220.7360 C   0  0  0  0  0  0  0  0  0  0  0  0
  139.9660   74.9960  220.2620 C   0  0  0  0  0  0  0  0  0  0  0  0
  139.1730   76.0320  220.3150 O   0  0  0  0  0  0  0  0  0  0  0  0
  141.2830   75.2110  219.7650 N   0  0  0  0  0  0  0  0  0  0  0  0
  141.9500   74.6270  218.6190 C   0  0  0  0  0  0  0  0  0  0  0  0
  143.3800   75.2100  218.7290 C   0  0  2  0  0  0  0  0  0  0  0  0
  144.1990   74.4390  219.5120 O   0  0  0  0  0  0  0  0  0  0  0  0
  143.1140   76.5740  219.3840 C   0  0  0  0  0  0  0  0  0  0  0  0
  142.1790   76.1550  220.4620 C   0  0  1  0  0  0  0  0  0  0  0  0
  141.4450   77.2910  221.0690 C   0  0  0  0  0  0  0  0  0  0  0  0
  141.1380   78.4280  220.3500 C   0  0  0  0  0  0  0  0  0  0  0  0
  140.4430   79.4330  221.0290 C   0  0  0  0  0  0  0  0  0  0  0  0
  140.0830   79.2920  222.3500 C   0  0  0  0  0  0  0  0  0  0  0  0
  140.3950   78.1520  223.0590 C   0  0  0  0  0  0  0  0  0  0  0  0
  141.0770   77.1560  222.4060 C   0  0  0  0  0  0  0  0  0  0  0  0
  139.9450   71.3670  223.5890 C   0  0  0  0  0  0  0  0  0  0  0  0
  139.5500   70.0640  223.8120 C   0  0  0  0  0  0  0  0  0  0  0  0
  139.7200   69.4960  225.0580 C   0  0  0  0  0  0  0  0  0  0  0  0
  140.2920   70.2760  226.0610 C   0  0  0  0  0  0  0  0  0  0  0  0
  140.4680   69.7290  227.3080 C   0  0  0  0  0  0  0  0  0  0  0  0
  139.9800   68.0900  227.6160 Cl  0  0  0  0  0  0  0  0  0  0  0  0
  141.0370   70.4840  228.3290 C   0  0  0  0  0  0  0  0  0  0  0  0
  141.4110   71.7800  228.0490 C   0  0  0  0  0  0  0  0  0  0  0  0
  141.2350   72.3290  226.8000 C   0  0  0  0  0  0  0  0  0  0  0  0
  140.6660   71.5690  225.7800 C   0  0  0  0  0  0  0  0  0  0  0  0
  140.5030   72.1270  224.5670 N   0  0  0  0  0  0  0  0  0  0  0  0
  139.5720   73.8690  222.9460 H   0  0  0  0  0  0  0  0  0  0  0  0
  139.7112   72.9594  220.0852 H   0  0  0  0  0  0  0  0  0  0  0  0
  138.2730   74.0037  220.7064 H   0  0  0  0  0  0  0  0  0  0  0  0
  141.9625   73.5290  218.6835 H   0  0  0  0  0  0  0  0  0  0  0  0
  141.4568   74.8541  217.6624 H   0  0  0  0  0  0  0  0  0  0  0  0
  143.9011   75.2635  217.7618 H   0  0  0  0  0  0  0  0  0  0  0  0
  145.1500   74.5260  219.2440 H   0  0  0  0  0  0  0  0  0  0  0  0
  144.0340   77.0199  219.7900 H   0  0  0  0  0  0  0  0  0  0  0  0
  142.7275   77.3496  218.7065 H   0  0  0  0  0  0  0  0  0  0  0  0
  142.6968   75.7080  221.3235 H   0  0  0  0  0  0  0  0  0  0  0  0
  141.4261   78.5382  219.2941 H   0  0  0  0  0  0  0  0  0  0  0  0
  140.1777   80.3576  220.4954 H   0  0  0  0  0  0  0  0  0  0  0  0
  139.5356   80.1049  222.8496 H   0  0  0  0  0  0  0  0  0  0  0  0
  140.1065   78.0439  224.1150 H   0  0  0  0  0  0  0  0  0  0  0  0
  141.3377   76.2348  222.9478 H   0  0  0  0  0  0  0  0  0  0  0  0
  139.0998   69.4783  222.9970 H   0  0  0  0  0  0  0  0  0  0  0  0
  139.4130   68.4580  225.2537 H   0  0  0  0  0  0  0  0  0  0  0  0
  141.1842   70.0577  229.3323 H   0  0  0  0  0  0  0  0  0  0  0  0
  141.8619   72.3914  228.8445 H   0  0  0  0  0  0  0  0  0  0  0  0
  141.5432   73.3671  226.6066 H   0  0  0  0  0  0  0  0  0  0  0  0
  1  2  2  0
  2  3  1  0
  3  4  1  0
  4  5  1  0
  5  6  2  0
  5  7  1  0
  7  8  1  0
  8  9  1  0
  9 10  1  0
  9 11  1  0
 11 12  1  0
 12 13  1  0
 13 14  2  0
 14 15  1  0
 15 16  2  0
 16 17  1  0
 17 18  2  0
  2 19  1  0
 19 20  2  0
 20 21  1  0
 21 22  2  0
 22 23  1  0
 23 24  1  0
 23 25  2  0
 25 26  1  0
 26 27  2  0
 27 28  1  0
 28 29  2  0
 12  7  1  0
 18 13  1  0
 29 19  1  0
 28 22  1  0
  3 30  1  0
  4 31  1  0
  4 32  1  0
  8 33  1  0
  8 34  1  0
  9 35  1  6
 10 36  1  0
 11 37  1  0
 11 38  1  0
 12 39  1  1
 14 40  1  0
 15 41  1  0
 16 42  1  0
 17 43  1  0
 18 44  1  0
 20 45  1  0
 21 46  1  0
 25 47  1  0
 26 48  1  0
 27 49  1  0
M  END
>  <smiles>  (25) 
O=C(NCC(=O)N1C[C@H](O)C[C@H]1c1ccccc1)c1ccc2c(Cl)cccc2n1

>  <score_type>  (25) 
oracle

>  <origin>  (25) 
autodockgpu

>  <m_score__min__energy>  (25) 
-8.8900000000000006

>  <m_primary>  (25) 
energy

>  <rmsd>  (25) 
1.910854248651853

>  <m_score__min__rmsd>  (25) 
1.910854248651853

>  <meeko>  (25) 
{"free_energy": -7.81, "intermolecular_energy": -9.59, "internal_energy": -1.39, "cluster_size": 7, "cluster_id": 1, "rank_in_cluster": 4}

>  <energy>  (25) 
-8.15

>  <cluster_rmsd>  (25) 
0.38

>  <cluster>  (25) 
3

$$$$

     RDKit          3D

 49 52  0  0  0  0  0  0  0  0999 V2000
  141.2170   71.9310  221.4460 O   0  0  0  0  0  0  0  0  0  0  0  0
  140.4610   72.2320  222.4070 C   0  0  0  0  0  0  0  0  0  0  0  0
  139.6810   73.4580  222.2780 N   0  0  0  0  0  0  0  0  0  0  0  0
  139.8640   74.1810  221.0720 C   0  0  0  0  0  0  0  0  0  0  0  0
  140.8770   75.2220  220.9840 C   0  0  0  0  0  0  0  0  0  0  0  0
  141.4360   75.5000  222.1310 O   0  0  0  0  0  0  0  0  0  0  0  0
  141.3260   75.9530  219.8480 N   0  0  0  0  0  0  0  0  0  0  0  0
  141.0070   77.3010  219.4250 C   0  0  0  0  0  0  0  0  0  0  0  0
  141.7400   77.4100  218.0660 C   0  0  2  0  0  0  0  0  0  0  0  0
  140.9690   76.9740  217.0200 O   0  0  0  0  0  0  0  0  0  0  0  0
  142.9470   76.4850  218.2850 C   0  0  0  0  0  0  0  0  0  0  0  0
  142.2590   75.3170  218.8960 C   0  0  1  0  0  0  0  0  0  0  0  0
  143.1920   74.3750  219.5590 C   0  0  0  0  0  0  0  0  0  0  0  0
  142.9880   73.0110  219.5400 C   0  0  0  0  0  0  0  0  0  0  0  0
  143.9350   72.2230  220.2010 C   0  0  0  0  0  0  0  0  0  0  0  0
  145.0180   72.7840  220.8380 C   0  0  0  0  0  0  0  0  0  0  0  0
  145.2130   74.1480  220.8510 C   0  0  0  0  0  0  0  0  0  0  0  0
  144.2910   74.9350  220.2070 C   0  0  0  0  0  0  0  0  0  0  0  0
  140.3350   71.4260  223.6130 C   0  0  0  0  0  0  0  0  0  0  0  0
  139.8100   70.1600  223.4670 C   0  0  0  0  0  0  0  0  0  0  0  0
  139.6630   69.3430  224.5700 C   0  0  0  0  0  0  0  0  0  0  0  0
  140.0580   69.8400  225.8100 C   0  0  0  0  0  0  0  0  0  0  0  0
  139.9200   69.0430  226.9190 C   0  0  0  0  0  0  0  0  0  0  0  0
  139.2600   67.4430  226.7640 Cl  0  0  0  0  0  0  0  0  0  0  0  0
  140.3060   69.5120  228.1710 C   0  0  0  0  0  0  0  0  0  0  0  0
  140.8240   70.7860  228.2570 C   0  0  0  0  0  0  0  0  0  0  0  0
  140.9630   71.5850  227.1460 C   0  0  0  0  0  0  0  0  0  0  0  0
  140.5760   71.1110  225.8940 C   0  0  0  0  0  0  0  0  0  0  0  0
  140.7200   71.9110  224.8230 N   0  0  0  0  0  0  0  0  0  0  0  0
  139.0840   73.6560  223.0880 H   0  0  0  0  0  0  0  0  0  0  0  0
  140.1031   73.4413  220.2937 H   0  0  0  0  0  0  0  0  0  0  0  0
  138.9226   74.7414  220.9730 H   0  0  0  0  0  0  0  0  0  0  0  0
  139.9218   77.4326  219.3026 H   0  0  0  0  0  0  0  0  0  0  0  0
  141.3113   78.0707  220.1495 H   0  0  0  0  0  0  0  0  0  0  0  0
  142.0015   78.4441  217.7973 H   0  0  0  0  0  0  0  0  0  0  0  0
  141.0580   77.5640  216.2280 H   0  0  0  0  0  0  0  0  0  0  0  0
  143.4382   76.2211  217.3368 H   0  0  0  0  0  0  0  0  0  0  0  0
  143.7608   76.9147  218.8875 H   0  0  0  0  0  0  0  0  0  0  0  0
  141.7558   74.6823  218.1517 H   0  0  0  0  0  0  0  0  0  0  0  0
  142.1220   72.5647  219.0294 H   0  0  0  0  0  0  0  0  0  0  0  0
  143.8115   71.1300  220.2121 H   0  0  0  0  0  0  0  0  0  0  0  0
  145.7423   72.1308  221.3468 H   0  0  0  0  0  0  0  0  0  0  0  0
  146.0803   74.5922  221.3614 H   0  0  0  0  0  0  0  0  0  0  0  0
  144.4221   76.0271  220.2024 H   0  0  0  0  0  0  0  0  0  0  0  0
  139.5083   69.8008  222.4720 H   0  0  0  0  0  0  0  0  0  0  0  0
  139.2463   68.3296  224.4727 H   0  0  0  0  0  0  0  0  0  0  0  0
  140.2005   68.8831  229.0673 H   0  0  0  0  0  0  0  0  0  0  0  0
  141.1341   71.1737  229.2386 H   0  0  0  0  0  0  0  0  0  0  0  0
  141.3796   72.5981  227.2458 H   0  0  0  0  0  0  0  0  0  0  0  0
  1  2  2  0
  2  3  1  0
  3  4  1  0
  4  5  1  0
  5  6  2  0
  5  7  1  0
  7  8  1  0
  8  9  1  0
  9 10  1  0
  9 11  1  0
 11 12  1  0
 12 13  1  0
 13 14  2  0
 14 15  1  0
 15 16  2  0
 16 17  1  0
 17 18  2  0
  2 19  1  0
 19 20  2  0
 20 21  1  0
 21 22  2  0
 22 23  1  0
 23 24  1  0
 23 25  2  0
 25 26  1  0
 26 27  2  0
 27 28  1  0
 28 29  2  0
 12  7  1  0
 18 13  1  0
 29 19  1  0
 28 22  1  0
  3 30  1  0
  4 31  1  0
  4 32  1  0
  8 33  1  0
  8 34  1  0
  9 35  1  6
 10 36  1  0
 11 37  1  0
 11 38  1  0
 12 39  1  6
 14 40  1  0
 15 41  1  0
 16 42  1  0
 17 43  1  0
 18 44  1  0
 20 45  1  0
 21 46  1  0
 25 47  1  0
 26 48  1  0
 27 49  1  0
M  END
>  <smiles>  (26) 
O=C(NCC(=O)N1C[C@H](O)C[C@H]1c1ccccc1)c1ccc2c(Cl)cccc2n1

>  <score_type>  (26) 
oracle

>  <origin>  (26) 
autodockgpu

>  <m_score__min__energy>  (26) 
-8.8900000000000006

>  <m_primary>  (26) 
energy

>  <rmsd>  (26) 
2.0922082198203906

>  <m_score__min__rmsd>  (26) 
2.0922082198203906

>  <meeko>  (26) 
{"free_energy": -8.22, "intermolecular_energy": -10.01, "internal_energy": -1.66, "cluster_size": 7, "cluster_id": 3, "rank_in_cluster": 2}

>  <energy>  (26) 
-8.14

>  <cluster_rmsd>  (26) 
0.43

>  <cluster>  (26) 
3

$$$$

     RDKit          3D

 49 52  0  0  0  0  0  0  0  0999 V2000
  136.2450   77.3750  222.7520 O   0  0  0  0  0  0  0  0  0  0  0  0
  136.3970   76.2010  223.1820 C   0  0  0  0  0  0  0  0  0  0  0  0
  137.5630   75.4650  222.7040 N   0  0  0  0  0  0  0  0  0  0  0  0
  138.4050   76.1630  221.8020 C   0  0  0  0  0  0  0  0  0  0  0  0
  139.7820   75.7380  221.6020 C   0  0  0  0  0  0  0  0  0  0  0  0
  140.1120   74.6960  222.3160 O   0  0  0  0  0  0  0  0  0  0  0  0
  140.7850   76.2910  220.7570 N   0  0  0  0  0  0  0  0  0  0  0  0
  141.2970   75.8150  219.4870 C   0  0  0  0  0  0  0  0  0  0  0  0
  142.4350   76.8200  219.1860 C   0  0  2  0  0  0  0  0  0  0  0  0
  143.6310   76.4340  219.7330 O   0  0  0  0  0  0  0  0  0  0  0  0
  141.9100   78.1000  219.8530 C   0  0  0  0  0  0  0  0  0  0  0  0
  141.4680   77.5390  221.1570 C   0  0  1  0  0  0  0  0  0  0  0  0
  140.5790   78.4530  221.9130 C   0  0  0  0  0  0  0  0  0  0  0  0
  140.7230   78.6540  223.2700 C   0  0  0  0  0  0  0  0  0  0  0  0
  139.8260   79.5400  223.8740 C   0  0  0  0  0  0  0  0  0  0  0  0
  138.8480   80.1800  223.1460 C   0  0  0  0  0  0  0  0  0  0  0  0
  138.7130   79.9720  221.7910 C   0  0  0  0  0  0  0  0  0  0  0  0
  139.5870   79.1050  221.1830 C   0  0  0  0  0  0  0  0  0  0  0  0
  135.4780   75.5610  224.1120 C   0  0  0  0  0  0  0  0  0  0  0  0
  134.6100   76.3840  224.7990 C   0  0  0  0  0  0  0  0  0  0  0  0
  133.7120   75.8420  225.6960 C   0  0  0  0  0  0  0  0  0  0  0  0
  133.7180   74.4620  225.8770 C   0  0  0  0  0  0  0  0  0  0  0  0
  132.8330   73.9040  226.7660 C   0  0  0  0  0  0  0  0  0  0  0  0
  131.7290   74.9180  227.6450 Cl  0  0  0  0  0  0  0  0  0  0  0  0
  132.8160   72.5280  226.9670 C   0  0  0  0  0  0  0  0  0  0  0  0
  133.7060   71.7550  226.2530 C   0  0  0  0  0  0  0  0  0  0  0  0
  134.5940   72.3130  225.3620 C   0  0  0  0  0  0  0  0  0  0  0  0
  134.6070   73.6910  225.1640 C   0  0  0  0  0  0  0  0  0  0  0  0
  135.4840   74.2140  224.2880 N   0  0  0  0  0  0  0  0  0  0  0  0
  137.6370   74.5160  223.0850 H   0  0  0  0  0  0  0  0  0  0  0  0
  137.9158   76.1222  220.8176 H   0  0  0  0  0  0  0  0  0  0  0  0
  138.5156   77.1488  222.2773 H   0  0  0  0  0  0  0  0  0  0  0  0
  141.6852   74.7895  219.5742 H   0  0  0  0  0  0  0  0  0  0  0  0
  140.5335   75.7679  218.6966 H   0  0  0  0  0  0  0  0  0  0  0  0
  142.6487   76.9219  218.1118 H   0  0  0  0  0  0  0  0  0  0  0  0
  144.0470   77.1650  220.2580 H   0  0  0  0  0  0  0  0  0  0  0  0
  142.7033   78.8516  219.9782 H   0  0  0  0  0  0  0  0  0  0  0  0
  141.1327   78.6354  219.2880 H   0  0  0  0  0  0  0  0  0  0  0  0
  142.3034   77.3757  221.8537 H   0  0  0  0  0  0  0  0  0  0  0  0
  141.5057   78.1419  223.8489 H   0  0  0  0  0  0  0  0  0  0  0  0
  139.9032   79.7301  224.9547 H   0  0  0  0  0  0  0  0  0  0  0  0
  138.1610   80.8710  223.6565 H   0  0  0  0  0  0  0  0  0  0  0  0
  137.9293   80.4846  221.2139 H   0  0  0  0  0  0  0  0  0  0  0  0
  139.5028   78.9220  220.1016 H   0  0  0  0  0  0  0  0  0  0  0  0
  134.6335   77.4710  224.6321 H   0  0  0  0  0  0  0  0  0  0  0  0
  133.0115   76.4824  226.2520 H   0  0  0  0  0  0  0  0  0  0  0  0
  132.1115   72.0692  227.6764 H   0  0  0  0  0  0  0  0  0  0  0  0
  133.7066   70.6647  226.3990 H   0  0  0  0  0  0  0  0  0  0  0  0
  135.2931   71.6706  224.8065 H   0  0  0  0  0  0  0  0  0  0  0  0
  1  2  2  0
  2  3  1  0
  3  4  1  0
  4  5  1  0
  5  6  2  0
  5  7  1  0
  7  8  1  0
  8  9  1  0
  9 10  1  0
  9 11  1  0
 11 12  1  0
 12 13  1  0
 13 14  2  0
 14 15  1  0
 15 16  2  0
 16 17  1  0
 17 18  2  0
  2 19  1  0
 19 20  2  0
 20 21  1  0
 21 22  2  0
 22 23  1  0
 23 24  1  0
 23 25  2  0
 25 26  1  0
 26 27  2  0
 27 28  1  0
 28 29  2  0
 12  7  1  0
 18 13  1  0
 29 19  1  0
 28 22  1  0
  3 30  1  0
  4 31  1  0
  4 32  1  0
  8 33  1  0
  8 34  1  0
  9 35  1  6
 10 36  1  0
 11 37  1  0
 11 38  1  0
 12 39  1  1
 14 40  1  0
 15 41  1  0
 16 42  1  0
 17 43  1  0
 18 44  1  0
 20 45  1  0
 21 46  1  0
 25 47  1  0
 26 48  1  0
 27 49  1  0
M  END
>  <smiles>  (27) 
O=C(NCC(=O)N1C[C@H](O)C[C@H]1c1ccccc1)c1ccc2c(Cl)cccc2n1

>  <score_type>  (27) 
oracle

>  <origin>  (27) 
autodockgpu

>  <m_score__min__energy>  (27) 
-8.8900000000000006

>  <m_primary>  (27) 
energy

>  <rmsd>  (27) 
5.543268603196638

>  <m_score__min__rmsd>  (27) 
5.543268603196638

>  <meeko>  (27) 
{"free_energy": -7.38, "intermolecular_energy": -9.17, "internal_energy": -1.9, "cluster_size": 3, "cluster_id": 4, "rank_in_cluster": 3}

>  <energy>  (27) 
-8.08

>  <cluster_rmsd>  (27) 
0.45

>  <cluster>  (27) 
3

$$$$

     RDKit          3D

 49 52  0  0  0  0  0  0  0  0999 V2000
  140.5660   73.7640  222.3320 O   0  0  0  0  0  0  0  0  0  0  0  0
  140.0630   72.6100  222.3360 C   0  0  0  0  0  0  0  0  0  0  0  0
  139.4090   72.1680  221.1090 N   0  0  0  0  0  0  0  0  0  0  0  0
  139.4150   73.0960  220.0380 C   0  0  0  0  0  0  0  0  0  0  0  0
  140.6240   73.3120  219.2580 C   0  0  0  0  0  0  0  0  0  0  0  0
  140.4040   73.8960  218.1110 O   0  0  0  0  0  0  0  0  0  0  0  0
  141.9730   72.9800  219.5700 N   0  0  0  0  0  0  0  0  0  0  0  0
  142.7430   71.8010  219.2280 C   0  0  0  0  0  0  0  0  0  0  0  0
  144.0770   72.0430  219.9730 C   0  0  2  0  0  0  0  0  0  0  0  0
  144.0510   71.5670  221.2590 O   0  0  0  0  0  0  0  0  0  0  0  0
  144.1750   73.5760  219.9540 C   0  0  0  0  0  0  0  0  0  0  0  0
  142.7880   73.9200  220.3650 C   0  0  1  0  0  0  0  0  0  0  0  0
  142.4390   75.3360  220.1020 C   0  0  0  0  0  0  0  0  0  0  0  0
  141.5240   76.0180  220.8780 C   0  0  0  0  0  0  0  0  0  0  0  0
  141.2750   77.3500  220.5340 C   0  0  0  0  0  0  0  0  0  0  0  0
  141.9140   77.9490  219.4720 C   0  0  0  0  0  0  0  0  0  0  0  0
  142.8250   77.2590  218.7030 C   0  0  0  0  0  0  0  0  0  0  0  0
  143.0800   75.9500  219.0290 C   0  0  0  0  0  0  0  0  0  0  0  0
  140.1030   71.7190  223.4870 C   0  0  0  0  0  0  0  0  0  0  0  0
  139.6470   70.4320  223.2970 C   0  0  0  0  0  0  0  0  0  0  0  0
  139.6580   69.5350  224.3460 C   0  0  0  0  0  0  0  0  0  0  0  0
  140.1360   69.9740  225.5780 C   0  0  0  0  0  0  0  0  0  0  0  0
  140.1550   69.0970  226.6340 C   0  0  0  0  0  0  0  0  0  0  0  0
  139.5850   67.4690  226.4230 Cl  0  0  0  0  0  0  0  0  0  0  0  0
  140.6270   69.5080  227.8770 C   0  0  0  0  0  0  0  0  0  0  0  0
  141.0700   70.8060  228.0080 C   0  0  0  0  0  0  0  0  0  0  0  0
  141.0530   71.6850  226.9500 C   0  0  0  0  0  0  0  0  0  0  0  0
  140.5790   71.2700  225.7080 C   0  0  0  0  0  0  0  0  0  0  0  0
  140.5710   72.1480  224.6890 N   0  0  0  0  0  0  0  0  0  0  0  0
  139.0150   71.2220  221.1680 H   0  0  0  0  0  0  0  0  0  0  0  0
  138.6381   72.7680  219.3317 H   0  0  0  0  0  0  0  0  0  0  0  0
  139.2704   74.0615  220.5449 H   0  0  0  0  0  0  0  0  0  0  0  0
  142.2484   70.8859  219.5858 H   0  0  0  0  0  0  0  0  0  0  0  0
  142.8663   71.6575  218.1444 H   0  0  0  0  0  0  0  0  0  0  0  0
  144.9307   71.5267  219.5097 H   0  0  0  0  0  0  0  0  0  0  0  0
  144.9570   71.5530  221.6620 H   0  0  0  0  0  0  0  0  0  0  0  0
  144.9195   73.9478  220.6733 H   0  0  0  0  0  0  0  0  0  0  0  0
  144.4995   74.0109  218.9972 H   0  0  0  0  0  0  0  0  0  0  0  0
  142.6293   73.8244  221.4493 H   0  0  0  0  0  0  0  0  0  0  0  0
  141.0152   75.5368  221.7263 H   0  0  0  0  0  0  0  0  0  0  0  0
  140.5526   77.9322  221.1249 H   0  0  0  0  0  0  0  0  0  0  0  0
  141.6927   78.9996  219.2327 H   0  0  0  0  0  0  0  0  0  0  0  0
  143.3321   77.7416  217.8545 H   0  0  0  0  0  0  0  0  0  0  0  0
  143.8037   75.3758  218.4319 H   0  0  0  0  0  0  0  0  0  0  0  0
  139.2746   70.1201  222.3100 H   0  0  0  0  0  0  0  0  0  0  0  0
  139.2997   68.5036  224.2127 H   0  0  0  0  0  0  0  0  0  0  0  0
  140.6459   68.8155  228.7315 H   0  0  0  0  0  0  0  0  0  0  0  0
  141.4468   71.1481  228.9832 H   0  0  0  0  0  0  0  0  0  0  0  0
  141.4137   72.7154  227.0849 H   0  0  0  0  0  0  0  0  0  0  0  0
  1  2  2  0
  2  3  1  0
  3  4  1  0
  4  5  1  0
  5  6  2  0
  5  7  1  0
  7  8  1  0
  8  9  1  0
  9 10  1  0
  9 11  1  0
 11 12  1  0
 12 13  1  0
 13 14  2  0
 14 15  1  0
 15 16  2  0
 16 17  1  0
 17 18  2  0
  2 19  1  0
 19 20  2  0
 20 21  1  0
 21 22  2  0
 22 23  1  0
 23 24  1  0
 23 25  2  0
 25 26  1  0
 26 27  2  0
 27 28  1  0
 28 29  2  0
 12  7  1  0
 18 13  1  0
 29 19  1  0
 28 22  1  0
  3 30  1  0
  4 31  1  0
  4 32  1  0
  8 33  1  0
  8 34  1  0
  9 35  1  6
 10 36  1  0
 11 37  1  0
 11 38  1  0
 12 39  1  1
 14 40  1  0
 15 41  1  0
 16 42  1  0
 17 43  1  0
 18 44  1  0
 20 45  1  0
 21 46  1  0
 25 47  1  0
 26 48  1  0
 27 49  1  0
M  END
>  <smiles>  (28) 
O=C(NCC(=O)N1C[C@H](O)C[C@H]1c1ccccc1)c1ccc2c(Cl)cccc2n1

>  <score_type>  (28) 
oracle

>  <origin>  (28) 
autodockgpu

>  <m_score__min__energy>  (28) 
-8.8900000000000006

>  <m_primary>  (28) 
energy

>  <rmsd>  (28) 
3.211457250715693

>  <m_score__min__rmsd>  (28) 
3.211457250715693

>  <meeko>  (28) 
{"free_energy": -7.84, "intermolecular_energy": -9.63, "internal_energy": -1.67, "cluster_size": 13, "cluster_id": 2, "rank_in_cluster": 8}

>  <energy>  (28) 
-7.74

>  <cluster_rmsd>  (28) 
0.0

>  <cluster>  (28) 
4

$$$$

     RDKit          3D

 49 52  0  0  0  0  0  0  0  0999 V2000
  139.5360   75.9320  220.2510 O   0  0  0  0  0  0  0  0  0  0  0  0
  140.4080   76.2920  221.0850 C   0  0  0  0  0  0  0  0  0  0  0  0
  141.2230   75.2420  221.6860 N   0  0  0  0  0  0  0  0  0  0  0  0
  140.9390   73.9210  221.2600 C   0  0  0  0  0  0  0  0  0  0  0  0
  141.8260   73.2420  220.3270 C   0  0  0  0  0  0  0  0  0  0  0  0
  141.1960   72.6550  219.3450 O   0  0  0  0  0  0  0  0  0  0  0  0
  143.2460   73.1360  220.3440 N   0  0  0  0  0  0  0  0  0  0  0  0
  144.0890   71.9760  220.5500 C   0  0  0  0  0  0  0  0  0  0  0  0
  145.5100   72.5890  220.5540 C   0  0  2  0  0  0  0  0  0  0  0  0
  145.8960   73.0050  221.8030 O   0  0  0  0  0  0  0  0  0  0  0  0
  145.3400   73.7830  219.6030 C   0  0  0  0  0  0  0  0  0  0  0  0
  144.0680   74.3440  220.1310 C   0  0  1  0  0  0  0  0  0  0  0  0
  143.4290   75.3090  219.2040 C   0  0  0  0  0  0  0  0  0  0  0  0
  142.9760   74.9310  217.9570 C   0  0  0  0  0  0  0  0  0  0  0  0
  142.3910   75.9280  217.1710 C   0  0  0  0  0  0  0  0  0  0  0  0
  142.2740   77.2230  217.6230 C   0  0  0  0  0  0  0  0  0  0  0  0
  142.7310   77.5900  218.8700 C   0  0  0  0  0  0  0  0  0  0  0  0
  143.3080   76.6220  219.6540 C   0  0  0  0  0  0  0  0  0  0  0  0
  140.6320   77.6790  221.4660 C   0  0  0  0  0  0  0  0  0  0  0  0
  139.9790   78.6430  220.7260 C   0  0  0  0  0  0  0  0  0  0  0  0
  140.1470   79.9780  221.0340 C   0  0  0  0  0  0  0  0  0  0  0  0
  140.9840   80.3060  222.0970 C   0  0  0  0  0  0  0  0  0  0  0  0
  141.1640   81.6280  222.4180 C   0  0  0  0  0  0  0  0  0  0  0  0
  140.3540   82.8630  221.5030 Cl  0  0  0  0  0  0  0  0  0  0  0  0
  141.9950   81.9850  223.4760 C   0  0  0  0  0  0  0  0  0  0  0  0
  142.6220   80.9790  224.1790 C   0  0  0  0  0  0  0  0  0  0  0  0
  142.4420   79.6530  223.8580 C   0  0  0  0  0  0  0  0  0  0  0  0
  141.6090   79.3010  222.7990 C   0  0  0  0  0  0  0  0  0  0  0  0
  141.4490   77.9980  222.5030 N   0  0  0  0  0  0  0  0  0  0  0  0
  141.9160   75.5900  222.3580 H   0  0  0  0  0  0  0  0  0  0  0  0
  140.8979   73.2989  222.1663 H   0  0  0  0  0  0  0  0  0  0  0  0
  140.0121   74.0405  220.6799 H   0  0  0  0  0  0  0  0  0  0  0  0
  143.8645   71.4872  221.5095 H   0  0  0  0  0  0  0  0  0  0  0  0
  143.9516   71.1941  219.7886 H   0  0  0  0  0  0  0  0  0  0  0  0
  146.2902   71.8745  220.2527 H   0  0  0  0  0  0  0  0  0  0  0  0
  145.9690   72.2460  222.4350 H   0  0  0  0  0  0  0  0  0  0  0  0
  146.1709   74.4984  219.6911 H   0  0  0  0  0  0  0  0  0  0  0  0
  145.3291   73.5290  218.5328 H   0  0  0  0  0  0  0  0  0  0  0  0
  144.2125   74.9392  221.0447 H   0  0  0  0  0  0  0  0  0  0  0  0
  143.0705   73.8953  217.5986 H   0  0  0  0  0  0  0  0  0  0  0  0
  142.0159   75.6721  216.1691 H   0  0  0  0  0  0  0  0  0  0  0  0
  141.8064   77.9797  216.9759 H   0  0  0  0  0  0  0  0  0  0  0  0
  142.6364   78.6264  219.2262 H   0  0  0  0  0  0  0  0  0  0  0  0
  143.6810   76.8874  220.6542 H   0  0  0  0  0  0  0  0  0  0  0  0
  139.3254   78.3482  219.8918 H   0  0  0  0  0  0  0  0  0  0  0  0
  139.6340   80.7606  220.4558 H   0  0  0  0  0  0  0  0  0  0  0  0
  142.1471   83.0410  223.7437 H   0  0  0  0  0  0  0  0  0  0  0  0
  143.2830   81.2426  225.0178 H   0  0  0  0  0  0  0  0  0  0  0  0
  142.9557   78.8717  224.4374 H   0  0  0  0  0  0  0  0  0  0  0  0
  1  2  2  0
  2  3  1  0
  3  4  1  0
  4  5  1  0
  5  6  2  0
  5  7  1  0
  7  8  1  0
  8  9  1  0
  9 10  1  0
  9 11  1  0
 11 12  1  0
 12 13  1  0
 13 14  2  0
 14 15  1  0
 15 16  2  0
 16 17  1  0
 17 18  2  0
  2 19  1  0
 19 20  2  0
 20 21  1  0
 21 22  2  0
 22 23  1  0
 23 24  1  0
 23 25  2  0
 25 26  1  0
 26 27  2  0
 27 28  1  0
 28 29  2  0
 12  7  1  0
 18 13  1  0
 29 19  1  0
 28 22  1  0
  3 30  1  0
  4 31  1  0
  4 32  1  0
  8 33  1  0
  8 34  1  0
  9 35  1  6
 10 36  1  0
 11 37  1  0
 11 38  1  0
 12 39  1  1
 14 40  1  0
 15 41  1  0
 16 42  1  0
 17 43  1  0
 18 44  1  0
 20 45  1  0
 21 46  1  0
 25 47  1  0
 26 48  1  0
 27 49  1  0
M  END
>  <smiles>  (29) 
O=C(NCC(=O)N1C[C@H](O)C[C@H]1c1ccccc1)c1ccc2c(Cl)cccc2n1

>  <score_type>  (29) 
oracle

>  <origin>  (29) 
autodockgpu

>  <m_score__min__energy>  (29) 
-8.8900000000000006

>  <m_primary>  (29) 
energy

>  <rmsd>  (29) 
7.8459748064467005

>  <m_score__min__rmsd>  (29) 
7.8459748064467005

>  <meeko>  (29) 
{"free_energy": -6.93, "intermolecular_energy": -8.72, "internal_energy": -2.47, "cluster_size": 7, "cluster_id": 7, "rank_in_cluster": 7}

>  <energy>  (29) 
-7.53

>  <cluster_rmsd>  (29) 
0.49

>  <cluster>  (29) 
4

$$$$

     RDKit          3D

 49 52  0  0  0  0  0  0  0  0999 V2000
  139.6940   71.2990  220.9940 O   0  0  0  0  0  0  0  0  0  0  0  0
  139.5610   71.9260  222.0770 C   0  0  0  0  0  0  0  0  0  0  0  0
  139.1090   73.3110  221.9910 N   0  0  0  0  0  0  0  0  0  0  0  0
  138.8660   73.7990  220.6830 C   0  0  0  0  0  0  0  0  0  0  0  0
  139.0530   75.2100  220.3780 C   0  0  0  0  0  0  0  0  0  0  0  0
  138.8130   75.5070  219.1290 O   0  0  0  0  0  0  0  0  0  0  0  0
  139.4510   76.2750  221.2340 N   0  0  0  0  0  0  0  0  0  0  0  0
  138.7510   76.8820  222.3490 C   0  0  0  0  0  0  0  0  0  0  0  0
  139.6960   78.0410  222.7490 C   0  0  2  0  0  0  0  0  0  0  0  0
  139.4350   79.1910  222.0500 O   0  0  0  0  0  0  0  0  0  0  0  0
  141.0720   77.4680  222.3750 C   0  0  0  0  0  0  0  0  0  0  0  0
  140.7600   76.9270  221.0260 C   0  0  1  0  0  0  0  0  0  0  0  0
  141.7880   75.9850  220.5250 C   0  0  0  0  0  0  0  0  0  0  0  0
  142.5830   76.2830  219.4380 C   0  0  0  0  0  0  0  0  0  0  0  0
  143.5180   75.3160  219.0570 C   0  0  0  0  0  0  0  0  0  0  0  0
  143.6380   74.1250  219.7380 C   0  0  0  0  0  0  0  0  0  0  0  0
  142.8400   73.8380  220.8230 C   0  0  0  0  0  0  0  0  0  0  0  0
  141.9160   74.7780  221.2090 C   0  0  0  0  0  0  0  0  0  0  0  0
  139.8350   71.3420  223.3830 C   0  0  0  0  0  0  0  0  0  0  0  0
  139.5670   69.9970  223.5330 C   0  0  0  0  0  0  0  0  0  0  0  0
  139.8040   69.3800  224.7450 C   0  0  0  0  0  0  0  0  0  0  0  0
  140.3120   70.1520  225.7860 C   0  0  0  0  0  0  0  0  0  0  0  0
  140.5540   69.5560  226.9990 C   0  0  0  0  0  0  0  0  0  0  0  0
  140.2250   67.8640  227.2170 Cl  0  0  0  0  0  0  0  0  0  0  0  0
  141.0610   70.3040  228.0570 C   0  0  0  0  0  0  0  0  0  0  0  0
  141.3090   71.6430  227.8480 C   0  0  0  0  0  0  0  0  0  0  0  0
  141.0670   72.2410  226.6330 C   0  0  0  0  0  0  0  0  0  0  0  0
  140.5590   71.4890  225.5760 C   0  0  0  0  0  0  0  0  0  0  0  0
  140.3310   72.0960  224.3980 N   0  0  0  0  0  0  0  0  0  0  0  0
  139.0180   73.7740  222.9020 H   0  0  0  0  0  0  0  0  0  0  0  0
  139.5306   73.2392  220.0085 H   0  0  0  0  0  0  0  0  0  0  0  0
  137.7815   73.6598  220.5627 H   0  0  0  0  0  0  0  0  0  0  0  0
  137.7657   77.2613  222.0404 H   0  0  0  0  0  0  0  0  0  0  0  0
  138.5457   76.1807  223.1712 H   0  0  0  0  0  0  0  0  0  0  0  0
  139.5974   78.3358  223.8041 H   0  0  0  0  0  0  0  0  0  0  0  0
  138.6400   79.0940  221.4670 H   0  0  0  0  0  0  0  0  0  0  0  0
  141.8440   78.2505  222.3338 H   0  0  0  0  0  0  0  0  0  0  0  0
  141.4817   76.7367  223.0873 H   0  0  0  0  0  0  0  0  0  0  0  0
  140.7408   77.7064  220.2500 H   0  0  0  0  0  0  0  0  0  0  0  0
  142.4860   77.2358  218.8969 H   0  0  0  0  0  0  0  0  0  0  0  0
  144.1722   75.5107  218.1944 H   0  0  0  0  0  0  0  0  0  0  0  0
  144.3859   73.3886  219.4088 H   0  0  0  0  0  0  0  0  0  0  0  0
  142.9395   72.8853  221.3638 H   0  0  0  0  0  0  0  0  0  0  0  0
  141.2661   74.5744  222.0728 H   0  0  0  0  0  0  0  0  0  0  0  0
  139.1653   69.4175  222.6887 H   0  0  0  0  0  0  0  0  0  0  0  0
  139.5973   68.3086  224.8842 H   0  0  0  0  0  0  0  0  0  0  0  0
  141.2585   69.8388  229.0340 H   0  0  0  0  0  0  0  0  0  0  0  0
  141.7106   72.2491  228.6734 H   0  0  0  0  0  0  0  0  0  0  0  0
  141.2745   73.3125  226.4961 H   0  0  0  0  0  0  0  0  0  0  0  0
  1  2  2  0
  2  3  1  0
  3  4  1  0
  4  5  1  0
  5  6  2  0
  5  7  1  0
  7  8  1  0
  8  9  1  0
  9 10  1  0
  9 11  1  0
 11 12  1  0
 12 13  1  0
 13 14  2  0
 14 15  1  0
 15 16  2  0
 16 17  1  0
 17 18  2  0
  2 19  1  0
 19 20  2  0
 20 21  1  0
 21 22  2  0
 22 23  1  0
 23 24  1  0
 23 25  2  0
 25 26  1  0
 26 27  2  0
 27 28  1  0
 28 29  2  0
 12  7  1  0
 18 13  1  0
 29 19  1  0
 28 22  1  0
  3 30  1  0
  4 31  1  0
  4 32  1  0
  8 33  1  0
  8 34  1  0
  9 35  1  1
 10 36  1  0
 11 37  1  0
 11 38  1  0
 12 39  1  6
 14 40  1  0
 15 41  1  0
 16 42  1  0
 17 43  1  0
 18 44  1  0
 20 45  1  0
 21 46  1  0
 25 47  1  0
 26 48  1  0
 27 49  1  0
M  END
>  <smiles>  (30) 
O=C(NCC(=O)N1C[C@H](O)C[C@H]1c1ccccc1)c1ccc2c(Cl)cccc2n1

>  <score_type>  (30) 
oracle

>  <origin>  (30) 
autodockgpu

>  <m_score__min__energy>  (30) 
-8.8900000000000006

>  <m_primary>  (30) 
energy

>  <rmsd>  (30) 
2.753053812579347

>  <m_score__min__rmsd>  (30) 
2.753053812579347

>  <meeko>  (30) 
{"free_energy": -7.58, "intermolecular_energy": -9.37, "internal_energy": -1.72, "cluster_size": 2, "cluster_id": 5, "rank_in_cluster": 1}

>  <energy>  (30) 
-7.38

>  <cluster_rmsd>  (30) 
1.01

>  <cluster>  (30) 
4

$$$$

     RDKit          3D

 49 52  0  0  0  0  0  0  0  0999 V2000
  140.7670   71.7300  221.2410 O   0  0  0  0  0  0  0  0  0  0  0  0
  140.3390   72.1850  222.3350 C   0  0  0  0  0  0  0  0  0  0  0  0
  139.8750   73.5680  222.3420 N   0  0  0  0  0  0  0  0  0  0  0  0
  139.9560   74.2520  221.1030 C   0  0  0  0  0  0  0  0  0  0  0  0
  140.9400   75.3060  220.9090 C   0  0  0  0  0  0  0  0  0  0  0  0
  141.4430   75.7600  222.0250 O   0  0  0  0  0  0  0  0  0  0  0  0
  141.4120   75.8900  219.6990 N   0  0  0  0  0  0  0  0  0  0  0  0
  141.1010   77.1750  219.1040 C   0  0  0  0  0  0  0  0  0  0  0  0
  141.8620   77.1140  217.7580 C   0  0  2  0  0  0  0  0  0  0  0  0
  141.1120   76.5490  216.7590 O   0  0  0  0  0  0  0  0  0  0  0  0
  143.0640   76.2270  218.1150 C   0  0  0  0  0  0  0  0  0  0  0  0
  142.3630   75.1420  218.8520 C   0  0  1  0  0  0  0  0  0  0  0  0
  143.2820   74.2930  219.6470 C   0  0  0  0  0  0  0  0  0  0  0  0
  143.0150   72.9620  219.8940 C   0  0  0  0  0  0  0  0  0  0  0  0
  143.9550   72.2620  220.6560 C   0  0  0  0  0  0  0  0  0  0  0  0
  145.0910   72.8740  221.1350 C   0  0  0  0  0  0  0  0  0  0  0  0
  145.3480   74.2040  220.8830 C   0  0  0  0  0  0  0  0  0  0  0  0
  144.4340   74.9050  220.1360 C   0  0  0  0  0  0  0  0  0  0  0  0
  140.2910   71.4060  223.5650 C   0  0  0  0  0  0  0  0  0  0  0  0
  139.8260   70.1120  223.4670 C   0  0  0  0  0  0  0  0  0  0  0  0
  139.7550   69.3180  224.5940 C   0  0  0  0  0  0  0  0  0  0  0  0
  140.1620   69.8660  225.8080 C   0  0  0  0  0  0  0  0  0  0  0  0
  140.0980   69.0930  226.9400 C   0  0  0  0  0  0  0  0  0  0  0  0
  139.5150   67.4590  226.8460 Cl  0  0  0  0  0  0  0  0  0  0  0  0
  140.4980   69.6140  228.1670 C   0  0  0  0  0  0  0  0  0  0  0  0
  140.9540   70.9140  228.2040 C   0  0  0  0  0  0  0  0  0  0  0  0
  141.0180   71.6890  227.0700 C   0  0  0  0  0  0  0  0  0  0  0  0
  140.6170   71.1640  225.8440 C   0  0  0  0  0  0  0  0  0  0  0  0
  140.6890   71.9410  224.7480 N   0  0  0  0  0  0  0  0  0  0  0  0
  139.5380   73.8860  223.2570 H   0  0  0  0  0  0  0  0  0  0  0  0
  140.1527   73.4905  220.3339 H   0  0  0  0  0  0  0  0  0  0  0  0
  138.9990   74.7920  221.0532 H   0  0  0  0  0  0  0  0  0  0  0  0
  140.0185   77.2874  218.9439 H   0  0  0  0  0  0  0  0  0  0  0  0
  141.3895   78.0305  219.7324 H   0  0  0  0  0  0  0  0  0  0  0  0
  142.1297   78.1069  217.3676 H   0  0  0  0  0  0  0  0  0  0  0  0
  140.3050   76.0980  217.1170 H   0  0  0  0  0  0  0  0  0  0  0  0
  143.5750   75.8487  217.2173 H   0  0  0  0  0  0  0  0  0  0  0  0
  143.8651   76.7303  218.6761 H   0  0  0  0  0  0  0  0  0  0  0  0
  141.8751   74.4187  218.1821 H   0  0  0  0  0  0  0  0  0  0  0  0
  142.1064   72.4752  219.5099 H   0  0  0  0  0  0  0  0  0  0  0  0
  143.7830   71.1984  220.8777 H   0  0  0  0  0  0  0  0  0  0  0  0
  145.8078   72.2898  221.7307 H   0  0  0  0  0  0  0  0  0  0  0  0
  146.2571   74.6890  221.2683 H   0  0  0  0  0  0  0  0  0  0  0  0
  144.6144   75.9684  219.9198 H   0  0  0  0  0  0  0  0  0  0  0  0
  139.5118   69.7124  222.4915 H   0  0  0  0  0  0  0  0  0  0  0  0
  139.3877   68.2828  224.5349 H   0  0  0  0  0  0  0  0  0  0  0  0
  140.4515   69.0050  229.0819 H   0  0  0  0  0  0  0  0  0  0  0  0
  141.2749   71.3425  229.1650 H   0  0  0  0  0  0  0  0  0  0  0  0
  141.3860   72.7238  227.1312 H   0  0  0  0  0  0  0  0  0  0  0  0
  1  2  2  0
  2  3  1  0
  3  4  1  0
  4  5  1  0
  5  6  2  0
  5  7  1  0
  7  8  1  0
  8  9  1  0
  9 10  1  0
  9 11  1  0
 11 12  1  0
 12 13  1  0
 13 14  2  0
 14 15  1  0
 15 16  2  0
 16 17  1  0
 17 18  2  0
  2 19  1  0
 19 20  2  0
 20 21  1  0
 21 22  2  0
 22 23  1  0
 23 24  1  0
 23 25  2  0
 25 26  1  0
 26 27  2  0
 27 28  1  0
 28 29  2  0
 12  7  1  0
 18 13  1  0
 29 19  1  0
 28 22  1  0
  3 30  1  0
  4 31  1  0
  4 32  1  0
  8 33  1  0
  8 34  1  0
  9 35  1  6
 10 36  1  0
 11 37  1  0
 11 38  1  0
 12 39  1  6
 14 40  1  0
 15 41  1  0
 16 42  1  0
 17 43  1  0
 18 44  1  0
 20 45  1  0
 21 46  1  0
 25 47  1  0
 26 48  1  0
 27 49  1  0
M  END
>  <smiles>  (31) 
O=C(NCC(=O)N1C[C@H](O)C[C@H]1c1ccccc1)c1ccc2c(Cl)cccc2n1

>  <score_type>  (31) 
oracle

>  <origin>  (31) 
autodockgpu

>  <m_score__min__energy>  (31) 
-8.8900000000000006

>  <m_primary>  (31) 
energy

>  <rmsd>  (31) 
2.102747221195393

>  <m_score__min__rmsd>  (31) 
2.102747221195393

>  <meeko>  (31) 
{"free_energy": -8.15, "intermolecular_energy": -9.94, "internal_energy": -1.81, "cluster_size": 7, "cluster_id": 3, "rank_in_cluster": 5}

>  <energy>  (31) 
-7.58

>  <cluster_rmsd>  (31) 
0.0

>  <cluster>  (31) 
5

$$$$

     RDKit          3D

 49 52  0  0  0  0  0  0  0  0999 V2000
  141.4030   71.8970  221.5530 O   0  0  0  0  0  0  0  0  0  0  0  0
  140.6060   72.1990  222.4790 C   0  0  0  0  0  0  0  0  0  0  0  0
  139.8380   73.4300  222.3180 N   0  0  0  0  0  0  0  0  0  0  0  0
  140.0770   74.1530  221.1230 C   0  0  0  0  0  0  0  0  0  0  0  0
  140.9600   75.3100  221.1270 C   0  0  0  0  0  0  0  0  0  0  0  0
  141.3870   75.6330  222.3180 O   0  0  0  0  0  0  0  0  0  0  0  0
  141.4070   76.1100  220.0370 N   0  0  0  0  0  0  0  0  0  0  0  0
  141.1070   77.4910  219.7140 C   0  0  0  0  0  0  0  0  0  0  0  0
  141.8230   77.6810  218.3560 C   0  0  2  0  0  0  0  0  0  0  0  0
  141.0280   77.3340  217.2940 O   0  0  0  0  0  0  0  0  0  0  0  0
  143.0150   76.7210  218.4900 C   0  0  0  0  0  0  0  0  0  0  0  0
  142.3130   75.5260  219.0280 C   0  0  1  0  0  0  0  0  0  0  0  0
  143.2370   74.5230  219.6090 C   0  0  0  0  0  0  0  0  0  0  0  0
  144.3350   74.8900  220.3580 C   0  0  0  0  0  0  0  0  0  0  0  0
  145.1340   73.8550  220.8540 C   0  0  0  0  0  0  0  0  0  0  0  0
  144.8350   72.5350  220.6060 C   0  0  0  0  0  0  0  0  0  0  0  0
  143.7350   72.1790  219.8560 C   0  0  0  0  0  0  0  0  0  0  0  0
  142.9410   73.1840  219.3620 C   0  0  0  0  0  0  0  0  0  0  0  0
  140.4230   71.3930  223.6780 C   0  0  0  0  0  0  0  0  0  0  0  0
  139.9180   70.1210  223.5040 C   0  0  0  0  0  0  0  0  0  0  0  0
  139.7210   69.3030  224.5980 C   0  0  0  0  0  0  0  0  0  0  0  0
  140.0430   69.8040  225.8570 C   0  0  0  0  0  0  0  0  0  0  0  0
  139.8530   69.0050  226.9580 C   0  0  0  0  0  0  0  0  0  0  0  0
  139.2190   67.3990  226.7670 Cl  0  0  0  0  0  0  0  0  0  0  0  0
  140.1670   69.4790  228.2280 C   0  0  0  0  0  0  0  0  0  0  0  0
  140.6670   70.7570  228.3410 C   0  0  0  0  0  0  0  0  0  0  0  0
  140.8580   71.5580  227.2380 C   0  0  0  0  0  0  0  0  0  0  0  0
  140.5430   71.0800  225.9680 C   0  0  0  0  0  0  0  0  0  0  0  0
  140.7380   71.8810  224.9060 N   0  0  0  0  0  0  0  0  0  0  0  0
  139.2060   73.6290  223.1010 H   0  0  0  0  0  0  0  0  0  0  0  0
  140.4966   73.4381  220.4000 H   0  0  0  0  0  0  0  0  0  0  0  0
  139.0938   74.5912  220.8965 H   0  0  0  0  0  0  0  0  0  0  0  0
  140.0229   77.6501  219.6174 H   0  0  0  0  0  0  0  0  0  0  0  0
  141.4350   78.2028  220.4858 H   0  0  0  0  0  0  0  0  0  0  0  0
  142.1017   78.7263  218.1569 H   0  0  0  0  0  0  0  0  0  0  0  0
  140.1230   77.0560  217.5890 H   0  0  0  0  0  0  0  0  0  0  0  0
  143.4871   76.5158  217.5179 H   0  0  0  0  0  0  0  0  0  0  0  0
  143.8459   77.0919  219.1081 H   0  0  0  0  0  0  0  0  0  0  0  0
  141.7867   74.9551  218.2488 H   0  0  0  0  0  0  0  0  0  0  0  0
  144.5711   75.9460  220.5558 H   0  0  0  0  0  0  0  0  0  0  0  0
  146.0212   74.1016  221.4558 H   0  0  0  0  0  0  0  0  0  0  0  0
  145.4867   71.7485  221.0144 H   0  0  0  0  0  0  0  0  0  0  0  0
  143.5005   71.1224  219.6593 H   0  0  0  0  0  0  0  0  0  0  0  0
  142.0560   72.9279  218.7610 H   0  0  0  0  0  0  0  0  0  0  0  0
  139.6727   69.7592  222.4946 H   0  0  0  0  0  0  0  0  0  0  0  0
  139.3213   68.2851  224.4791 H   0  0  0  0  0  0  0  0  0  0  0  0
  140.0197   68.8495  229.1180 H   0  0  0  0  0  0  0  0  0  0  0  0
  140.9201   71.1476  229.3377 H   0  0  0  0  0  0  0  0  0  0  0  0
  141.2592   72.5750  227.3593 H   0  0  0  0  0  0  0  0  0  0  0  0
  1  2  2  0
  2  3  1  0
  3  4  1  0
  4  5  1  0
  5  6  2  0
  5  7  1  0
  7  8  1  0
  8  9  1  0
  9 10  1  0
  9 11  1  0
 11 12  1  0
 12 13  1  0
 13 14  2  0
 14 15  1  0
 15 16  2  0
 16 17  1  0
 17 18  2  0
  2 19  1  0
 19 20  2  0
 20 21  1  0
 21 22  2  0
 22 23  1  0
 23 24  1  0
 23 25  2  0
 25 26  1  0
 26 27  2  0
 27 28  1  0
 28 29  2  0
 12  7  1  0
 18 13  1  0
 29 19  1  0
 28 22  1  0
  3 30  1  0
  4 31  1  0
  4 32  1  0
  8 33  1  0
  8 34  1  0
  9 35  1  6
 10 36  1  0
 11 37  1  0
 11 38  1  0
 12 39  1  6
 14 40  1  0
 15 41  1  0
 16 42  1  0
 17 43  1  0
 18 44  1  0
 20 45  1  0
 21 46  1  0
 25 47  1  0
 26 48  1  0
 27 49  1  0
M  END
>  <smiles>  (32) 
O=C(NCC(=O)N1C[C@H](O)C[C@H]1c1ccccc1)c1ccc2c(Cl)cccc2n1

>  <score_type>  (32) 
oracle

>  <origin>  (32) 
autodockgpu

>  <m_score__min__energy>  (32) 
-8.8900000000000006

>  <m_primary>  (32) 
energy

>  <rmsd>  (32) 
2.1934872260737457

>  <m_score__min__rmsd>  (32) 
2.1934872260737457

>  <meeko>  (32) 
{"free_energy": -8.16, "intermolecular_energy": -9.95, "internal_energy": -1.7, "cluster_size": 7, "cluster_id": 3, "rank_in_cluster": 4}

>  <energy>  (32) 
-7.58

>  <cluster_rmsd>  (32) 
0.16

>  <cluster>  (32) 
5

$$$$

     RDKit          3D

 49 52  0  0  0  0  0  0  0  0999 V2000
  141.1500   71.6740  221.3820 O   0  0  0  0  0  0  0  0  0  0  0  0
  140.5610   72.1140  222.4040 C   0  0  0  0  0  0  0  0  0  0  0  0
  140.0420   73.4760  222.3360 N   0  0  0  0  0  0  0  0  0  0  0  0
  140.2600   74.1580  221.1120 C   0  0  0  0  0  0  0  0  0  0  0  0
  140.9570   75.4350  221.0950 C   0  0  0  0  0  0  0  0  0  0  0  0
  141.1460   75.9390  222.2850 O   0  0  0  0  0  0  0  0  0  0  0  0
  141.4460   76.1840  219.9870 N   0  0  0  0  0  0  0  0  0  0  0  0
  141.2130   77.5670  219.6250 C   0  0  0  0  0  0  0  0  0  0  0  0
  141.9440   77.6860  218.2660 C   0  0  2  0  0  0  0  0  0  0  0  0
  141.1390   77.3470  217.2090 O   0  0  0  0  0  0  0  0  0  0  0  0
  143.0890   76.6760  218.4340 C   0  0  0  0  0  0  0  0  0  0  0  0
  142.3300   75.5300  219.0000 C   0  0  1  0  0  0  0  0  0  0  0  0
  143.2030   74.5010  219.6140 C   0  0  0  0  0  0  0  0  0  0  0  0
  144.2870   74.8380  220.3960 C   0  0  0  0  0  0  0  0  0  0  0  0
  145.0370   73.7820  220.9220 C   0  0  0  0  0  0  0  0  0  0  0  0
  144.7060   72.4700  220.6690 C   0  0  0  0  0  0  0  0  0  0  0  0
  143.6200   72.1440  219.8860 C   0  0  0  0  0  0  0  0  0  0  0  0
  142.8740   73.1710  219.3630 C   0  0  0  0  0  0  0  0  0  0  0  0
  140.3820   71.3400  223.6240 C   0  0  0  0  0  0  0  0  0  0  0  0
  139.9050   70.0530  223.4830 C   0  0  0  0  0  0  0  0  0  0  0  0
  139.7130   69.2640  224.5990 C   0  0  0  0  0  0  0  0  0  0  0  0
  140.0120   69.8080  225.8460 C   0  0  0  0  0  0  0  0  0  0  0  0
  139.8260   69.0390  226.9680 C   0  0  0  0  0  0  0  0  0  0  0  0
  139.2260   67.4150  226.8190 Cl  0  0  0  0  0  0  0  0  0  0  0  0
  140.1160   69.5560  228.2260 C   0  0  0  0  0  0  0  0  0  0  0  0
  140.5900   70.8470  228.3060 C   0  0  0  0  0  0  0  0  0  0  0  0
  140.7760   71.6190  227.1820 C   0  0  0  0  0  0  0  0  0  0  0  0
  140.4850   71.0970  225.9240 C   0  0  0  0  0  0  0  0  0  0  0  0
  140.6740   71.8710  224.8400 N   0  0  0  0  0  0  0  0  0  0  0  0
  139.5740   73.7840  223.1950 H   0  0  0  0  0  0  0  0  0  0  0  0
  140.8351   73.4759  220.4686 H   0  0  0  0  0  0  0  0  0  0  0  0
  139.2422   74.4260  220.7921 H   0  0  0  0  0  0  0  0  0  0  0  0
  140.1380   77.7740  219.5175 H   0  0  0  0  0  0  0  0  0  0  0  0
  141.5705   78.2836  220.3791 H   0  0  0  0  0  0  0  0  0  0  0  0
  142.2719   78.7113  218.0398 H   0  0  0  0  0  0  0  0  0  0  0  0
  140.4770   78.0570  217.0090 H   0  0  0  0  0  0  0  0  0  0  0  0
  143.5561   76.4224  217.4709 H   0  0  0  0  0  0  0  0  0  0  0  0
  143.9329   77.0251  219.0472 H   0  0  0  0  0  0  0  0  0  0  0  0
  141.7822   74.9623  218.2334 H   0  0  0  0  0  0  0  0  0  0  0  0
  144.5493   75.8873  220.5965 H   0  0  0  0  0  0  0  0  0  0  0  0
  145.9109   74.0044  221.5519 H   0  0  0  0  0  0  0  0  0  0  0  0
  145.3205   71.6661  221.1004 H   0  0  0  0  0  0  0  0  0  0  0  0
  143.3591   71.0942  219.6863 H   0  0  0  0  0  0  0  0  0  0  0  0
  142.0012   72.9395  218.7348 H   0  0  0  0  0  0  0  0  0  0  0  0
  139.6780   69.6563  222.4824 H   0  0  0  0  0  0  0  0  0  0  0  0
  139.3348   68.2352  224.5064 H   0  0  0  0  0  0  0  0  0  0  0  0
  139.9708   68.9504  229.1327 H   0  0  0  0  0  0  0  0  0  0  0  0
  140.8257   71.2714  229.2931 H   0  0  0  0  0  0  0  0  0  0  0  0
  141.1542   72.6476  227.2771 H   0  0  0  0  0  0  0  0  0  0  0  0
  1  2  2  0
  2  3  1  0
  3  4  1  0
  4  5  1  0
  5  6  2  0
  5  7  1  0
  7  8  1  0
  8  9  1  0
  9 10  1  0
  9 11  1  0
 11 12  1  0
 12 13  1  0
 13 14  2  0
 14 15  1  0
 15 16  2  0
 16 17  1  0
 17 18  2  0
  2 19  1  0
 19 20  2  0
 20 21  1  0
 21 22  2  0
 22 23  1  0
 23 24  1  0
 23 25  2  0
 25 26  1  0
 26 27  2  0
 27 28  1  0
 28 29  2  0
 12  7  1  0
 18 13  1  0
 29 19  1  0
 28 22  1  0
  3 30  1  0
  4 31  1  0
  4 32  1  0
  8 33  1  0
  8 34  1  0
  9 35  1  6
 10 36  1  0
 11 37  1  0
 11 38  1  0
 12 39  1  6
 14 40  1  0
 15 41  1  0
 16 42  1  0
 17 43  1  0
 18 44  1  0
 20 45  1  0
 21 46  1  0
 25 47  1  0
 26 48  1  0
 27 49  1  0
M  END
>  <smiles>  (33) 
O=C(NCC(=O)N1C[C@H](O)C[C@H]1c1ccccc1)c1ccc2c(Cl)cccc2n1

>  <score_type>  (33) 
oracle

>  <origin>  (33) 
autodockgpu

>  <m_score__min__energy>  (33) 
-8.8900000000000006

>  <m_primary>  (33) 
energy

>  <rmsd>  (33) 
2.2334427664816

>  <m_score__min__rmsd>  (33) 
2.2334427664816

>  <meeko>  (33) 
{"free_energy": -8.08, "intermolecular_energy": -9.87, "internal_energy": -1.77, "cluster_size": 7, "cluster_id": 3, "rank_in_cluster": 7}

>  <energy>  (33) 
-7.5

>  <cluster_rmsd>  (33) 
0.0

>  <cluster>  (33) 
6

$$$$

     RDKit          3D

 49 52  0  0  0  0  0  0  0  0999 V2000
  139.4940   71.3690  220.9290 O   0  0  0  0  0  0  0  0  0  0  0  0
  139.5910   71.9600  222.0360 C   0  0  0  0  0  0  0  0  0  0  0  0
  139.4640   73.4130  222.0270 N   0  0  0  0  0  0  0  0  0  0  0  0
  139.2420   74.0040  220.7570 C   0  0  0  0  0  0  0  0  0  0  0  0
  140.3050   74.0350  219.7640 C   0  0  0  0  0  0  0  0  0  0  0  0
  139.9520   74.6070  218.6450 O   0  0  0  0  0  0  0  0  0  0  0  0
  141.6370   73.5410  219.8490 N   0  0  0  0  0  0  0  0  0  0  0  0
  142.1680   72.2360  219.5070 C   0  0  0  0  0  0  0  0  0  0  0  0
  143.6460   72.3490  219.9500 C   0  0  2  0  0  0  0  0  0  0  0  0
  143.8260   72.0000  221.2640 O   0  0  0  0  0  0  0  0  0  0  0  0
  143.9280   73.8430  219.7320 C   0  0  0  0  0  0  0  0  0  0  0  0
  142.7090   74.4200  220.3580 C   0  0  1  0  0  0  0  0  0  0  0  0
  142.4910   75.8430  220.0020 C   0  0  0  0  0  0  0  0  0  0  0  0
  141.7220   76.6810  220.7830 C   0  0  0  0  0  0  0  0  0  0  0  0
  141.5880   78.0020  220.3460 C   0  0  0  0  0  0  0  0  0  0  0  0
  142.1960   78.4420  219.1930 C   0  0  0  0  0  0  0  0  0  0  0  0
  142.9620   77.5970  218.4200 C   0  0  0  0  0  0  0  0  0  0  0  0
  143.1030   76.2960  218.8360 C   0  0  0  0  0  0  0  0  0  0  0  0
  139.8200   71.2700  223.2980 C   0  0  0  0  0  0  0  0  0  0  0  0
  139.5530   69.9170  223.3270 C   0  0  0  0  0  0  0  0  0  0  0  0
  139.7500   69.2010  224.4910 C   0  0  0  0  0  0  0  0  0  0  0  0
  140.2170   69.8860  225.6100 C   0  0  0  0  0  0  0  0  0  0  0  0
  140.4180   69.1910  226.7780 C   0  0  0  0  0  0  0  0  0  0  0  0
  140.0900   67.4870  226.8430 Cl  0  0  0  0  0  0  0  0  0  0  0  0
  140.8850   69.8490  227.9110 C   0  0  0  0  0  0  0  0  0  0  0  0
  141.1340   71.2010  227.8230 C   0  0  0  0  0  0  0  0  0  0  0  0
  140.9330   71.8980  226.6540 C   0  0  0  0  0  0  0  0  0  0  0  0
  140.4660   71.2360  225.5210 C   0  0  0  0  0  0  0  0  0  0  0  0
  140.2770   71.9380  224.3890 N   0  0  0  0  0  0  0  0  0  0  0  0
  139.5510   73.8430  222.9540 H   0  0  0  0  0  0  0  0  0  0  0  0
  138.3992   73.4643  220.3006 H   0  0  0  0  0  0  0  0  0  0  0  0
  139.0969   75.0671  220.9993 H   0  0  0  0  0  0  0  0  0  0  0  0
  141.6478   71.4384  220.0578 H   0  0  0  0  0  0  0  0  0  0  0  0
  142.0473   71.9783  218.4445 H   0  0  0  0  0  0  0  0  0  0  0  0
  144.3155   71.6745  219.3961 H   0  0  0  0  0  0  0  0  0  0  0  0
  144.7820   71.8440  221.4740 H   0  0  0  0  0  0  0  0  0  0  0  0
  144.8450   74.1663  220.2463 H   0  0  0  0  0  0  0  0  0  0  0  0
  144.1003   74.1380  218.6864 H   0  0  0  0  0  0  0  0  0  0  0  0
  142.7669   74.4459  221.4562 H   0  0  0  0  0  0  0  0  0  0  0  0
  141.2378   76.3267  221.7050 H   0  0  0  0  0  0  0  0  0  0  0  0
  140.9830   78.7053  220.9371 H   0  0  0  0  0  0  0  0  0  0  0  0
  142.0680   79.4893  218.8820 H   0  0  0  0  0  0  0  0  0  0  0  0
  143.4455   77.9534  217.4985 H   0  0  0  0  0  0  0  0  0  0  0  0
  143.7096   75.5999  218.2381 H   0  0  0  0  0  0  0  0  0  0  0  0
  139.1836   69.4091  222.4239 H   0  0  0  0  0  0  0  0  0  0  0  0
  139.5441   68.1213  224.5332 H   0  0  0  0  0  0  0  0  0  0  0  0
  141.0510   69.3043  228.8521 H   0  0  0  0  0  0  0  0  0  0  0  0
  141.5029   71.7369  228.7099 H   0  0  0  0  0  0  0  0  0  0  0  0
  141.1410   72.9774  226.6142 H   0  0  0  0  0  0  0  0  0  0  0  0
  1  2  2  0
  2  3  1  0
  3  4  1  0
  4  5  1  0
  5  6  2  0
  5  7  1  0
  7  8  1  0
  8  9  1  0
  9 10  1  0
  9 11  1  0
 11 12  1  0
 12 13  1  0
 13 14  2  0
 14 15  1  0
 15 16  2  0
 16 17  1  0
 17 18  2  0
  2 19  1  0
 19 20  2  0
 20 21  1  0
 21 22  2  0
 22 23  1  0
 23 24  1  0
 23 25  2  0
 25 26  1  0
 26 27  2  0
 27 28  1  0
 28 29  2  0
 12  7  1  0
 18 13  1  0
 29 19  1  0
 28 22  1  0
  3 30  1  0
  4 31  1  0
  4 32  1  0
  8 33  1  0
  8 34  1  0
  9 35  1  6
 10 36  1  0
 11 37  1  0
 11 38  1  0
 12 39  1  1
 14 40  1  0
 15 41  1  0
 16 42  1  0
 17 43  1  0
 18 44  1  0
 20 45  1  0
 21 46  1  0
 25 47  1  0
 26 48  1  0
 27 49  1  0
M  END
>  <smiles>  (34) 
O=C(NCC(=O)N1C[C@H](O)C[C@H]1c1ccccc1)c1ccc2c(Cl)cccc2n1

>  <score_type>  (34) 
oracle

>  <origin>  (34) 
autodockgpu

>  <m_score__min__energy>  (34) 
-8.8900000000000006

>  <m_primary>  (34) 
energy

>  <rmsd>  (34) 
2.7810664764615436

>  <m_score__min__rmsd>  (34) 
2.7810664764615436

>  <meeko>  (34) 
{"free_energy": -7.62, "intermolecular_energy": -9.41, "internal_energy": -1.88, "cluster_size": 13, "cluster_id": 2, "rank_in_cluster": 10}

>  <energy>  (34) 
-7.47

>  <cluster_rmsd>  (34) 
0.37

>  <cluster>  (34) 
6

$$$$

     RDKit          3D

 49 52  0  0  0  0  0  0  0  0999 V2000
  138.9530   71.3460  220.9790 O   0  0  0  0  0  0  0  0  0  0  0  0
  139.1180   71.9290  222.0820 C   0  0  0  0  0  0  0  0  0  0  0  0
  138.9550   73.3790  222.0980 N   0  0  0  0  0  0  0  0  0  0  0  0
  138.6230   73.9750  220.8550 C   0  0  0  0  0  0  0  0  0  0  0  0
  139.6680   74.3430  219.9130 C   0  0  0  0  0  0  0  0  0  0  0  0
  139.2300   75.0360  218.8970 O   0  0  0  0  0  0  0  0  0  0  0  0
  141.0620   74.0560  219.9510 N   0  0  0  0  0  0  0  0  0  0  0  0
  141.8410   73.1220  219.1620 C   0  0  0  0  0  0  0  0  0  0  0  0
  143.2480   73.2390  219.7950 C   0  0  2  0  0  0  0  0  0  0  0  0
  143.4180   72.3810  220.8510 O   0  0  0  0  0  0  0  0  0  0  0  0
  143.2610   74.7020  220.2650 C   0  0  0  0  0  0  0  0  0  0  0  0
  141.9250   74.7680  220.9150 C   0  0  1  0  0  0  0  0  0  0  0  0
  141.4700   76.1560  221.1670 C   0  0  0  0  0  0  0  0  0  0  0  0
  141.7810   77.1920  220.3110 C   0  0  0  0  0  0  0  0  0  0  0  0
  141.2960   78.4580  220.6530 C   0  0  0  0  0  0  0  0  0  0  0  0
  140.5430   78.6570  221.7880 C   0  0  0  0  0  0  0  0  0  0  0  0
  140.2380   77.6140  222.6360 C   0  0  0  0  0  0  0  0  0  0  0  0
  140.7080   76.3650  222.3140 C   0  0  0  0  0  0  0  0  0  0  0  0
  139.4600   71.2340  223.3150 C   0  0  0  0  0  0  0  0  0  0  0  0
  139.2530   69.8700  223.3410 C   0  0  0  0  0  0  0  0  0  0  0  0
  139.5560   69.1490  224.4780 C   0  0  0  0  0  0  0  0  0  0  0  0
  140.0670   69.8390  225.5750 C   0  0  0  0  0  0  0  0  0  0  0  0
  140.3740   69.1390  226.7150 C   0  0  0  0  0  0  0  0  0  0  0  0
  140.1230   67.4210  226.7760 Cl  0  0  0  0  0  0  0  0  0  0  0  0
  140.8870   69.8020  227.8260 C   0  0  0  0  0  0  0  0  0  0  0  0
  141.0730   71.1650  227.7420 C   0  0  0  0  0  0  0  0  0  0  0  0
  140.7660   71.8670  226.6000 C   0  0  0  0  0  0  0  0  0  0  0  0
  140.2530   71.2000  225.4900 C   0  0  0  0  0  0  0  0  0  0  0  0
  139.9590   71.9070  224.3840 N   0  0  0  0  0  0  0  0  0  0  0  0
  139.1020   73.8020  223.0210 H   0  0  0  0  0  0  0  0  0  0  0  0
  137.9618   73.2680  220.3326 H   0  0  0  0  0  0  0  0  0  0  0  0
  138.2011   74.9470  221.1503 H   0  0  0  0  0  0  0  0  0  0  0  0
  141.4475   72.0990  219.2545 H   0  0  0  0  0  0  0  0  0  0  0  0
  141.8261   73.3404  218.0840 H   0  0  0  0  0  0  0  0  0  0  0  0
  144.0587   72.9774  219.0991 H   0  0  0  0  0  0  0  0  0  0  0  0
  142.5500   72.0720  221.2150 H   0  0  0  0  0  0  0  0  0  0  0  0
  144.0743   74.8952  220.9800 H   0  0  0  0  0  0  0  0  0  0  0  0
  143.4310   75.4451  219.4720 H   0  0  0  0  0  0  0  0  0  0  0  0
  141.9174   74.3202  221.9197 H   0  0  0  0  0  0  0  0  0  0  0  0
  142.3813   77.0301  219.4036 H   0  0  0  0  0  0  0  0  0  0  0  0
  141.5213   79.3143  220.0003 H   0  0  0  0  0  0  0  0  0  0  0  0
  140.1777   79.6677  222.0227 H   0  0  0  0  0  0  0  0  0  0  0  0
  139.6367   77.7774  223.5425 H   0  0  0  0  0  0  0  0  0  0  0  0
  140.4788   75.5147  222.9731 H   0  0  0  0  0  0  0  0  0  0  0  0
  138.8469   69.3578  222.4563 H   0  0  0  0  0  0  0  0  0  0  0  0
  139.3986   68.0610  224.5169 H   0  0  0  0  0  0  0  0  0  0  0  0
  141.1371   69.2532  228.7459 H   0  0  0  0  0  0  0  0  0  0  0  0
  141.4774   71.7052  228.6107 H   0  0  0  0  0  0  0  0  0  0  0  0
  140.9255   72.9547  226.5632 H   0  0  0  0  0  0  0  0  0  0  0  0
  1  2  2  0
  2  3  1  0
  3  4  1  0
  4  5  1  0
  5  6  2  0
  5  7  1  0
  7  8  1  0
  8  9  1  0
  9 10  1  0
  9 11  1  0
 11 12  1  0
 12 13  1  0
 13 14  2  0
 14 15  1  0
 15 16  2  0
 16 17  1  0
 17 18  2  0
  2 19  1  0
 19 20  2  0
 20 21  1  0
 21 22  2  0
 22 23  1  0
 23 24  1  0
 23 25  2  0
 25 26  1  0
 26 27  2  0
 27 28  1  0
 28 29  2  0
 12  7  1  0
 18 13  1  0
 29 19  1  0
 28 22  1  0
  3 30  1  0
  4 31  1  0
  4 32  1  0
  8 33  1  0
  8 34  1  0
  9 35  1  6
 10 36  1  0
 11 37  1  0
 11 38  1  0
 12 39  1  1
 14 40  1  0
 15 41  1  0
 16 42  1  0
 17 43  1  0
 18 44  1  0
 20 45  1  0
 21 46  1  0
 25 47  1  0
 26 48  1  0
 27 49  1  0
M  END
>  <smiles>  (35) 
O=C(NCC(=O)N1C[C@H](O)C[C@H]1c1ccccc1)c1ccc2c(Cl)cccc2n1

>  <score_type>  (35) 
oracle

>  <origin>  (35) 
autodockgpu

>  <m_score__min__energy>  (35) 
-8.8900000000000006

>  <m_primary>  (35) 
energy

>  <rmsd>  (35) 
2.3026549638845712

>  <m_score__min__rmsd>  (35) 
2.3026549638845712

>  <meeko>  (35) 
{"free_energy": -7.24, "intermolecular_energy": -9.03, "internal_energy": -2.01, "cluster_size": 7, "cluster_id": 1, "rank_in_cluster": 7}

>  <energy>  (35) 
-7.47

>  <cluster_rmsd>  (35) 
0.39

>  <cluster>  (35) 
6

$$$$

     RDKit          3D

 49 52  0  0  0  0  0  0  0  0999 V2000
  139.0570   74.6570  221.5290 O   0  0  0  0  0  0  0  0  0  0  0  0
  140.1000   75.3170  221.7760 C   0  0  0  0  0  0  0  0  0  0  0  0
  141.3770   74.6510  221.5410 N   0  0  0  0  0  0  0  0  0  0  0  0
  141.2990   73.3220  221.0550 C   0  0  0  0  0  0  0  0  0  0  0  0
  142.2250   72.8550  220.0340 C   0  0  0  0  0  0  0  0  0  0  0  0
  141.6310   72.4100  218.9600 O   0  0  0  0  0  0  0  0  0  0  0  0
  143.6480   72.8220  220.0520 N   0  0  0  0  0  0  0  0  0  0  0  0
  144.5510   71.6900  220.1230 C   0  0  0  0  0  0  0  0  0  0  0  0
  145.9370   72.3720  220.2160 C   0  0  2  0  0  0  0  0  0  0  0  0
  146.2960   72.6500  221.5100 O   0  0  0  0  0  0  0  0  0  0  0  0
  145.7080   73.6630  219.4170 C   0  0  0  0  0  0  0  0  0  0  0  0
  144.4060   74.0880  219.9970 C   0  0  1  0  0  0  0  0  0  0  0  0
  143.7210   75.1250  219.1890 C   0  0  0  0  0  0  0  0  0  0  0  0
  143.2650   76.3010  219.7470 C   0  0  0  0  0  0  0  0  0  0  0  0
  142.6330   77.2030  218.8850 C   0  0  0  0  0  0  0  0  0  0  0  0
  142.4770   76.9280  217.5460 C   0  0  0  0  0  0  0  0  0  0  0  0
  142.9360   75.7500  216.9990 C   0  0  0  0  0  0  0  0  0  0  0  0
  143.5580   74.8540  217.8320 C   0  0  0  0  0  0  0  0  0  0  0  0
  140.0870   76.6850  222.2750 C   0  0  0  0  0  0  0  0  0  0  0  0
  138.8560   77.2250  222.5830 C   0  0  0  0  0  0  0  0  0  0  0  0
  138.7720   78.5170  223.0620 C   0  0  0  0  0  0  0  0  0  0  0  0
  139.9540   79.2370  223.2170 C   0  0  0  0  0  0  0  0  0  0  0  0
  139.8900   80.5240  223.6910 C   0  0  0  0  0  0  0  0  0  0  0  0
  138.3530   81.2300  224.0870 Cl  0  0  0  0  0  0  0  0  0  0  0  0
  141.0550   81.2670  223.8560 C   0  0  0  0  0  0  0  0  0  0  0  0
  142.2560   80.6750  223.5310 C   0  0  0  0  0  0  0  0  0  0  0  0
  142.3210   79.3860  223.0560 C   0  0  0  0  0  0  0  0  0  0  0  0
  141.1530   78.6450  222.8930 C   0  0  0  0  0  0  0  0  0  0  0  0
  141.2410   77.3870  222.4260 N   0  0  0  0  0  0  0  0  0  0  0  0
  142.1930   75.2320  221.7590 H   0  0  0  0  0  0  0  0  0  0  0  0
  141.4277   72.6602  221.9241 H   0  0  0  0  0  0  0  0  0  0  0  0
  140.3287   73.3037  220.5370 H   0  0  0  0  0  0  0  0  0  0  0  0
  144.3496   71.0761  221.0133 H   0  0  0  0  0  0  0  0  0  0  0  0
  144.4579   71.0008  219.2707 H   0  0  0  0  0  0  0  0  0  0  0  0
  146.7551   71.7421  219.8366 H   0  0  0  0  0  0  0  0  0  0  0  0
  146.0420   71.9170  222.1270 H   0  0  0  0  0  0  0  0  0  0  0  0
  146.4997   74.4043  219.6006 H   0  0  0  0  0  0  0  0  0  0  0  0
  145.7146   73.5424  218.3237 H   0  0  0  0  0  0  0  0  0  0  0  0
  144.5154   74.5728  220.9783 H   0  0  0  0  0  0  0  0  0  0  0  0
  143.3922   76.5189  220.8177 H   0  0  0  0  0  0  0  0  0  0  0  0
  142.2521   78.1536  219.2866 H   0  0  0  0  0  0  0  0  0  0  0  0
  141.9758   77.6634  216.8994 H   0  0  0  0  0  0  0  0  0  0  0  0
  142.8080   75.5342  215.9280 H   0  0  0  0  0  0  0  0  0  0  0  0
  143.9344   73.9055  217.4212 H   0  0  0  0  0  0  0  0  0  0  0  0
  137.9426   76.6273  222.4472 H   0  0  0  0  0  0  0  0  0  0  0  0
  137.7994   78.9649  223.3140 H   0  0  0  0  0  0  0  0  0  0  0  0
  141.0181   82.2988  224.2355 H   0  0  0  0  0  0  0  0  0  0  0  0
  143.1867   81.2481  223.6547 H   0  0  0  0  0  0  0  0  0  0  0  0
  143.2949   78.9405  222.8049 H   0  0  0  0  0  0  0  0  0  0  0  0
  1  2  2  0
  2  3  1  0
  3  4  1  0
  4  5  1  0
  5  6  2  0
  5  7  1  0
  7  8  1  0
  8  9  1  0
  9 10  1  0
  9 11  1  0
 11 12  1  0
 12 13  1  0
 13 14  2  0
 14 15  1  0
 15 16  2  0
 16 17  1  0
 17 18  2  0
  2 19  1  0
 19 20  2  0
 20 21  1  0
 21 22  2  0
 22 23  1  0
 23 24  1  0
 23 25  2  0
 25 26  1  0
 26 27  2  0
 27 28  1  0
 28 29  2  0
 12  7  1  0
 18 13  1  0
 29 19  1  0
 28 22  1  0
  3 30  1  0
  4 31  1  0
  4 32  1  0
  8 33  1  0
  8 34  1  0
  9 35  1  6
 10 36  1  0
 11 37  1  0
 11 38  1  0
 12 39  1  1
 14 40  1  0
 15 41  1  0
 16 42  1  0
 17 43  1  0
 18 44  1  0
 20 45  1  0
 21 46  1  0
 25 47  1  0
 26 48  1  0
 27 49  1  0
M  END
>  <smiles>  (36) 
O=C(NCC(=O)N1C[C@H](O)C[C@H]1c1ccccc1)c1ccc2c(Cl)cccc2n1

>  <score_type>  (36) 
oracle

>  <origin>  (36) 
autodockgpu

>  <m_score__min__energy>  (36) 
-8.8900000000000006

>  <m_primary>  (36) 
energy

>  <rmsd>  (36) 
7.402587865104697

>  <m_score__min__rmsd>  (36) 
7.402587865104697

>  <meeko>  (36) 
{"free_energy": -7.21, "intermolecular_energy": -9.0, "internal_energy": -2.16, "cluster_size": 7, "cluster_id": 7, "rank_in_cluster": 4}

>  <energy>  (36) 
-7.46

>  <cluster_rmsd>  (36) 
0.32

>  <cluster>  (36) 
6

$$$$

     RDKit          3D

 49 52  0  0  0  0  0  0  0  0999 V2000
  140.4350   71.9110  221.2120 O   0  0  0  0  0  0  0  0  0  0  0  0
  139.7060   72.1240  222.2150 C   0  0  0  0  0  0  0  0  0  0  0  0
  138.6090   73.0710  222.0490 N   0  0  0  0  0  0  0  0  0  0  0  0
  138.4840   73.6500  220.7610 C   0  0  0  0  0  0  0  0  0  0  0  0
  139.5140   74.5430  220.2520 C   0  0  0  0  0  0  0  0  0  0  0  0
  139.0630   75.7260  219.9330 O   0  0  0  0  0  0  0  0  0  0  0  0
  140.9050   74.3040  220.0640 N   0  0  0  0  0  0  0  0  0  0  0  0
  141.5790   73.4410  219.1150 C   0  0  0  0  0  0  0  0  0  0  0  0
  143.0630   73.5750  219.5350 C   0  0  2  0  0  0  0  0  0  0  0  0
  143.4160   72.6710  220.5030 O   0  0  0  0  0  0  0  0  0  0  0  0
  143.1080   75.0110  220.0780 C   0  0  0  0  0  0  0  0  0  0  0  0
  141.8850   74.9960  220.9250 C   0  0  1  0  0  0  0  0  0  0  0  0
  141.4350   76.3520  221.3200 C   0  0  0  0  0  0  0  0  0  0  0  0
  140.6790   76.5680  222.4530 C   0  0  0  0  0  0  0  0  0  0  0  0
  140.3140   77.8900  222.7230 C   0  0  0  0  0  0  0  0  0  0  0  0
  140.6920   78.9240  221.8970 C   0  0  0  0  0  0  0  0  0  0  0  0
  141.4470   78.6970  220.7670 C   0  0  0  0  0  0  0  0  0  0  0  0
  141.8140   77.4030  220.4880 C   0  0  0  0  0  0  0  0  0  0  0  0
  139.9090   71.4820  223.5070 C   0  0  0  0  0  0  0  0  0  0  0  0
  139.5510   70.1540  223.6060 C   0  0  0  0  0  0  0  0  0  0  0  0
  139.7170   69.4840  224.8020 C   0  0  0  0  0  0  0  0  0  0  0  0
  140.2480   70.1880  225.8790 C   0  0  0  0  0  0  0  0  0  0  0  0
  140.4200   69.5390  227.0770 C   0  0  0  0  0  0  0  0  0  0  0  0
  139.9770   67.8660  227.2310 Cl  0  0  0  0  0  0  0  0  0  0  0  0
  140.9470   70.2180  228.1710 C   0  0  0  0  0  0  0  0  0  0  0  0
  141.2860   71.5440  228.0130 C   0  0  0  0  0  0  0  0  0  0  0  0
  141.1140   72.1950  226.8130 C   0  0  0  0  0  0  0  0  0  0  0  0
  140.5860   71.5120  225.7200 C   0  0  0  0  0  0  0  0  0  0  0  0
  140.4270   72.1700  224.5580 N   0  0  0  0  0  0  0  0  0  0  0  0
  138.0480   73.2080  222.8970 H   0  0  0  0  0  0  0  0  0  0  0  0
  138.4072   72.8171  220.0466 H   0  0  0  0  0  0  0  0  0  0  0  0
  137.6125   74.3123  220.8699 H   0  0  0  0  0  0  0  0  0  0  0  0
  141.2321   72.4012  219.2073 H   0  0  0  0  0  0  0  0  0  0  0  0
  141.3940   73.7143  218.0657 H   0  0  0  0  0  0  0  0  0  0  0  0
  143.7648   73.3777  218.7113 H   0  0  0  0  0  0  0  0  0  0  0  0
  142.6210   72.2420  220.9110 H   0  0  0  0  0  0  0  0  0  0  0  0
  144.0153   75.1962  220.6717 H   0  0  0  0  0  0  0  0  0  0  0  0
  143.1349   75.7992  219.3112 H   0  0  0  0  0  0  0  0  0  0  0  0
  142.0436   74.4976  221.8927 H   0  0  0  0  0  0  0  0  0  0  0  0
  140.3779   75.7403  223.1121 H   0  0  0  0  0  0  0  0  0  0  0  0
  139.7107   78.1090  223.6163 H   0  0  0  0  0  0  0  0  0  0  0  0
  140.3855   79.9512  222.1437 H   0  0  0  0  0  0  0  0  0  0  0  0
  141.7465   79.5260  220.1089 H   0  0  0  0  0  0  0  0  0  0  0  0
  142.4173   77.1932  219.5925 H   0  0  0  0  0  0  0  0  0  0  0  0
  139.1339   69.6293  222.7338 H   0  0  0  0  0  0  0  0  0  0  0  0
  139.4377   68.4246  224.9007 H   0  0  0  0  0  0  0  0  0  0  0  0
  141.0892   69.7098  229.1362 H   0  0  0  0  0  0  0  0  0  0  0  0
  141.7046   72.0960  228.8674 H   0  0  0  0  0  0  0  0  0  0  0  0
  141.3934   73.2546  226.7169 H   0  0  0  0  0  0  0  0  0  0  0  0
  1  2  2  0
  2  3  1  0
  3  4  1  0
  4  5  1  0
  5  6  2  0
  5  7  1  0
  7  8  1  0
  8  9  1  0
  9 10  1  0
  9 11  1  0
 11 12  1  0
 12 13  1  0
 13 14  2  0
 14 15  1  0
 15 16  2  0
 16 17  1  0
 17 18  2  0
  2 19  1  0
 19 20  2  0
 20 21  1  0
 21 22  2  0
 22 23  1  0
 23 24  1  0
 23 25  2  0
 25 26  1  0
 26 27  2  0
 27 28  1  0
 28 29  2  0
 12  7  1  0
 18 13  1  0
 29 19  1  0
 28 22  1  0
  3 30  1  0
  4 31  1  0
  4 32  1  0
  8 33  1  0
  8 34  1  0
  9 35  1  6
 10 36  1  0
 11 37  1  0
 11 38  1  0
 12 39  1  1
 14 40  1  0
 15 41  1  0
 16 42  1  0
 17 43  1  0
 18 44  1  0
 20 45  1  0
 21 46  1  0
 25 47  1  0
 26 48  1  0
 27 49  1  0
M  END
>  <smiles>  (37) 
O=C(NCC(=O)N1C[C@H](O)C[C@H]1c1ccccc1)c1ccc2c(Cl)cccc2n1

>  <score_type>  (37) 
oracle

>  <origin>  (37) 
autodockgpu

>  <m_score__min__energy>  (37) 
-8.8900000000000006

>  <m_primary>  (37) 
energy

>  <rmsd>  (37) 
2.1598364935726595

>  <m_score__min__rmsd>  (37) 
2.1598364935726595

>  <meeko>  (37) 
{"free_energy": -7.47, "intermolecular_energy": -9.26, "internal_energy": -2.18, "cluster_size": 7, "cluster_id": 1, "rank_in_cluster": 5}

>  <energy>  (37) 
-7.46

>  <cluster_rmsd>  (37) 
0.39

>  <cluster>  (37) 
6

$$$$

     RDKit          3D

 49 52  0  0  0  0  0  0  0  0999 V2000
  140.3860   76.1190  219.2370 O   0  0  0  0  0  0  0  0  0  0  0  0
  141.3300   76.7620  219.7640 C   0  0  0  0  0  0  0  0  0  0  0  0
  142.6810   76.4500  219.3090 N   0  0  0  0  0  0  0  0  0  0  0  0
  142.7790   75.4470  218.3130 C   0  0  0  0  0  0  0  0  0  0  0  0
  142.1000   74.1710  218.4830 C   0  0  0  0  0  0  0  0  0  0  0  0
  142.0660   73.4530  217.3930 O   0  0  0  0  0  0  0  0  0  0  0  0
  141.4880   73.6200  219.6440 N   0  0  0  0  0  0  0  0  0  0  0  0
  140.1100   73.2340  219.8740 C   0  0  0  0  0  0  0  0  0  0  0  0
  140.1200   72.8270  221.3670 C   0  0  2  0  0  0  0  0  0  0  0  0
  139.8880   73.8910  222.2000 O   0  0  0  0  0  0  0  0  0  0  0  0
  141.5510   72.2940  221.5390 C   0  0  0  0  0  0  0  0  0  0  0  0
  142.3050   73.3750  220.8500 C   0  0  1  0  0  0  0  0  0  0  0  0
  143.6990   72.9940  220.5230 C   0  0  0  0  0  0  0  0  0  0  0  0
  144.0040   71.7900  219.9230 C   0  0  0  0  0  0  0  0  0  0  0  0
  145.3550   71.5400  219.6630 C   0  0  0  0  0  0  0  0  0  0  0  0
  146.3300   72.4540  219.9900 C   0  0  0  0  0  0  0  0  0  0  0  0
  146.0150   73.6540  220.5890 C   0  0  0  0  0  0  0  0  0  0  0  0
  144.6920   73.9140  220.8510 C   0  0  0  0  0  0  0  0  0  0  0  0
  141.1360   77.7810  220.7870 C   0  0  0  0  0  0  0  0  0  0  0  0
  139.8410   78.0150  221.1970 C   0  0  0  0  0  0  0  0  0  0  0  0
  139.5860   78.9670  222.1640 C   0  0  0  0  0  0  0  0  0  0  0  0
  140.6660   79.6670  222.6950 C   0  0  0  0  0  0  0  0  0  0  0  0
  140.4330   80.6180  223.6570 C   0  0  0  0  0  0  0  0  0  0  0  0
  138.8110   80.9330  224.1930 Cl  0  0  0  0  0  0  0  0  0  0  0  0
  141.4930   81.3330  224.2060 C   0  0  0  0  0  0  0  0  0  0  0  0
  142.7660   81.0560  223.7570 C   0  0  0  0  0  0  0  0  0  0  0  0
  143.0010   80.1030  222.7930 C   0  0  0  0  0  0  0  0  0  0  0  0
  141.9370   79.3900  222.2460 C   0  0  0  0  0  0  0  0  0  0  0  0
  142.1910   78.4630  221.3050 N   0  0  0  0  0  0  0  0  0  0  0  0
  143.4110   77.0020  219.7720 H   0  0  0  0  0  0  0  0  0  0  0  0
  142.3934   75.8881  217.3820 H   0  0  0  0  0  0  0  0  0  0  0  0
  143.8427   75.1684  218.3450 H   0  0  0  0  0  0  0  0  0  0  0  0
  139.4262   74.0772  219.6965 H   0  0  0  0  0  0  0  0  0  0  0  0
  139.7614   72.4342  219.2041 H   0  0  0  0  0  0  0  0  0  0  0  0
  139.3312   72.1044  221.6231 H   0  0  0  0  0  0  0  0  0  0  0  0
  139.0720   73.7560  222.7480 H   0  0  0  0  0  0  0  0  0  0  0  0
  141.8322   72.2101  222.5991 H   0  0  0  0  0  0  0  0  0  0  0  0
  141.7222   71.2815  221.1446 H   0  0  0  0  0  0  0  0  0  0  0  0
  142.4353   74.2692  221.4772 H   0  0  0  0  0  0  0  0  0  0  0  0
  143.2222   71.0617  219.6617 H   0  0  0  0  0  0  0  0  0  0  0  0
  145.6446   70.5918  219.1866 H   0  0  0  0  0  0  0  0  0  0  0  0
  147.3822   72.2219  219.7687 H   0  0  0  0  0  0  0  0  0  0  0  0
  146.7984   74.3810  220.8493 H   0  0  0  0  0  0  0  0  0  0  0  0
  144.4120   74.8649  221.3279 H   0  0  0  0  0  0  0  0  0  0  0  0
  139.0116   77.4439  220.7543 H   0  0  0  0  0  0  0  0  0  0  0  0
  138.5594   79.1666  222.5049 H   0  0  0  0  0  0  0  0  0  0  0  0
  141.3196   82.0981  224.9770 H   0  0  0  0  0  0  0  0  0  0  0  0
  143.6161   81.6111  224.1802 H   0  0  0  0  0  0  0  0  0  0  0  0
  144.0286   79.9043  222.4545 H   0  0  0  0  0  0  0  0  0  0  0  0
  1  2  2  0
  2  3  1  0
  3  4  1  0
  4  5  1  0
  5  6  2  0
  5  7  1  0
  7  8  1  0
  8  9  1  0
  9 10  1  0
  9 11  1  0
 11 12  1  0
 12 13  1  0
 13 14  2  0
 14 15  1  0
 15 16  2  0
 16 17  1  0
 17 18  2  0
  2 19  1  0
 19 20  2  0
 20 21  1  0
 21 22  2  0
 22 23  1  0
 23 24  1  0
 23 25  2  0
 25 26  1  0
 26 27  2  0
 27 28  1  0
 28 29  2  0
 12  7  1  0
 18 13  1  0
 29 19  1  0
 28 22  1  0
  3 30  1  0
  4 31  1  0
  4 32  1  0
  8 33  1  0
  8 34  1  0
  9 35  1  6
 10 36  1  0
 11 37  1  0
 11 38  1  0
 12 39  1  1
 14 40  1  0
 15 41  1  0
 16 42  1  0
 17 43  1  0
 18 44  1  0
 20 45  1  0
 21 46  1  0
 25 47  1  0
 26 48  1  0
 27 49  1  0
M  END
>  <smiles>  (38) 
O=C(NCC(=O)N1C[C@H](O)C[C@H]1c1ccccc1)c1ccc2c(Cl)cccc2n1

>  <score_type>  (38) 
oracle

>  <origin>  (38) 
autodockgpu

>  <m_score__min__energy>  (38) 
-8.8900000000000006

>  <m_primary>  (38) 
energy

>  <rmsd>  (38) 
7.750125147761998

>  <m_score__min__rmsd>  (38) 
7.750125147761998

>  <meeko>  (38) 
{"free_energy": -7.3, "intermolecular_energy": -9.09, "internal_energy": -2.01, "cluster_size": 1, "cluster_id": 8, "rank_in_cluster": 1}

>  <energy>  (38) 
-7.41

>  <cluster_rmsd>  (38) 
0.4

>  <cluster>  (38) 
6

$$$$

     RDKit          3D

 49 52  0  0  0  0  0  0  0  0999 V2000
  139.7260   71.0370  221.1280 O   0  0  0  0  0  0  0  0  0  0  0  0
  139.5940   71.7220  222.1760 C   0  0  0  0  0  0  0  0  0  0  0  0
  139.1520   73.1030  222.0160 N   0  0  0  0  0  0  0  0  0  0  0  0
  138.9180   73.5240  220.6830 C   0  0  0  0  0  0  0  0  0  0  0  0
  140.0280   73.6850  219.7560 C   0  0  0  0  0  0  0  0  0  0  0  0
  139.6760   74.2020  218.6100 O   0  0  0  0  0  0  0  0  0  0  0  0
  141.4040   73.3630  219.9280 N   0  0  0  0  0  0  0  0  0  0  0  0
  142.1990   72.3200  219.3120 C   0  0  0  0  0  0  0  0  0  0  0  0
  143.5630   72.4690  220.0280 C   0  0  2  0  0  0  0  0  0  0  0  0
  143.6270   71.7380  221.1860 O   0  0  0  0  0  0  0  0  0  0  0  0
  143.5990   73.9760  220.3250 C   0  0  0  0  0  0  0  0  0  0  0  0
  142.2260   74.1580  220.8630 C   0  0  1  0  0  0  0  0  0  0  0  0
  141.8060   75.5790  220.9190 C   0  0  0  0  0  0  0  0  0  0  0  0
  142.2110   76.4960  219.9710 C   0  0  0  0  0  0  0  0  0  0  0  0
  141.7520   77.8070  220.1280 C   0  0  0  0  0  0  0  0  0  0  0  0
  140.9360   78.1630  221.1770 C   0  0  0  0  0  0  0  0  0  0  0  0
  140.5380   77.2380  222.1190 C   0  0  0  0  0  0  0  0  0  0  0  0
  140.9800   75.9470  221.9780 C   0  0  0  0  0  0  0  0  0  0  0  0
  139.8580   71.2050  223.5120 C   0  0  0  0  0  0  0  0  0  0  0  0
  139.5670   69.8750  223.7360 C   0  0  0  0  0  0  0  0  0  0  0  0
  139.7950   69.3210  224.9790 C   0  0  0  0  0  0  0  0  0  0  0  0
  140.3160   70.1410  225.9770 C   0  0  0  0  0  0  0  0  0  0  0  0
  140.5480   69.6070  227.2210 C   0  0  0  0  0  0  0  0  0  0  0  0
  140.1910   67.9360  227.5310 Cl  0  0  0  0  0  0  0  0  0  0  0  0
  141.0690   70.4030  228.2370 C   0  0  0  0  0  0  0  0  0  0  0  0
  141.3400   71.7240  227.9550 C   0  0  0  0  0  0  0  0  0  0  0  0
  141.1080   72.2590  226.7090 C   0  0  0  0  0  0  0  0  0  0  0  0
  140.5870   71.4590  225.6940 C   0  0  0  0  0  0  0  0  0  0  0  0
  140.3680   72.0050  224.4850 N   0  0  0  0  0  0  0  0  0  0  0  0
  139.0620   73.6140  222.9000 H   0  0  0  0  0  0  0  0  0  0  0  0
  138.2364   72.7865  220.2341 H   0  0  0  0  0  0  0  0  0  0  0  0
  138.5481   74.5523  220.8086 H   0  0  0  0  0  0  0  0  0  0  0  0
  141.7614   71.3273  219.4937 H   0  0  0  0  0  0  0  0  0  0  0  0
  142.2668   72.4097  218.2178 H   0  0  0  0  0  0  0  0  0  0  0  0
  144.4090   72.1026  219.4280 H   0  0  0  0  0  0  0  0  0  0  0  0
  144.5630   71.5170  221.4280 H   0  0  0  0  0  0  0  0  0  0  0  0
  144.3677   74.2282  221.0703 H   0  0  0  0  0  0  0  0  0  0  0  0
  143.8515   74.6147  219.4657 H   0  0  0  0  0  0  0  0  0  0  0  0
  142.1338   73.8326  221.9097 H   0  0  0  0  0  0  0  0  0  0  0  0
  142.8631   76.2095  219.1327 H   0  0  0  0  0  0  0  0  0  0  0  0
  142.0502   78.5718  219.3958 H   0  0  0  0  0  0  0  0  0  0  0  0
  140.5948   79.2049  221.2659 H   0  0  0  0  0  0  0  0  0  0  0  0
  139.8865   77.5262  222.9572 H   0  0  0  0  0  0  0  0  0  0  0  0
  140.6764   75.1888  222.7148 H   0  0  0  0  0  0  0  0  0  0  0  0
  139.1539   69.2573  222.9249 H   0  0  0  0  0  0  0  0  0  0  0  0
  139.5717   68.2621  225.1761 H   0  0  0  0  0  0  0  0  0  0  0  0
  141.2592   69.9885  229.2380 H   0  0  0  0  0  0  0  0  0  0  0  0
  141.7524   72.3673  228.7463 H   0  0  0  0  0  0  0  0  0  0  0  0
  141.3337   73.3178  226.5141 H   0  0  0  0  0  0  0  0  0  0  0  0
  1  2  2  0
  2  3  1  0
  3  4  1  0
  4  5  1  0
  5  6  2  0
  5  7  1  0
  7  8  1  0
  8  9  1  0
  9 10  1  0
  9 11  1  0
 11 12  1  0
 12 13  1  0
 13 14  2  0
 14 15  1  0
 15 16  2  0
 16 17  1  0
 17 18  2  0
  2 19  1  0
 19 20  2  0
 20 21  1  0
 21 22  2  0
 22 23  1  0
 23 24  1  0
 23 25  2  0
 25 26  1  0
 26 27  2  0
 27 28  1  0
 28 29  2  0
 12  7  1  0
 18 13  1  0
 29 19  1  0
 28 22  1  0
  3 30  1  0
  4 31  1  0
  4 32  1  0
  8 33  1  0
  8 34  1  0
  9 35  1  6
 10 36  1  0
 11 37  1  0
 11 38  1  0
 12 39  1  1
 14 40  1  0
 15 41  1  0
 16 42  1  0
 17 43  1  0
 18 44  1  0
 20 45  1  0
 21 46  1  0
 25 47  1  0
 26 48  1  0
 27 49  1  0
M  END
>  <smiles>  (39) 
O=C(NCC(=O)N1C[C@H](O)C[C@H]1c1ccccc1)c1ccc2c(Cl)cccc2n1

>  <score_type>  (39) 
oracle

>  <origin>  (39) 
autodockgpu

>  <m_score__min__energy>  (39) 
-8.8900000000000006

>  <m_primary>  (39) 
energy

>  <rmsd>  (39) 
2.7725608445741745

>  <m_score__min__rmsd>  (39) 
2.7725608445741745

>  <meeko>  (39) 
{"free_energy": -7.89, "intermolecular_energy": -9.68, "internal_energy": -2.0, "cluster_size": 13, "cluster_id": 2, "rank_in_cluster": 6}

>  <energy>  (39) 
-7.38

>  <cluster_rmsd>  (39) 
0.21

>  <cluster>  (39) 
6

$$$$

     RDKit          3D

 49 52  0  0  0  0  0  0  0  0999 V2000
  139.4270   74.3690  221.9210 O   0  0  0  0  0  0  0  0  0  0  0  0
  140.4130   75.1490  221.9610 C   0  0  0  0  0  0  0  0  0  0  0  0
  141.7100   74.5990  221.5820 N   0  0  0  0  0  0  0  0  0  0  0  0
  141.7140   73.2320  221.2070 C   0  0  0  0  0  0  0  0  0  0  0  0
  142.1410   72.8360  219.8730 C   0  0  0  0  0  0  0  0  0  0  0  0
  141.1520   72.6990  219.0310 O   0  0  0  0  0  0  0  0  0  0  0  0
  143.4530   72.5870  219.3800 N   0  0  0  0  0  0  0  0  0  0  0  0
  144.0770   71.3400  218.9870 C   0  0  0  0  0  0  0  0  0  0  0  0
  145.5270   71.7760  218.6660 C   0  0  2  0  0  0  0  0  0  0  0  0
  146.3360   71.7510  219.7720 O   0  0  0  0  0  0  0  0  0  0  0  0
  145.3200   73.2140  218.1650 C   0  0  0  0  0  0  0  0  0  0  0  0
  144.3950   73.7130  219.2170 C   0  0  1  0  0  0  0  0  0  0  0  0
  143.7120   74.9730  218.8390 C   0  0  0  0  0  0  0  0  0  0  0  0
  143.5900   76.0290  219.7180 C   0  0  0  0  0  0  0  0  0  0  0  0
  142.9240   77.1660  219.2490 C   0  0  0  0  0  0  0  0  0  0  0  0
  142.4180   77.2260  217.9710 C   0  0  0  0  0  0  0  0  0  0  0  0
  142.5450   76.1650  217.1000 C   0  0  0  0  0  0  0  0  0  0  0  0
  143.1960   75.0420  217.5460 C   0  0  0  0  0  0  0  0  0  0  0  0
  140.3180   76.5460  222.3610 C   0  0  0  0  0  0  0  0  0  0  0  0
  139.0510   77.0520  222.5650 C   0  0  0  0  0  0  0  0  0  0  0  0
  138.8880   78.3680  222.9460 C   0  0  0  0  0  0  0  0  0  0  0  0
  140.0290   79.1490  223.1120 C   0  0  0  0  0  0  0  0  0  0  0  0
  139.8880   80.4610  223.4900 C   0  0  0  0  0  0  0  0  0  0  0  0
  138.3030   81.1240  223.7530 Cl  0  0  0  0  0  0  0  0  0  0  0  0
  141.0110   81.2640  223.6630 C   0  0  0  0  0  0  0  0  0  0  0  0
  142.2510   80.7050  223.4450 C   0  0  0  0  0  0  0  0  0  0  0  0
  142.3940   79.3900  223.0660 C   0  0  0  0  0  0  0  0  0  0  0  0
  141.2670   78.5890  222.8940 C   0  0  0  0  0  0  0  0  0  0  0  0
  141.4310   77.3070  222.5230 N   0  0  0  0  0  0  0  0  0  0  0  0
  142.4790   75.2770  221.6340 H   0  0  0  0  0  0  0  0  0  0  0  0
  142.3736   72.7117  221.9171 H   0  0  0  0  0  0  0  0  0  0  0  0
  140.6460   72.9689  221.2147 H   0  0  0  0  0  0  0  0  0  0  0  0
  144.0547   70.6084  219.8082 H   0  0  0  0  0  0  0  0  0  0  0  0
  143.5722   70.8439  218.1449 H   0  0  0  0  0  0  0  0  0  0  0  0
  146.0295   71.1121  217.9472 H   0  0  0  0  0  0  0  0  0  0  0  0
  145.8290   71.5230  220.5920 H   0  0  0  0  0  0  0  0  0  0  0  0
  146.2625   73.7809  218.1455 H   0  0  0  0  0  0  0  0  0  0  0  0
  144.9451   73.3001  217.1344 H   0  0  0  0  0  0  0  0  0  0  0  0
  144.9154   73.9836  220.1476 H   0  0  0  0  0  0  0  0  0  0  0  0
  143.9969   75.9793  220.7388 H   0  0  0  0  0  0  0  0  0  0  0  0
  142.8020   78.0315  219.9168 H   0  0  0  0  0  0  0  0  0  0  0  0
  141.9020   78.1385  217.6377 H   0  0  0  0  0  0  0  0  0  0  0  0
  142.1374   76.2168  216.0796 H   0  0  0  0  0  0  0  0  0  0  0  0
  143.3126   74.1812  216.8711 H   0  0  0  0  0  0  0  0  0  0  0  0
  138.1713   76.4068  222.4240 H   0  0  0  0  0  0  0  0  0  0  0  0
  137.8854   78.7883  223.1138 H   0  0  0  0  0  0  0  0  0  0  0  0
  140.9114   82.3168  223.9657 H   0  0  0  0  0  0  0  0  0  0  0  0
  143.1496   81.3256  223.5773 H   0  0  0  0  0  0  0  0  0  0  0  0
  143.3974   78.9714  222.8989 H   0  0  0  0  0  0  0  0  0  0  0  0
  1  2  2  0
  2  3  1  0
  3  4  1  0
  4  5  1  0
  5  6  2  0
  5  7  1  0
  7  8  1  0
  8  9  1  0
  9 10  1  0
  9 11  1  0
 11 12  1  0
 12 13  1  0
 13 14  2  0
 14 15  1  0
 15 16  2  0
 16 17  1  0
 17 18  2  0
  2 19  1  0
 19 20  2  0
 20 21  1  0
 21 22  2  0
 22 23  1  0
 23 24  1  0
 23 25  2  0
 25 26  1  0
 26 27  2  0
 27 28  1  0
 28 29  2  0
 12  7  1  0
 18 13  1  0
 29 19  1  0
 28 22  1  0
  3 30  1  0
  4 31  1  0
  4 32  1  0
  8 33  1  0
  8 34  1  0
  9 35  1  6
 10 36  1  0
 11 37  1  0
 11 38  1  0
 12 39  1  1
 14 40  1  0
 15 41  1  0
 16 42  1  0
 17 43  1  0
 18 44  1  0
 20 45  1  0
 21 46  1  0
 25 47  1  0
 26 48  1  0
 27 49  1  0
M  END
>  <smiles>  (40) 
O=C(NCC(=O)N1C[C@H](O)C[C@H]1c1ccccc1)c1ccc2c(Cl)cccc2n1

>  <score_type>  (40) 
oracle

>  <origin>  (40) 
autodockgpu

>  <m_score__min__energy>  (40) 
-8.8900000000000006

>  <m_primary>  (40) 
energy

>  <rmsd>  (40) 
7.340032970090523

>  <m_score__min__rmsd>  (40) 
7.340032970090523

>  <meeko>  (40) 
{"free_energy": -7.34, "intermolecular_energy": -9.13, "internal_energy": -2.19, "cluster_size": 7, "cluster_id": 7, "rank_in_cluster": 2}

>  <energy>  (40) 
-7.38

>  <cluster_rmsd>  (40) 
0.3

>  <cluster>  (40) 
6

$$$$

     RDKit          3D

 49 52  0  0  0  0  0  0  0  0999 V2000
  140.4540   76.6150  218.7300 O   0  0  0  0  0  0  0  0  0  0  0  0
  141.6810   76.7180  218.9940 C   0  0  0  0  0  0  0  0  0  0  0  0
  142.2020   78.0620  219.2140 N   0  0  0  0  0  0  0  0  0  0  0  0
  141.2580   79.1140  219.1050 C   0  0  0  0  0  0  0  0  0  0  0  0
  140.7990   79.8180  220.2940 C   0  0  0  0  0  0  0  0  0  0  0  0
  139.6010   80.3200  220.1690 O   0  0  0  0  0  0  0  0  0  0  0  0
  141.4650   80.0240  221.5350 N   0  0  0  0  0  0  0  0  0  0  0  0
  141.9790   81.2440  222.1230 C   0  0  0  0  0  0  0  0  0  0  0  0
  142.6700   80.7330  223.4100 C   0  0  2  0  0  0  0  0  0  0  0  0
  143.9750   80.3700  223.1930 O   0  0  0  0  0  0  0  0  0  0  0  0
  141.8100   79.5100  223.7650 C   0  0  0  0  0  0  0  0  0  0  0  0
  141.7180   78.8720  222.4250 C   0  0  1  0  0  0  0  0  0  0  0  0
  140.6510   77.8470  222.3420 C   0  0  0  0  0  0  0  0  0  0  0  0
  139.3240   78.1550  222.5600 C   0  0  0  0  0  0  0  0  0  0  0  0
  138.4080   77.1050  222.4540 C   0  0  0  0  0  0  0  0  0  0  0  0
  138.8130   75.8260  222.1470 C   0  0  0  0  0  0  0  0  0  0  0  0
  140.1410   75.5280  221.9320 C   0  0  0  0  0  0  0  0  0  0  0  0
  141.0530   76.5490  222.0320 C   0  0  0  0  0  0  0  0  0  0  0  0
  142.5810   75.5770  219.0870 C   0  0  0  0  0  0  0  0  0  0  0  0
  142.3110   74.5000  218.2680 C   0  0  0  0  0  0  0  0  0  0  0  0
  143.1250   73.3860  218.3050 C   0  0  0  0  0  0  0  0  0  0  0  0
  144.2060   73.3930  219.1830 C   0  0  0  0  0  0  0  0  0  0  0  0
  145.0270   72.2930  219.2340 C   0  0  0  0  0  0  0  0  0  0  0  0
  144.7090   70.9230  218.2140 Cl  0  0  0  0  0  0  0  0  0  0  0  0
  146.1140   72.2720  220.1020 C   0  0  0  0  0  0  0  0  0  0  0  0
  146.3350   73.3760  220.8960 C   0  0  0  0  0  0  0  0  0  0  0  0
  145.5130   74.4780  220.8460 C   0  0  0  0  0  0  0  0  0  0  0  0
  144.4250   74.4960  219.9750 C   0  0  0  0  0  0  0  0  0  0  0  0
  143.6350   75.5840  219.9440 N   0  0  0  0  0  0  0  0  0  0  0  0
  143.2050   78.0880  219.4240 H   0  0  0  0  0  0  0  0  0  0  0  0
  141.7037   79.8706  218.4425 H   0  0  0  0  0  0  0  0  0  0  0  0
  140.3511   78.5989  218.7555 H   0  0  0  0  0  0  0  0  0  0  0  0
  142.7004   81.7346  221.4529 H   0  0  0  0  0  0  0  0  0  0  0  0
  141.2021   81.9991  222.3137 H   0  0  0  0  0  0  0  0  0  0  0  0
  142.7272   81.4948  224.2015 H   0  0  0  0  0  0  0  0  0  0  0  0
  144.0750   79.8430  222.3590 H   0  0  0  0  0  0  0  0  0  0  0  0
  142.3087   78.8569  224.4963 H   0  0  0  0  0  0  0  0  0  0  0  0
  140.8446   79.7403  224.2394 H   0  0  0  0  0  0  0  0  0  0  0  0
  142.6239   78.3072  222.1598 H   0  0  0  0  0  0  0  0  0  0  0  0
  139.0025   79.1779  222.8055 H   0  0  0  0  0  0  0  0  0  0  0  0
  137.3391   77.3053  222.6197 H   0  0  0  0  0  0  0  0  0  0  0  0
  138.0618   75.0260  222.0718 H   0  0  0  0  0  0  0  0  0  0  0  0
  140.4603   74.5041  221.6879 H   0  0  0  0  0  0  0  0  0  0  0  0
  142.1197   76.3391  221.8645 H   0  0  0  0  0  0  0  0  0  0  0  0
  141.4481   74.5291  217.5864 H   0  0  0  0  0  0  0  0  0  0  0  0
  142.9257   72.5178  217.6597 H   0  0  0  0  0  0  0  0  0  0  0  0
  146.7792   71.3974  220.1530 H   0  0  0  0  0  0  0  0  0  0  0  0
  147.1905   73.3763  221.5875 H   0  0  0  0  0  0  0  0  0  0  0  0
  145.7143   75.3445  221.4931 H   0  0  0  0  0  0  0  0  0  0  0  0
  1  2  2  0
  2  3  1  0
  3  4  1  0
  4  5  1  0
  5  6  2  0
  5  7  1  0
  7  8  1  0
  8  9  1  0
  9 10  1  0
  9 11  1  0
 11 12  1  0
 12 13  1  0
 13 14  2  0
 14 15  1  0
 15 16  2  0
 16 17  1  0
 17 18  2  0
  2 19  1  0
 19 20  2  0
 20 21  1  0
 21 22  2  0
 22 23  1  0
 23 24  1  0
 23 25  2  0
 25 26  1  0
 26 27  2  0
 27 28  1  0
 28 29  2  0
 12  7  1  0
 18 13  1  0
 29 19  1  0
 28 22  1  0
  3 30  1  0
  4 31  1  0
  4 32  1  0
  8 33  1  0
  8 34  1  0
  9 35  1  1
 10 36  1  0
 11 37  1  0
 11 38  1  0
 12 39  1  6
 14 40  1  0
 15 41  1  0
 16 42  1  0
 17 43  1  0
 18 44  1  0
 20 45  1  0
 21 46  1  0
 25 47  1  0
 26 48  1  0
 27 49  1  0
M  END
>  <smiles>  (41) 
O=C(NCC(=O)N1C[C@H](O)C[C@H]1c1ccccc1)c1ccc2c(Cl)cccc2n1

>  <score_type>  (41) 
oracle

>  <origin>  (41) 
autodockgpu

>  <m_score__min__energy>  (41) 
-8.8900000000000006

>  <m_primary>  (41) 
energy

>  <rmsd>  (41) 
7.492117408619967

>  <m_score__min__rmsd>  (41) 
7.492117408619967

>  <meeko>  (41) 
{"free_energy": -7.46, "intermolecular_energy": -9.25, "internal_energy": -2.23, "cluster_size": 9, "cluster_id": 6, "rank_in_cluster": 4}

>  <energy>  (41) 
-7.37

>  <cluster_rmsd>  (41) 
0.47

>  <cluster>  (41) 
6

$$$$

     RDKit          3D

 49 52  0  0  0  0  0  0  0  0999 V2000
  139.6270   74.2760  221.9920 O   0  0  0  0  0  0  0  0  0  0  0  0
  140.5340   75.1430  221.8870 C   0  0  0  0  0  0  0  0  0  0  0  0
  141.8010   74.7110  221.3060 N   0  0  0  0  0  0  0  0  0  0  0  0
  141.8690   73.3490  220.9200 C   0  0  0  0  0  0  0  0  0  0  0  0
  142.0380   72.9880  219.5200 C   0  0  0  0  0  0  0  0  0  0  0  0
  140.9720   72.4500  218.9910 O   0  0  0  0  0  0  0  0  0  0  0  0
  143.1760   73.1400  218.6780 N   0  0  0  0  0  0  0  0  0  0  0  0
  143.9170   72.1460  217.9290 C   0  0  0  0  0  0  0  0  0  0  0  0
  145.0830   72.9720  217.3350 C   0  0  2  0  0  0  0  0  0  0  0  0
  146.1600   73.0380  218.1810 O   0  0  0  0  0  0  0  0  0  0  0  0
  144.4330   74.3530  217.1620 C   0  0  0  0  0  0  0  0  0  0  0  0
  143.7620   74.4820  218.4820 C   0  0  1  0  0  0  0  0  0  0  0  0
  142.7410   75.5560  218.5140 C   0  0  0  0  0  0  0  0  0  0  0  0
  141.5700   75.4710  217.7900 C   0  0  0  0  0  0  0  0  0  0  0  0
  140.6840   76.5470  217.8980 C   0  0  0  0  0  0  0  0  0  0  0  0
  140.9680   77.6360  218.6900 C   0  0  0  0  0  0  0  0  0  0  0  0
  142.1410   77.7110  219.4090 C   0  0  0  0  0  0  0  0  0  0  0  0
  143.0220   76.6620  219.3130 C   0  0  0  0  0  0  0  0  0  0  0  0
  140.3760   76.5270  222.3120 C   0  0  0  0  0  0  0  0  0  0  0  0
  139.0890   76.9660  222.5440 C   0  0  0  0  0  0  0  0  0  0  0  0
  138.8680   78.2660  222.9500 C   0  0  0  0  0  0  0  0  0  0  0  0
  139.9730   79.0990  223.1110 C   0  0  0  0  0  0  0  0  0  0  0  0
  139.7730   80.3970  223.5130 C   0  0  0  0  0  0  0  0  0  0  0  0
  138.1630   80.9760  223.8120 Cl  0  0  0  0  0  0  0  0  0  0  0  0
  140.8580   81.2520  223.6820 C   0  0  0  0  0  0  0  0  0  0  0  0
  142.1200   80.7580  223.4350 C   0  0  0  0  0  0  0  0  0  0  0  0
  142.3210   79.4580  223.0320 C   0  0  0  0  0  0  0  0  0  0  0  0
  141.2330   78.6050  222.8640 C   0  0  0  0  0  0  0  0  0  0  0  0
  141.4540   77.3390  222.4690 N   0  0  0  0  0  0  0  0  0  0  0  0
  142.5040   75.4550  221.2450 H   0  0  0  0  0  0  0  0  0  0  0  0
  142.7175   72.9086  221.4642 H   0  0  0  0  0  0  0  0  0  0  0  0
  140.8617   72.9738  221.1536 H   0  0  0  0  0  0  0  0  0  0  0  0
  144.2906   71.3488  218.5884 H   0  0  0  0  0  0  0  0  0  0  0  0
  143.3127   71.6313  217.1675 H   0  0  0  0  0  0  0  0  0  0  0  0
  145.4909   72.5409  216.4088 H   0  0  0  0  0  0  0  0  0  0  0  0
  146.2240   73.9210  218.6260 H   0  0  0  0  0  0  0  0  0  0  0  0
  145.1834   75.1419  217.0054 H   0  0  0  0  0  0  0  0  0  0  0  0
  143.7690   74.4495  216.2904 H   0  0  0  0  0  0  0  0  0  0  0  0
  144.4547   74.7776  219.2837 H   0  0  0  0  0  0  0  0  0  0  0  0
  141.3443   74.5991  217.1584 H   0  0  0  0  0  0  0  0  0  0  0  0
  139.7381   76.5226  217.3370 H   0  0  0  0  0  0  0  0  0  0  0  0
  140.2446   78.4625  218.7502 H   0  0  0  0  0  0  0  0  0  0  0  0
  142.3647   78.5837  220.0401 H   0  0  0  0  0  0  0  0  0  0  0  0
  143.9659   76.6956  219.8768 H   0  0  0  0  0  0  0  0  0  0  0  0
  138.2400   76.2805  222.4055 H   0  0  0  0  0  0  0  0  0  0  0  0
  137.8491   78.6339  223.1410 H   0  0  0  0  0  0  0  0  0  0  0  0
  140.7119   82.2936  224.0040 H   0  0  0  0  0  0  0  0  0  0  0  0
  142.9892   81.4198  223.5632 H   0  0  0  0  0  0  0  0  0  0  0  0
  143.3410   79.0924  222.8425 H   0  0  0  0  0  0  0  0  0  0  0  0
  1  2  2  0
  2  3  1  0
  3  4  1  0
  4  5  1  0
  5  6  2  0
  5  7  1  0
  7  8  1  0
  8  9  1  0
  9 10  1  0
  9 11  1  0
 11 12  1  0
 12 13  1  0
 13 14  2  0
 14 15  1  0
 15 16  2  0
 16 17  1  0
 17 18  2  0
  2 19  1  0
 19 20  2  0
 20 21  1  0
 21 22  2  0
 22 23  1  0
 23 24  1  0
 23 25  2  0
 25 26  1  0
 26 27  2  0
 27 28  1  0
 28 29  2  0
 12  7  1  0
 18 13  1  0
 29 19  1  0
 28 22  1  0
  3 30  1  0
  4 31  1  0
  4 32  1  0
  8 33  1  0
  8 34  1  0
  9 35  1  6
 10 36  1  0
 11 37  1  0
 11 38  1  0
 12 39  1  1
 14 40  1  0
 15 41  1  0
 16 42  1  0
 17 43  1  0
 18 44  1  0
 20 45  1  0
 21 46  1  0
 25 47  1  0
 26 48  1  0
 27 49  1  0
M  END
>  <smiles>  (42) 
O=C(NCC(=O)N1C[C@H](O)C[C@H]1c1ccccc1)c1ccc2c(Cl)cccc2n1

>  <score_type>  (42) 
oracle

>  <origin>  (42) 
autodockgpu

>  <m_score__min__energy>  (42) 
-8.8900000000000006

>  <m_primary>  (42) 
energy

>  <rmsd>  (42) 
7.111492643733858

>  <m_score__min__rmsd>  (42) 
7.111492643733858

>  <meeko>  (42) 
{"free_energy": -7.16, "intermolecular_energy": -8.95, "internal_energy": -2.39, "cluster_size": 7, "cluster_id": 7, "rank_in_cluster": 6}

>  <energy>  (42) 
-7.34

>  <cluster_rmsd>  (42) 
0.0

>  <cluster>  (42) 
7

$$$$

     RDKit          3D

 49 52  0  0  0  0  0  0  0  0999 V2000
  140.8780   71.6750  221.2800 O   0  0  0  0  0  0  0  0  0  0  0  0
  140.4090   72.1310  222.3560 C   0  0  0  0  0  0  0  0  0  0  0  0
  139.9520   73.5160  222.3460 N   0  0  0  0  0  0  0  0  0  0  0  0
  140.0860   74.2000  221.1120 C   0  0  0  0  0  0  0  0  0  0  0  0
  140.9560   75.3620  221.0050 C   0  0  0  0  0  0  0  0  0  0  0  0
  141.3220   75.8440  222.1620 O   0  0  0  0  0  0  0  0  0  0  0  0
  141.4450   76.0210  219.8420 N   0  0  0  0  0  0  0  0  0  0  0  0
  141.1790   77.3580  219.3500 C   0  0  0  0  0  0  0  0  0  0  0  0
  141.9340   77.3750  217.9990 C   0  0  2  0  0  0  0  0  0  0  0  0
  141.1620   76.9160  216.9630 O   0  0  0  0  0  0  0  0  0  0  0  0
  143.1050   76.4210  218.2800 C   0  0  0  0  0  0  0  0  0  0  0  0
  142.3680   75.3080  218.9350 C   0  0  1  0  0  0  0  0  0  0  0  0
  143.2580   74.3670  219.6570 C   0  0  0  0  0  0  0  0  0  0  0  0
  142.9460   73.0310  219.7970 C   0  0  0  0  0  0  0  0  0  0  0  0
  143.8620   72.2410  220.4990 C   0  0  0  0  0  0  0  0  0  0  0  0
  145.0180   72.7750  221.0220 C   0  0  0  0  0  0  0  0  0  0  0  0
  145.3190   74.1110  220.8770 C   0  0  0  0  0  0  0  0  0  0  0  0
  144.4290   74.9000  220.1900 C   0  0  0  0  0  0  0  0  0  0  0  0
  140.3080   71.3520  223.5820 C   0  0  0  0  0  0  0  0  0  0  0  0
  139.8260   70.0650  223.4670 C   0  0  0  0  0  0  0  0  0  0  0  0
  139.7060   69.2720  224.5910 C   0  0  0  0  0  0  0  0  0  0  0  0
  140.0810   69.8120  225.8180 C   0  0  0  0  0  0  0  0  0  0  0  0
  139.9680   69.0390  226.9470 C   0  0  0  0  0  0  0  0  0  0  0  0
  139.3630   67.4150  226.8310 Cl  0  0  0  0  0  0  0  0  0  0  0  0
  140.3360   69.5530  228.1860 C   0  0  0  0  0  0  0  0  0  0  0  0
  140.8110   70.8450  228.2400 C   0  0  0  0  0  0  0  0  0  0  0  0
  140.9250   71.6200  227.1100 C   0  0  0  0  0  0  0  0  0  0  0  0
  140.5560   71.1020  225.8710 C   0  0  0  0  0  0  0  0  0  0  0  0
  140.6760   71.8800  224.7790 N   0  0  0  0  0  0  0  0  0  0  0  0
  139.5810   73.8360  223.2470 H   0  0  0  0  0  0  0  0  0  0  0  0
  140.4514   73.4637  220.3810 H   0  0  0  0  0  0  0  0  0  0  0  0
  139.0837   74.6244  220.9528 H   0  0  0  0  0  0  0  0  0  0  0  0
  140.1009   77.5208  219.2048 H   0  0  0  0  0  0  0  0  0  0  0  0
  141.4998   78.1512  220.0413 H   0  0  0  0  0  0  0  0  0  0  0  0
  142.2357   78.3852  217.6853 H   0  0  0  0  0  0  0  0  0  0  0  0
  140.3010   76.5450  217.2850 H   0  0  0  0  0  0  0  0  0  0  0  0
  143.5997   76.0953  217.3530 H   0  0  0  0  0  0  0  0  0  0  0  0
  143.9251   76.8509  218.8738 H   0  0  0  0  0  0  0  0  0  0  0  0
  141.8533   74.6563  218.2136 H   0  0  0  0  0  0  0  0  0  0  0  0
  142.0218   72.6074  219.3770 H   0  0  0  0  0  0  0  0  0  0  0  0
  143.6542   71.1696  220.6362 H   0  0  0  0  0  0  0  0  0  0  0  0
  145.7153   72.1215  221.5667 H   0  0  0  0  0  0  0  0  0  0  0  0
  146.2433   74.5331  221.2982 H   0  0  0  0  0  0  0  0  0  0  0  0
  144.6448   75.9706  220.0586 H   0  0  0  0  0  0  0  0  0  0  0  0
  139.5376   69.6708  222.4814 H   0  0  0  0  0  0  0  0  0  0  0  0
  139.3248   68.2427  224.5189 H   0  0  0  0  0  0  0  0  0  0  0  0
  140.2500   68.9442  229.0982 H   0  0  0  0  0  0  0  0  0  0  0  0
  141.1066   71.2673  229.2118 H   0  0  0  0  0  0  0  0  0  0  0  0
  141.3075   72.6487  227.1845 H   0  0  0  0  0  0  0  0  0  0  0  0
  1  2  2  0
  2  3  1  0
  3  4  1  0
  4  5  1  0
  5  6  2  0
  5  7  1  0
  7  8  1  0
  8  9  1  0
  9 10  1  0
  9 11  1  0
 11 12  1  0
 12 13  1  0
 13 14  2  0
 14 15  1  0
 15 16  2  0
 16 17  1  0
 17 18  2  0
  2 19  1  0
 19 20  2  0
 20 21  1  0
 21 22  2  0
 22 23  1  0
 23 24  1  0
 23 25  2  0
 25 26  1  0
 26 27  2  0
 27 28  1  0
 28 29  2  0
 12  7  1  0
 18 13  1  0
 29 19  1  0
 28 22  1  0
  3 30  1  0
  4 31  1  0
  4 32  1  0
  8 33  1  0
  8 34  1  0
  9 35  1  6
 10 36  1  0
 11 37  1  0
 11 38  1  0
 12 39  1  6
 14 40  1  0
 15 41  1  0
 16 42  1  0
 17 43  1  0
 18 44  1  0
 20 45  1  0
 21 46  1  0
 25 47  1  0
 26 48  1  0
 27 49  1  0
M  END
>  <smiles>  (43) 
O=C(NCC(=O)N1C[C@H](O)C[C@H]1c1ccccc1)c1ccc2c(Cl)cccc2n1

>  <score_type>  (43) 
oracle

>  <origin>  (43) 
autodockgpu

>  <m_score__min__energy>  (43) 
-8.8900000000000006

>  <m_primary>  (43) 
energy

>  <rmsd>  (43) 
2.153860127052623

>  <m_score__min__rmsd>  (43) 
2.153860127052623

>  <meeko>  (43) 
{"free_energy": -8.21, "intermolecular_energy": -10.0, "internal_energy": -1.78, "cluster_size": 7, "cluster_id": 3, "rank_in_cluster": 3}

>  <energy>  (43) 
-7.34

>  <cluster_rmsd>  (43) 
0.1

>  <cluster>  (43) 
7

$$$$

     RDKit          3D

 49 52  0  0  0  0  0  0  0  0999 V2000
  139.6660   73.5210  222.3390 O   0  0  0  0  0  0  0  0  0  0  0  0
  140.2090   72.3900  222.4420 C   0  0  0  0  0  0  0  0  0  0  0  0
  140.7730   71.8120  221.2270 N   0  0  0  0  0  0  0  0  0  0  0  0
  140.6470   72.5980  220.0540 C   0  0  0  0  0  0  0  0  0  0  0  0
  141.8300   73.0150  219.3160 C   0  0  0  0  0  0  0  0  0  0  0  0
  141.6070   73.2070  218.0440 O   0  0  0  0  0  0  0  0  0  0  0  0
  143.1570   73.2340  219.7840 N   0  0  0  0  0  0  0  0  0  0  0  0
  144.3750   72.5020  219.5020 C   0  0  0  0  0  0  0  0  0  0  0  0
  145.4080   73.2030  220.4170 C   0  0  2  0  0  0  0  0  0  0  0  0
  145.4510   72.6530  221.6720 O   0  0  0  0  0  0  0  0  0  0  0  0
  144.8650   74.6390  220.4620 C   0  0  0  0  0  0  0  0  0  0  0  0
  143.4270   74.3550  220.7070 C   0  0  1  0  0  0  0  0  0  0  0  0
  142.5520   75.5240  220.4500 C   0  0  0  0  0  0  0  0  0  0  0  0
  142.8090   76.4180  219.4320 C   0  0  0  0  0  0  0  0  0  0  0  0
  141.9140   77.4820  219.2870 C   0  0  0  0  0  0  0  0  0  0  0  0
  140.8280   77.6270  220.1210 C   0  0  0  0  0  0  0  0  0  0  0  0
  140.5800   76.7280  221.1350 C   0  0  0  0  0  0  0  0  0  0  0  0
  141.4510   75.6780  221.2900 C   0  0  0  0  0  0  0  0  0  0  0  0
  140.2940   71.6500  223.6930 C   0  0  0  0  0  0  0  0  0  0  0  0
  139.9050   70.3270  223.6650 C   0  0  0  0  0  0  0  0  0  0  0  0
  139.9620   69.5680  224.8160 C   0  0  0  0  0  0  0  0  0  0  0  0
  140.4160   70.1790  225.9820 C   0  0  0  0  0  0  0  0  0  0  0  0
  140.4790   69.4400  227.1380 C   0  0  0  0  0  0  0  0  0  0  0  0
  139.9950   67.7710  227.1300 Cl  0  0  0  0  0  0  0  0  0  0  0  0
  140.9290   70.0240  228.3180 C   0  0  0  0  0  0  0  0  0  0  0  0
  141.3040   71.3490  228.2870 C   0  0  0  0  0  0  0  0  0  0  0  0
  141.2410   72.0900  227.1290 C   0  0  0  0  0  0  0  0  0  0  0  0
  140.7910   71.5020  225.9500 C   0  0  0  0  0  0  0  0  0  0  0  0
  140.7380   72.2460  224.8310 N   0  0  0  0  0  0  0  0  0  0  0  0
  141.2020   70.8900  221.3670 H   0  0  0  0  0  0  0  0  0  0  0  0
  140.0248   72.0218  219.3534 H   0  0  0  0  0  0  0  0  0  0  0  0
  140.2436   73.5482  220.4340 H   0  0  0  0  0  0  0  0  0  0  0  0
  144.2693   71.4388  219.7638 H   0  0  0  0  0  0  0  0  0  0  0  0
  144.6550   72.5107  218.4383 H   0  0  0  0  0  0  0  0  0  0  0  0
  146.4408   73.1186  220.0480 H   0  0  0  0  0  0  0  0  0  0  0  0
  145.1790   71.7000  221.6640 H   0  0  0  0  0  0  0  0  0  0  0  0
  145.3129   75.2208  221.2811 H   0  0  0  0  0  0  0  0  0  0  0  0
  145.0750   75.2452  219.5685 H   0  0  0  0  0  0  0  0  0  0  0  0
  143.2144   74.1141  221.7590 H   0  0  0  0  0  0  0  0  0  0  0  0
  143.6765   76.2996  218.7661 H   0  0  0  0  0  0  0  0  0  0  0  0
  142.0811   78.2201  218.4886 H   0  0  0  0  0  0  0  0  0  0  0  0
  140.1453   78.4770  219.9748 H   0  0  0  0  0  0  0  0  0  0  0  0
  139.7116   76.8476  221.7995 H   0  0  0  0  0  0  0  0  0  0  0  0
  141.2765   74.9453  222.0916 H   0  0  0  0  0  0  0  0  0  0  0  0
  139.5497   69.8774  222.7261 H   0  0  0  0  0  0  0  0  0  0  0  0
  139.6576   68.5110  224.8125 H   0  0  0  0  0  0  0  0  0  0  0  0
  140.9838   69.4432  229.2505 H   0  0  0  0  0  0  0  0  0  0  0  0
  141.6627   71.8267  229.2107 H   0  0  0  0  0  0  0  0  0  0  0  0
  141.5462   73.1468  227.1350 H   0  0  0  0  0  0  0  0  0  0  0  0
  1  2  2  0
  2  3  1  0
  3  4  1  0
  4  5  1  0
  5  6  2  0
  5  7  1  0
  7  8  1  0
  8  9  1  0
  9 10  1  0
  9 11  1  0
 11 12  1  0
 12 13  1  0
 13 14  2  0
 14 15  1  0
 15 16  2  0
 16 17  1  0
 17 18  2  0
  2 19  1  0
 19 20  2  0
 20 21  1  0
 21 22  2  0
 22 23  1  0
 23 24  1  0
 23 25  2  0
 25 26  1  0
 26 27  2  0
 27 28  1  0
 28 29  2  0
 12  7  1  0
 18 13  1  0
 29 19  1  0
 28 22  1  0
  3 30  1  0
  4 31  1  0
  4 32  1  0
  8 33  1  0
  8 34  1  0
  9 35  1  6
 10 36  1  0
 11 37  1  0
 11 38  1  0
 12 39  1  1
 14 40  1  0
 15 41  1  0
 16 42  1  0
 17 43  1  0
 18 44  1  0
 20 45  1  0
 21 46  1  0
 25 47  1  0
 26 48  1  0
 27 49  1  0
M  END
>  <smiles>  (44) 
O=C(NCC(=O)N1C[C@H](O)C[C@H]1c1ccccc1)c1ccc2c(Cl)cccc2n1

>  <score_type>  (44) 
oracle

>  <origin>  (44) 
autodockgpu

>  <m_score__min__energy>  (44) 
-8.8900000000000006

>  <m_primary>  (44) 
energy

>  <rmsd>  (44) 
3.618547016974137

>  <m_score__min__rmsd>  (44) 
3.618547016974137

>  <meeko>  (44) 
{"free_energy": -8.16, "intermolecular_energy": -9.95, "internal_energy": -1.59, "cluster_size": 13, "cluster_id": 2, "rank_in_cluster": 3}

>  <energy>  (44) 
-7.29

>  <cluster_rmsd>  (44) 
0.12

>  <cluster>  (44) 
7

$$$$

     RDKit          3D

 49 52  0  0  0  0  0  0  0  0999 V2000
  140.5720   76.4860  218.7200 O   0  0  0  0  0  0  0  0  0  0  0  0
  141.7960   76.6320  218.9710 C   0  0  0  0  0  0  0  0  0  0  0  0
  142.2710   77.9940  219.1900 N   0  0  0  0  0  0  0  0  0  0  0  0
  141.2890   79.0110  219.0960 C   0  0  0  0  0  0  0  0  0  0  0  0
  140.8110   79.6860  220.2930 C   0  0  0  0  0  0  0  0  0  0  0  0
  139.5890   80.1320  220.1840 O   0  0  0  0  0  0  0  0  0  0  0  0
  141.4780   79.9140  221.5300 N   0  0  0  0  0  0  0  0  0  0  0  0
  141.9920   81.1460  222.0940 C   0  0  0  0  0  0  0  0  0  0  0  0
  142.6870   80.6590  223.3880 C   0  0  2  0  0  0  0  0  0  0  0  0
  143.9910   80.2940  223.1760 O   0  0  0  0  0  0  0  0  0  0  0  0
  141.8280   79.4420  223.7680 C   0  0  0  0  0  0  0  0  0  0  0  0
  141.7340   78.7800  222.4400 C   0  0  1  0  0  0  0  0  0  0  0  0
  140.6680   77.7520  222.3780 C   0  0  0  0  0  0  0  0  0  0  0  0
  139.3510   78.0480  222.6650 C   0  0  0  0  0  0  0  0  0  0  0  0
  138.4350   76.9970  222.5730 C   0  0  0  0  0  0  0  0  0  0  0  0
  138.8300   75.7290  222.2120 C   0  0  0  0  0  0  0  0  0  0  0  0
  140.1470   75.4430  221.9270 C   0  0  0  0  0  0  0  0  0  0  0  0
  141.0590   76.4650  222.0130 C   0  0  0  0  0  0  0  0  0  0  0  0
  142.7380   75.5240  219.0490 C   0  0  0  0  0  0  0  0  0  0  0  0
  142.6190   74.5340  218.0950 C   0  0  0  0  0  0  0  0  0  0  0  0
  143.4800   73.4560  218.1110 C   0  0  0  0  0  0  0  0  0  0  0  0
  144.4520   73.4080  219.1060 C   0  0  0  0  0  0  0  0  0  0  0  0
  145.3180   72.3420  219.1380 C   0  0  0  0  0  0  0  0  0  0  0  0
  145.1890   71.0810  217.9500 Cl  0  0  0  0  0  0  0  0  0  0  0  0
  146.3000   72.2680  220.1210 C   0  0  0  0  0  0  0  0  0  0  0  0
  146.3720   73.2850  221.0470 C   0  0  0  0  0  0  0  0  0  0  0  0
  145.5050   74.3530  221.0160 C   0  0  0  0  0  0  0  0  0  0  0  0
  144.5240   74.4240  220.0300 C   0  0  0  0  0  0  0  0  0  0  0  0
  143.6870   75.4770  220.0200 N   0  0  0  0  0  0  0  0  0  0  0  0
  143.2760   78.0550  219.3890 H   0  0  0  0  0  0  0  0  0  0  0  0
  141.7031   79.7897  218.4386 H   0  0  0  0  0  0  0  0  0  0  0  0
  140.3998   78.4661  218.7462 H   0  0  0  0  0  0  0  0  0  0  0  0
  142.7109   81.6252  221.4131 H   0  0  0  0  0  0  0  0  0  0  0  0
  141.2149   81.9037  222.2727 H   0  0  0  0  0  0  0  0  0  0  0  0
  142.7460   81.4354  224.1649 H   0  0  0  0  0  0  0  0  0  0  0  0
  144.0970   79.7880  222.3300 H   0  0  0  0  0  0  0  0  0  0  0  0
  142.3285   78.8027  224.5101 H   0  0  0  0  0  0  0  0  0  0  0  0
  140.8636   79.6802  224.2405 H   0  0  0  0  0  0  0  0  0  0  0  0
  142.6403   78.2120  222.1832 H   0  0  0  0  0  0  0  0  0  0  0  0
  139.0375   79.0625  222.9523 H   0  0  0  0  0  0  0  0  0  0  0  0
  137.3744   77.1873  222.7940 H   0  0  0  0  0  0  0  0  0  0  0  0
  138.0789   74.9278  222.1498 H   0  0  0  0  0  0  0  0  0  0  0  0
  140.4579   74.4277  221.6396 H   0  0  0  0  0  0  0  0  0  0  0  0
  142.1174   76.2648  221.7899 H   0  0  0  0  0  0  0  0  0  0  0  0
  141.8387   74.6042  217.3228 H   0  0  0  0  0  0  0  0  0  0  0  0
  143.4005   72.6573  217.3588 H   0  0  0  0  0  0  0  0  0  0  0  0
  146.9999   71.4202  220.1576 H   0  0  0  0  0  0  0  0  0  0  0  0
  147.1422   73.2424  221.8312 H   0  0  0  0  0  0  0  0  0  0  0  0
  145.5867   75.1502  221.7695 H   0  0  0  0  0  0  0  0  0  0  0  0
  1  2  2  0
  2  3  1  0
  3  4  1  0
  4  5  1  0
  5  6  2  0
  5  7  1  0
  7  8  1  0
  8  9  1  0
  9 10  1  0
  9 11  1  0
 11 12  1  0
 12 13  1  0
 13 14  2  0
 14 15  1  0
 15 16  2  0
 16 17  1  0
 17 18  2  0
  2 19  1  0
 19 20  2  0
 20 21  1  0
 21 22  2  0
 22 23  1  0
 23 24  1  0
 23 25  2  0
 25 26  1  0
 26 27  2  0
 27 28  1  0
 28 29  2  0
 12  7  1  0
 18 13  1  0
 29 19  1  0
 28 22  1  0
  3 30  1  0
  4 31  1  0
  4 32  1  0
  8 33  1  0
  8 34  1  0
  9 35  1  1
 10 36  1  0
 11 37  1  0
 11 38  1  0
 12 39  1  6
 14 40  1  0
 15 41  1  0
 16 42  1  0
 17 43  1  0
 18 44  1  0
 20 45  1  0
 21 46  1  0
 25 47  1  0
 26 48  1  0
 27 49  1  0
M  END
>  <smiles>  (45) 
O=C(NCC(=O)N1C[C@H](O)C[C@H]1c1ccccc1)c1ccc2c(Cl)cccc2n1

>  <score_type>  (45) 
oracle

>  <origin>  (45) 
autodockgpu

>  <m_score__min__energy>  (45) 
-8.8900000000000006

>  <m_primary>  (45) 
energy

>  <rmsd>  (45) 
7.5025103560250805

>  <m_score__min__rmsd>  (45) 
7.5025103560250805

>  <meeko>  (45) 
{"free_energy": -7.38, "intermolecular_energy": -9.17, "internal_energy": -2.15, "cluster_size": 9, "cluster_id": 6, "rank_in_cluster": 7}

>  <energy>  (45) 
-7.21

>  <cluster_rmsd>  (45) 
0.7

>  <cluster>  (45) 
7

$$$$

     RDKit          3D

 49 52  0  0  0  0  0  0  0  0999 V2000
  140.6880   76.6770  218.1790 O   0  0  0  0  0  0  0  0  0  0  0  0
  141.7670   76.7140  218.8250 C   0  0  0  0  0  0  0  0  0  0  0  0
  142.1310   77.9870  219.4390 N   0  0  0  0  0  0  0  0  0  0  0  0
  141.2170   79.0510  219.2380 C   0  0  0  0  0  0  0  0  0  0  0  0
  140.7900   79.8760  220.3580 C   0  0  0  0  0  0  0  0  0  0  0  0
  139.6450   80.4700  220.1570 O   0  0  0  0  0  0  0  0  0  0  0  0
  141.4360   80.1130  221.6040 N   0  0  0  0  0  0  0  0  0  0  0  0
  141.9260   81.3510  222.1760 C   0  0  0  0  0  0  0  0  0  0  0  0
  142.6070   80.8720  223.4810 C   0  0  2  0  0  0  0  0  0  0  0  0
  143.9190   80.5240  223.2870 O   0  0  0  0  0  0  0  0  0  0  0  0
  141.7590   79.6450  223.8470 C   0  0  0  0  0  0  0  0  0  0  0  0
  141.6930   78.9810  222.5170 C   0  0  1  0  0  0  0  0  0  0  0  0
  140.6410   77.9400  222.4390 C   0  0  0  0  0  0  0  0  0  0  0  0
  139.3210   78.2120  222.7350 C   0  0  0  0  0  0  0  0  0  0  0  0
  138.4190   77.1500  222.6260 C   0  0  0  0  0  0  0  0  0  0  0  0
  138.8310   75.8940  222.2410 C   0  0  0  0  0  0  0  0  0  0  0  0
  140.1520   75.6330  221.9480 C   0  0  0  0  0  0  0  0  0  0  0  0
  141.0490   76.6660  222.0500 C   0  0  0  0  0  0  0  0  0  0  0  0
  142.6500   75.5660  218.9810 C   0  0  0  0  0  0  0  0  0  0  0  0
  142.3890   74.4660  218.1910 C   0  0  0  0  0  0  0  0  0  0  0  0
  143.1870   73.3430  218.2880 C   0  0  0  0  0  0  0  0  0  0  0  0
  144.2420   73.3660  219.1970 C   0  0  0  0  0  0  0  0  0  0  0  0
  145.0460   72.2590  219.3080 C   0  0  0  0  0  0  0  0  0  0  0  0
  144.7400   70.8590  218.3250 Cl  0  0  0  0  0  0  0  0  0  0  0  0
  146.1080   72.2530  220.2070 C   0  0  0  0  0  0  0  0  0  0  0  0
  146.3210   73.3800  220.9710 C   0  0  0  0  0  0  0  0  0  0  0  0
  145.5150   74.4900  220.8600 C   0  0  0  0  0  0  0  0  0  0  0  0
  144.4530   74.4920  219.9580 C   0  0  0  0  0  0  0  0  0  0  0  0
  143.6790   75.5880  219.8680 N   0  0  0  0  0  0  0  0  0  0  0  0
  143.0190   77.9600  219.9510 H   0  0  0  0  0  0  0  0  0  0  0  0
  141.6779   79.7287  218.5043 H   0  0  0  0  0  0  0  0  0  0  0  0
  140.2924   78.5324  218.9445 H   0  0  0  0  0  0  0  0  0  0  0  0
  142.6494   81.8392  221.5064 H   0  0  0  0  0  0  0  0  0  0  0  0
  141.1369   82.0991  222.3427 H   0  0  0  0  0  0  0  0  0  0  0  0
  142.6438   81.6479  224.2599 H   0  0  0  0  0  0  0  0  0  0  0  0
  144.0610   80.1090  222.3980 H   0  0  0  0  0  0  0  0  0  0  0  0
  142.2565   79.0121  224.5966 H   0  0  0  0  0  0  0  0  0  0  0  0
  140.7845   79.8710  224.3045 H   0  0  0  0  0  0  0  0  0  0  0  0
  142.6096   78.4238  222.2735 H   0  0  0  0  0  0  0  0  0  0  0  0
  138.9943   79.2165  223.0420 H   0  0  0  0  0  0  0  0  0  0  0  0
  137.3564   77.3215  222.8529 H   0  0  0  0  0  0  0  0  0  0  0  0
  138.0914   75.0832  222.1658 H   0  0  0  0  0  0  0  0  0  0  0  0
  140.4771   74.6277  221.6419 H   0  0  0  0  0  0  0  0  0  0  0  0
  142.1095   76.4851  221.8205 H   0  0  0  0  0  0  0  0  0  0  0  0
  141.5461   74.4831  217.4844 H   0  0  0  0  0  0  0  0  0  0  0  0
  142.9950   72.4565  217.6657 H   0  0  0  0  0  0  0  0  0  0  0  0
  146.7599   71.3725  220.3052 H   0  0  0  0  0  0  0  0  0  0  0  0
  147.1558   73.3927  221.6872 H   0  0  0  0  0  0  0  0  0  0  0  0
  145.7091   75.3754  221.4832 H   0  0  0  0  0  0  0  0  0  0  0  0
  1  2  2  0
  2  3  1  0
  3  4  1  0
  4  5  1  0
  5  6  2  0
  5  7  1  0
  7  8  1  0
  8  9  1  0
  9 10  1  0
  9 11  1  0
 11 12  1  0
 12 13  1  0
 13 14  2  0
 14 15  1  0
 15 16  2  0
 16 17  1  0
 17 18  2  0
  2 19  1  0
 19 20  2  0
 20 21  1  0
 21 22  2  0
 22 23  1  0
 23 24  1  0
 23 25  2  0
 25 26  1  0
 26 27  2  0
 27 28  1  0
 28 29  2  0
 12  7  1  0
 18 13  1  0
 29 19  1  0
 28 22  1  0
  3 30  1  0
  4 31  1  0
  4 32  1  0
  8 33  1  0
  8 34  1  0
  9 35  1  1
 10 36  1  0
 11 37  1  0
 11 38  1  0
 12 39  1  6
 14 40  1  0
 15 41  1  0
 16 42  1  0
 17 43  1  0
 18 44  1  0
 20 45  1  0
 21 46  1  0
 25 47  1  0
 26 48  1  0
 27 49  1  0
M  END
>  <smiles>  (46) 
O=C(NCC(=O)N1C[C@H](O)C[C@H]1c1ccccc1)c1ccc2c(Cl)cccc2n1

>  <score_type>  (46) 
oracle

>  <origin>  (46) 
autodockgpu

>  <m_score__min__energy>  (46) 
-8.8900000000000006

>  <m_primary>  (46) 
energy

>  <rmsd>  (46) 
7.507644399859114

>  <m_score__min__rmsd>  (46) 
7.507644399859114

>  <meeko>  (46) 
{"free_energy": -7.46, "intermolecular_energy": -9.25, "internal_energy": -2.27, "cluster_size": 9, "cluster_id": 6, "rank_in_cluster": 5}

>  <energy>  (46) 
-7.18

>  <cluster_rmsd>  (46) 
1.06

>  <cluster>  (46) 
7

$$$$

     RDKit          3D

 49 52  0  0  0  0  0  0  0  0999 V2000
  139.8020   71.3340  221.0080 O   0  0  0  0  0  0  0  0  0  0  0  0
  139.5450   71.9080  222.0980 C   0  0  0  0  0  0  0  0  0  0  0  0
  138.9280   73.2280  222.0240 N   0  0  0  0  0  0  0  0  0  0  0  0
  138.6830   73.7210  220.7180 C   0  0  0  0  0  0  0  0  0  0  0  0
  139.7890   73.9740  219.8070 C   0  0  0  0  0  0  0  0  0  0  0  0
  139.4640   74.7290  218.7920 O   0  0  0  0  0  0  0  0  0  0  0  0
  141.1370   73.5210  219.8740 N   0  0  0  0  0  0  0  0  0  0  0  0
  141.7960   72.4520  219.1500 C   0  0  0  0  0  0  0  0  0  0  0  0
  143.2060   72.4340  219.7870 C   0  0  2  0  0  0  0  0  0  0  0  0
  143.2690   71.6280  220.8940 O   0  0  0  0  0  0  0  0  0  0  0  0
  143.3990   73.9090  220.1670 C   0  0  0  0  0  0  0  0  0  0  0  0
  142.0810   74.1790  220.8000 C   0  0  1  0  0  0  0  0  0  0  0  0
  141.7990   75.6250  220.9630 C   0  0  0  0  0  0  0  0  0  0  0  0
  142.2670   76.5650  220.0680 C   0  0  0  0  0  0  0  0  0  0  0  0
  141.9380   77.8990  220.3250 C   0  0  0  0  0  0  0  0  0  0  0  0
  141.1820   78.2540  221.4190 C   0  0  0  0  0  0  0  0  0  0  0  0
  140.7200   77.3070  222.3080 C   0  0  0  0  0  0  0  0  0  0  0  0
  141.0350   75.9930  222.0680 C   0  0  0  0  0  0  0  0  0  0  0  0
  139.8320   71.3240  223.4010 C   0  0  0  0  0  0  0  0  0  0  0  0
  139.5810   69.9760  223.5500 C   0  0  0  0  0  0  0  0  0  0  0  0
  139.8310   69.3590  224.7590 C   0  0  0  0  0  0  0  0  0  0  0  0
  140.3360   70.1350  225.7990 C   0  0  0  0  0  0  0  0  0  0  0  0
  140.5910   69.5390  227.0090 C   0  0  0  0  0  0  0  0  0  0  0  0
  140.2830   67.8430  227.2250 Cl  0  0  0  0  0  0  0  0  0  0  0  0
  141.0950   70.2900  228.0670 C   0  0  0  0  0  0  0  0  0  0  0  0
  141.3260   71.6330  227.8600 C   0  0  0  0  0  0  0  0  0  0  0  0
  141.0710   72.2310  226.6470 C   0  0  0  0  0  0  0  0  0  0  0  0
  140.5660   71.4750  225.5910 C   0  0  0  0  0  0  0  0  0  0  0  0
  140.3240   72.0820  224.4150 N   0  0  0  0  0  0  0  0  0  0  0  0
  138.7410   73.6500  222.9400 H   0  0  0  0  0  0  0  0  0  0  0  0
  138.0269   72.9901  220.2226 H   0  0  0  0  0  0  0  0  0  0  0  0
  138.2791   74.7271  220.9039 H   0  0  0  0  0  0  0  0  0  0  0  0
  141.2795   71.4926  219.3010 H   0  0  0  0  0  0  0  0  0  0  0  0
  141.8094   72.6041  218.0606 H   0  0  0  0  0  0  0  0  0  0  0  0
  143.9786   72.0325  219.1149 H   0  0  0  0  0  0  0  0  0  0  0  0
  142.3680   71.3340  221.1850 H   0  0  0  0  0  0  0  0  0  0  0  0
  144.2291   74.0440  220.8760 H   0  0  0  0  0  0  0  0  0  0  0  0
  143.6604   74.5754  219.3318 H   0  0  0  0  0  0  0  0  0  0  0  0
  142.0186   73.7982  221.8301 H   0  0  0  0  0  0  0  0  0  0  0  0
  142.8702   76.2783  219.1939 H   0  0  0  0  0  0  0  0  0  0  0  0
  142.2910   78.6822  219.6379 H   0  0  0  0  0  0  0  0  0  0  0  0
  140.9417   79.3142  221.5873 H   0  0  0  0  0  0  0  0  0  0  0  0
  140.1178   77.5955  223.1822 H   0  0  0  0  0  0  0  0  0  0  0  0
  140.6778   75.2166  222.7606 H   0  0  0  0  0  0  0  0  0  0  0  0
  139.1821   69.3935  222.7065 H   0  0  0  0  0  0  0  0  0  0  0  0
  139.6369   68.2851  224.8970 H   0  0  0  0  0  0  0  0  0  0  0  0
  141.3033   69.8245  229.0416 H   0  0  0  0  0  0  0  0  0  0  0  0
  141.7241   72.2420  228.6850 H   0  0  0  0  0  0  0  0  0  0  0  0
  141.2657   73.3051  226.5112 H   0  0  0  0  0  0  0  0  0  0  0  0
  1  2  2  0
  2  3  1  0
  3  4  1  0
  4  5  1  0
  5  6  2  0
  5  7  1  0
  7  8  1  0
  8  9  1  0
  9 10  1  0
  9 11  1  0
 11 12  1  0
 12 13  1  0
 13 14  2  0
 14 15  1  0
 15 16  2  0
 16 17  1  0
 17 18  2  0
  2 19  1  0
 19 20  2  0
 20 21  1  0
 21 22  2  0
 22 23  1  0
 23 24  1  0
 23 25  2  0
 25 26  1  0
 26 27  2  0
 27 28  1  0
 28 29  2  0
 12  7  1  0
 18 13  1  0
 29 19  1  0
 28 22  1  0
  3 30  1  0
  4 31  1  0
  4 32  1  0
  8 33  1  0
  8 34  1  0
  9 35  1  6
 10 36  1  0
 11 37  1  0
 11 38  1  0
 12 39  1  1
 14 40  1  0
 15 41  1  0
 16 42  1  0
 17 43  1  0
 18 44  1  0
 20 45  1  0
 21 46  1  0
 25 47  1  0
 26 48  1  0
 27 49  1  0
M  END
>  <smiles>  (47) 
O=C(NCC(=O)N1C[C@H](O)C[C@H]1c1ccccc1)c1ccc2c(Cl)cccc2n1

>  <score_type>  (47) 
oracle

>  <origin>  (47) 
autodockgpu

>  <m_score__min__energy>  (47) 
-8.8900000000000006

>  <m_primary>  (47) 
energy

>  <rmsd>  (47) 
2.623254507969421

>  <m_score__min__rmsd>  (47) 
2.623254507969421

>  <meeko>  (47) 
{"free_energy": -7.35, "intermolecular_energy": -9.14, "internal_energy": -2.24, "cluster_size": 13, "cluster_id": 2, "rank_in_cluster": 12}

>  <energy>  (47) 
-7.16

>  <cluster_rmsd>  (47) 
1.07

>  <cluster>  (47) 
7

$$$$

     RDKit          3D

 49 52  0  0  0  0  0  0  0  0999 V2000
  141.0840   71.8230  221.3600 O   0  0  0  0  0  0  0  0  0  0  0  0
  140.3940   72.1700  222.3540 C   0  0  0  0  0  0  0  0  0  0  0  0
  139.6700   73.4330  222.2510 N   0  0  0  0  0  0  0  0  0  0  0  0
  139.8250   74.1340  221.0290 C   0  0  0  0  0  0  0  0  0  0  0  0
  140.8530   75.1560  220.8920 C   0  0  0  0  0  0  0  0  0  0  0  0
  141.4570   75.4380  222.0140 O   0  0  0  0  0  0  0  0  0  0  0  0
  141.2730   75.8640  219.7310 N   0  0  0  0  0  0  0  0  0  0  0  0
  140.8670   77.1660  219.2390 C   0  0  0  0  0  0  0  0  0  0  0  0
  141.6210   77.2650  217.8910 C   0  0  2  0  0  0  0  0  0  0  0  0
  140.9070   76.7270  216.8520 O   0  0  0  0  0  0  0  0  0  0  0  0
  142.8860   76.4410  218.1760 C   0  0  0  0  0  0  0  0  0  0  0  0
  142.2700   75.2550  218.8280 C   0  0  1  0  0  0  0  0  0  0  0  0
  143.2530   74.4150  219.5520 C   0  0  0  0  0  0  0  0  0  0  0  0
  144.3460   74.9590  220.1940 C   0  0  0  0  0  0  0  0  0  0  0  0
  145.2040   74.0670  220.8440 C   0  0  0  0  0  0  0  0  0  0  0  0
  144.9660   72.7110  220.8430 C   0  0  0  0  0  0  0  0  0  0  0  0
  143.8710   72.1780  220.1990 C   0  0  0  0  0  0  0  0  0  0  0  0
  143.0190   73.0410  219.5560 C   0  0  0  0  0  0  0  0  0  0  0  0
  140.2920   71.3840  223.5750 C   0  0  0  0  0  0  0  0  0  0  0  0
  139.7880   70.1050  223.4540 C   0  0  0  0  0  0  0  0  0  0  0  0
  139.6650   69.3050  224.5720 C   0  0  0  0  0  0  0  0  0  0  0  0
  140.0600   69.8300  225.8000 C   0  0  0  0  0  0  0  0  0  0  0  0
  139.9440   69.0490  226.9240 C   0  0  0  0  0  0  0  0  0  0  0  0
  139.3130   67.4360  226.8010 Cl  0  0  0  0  0  0  0  0  0  0  0  0
  140.3310   69.5470  228.1640 C   0  0  0  0  0  0  0  0  0  0  0  0
  140.8270   70.8310  228.2250 C   0  0  0  0  0  0  0  0  0  0  0  0
  140.9430   71.6140  227.0990 C   0  0  0  0  0  0  0  0  0  0  0  0
  140.5550   71.1120  225.8590 C   0  0  0  0  0  0  0  0  0  0  0  0
  140.6780   71.8960  224.7730 N   0  0  0  0  0  0  0  0  0  0  0  0
  139.1260   73.6680  223.0890 H   0  0  0  0  0  0  0  0  0  0  0  0
  140.0255   73.3787  220.2549 H   0  0  0  0  0  0  0  0  0  0  0  0
  138.8905   74.7091  220.9518 H   0  0  0  0  0  0  0  0  0  0  0  0
  139.7782   77.2127  219.0898 H   0  0  0  0  0  0  0  0  0  0  0  0
  141.0983   77.9882  219.9321 H   0  0  0  0  0  0  0  0  0  0  0  0
  141.8140   78.3021  217.5793 H   0  0  0  0  0  0  0  0  0  0  0  0
  140.3760   75.9410  217.1410 H   0  0  0  0  0  0  0  0  0  0  0  0
  143.4159   76.1707  217.2507 H   0  0  0  0  0  0  0  0  0  0  0  0
  143.6533   76.9556  218.7730 H   0  0  0  0  0  0  0  0  0  0  0  0
  141.8303   74.5522  218.1050 H   0  0  0  0  0  0  0  0  0  0  0  0
  144.5335   76.0429  220.1945 H   0  0  0  0  0  0  0  0  0  0  0  0
  146.0890   74.4573  221.3679 H   0  0  0  0  0  0  0  0  0  0  0  0
  145.6634   72.0404  221.3664 H   0  0  0  0  0  0  0  0  0  0  0  0
  143.6851   71.0938  220.2000 H   0  0  0  0  0  0  0  0  0  0  0  0
  142.1365   72.6414  219.0350 H   0  0  0  0  0  0  0  0  0  0  0  0
  139.4847   69.7236  222.4678 H   0  0  0  0  0  0  0  0  0  0  0  0
  139.2666   68.2826  224.4953 H   0  0  0  0  0  0  0  0  0  0  0  0
  140.2433   68.9319  229.0718 H   0  0  0  0  0  0  0  0  0  0  0  0
  141.1379   71.2404  229.1975 H   0  0  0  0  0  0  0  0  0  0  0  0
  141.3420   72.6360  227.1783 H   0  0  0  0  0  0  0  0  0  0  0  0
  1  2  2  0
  2  3  1  0
  3  4  1  0
  4  5  1  0
  5  6  2  0
  5  7  1  0
  7  8  1  0
  8  9  1  0
  9 10  1  0
  9 11  1  0
 11 12  1  0
 12 13  1  0
 13 14  2  0
 14 15  1  0
 15 16  2  0
 16 17  1  0
 17 18  2  0
  2 19  1  0
 19 20  2  0
 20 21  1  0
 21 22  2  0
 22 23  1  0
 23 24  1  0
 23 25  2  0
 25 26  1  0
 26 27  2  0
 27 28  1  0
 28 29  2  0
 12  7  1  0
 18 13  1  0
 29 19  1  0
 28 22  1  0
  3 30  1  0
  4 31  1  0
  4 32  1  0
  8 33  1  0
  8 34  1  0
  9 35  1  6
 10 36  1  0
 11 37  1  0
 11 38  1  0
 12 39  1  6
 14 40  1  0
 15 41  1  0
 16 42  1  0
 17 43  1  0
 18 44  1  0
 20 45  1  0
 21 46  1  0
 25 47  1  0
 26 48  1  0
 27 49  1  0
M  END
>  <smiles>  (48) 
O=C(NCC(=O)N1C[C@H](O)C[C@H]1c1ccccc1)c1ccc2c(Cl)cccc2n1

>  <score_type>  (48) 
oracle

>  <origin>  (48) 
autodockgpu

>  <m_score__min__energy>  (48) 
-8.8900000000000006

>  <m_primary>  (48) 
energy

>  <rmsd>  (48) 
2.0147871772095356

>  <m_score__min__rmsd>  (48) 
2.0147871772095356

>  <meeko>  (48) 
{"free_energy": -8.14, "intermolecular_energy": -9.93, "internal_energy": -1.71, "cluster_size": 7, "cluster_id": 3, "rank_in_cluster": 6}

>  <energy>  (48) 
-6.93

>  <cluster_rmsd>  (48) 
1.42

>  <cluster>  (48) 
7

$$$$

     RDKit          3D

 49 52  0  0  0  0  0  0  0  0999 V2000
  136.6390   77.2460  222.8330 O   0  0  0  0  0  0  0  0  0  0  0  0
  136.7370   76.0260  223.1270 C   0  0  0  0  0  0  0  0  0  0  0  0
  137.8400   75.2850  222.5250 N   0  0  0  0  0  0  0  0  0  0  0  0
  138.6880   76.0310  221.6680 C   0  0  0  0  0  0  0  0  0  0  0  0
  140.0350   75.5630  221.3770 C   0  0  0  0  0  0  0  0  0  0  0  0
  140.3930   74.5330  222.0950 O   0  0  0  0  0  0  0  0  0  0  0  0
  140.9840   76.0650  220.4420 N   0  0  0  0  0  0  0  0  0  0  0  0
  141.3190   75.5930  219.1140 C   0  0  0  0  0  0  0  0  0  0  0  0
  142.4950   76.5170  218.7150 C   0  0  2  0  0  0  0  0  0  0  0  0
  143.7080   76.0230  219.1210 O   0  0  0  0  0  0  0  0  0  0  0  0
  142.1470   77.8110  219.4660 C   0  0  0  0  0  0  0  0  0  0  0  0
  141.8020   77.2430  220.7970 C   0  0  1  0  0  0  0  0  0  0  0  0
  141.0740   78.1980  221.6650 C   0  0  0  0  0  0  0  0  0  0  0  0
  140.0480   78.9840  221.1850 C   0  0  0  0  0  0  0  0  0  0  0  0
  139.4360   79.8480  222.0990 C   0  0  0  0  0  0  0  0  0  0  0  0
  139.8400   79.9070  223.4130 C   0  0  0  0  0  0  0  0  0  0  0  0
  140.8670   79.1170  223.8830 C   0  0  0  0  0  0  0  0  0  0  0  0
  141.4770   78.2640  222.9970 C   0  0  0  0  0  0  0  0  0  0  0  0
  135.8160   75.3390  224.0210 C   0  0  0  0  0  0  0  0  0  0  0  0
  135.7710   73.9630  223.9340 C   0  0  0  0  0  0  0  0  0  0  0  0
  134.9200   73.2490  224.7530 C   0  0  0  0  0  0  0  0  0  0  0  0
  134.1250   73.9580  225.6500 C   0  0  0  0  0  0  0  0  0  0  0  0
  133.2720   73.2650  226.4730 C   0  0  0  0  0  0  0  0  0  0  0  0
  133.1940   71.5310  226.3840 Cl  0  0  0  0  0  0  0  0  0  0  0  0
  132.4660   73.9470  227.3790 C   0  0  0  0  0  0  0  0  0  0  0  0
  132.5530   75.3210  227.4220 C   0  0  0  0  0  0  0  0  0  0  0  0
  133.4080   76.0160  226.5980 C   0  0  0  0  0  0  0  0  0  0  0  0
  134.2130   75.3300  225.6920 C   0  0  0  0  0  0  0  0  0  0  0  0
  135.0410   76.0310  224.8960 N   0  0  0  0  0  0  0  0  0  0  0  0
  137.8720   74.2970  222.7970 H   0  0  0  0  0  0  0  0  0  0  0  0
  138.1672   76.1144  220.7027 H   0  0  0  0  0  0  0  0  0  0  0  0
  138.8632   76.9569  222.2354 H   0  0  0  0  0  0  0  0  0  0  0  0
  141.6315   74.5385  219.1343 H   0  0  0  0  0  0  0  0  0  0  0  0
  140.4745   75.6303  218.4101 H   0  0  0  0  0  0  0  0  0  0  0  0
  142.6011   76.6368  217.6267 H   0  0  0  0  0  0  0  0  0  0  0  0
  144.3850   76.0770  218.3990 H   0  0  0  0  0  0  0  0  0  0  0  0
  143.0064   78.4952  219.5230 H   0  0  0  0  0  0  0  0  0  0  0  0
  141.3593   78.4223  219.0015 H   0  0  0  0  0  0  0  0  0  0  0  0
  142.6897   76.9930  221.3965 H   0  0  0  0  0  0  0  0  0  0  0  0
  139.7263   78.9341  220.1343 H   0  0  0  0  0  0  0  0  0  0  0  0
  138.6134   80.4947  221.7598 H   0  0  0  0  0  0  0  0  0  0  0  0
  139.3332   80.5985  224.1022 H   0  0  0  0  0  0  0  0  0  0  0  0
  141.1875   79.1683  224.9340 H   0  0  0  0  0  0  0  0  0  0  0  0
  142.2988   77.6210  223.3451 H   0  0  0  0  0  0  0  0  0  0  0  0
  136.4126   73.4355  223.2128 H   0  0  0  0  0  0  0  0  0  0  0  0
  134.8711   72.1514  224.6988 H   0  0  0  0  0  0  0  0  0  0  0  0
  131.7778   73.4036  228.0431 H   0  0  0  0  0  0  0  0  0  0  0  0
  131.9233   75.8764  228.1327 H   0  0  0  0  0  0  0  0  0  0  0  0
  133.4557   77.1135  226.6549 H   0  0  0  0  0  0  0  0  0  0  0  0
  1  2  2  0
  2  3  1  0
  3  4  1  0
  4  5  1  0
  5  6  2  0
  5  7  1  0
  7  8  1  0
  8  9  1  0
  9 10  1  0
  9 11  1  0
 11 12  1  0
 12 13  1  0
 13 14  2  0
 14 15  1  0
 15 16  2  0
 16 17  1  0
 17 18  2  0
  2 19  1  0
 19 20  2  0
 20 21  1  0
 21 22  2  0
 22 23  1  0
 23 24  1  0
 23 25  2  0
 25 26  1  0
 26 27  2  0
 27 28  1  0
 28 29  2  0
 12  7  1  0
 18 13  1  0
 29 19  1  0
 28 22  1  0
  3 30  1  0
  4 31  1  0
  4 32  1  0
  8 33  1  0
  8 34  1  0
  9 35  1  6
 10 36  1  0
 11 37  1  0
 11 38  1  0
 12 39  1  1
 14 40  1  0
 15 41  1  0
 16 42  1  0
 17 43  1  0
 18 44  1  0
 20 45  1  0
 21 46  1  0
 25 47  1  0
 26 48  1  0
 27 49  1  0
M  END
>  <smiles>  (49) 
O=C(NCC(=O)N1C[C@H](O)C[C@H]1c1ccccc1)c1ccc2c(Cl)cccc2n1

>  <score_type>  (49) 
oracle

>  <origin>  (49) 
autodockgpu

>  <m_score__min__energy>  (49) 
-8.8900000000000006

>  <m_primary>  (49) 
energy

>  <rmsd>  (49) 
5.379246954846633

>  <m_score__min__rmsd>  (49) 
5.379246954846633

>  <meeko>  (49) 
{"free_energy": -7.53, "intermolecular_energy": -9.32, "internal_energy": -1.51, "cluster_size": 3, "cluster_id": 4, "rank_in_cluster": 2}

>  <energy>  (49) 
-7.3

>  <cluster_rmsd>  (49) 
0.0

>  <cluster>  (49) 
8

$$$$

     RDKit          3D

 49 52  0  0  0  0  0  0  0  0999 V2000
  140.2800   71.7920  221.0630 O   0  0  0  0  0  0  0  0  0  0  0  0
  139.6270   72.0940  222.0960 C   0  0  0  0  0  0  0  0  0  0  0  0
  138.6010   73.1220  221.9540 N   0  0  0  0  0  0  0  0  0  0  0  0
  138.4510   73.6690  220.6550 C   0  0  0  0  0  0  0  0  0  0  0  0
  139.5240   74.4500  220.0580 C   0  0  0  0  0  0  0  0  0  0  0  0
  139.1200   75.5820  219.5490 O   0  0  0  0  0  0  0  0  0  0  0  0
  140.9130   74.1510  219.9580 N   0  0  0  0  0  0  0  0  0  0  0  0
  141.6080   73.2520  219.0600 C   0  0  0  0  0  0  0  0  0  0  0  0
  143.0670   73.3280  219.5710 C   0  0  2  0  0  0  0  0  0  0  0  0
  143.3200   72.4180  220.5660 O   0  0  0  0  0  0  0  0  0  0  0  0
  143.1380   74.7660  220.1080 C   0  0  0  0  0  0  0  0  0  0  0  0
  141.8660   74.8090  220.8750 C   0  0  1  0  0  0  0  0  0  0  0  0
  141.4500   76.1870  221.2330 C   0  0  0  0  0  0  0  0  0  0  0  0
  140.6860   76.4510  222.3500 C   0  0  0  0  0  0  0  0  0  0  0  0
  140.3540   77.7890  222.5840 C   0  0  0  0  0  0  0  0  0  0  0  0
  140.7730   78.7910  221.7390 C   0  0  0  0  0  0  0  0  0  0  0  0
  141.5350   78.5160  220.6250 C   0  0  0  0  0  0  0  0  0  0  0  0
  141.8690   77.2070  220.3820 C   0  0  0  0  0  0  0  0  0  0  0  0
  139.8480   71.4780  223.3970 C   0  0  0  0  0  0  0  0  0  0  0  0
  139.5040   70.1490  223.5240 C   0  0  0  0  0  0  0  0  0  0  0  0
  139.6880   69.5020  224.7300 C   0  0  0  0  0  0  0  0  0  0  0  0
  140.2230   70.2310  225.7890 C   0  0  0  0  0  0  0  0  0  0  0  0
  140.4130   69.6060  226.9970 C   0  0  0  0  0  0  0  0  0  0  0  0
  139.9880   67.9320  227.1860 Cl  0  0  0  0  0  0  0  0  0  0  0  0
  140.9460   70.3090  228.0720 C   0  0  0  0  0  0  0  0  0  0  0  0
  141.2720   71.6350  227.8860 C   0  0  0  0  0  0  0  0  0  0  0  0
  141.0820   72.2620  226.6770 C   0  0  0  0  0  0  0  0  0  0  0  0
  140.5480   71.5550  225.6020 C   0  0  0  0  0  0  0  0  0  0  0  0
  140.3710   72.1890  224.4300 N   0  0  0  0  0  0  0  0  0  0  0  0
  138.1010   73.3300  222.8250 H   0  0  0  0  0  0  0  0  0  0  0  0
  138.2599   72.8244  219.9767 H   0  0  0  0  0  0  0  0  0  0  0  0
  137.6481   74.4091  220.7875 H   0  0  0  0  0  0  0  0  0  0  0  0
  141.2126   72.2285  219.1378 H   0  0  0  0  0  0  0  0  0  0  0  0
  141.5007   73.5228  217.9993 H   0  0  0  0  0  0  0  0  0  0  0  0
  143.8100   73.0949  218.7941 H   0  0  0  0  0  0  0  0  0  0  0  0
  142.4840   72.0220  220.9210 H   0  0  0  0  0  0  0  0  0  0  0  0
  144.0130   74.9182  220.7570 H   0  0  0  0  0  0  0  0  0  0  0  0
  143.2463   75.5460  219.3400 H   0  0  0  0  0  0  0  0  0  0  0  0
  141.9420   74.3123  221.8535 H   0  0  0  0  0  0  0  0  0  0  0  0
  140.3538   75.6480  223.0244 H   0  0  0  0  0  0  0  0  0  0  0  0
  139.7445   78.0462  223.4628 H   0  0  0  0  0  0  0  0  0  0  0  0
  140.4938   79.8323  221.9575 H   0  0  0  0  0  0  0  0  0  0  0  0
  141.8655   79.3202  219.9512 H   0  0  0  0  0  0  0  0  0  0  0  0
  142.4780   76.9593  219.5001 H   0  0  0  0  0  0  0  0  0  0  0  0
  139.0834   69.6046  222.6656 H   0  0  0  0  0  0  0  0  0  0  0  0
  139.4199   68.4420  224.8506 H   0  0  0  0  0  0  0  0  0  0  0  0
  141.1032   69.8198  229.0446 H   0  0  0  0  0  0  0  0  0  0  0  0
  141.6948   72.2061  228.7257 H   0  0  0  0  0  0  0  0  0  0  0  0
  141.3517   73.3219  226.5587 H   0  0  0  0  0  0  0  0  0  0  0  0
  1  2  2  0
  2  3  1  0
  3  4  1  0
  4  5  1  0
  5  6  2  0
  5  7  1  0
  7  8  1  0
  8  9  1  0
  9 10  1  0
  9 11  1  0
 11 12  1  0
 12 13  1  0
 13 14  2  0
 14 15  1  0
 15 16  2  0
 16 17  1  0
 17 18  2  0
  2 19  1  0
 19 20  2  0
 20 21  1  0
 21 22  2  0
 22 23  1  0
 23 24  1  0
 23 25  2  0
 25 26  1  0
 26 27  2  0
 27 28  1  0
 28 29  2  0
 12  7  1  0
 18 13  1  0
 29 19  1  0
 28 22  1  0
  3 30  1  0
  4 31  1  0
  4 32  1  0
  8 33  1  0
  8 34  1  0
  9 35  1  6
 10 36  1  0
 11 37  1  0
 11 38  1  0
 12 39  1  1
 14 40  1  0
 15 41  1  0
 16 42  1  0
 17 43  1  0
 18 44  1  0
 20 45  1  0
 21 46  1  0
 25 47  1  0
 26 48  1  0
 27 49  1  0
M  END
>  <smiles>  (50) 
O=C(NCC(=O)N1C[C@H](O)C[C@H]1c1ccccc1)c1ccc2c(Cl)cccc2n1

>  <score_type>  (50) 
oracle

>  <origin>  (50) 
autodockgpu

>  <m_score__min__energy>  (50) 
-8.8900000000000006

>  <m_primary>  (50) 
energy

>  <rmsd>  (50) 
2.2472911707757772

>  <m_score__min__rmsd>  (50) 
2.2472911707757772

>  <meeko>  (50) 
{"free_energy": -7.44, "intermolecular_energy": -9.23, "internal_energy": -2.29, "cluster_size": 7, "cluster_id": 1, "rank_in_cluster": 6}

>  <energy>  (50) 
-6.62

>  <cluster_rmsd>  (50) 
0.0

>  <cluster>  (50) 
9

$$$$
