
     RDKit          3D

 47 50  0  0  0  0  0  0  0  0999 V2000
  139.4480   70.5200  221.1250 O   0  0  0  0  0  0  0  0  0  0  0  0
  140.1870   71.1200  221.9700 C   0  0  0  0  0  0  0  0  0  0  0  0
  141.1160   72.0740  221.4540 N   0  0  0  0  0  0  0  0  0  0  0  0
  141.1200   72.2590  220.0100 C   0  0  0  0  0  0  0  0  0  0  0  0
  142.4340   71.8960  219.4210 C   0  0  0  0  0  0  0  0  0  0  0  0
  142.6300   70.7870  218.8250 O   0  0  0  0  0  0  0  0  0  0  0  0
  143.4870   72.8340  219.5410 N   0  0  0  0  0  0  0  0  0  0  0  0
  144.4790   73.2270  218.5300 C   0  0  0  0  0  0  0  0  0  0  0  0
  145.7280   73.2550  219.4120 C   0  0  2  0  0  0  0  0  0  0  0  0
  145.9440   71.9340  219.8300 O   0  0  0  0  0  0  0  0  0  0  0  0
  145.2160   74.0820  220.5720 C   0  0  0  0  0  0  0  0  0  0  0  0
  143.8030   73.6130  220.7220 C   0  0  1  0  0  0  0  0  0  0  0  0
  142.8340   74.7520  220.7350 C   0  0  0  0  0  0  0  0  0  0  0  0
  141.7680   74.7050  221.5540 N   0  0  0  0  0  0  0  0  0  0  0  0
  140.8650   75.7240  221.5930 C   0  0  0  0  0  0  0  0  0  0  0  0
  141.0930   76.8070  220.7510 C   0  0  0  0  0  0  0  0  0  0  0  0
  139.9220   78.1240  220.8030 Cl  0  0  0  0  0  0  0  0  0  0  0  0
  142.1810   76.8710  219.9040 C   0  0  0  0  0  0  0  0  0  0  0  0
  143.0420   75.8130  219.9220 N   0  0  0  0  0  0  0  0  0  0  0  0
  140.0990   70.8550  223.4030 C   0  0  0  0  0  0  0  0  0  0  0  0
  139.3530   69.7630  223.8060 C   0  0  0  0  0  0  0  0  0  0  0  0
  139.2110   69.4300  225.1530 C   0  0  0  0  0  0  0  0  0  0  0  0
  139.8630   70.2590  226.0680 C   0  0  0  0  0  0  0  0  0  0  0  0
  139.7430   69.9580  227.4170 C   0  0  0  0  0  0  0  0  0  0  0  0
  140.3900   70.7780  228.3390 C   0  0  0  0  0  0  0  0  0  0  0  0
  141.1410   71.8780  227.9230 C   0  0  0  0  0  0  0  0  0  0  0  0
  141.2350   72.1440  226.5670 C   0  0  0  0  0  0  0  0  0  0  0  0
  140.6060   71.3470  225.6450 C   0  0  0  0  0  0  0  0  0  0  0  0
  140.7100   71.6260  224.3140 N   0  0  0  0  0  0  0  0  0  0  0  0
  141.7530   72.6060  222.0650 H   0  0  0  0  0  0  0  0  0  0  0  0
  140.3405   71.6228  219.5655 H   0  0  0  0  0  0  0  0  0  0  0  0
  140.9262   73.3205  219.7964 H   0  0  0  0  0  0  0  0  0  0  0  0
  144.5613   72.4838  217.7232 H   0  0  0  0  0  0  0  0  0  0  0  0
  144.2600   74.1618  217.9931 H   0  0  0  0  0  0  0  0  0  0  0  0
  146.6549   73.6384  218.9605 H   0  0  0  0  0  0  0  0  0  0  0  0
  145.9070   71.8270  220.8070 H   0  0  0  0  0  0  0  0  0  0  0  0
  145.7970   73.8848  221.4850 H   0  0  0  0  0  0  0  0  0  0  0  0
  145.2972   75.1656  220.4010 H   0  0  0  0  0  0  0  0  0  0  0  0
  143.7214   73.0533  221.6654 H   0  0  0  0  0  0  0  0  0  0  0  0
  139.9925   75.6916  222.2621 H   0  0  0  0  0  0  0  0  0  0  0  0
  142.3463   77.7357  219.2445 H   0  0  0  0  0  0  0  0  0  0  0  0
  138.8589   69.1410  223.0451 H   0  0  0  0  0  0  0  0  0  0  0  0
  138.6179   68.5620  225.4767 H   0  0  0  0  0  0  0  0  0  0  0  0
  139.1513   69.0928  227.7506 H   0  0  0  0  0  0  0  0  0  0  0  0
  140.3074   70.5545  229.4129 H   0  0  0  0  0  0  0  0  0  0  0  0
  141.6482   72.5210  228.6573 H   0  0  0  0  0  0  0  0  0  0  0  0
  141.8233   73.0079  226.2242 H   0  0  0  0  0  0  0  0  0  0  0  0
  1  2  2  0
  2  3  1  0
  3  4  1  0
  4  5  1  0
  5  6  2  0
  5  7  1  0
  7  8  1  0
  8  9  1  0
  9 10  1  0
  9 11  1  0
 11 12  1  0
 12 13  1  0
 13 14  2  0
 14 15  1  0
 15 16  2  0
 16 17  1  0
 16 18  1  0
 18 19  2  0
  2 20  1  0
 20 21  2  0
 21 22  1  0
 22 23  2  0
 23 24  1  0
 24 25  2  0
 25 26  1  0
 26 27  2  0
 27 28  1  0
 28 29  2  0
 12  7  1  0
 19 13  1  0
 29 20  1  0
 28 23  1  0
  3 30  1  0
  4 31  1  0
  4 32  1  0
  8 33  1  0
  8 34  1  0
  9 35  1  6
 10 36  1  0
 11 37  1  0
 11 38  1  0
 12 39  1  1
 15 40  1  0
 18 41  1  0
 21 42  1  0
 22 43  1  0
 24 44  1  0
 25 45  1  0
 26 46  1  0
 27 47  1  0
M  END
>  <smiles>  (1) 
O=C(NCC(=O)N1C[C@H](O)C[C@H]1c1ncc(Cl)cn1)c1ccc2ccccc2n1

>  <score_type>  (1) 
oracle

>  <origin>  (1) 
autodockgpu

>  <m_score__min__energy>  (1) 
-8.1999999999999993

>  <m_primary>  (1) 
energy

>  <rmsd>  (1) 
3.753730890274133

>  <m_score__min__rmsd>  (1) 
3.753730890274133

>  <meeko>  (1) 
{"free_energy": -7.41, "intermolecular_energy": -9.2, "internal_energy": -2.12, "cluster_size": 7, "cluster_id": 1, "rank_in_cluster": 5}

>  <energy>  (1) 
-8.2

>  <cluster_rmsd>  (1) 
0.0

>  <cluster>  (1) 
1

$$$$

     RDKit          3D

 47 50  0  0  0  0  0  0  0  0999 V2000
  139.8530   73.9990  222.3390 O   0  0  0  0  0  0  0  0  0  0  0  0
  140.5440   72.9310  222.3490 C   0  0  0  0  0  0  0  0  0  0  0  0
  141.6040   72.8380  221.3960 N   0  0  0  0  0  0  0  0  0  0  0  0
  141.7820   73.9800  220.5110 C   0  0  0  0  0  0  0  0  0  0  0  0
  142.7570   73.6810  219.4320 C   0  0  0  0  0  0  0  0  0  0  0  0
  142.7090   74.2500  218.2930 O   0  0  0  0  0  0  0  0  0  0  0  0
  143.7650   72.7260  219.7060 N   0  0  0  0  0  0  0  0  0  0  0  0
  144.7100   72.6940  220.8320 C   0  0  0  0  0  0  0  0  0  0  0  0
  145.9790   72.2990  220.0730 C   0  0  2  0  0  0  0  0  0  0  0  0
  146.2700   73.3670  219.2120 O   0  0  0  0  0  0  0  0  0  0  0  0
  145.4560   71.1250  219.2740 C   0  0  0  0  0  0  0  0  0  0  0  0
  144.0730   71.5570  218.9040 C   0  0  1  0  0  0  0  0  0  0  0  0
  143.0490   70.5290  219.2670 C   0  0  0  0  0  0  0  0  0  0  0  0
  143.4090   69.2360  219.3490 N   0  0  0  0  0  0  0  0  0  0  0  0
  142.5040   68.2730  219.6780 C   0  0  0  0  0  0  0  0  0  0  0  0
  141.1980   68.6850  219.9220 C   0  0  0  0  0  0  0  0  0  0  0  0
  140.0280   67.4360  220.3460 Cl  0  0  0  0  0  0  0  0  0  0  0  0
  140.8120   70.0070  219.8420 C   0  0  0  0  0  0  0  0  0  0  0  0
  141.7740   70.9150  219.5090 N   0  0  0  0  0  0  0  0  0  0  0  0
  140.2780   71.8430  223.2860 C   0  0  0  0  0  0  0  0  0  0  0  0
  139.5490   70.7640  222.8200 C   0  0  0  0  0  0  0  0  0  0  0  0
  139.2440   69.6770  223.6410 C   0  0  0  0  0  0  0  0  0  0  0  0
  139.7160   69.7410  224.9530 C   0  0  0  0  0  0  0  0  0  0  0  0
  139.4320   68.6770  225.7980 C   0  0  0  0  0  0  0  0  0  0  0  0
  139.8990   68.7300  227.1090 C   0  0  0  0  0  0  0  0  0  0  0  0
  140.6340   69.8230  227.5710 C   0  0  0  0  0  0  0  0  0  0  0  0
  140.8950   70.8640  226.6950 C   0  0  0  0  0  0  0  0  0  0  0  0
  140.4450   70.8300  225.4000 C   0  0  0  0  0  0  0  0  0  0  0  0
  140.7130   71.8650  224.5540 N   0  0  0  0  0  0  0  0  0  0  0  0
  142.2140   72.0100  221.3340 H   0  0  0  0  0  0  0  0  0  0  0  0
  140.8131   74.2359  220.0573 H   0  0  0  0  0  0  0  0  0  0  0  0
  142.1689   74.8215  221.1045 H   0  0  0  0  0  0  0  0  0  0  0  0
  144.8083   73.6772  221.3153 H   0  0  0  0  0  0  0  0  0  0  0  0
  144.4313   72.0295  221.6631 H   0  0  0  0  0  0  0  0  0  0  0  0
  146.8743   72.0733  220.6709 H   0  0  0  0  0  0  0  0  0  0  0  0
  145.6740   74.1400  219.3400 H   0  0  0  0  0  0  0  0  0  0  0  0
  146.0693   70.9529  218.3772 H   0  0  0  0  0  0  0  0  0  0  0  0
  145.4786   70.1773  219.8320 H   0  0  0  0  0  0  0  0  0  0  0  0
  144.0440   71.7343  217.8188 H   0  0  0  0  0  0  0  0  0  0  0  0
  142.7935   67.2141  219.7478 H   0  0  0  0  0  0  0  0  0  0  0  0
  139.7744   70.3153  220.0380 H   0  0  0  0  0  0  0  0  0  0  0  0
  139.2009   70.7623  221.7765 H   0  0  0  0  0  0  0  0  0  0  0  0
  138.6637   68.8175  223.2742 H   0  0  0  0  0  0  0  0  0  0  0  0
  138.8523   67.8131  225.4409 H   0  0  0  0  0  0  0  0  0  0  0  0
  139.6847   67.8954  227.7928 H   0  0  0  0  0  0  0  0  0  0  0  0
  140.9982   69.8570  228.6084 H   0  0  0  0  0  0  0  0  0  0  0  0
  141.4729   71.7324  227.0440 H   0  0  0  0  0  0  0  0  0  0  0  0
  1  2  2  0
  2  3  1  0
  3  4  1  0
  4  5  1  0
  5  6  2  0
  5  7  1  0
  7  8  1  0
  8  9  1  0
  9 10  1  0
  9 11  1  0
 11 12  1  0
 12 13  1  0
 13 14  2  0
 14 15  1  0
 15 16  2  0
 16 17  1  0
 16 18  1  0
 18 19  2  0
  2 20  1  0
 20 21  2  0
 21 22  1  0
 22 23  2  0
 23 24  1  0
 24 25  2  0
 25 26  1  0
 26 27  2  0
 27 28  1  0
 28 29  2  0
 12  7  1  0
 19 13  1  0
 29 20  1  0
 28 23  1  0
  3 30  1  0
  4 31  1  0
  4 32  1  0
  8 33  1  0
  8 34  1  0
  9 35  1  1
 10 36  1  0
 11 37  1  0
 11 38  1  0
 12 39  1  6
 15 40  1  0
 18 41  1  0
 21 42  1  0
 22 43  1  0
 24 44  1  0
 25 45  1  0
 26 46  1  0
 27 47  1  0
M  END
>  <smiles>  (2) 
O=C(NCC(=O)N1C[C@H](O)C[C@H]1c1ncc(Cl)cn1)c1ccc2ccccc2n1

>  <score_type>  (2) 
oracle

>  <origin>  (2) 
autodockgpu

>  <m_score__min__energy>  (2) 
-8.1999999999999993

>  <m_primary>  (2) 
energy

>  <rmsd>  (2) 
6.052468295434591

>  <m_score__min__rmsd>  (2) 
6.052468295434591

>  <meeko>  (2) 
{"free_energy": -7.01, "intermolecular_energy": -8.8, "internal_energy": -2.53, "cluster_size": 12, "cluster_id": 5, "rank_in_cluster": 2}

>  <energy>  (2) 
-7.53

>  <cluster_rmsd>  (2) 
1.83

>  <cluster>  (2) 
1

$$$$

     RDKit          3D

 47 50  0  0  0  0  0  0  0  0999 V2000
  139.9140   73.9110  222.3460 O   0  0  0  0  0  0  0  0  0  0  0  0
  140.5610   72.8160  222.3420 C   0  0  0  0  0  0  0  0  0  0  0  0
  141.5570   72.6570  221.3310 N   0  0  0  0  0  0  0  0  0  0  0  0
  141.7250   73.7690  220.4060 C   0  0  0  0  0  0  0  0  0  0  0  0
  142.6030   73.3970  219.2680 C   0  0  0  0  0  0  0  0  0  0  0  0
  142.4130   73.8390  218.0880 O   0  0  0  0  0  0  0  0  0  0  0  0
  143.6830   72.5210  219.5320 N   0  0  0  0  0  0  0  0  0  0  0  0
  144.6370   72.5600  220.6490 C   0  0  0  0  0  0  0  0  0  0  0  0
  145.9260   72.2620  219.8790 C   0  0  2  0  0  0  0  0  0  0  0  0
  146.1280   73.3490  219.0170 O   0  0  0  0  0  0  0  0  0  0  0  0
  145.4850   71.0520  219.0840 C   0  0  0  0  0  0  0  0  0  0  0  0
  144.0700   71.3790  218.7260 C   0  0  1  0  0  0  0  0  0  0  0  0
  143.1300   70.2770  219.0970 C   0  0  0  0  0  0  0  0  0  0  0  0
  143.5490   69.0010  219.0380 N   0  0  0  0  0  0  0  0  0  0  0  0
  142.7210   67.9710  219.3690 C   0  0  0  0  0  0  0  0  0  0  0  0
  141.4290   68.2990  219.7670 C   0  0  0  0  0  0  0  0  0  0  0  0
  140.3590   66.9640  220.1940 Cl  0  0  0  0  0  0  0  0  0  0  0  0
  140.9820   69.6020  219.8330 C   0  0  0  0  0  0  0  0  0  0  0  0
  141.8700   70.5800  219.4870 N   0  0  0  0  0  0  0  0  0  0  0  0
  140.3100   71.7640  223.3220 C   0  0  0  0  0  0  0  0  0  0  0  0
  139.6330   70.6380  222.8900 C   0  0  0  0  0  0  0  0  0  0  0  0
  139.3460   69.5800  223.7530 C   0  0  0  0  0  0  0  0  0  0  0  0
  139.7820   69.7210  225.0720 C   0  0  0  0  0  0  0  0  0  0  0  0
  139.5140   68.6870  225.9580 C   0  0  0  0  0  0  0  0  0  0  0  0
  139.9440   68.8170  227.2770 C   0  0  0  0  0  0  0  0  0  0  0  0
  140.6270   69.9570  227.7040 C   0  0  0  0  0  0  0  0  0  0  0  0
  140.8740   70.9650  226.7880 C   0  0  0  0  0  0  0  0  0  0  0  0
  140.4590   70.8550  225.4850 C   0  0  0  0  0  0  0  0  0  0  0  0
  140.7110   71.8600  224.5980 N   0  0  0  0  0  0  0  0  0  0  0  0
  142.1290   71.8030  221.2540 H   0  0  0  0  0  0  0  0  0  0  0  0
  140.7392   74.0631  220.0166 H   0  0  0  0  0  0  0  0  0  0  0  0
  142.1944   74.6032  220.9480 H   0  0  0  0  0  0  0  0  0  0  0  0
  144.6650   73.5477  221.1323 H   0  0  0  0  0  0  0  0  0  0  0  0
  144.4163   71.8760  221.4817 H   0  0  0  0  0  0  0  0  0  0  0  0
  146.8413   72.1042  220.4684 H   0  0  0  0  0  0  0  0  0  0  0  0
  145.6700   74.1680  219.3140 H   0  0  0  0  0  0  0  0  0  0  0  0
  146.1016   70.9260  218.1818 H   0  0  0  0  0  0  0  0  0  0  0  0
  145.5832   70.1089  219.6416 H   0  0  0  0  0  0  0  0  0  0  0  0
  144.0175   71.5539  217.6413 H   0  0  0  0  0  0  0  0  0  0  0  0
  143.0594   66.9253  219.3235 H   0  0  0  0  0  0  0  0  0  0  0  0
  139.9565   69.8426  220.1500 H   0  0  0  0  0  0  0  0  0  0  0  0
  139.3128   70.5750  221.8395 H   0  0  0  0  0  0  0  0  0  0  0  0
  138.8059   68.6840  223.4130 H   0  0  0  0  0  0  0  0  0  0  0  0
  138.9753   67.7868  225.6271 H   0  0  0  0  0  0  0  0  0  0  0  0
  139.7418   68.0076  227.9939 H   0  0  0  0  0  0  0  0  0  0  0  0
  140.9622   70.0524  228.7473 H   0  0  0  0  0  0  0  0  0  0  0  0
  141.4118   71.8689  227.1101 H   0  0  0  0  0  0  0  0  0  0  0  0
  1  2  2  0
  2  3  1  0
  3  4  1  0
  4  5  1  0
  5  6  2  0
  5  7  1  0
  7  8  1  0
  8  9  1  0
  9 10  1  0
  9 11  1  0
 11 12  1  0
 12 13  1  0
 13 14  2  0
 14 15  1  0
 15 16  2  0
 16 17  1  0
 16 18  1  0
 18 19  2  0
  2 20  1  0
 20 21  2  0
 21 22  1  0
 22 23  2  0
 23 24  1  0
 24 25  2  0
 25 26  1  0
 26 27  2  0
 27 28  1  0
 28 29  2  0
 12  7  1  0
 19 13  1  0
 29 20  1  0
 28 23  1  0
  3 30  1  0
  4 31  1  0
  4 32  1  0
  8 33  1  0
  8 34  1  0
  9 35  1  1
 10 36  1  0
 11 37  1  0
 11 38  1  0
 12 39  1  6
 15 40  1  0
 18 41  1  0
 21 42  1  0
 22 43  1  0
 24 44  1  0
 25 45  1  0
 26 46  1  0
 27 47  1  0
M  END
>  <smiles>  (3) 
O=C(NCC(=O)N1C[C@H](O)C[C@H]1c1ncc(Cl)cn1)c1ccc2ccccc2n1

>  <score_type>  (3) 
oracle

>  <origin>  (3) 
autodockgpu

>  <m_score__min__energy>  (3) 
-8.1999999999999993

>  <m_primary>  (3) 
energy

>  <rmsd>  (3) 
6.162645390917757

>  <m_score__min__rmsd>  (3) 
6.162645390917757

>  <meeko>  (3) 
{"free_energy": -7.03, "intermolecular_energy": -8.82, "internal_energy": -2.42, "cluster_size": 12, "cluster_id": 5, "rank_in_cluster": 1}

>  <energy>  (3) 
-7.52

>  <cluster_rmsd>  (3) 
1.85

>  <cluster>  (3) 
1

$$$$

     RDKit          3D

 47 50  0  0  0  0  0  0  0  0999 V2000
  139.6870   74.1220  222.3370 O   0  0  0  0  0  0  0  0  0  0  0  0
  140.3250   75.0320  221.7170 C   0  0  0  0  0  0  0  0  0  0  0  0
  141.0680   74.6310  220.5650 N   0  0  0  0  0  0  0  0  0  0  0  0
  141.0180   73.2170  220.2220 C   0  0  0  0  0  0  0  0  0  0  0  0
  142.3040   72.5390  220.5280 C   0  0  0  0  0  0  0  0  0  0  0  0
  142.4630   71.8170  221.5650 O   0  0  0  0  0  0  0  0  0  0  0  0
  143.3720   72.7210  219.6180 N   0  0  0  0  0  0  0  0  0  0  0  0
  143.6660   71.9640  218.3930 C   0  0  0  0  0  0  0  0  0  0  0  0
  145.1820   71.8230  218.5520 C   0  0  2  0  0  0  0  0  0  0  0  0
  145.3840   71.0250  219.6870 O   0  0  0  0  0  0  0  0  0  0  0  0
  145.5510   73.2580  218.8620 C   0  0  0  0  0  0  0  0  0  0  0  0
  144.4190   73.7200  219.7210 C   0  0  1  0  0  0  0  0  0  0  0  0
  143.8200   74.9960  219.2190 C   0  0  0  0  0  0  0  0  0  0  0  0
  143.5070   75.9690  220.0930 N   0  0  0  0  0  0  0  0  0  0  0  0
  142.9610   77.1440  219.6720 C   0  0  0  0  0  0  0  0  0  0  0  0
  142.7420   77.2890  218.3060 C   0  0  0  0  0  0  0  0  0  0  0  0
  142.0340   78.8110  217.7650 Cl  0  0  0  0  0  0  0  0  0  0  0  0
  143.0570   76.3010  217.3970 C   0  0  0  0  0  0  0  0  0  0  0  0
  143.6010   75.1530  217.8930 N   0  0  0  0  0  0  0  0  0  0  0  0
  140.3060   76.4260  222.1510 C   0  0  0  0  0  0  0  0  0  0  0  0
  139.0750   76.9880  222.4400 C   0  0  0  0  0  0  0  0  0  0  0  0
  138.9560   78.3120  222.8610 C   0  0  0  0  0  0  0  0  0  0  0  0
  140.1440   79.0350  222.9760 C   0  0  0  0  0  0  0  0  0  0  0  0
  140.0640   80.3560  223.3930 C   0  0  0  0  0  0  0  0  0  0  0  0
  141.2440   81.0870  223.5110 C   0  0  0  0  0  0  0  0  0  0  0  0
  142.4820   80.5120  223.2170 C   0  0  0  0  0  0  0  0  0  0  0  0
  142.5180   79.1910  222.8040 C   0  0  0  0  0  0  0  0  0  0  0  0
  141.3670   78.4550  222.6830 C   0  0  0  0  0  0  0  0  0  0  0  0
  141.4240   77.1550  222.2740 N   0  0  0  0  0  0  0  0  0  0  0  0
  141.6130   75.3010  220.0030 H   0  0  0  0  0  0  0  0  0  0  0  0
  140.2141   72.7369  220.7993 H   0  0  0  0  0  0  0  0  0  0  0  0
  140.8290   73.1293  219.1419 H   0  0  0  0  0  0  0  0  0  0  0  0
  143.1605   70.9871  218.3813 H   0  0  0  0  0  0  0  0  0  0  0  0
  143.3317   72.4341  217.4564 H   0  0  0  0  0  0  0  0  0  0  0  0
  145.7394   71.3873  217.7097 H   0  0  0  0  0  0  0  0  0  0  0  0
  144.8160   71.2850  220.4480 H   0  0  0  0  0  0  0  0  0  0  0  0
  146.5063   73.3119  219.4047 H   0  0  0  0  0  0  0  0  0  0  0  0
  145.6897   73.8735  217.9609 H   0  0  0  0  0  0  0  0  0  0  0  0
  144.7983   73.8709  220.7424 H   0  0  0  0  0  0  0  0  0  0  0  0
  142.7043   77.9440  220.3820 H   0  0  0  0  0  0  0  0  0  0  0  0
  142.8775   76.4330  216.3198 H   0  0  0  0  0  0  0  0  0  0  0  0
  138.1677   76.3750  222.3350 H   0  0  0  0  0  0  0  0  0  0  0  0
  137.9788   78.7621  223.0900 H   0  0  0  0  0  0  0  0  0  0  0  0
  139.0917   80.8152  223.6250 H   0  0  0  0  0  0  0  0  0  0  0  0
  141.1997   82.1352  223.8415 H   0  0  0  0  0  0  0  0  0  0  0  0
  143.4092   81.0963  223.3115 H   0  0  0  0  0  0  0  0  0  0  0  0
  143.4858   78.7240  222.5690 H   0  0  0  0  0  0  0  0  0  0  0  0
  1  2  2  0
  2  3  1  0
  3  4  1  0
  4  5  1  0
  5  6  2  0
  5  7  1  0
  7  8  1  0
  8  9  1  0
  9 10  1  0
  9 11  1  0
 11 12  1  0
 12 13  1  0
 13 14  2  0
 14 15  1  0
 15 16  2  0
 16 17  1  0
 16 18  1  0
 18 19  2  0
  2 20  1  0
 20 21  2  0
 21 22  1  0
 22 23  2  0
 23 24  1  0
 24 25  2  0
 25 26  1  0
 26 27  2  0
 27 28  1  0
 28 29  2  0
 12  7  1  0
 19 13  1  0
 29 20  1  0
 28 23  1  0
  3 30  1  0
  4 31  1  0
  4 32  1  0
  8 33  1  0
  8 34  1  0
  9 35  1  6
 10 36  1  0
 11 37  1  0
 11 38  1  0
 12 39  1  1
 15 40  1  0
 18 41  1  0
 21 42  1  0
 22 43  1  0
 24 44  1  0
 25 45  1  0
 26 46  1  0
 27 47  1  0
M  END
>  <smiles>  (4) 
O=C(NCC(=O)N1C[C@H](O)C[C@H]1c1ncc(Cl)cn1)c1ccc2ccccc2n1

>  <score_type>  (4) 
oracle

>  <origin>  (4) 
autodockgpu

>  <m_score__min__energy>  (4) 
-8.1999999999999993

>  <m_primary>  (4) 
energy

>  <rmsd>  (4) 
7.162530577577736

>  <m_score__min__rmsd>  (4) 
7.162530577577736

>  <meeko>  (4) 
{"free_energy": -6.39, "intermolecular_energy": -8.18, "internal_energy": -2.99, "cluster_size": 6, "cluster_id": 6, "rank_in_cluster": 5}

>  <energy>  (4) 
-7.44

>  <cluster_rmsd>  (4) 
1.81

>  <cluster>  (4) 
1

$$$$

     RDKit          3D

 47 50  0  0  0  0  0  0  0  0999 V2000
  138.7220   69.7310  222.1040 O   0  0  0  0  0  0  0  0  0  0  0  0
  138.7590   70.6810  222.9500 C   0  0  0  0  0  0  0  0  0  0  0  0
  138.1300   71.9070  222.5730 N   0  0  0  0  0  0  0  0  0  0  0  0
  137.5120   71.9400  221.2550 C   0  0  0  0  0  0  0  0  0  0  0  0
  138.2880   72.7890  220.3150 C   0  0  0  0  0  0  0  0  0  0  0  0
  137.7280   73.6130  219.5220 O   0  0  0  0  0  0  0  0  0  0  0  0
  139.6970   72.6560  220.3240 N   0  0  0  0  0  0  0  0  0  0  0  0
  140.5790   72.2180  219.2340 C   0  0  0  0  0  0  0  0  0  0  0  0
  141.5170   71.3080  220.0310 C   0  0  2  0  0  0  0  0  0  0  0  0
  140.7310   70.2420  220.4920 O   0  0  0  0  0  0  0  0  0  0  0  0
  141.8610   72.2260  221.1840 C   0  0  0  0  0  0  0  0  0  0  0  0
  140.5710   72.9360  221.4470 C   0  0  1  0  0  0  0  0  0  0  0  0
  140.7450   74.4210  221.4720 C   0  0  0  0  0  0  0  0  0  0  0  0
  141.6440   74.9970  220.6550 N   0  0  0  0  0  0  0  0  0  0  0  0
  141.8280   76.3470  220.6490 C   0  0  0  0  0  0  0  0  0  0  0  0
  141.0500   77.0970  221.5240 C   0  0  0  0  0  0  0  0  0  0  0  0
  141.2920   78.8440  221.5160 Cl  0  0  0  0  0  0  0  0  0  0  0  0
  140.1240   76.5230  222.3700 C   0  0  0  0  0  0  0  0  0  0  0  0
  139.9940   75.1660  222.3180 N   0  0  0  0  0  0  0  0  0  0  0  0
  139.4090   70.5380  224.2490 C   0  0  0  0  0  0  0  0  0  0  0  0
  140.2400   71.5620  224.6630 C   0  0  0  0  0  0  0  0  0  0  0  0
  140.9040   71.5160  225.8890 C   0  0  0  0  0  0  0  0  0  0  0  0
  140.6820   70.3810  226.6710 C   0  0  0  0  0  0  0  0  0  0  0  0
  141.3270   70.3010  227.8970 C   0  0  0  0  0  0  0  0  0  0  0  0
  141.1130   69.1730  228.6860 C   0  0  0  0  0  0  0  0  0  0  0  0
  140.2710   68.1430  228.2600 C   0  0  0  0  0  0  0  0  0  0  0  0
  139.6470   68.2630  227.0300 C   0  0  0  0  0  0  0  0  0  0  0  0
  139.8460   69.3660  226.2400 C   0  0  0  0  0  0  0  0  0  0  0  0
  139.2220   69.4640  225.0310 N   0  0  0  0  0  0  0  0  0  0  0  0
  138.1110   72.7270  223.1960 H   0  0  0  0  0  0  0  0  0  0  0  0
  137.4639   70.9159  220.8563 H   0  0  0  0  0  0  0  0  0  0  0  0
  136.5032   72.3668  221.3557 H   0  0  0  0  0  0  0  0  0  0  0  0
  140.0304   71.6651  218.4572 H   0  0  0  0  0  0  0  0  0  0  0  0
  141.0705   73.0255  218.6715 H   0  0  0  0  0  0  0  0  0  0  0  0
  142.3921   70.9001  219.5038 H   0  0  0  0  0  0  0  0  0  0  0  0
  139.7680   70.3780  220.3390 H   0  0  0  0  0  0  0  0  0  0  0  0
  142.1821   71.6507  222.0649 H   0  0  0  0  0  0  0  0  0  0  0  0
  142.6934   72.9093  220.9599 H   0  0  0  0  0  0  0  0  0  0  0  0
  140.1798   72.5976  222.4178 H   0  0  0  0  0  0  0  0  0  0  0  0
  142.5606   76.8231  219.9807 H   0  0  0  0  0  0  0  0  0  0  0  0
  139.5173   77.1323  223.0561 H   0  0  0  0  0  0  0  0  0  0  0  0
  140.3813   72.4353  224.0092 H   0  0  0  0  0  0  0  0  0  0  0  0
  141.5660   72.3292  226.2213 H   0  0  0  0  0  0  0  0  0  0  0  0
  141.9913   71.1089  228.2377 H   0  0  0  0  0  0  0  0  0  0  0  0
  141.6156   69.0920  229.6611 H   0  0  0  0  0  0  0  0  0  0  0  0
  140.1072   67.2553  228.8886 H   0  0  0  0  0  0  0  0  0  0  0  0
  138.9807   67.4604  226.6807 H   0  0  0  0  0  0  0  0  0  0  0  0
  1  2  2  0
  2  3  1  0
  3  4  1  0
  4  5  1  0
  5  6  2  0
  5  7  1  0
  7  8  1  0
  8  9  1  0
  9 10  1  0
  9 11  1  0
 11 12  1  0
 12 13  1  0
 13 14  2  0
 14 15  1  0
 15 16  2  0
 16 17  1  0
 16 18  1  0
 18 19  2  0
  2 20  1  0
 20 21  2  0
 21 22  1  0
 22 23  2  0
 23 24  1  0
 24 25  2  0
 25 26  1  0
 26 27  2  0
 27 28  1  0
 28 29  2  0
 12  7  1  0
 19 13  1  0
 29 20  1  0
 28 23  1  0
  3 30  1  0
  4 31  1  0
  4 32  1  0
  8 33  1  0
  8 34  1  0
  9 35  1  6
 10 36  1  0
 11 37  1  0
 11 38  1  0
 12 39  1  1
 15 40  1  0
 18 41  1  0
 21 42  1  0
 22 43  1  0
 24 44  1  0
 25 45  1  0
 26 46  1  0
 27 47  1  0
M  END
>  <smiles>  (5) 
O=C(NCC(=O)N1C[C@H](O)C[C@H]1c1ncc(Cl)cn1)c1ccc2ccccc2n1

>  <score_type>  (5) 
oracle

>  <origin>  (5) 
autodockgpu

>  <m_score__min__energy>  (5) 
-8.1999999999999993

>  <m_primary>  (5) 
energy

>  <rmsd>  (5) 
3.767854944771414

>  <m_score__min__rmsd>  (5) 
3.767854944771414

>  <meeko>  (5) 
{"free_energy": -6.78, "intermolecular_energy": -8.57, "internal_energy": -2.56, "cluster_size": 6, "cluster_id": 7, "rank_in_cluster": 3}

>  <energy>  (5) 
-7.41

>  <cluster_rmsd>  (5) 
0.9

>  <cluster>  (5) 
1

$$$$

     RDKit          3D

 47 50  0  0  0  0  0  0  0  0999 V2000
  140.3340   74.2120  222.2960 O   0  0  0  0  0  0  0  0  0  0  0  0
  140.6080   73.0080  221.9890 C   0  0  0  0  0  0  0  0  0  0  0  0
  141.2550   72.7910  220.7350 N   0  0  0  0  0  0  0  0  0  0  0  0
  141.5340   73.9760  219.9360 C   0  0  0  0  0  0  0  0  0  0  0  0
  142.9950   74.2010  219.7930 C   0  0  0  0  0  0  0  0  0  0  0  0
  143.4970   75.3670  219.6890 O   0  0  0  0  0  0  0  0  0  0  0  0
  143.8340   73.0620  219.7770 N   0  0  0  0  0  0  0  0  0  0  0  0
  144.7990   72.6250  220.7960 C   0  0  0  0  0  0  0  0  0  0  0  0
  145.9540   72.2180  219.8790 C   0  0  2  0  0  0  0  0  0  0  0  0
  146.3920   73.3950  219.2550 O   0  0  0  0  0  0  0  0  0  0  0  0
  145.2110   71.3560  218.8810 C   0  0  0  0  0  0  0  0  0  0  0  0
  143.9100   72.0740  218.7170 C   0  0  1  0  0  0  0  0  0  0  0  0
  142.7390   71.1660  218.9190 C   0  0  0  0  0  0  0  0  0  0  0  0
  141.6100   71.3760  218.2200 N   0  0  0  0  0  0  0  0  0  0  0  0
  140.5240   70.5690  218.3760 C   0  0  0  0  0  0  0  0  0  0  0  0
  140.6350   69.5240  219.2880 C   0  0  0  0  0  0  0  0  0  0  0  0
  139.2280   68.4810  219.4900 Cl  0  0  0  0  0  0  0  0  0  0  0  0
  141.7860   69.2950  220.0140 C   0  0  0  0  0  0  0  0  0  0  0  0
  142.8320   70.1440  219.8020 N   0  0  0  0  0  0  0  0  0  0  0  0
  140.2820   71.8900  222.8700 C   0  0  0  0  0  0  0  0  0  0  0  0
  139.5240   70.8610  222.3420 C   0  0  0  0  0  0  0  0  0  0  0  0
  139.1630   69.7510  223.1060 C   0  0  0  0  0  0  0  0  0  0  0  0
  139.6100   69.7370  224.4290 C   0  0  0  0  0  0  0  0  0  0  0  0
  139.2690   68.6490  225.2190 C   0  0  0  0  0  0  0  0  0  0  0  0
  139.7100   68.6250  226.5400 C   0  0  0  0  0  0  0  0  0  0  0  0
  140.4750   69.6680  227.0650 C   0  0  0  0  0  0  0  0  0  0  0  0
  140.7930   70.7360  226.2430 C   0  0  0  0  0  0  0  0  0  0  0  0
  140.3680   70.7770  224.9390 C   0  0  0  0  0  0  0  0  0  0  0  0
  140.6920   71.8380  224.1460 N   0  0  0  0  0  0  0  0  0  0  0  0
  141.5140   71.8490  220.4070 H   0  0  0  0  0  0  0  0  0  0  0  0
  141.0923   73.8463  218.9370 H   0  0  0  0  0  0  0  0  0  0  0  0
  141.0975   74.8478  220.4453 H   0  0  0  0  0  0  0  0  0  0  0  0
  145.0807   73.4438  221.4744 H   0  0  0  0  0  0  0  0  0  0  0  0
  144.4406   71.8410  221.4793 H   0  0  0  0  0  0  0  0  0  0  0  0
  146.8177   71.7222  220.3462 H   0  0  0  0  0  0  0  0  0  0  0  0
  145.7240   74.1170  219.2790 H   0  0  0  0  0  0  0  0  0  0  0  0
  145.7542   71.2995  217.9261 H   0  0  0  0  0  0  0  0  0  0  0  0
  145.0916   70.3142  219.2132 H   0  0  0  0  0  0  0  0  0  0  0  0
  143.8738   72.4970  217.7022 H   0  0  0  0  0  0  0  0  0  0  0  0
  139.5986   70.7362  217.8053 H   0  0  0  0  0  0  0  0  0  0  0  0
  141.8566   68.4645  220.7319 H   0  0  0  0  0  0  0  0  0  0  0  0
  139.1975   70.9192  221.2932 H   0  0  0  0  0  0  0  0  0  0  0  0
  138.5592   68.9315  222.6891 H   0  0  0  0  0  0  0  0  0  0  0  0
  138.6647   67.8249  224.8120 H   0  0  0  0  0  0  0  0  0  0  0  0
  139.4510   67.7692  227.1807 H   0  0  0  0  0  0  0  0  0  0  0  0
  140.8180   69.6420  228.1098 H   0  0  0  0  0  0  0  0  0  0  0  0
  141.3961   71.5650  226.6419 H   0  0  0  0  0  0  0  0  0  0  0  0
  1  2  2  0
  2  3  1  0
  3  4  1  0
  4  5  1  0
  5  6  2  0
  5  7  1  0
  7  8  1  0
  8  9  1  0
  9 10  1  0
  9 11  1  0
 11 12  1  0
 12 13  1  0
 13 14  2  0
 14 15  1  0
 15 16  2  0
 16 17  1  0
 16 18  1  0
 18 19  2  0
  2 20  1  0
 20 21  2  0
 21 22  1  0
 22 23  2  0
 23 24  1  0
 24 25  2  0
 25 26  1  0
 26 27  2  0
 27 28  1  0
 28 29  2  0
 12  7  1  0
 19 13  1  0
 29 20  1  0
 28 23  1  0
  3 30  1  0
  4 31  1  0
  4 32  1  0
  8 33  1  0
  8 34  1  0
  9 35  1  1
 10 36  1  0
 11 37  1  0
 11 38  1  0
 12 39  1  6
 15 40  1  0
 18 41  1  0
 21 42  1  0
 22 43  1  0
 24 44  1  0
 25 45  1  0
 26 46  1  0
 27 47  1  0
M  END
>  <smiles>  (6) 
O=C(NCC(=O)N1C[C@H](O)C[C@H]1c1ncc(Cl)cn1)c1ccc2ccccc2n1

>  <score_type>  (6) 
oracle

>  <origin>  (6) 
autodockgpu

>  <m_score__min__energy>  (6) 
-8.1999999999999993

>  <m_primary>  (6) 
energy

>  <rmsd>  (6) 
5.803037881827552

>  <m_score__min__rmsd>  (6) 
5.803037881827552

>  <meeko>  (6) 
{"free_energy": -6.38, "intermolecular_energy": -8.17, "internal_energy": -3.26, "cluster_size": 12, "cluster_id": 5, "rank_in_cluster": 7}

>  <energy>  (6) 
-7.39

>  <cluster_rmsd>  (6) 
1.9

>  <cluster>  (6) 
1

$$$$

     RDKit          3D

 47 50  0  0  0  0  0  0  0  0999 V2000
  137.6350   69.7710  221.9700 O   0  0  0  0  0  0  0  0  0  0  0  0
  138.0410   70.6120  222.8330 C   0  0  0  0  0  0  0  0  0  0  0  0
  137.8050   71.9920  222.5520 N   0  0  0  0  0  0  0  0  0  0  0  0
  137.1240   72.2910  221.3010 C   0  0  0  0  0  0  0  0  0  0  0  0
  138.0850   72.7100  220.2480 C   0  0  0  0  0  0  0  0  0  0  0  0
  137.7110   73.2770  219.1710 O   0  0  0  0  0  0  0  0  0  0  0  0
  139.4580   72.4580  220.4780 N   0  0  0  0  0  0  0  0  0  0  0  0
  140.4390   71.8480  219.5700 C   0  0  0  0  0  0  0  0  0  0  0  0
  141.1600   70.9360  220.5660 C   0  0  2  0  0  0  0  0  0  0  0  0
  140.2150   69.9890  220.9850 O   0  0  0  0  0  0  0  0  0  0  0  0
  141.4260   71.9230  221.6840 C   0  0  0  0  0  0  0  0  0  0  0  0
  140.1880   72.7620  221.6950 C   0  0  1  0  0  0  0  0  0  0  0  0
  140.5020   74.2230  221.6310 C   0  0  0  0  0  0  0  0  0  0  0  0
  141.5130   74.6500  220.8540 N   0  0  0  0  0  0  0  0  0  0  0  0
  141.8270   75.9730  220.7700 C   0  0  0  0  0  0  0  0  0  0  0  0
  141.0590   76.8560  221.5220 C   0  0  0  0  0  0  0  0  0  0  0  0
  141.4680   78.5680  221.4120 Cl  0  0  0  0  0  0  0  0  0  0  0  0
  140.0190   76.4350  222.3240 C   0  0  0  0  0  0  0  0  0  0  0  0
  139.7630   75.0950  222.3560 N   0  0  0  0  0  0  0  0  0  0  0  0
  138.7160   70.2000  224.0610 C   0  0  0  0  0  0  0  0  0  0  0  0
  138.7330   68.8490  224.3560 C   0  0  0  0  0  0  0  0  0  0  0  0
  139.3540   68.3590  225.5060 C   0  0  0  0  0  0  0  0  0  0  0  0
  139.9540   69.3060  226.3370 C   0  0  0  0  0  0  0  0  0  0  0  0
  140.5810   68.8550  227.4900 C   0  0  0  0  0  0  0  0  0  0  0  0
  141.1840   69.7910  228.3260 C   0  0  0  0  0  0  0  0  0  0  0  0
  141.1620   71.1530  228.0190 C   0  0  0  0  0  0  0  0  0  0  0  0
  140.5260   71.5620  226.8590 C   0  0  0  0  0  0  0  0  0  0  0  0
  139.9270   70.6540  226.0230 C   0  0  0  0  0  0  0  0  0  0  0  0
  139.3050   71.0770  224.8850 N   0  0  0  0  0  0  0  0  0  0  0  0
  138.0990   72.7410  223.1960 H   0  0  0  0  0  0  0  0  0  0  0  0
  136.5895   71.3919  220.9606 H   0  0  0  0  0  0  0  0  0  0  0  0
  136.4215   73.1187  221.4782 H   0  0  0  0  0  0  0  0  0  0  0  0
  139.9547   71.2765  218.7646 H   0  0  0  0  0  0  0  0  0  0  0  0
  141.0830   72.5559  219.0277 H   0  0  0  0  0  0  0  0  0  0  0  0
  142.0562   70.4074  220.2089 H   0  0  0  0  0  0  0  0  0  0  0  0
  139.3050   70.1810  220.6630 H   0  0  0  0  0  0  0  0  0  0  0  0
  141.5607   71.4048  222.6449 H   0  0  0  0  0  0  0  0  0  0  0  0
  142.3450   72.5089  221.5350 H   0  0  0  0  0  0  0  0  0  0  0  0
  139.6318   72.5474  222.6194 H   0  0  0  0  0  0  0  0  0  0  0  0
  142.6522   76.3277  220.1350 H   0  0  0  0  0  0  0  0  0  0  0  0
  139.4222   77.1479  222.9119 H   0  0  0  0  0  0  0  0  0  0  0  0
  138.2452   68.1433  223.6675 H   0  0  0  0  0  0  0  0  0  0  0  0
  139.3696   67.2852  225.7442 H   0  0  0  0  0  0  0  0  0  0  0  0
  140.6011   67.7834  227.7376 H   0  0  0  0  0  0  0  0  0  0  0  0
  141.6863   69.4518  229.2439 H   0  0  0  0  0  0  0  0  0  0  0  0
  141.6402   71.8862  228.6852 H   0  0  0  0  0  0  0  0  0  0  0  0
  140.5006   72.6317  226.6038 H   0  0  0  0  0  0  0  0  0  0  0  0
  1  2  2  0
  2  3  1  0
  3  4  1  0
  4  5  1  0
  5  6  2  0
  5  7  1  0
  7  8  1  0
  8  9  1  0
  9 10  1  0
  9 11  1  0
 11 12  1  0
 12 13  1  0
 13 14  2  0
 14 15  1  0
 15 16  2  0
 16 17  1  0
 16 18  1  0
 18 19  2  0
  2 20  1  0
 20 21  2  0
 21 22  1  0
 22 23  2  0
 23 24  1  0
 24 25  2  0
 25 26  1  0
 26 27  2  0
 27 28  1  0
 28 29  2  0
 12  7  1  0
 19 13  1  0
 29 20  1  0
 28 23  1  0
  3 30  1  0
  4 31  1  0
  4 32  1  0
  8 33  1  0
  8 34  1  0
  9 35  1  6
 10 36  1  0
 11 37  1  0
 11 38  1  0
 12 39  1  1
 15 40  1  0
 18 41  1  0
 21 42  1  0
 22 43  1  0
 24 44  1  0
 25 45  1  0
 26 46  1  0
 27 47  1  0
M  END
>  <smiles>  (7) 
O=C(NCC(=O)N1C[C@H](O)C[C@H]1c1ncc(Cl)cn1)c1ccc2ccccc2n1

>  <score_type>  (7) 
oracle

>  <origin>  (7) 
autodockgpu

>  <m_score__min__energy>  (7) 
-8.1999999999999993

>  <m_primary>  (7) 
energy

>  <rmsd>  (7) 
3.441583854931266

>  <m_score__min__rmsd>  (7) 
3.441583854931266

>  <meeko>  (7) 
{"free_energy": -6.73, "intermolecular_energy": -8.52, "internal_energy": -2.64, "cluster_size": 6, "cluster_id": 7, "rank_in_cluster": 6}

>  <energy>  (7) 
-7.21

>  <cluster_rmsd>  (7) 
1.97

>  <cluster>  (7) 
1

$$$$

     RDKit          3D

 47 50  0  0  0  0  0  0  0  0999 V2000
  140.5240   74.4540  222.1910 O   0  0  0  0  0  0  0  0  0  0  0  0
  140.6830   73.2340  221.8670 C   0  0  0  0  0  0  0  0  0  0  0  0
  141.2310   72.9750  220.5730 N   0  0  0  0  0  0  0  0  0  0  0  0
  141.5490   74.1400  219.7590 C   0  0  0  0  0  0  0  0  0  0  0  0
  143.0160   74.3090  219.6060 C   0  0  0  0  0  0  0  0  0  0  0  0
  143.5500   75.4400  219.3680 O   0  0  0  0  0  0  0  0  0  0  0  0
  143.8250   73.1550  219.7360 N   0  0  0  0  0  0  0  0  0  0  0  0
  144.7020   72.7750  220.8530 C   0  0  0  0  0  0  0  0  0  0  0  0
  145.9100   72.2770  220.0560 C   0  0  2  0  0  0  0  0  0  0  0  0
  146.4220   73.3950  219.3820 O   0  0  0  0  0  0  0  0  0  0  0  0
  145.2180   71.3580  219.0720 C   0  0  0  0  0  0  0  0  0  0  0  0
  143.9510   72.0890  218.7600 C   0  0  1  0  0  0  0  0  0  0  0  0
  142.7460   71.2220  218.9410 C   0  0  0  0  0  0  0  0  0  0  0  0
  142.7420   70.2850  219.9050 N   0  0  0  0  0  0  0  0  0  0  0  0
  141.6620   69.4780  220.0990 C   0  0  0  0  0  0  0  0  0  0  0  0
  140.5700   69.6670  219.2590 C   0  0  0  0  0  0  0  0  0  0  0  0
  139.1730   68.6200  219.5120 Cl  0  0  0  0  0  0  0  0  0  0  0  0
  140.5560   70.6230  218.2650 C   0  0  0  0  0  0  0  0  0  0  0  0
  141.6740   71.3940  218.1320 N   0  0  0  0  0  0  0  0  0  0  0  0
  140.3290   72.1390  222.7660 C   0  0  0  0  0  0  0  0  0  0  0  0
  139.5780   71.1020  222.2430 C   0  0  0  0  0  0  0  0  0  0  0  0
  139.1920   70.0120  223.0240 C   0  0  0  0  0  0  0  0  0  0  0  0
  139.6040   70.0280  224.3570 C   0  0  0  0  0  0  0  0  0  0  0  0
  139.2370   68.9610  225.1640 C   0  0  0  0  0  0  0  0  0  0  0  0
  139.6440   68.9660  226.4960 C   0  0  0  0  0  0  0  0  0  0  0  0
  140.4010   70.0180  227.0150 C   0  0  0  0  0  0  0  0  0  0  0  0
  140.7460   71.0640  226.1770 C   0  0  0  0  0  0  0  0  0  0  0  0
  140.3550   71.0760  224.8620 C   0  0  0  0  0  0  0  0  0  0  0  0
  140.7050   72.1160  224.0520 N   0  0  0  0  0  0  0  0  0  0  0  0
  141.3940   72.0180  220.2280 H   0  0  0  0  0  0  0  0  0  0  0  0
  141.0972   74.0155  218.7638 H   0  0  0  0  0  0  0  0  0  0  0  0
  141.1478   75.0330  220.2605 H   0  0  0  0  0  0  0  0  0  0  0  0
  144.9550   73.6360  221.4892 H   0  0  0  0  0  0  0  0  0  0  0  0
  144.2747   72.0514  221.5628 H   0  0  0  0  0  0  0  0  0  0  0  0
  146.7251   71.8001  220.6201 H   0  0  0  0  0  0  0  0  0  0  0  0
  145.7830   74.1420  219.3310 H   0  0  0  0  0  0  0  0  0  0  0  0
  145.8268   71.2184  218.1665 H   0  0  0  0  0  0  0  0  0  0  0  0
  145.0475   70.3470  219.4704 H   0  0  0  0  0  0  0  0  0  0  0  0
  143.9983   72.4361  217.7173 H   0  0  0  0  0  0  0  0  0  0  0  0
  141.6540   68.7098  220.8863 H   0  0  0  0  0  0  0  0  0  0  0  0
  139.6832   70.7578  217.6092 H   0  0  0  0  0  0  0  0  0  0  0  0
  139.2776   71.1374  221.1854 H   0  0  0  0  0  0  0  0  0  0  0  0
  138.5954   69.1851  222.6113 H   0  0  0  0  0  0  0  0  0  0  0  0
  138.6386   68.1305  224.7614 H   0  0  0  0  0  0  0  0  0  0  0  0
  139.3643   68.1270  227.1501 H   0  0  0  0  0  0  0  0  0  0  0  0
  140.7169   70.0155  228.0687 H   0  0  0  0  0  0  0  0  0  0  0  0
  141.3433   71.8992  226.5716 H   0  0  0  0  0  0  0  0  0  0  0  0
  1  2  2  0
  2  3  1  0
  3  4  1  0
  4  5  1  0
  5  6  2  0
  5  7  1  0
  7  8  1  0
  8  9  1  0
  9 10  1  0
  9 11  1  0
 11 12  1  0
 12 13  1  0
 13 14  2  0
 14 15  1  0
 15 16  2  0
 16 17  1  0
 16 18  1  0
 18 19  2  0
  2 20  1  0
 20 21  2  0
 21 22  1  0
 22 23  2  0
 23 24  1  0
 24 25  2  0
 25 26  1  0
 26 27  2  0
 27 28  1  0
 28 29  2  0
 12  7  1  0
 19 13  1  0
 29 20  1  0
 28 23  1  0
  3 30  1  0
  4 31  1  0
  4 32  1  0
  8 33  1  0
  8 34  1  0
  9 35  1  1
 10 36  1  0
 11 37  1  0
 11 38  1  0
 12 39  1  6
 15 40  1  0
 18 41  1  0
 21 42  1  0
 22 43  1  0
 24 44  1  0
 25 45  1  0
 26 46  1  0
 27 47  1  0
M  END
>  <smiles>  (8) 
O=C(NCC(=O)N1C[C@H](O)C[C@H]1c1ncc(Cl)cn1)c1ccc2ccccc2n1

>  <score_type>  (8) 
oracle

>  <origin>  (8) 
autodockgpu

>  <m_score__min__energy>  (8) 
-8.1999999999999993

>  <m_primary>  (8) 
energy

>  <rmsd>  (8) 
5.750068794391359

>  <m_score__min__rmsd>  (8) 
5.750068794391359

>  <meeko>  (8) 
{"free_energy": -6.2, "intermolecular_energy": -7.99, "internal_energy": -3.35, "cluster_size": 12, "cluster_id": 5, "rank_in_cluster": 12}

>  <energy>  (8) 
-7.76

>  <cluster_rmsd>  (8) 
0.0

>  <cluster>  (8) 
2

$$$$

     RDKit          3D

 47 50  0  0  0  0  0  0  0  0999 V2000
  140.4570   74.2360  222.3230 O   0  0  0  0  0  0  0  0  0  0  0  0
  140.6440   73.0250  221.9780 C   0  0  0  0  0  0  0  0  0  0  0  0
  141.2080   72.8010  220.6850 N   0  0  0  0  0  0  0  0  0  0  0  0
  141.5100   73.9870  219.8960 C   0  0  0  0  0  0  0  0  0  0  0  0
  142.9750   74.2140  219.8010 C   0  0  0  0  0  0  0  0  0  0  0  0
  143.4790   75.3810  219.7210 O   0  0  0  0  0  0  0  0  0  0  0  0
  143.8160   73.0760  219.8010 N   0  0  0  0  0  0  0  0  0  0  0  0
  144.7700   72.6460  220.8330 C   0  0  0  0  0  0  0  0  0  0  0  0
  145.9350   72.2350  219.9310 C   0  0  2  0  0  0  0  0  0  0  0  0
  146.3790   73.4080  219.3040 O   0  0  0  0  0  0  0  0  0  0  0  0
  145.2030   71.3650  218.9310 C   0  0  0  0  0  0  0  0  0  0  0  0
  143.9030   72.0810  218.7490 C   0  0  1  0  0  0  0  0  0  0  0  0
  142.7310   71.1730  218.9430 C   0  0  0  0  0  0  0  0  0  0  0  0
  141.6340   71.3370  218.1840 N   0  0  0  0  0  0  0  0  0  0  0  0
  140.5480   70.5280  218.3330 C   0  0  0  0  0  0  0  0  0  0  0  0
  140.6250   69.5320  219.3010 C   0  0  0  0  0  0  0  0  0  0  0  0
  139.2180   68.4870  219.4920 Cl  0  0  0  0  0  0  0  0  0  0  0  0
  141.7440   69.3510  220.0880 C   0  0  0  0  0  0  0  0  0  0  0  0
  142.7920   70.1990  219.8810 N   0  0  0  0  0  0  0  0  0  0  0  0
  140.3020   71.9080  222.8530 C   0  0  0  0  0  0  0  0  0  0  0  0
  139.5470   70.8820  222.3140 C   0  0  0  0  0  0  0  0  0  0  0  0
  139.1720   69.7730  223.0720 C   0  0  0  0  0  0  0  0  0  0  0  0
  139.6020   69.7560  224.4000 C   0  0  0  0  0  0  0  0  0  0  0  0
  139.2470   68.6680  225.1850 C   0  0  0  0  0  0  0  0  0  0  0  0
  139.6700   68.6410  226.5120 C   0  0  0  0  0  0  0  0  0  0  0  0
  140.4330   69.6810  227.0470 C   0  0  0  0  0  0  0  0  0  0  0  0
  140.7650   70.7490  226.2310 C   0  0  0  0  0  0  0  0  0  0  0  0
  140.3580   70.7920  224.9220 C   0  0  0  0  0  0  0  0  0  0  0  0
  140.6950   71.8540  224.1340 N   0  0  0  0  0  0  0  0  0  0  0  0
  141.3940   71.8540  220.3250 H   0  0  0  0  0  0  0  0  0  0  0  0
  141.1012   73.8571  218.8831 H   0  0  0  0  0  0  0  0  0  0  0  0
  141.0553   74.8579  220.3907 H   0  0  0  0  0  0  0  0  0  0  0  0
  145.0435   73.4690  221.5096 H   0  0  0  0  0  0  0  0  0  0  0  0
  144.4050   71.8657  221.5170 H   0  0  0  0  0  0  0  0  0  0  0  0
  146.7945   71.7437  220.4105 H   0  0  0  0  0  0  0  0  0  0  0  0
  145.7180   74.1360  219.3350 H   0  0  0  0  0  0  0  0  0  0  0  0
  145.7560   71.3025  217.9822 H   0  0  0  0  0  0  0  0  0  0  0  0
  145.0812   70.3253  219.2689 H   0  0  0  0  0  0  0  0  0  0  0  0
  143.8763   72.4980  217.7314 H   0  0  0  0  0  0  0  0  0  0  0  0
  139.6480   70.6570  217.7138 H   0  0  0  0  0  0  0  0  0  0  0  0
  141.7888   68.5578  220.8488 H   0  0  0  0  0  0  0  0  0  0  0  0
  139.2345   70.9423  221.2610 H   0  0  0  0  0  0  0  0  0  0  0  0
  138.5703   68.9563  222.6467 H   0  0  0  0  0  0  0  0  0  0  0  0
  138.6456   67.8462  224.7691 H   0  0  0  0  0  0  0  0  0  0  0  0
  139.3985   67.7863  227.1490 H   0  0  0  0  0  0  0  0  0  0  0  0
  140.7636   69.6522  228.0957 H   0  0  0  0  0  0  0  0  0  0  0  0
  141.3646   71.5761  226.6389 H   0  0  0  0  0  0  0  0  0  0  0  0
  1  2  2  0
  2  3  1  0
  3  4  1  0
  4  5  1  0
  5  6  2  0
  5  7  1  0
  7  8  1  0
  8  9  1  0
  9 10  1  0
  9 11  1  0
 11 12  1  0
 12 13  1  0
 13 14  2  0
 14 15  1  0
 15 16  2  0
 16 17  1  0
 16 18  1  0
 18 19  2  0
  2 20  1  0
 20 21  2  0
 21 22  1  0
 22 23  2  0
 23 24  1  0
 24 25  2  0
 25 26  1  0
 26 27  2  0
 27 28  1  0
 28 29  2  0
 12  7  1  0
 19 13  1  0
 29 20  1  0
 28 23  1  0
  3 30  1  0
  4 31  1  0
  4 32  1  0
  8 33  1  0
  8 34  1  0
  9 35  1  1
 10 36  1  0
 11 37  1  0
 11 38  1  0
 12 39  1  6
 15 40  1  0
 18 41  1  0
 21 42  1  0
 22 43  1  0
 24 44  1  0
 25 45  1  0
 26 46  1  0
 27 47  1  0
M  END
>  <smiles>  (9) 
O=C(NCC(=O)N1C[C@H](O)C[C@H]1c1ncc(Cl)cn1)c1ccc2ccccc2n1

>  <score_type>  (9) 
oracle

>  <origin>  (9) 
autodockgpu

>  <m_score__min__energy>  (9) 
-8.1999999999999993

>  <m_primary>  (9) 
energy

>  <rmsd>  (9) 
5.802028592889409

>  <m_score__min__rmsd>  (9) 
5.802028592889409

>  <meeko>  (9) 
{"free_energy": -6.32, "intermolecular_energy": -8.11, "internal_energy": -3.32, "cluster_size": 12, "cluster_id": 5, "rank_in_cluster": 9}

>  <energy>  (9) 
-7.73

>  <cluster_rmsd>  (9) 
0.24

>  <cluster>  (9) 
2

$$$$

     RDKit          3D

 47 50  0  0  0  0  0  0  0  0999 V2000
  139.6430   71.1050  221.2970 O   0  0  0  0  0  0  0  0  0  0  0  0
  139.3200   71.6910  222.3790 C   0  0  0  0  0  0  0  0  0  0  0  0
  138.6100   72.9250  222.2590 N   0  0  0  0  0  0  0  0  0  0  0  0
  138.3310   73.3840  220.9060 C   0  0  0  0  0  0  0  0  0  0  0  0
  138.9390   74.7140  220.6500 C   0  0  0  0  0  0  0  0  0  0  0  0
  138.2600   75.7910  220.6800 O   0  0  0  0  0  0  0  0  0  0  0  0
  140.3250   74.7570  220.3650 N   0  0  0  0  0  0  0  0  0  0  0  0
  140.9980   74.5760  219.0710 C   0  0  0  0  0  0  0  0  0  0  0  0
  142.1630   73.6930  219.5240 C   0  0  2  0  0  0  0  0  0  0  0  0
  141.5950   72.4880  219.9610 O   0  0  0  0  0  0  0  0  0  0  0  0
  142.6520   74.4900  220.7150 C   0  0  0  0  0  0  0  0  0  0  0  0
  141.3850   74.9950  221.3270 C   0  0  1  0  0  0  0  0  0  0  0  0
  141.4180   76.4740  221.5440 C   0  0  0  0  0  0  0  0  0  0  0  0
  141.7870   77.2830  220.5350 N   0  0  0  0  0  0  0  0  0  0  0  0
  141.8280   78.6350  220.6950 C   0  0  0  0  0  0  0  0  0  0  0  0
  141.4750   79.1380  221.9430 C   0  0  0  0  0  0  0  0  0  0  0  0
  141.5300   80.8880  222.1480 Cl  0  0  0  0  0  0  0  0  0  0  0  0
  141.0950   78.3220  222.9890 C   0  0  0  0  0  0  0  0  0  0  0  0
  141.0760   76.9790  222.7520 N   0  0  0  0  0  0  0  0  0  0  0  0
  139.6510   71.1390  223.6890 C   0  0  0  0  0  0  0  0  0  0  0  0
  139.3730   69.8020  223.9070 C   0  0  0  0  0  0  0  0  0  0  0  0
  139.6540   69.1850  225.1260 C   0  0  0  0  0  0  0  0  0  0  0  0
  140.2310   69.9910  226.1100 C   0  0  0  0  0  0  0  0  0  0  0  0
  140.5240   69.4110  227.3360 C   0  0  0  0  0  0  0  0  0  0  0  0
  141.1000   70.2050  228.3240 C   0  0  0  0  0  0  0  0  0  0  0  0
  141.3780   71.5540  228.0950 C   0  0  0  0  0  0  0  0  0  0  0  0
  141.0700   72.0940  226.8580 C   0  0  0  0  0  0  0  0  0  0  0  0
  140.5030   71.3270  225.8720 C   0  0  0  0  0  0  0  0  0  0  0  0
  140.2060   71.8780  224.6600 N   0  0  0  0  0  0  0  0  0  0  0  0
  138.3080   73.4670  223.0820 H   0  0  0  0  0  0  0  0  0  0  0  0
  138.7429   72.6581  220.1895 H   0  0  0  0  0  0  0  0  0  0  0  0
  137.2409   73.4727  220.7880 H   0  0  0  0  0  0  0  0  0  0  0  0
  140.3542   74.0652  218.3398 H   0  0  0  0  0  0  0  0  0  0  0  0
  141.2830   75.5040  218.5538 H   0  0  0  0  0  0  0  0  0  0  0  0
  142.9431   73.4675  218.7820 H   0  0  0  0  0  0  0  0  0  0  0  0
  140.6120   72.5090  219.9810 H   0  0  0  0  0  0  0  0  0  0  0  0
  143.2032   73.8497  221.4194 H   0  0  0  0  0  0  0  0  0  0  0  0
  143.3505   75.2941  220.4403 H   0  0  0  0  0  0  0  0  0  0  0  0
  141.2402   74.4877  222.2922 H   0  0  0  0  0  0  0  0  0  0  0  0
  142.1275   79.3009  219.8723 H   0  0  0  0  0  0  0  0  0  0  0  0
  140.8197   78.7362  223.9701 H   0  0  0  0  0  0  0  0  0  0  0  0
  138.9188   69.2101  223.0987 H   0  0  0  0  0  0  0  0  0  0  0  0
  139.4333   68.1219  225.3027 H   0  0  0  0  0  0  0  0  0  0  0  0
  140.3064   68.3491  227.5229 H   0  0  0  0  0  0  0  0  0  0  0  0
  141.3402   69.7620  229.3018 H   0  0  0  0  0  0  0  0  0  0  0  0
  141.8323   72.1749  228.8812 H   0  0  0  0  0  0  0  0  0  0  0  0
  141.2834   73.1553  226.6626 H   0  0  0  0  0  0  0  0  0  0  0  0
  1  2  2  0
  2  3  1  0
  3  4  1  0
  4  5  1  0
  5  6  2  0
  5  7  1  0
  7  8  1  0
  8  9  1  0
  9 10  1  0
  9 11  1  0
 11 12  1  0
 12 13  1  0
 13 14  2  0
 14 15  1  0
 15 16  2  0
 16 17  1  0
 16 18  1  0
 18 19  2  0
  2 20  1  0
 20 21  2  0
 21 22  1  0
 22 23  2  0
 23 24  1  0
 24 25  2  0
 25 26  1  0
 26 27  2  0
 27 28  1  0
 28 29  2  0
 12  7  1  0
 19 13  1  0
 29 20  1  0
 28 23  1  0
  3 30  1  0
  4 31  1  0
  4 32  1  0
  8 33  1  0
  8 34  1  0
  9 35  1  6
 10 36  1  0
 11 37  1  0
 11 38  1  0
 12 39  1  1
 15 40  1  0
 18 41  1  0
 21 42  1  0
 22 43  1  0
 24 44  1  0
 25 45  1  0
 26 46  1  0
 27 47  1  0
M  END
>  <smiles>  (10) 
O=C(NCC(=O)N1C[C@H](O)C[C@H]1c1ncc(Cl)cn1)c1ccc2ccccc2n1

>  <score_type>  (10) 
oracle

>  <origin>  (10) 
autodockgpu

>  <m_score__min__energy>  (10) 
-8.1999999999999993

>  <m_primary>  (10) 
energy

>  <rmsd>  (10) 
2.246225097680002

>  <m_score__min__rmsd>  (10) 
2.246225097680002

>  <meeko>  (10) 
{"free_energy": -7.1, "intermolecular_energy": -8.89, "internal_energy": -2.36, "cluster_size": 9, "cluster_id": 2, "rank_in_cluster": 9}

>  <energy>  (10) 
-7.47

>  <cluster_rmsd>  (10) 
1.21

>  <cluster>  (10) 
2

$$$$

     RDKit          3D

 47 50  0  0  0  0  0  0  0  0999 V2000
  140.2590   74.5090  222.2840 O   0  0  0  0  0  0  0  0  0  0  0  0
  140.4780   73.2930  221.9800 C   0  0  0  0  0  0  0  0  0  0  0  0
  141.1990   73.0490  220.7710 N   0  0  0  0  0  0  0  0  0  0  0  0
  141.6060   74.2220  220.0110 C   0  0  0  0  0  0  0  0  0  0  0  0
  143.0840   74.3660  219.9900 C   0  0  0  0  0  0  0  0  0  0  0  0
  143.6590   75.5000  220.0670 O   0  0  0  0  0  0  0  0  0  0  0  0
  143.8560   73.1850  219.8810 N   0  0  0  0  0  0  0  0  0  0  0  0
  144.8320   72.6410  220.8350 C   0  0  0  0  0  0  0  0  0  0  0  0
  145.9260   72.2210  219.8510 C   0  0  2  0  0  0  0  0  0  0  0  0
  146.4070   73.4030  219.2700 O   0  0  0  0  0  0  0  0  0  0  0  0
  145.0970   71.4550  218.8430 C   0  0  0  0  0  0  0  0  0  0  0  0
  143.8330   72.2530  218.7700 C   0  0  1  0  0  0  0  0  0  0  0  0
  142.6210   71.4010  218.9730 C   0  0  0  0  0  0  0  0  0  0  0  0
  141.5050   71.6590  218.2690 N   0  0  0  0  0  0  0  0  0  0  0  0
  140.3820   70.9040  218.4270 C   0  0  0  0  0  0  0  0  0  0  0  0
  140.4430   69.8610  219.3460 C   0  0  0  0  0  0  0  0  0  0  0  0
  138.9880   68.8850  219.5490 Cl  0  0  0  0  0  0  0  0  0  0  0  0
  141.5800   69.5830  220.0760 C   0  0  0  0  0  0  0  0  0  0  0  0
  142.6650   70.3820  219.8630 N   0  0  0  0  0  0  0  0  0  0  0  0
  140.0220   72.1890  222.8190 C   0  0  0  0  0  0  0  0  0  0  0  0
  138.8400   71.5650  222.4660 C   0  0  0  0  0  0  0  0  0  0  0  0
  138.3240   70.5010  223.2060 C   0  0  0  0  0  0  0  0  0  0  0  0
  139.0660   70.1040  224.3190 C   0  0  0  0  0  0  0  0  0  0  0  0
  138.5830   69.0490  225.0800 C   0  0  0  0  0  0  0  0  0  0  0  0
  139.3160   68.6430  226.1930 C   0  0  0  0  0  0  0  0  0  0  0  0
  140.5080   69.2790  226.5420 C   0  0  0  0  0  0  0  0  0  0  0  0
  140.9550   70.3290  225.7570 C   0  0  0  0  0  0  0  0  0  0  0  0
  140.2480   70.7410  224.6570 C   0  0  0  0  0  0  0  0  0  0  0  0
  140.7050   71.7770  223.8960 N   0  0  0  0  0  0  0  0  0  0  0  0
  141.4210   72.0960  220.4480 H   0  0  0  0  0  0  0  0  0  0  0  0
  141.2409   74.1239  218.9780 H   0  0  0  0  0  0  0  0  0  0  0  0
  141.1774   75.1133  220.4926 H   0  0  0  0  0  0  0  0  0  0  0  0
  145.1859   73.4050  221.5428 H   0  0  0  0  0  0  0  0  0  0  0  0
  144.4556   71.8422  221.4909 H   0  0  0  0  0  0  0  0  0  0  0  0
  146.7777   71.6549  220.2561 H   0  0  0  0  0  0  0  0  0  0  0  0
  145.7910   74.1640  219.3760 H   0  0  0  0  0  0  0  0  0  0  0  0
  145.5986   71.4187  217.8647 H   0  0  0  0  0  0  0  0  0  0  0  0
  144.9309   70.4053  219.1268 H   0  0  0  0  0  0  0  0  0  0  0  0
  143.7810   72.7319  217.7811 H   0  0  0  0  0  0  0  0  0  0  0  0
  139.4666   71.1101  217.8529 H   0  0  0  0  0  0  0  0  0  0  0  0
  141.6104   68.7537  220.7980 H   0  0  0  0  0  0  0  0  0  0  0  0
  138.2924   71.9164  221.5791 H   0  0  0  0  0  0  0  0  0  0  0  0
  137.3839   70.0024  222.9274 H   0  0  0  0  0  0  0  0  0  0  0  0
  137.6431   68.5449  224.8107 H   0  0  0  0  0  0  0  0  0  0  0  0
  138.9490   67.8072  226.8068 H   0  0  0  0  0  0  0  0  0  0  0  0
  141.0810   68.9531  227.4226 H   0  0  0  0  0  0  0  0  0  0  0  0
  141.8925   70.8406  226.0204 H   0  0  0  0  0  0  0  0  0  0  0  0
  1  2  2  0
  2  3  1  0
  3  4  1  0
  4  5  1  0
  5  6  2  0
  5  7  1  0
  7  8  1  0
  8  9  1  0
  9 10  1  0
  9 11  1  0
 11 12  1  0
 12 13  1  0
 13 14  2  0
 14 15  1  0
 15 16  2  0
 16 17  1  0
 16 18  1  0
 18 19  2  0
  2 20  1  0
 20 21  2  0
 21 22  1  0
 22 23  2  0
 23 24  1  0
 24 25  2  0
 25 26  1  0
 26 27  2  0
 27 28  1  0
 28 29  2  0
 12  7  1  0
 19 13  1  0
 29 20  1  0
 28 23  1  0
  3 30  1  0
  4 31  1  0
  4 32  1  0
  8 33  1  0
  8 34  1  0
  9 35  1  1
 10 36  1  0
 11 37  1  0
 11 38  1  0
 12 39  1  6
 15 40  1  0
 18 41  1  0
 21 42  1  0
 22 43  1  0
 24 44  1  0
 25 45  1  0
 26 46  1  0
 27 47  1  0
M  END
>  <smiles>  (11) 
O=C(NCC(=O)N1C[C@H](O)C[C@H]1c1ncc(Cl)cn1)c1ccc2ccccc2n1

>  <score_type>  (11) 
oracle

>  <origin>  (11) 
autodockgpu

>  <m_score__min__energy>  (11) 
-8.1999999999999993

>  <m_primary>  (11) 
energy

>  <rmsd>  (11) 
5.767913273239569

>  <m_score__min__rmsd>  (11) 
5.767913273239569

>  <meeko>  (11) 
{"free_energy": -6.21, "intermolecular_energy": -8.0, "internal_energy": -3.26, "cluster_size": 12, "cluster_id": 5, "rank_in_cluster": 11}

>  <energy>  (11) 
-7.44

>  <cluster_rmsd>  (11) 
1.19

>  <cluster>  (11) 
2

$$$$

     RDKit          3D

 47 50  0  0  0  0  0  0  0  0999 V2000
  139.9290   74.1580  222.3460 O   0  0  0  0  0  0  0  0  0  0  0  0
  140.4960   73.0300  222.1910 C   0  0  0  0  0  0  0  0  0  0  0  0
  141.4080   72.9090  221.0990 N   0  0  0  0  0  0  0  0  0  0  0  0
  141.5920   74.0940  220.2740 C   0  0  0  0  0  0  0  0  0  0  0  0
  143.0190   74.2790  219.9030 C   0  0  0  0  0  0  0  0  0  0  0  0
  143.5220   75.4280  219.6840 O   0  0  0  0  0  0  0  0  0  0  0  0
  143.8230   73.1200  219.7970 N   0  0  0  0  0  0  0  0  0  0  0  0
  144.8230   72.6120  220.7480 C   0  0  0  0  0  0  0  0  0  0  0  0
  145.9200   72.2150  219.7580 C   0  0  2  0  0  0  0  0  0  0  0  0
  146.3620   73.4050  219.1630 O   0  0  0  0  0  0  0  0  0  0  0  0
  145.1040   71.4170  218.7630 C   0  0  0  0  0  0  0  0  0  0  0  0
  143.8180   72.1770  218.6950 C   0  0  1  0  0  0  0  0  0  0  0  0
  142.6320   71.2930  218.9160 C   0  0  0  0  0  0  0  0  0  0  0  0
  141.5150   71.4910  218.1950 N   0  0  0  0  0  0  0  0  0  0  0  0
  140.4160   70.7050  218.3680 C   0  0  0  0  0  0  0  0  0  0  0  0
  140.5020   69.6950  219.3200 C   0  0  0  0  0  0  0  0  0  0  0  0
  139.0780   68.6790  219.5430 Cl  0  0  0  0  0  0  0  0  0  0  0  0
  141.6410   69.4780  220.0680 C   0  0  0  0  0  0  0  0  0  0  0  0
  142.7010   70.3050  219.8380 N   0  0  0  0  0  0  0  0  0  0  0  0
  140.2360   71.9030  223.0820 C   0  0  0  0  0  0  0  0  0  0  0  0
  139.5130   70.8400  222.5730 C   0  0  0  0  0  0  0  0  0  0  0  0
  139.2150   69.7190  223.3480 C   0  0  0  0  0  0  0  0  0  0  0  0
  139.6880   69.7300  224.6610 C   0  0  0  0  0  0  0  0  0  0  0  0
  139.4110   68.6310  225.4610 C   0  0  0  0  0  0  0  0  0  0  0  0
  139.8790   68.6310  226.7730 C   0  0  0  0  0  0  0  0  0  0  0  0
  140.6090   69.7090  227.2790 C   0  0  0  0  0  0  0  0  0  0  0  0
  140.8630   70.7860  226.4470 C   0  0  0  0  0  0  0  0  0  0  0  0
  140.4120   70.8030  225.1520 C   0  0  0  0  0  0  0  0  0  0  0  0
  140.6730   71.8740  224.3490 N   0  0  0  0  0  0  0  0  0  0  0  0
  141.9120   72.0320  220.9000 H   0  0  0  0  0  0  0  0  0  0  0  0
  140.9944   73.9879  219.3566 H   0  0  0  0  0  0  0  0  0  0  0  0
  141.2673   74.9722  220.8514 H   0  0  0  0  0  0  0  0  0  0  0  0
  145.1609   73.3919  221.4462 H   0  0  0  0  0  0  0  0  0  0  0  0
  144.4752   71.8085  221.4140 H   0  0  0  0  0  0  0  0  0  0  0  0
  146.7909   71.6768  220.1603 H   0  0  0  0  0  0  0  0  0  0  0  0
  145.7300   74.1510  219.2780 H   0  0  0  0  0  0  0  0  0  0  0  0
  145.5978   71.3871  217.7805 H   0  0  0  0  0  0  0  0  0  0  0  0
  144.9706   70.3653  219.0566 H   0  0  0  0  0  0  0  0  0  0  0  0
  143.7446   72.6449  217.7022 H   0  0  0  0  0  0  0  0  0  0  0  0
  139.4998   70.8624  217.7799 H   0  0  0  0  0  0  0  0  0  0  0  0
  141.6919   68.6737  220.8166 H   0  0  0  0  0  0  0  0  0  0  0  0
  139.1640   70.8792  221.5306 H   0  0  0  0  0  0  0  0  0  0  0  0
  138.6387   68.8726  222.9462 H   0  0  0  0  0  0  0  0  0  0  0  0
  138.8354   67.7797  225.0686 H   0  0  0  0  0  0  0  0  0  0  0  0
  139.6701   67.7674  227.4215 H   0  0  0  0  0  0  0  0  0  0  0  0
  140.9743   69.7024  228.3166 H   0  0  0  0  0  0  0  0  0  0  0  0
  141.4363   71.6426  226.8312 H   0  0  0  0  0  0  0  0  0  0  0  0
  1  2  2  0
  2  3  1  0
  3  4  1  0
  4  5  1  0
  5  6  2  0
  5  7  1  0
  7  8  1  0
  8  9  1  0
  9 10  1  0
  9 11  1  0
 11 12  1  0
 12 13  1  0
 13 14  2  0
 14 15  1  0
 15 16  2  0
 16 17  1  0
 16 18  1  0
 18 19  2  0
  2 20  1  0
 20 21  2  0
 21 22  1  0
 22 23  2  0
 23 24  1  0
 24 25  2  0
 25 26  1  0
 26 27  2  0
 27 28  1  0
 28 29  2  0
 12  7  1  0
 19 13  1  0
 29 20  1  0
 28 23  1  0
  3 30  1  0
  4 31  1  0
  4 32  1  0
  8 33  1  0
  8 34  1  0
  9 35  1  1
 10 36  1  0
 11 37  1  0
 11 38  1  0
 12 39  1  6
 15 40  1  0
 18 41  1  0
 21 42  1  0
 22 43  1  0
 24 44  1  0
 25 45  1  0
 26 46  1  0
 27 47  1  0
M  END
>  <smiles>  (12) 
O=C(NCC(=O)N1C[C@H](O)C[C@H]1c1ncc(Cl)cn1)c1ccc2ccccc2n1

>  <score_type>  (12) 
oracle

>  <origin>  (12) 
autodockgpu

>  <m_score__min__energy>  (12) 
-8.1999999999999993

>  <m_primary>  (12) 
energy

>  <rmsd>  (12) 
5.718711674964693

>  <m_score__min__rmsd>  (12) 
5.718711674964693

>  <meeko>  (12) 
{"free_energy": -6.59, "intermolecular_energy": -8.38, "internal_energy": -3.03, "cluster_size": 12, "cluster_id": 5, "rank_in_cluster": 5}

>  <energy>  (12) 
-7.4

>  <cluster_rmsd>  (12) 
1.99

>  <cluster>  (12) 
2

$$$$

     RDKit          3D

 47 50  0  0  0  0  0  0  0  0999 V2000
  140.6620   71.6110  221.3790 O   0  0  0  0  0  0  0  0  0  0  0  0
  140.0890   72.0710  222.4180 C   0  0  0  0  0  0  0  0  0  0  0  0
  139.4220   73.3270  222.2870 N   0  0  0  0  0  0  0  0  0  0  0  0
  139.4700   73.9520  220.9730 C   0  0  0  0  0  0  0  0  0  0  0  0
  140.4470   75.0700  220.9410 C   0  0  0  0  0  0  0  0  0  0  0  0
  140.3490   76.0830  221.7060 O   0  0  0  0  0  0  0  0  0  0  0  0
  141.5160   74.9780  220.0180 N   0  0  0  0  0  0  0  0  0  0  0  0
  141.5820   74.2040  218.7710 C   0  0  0  0  0  0  0  0  0  0  0  0
  143.0030   73.6500  218.9020 C   0  0  2  0  0  0  0  0  0  0  0  0
  142.9900   72.7970  220.0150 O   0  0  0  0  0  0  0  0  0  0  0  0
  143.7530   74.9210  219.2390 C   0  0  0  0  0  0  0  0  0  0  0  0
  142.7970   75.6520  220.1280 C   0  0  1  0  0  0  0  0  0  0  0  0
  142.5630   77.0550  219.6660 C   0  0  0  0  0  0  0  0  0  0  0  0
  142.8580   77.3920  218.3980 N   0  0  0  0  0  0  0  0  0  0  0  0
  142.6580   78.6600  217.9420 C   0  0  0  0  0  0  0  0  0  0  0  0
  142.1390   79.5850  218.8430 C   0  0  0  0  0  0  0  0  0  0  0  0
  141.8820   81.2250  218.2510 Cl  0  0  0  0  0  0  0  0  0  0  0  0
  141.8320   79.2550  220.1470 C   0  0  0  0  0  0  0  0  0  0  0  0
  142.0580   77.9650  220.5310 N   0  0  0  0  0  0  0  0  0  0  0  0
  140.1030   71.3570  223.6920 C   0  0  0  0  0  0  0  0  0  0  0  0
  139.5940   70.0710  223.7080 C   0  0  0  0  0  0  0  0  0  0  0  0
  139.5660   69.3100  224.8770 C   0  0  0  0  0  0  0  0  0  0  0  0
  140.0780   69.9170  226.0240 C   0  0  0  0  0  0  0  0  0  0  0  0
  140.0660   69.1900  227.2060 C   0  0  0  0  0  0  0  0  0  0  0  0
  140.5750   69.7870  228.3570 C   0  0  0  0  0  0  0  0  0  0  0  0
  141.0870   71.0850  228.3310 C   0  0  0  0  0  0  0  0  0  0  0  0
  141.0800   71.7770  227.1320 C   0  0  0  0  0  0  0  0  0  0  0  0
  140.5840   71.2060  225.9880 C   0  0  0  0  0  0  0  0  0  0  0  0
  140.5870   71.9040  224.8160 N   0  0  0  0  0  0  0  0  0  0  0  0
  138.9320   73.7730  223.0760 H   0  0  0  0  0  0  0  0  0  0  0  0
  139.7644   73.1978  220.2283 H   0  0  0  0  0  0  0  0  0  0  0  0
  138.4728   74.3566  220.7451 H   0  0  0  0  0  0  0  0  0  0  0  0
  140.8287   73.4028  218.7434 H   0  0  0  0  0  0  0  0  0  0  0  0
  141.3812   74.7736  217.8516 H   0  0  0  0  0  0  0  0  0  0  0  0
  143.4120   73.1011  218.0409 H   0  0  0  0  0  0  0  0  0  0  0  0
  142.0850   72.5030  220.2660 H   0  0  0  0  0  0  0  0  0  0  0  0
  144.6917   74.6976  219.7672 H   0  0  0  0  0  0  0  0  0  0  0  0
  144.0462   75.4992  218.3503 H   0  0  0  0  0  0  0  0  0  0  0  0
  143.2130   75.6673  221.1462 H   0  0  0  0  0  0  0  0  0  0  0  0
  142.8966   78.9409  216.9056 H   0  0  0  0  0  0  0  0  0  0  0  0
  141.4230   79.9990  220.8465 H   0  0  0  0  0  0  0  0  0  0  0  0
  139.2017   69.6376  222.7762 H   0  0  0  0  0  0  0  0  0  0  0  0
  139.1621   68.2869  224.8934 H   0  0  0  0  0  0  0  0  0  0  0  0
  139.6640   68.1665  227.2333 H   0  0  0  0  0  0  0  0  0  0  0  0
  140.5734   69.2256  229.3029 H   0  0  0  0  0  0  0  0  0  0  0  0
  141.4879   71.5487  229.2444 H   0  0  0  0  0  0  0  0  0  0  0  0
  141.4788   72.8016  227.0963 H   0  0  0  0  0  0  0  0  0  0  0  0
  1  2  2  0
  2  3  1  0
  3  4  1  0
  4  5  1  0
  5  6  2  0
  5  7  1  0
  7  8  1  0
  8  9  1  0
  9 10  1  0
  9 11  1  0
 11 12  1  0
 12 13  1  0
 13 14  2  0
 14 15  1  0
 15 16  2  0
 16 17  1  0
 16 18  1  0
 18 19  2  0
  2 20  1  0
 20 21  2  0
 21 22  1  0
 22 23  2  0
 23 24  1  0
 24 25  2  0
 25 26  1  0
 26 27  2  0
 27 28  1  0
 28 29  2  0
 12  7  1  0
 19 13  1  0
 29 20  1  0
 28 23  1  0
  3 30  1  0
  4 31  1  0
  4 32  1  0
  8 33  1  0
  8 34  1  0
  9 35  1  6
 10 36  1  0
 11 37  1  0
 11 38  1  0
 12 39  1  1
 15 40  1  0
 18 41  1  0
 21 42  1  0
 22 43  1  0
 24 44  1  0
 25 45  1  0
 26 46  1  0
 27 47  1  0
M  END
>  <smiles>  (13) 
O=C(NCC(=O)N1C[C@H](O)C[C@H]1c1ncc(Cl)cn1)c1ccc2ccccc2n1

>  <score_type>  (13) 
oracle

>  <origin>  (13) 
autodockgpu

>  <m_score__min__energy>  (13) 
-8.1999999999999993

>  <m_primary>  (13) 
energy

>  <rmsd>  (13) 
2.4710071388849357

>  <m_score__min__rmsd>  (13) 
2.4710071388849357

>  <meeko>  (13) 
{"free_energy": -7.36, "intermolecular_energy": -9.15, "internal_energy": -2.18, "cluster_size": 2, "cluster_id": 3, "rank_in_cluster": 2}

>  <energy>  (13) 
-7.39

>  <cluster_rmsd>  (13) 
1.13

>  <cluster>  (13) 
2

$$$$

     RDKit          3D

 47 50  0  0  0  0  0  0  0  0999 V2000
  141.1680   71.4980  221.6430 O   0  0  0  0  0  0  0  0  0  0  0  0
  140.4690   71.8370  222.6510 C   0  0  0  0  0  0  0  0  0  0  0  0
  139.8840   73.1400  222.6230 N   0  0  0  0  0  0  0  0  0  0  0  0
  140.1520   73.9460  221.4410 C   0  0  0  0  0  0  0  0  0  0  0  0
  139.7340   75.3570  221.6420 C   0  0  0  0  0  0  0  0  0  0  0  0
  139.1860   75.7580  222.7190 O   0  0  0  0  0  0  0  0  0  0  0  0
  139.9640   76.2650  220.5810 N   0  0  0  0  0  0  0  0  0  0  0  0
  138.9930   76.8220  219.6290 C   0  0  0  0  0  0  0  0  0  0  0  0
  139.8180   76.7080  218.3450 C   0  0  2  0  0  0  0  0  0  0  0  0
  140.0030   75.3370  218.1180 O   0  0  0  0  0  0  0  0  0  0  0  0
  141.1170   77.3320  218.8080 C   0  0  0  0  0  0  0  0  0  0  0  0
  141.2440   76.8400  220.2150 C   0  0  1  0  0  0  0  0  0  0  0  0
  141.4830   77.9590  221.1790 C   0  0  0  0  0  0  0  0  0  0  0  0
  141.8060   79.1780  220.7130 N   0  0  0  0  0  0  0  0  0  0  0  0
  142.0290   80.2200  221.5610 C   0  0  0  0  0  0  0  0  0  0  0  0
  141.9090   79.9670  222.9230 C   0  0  0  0  0  0  0  0  0  0  0  0
  142.1990   81.3180  224.0190 Cl  0  0  0  0  0  0  0  0  0  0  0  0
  141.5780   78.7230  223.4190 C   0  0  0  0  0  0  0  0  0  0  0  0
  141.3680   77.7280  222.5080 N   0  0  0  0  0  0  0  0  0  0  0  0
  140.2640   70.9450  223.7880 C   0  0  0  0  0  0  0  0  0  0  0  0
  139.5240   69.7960  223.5740 C   0  0  0  0  0  0  0  0  0  0  0  0
  139.2760   68.8830  224.5990 C   0  0  0  0  0  0  0  0  0  0  0  0
  139.8140   69.1940  225.8480 C   0  0  0  0  0  0  0  0  0  0  0  0
  139.5870   68.3080  226.8920 C   0  0  0  0  0  0  0  0  0  0  0  0
  140.1200   68.6070  228.1440 C   0  0  0  0  0  0  0  0  0  0  0  0
  140.8660   69.7700  228.3510 C   0  0  0  0  0  0  0  0  0  0  0  0
  141.0690   70.6270  227.2830 C   0  0  0  0  0  0  0  0  0  0  0  0
  140.5530   70.3480  226.0430 C   0  0  0  0  0  0  0  0  0  0  0  0
  140.7640   71.2060  225.0040 N   0  0  0  0  0  0  0  0  0  0  0  0
  139.3030   73.4970  223.3960 H   0  0  0  0  0  0  0  0  0  0  0  0
  141.2305   73.9192  221.2263 H   0  0  0  0  0  0  0  0  0  0  0  0
  139.5767   73.5305  220.6005 H   0  0  0  0  0  0  0  0  0  0  0  0
  138.0722   76.2221  219.5815 H   0  0  0  0  0  0  0  0  0  0  0  0
  138.6263   77.8317  219.8658 H   0  0  0  0  0  0  0  0  0  0  0  0
  139.4002   77.1629  217.4347 H   0  0  0  0  0  0  0  0  0  0  0  0
  139.6810   74.7760  218.8600 H   0  0  0  0  0  0  0  0  0  0  0  0
  141.9616   76.9900  218.1918 H   0  0  0  0  0  0  0  0  0  0  0  0
  141.1227   78.4292  218.7303 H   0  0  0  0  0  0  0  0  0  0  0  0
  142.0847   76.1320  220.2606 H   0  0  0  0  0  0  0  0  0  0  0  0
  142.2929   81.2193  221.1845 H   0  0  0  0  0  0  0  0  0  0  0  0
  141.4873   78.5409  224.5000 H   0  0  0  0  0  0  0  0  0  0  0  0
  139.1209   69.5973  222.5700 H   0  0  0  0  0  0  0  0  0  0  0  0
  138.6886   67.9682  224.4317 H   0  0  0  0  0  0  0  0  0  0  0  0
  139.0000   67.3911  226.7345 H   0  0  0  0  0  0  0  0  0  0  0  0
  139.9507   67.9162  228.9831 H   0  0  0  0  0  0  0  0  0  0  0  0
  141.2835   70.0000  229.3424 H   0  0  0  0  0  0  0  0  0  0  0  0
  141.6537   71.5469  227.4311 H   0  0  0  0  0  0  0  0  0  0  0  0
  1  2  2  0
  2  3  1  0
  3  4  1  0
  4  5  1  0
  5  6  2  0
  5  7  1  0
  7  8  1  0
  8  9  1  0
  9 10  1  0
  9 11  1  0
 11 12  1  0
 12 13  1  0
 13 14  2  0
 14 15  1  0
 15 16  2  0
 16 17  1  0
 16 18  1  0
 18 19  2  0
  2 20  1  0
 20 21  2  0
 21 22  1  0
 22 23  2  0
 23 24  1  0
 24 25  2  0
 25 26  1  0
 26 27  2  0
 27 28  1  0
 28 29  2  0
 12  7  1  0
 19 13  1  0
 29 20  1  0
 28 23  1  0
  3 30  1  0
  4 31  1  0
  4 32  1  0
  8 33  1  0
  8 34  1  0
  9 35  1  6
 10 36  1  0
 11 37  1  0
 11 38  1  0
 12 39  1  6
 15 40  1  0
 18 41  1  0
 21 42  1  0
 22 43  1  0
 24 44  1  0
 25 45  1  0
 26 46  1  0
 27 47  1  0
M  END
>  <smiles>  (14) 
O=C(NCC(=O)N1C[C@H](O)C[C@H]1c1ncc(Cl)cn1)c1ccc2ccccc2n1

>  <score_type>  (14) 
oracle

>  <origin>  (14) 
autodockgpu

>  <m_score__min__energy>  (14) 
-8.1999999999999993

>  <m_primary>  (14) 
energy

>  <rmsd>  (14) 
1.8294442538162288

>  <m_score__min__rmsd>  (14) 
1.8294442538162288

>  <meeko>  (14) 
{"free_energy": -7.76, "intermolecular_energy": -9.55, "internal_energy": -1.63, "cluster_size": 9, "cluster_id": 2, "rank_in_cluster": 1}

>  <energy>  (14) 
-7.38

>  <cluster_rmsd>  (14) 
1.34

>  <cluster>  (14) 
2

$$$$

     RDKit          3D

 47 50  0  0  0  0  0  0  0  0999 V2000
  141.1330   72.0880  221.6590 O   0  0  0  0  0  0  0  0  0  0  0  0
  140.2410   72.2770  222.5450 C   0  0  0  0  0  0  0  0  0  0  0  0
  139.3280   73.3540  222.3250 N   0  0  0  0  0  0  0  0  0  0  0  0
  139.5180   74.1240  221.1040 C   0  0  0  0  0  0  0  0  0  0  0  0
  140.7100   75.0050  221.2000 C   0  0  0  0  0  0  0  0  0  0  0  0
  140.9320   75.7410  222.2160 O   0  0  0  0  0  0  0  0  0  0  0  0
  141.6130   75.0070  220.1110 N   0  0  0  0  0  0  0  0  0  0  0  0
  141.4870   74.3170  218.8190 C   0  0  0  0  0  0  0  0  0  0  0  0
  142.9200   73.8000  218.6780 C   0  0  2  0  0  0  0  0  0  0  0  0
  143.1080   72.8760  219.7160 O   0  0  0  0  0  0  0  0  0  0  0  0
  143.6900   75.0690  218.9750 C   0  0  0  0  0  0  0  0  0  0  0  0
  142.8810   75.7100  220.0560 C   0  0  1  0  0  0  0  0  0  0  0  0
  142.5470   77.1330  219.7370 C   0  0  0  0  0  0  0  0  0  0  0  0
  141.9270   77.8900  220.6580 N   0  0  0  0  0  0  0  0  0  0  0  0
  141.6080   79.1900  220.4030 C   0  0  0  0  0  0  0  0  0  0  0  0
  141.9510   79.6940  219.1520 C   0  0  0  0  0  0  0  0  0  0  0  0
  141.5360   81.3760  218.8240 Cl  0  0  0  0  0  0  0  0  0  0  0  0
  142.5860   78.9300  218.1950 C   0  0  0  0  0  0  0  0  0  0  0  0
  142.8740   77.6380  218.5240 N   0  0  0  0  0  0  0  0  0  0  0  0
  140.1410   71.4400  223.7370 C   0  0  0  0  0  0  0  0  0  0  0  0
  139.4980   70.2220  223.6100 C   0  0  0  0  0  0  0  0  0  0  0  0
  139.3540   69.3540  224.6920 C   0  0  0  0  0  0  0  0  0  0  0  0
  139.8940   69.7810  225.9060 C   0  0  0  0  0  0  0  0  0  0  0  0
  139.7690   68.9430  227.0040 C   0  0  0  0  0  0  0  0  0  0  0  0
  140.3050   69.3600  228.2210 C   0  0  0  0  0  0  0  0  0  0  0  0
  140.9520   70.5910  228.3400 C   0  0  0  0  0  0  0  0  0  0  0  0
  141.0550   71.3980  227.2200 C   0  0  0  0  0  0  0  0  0  0  0  0
  140.5350   71.0040  226.0130 C   0  0  0  0  0  0  0  0  0  0  0  0
  140.6470   71.8140  224.9210 N   0  0  0  0  0  0  0  0  0  0  0  0
  138.5740   73.5790  222.9900 H   0  0  0  0  0  0  0  0  0  0  0  0
  139.6522   73.4306  220.2606 H   0  0  0  0  0  0  0  0  0  0  0  0
  138.6310   74.7564  220.9515 H   0  0  0  0  0  0  0  0  0  0  0  0
  140.7554   73.4966  218.8600 H   0  0  0  0  0  0  0  0  0  0  0  0
  141.1258   74.9381  217.9861 H   0  0  0  0  0  0  0  0  0  0  0  0
  143.1921   73.3211  217.7258 H   0  0  0  0  0  0  0  0  0  0  0  0
  142.2970   72.7310  220.2550 H   0  0  0  0  0  0  0  0  0  0  0  0
  144.7074   74.8409  219.3255 H   0  0  0  0  0  0  0  0  0  0  0  0
  143.8205   75.7127  218.0926 H   0  0  0  0  0  0  0  0  0  0  0  0
  143.4594   75.6707  220.9909 H   0  0  0  0  0  0  0  0  0  0  0  0
  141.1012   79.8142  221.1537 H   0  0  0  0  0  0  0  0  0  0  0  0
  142.8484   79.3443  217.2104 H   0  0  0  0  0  0  0  0  0  0  0  0
  139.0899   69.9307  222.6309 H   0  0  0  0  0  0  0  0  0  0  0  0
  138.8424   68.3851  224.5939 H   0  0  0  0  0  0  0  0  0  0  0  0
  139.2590   67.9723  226.9164 H   0  0  0  0  0  0  0  0  0  0  0  0
  140.2167   68.7080  229.1026 H   0  0  0  0  0  0  0  0  0  0  0  0
  141.3716   70.9134  229.3044 H   0  0  0  0  0  0  0  0  0  0  0  0
  141.5620   72.3710  227.2990 H   0  0  0  0  0  0  0  0  0  0  0  0
  1  2  2  0
  2  3  1  0
  3  4  1  0
  4  5  1  0
  5  6  2  0
  5  7  1  0
  7  8  1  0
  8  9  1  0
  9 10  1  0
  9 11  1  0
 11 12  1  0
 12 13  1  0
 13 14  2  0
 14 15  1  0
 15 16  2  0
 16 17  1  0
 16 18  1  0
 18 19  2  0
  2 20  1  0
 20 21  2  0
 21 22  1  0
 22 23  2  0
 23 24  1  0
 24 25  2  0
 25 26  1  0
 26 27  2  0
 27 28  1  0
 28 29  2  0
 12  7  1  0
 19 13  1  0
 29 20  1  0
 28 23  1  0
  3 30  1  0
  4 31  1  0
  4 32  1  0
  8 33  1  0
  8 34  1  0
  9 35  1  6
 10 36  1  0
 11 37  1  0
 11 38  1  0
 12 39  1  1
 15 40  1  0
 18 41  1  0
 21 42  1  0
 22 43  1  0
 24 44  1  0
 25 45  1  0
 26 46  1  0
 27 47  1  0
M  END
>  <smiles>  (15) 
O=C(NCC(=O)N1C[C@H](O)C[C@H]1c1ncc(Cl)cn1)c1ccc2ccccc2n1

>  <score_type>  (15) 
oracle

>  <origin>  (15) 
autodockgpu

>  <m_score__min__energy>  (15) 
-8.1999999999999993

>  <m_primary>  (15) 
energy

>  <rmsd>  (15) 
2.1504222997273343

>  <m_score__min__rmsd>  (15) 
2.1504222997273343

>  <meeko>  (15) 
{"free_energy": -7.49, "intermolecular_energy": -9.28, "internal_energy": -2.14, "cluster_size": 2, "cluster_id": 3, "rank_in_cluster": 1}

>  <energy>  (15) 
-7.27

>  <cluster_rmsd>  (15) 
1.49

>  <cluster>  (15) 
2

$$$$

     RDKit          3D

 47 50  0  0  0  0  0  0  0  0999 V2000
  139.4250   74.2330  222.3510 O   0  0  0  0  0  0  0  0  0  0  0  0
  140.2790   74.7190  221.5420 C   0  0  0  0  0  0  0  0  0  0  0  0
  140.0100   76.0220  221.0230 N   0  0  0  0  0  0  0  0  0  0  0  0
  138.7810   76.6580  221.4760 C   0  0  0  0  0  0  0  0  0  0  0  0
  139.0630   77.9220  222.2040 C   0  0  0  0  0  0  0  0  0  0  0  0
  138.1470   78.5980  222.7750 O   0  0  0  0  0  0  0  0  0  0  0  0
  140.4060   78.3660  222.2490 N   0  0  0  0  0  0  0  0  0  0  0  0
  141.4280   78.0830  223.2660 C   0  0  0  0  0  0  0  0  0  0  0  0
  142.0400   79.4790  223.3930 C   0  0  2  0  0  0  0  0  0  0  0  0
  141.0340   80.3030  223.9170 O   0  0  0  0  0  0  0  0  0  0  0  0
  142.2590   79.8070  221.9310 C   0  0  0  0  0  0  0  0  0  0  0  0
  141.0550   79.2160  221.2690 C   0  0  1  0  0  0  0  0  0  0  0  0
  141.4260   78.3200  220.1300 C   0  0  0  0  0  0  0  0  0  0  0  0
  142.5560   77.5950  220.1980 N   0  0  0  0  0  0  0  0  0  0  0  0
  142.9240   76.7680  219.1810 C   0  0  0  0  0  0  0  0  0  0  0  0
  142.0840   76.7090  218.0740 C   0  0  0  0  0  0  0  0  0  0  0  0
  142.5640   75.6390  216.7580 Cl  0  0  0  0  0  0  0  0  0  0  0  0
  140.9210   77.4470  217.9870 C   0  0  0  0  0  0  0  0  0  0  0  0
  140.6180   78.2520  219.0460 N   0  0  0  0  0  0  0  0  0  0  0  0
  141.4830   73.9890  221.1550 C   0  0  0  0  0  0  0  0  0  0  0  0
  141.3430   72.6520  220.8330 C   0  0  0  0  0  0  0  0  0  0  0  0
  142.4360   71.8730  220.4510 C   0  0  0  0  0  0  0  0  0  0  0  0
  143.6730   72.5170  220.4120 C   0  0  0  0  0  0  0  0  0  0  0  0
  144.7820   71.7730  220.0360 C   0  0  0  0  0  0  0  0  0  0  0  0
  146.0220   72.4070  219.9930 C   0  0  0  0  0  0  0  0  0  0  0  0
  146.1540   73.7580  220.3200 C   0  0  0  0  0  0  0  0  0  0  0  0
  145.0220   74.4640  220.6900 C   0  0  0  0  0  0  0  0  0  0  0  0
  143.7930   73.8580  220.7370 C   0  0  0  0  0  0  0  0  0  0  0  0
  142.6900   74.5710  221.1040 N   0  0  0  0  0  0  0  0  0  0  0  0
  140.6470   76.4920  220.3640 H   0  0  0  0  0  0  0  0  0  0  0  0
  138.1500   76.8806  220.6029 H   0  0  0  0  0  0  0  0  0  0  0  0
  138.2669   75.9695  222.1628 H   0  0  0  0  0  0  0  0  0  0  0  0
  140.9834   77.7409  224.2122 H   0  0  0  0  0  0  0  0  0  0  0  0
  142.1354   77.2798  223.0122 H   0  0  0  0  0  0  0  0  0  0  0  0
  142.9402   79.5792  224.0172 H   0  0  0  0  0  0  0  0  0  0  0  0
  140.1270   79.9960  223.6900 H   0  0  0  0  0  0  0  0  0  0  0  0
  142.3035   80.8946  221.7723 H   0  0  0  0  0  0  0  0  0  0  0  0
  143.2074   79.4138  221.5361 H   0  0  0  0  0  0  0  0  0  0  0  0
  140.4250   80.0377  220.8978 H   0  0  0  0  0  0  0  0  0  0  0  0
  143.8468   76.1716  219.2326 H   0  0  0  0  0  0  0  0  0  0  0  0
  140.2679   77.3888  217.1038 H   0  0  0  0  0  0  0  0  0  0  0  0
  140.3454   72.1908  220.8790 H   0  0  0  0  0  0  0  0  0  0  0  0
  142.3281   70.8088  220.1945 H   0  0  0  0  0  0  0  0  0  0  0  0
  144.6847   70.7081  219.7780 H   0  0  0  0  0  0  0  0  0  0  0  0
  146.9124   71.8332  219.6963 H   0  0  0  0  0  0  0  0  0  0  0  0
  147.1367   74.2510  220.2844 H   0  0  0  0  0  0  0  0  0  0  0  0
  145.1101   75.5290  220.9507 H   0  0  0  0  0  0  0  0  0  0  0  0
  1  2  2  0
  2  3  1  0
  3  4  1  0
  4  5  1  0
  5  6  2  0
  5  7  1  0
  7  8  1  0
  8  9  1  0
  9 10  1  0
  9 11  1  0
 11 12  1  0
 12 13  1  0
 13 14  2  0
 14 15  1  0
 15 16  2  0
 16 17  1  0
 16 18  1  0
 18 19  2  0
  2 20  1  0
 20 21  2  0
 21 22  1  0
 22 23  2  0
 23 24  1  0
 24 25  2  0
 25 26  1  0
 26 27  2  0
 27 28  1  0
 28 29  2  0
 12  7  1  0
 19 13  1  0
 29 20  1  0
 28 23  1  0
  3 30  1  0
  4 31  1  0
  4 32  1  0
  8 33  1  0
  8 34  1  0
  9 35  1  1
 10 36  1  0
 11 37  1  0
 11 38  1  0
 12 39  1  6
 15 40  1  0
 18 41  1  0
 21 42  1  0
 22 43  1  0
 24 44  1  0
 25 45  1  0
 26 46  1  0
 27 47  1  0
M  END
>  <smiles>  (16) 
O=C(NCC(=O)N1C[C@H](O)C[C@H]1c1ncc(Cl)cn1)c1ccc2ccccc2n1

>  <score_type>  (16) 
oracle

>  <origin>  (16) 
autodockgpu

>  <m_score__min__energy>  (16) 
-8.1999999999999993

>  <m_primary>  (16) 
energy

>  <rmsd>  (16) 
5.934306746252323

>  <m_score__min__rmsd>  (16) 
5.934306746252323

>  <meeko>  (16) 
{"free_energy": -5.63, "intermolecular_energy": -7.42, "internal_energy": -3.71, "cluster_size": 5, "cluster_id": 8, "rank_in_cluster": 5}

>  <energy>  (16) 
-7.1

>  <cluster_rmsd>  (16) 
1.59

>  <cluster>  (16) 
2

$$$$

     RDKit          3D

 47 50  0  0  0  0  0  0  0  0999 V2000
  137.5980   69.4330  222.3170 O   0  0  0  0  0  0  0  0  0  0  0  0
  137.9300   70.2240  223.2570 C   0  0  0  0  0  0  0  0  0  0  0  0
  137.5290   71.5890  223.1260 N   0  0  0  0  0  0  0  0  0  0  0  0
  136.7800   71.9310  221.9250 C   0  0  0  0  0  0  0  0  0  0  0  0
  137.5080   72.9290  221.1000 C   0  0  0  0  0  0  0  0  0  0  0  0
  136.9720   74.0190  220.7190 O   0  0  0  0  0  0  0  0  0  0  0  0
  138.8440   72.6300  220.7400 N   0  0  0  0  0  0  0  0  0  0  0  0
  139.3540   72.1410  219.4510 C   0  0  0  0  0  0  0  0  0  0  0  0
  140.3420   71.0900  219.9630 C   0  0  2  0  0  0  0  0  0  0  0  0
  139.5720   70.1050  220.5970 O   0  0  0  0  0  0  0  0  0  0  0  0
  141.0840   71.9060  221.0000 C   0  0  0  0  0  0  0  0  0  0  0  0
  140.0060   72.7510  221.6000 C   0  0  1  0  0  0  0  0  0  0  0  0
  140.3660   74.2030  221.6010 C   0  0  0  0  0  0  0  0  0  0  0  0
  139.6500   75.0620  222.3460 N   0  0  0  0  0  0  0  0  0  0  0  0
  139.9500   76.3910  222.3720 C   0  0  0  0  0  0  0  0  0  0  0  0
  141.0240   76.8150  221.5970 C   0  0  0  0  0  0  0  0  0  0  0  0
  141.4090   78.5350  221.6320 Cl  0  0  0  0  0  0  0  0  0  0  0  0
  141.7690   75.9460  220.8260 C   0  0  0  0  0  0  0  0  0  0  0  0
  141.4100   74.6300  220.8520 N   0  0  0  0  0  0  0  0  0  0  0  0
  138.6850   69.7710  224.4220 C   0  0  0  0  0  0  0  0  0  0  0  0
  138.8090   68.4070  224.6110 C   0  0  0  0  0  0  0  0  0  0  0  0
  139.5120   67.8790  225.6940 C   0  0  0  0  0  0  0  0  0  0  0  0
  140.0810   68.8020  226.5730 C   0  0  0  0  0  0  0  0  0  0  0  0
  140.7870   68.3130  227.6620 C   0  0  0  0  0  0  0  0  0  0  0  0
  141.3590   69.2260  228.5460 C   0  0  0  0  0  0  0  0  0  0  0  0
  141.2280   70.6010  228.3470 C   0  0  0  0  0  0  0  0  0  0  0  0
  140.5150   71.0480  227.2470 C   0  0  0  0  0  0  0  0  0  0  0  0
  139.9460   70.1650  226.3660 C   0  0  0  0  0  0  0  0  0  0  0  0
  139.2470   70.6250  225.2890 N   0  0  0  0  0  0  0  0  0  0  0  0
  137.7540   72.2980  223.8390 H   0  0  0  0  0  0  0  0  0  0  0  0
  136.6230   71.0198  221.3291 H   0  0  0  0  0  0  0  0  0  0  0  0
  135.8175   72.3682  222.2291 H   0  0  0  0  0  0  0  0  0  0  0  0
  138.5588   71.6938  218.8364 H   0  0  0  0  0  0  0  0  0  0  0  0
  139.7829   72.9097  218.7913 H   0  0  0  0  0  0  0  0  0  0  0  0
  140.9937   70.6063  219.2205 H   0  0  0  0  0  0  0  0  0  0  0  0
  138.6370   70.3770  220.7400 H   0  0  0  0  0  0  0  0  0  0  0  0
  141.5447   71.2561  221.7585 H   0  0  0  0  0  0  0  0  0  0  0  0
  141.9107   72.4954  220.5766 H   0  0  0  0  0  0  0  0  0  0  0  0
  139.8389   72.4156  222.6342 H   0  0  0  0  0  0  0  0  0  0  0  0
  139.3673   77.0985  222.9802 H   0  0  0  0  0  0  0  0  0  0  0  0
  142.6147   76.2987  220.2175 H   0  0  0  0  0  0  0  0  0  0  0  0
  138.3416   67.7210  223.8893 H   0  0  0  0  0  0  0  0  0  0  0  0
  139.6125   66.7943  225.8470 H   0  0  0  0  0  0  0  0  0  0  0  0
  140.8930   67.2302  227.8241 H   0  0  0  0  0  0  0  0  0  0  0  0
  141.9231   68.8566  229.4151 H   0  0  0  0  0  0  0  0  0  0  0  0
  141.6819   71.3154  229.0496 H   0  0  0  0  0  0  0  0  0  0  0  0
  140.4034   72.1291  227.0774 H   0  0  0  0  0  0  0  0  0  0  0  0
  1  2  2  0
  2  3  1  0
  3  4  1  0
  4  5  1  0
  5  6  2  0
  5  7  1  0
  7  8  1  0
  8  9  1  0
  9 10  1  0
  9 11  1  0
 11 12  1  0
 12 13  1  0
 13 14  2  0
 14 15  1  0
 15 16  2  0
 16 17  1  0
 16 18  1  0
 18 19  2  0
  2 20  1  0
 20 21  2  0
 21 22  1  0
 22 23  2  0
 23 24  1  0
 24 25  2  0
 25 26  1  0
 26 27  2  0
 27 28  1  0
 28 29  2  0
 12  7  1  0
 19 13  1  0
 29 20  1  0
 28 23  1  0
  3 30  1  0
  4 31  1  0
  4 32  1  0
  8 33  1  0
  8 34  1  0
  9 35  1  6
 10 36  1  0
 11 37  1  0
 11 38  1  0
 12 39  1  1
 15 40  1  0
 18 41  1  0
 21 42  1  0
 22 43  1  0
 24 44  1  0
 25 45  1  0
 26 46  1  0
 27 47  1  0
M  END
>  <smiles>  (17) 
O=C(NCC(=O)N1C[C@H](O)C[C@H]1c1ncc(Cl)cn1)c1ccc2ccccc2n1

>  <score_type>  (17) 
oracle

>  <origin>  (17) 
autodockgpu

>  <m_score__min__energy>  (17) 
-8.1999999999999993

>  <m_primary>  (17) 
energy

>  <rmsd>  (17) 
3.29097181473672

>  <m_score__min__rmsd>  (17) 
3.29097181473672

>  <meeko>  (17) 
{"free_energy": -6.76, "intermolecular_energy": -8.55, "internal_energy": -2.65, "cluster_size": 6, "cluster_id": 7, "rank_in_cluster": 4}

>  <energy>  (17) 
-7.49

>  <cluster_rmsd>  (17) 
0.0

>  <cluster>  (17) 
3

$$$$

     RDKit          3D

 47 50  0  0  0  0  0  0  0  0999 V2000
  139.8160   74.1270  222.3390 O   0  0  0  0  0  0  0  0  0  0  0  0
  140.5030   73.0600  222.2510 C   0  0  0  0  0  0  0  0  0  0  0  0
  141.5530   73.0450  221.2830 N   0  0  0  0  0  0  0  0  0  0  0  0
  141.7260   74.2570  220.4960 C   0  0  0  0  0  0  0  0  0  0  0  0
  143.1150   74.3770  219.9840 C   0  0  0  0  0  0  0  0  0  0  0  0
  143.6220   75.4950  219.6440 O   0  0  0  0  0  0  0  0  0  0  0  0
  143.8790   73.1900  219.8820 N   0  0  0  0  0  0  0  0  0  0  0  0
  144.8360   72.6350  220.8490 C   0  0  0  0  0  0  0  0  0  0  0  0
  145.9430   72.2100  219.8810 C   0  0  2  0  0  0  0  0  0  0  0  0
  146.4410   73.3920  219.3140 O   0  0  0  0  0  0  0  0  0  0  0  0
  145.1240   71.4560  218.8550 C   0  0  0  0  0  0  0  0  0  0  0  0
  143.8680   72.2630  218.7660 C   0  0  1  0  0  0  0  0  0  0  0  0
  142.6460   71.4200  218.9450 C   0  0  0  0  0  0  0  0  0  0  0  0
  142.6220   70.4870  219.9130 N   0  0  0  0  0  0  0  0  0  0  0  0
  141.5260   69.7010  220.1070 C   0  0  0  0  0  0  0  0  0  0  0  0
  140.4400   69.9060  219.2620 C   0  0  0  0  0  0  0  0  0  0  0  0
  139.0240   68.8870  219.5140 Cl  0  0  0  0  0  0  0  0  0  0  0  0
  140.4490   70.8580  218.2630 C   0  0  0  0  0  0  0  0  0  0  0  0
  141.5810   71.6080  218.1310 N   0  0  0  0  0  0  0  0  0  0  0  0
  140.2420   71.8970  223.0950 C   0  0  0  0  0  0  0  0  0  0  0  0
  139.4910   70.8700  222.5530 C   0  0  0  0  0  0  0  0  0  0  0  0
  139.1900   69.7200  223.2810 C   0  0  0  0  0  0  0  0  0  0  0  0
  139.6890   69.6630  224.5840 C   0  0  0  0  0  0  0  0  0  0  0  0
  139.4090   68.5330  225.3380 C   0  0  0  0  0  0  0  0  0  0  0  0
  139.9020   68.4650  226.6390 C   0  0  0  0  0  0  0  0  0  0  0  0
  140.6600   69.5070  227.1790 C   0  0  0  0  0  0  0  0  0  0  0  0
  140.9160   70.6170  226.3920 C   0  0  0  0  0  0  0  0  0  0  0  0
  140.4400   70.7010  225.1090 C   0  0  0  0  0  0  0  0  0  0  0  0
  140.7040   71.8030  224.3500 N   0  0  0  0  0  0  0  0  0  0  0  0
  142.1600   72.2230  221.1440 H   0  0  0  0  0  0  0  0  0  0  0  0
  141.0312   74.2324  219.6436 H   0  0  0  0  0  0  0  0  0  0  0  0
  141.5196   75.1223  221.1430 H   0  0  0  0  0  0  0  0  0  0  0  0
  145.1844   73.3937  221.5652 H   0  0  0  0  0  0  0  0  0  0  0  0
  144.4431   71.8364  221.4955 H   0  0  0  0  0  0  0  0  0  0  0  0
  146.7833   71.6346  220.2966 H   0  0  0  0  0  0  0  0  0  0  0  0
  145.7980   74.1360  219.3430 H   0  0  0  0  0  0  0  0  0  0  0  0
  145.6410   71.4214  217.8847 H   0  0  0  0  0  0  0  0  0  0  0  0
  144.9454   70.4061  219.1303 H   0  0  0  0  0  0  0  0  0  0  0  0
  143.8366   72.7466  217.7785 H   0  0  0  0  0  0  0  0  0  0  0  0
  141.5010   68.9370  220.8980 H   0  0  0  0  0  0  0  0  0  0  0  0
  139.5819   71.0056  217.6024 H   0  0  0  0  0  0  0  0  0  0  0  0
  139.1217   70.9630  221.5210 H   0  0  0  0  0  0  0  0  0  0  0  0
  138.5921   68.9021  222.8525 H   0  0  0  0  0  0  0  0  0  0  0  0
  138.8118   67.7100  224.9185 H   0  0  0  0  0  0  0  0  0  0  0  0
  139.6910   67.5760  227.2515 H   0  0  0  0  0  0  0  0  0  0  0  0
  141.0452   69.4468  228.2076 H   0  0  0  0  0  0  0  0  0  0  0  0
  141.5114   71.4455  226.8031 H   0  0  0  0  0  0  0  0  0  0  0  0
  1  2  2  0
  2  3  1  0
  3  4  1  0
  4  5  1  0
  5  6  2  0
  5  7  1  0
  7  8  1  0
  8  9  1  0
  9 10  1  0
  9 11  1  0
 11 12  1  0
 12 13  1  0
 13 14  2  0
 14 15  1  0
 15 16  2  0
 16 17  1  0
 16 18  1  0
 18 19  2  0
  2 20  1  0
 20 21  2  0
 21 22  1  0
 22 23  2  0
 23 24  1  0
 24 25  2  0
 25 26  1  0
 26 27  2  0
 27 28  1  0
 28 29  2  0
 12  7  1  0
 19 13  1  0
 29 20  1  0
 28 23  1  0
  3 30  1  0
  4 31  1  0
  4 32  1  0
  8 33  1  0
  8 34  1  0
  9 35  1  1
 10 36  1  0
 11 37  1  0
 11 38  1  0
 12 39  1  6
 15 40  1  0
 18 41  1  0
 21 42  1  0
 22 43  1  0
 24 44  1  0
 25 45  1  0
 26 46  1  0
 27 47  1  0
M  END
>  <smiles>  (18) 
O=C(NCC(=O)N1C[C@H](O)C[C@H]1c1ncc(Cl)cn1)c1ccc2ccccc2n1

>  <score_type>  (18) 
oracle

>  <origin>  (18) 
autodockgpu

>  <m_score__min__energy>  (18) 
-8.1999999999999993

>  <m_primary>  (18) 
energy

>  <rmsd>  (18) 
5.644389557509004

>  <m_score__min__rmsd>  (18) 
5.644389557509004

>  <meeko>  (18) 
{"free_energy": -6.61, "intermolecular_energy": -8.4, "internal_energy": -3.03, "cluster_size": 12, "cluster_id": 5, "rank_in_cluster": 3}

>  <energy>  (18) 
-7.36

>  <cluster_rmsd>  (18) 
0.37

>  <cluster>  (18) 
3

$$$$

     RDKit          3D

 47 50  0  0  0  0  0  0  0  0999 V2000
  140.1470   74.2390  222.2720 O   0  0  0  0  0  0  0  0  0  0  0  0
  140.5500   73.0600  222.0130 C   0  0  0  0  0  0  0  0  0  0  0  0
  141.3320   72.8890  220.8300 N   0  0  0  0  0  0  0  0  0  0  0  0
  141.5860   74.0870  220.0420 C   0  0  0  0  0  0  0  0  0  0  0  0
  143.0390   74.2820  219.8060 C   0  0  0  0  0  0  0  0  0  0  0  0
  143.5490   75.4320  219.6070 O   0  0  0  0  0  0  0  0  0  0  0  0
  143.8620   73.1300  219.8070 N   0  0  0  0  0  0  0  0  0  0  0  0
  144.8170   72.6920  220.8350 C   0  0  0  0  0  0  0  0  0  0  0  0
  145.9690   72.2570  219.9260 C   0  0  2  0  0  0  0  0  0  0  0  0
  146.4260   73.4190  219.2890 O   0  0  0  0  0  0  0  0  0  0  0  0
  145.2160   71.3920  218.9380 C   0  0  0  0  0  0  0  0  0  0  0  0
  143.9260   72.1280  218.7600 C   0  0  1  0  0  0  0  0  0  0  0  0
  142.7420   71.2390  218.9690 C   0  0  0  0  0  0  0  0  0  0  0  0
  142.8410   70.1890  219.8030 N   0  0  0  0  0  0  0  0  0  0  0  0
  141.7830   69.3580  220.0190 C   0  0  0  0  0  0  0  0  0  0  0  0
  140.6030   69.6450  219.3410 C   0  0  0  0  0  0  0  0  0  0  0  0
  139.2350   68.5680  219.6210 Cl  0  0  0  0  0  0  0  0  0  0  0  0
  140.4840   70.7180  218.4820 C   0  0  0  0  0  0  0  0  0  0  0  0
  141.5860   71.5060  218.3180 N   0  0  0  0  0  0  0  0  0  0  0  0
  140.2350   71.9260  222.8760 C   0  0  0  0  0  0  0  0  0  0  0  0
  139.4390   70.9250  222.3500 C   0  0  0  0  0  0  0  0  0  0  0  0
  139.0850   69.8020  223.0990 C   0  0  0  0  0  0  0  0  0  0  0  0
  139.5800   69.7450  224.4030 C   0  0  0  0  0  0  0  0  0  0  0  0
  139.2480   68.6430  225.1770 C   0  0  0  0  0  0  0  0  0  0  0  0
  139.7360   68.5760  226.4800 C   0  0  0  0  0  0  0  0  0  0  0  0
  140.5390   69.5910  227.0020 C   0  0  0  0  0  0  0  0  0  0  0  0
  140.8470   70.6750  226.1970 C   0  0  0  0  0  0  0  0  0  0  0  0
  140.3760   70.7570  224.9110 C   0  0  0  0  0  0  0  0  0  0  0  0
  140.6900   71.8330  224.1340 N   0  0  0  0  0  0  0  0  0  0  0  0
  141.7000   71.9710  220.5430 H   0  0  0  0  0  0  0  0  0  0  0  0
  141.0754   73.9925  219.0723 H   0  0  0  0  0  0  0  0  0  0  0  0
  141.2062   74.9555  220.6000 H   0  0  0  0  0  0  0  0  0  0  0  0
  145.1084   73.5151  221.5041 H   0  0  0  0  0  0  0  0  0  0  0  0
  144.4453   71.9221  221.5271 H   0  0  0  0  0  0  0  0  0  0  0  0
  146.8248   71.7553  220.4013 H   0  0  0  0  0  0  0  0  0  0  0  0
  145.7790   74.1590  219.3240 H   0  0  0  0  0  0  0  0  0  0  0  0
  145.7610   71.3137  217.9857 H   0  0  0  0  0  0  0  0  0  0  0  0
  145.0799   70.3569  219.2844 H   0  0  0  0  0  0  0  0  0  0  0  0
  143.8985   72.5396  217.7403 H   0  0  0  0  0  0  0  0  0  0  0  0
  141.8588   68.4975  220.7000 H   0  0  0  0  0  0  0  0  0  0  0  0
  139.5429   70.9289  217.9530 H   0  0  0  0  0  0  0  0  0  0  0  0
  139.0759   71.0162  221.3157 H   0  0  0  0  0  0  0  0  0  0  0  0
  138.4504   69.0050  222.6843 H   0  0  0  0  0  0  0  0  0  0  0  0
  138.6142   67.8407  224.7714 H   0  0  0  0  0  0  0  0  0  0  0  0
  139.4842   67.7086  227.1079 H   0  0  0  0  0  0  0  0  0  0  0  0
  140.9197   69.5312  228.0323 H   0  0  0  0  0  0  0  0  0  0  0  0
  141.4790   71.4827  226.5948 H   0  0  0  0  0  0  0  0  0  0  0  0
  1  2  2  0
  2  3  1  0
  3  4  1  0
  4  5  1  0
  5  6  2  0
  5  7  1  0
  7  8  1  0
  8  9  1  0
  9 10  1  0
  9 11  1  0
 11 12  1  0
 12 13  1  0
 13 14  2  0
 14 15  1  0
 15 16  2  0
 16 17  1  0
 16 18  1  0
 18 19  2  0
  2 20  1  0
 20 21  2  0
 21 22  1  0
 22 23  2  0
 23 24  1  0
 24 25  2  0
 25 26  1  0
 26 27  2  0
 27 28  1  0
 28 29  2  0
 12  7  1  0
 19 13  1  0
 29 20  1  0
 28 23  1  0
  3 30  1  0
  4 31  1  0
  4 32  1  0
  8 33  1  0
  8 34  1  0
  9 35  1  1
 10 36  1  0
 11 37  1  0
 11 38  1  0
 12 39  1  6
 15 40  1  0
 18 41  1  0
 21 42  1  0
 22 43  1  0
 24 44  1  0
 25 45  1  0
 26 46  1  0
 27 47  1  0
M  END
>  <smiles>  (19) 
O=C(NCC(=O)N1C[C@H](O)C[C@H]1c1ncc(Cl)cn1)c1ccc2ccccc2n1

>  <score_type>  (19) 
oracle

>  <origin>  (19) 
autodockgpu

>  <m_score__min__energy>  (19) 
-8.1999999999999993

>  <m_primary>  (19) 
energy

>  <rmsd>  (19) 
5.740126634697779

>  <m_score__min__rmsd>  (19) 
5.740126634697779

>  <meeko>  (19) 
{"free_energy": -6.43, "intermolecular_energy": -8.22, "internal_energy": -3.23, "cluster_size": 12, "cluster_id": 5, "rank_in_cluster": 6}

>  <energy>  (19) 
-7.28

>  <cluster_rmsd>  (19) 
0.0

>  <cluster>  (19) 
4

$$$$

     RDKit          3D

 47 50  0  0  0  0  0  0  0  0999 V2000
  140.6390   72.7550  221.9130 O   0  0  0  0  0  0  0  0  0  0  0  0
  139.6620   72.4490  222.6680 C   0  0  0  0  0  0  0  0  0  0  0  0
  138.4040   73.0600  222.3770 N   0  0  0  0  0  0  0  0  0  0  0  0
  138.3740   73.9740  221.2440 C   0  0  0  0  0  0  0  0  0  0  0  0
  139.1060   75.2310  221.5440 C   0  0  0  0  0  0  0  0  0  0  0  0
  138.8730   75.9220  222.5880 O   0  0  0  0  0  0  0  0  0  0  0  0
  140.0920   75.6510  220.6200 N   0  0  0  0  0  0  0  0  0  0  0  0
  139.9620   75.8390  219.1690 C   0  0  0  0  0  0  0  0  0  0  0  0
  141.2820   75.2050  218.7220 C   0  0  2  0  0  0  0  0  0  0  0  0
  141.1960   73.8450  219.0550 O   0  0  0  0  0  0  0  0  0  0  0  0
  142.2430   75.9030  219.6600 C   0  0  0  0  0  0  0  0  0  0  0  0
  141.4680   75.9860  220.9360 C   0  0  1  0  0  0  0  0  0  0  0  0
  141.4360   77.3780  221.4820 C   0  0  0  0  0  0  0  0  0  0  0  0
  141.6570   78.4180  220.6580 N   0  0  0  0  0  0  0  0  0  0  0  0
  141.6350   79.6990  221.1190 C   0  0  0  0  0  0  0  0  0  0  0  0
  141.3750   79.8820  222.4740 C   0  0  0  0  0  0  0  0  0  0  0  0
  141.3480   81.5420  223.0680 Cl  0  0  0  0  0  0  0  0  0  0  0  0
  141.1460   78.8270  223.3330 C   0  0  0  0  0  0  0  0  0  0  0  0
  141.1830   77.5730  222.7970 N   0  0  0  0  0  0  0  0  0  0  0  0
  139.8050   71.5150  223.7820 C   0  0  0  0  0  0  0  0  0  0  0  0
  139.3970   70.2100  223.5770 C   0  0  0  0  0  0  0  0  0  0  0  0
  139.4940   69.2460  224.5810 C   0  0  0  0  0  0  0  0  0  0  0  0
  140.0250   69.6730  225.7990 C   0  0  0  0  0  0  0  0  0  0  0  0
  140.1370   68.7410  226.8210 C   0  0  0  0  0  0  0  0  0  0  0  0
  140.6660   69.1560  228.0410 C   0  0  0  0  0  0  0  0  0  0  0  0
  141.0750   70.4760  228.2390 C   0  0  0  0  0  0  0  0  0  0  0  0
  140.9460   71.3740  227.1930 C   0  0  0  0  0  0  0  0  0  0  0  0
  140.4290   70.9840  225.9850 C   0  0  0  0  0  0  0  0  0  0  0  0
  140.3100   71.8850  224.9670 N   0  0  0  0  0  0  0  0  0  0  0  0
  137.5590   72.8690  222.9360 H   0  0  0  0  0  0  0  0  0  0  0  0
  138.8422   73.4851  220.3769 H   0  0  0  0  0  0  0  0  0  0  0  0
  137.3250   74.2263  221.0296 H   0  0  0  0  0  0  0  0  0  0  0  0
  139.0903   75.3062  218.7612 H   0  0  0  0  0  0  0  0  0  0  0  0
  139.8021   76.8765  218.8404 H   0  0  0  0  0  0  0  0  0  0  0  0
  141.5490   75.2922  217.6585 H   0  0  0  0  0  0  0  0  0  0  0  0
  141.0200   73.6920  220.0110 H   0  0  0  0  0  0  0  0  0  0  0  0
  143.1626   75.3143  219.7937 H   0  0  0  0  0  0  0  0  0  0  0  0
  142.5740   76.8844  219.2896 H   0  0  0  0  0  0  0  0  0  0  0  0
  141.9377   75.3155  221.6707 H   0  0  0  0  0  0  0  0  0  0  0  0
  141.8150   80.5527  220.4492 H   0  0  0  0  0  0  0  0  0  0  0  0
  140.9428   78.9896  224.4018 H   0  0  0  0  0  0  0  0  0  0  0  0
  138.9855   69.9245  222.5976 H   0  0  0  0  0  0  0  0  0  0  0  0
  139.1699   68.2070  224.4214 H   0  0  0  0  0  0  0  0  0  0  0  0
  139.8158   67.6996  226.6714 H   0  0  0  0  0  0  0  0  0  0  0  0
  140.7631   68.4311  228.8626 H   0  0  0  0  0  0  0  0  0  0  0  0
  141.4910   70.7960  229.2057 H   0  0  0  0  0  0  0  0  0  0  0  0
  141.2637   72.4177  227.3338 H   0  0  0  0  0  0  0  0  0  0  0  0
  1  2  2  0
  2  3  1  0
  3  4  1  0
  4  5  1  0
  5  6  2  0
  5  7  1  0
  7  8  1  0
  8  9  1  0
  9 10  1  0
  9 11  1  0
 11 12  1  0
 12 13  1  0
 13 14  2  0
 14 15  1  0
 15 16  2  0
 16 17  1  0
 16 18  1  0
 18 19  2  0
  2 20  1  0
 20 21  2  0
 21 22  1  0
 22 23  2  0
 23 24  1  0
 24 25  2  0
 25 26  1  0
 26 27  2  0
 27 28  1  0
 28 29  2  0
 12  7  1  0
 19 13  1  0
 29 20  1  0
 28 23  1  0
  3 30  1  0
  4 31  1  0
  4 32  1  0
  8 33  1  0
  8 34  1  0
  9 35  1  6
 10 36  1  0
 11 37  1  0
 11 38  1  0
 12 39  1  1
 15 40  1  0
 18 41  1  0
 21 42  1  0
 22 43  1  0
 24 44  1  0
 25 45  1  0
 26 46  1  0
 27 47  1  0
M  END
>  <smiles>  (20) 
O=C(NCC(=O)N1C[C@H](O)C[C@H]1c1ncc(Cl)cn1)c1ccc2ccccc2n1

>  <score_type>  (20) 
oracle

>  <origin>  (20) 
autodockgpu

>  <m_score__min__energy>  (20) 
-8.1999999999999993

>  <m_primary>  (20) 
energy

>  <rmsd>  (20) 
1.7384707927305658

>  <m_score__min__rmsd>  (20) 
1.7384707927305658

>  <meeko>  (20) 
{"free_energy": -7.39, "intermolecular_energy": -9.18, "internal_energy": -2.16, "cluster_size": 9, "cluster_id": 2, "rank_in_cluster": 6}

>  <energy>  (20) 
-7.2

>  <cluster_rmsd>  (20) 
0.2

>  <cluster>  (20) 
4

$$$$

     RDKit          3D

 47 50  0  0  0  0  0  0  0  0999 V2000
  141.1930   71.9320  221.7060 O   0  0  0  0  0  0  0  0  0  0  0  0
  140.2820   72.1250  222.5730 C   0  0  0  0  0  0  0  0  0  0  0  0
  139.3930   73.2190  222.3440 N   0  0  0  0  0  0  0  0  0  0  0  0
  139.6250   74.0020  221.1380 C   0  0  0  0  0  0  0  0  0  0  0  0
  140.8700   74.8050  221.2460 C   0  0  0  0  0  0  0  0  0  0  0  0
  141.0540   75.6530  222.1780 O   0  0  0  0  0  0  0  0  0  0  0  0
  141.8690   74.5990  220.2650 N   0  0  0  0  0  0  0  0  0  0  0  0
  141.8710   73.6420  219.1510 C   0  0  0  0  0  0  0  0  0  0  0  0
  143.3180   73.1530  219.2510 C   0  0  2  0  0  0  0  0  0  0  0  0
  143.4220   72.4840  220.4790 O   0  0  0  0  0  0  0  0  0  0  0  0
  144.0410   74.4810  219.3280 C   0  0  0  0  0  0  0  0  0  0  0  0
  143.1270   75.3150  220.1680 C   0  0  1  0  0  0  0  0  0  0  0  0
  142.8050   76.6230  219.5160 C   0  0  0  0  0  0  0  0  0  0  0  0
  142.1650   77.5730  220.2200 N   0  0  0  0  0  0  0  0  0  0  0  0
  141.8560   78.7760  219.6600 C   0  0  0  0  0  0  0  0  0  0  0  0
  142.2310   78.9750  218.3350 C   0  0  0  0  0  0  0  0  0  0  0  0
  141.8300   80.5320  217.6130 Cl  0  0  0  0  0  0  0  0  0  0  0  0
  142.8890   78.0110  217.5990 C   0  0  0  0  0  0  0  0  0  0  0  0
  143.1650   76.8320  218.2280 N   0  0  0  0  0  0  0  0  0  0  0  0
  140.1400   71.2750  223.7510 C   0  0  0  0  0  0  0  0  0  0  0  0
  139.4270   70.0990  223.6070 C   0  0  0  0  0  0  0  0  0  0  0  0
  139.2380   69.2220  224.6750 C   0  0  0  0  0  0  0  0  0  0  0  0
  139.8070   69.5970  225.8930 C   0  0  0  0  0  0  0  0  0  0  0  0
  139.6380   68.7490  226.9780 C   0  0  0  0  0  0  0  0  0  0  0  0
  140.2020   69.1130  228.1990 C   0  0  0  0  0  0  0  0  0  0  0  0
  140.9200   70.3030  228.3350 C   0  0  0  0  0  0  0  0  0  0  0  0
  141.0640   71.1220  227.2280 C   0  0  0  0  0  0  0  0  0  0  0  0
  140.5170   70.7790  226.0180 C   0  0  0  0  0  0  0  0  0  0  0  0
  140.6710   71.5990  224.9390 N   0  0  0  0  0  0  0  0  0  0  0  0
  138.6260   73.4480  222.9930 H   0  0  0  0  0  0  0  0  0  0  0  0
  139.7121   73.3200  220.2794 H   0  0  0  0  0  0  0  0  0  0  0  0
  138.7783   74.6913  221.0038 H   0  0  0  0  0  0  0  0  0  0  0  0
  141.1493   72.8267  219.3074 H   0  0  0  0  0  0  0  0  0  0  0  0
  141.5799   74.0555  218.1741 H   0  0  0  0  0  0  0  0  0  0  0  0
  143.6821   72.4875  218.4544 H   0  0  0  0  0  0  0  0  0  0  0  0
  142.5710   72.4470  220.9710 H   0  0  0  0  0  0  0  0  0  0  0  0
  145.0248   74.3681  219.8071 H   0  0  0  0  0  0  0  0  0  0  0  0
  144.2438   74.9214  218.3406 H   0  0  0  0  0  0  0  0  0  0  0  0
  143.6169   75.4993  221.1355 H   0  0  0  0  0  0  0  0  0  0  0  0
  141.3323   79.5567  220.2311 H   0  0  0  0  0  0  0  0  0  0  0  0
  143.1781   78.1852  216.5521 H   0  0  0  0  0  0  0  0  0  0  0  0
  138.9981   69.8488  222.6255 H   0  0  0  0  0  0  0  0  0  0  0  0
  138.6714   68.2858  224.5634 H   0  0  0  0  0  0  0  0  0  0  0  0
  139.0720   67.8113  226.8767 H   0  0  0  0  0  0  0  0  0  0  0  0
  140.0797   68.4523  229.0699 H   0  0  0  0  0  0  0  0  0  0  0  0
  141.3623   70.5840  229.3022 H   0  0  0  0  0  0  0  0  0  0  0  0
  141.6262   72.0630  227.3205 H   0  0  0  0  0  0  0  0  0  0  0  0
  1  2  2  0
  2  3  1  0
  3  4  1  0
  4  5  1  0
  5  6  2  0
  5  7  1  0
  7  8  1  0
  8  9  1  0
  9 10  1  0
  9 11  1  0
 11 12  1  0
 12 13  1  0
 13 14  2  0
 14 15  1  0
 15 16  2  0
 16 17  1  0
 16 18  1  0
 18 19  2  0
  2 20  1  0
 20 21  2  0
 21 22  1  0
 22 23  2  0
 23 24  1  0
 24 25  2  0
 25 26  1  0
 26 27  2  0
 27 28  1  0
 28 29  2  0
 12  7  1  0
 19 13  1  0
 29 20  1  0
 28 23  1  0
  3 30  1  0
  4 31  1  0
  4 32  1  0
  8 33  1  0
  8 34  1  0
  9 35  1  6
 10 36  1  0
 11 37  1  0
 11 38  1  0
 12 39  1  1
 15 40  1  0
 18 41  1  0
 21 42  1  0
 22 43  1  0
 24 44  1  0
 25 45  1  0
 26 46  1  0
 27 47  1  0
M  END
>  <smiles>  (21) 
O=C(NCC(=O)N1C[C@H](O)C[C@H]1c1ncc(Cl)cn1)c1ccc2ccccc2n1

>  <score_type>  (21) 
oracle

>  <origin>  (21) 
autodockgpu

>  <m_score__min__energy>  (21) 
-8.1999999999999993

>  <m_primary>  (21) 
energy

>  <rmsd>  (21) 
2.596074830124317

>  <m_score__min__rmsd>  (21) 
2.596074830124317

>  <meeko>  (21) 
{"free_energy": -7.52, "intermolecular_energy": -9.31, "internal_energy": -2.18, "cluster_size": 7, "cluster_id": 1, "rank_in_cluster": 3}

>  <energy>  (21) 
-7.03

>  <cluster_rmsd>  (21) 
0.0

>  <cluster>  (21) 
5

$$$$

     RDKit          3D

 47 50  0  0  0  0  0  0  0  0999 V2000
  140.3370   74.2760  222.2900 O   0  0  0  0  0  0  0  0  0  0  0  0
  140.6300   73.0780  221.9770 C   0  0  0  0  0  0  0  0  0  0  0  0
  141.2870   72.8790  220.7250 N   0  0  0  0  0  0  0  0  0  0  0  0
  141.5520   74.0740  219.9350 C   0  0  0  0  0  0  0  0  0  0  0  0
  143.0080   74.2640  219.7150 C   0  0  0  0  0  0  0  0  0  0  0  0
  143.5190   75.4080  219.4840 O   0  0  0  0  0  0  0  0  0  0  0  0
  143.8340   73.1160  219.7690 N   0  0  0  0  0  0  0  0  0  0  0  0
  144.7590   72.7060  220.8340 C   0  0  0  0  0  0  0  0  0  0  0  0
  145.9390   72.2520  219.9720 C   0  0  2  0  0  0  0  0  0  0  0  0
  146.4120   73.4000  219.3190 O   0  0  0  0  0  0  0  0  0  0  0  0
  145.2180   71.3610  218.9830 C   0  0  0  0  0  0  0  0  0  0  0  0
  143.9310   72.0880  218.7500 C   0  0  1  0  0  0  0  0  0  0  0  0
  142.7430   71.2010  218.9460 C   0  0  0  0  0  0  0  0  0  0  0  0
  141.6280   71.4200  218.2290 N   0  0  0  0  0  0  0  0  0  0  0  0
  140.5270   70.6320  218.3800 C   0  0  0  0  0  0  0  0  0  0  0  0
  140.6090   69.5970  219.3070 C   0  0  0  0  0  0  0  0  0  0  0  0
  139.1830   68.5800  219.5020 Cl  0  0  0  0  0  0  0  0  0  0  0  0
  141.7460   69.3590  220.0510 C   0  0  0  0  0  0  0  0  0  0  0  0
  142.8080   70.1890  219.8430 N   0  0  0  0  0  0  0  0  0  0  0  0
  140.3150   71.9500  222.8490 C   0  0  0  0  0  0  0  0  0  0  0  0
  139.5800   70.9110  222.3080 C   0  0  0  0  0  0  0  0  0  0  0  0
  139.2310   69.7910  223.0630 C   0  0  0  0  0  0  0  0  0  0  0  0
  139.6660   69.7770  224.3890 C   0  0  0  0  0  0  0  0  0  0  0  0
  139.3370   68.6780  225.1690 C   0  0  0  0  0  0  0  0  0  0  0  0
  139.7670   68.6540  226.4950 C   0  0  0  0  0  0  0  0  0  0  0  0
  140.5090   69.7070  227.0320 C   0  0  0  0  0  0  0  0  0  0  0  0
  140.8160   70.7850  226.2190 C   0  0  0  0  0  0  0  0  0  0  0  0
  140.4020   70.8270  224.9120 C   0  0  0  0  0  0  0  0  0  0  0  0
  140.7150   71.8980  224.1280 N   0  0  0  0  0  0  0  0  0  0  0  0
  141.5610   71.9440  220.3920 H   0  0  0  0  0  0  0  0  0  0  0  0
  141.0520   73.9770  218.9600 H   0  0  0  0  0  0  0  0  0  0  0  0
  141.1675   74.9457  220.4848 H   0  0  0  0  0  0  0  0  0  0  0  0
  145.0285   73.5460  221.4911 H   0  0  0  0  0  0  0  0  0  0  0  0
  144.3683   71.9516  221.5327 H   0  0  0  0  0  0  0  0  0  0  0  0
  146.7809   71.7650  220.4858 H   0  0  0  0  0  0  0  0  0  0  0  0
  145.7610   74.1380  219.3150 H   0  0  0  0  0  0  0  0  0  0  0  0
  145.7909   71.2624  218.0492 H   0  0  0  0  0  0  0  0  0  0  0  0
  145.0751   70.3338  219.3495 H   0  0  0  0  0  0  0  0  0  0  0  0
  143.9322   72.4737  217.7198 H   0  0  0  0  0  0  0  0  0  0  0  0
  139.6123   70.8063  217.7944 H   0  0  0  0  0  0  0  0  0  0  0  0
  141.7940   68.5363  220.7796 H   0  0  0  0  0  0  0  0  0  0  0  0
  139.2627   70.9691  221.2564 H   0  0  0  0  0  0  0  0  0  0  0  0
  138.6448   68.9638  222.6363 H   0  0  0  0  0  0  0  0  0  0  0  0
  138.7512   67.8458  224.7515 H   0  0  0  0  0  0  0  0  0  0  0  0
  139.5172   67.7903  227.1288 H   0  0  0  0  0  0  0  0  0  0  0  0
  140.8431   69.6811  228.0797 H   0  0  0  0  0  0  0  0  0  0  0  0
  141.4016   71.6215  226.6281 H   0  0  0  0  0  0  0  0  0  0  0  0
  1  2  2  0
  2  3  1  0
  3  4  1  0
  4  5  1  0
  5  6  2  0
  5  7  1  0
  7  8  1  0
  8  9  1  0
  9 10  1  0
  9 11  1  0
 11 12  1  0
 12 13  1  0
 13 14  2  0
 14 15  1  0
 15 16  2  0
 16 17  1  0
 16 18  1  0
 18 19  2  0
  2 20  1  0
 20 21  2  0
 21 22  1  0
 22 23  2  0
 23 24  1  0
 24 25  2  0
 25 26  1  0
 26 27  2  0
 27 28  1  0
 28 29  2  0
 12  7  1  0
 19 13  1  0
 29 20  1  0
 28 23  1  0
  3 30  1  0
  4 31  1  0
  4 32  1  0
  8 33  1  0
  8 34  1  0
  9 35  1  1
 10 36  1  0
 11 37  1  0
 11 38  1  0
 12 39  1  6
 15 40  1  0
 18 41  1  0
 21 42  1  0
 22 43  1  0
 24 44  1  0
 25 45  1  0
 26 46  1  0
 27 47  1  0
M  END
>  <smiles>  (22) 
O=C(NCC(=O)N1C[C@H](O)C[C@H]1c1ncc(Cl)cn1)c1ccc2ccccc2n1

>  <score_type>  (22) 
oracle

>  <origin>  (22) 
autodockgpu

>  <m_score__min__energy>  (22) 
-8.1999999999999993

>  <m_primary>  (22) 
energy

>  <rmsd>  (22) 
5.792634867751576

>  <m_score__min__rmsd>  (22) 
5.792634867751576

>  <meeko>  (22) 
{"free_energy": -6.37, "intermolecular_energy": -8.16, "internal_energy": -3.3, "cluster_size": 12, "cluster_id": 5, "rank_in_cluster": 8}

>  <energy>  (22) 
-7.01

>  <cluster_rmsd>  (22) 
0.29

>  <cluster>  (22) 
5

$$$$

     RDKit          3D

 47 50  0  0  0  0  0  0  0  0999 V2000
  141.1700   71.8560  221.6970 O   0  0  0  0  0  0  0  0  0  0  0  0
  140.2700   72.0650  222.5720 C   0  0  0  0  0  0  0  0  0  0  0  0
  139.3950   73.1720  222.3480 N   0  0  0  0  0  0  0  0  0  0  0  0
  139.6270   73.9470  221.1380 C   0  0  0  0  0  0  0  0  0  0  0  0
  140.8560   74.7740  221.2530 C   0  0  0  0  0  0  0  0  0  0  0  0
  141.0010   75.6560  222.1600 O   0  0  0  0  0  0  0  0  0  0  0  0
  141.8860   74.5500  220.3080 N   0  0  0  0  0  0  0  0  0  0  0  0
  141.9260   73.5660  219.2180 C   0  0  0  0  0  0  0  0  0  0  0  0
  143.3720   73.0890  219.3730 C   0  0  2  0  0  0  0  0  0  0  0  0
  143.4420   72.4510  220.6200 O   0  0  0  0  0  0  0  0  0  0  0  0
  144.0860   74.4220  219.4400 C   0  0  0  0  0  0  0  0  0  0  0  0
  143.1420   75.2710  220.2320 C   0  0  1  0  0  0  0  0  0  0  0  0
  142.8340   76.5610  219.5390 C   0  0  0  0  0  0  0  0  0  0  0  0
  143.2110   76.7320  218.2600 N   0  0  0  0  0  0  0  0  0  0  0  0
  142.9470   77.8920  217.5970 C   0  0  0  0  0  0  0  0  0  0  0  0
  142.2740   78.8860  218.3010 C   0  0  0  0  0  0  0  0  0  0  0  0
  141.9340   80.3870  217.4410 Cl  0  0  0  0  0  0  0  0  0  0  0  0
  141.8800   78.7270  219.6130 C   0  0  0  0  0  0  0  0  0  0  0  0
  142.1790   77.5370  220.2100 N   0  0  0  0  0  0  0  0  0  0  0  0
  140.1260   71.2200  223.7540 C   0  0  0  0  0  0  0  0  0  0  0  0
  139.4080   70.0460  223.6160 C   0  0  0  0  0  0  0  0  0  0  0  0
  139.2170   69.1750  224.6880 C   0  0  0  0  0  0  0  0  0  0  0  0
  139.7910   69.5520  225.9030 C   0  0  0  0  0  0  0  0  0  0  0  0
  139.6210   68.7090  226.9920 C   0  0  0  0  0  0  0  0  0  0  0  0
  140.1900   69.0760  228.2100 C   0  0  0  0  0  0  0  0  0  0  0  0
  140.9130   70.2630  228.3400 C   0  0  0  0  0  0  0  0  0  0  0  0
  141.0590   71.0760  227.2290 C   0  0  0  0  0  0  0  0  0  0  0  0
  140.5070   70.7310  226.0210 C   0  0  0  0  0  0  0  0  0  0  0  0
  140.6620   71.5470  224.9390 N   0  0  0  0  0  0  0  0  0  0  0  0
  138.6380   73.4140  223.0040 H   0  0  0  0  0  0  0  0  0  0  0  0
  139.7369   73.2585  220.2872 H   0  0  0  0  0  0  0  0  0  0  0  0
  138.7695   74.6192  220.9869 H   0  0  0  0  0  0  0  0  0  0  0  0
  141.2045   72.7503  219.3730 H   0  0  0  0  0  0  0  0  0  0  0  0
  141.6615   73.9536  218.2231 H   0  0  0  0  0  0  0  0  0  0  0  0
  143.7633   72.4072  218.6036 H   0  0  0  0  0  0  0  0  0  0  0  0
  142.5870   72.0510  220.8980 H   0  0  0  0  0  0  0  0  0  0  0  0
  145.0551   74.3260  219.9514 H   0  0  0  0  0  0  0  0  0  0  0  0
  144.3171   74.8399  218.4491 H   0  0  0  0  0  0  0  0  0  0  0  0
  143.6006   75.4815  221.2094 H   0  0  0  0  0  0  0  0  0  0  0  0
  143.2526   78.0369  216.5503 H   0  0  0  0  0  0  0  0  0  0  0  0
  141.3485   79.5238  220.1540 H   0  0  0  0  0  0  0  0  0  0  0  0
  138.9769   69.7931  222.6361 H   0  0  0  0  0  0  0  0  0  0  0  0
  138.6450   68.2415  224.5818 H   0  0  0  0  0  0  0  0  0  0  0  0
  139.0507   67.7733  226.8961 H   0  0  0  0  0  0  0  0  0  0  0  0
  140.0673   68.4192  229.0838 H   0  0  0  0  0  0  0  0  0  0  0  0
  141.3576   70.5466  229.3054 H   0  0  0  0  0  0  0  0  0  0  0  0
  141.6269   72.0140  227.3160 H   0  0  0  0  0  0  0  0  0  0  0  0
  1  2  2  0
  2  3  1  0
  3  4  1  0
  4  5  1  0
  5  6  2  0
  5  7  1  0
  7  8  1  0
  8  9  1  0
  9 10  1  0
  9 11  1  0
 11 12  1  0
 12 13  1  0
 13 14  2  0
 14 15  1  0
 15 16  2  0
 16 17  1  0
 16 18  1  0
 18 19  2  0
  2 20  1  0
 20 21  2  0
 21 22  1  0
 22 23  2  0
 23 24  1  0
 24 25  2  0
 25 26  1  0
 26 27  2  0
 27 28  1  0
 28 29  2  0
 12  7  1  0
 19 13  1  0
 29 20  1  0
 28 23  1  0
  3 30  1  0
  4 31  1  0
  4 32  1  0
  8 33  1  0
  8 34  1  0
  9 35  1  6
 10 36  1  0
 11 37  1  0
 11 38  1  0
 12 39  1  1
 15 40  1  0
 18 41  1  0
 21 42  1  0
 22 43  1  0
 24 44  1  0
 25 45  1  0
 26 46  1  0
 27 47  1  0
M  END
>  <smiles>  (23) 
O=C(NCC(=O)N1C[C@H](O)C[C@H]1c1ncc(Cl)cn1)c1ccc2ccccc2n1

>  <score_type>  (23) 
oracle

>  <origin>  (23) 
autodockgpu

>  <m_score__min__energy>  (23) 
-8.1999999999999993

>  <m_primary>  (23) 
energy

>  <rmsd>  (23) 
2.8101342056169942

>  <m_score__min__rmsd>  (23) 
2.8101342056169942

>  <meeko>  (23) 
{"free_energy": -7.53, "intermolecular_energy": -9.32, "internal_energy": -2.17, "cluster_size": 7, "cluster_id": 1, "rank_in_cluster": 2}

>  <energy>  (23) 
-6.61

>  <cluster_rmsd>  (23) 
0.99

>  <cluster>  (23) 
5

$$$$

     RDKit          3D

 47 50  0  0  0  0  0  0  0  0999 V2000
  140.5690   71.1900  221.4530 O   0  0  0  0  0  0  0  0  0  0  0  0
  140.2040   71.6480  222.5830 C   0  0  0  0  0  0  0  0  0  0  0  0
  139.9170   73.0450  222.6520 N   0  0  0  0  0  0  0  0  0  0  0  0
  140.0730   73.8010  221.4170 C   0  0  0  0  0  0  0  0  0  0  0  0
  139.7450   75.2350  221.6160 C   0  0  0  0  0  0  0  0  0  0  0  0
  139.2610   75.6790  222.7070 O   0  0  0  0  0  0  0  0  0  0  0  0
  139.9900   76.1180  220.5370 N   0  0  0  0  0  0  0  0  0  0  0  0
  139.0310   76.6530  219.5600 C   0  0  0  0  0  0  0  0  0  0  0  0
  139.8730   76.5090  218.2890 C   0  0  2  0  0  0  0  0  0  0  0  0
  140.0600   75.1320  218.0980 O   0  0  0  0  0  0  0  0  0  0  0  0
  141.1670   77.1420  218.7550 C   0  0  0  0  0  0  0  0  0  0  0  0
  141.2750   76.6840  220.1740 C   0  0  1  0  0  0  0  0  0  0  0  0
  141.5020   77.8250  221.1150 C   0  0  0  0  0  0  0  0  0  0  0  0
  141.8330   79.0320  220.6240 N   0  0  0  0  0  0  0  0  0  0  0  0
  142.0460   80.0940  221.4500 C   0  0  0  0  0  0  0  0  0  0  0  0
  141.9070   79.8740  222.8160 C   0  0  0  0  0  0  0  0  0  0  0  0
  142.1850   81.2500  223.8830 Cl  0  0  0  0  0  0  0  0  0  0  0  0
  141.5680   78.6420  223.3370 C   0  0  0  0  0  0  0  0  0  0  0  0
  141.3700   77.6260  222.4470 N   0  0  0  0  0  0  0  0  0  0  0  0
  140.0800   70.7960  223.7620 C   0  0  0  0  0  0  0  0  0  0  0  0
  139.3770   69.6130  223.6240 C   0  0  0  0  0  0  0  0  0  0  0  0
  139.2060   68.7340  224.6930 C   0  0  0  0  0  0  0  0  0  0  0  0
  139.7820   69.1140  225.9060 C   0  0  0  0  0  0  0  0  0  0  0  0
  139.6310   68.2640  226.9920 C   0  0  0  0  0  0  0  0  0  0  0  0
  140.2030   68.6330  228.2080 C   0  0  0  0  0  0  0  0  0  0  0  0
  140.9110   69.8290  228.3380 C   0  0  0  0  0  0  0  0  0  0  0  0
  141.0380   70.6490  227.2300 C   0  0  0  0  0  0  0  0  0  0  0  0
  140.4830   70.3020  226.0250 C   0  0  0  0  0  0  0  0  0  0  0  0
  140.6190   71.1240  224.9450 N   0  0  0  0  0  0  0  0  0  0  0  0
  139.6150   73.5010  223.5260 H   0  0  0  0  0  0  0  0  0  0  0  0
  141.1148   73.7162  221.0744 H   0  0  0  0  0  0  0  0  0  0  0  0
  139.3815   73.3879  220.6679 H   0  0  0  0  0  0  0  0  0  0  0  0
  138.1107   76.0522  219.5147 H   0  0  0  0  0  0  0  0  0  0  0  0
  138.6615   77.6679  219.7687 H   0  0  0  0  0  0  0  0  0  0  0  0
  139.4679   76.9431  217.3630 H   0  0  0  0  0  0  0  0  0  0  0  0
  139.3160   74.5890  218.4450 H   0  0  0  0  0  0  0  0  0  0  0  0
  142.0191   76.7843  218.1584 H   0  0  0  0  0  0  0  0  0  0  0  0
  141.1751   78.2371  218.6517 H   0  0  0  0  0  0  0  0  0  0  0  0
  142.1148   75.9773  220.2469 H   0  0  0  0  0  0  0  0  0  0  0  0
  142.3165   81.0837  221.0533 H   0  0  0  0  0  0  0  0  0  0  0  0
  141.4621   78.4856  224.4207 H   0  0  0  0  0  0  0  0  0  0  0  0
  138.9417   69.3590  222.6462 H   0  0  0  0  0  0  0  0  0  0  0  0
  138.6475   67.7924  224.5859 H   0  0  0  0  0  0  0  0  0  0  0  0
  139.0729   67.3210  226.8955 H   0  0  0  0  0  0  0  0  0  0  0  0
  140.0948   67.9709  229.0797 H   0  0  0  0  0  0  0  0  0  0  0  0
  141.3589   70.1141  229.3014 H   0  0  0  0  0  0  0  0  0  0  0  0
  141.5932   71.5945  227.3176 H   0  0  0  0  0  0  0  0  0  0  0  0
  1  2  2  0
  2  3  1  0
  3  4  1  0
  4  5  1  0
  5  6  2  0
  5  7  1  0
  7  8  1  0
  8  9  1  0
  9 10  1  0
  9 11  1  0
 11 12  1  0
 12 13  1  0
 13 14  2  0
 14 15  1  0
 15 16  2  0
 16 17  1  0
 16 18  1  0
 18 19  2  0
  2 20  1  0
 20 21  2  0
 21 22  1  0
 22 23  2  0
 23 24  1  0
 24 25  2  0
 25 26  1  0
 26 27  2  0
 27 28  1  0
 28 29  2  0
 12  7  1  0
 19 13  1  0
 29 20  1  0
 28 23  1  0
  3 30  1  0
  4 31  1  0
  4 32  1  0
  8 33  1  0
  8 34  1  0
  9 35  1  6
 10 36  1  0
 11 37  1  0
 11 38  1  0
 12 39  1  6
 15 40  1  0
 18 41  1  0
 21 42  1  0
 22 43  1  0
 24 44  1  0
 25 45  1  0
 26 46  1  0
 27 47  1  0
M  END
>  <smiles>  (24) 
O=C(NCC(=O)N1C[C@H](O)C[C@H]1c1ncc(Cl)cn1)c1ccc2ccccc2n1

>  <score_type>  (24) 
oracle

>  <origin>  (24) 
autodockgpu

>  <m_score__min__energy>  (24) 
-8.1999999999999993

>  <m_primary>  (24) 
energy

>  <rmsd>  (24) 
1.742313193046482

>  <m_score__min__rmsd>  (24) 
1.742313193046482

>  <meeko>  (24) 
{"free_energy": -7.73, "intermolecular_energy": -9.52, "internal_energy": -1.68, "cluster_size": 9, "cluster_id": 2, "rank_in_cluster": 2}

>  <energy>  (24) 
-6.6

>  <cluster_rmsd>  (24) 
0.86

>  <cluster>  (24) 
5

$$$$

     RDKit          3D

 47 50  0  0  0  0  0  0  0  0999 V2000
  139.3850   74.2180  221.9040 O   0  0  0  0  0  0  0  0  0  0  0  0
  140.5450   74.7130  221.7350 C   0  0  0  0  0  0  0  0  0  0  0  0
  140.7130   76.0920  222.0650 N   0  0  0  0  0  0  0  0  0  0  0  0
  139.5340   76.7890  222.5600 C   0  0  0  0  0  0  0  0  0  0  0  0
  139.5590   78.2270  222.1890 C   0  0  0  0  0  0  0  0  0  0  0  0
  138.5140   78.8530  221.8200 O   0  0  0  0  0  0  0  0  0  0  0  0
  140.8030   78.8990  222.2580 N   0  0  0  0  0  0  0  0  0  0  0  0
  141.8180   78.8330  223.3190 C   0  0  0  0  0  0  0  0  0  0  0  0
  142.1750   80.3180  223.4070 C   0  0  2  0  0  0  0  0  0  0  0  0
  141.0220   80.9720  223.8650 O   0  0  0  0  0  0  0  0  0  0  0  0
  142.3910   80.6270  221.9410 C   0  0  0  0  0  0  0  0  0  0  0  0
  141.3330   79.8130  221.2650 C   0  0  1  0  0  0  0  0  0  0  0  0
  141.8960   78.9560  220.1770 C   0  0  0  0  0  0  0  0  0  0  0  0
  142.0850   79.4790  218.9520 N   0  0  0  0  0  0  0  0  0  0  0  0
  142.5960   78.7290  217.9370 C   0  0  0  0  0  0  0  0  0  0  0  0
  142.9110   77.4050  218.2220 C   0  0  0  0  0  0  0  0  0  0  0  0
  143.5720   76.4360  216.9060 Cl  0  0  0  0  0  0  0  0  0  0  0  0
  142.7240   76.8520  219.4720 C   0  0  0  0  0  0  0  0  0  0  0  0
  142.2090   77.6660  220.4390 N   0  0  0  0  0  0  0  0  0  0  0  0
  141.6610   73.9190  221.2310 C   0  0  0  0  0  0  0  0  0  0  0  0
  141.3970   72.6160  220.8500 C   0  0  0  0  0  0  0  0  0  0  0  0
  142.3990   71.7810  220.3550 C   0  0  0  0  0  0  0  0  0  0  0  0
  143.6780   72.3330  220.2660 C   0  0  0  0  0  0  0  0  0  0  0  0
  144.7000   71.5310  219.7790 C   0  0  0  0  0  0  0  0  0  0  0  0
  145.9800   72.0710  219.6850 C   0  0  0  0  0  0  0  0  0  0  0  0
  146.2370   73.3880  220.0720 C   0  0  0  0  0  0  0  0  0  0  0  0
  145.1900   74.1550  220.5540 C   0  0  0  0  0  0  0  0  0  0  0  0
  143.9220   73.6400  220.6520 C   0  0  0  0  0  0  0  0  0  0  0  0
  142.9040   74.4120  221.1290 N   0  0  0  0  0  0  0  0  0  0  0  0
  141.6170   76.5750  221.9610 H   0  0  0  0  0  0  0  0  0  0  0  0
  138.6356   76.3236  222.1284 H   0  0  0  0  0  0  0  0  0  0  0  0
  139.5232   76.7147  223.6574 H   0  0  0  0  0  0  0  0  0  0  0  0
  141.4021   78.4528  224.2637 H   0  0  0  0  0  0  0  0  0  0  0  0
  142.6623   78.1559  223.1224 H   0  0  0  0  0  0  0  0  0  0  0  0
  143.0198   80.5959  224.0543 H   0  0  0  0  0  0  0  0  0  0  0  0
  140.1970   80.6360  223.4480 H   0  0  0  0  0  0  0  0  0  0  0  0
  142.2539   81.6995  221.7388 H   0  0  0  0  0  0  0  0  0  0  0  0
  143.4075   80.3903  221.5937 H   0  0  0  0  0  0  0  0  0  0  0  0
  140.5859   80.4992  220.8396 H   0  0  0  0  0  0  0  0  0  0  0  0
  142.7530   79.1525  216.9340 H   0  0  0  0  0  0  0  0  0  0  0  0
  142.9785   75.8023  219.6800 H   0  0  0  0  0  0  0  0  0  0  0  0
  140.3715   72.2284  220.9395 H   0  0  0  0  0  0  0  0  0  0  0  0
  142.1924   70.7441  220.0514 H   0  0  0  0  0  0  0  0  0  0  0  0
  144.5036   70.4925  219.4742 H   0  0  0  0  0  0  0  0  0  0  0  0
  146.8022   71.4501  219.2996 H   0  0  0  0  0  0  0  0  0  0  0  0
  147.2510   73.8075  219.9954 H   0  0  0  0  0  0  0  0  0  0  0  0
  145.3777   75.1938  220.8633 H   0  0  0  0  0  0  0  0  0  0  0  0
  1  2  2  0
  2  3  1  0
  3  4  1  0
  4  5  1  0
  5  6  2  0
  5  7  1  0
  7  8  1  0
  8  9  1  0
  9 10  1  0
  9 11  1  0
 11 12  1  0
 12 13  1  0
 13 14  2  0
 14 15  1  0
 15 16  2  0
 16 17  1  0
 16 18  1  0
 18 19  2  0
  2 20  1  0
 20 21  2  0
 21 22  1  0
 22 23  2  0
 23 24  1  0
 24 25  2  0
 25 26  1  0
 26 27  2  0
 27 28  1  0
 28 29  2  0
 12  7  1  0
 19 13  1  0
 29 20  1  0
 28 23  1  0
  3 30  1  0
  4 31  1  0
  4 32  1  0
  8 33  1  0
  8 34  1  0
  9 35  1  1
 10 36  1  0
 11 37  1  0
 11 38  1  0
 12 39  1  6
 15 40  1  0
 18 41  1  0
 21 42  1  0
 22 43  1  0
 24 44  1  0
 25 45  1  0
 26 46  1  0
 27 47  1  0
M  END
>  <smiles>  (25) 
O=C(NCC(=O)N1C[C@H](O)C[C@H]1c1ncc(Cl)cn1)c1ccc2ccccc2n1

>  <score_type>  (25) 
oracle

>  <origin>  (25) 
autodockgpu

>  <m_score__min__energy>  (25) 
-8.1999999999999993

>  <m_primary>  (25) 
energy

>  <rmsd>  (25) 
6.177528764522258

>  <m_score__min__rmsd>  (25) 
6.177528764522258

>  <meeko>  (25) 
{"free_energy": -6.51, "intermolecular_energy": -8.3, "internal_energy": -2.9, "cluster_size": 5, "cluster_id": 8, "rank_in_cluster": 2}

>  <energy>  (25) 
-6.59

>  <cluster_rmsd>  (25) 
0.92

>  <cluster>  (25) 
5

$$$$

     RDKit          3D

 47 50  0  0  0  0  0  0  0  0999 V2000
  140.5020   72.1340  221.8420 O   0  0  0  0  0  0  0  0  0  0  0  0
  139.5950   72.0110  222.7260 C   0  0  0  0  0  0  0  0  0  0  0  0
  138.4140   72.7950  222.5540 N   0  0  0  0  0  0  0  0  0  0  0  0
  138.3730   73.6560  221.3800 C   0  0  0  0  0  0  0  0  0  0  0  0
  139.0710   74.9430  221.6290 C   0  0  0  0  0  0  0  0  0  0  0  0
  138.7950   75.6860  222.6260 O   0  0  0  0  0  0  0  0  0  0  0  0
  140.0740   75.3320  220.7090 N   0  0  0  0  0  0  0  0  0  0  0  0
  139.9640   75.4960  219.2530 C   0  0  0  0  0  0  0  0  0  0  0  0
  141.2790   74.8360  218.8330 C   0  0  2  0  0  0  0  0  0  0  0  0
  141.1710   73.4840  219.1900 O   0  0  0  0  0  0  0  0  0  0  0  0
  142.2390   75.5380  219.7700 C   0  0  0  0  0  0  0  0  0  0  0  0
  141.4500   75.6550  221.0360 C   0  0  1  0  0  0  0  0  0  0  0  0
  141.4310   77.0570  221.5560 C   0  0  0  0  0  0  0  0  0  0  0  0
  141.7670   78.0710  220.7390 N   0  0  0  0  0  0  0  0  0  0  0  0
  141.7610   79.3600  221.1770 C   0  0  0  0  0  0  0  0  0  0  0  0
  141.3930   79.5790  222.5010 C   0  0  0  0  0  0  0  0  0  0  0  0
  141.3870   81.2490  223.0670 Cl  0  0  0  0  0  0  0  0  0  0  0  0
  141.0460   78.5500  223.3530 C   0  0  0  0  0  0  0  0  0  0  0  0
  141.0750   77.2860  222.8410 N   0  0  0  0  0  0  0  0  0  0  0  0
  139.7420   71.1140  223.8680 C   0  0  0  0  0  0  0  0  0  0  0  0
  139.3060   69.8110  223.7160 C   0  0  0  0  0  0  0  0  0  0  0  0
  139.4040   68.8800  224.7510 C   0  0  0  0  0  0  0  0  0  0  0  0
  139.9660   69.3370  225.9440 C   0  0  0  0  0  0  0  0  0  0  0  0
  140.0790   68.4390  226.9950 C   0  0  0  0  0  0  0  0  0  0  0  0
  140.6390   68.8840  228.1900 C   0  0  0  0  0  0  0  0  0  0  0  0
  141.0770   70.2020  228.3350 C   0  0  0  0  0  0  0  0  0  0  0  0
  140.9450   71.0670  227.2620 C   0  0  0  0  0  0  0  0  0  0  0  0
  140.3970   70.6460  226.0770 C   0  0  0  0  0  0  0  0  0  0  0  0
  140.2760   71.5140  225.0310 N   0  0  0  0  0  0  0  0  0  0  0  0
  137.6290   72.7590  223.2200 H   0  0  0  0  0  0  0  0  0  0  0  0
  138.8617   73.1401  220.5403 H   0  0  0  0  0  0  0  0  0  0  0  0
  137.3204   73.8722  221.1450 H   0  0  0  0  0  0  0  0  0  0  0  0
  139.0896   74.9685  218.8442 H   0  0  0  0  0  0  0  0  0  0  0  0
  139.8231   76.5298  218.9045 H   0  0  0  0  0  0  0  0  0  0  0  0
  141.5587   74.8998  217.7711 H   0  0  0  0  0  0  0  0  0  0  0  0
  140.8070   73.3510  220.0940 H   0  0  0  0  0  0  0  0  0  0  0  0
  143.1487   74.9393  219.9252 H   0  0  0  0  0  0  0  0  0  0  0  0
  142.5878   76.5079  219.3858 H   0  0  0  0  0  0  0  0  0  0  0  0
  141.9015   74.9925  221.7891 H   0  0  0  0  0  0  0  0  0  0  0  0
  142.0353   80.1928  220.5127 H   0  0  0  0  0  0  0  0  0  0  0  0
  140.7591   78.7406  224.3977 H   0  0  0  0  0  0  0  0  0  0  0  0
  138.8707   69.5001  222.7548 H   0  0  0  0  0  0  0  0  0  0  0  0
  139.0573   67.8428  224.6330 H   0  0  0  0  0  0  0  0  0  0  0  0
  139.7344   67.3999  226.8872 H   0  0  0  0  0  0  0  0  0  0  0  0
  140.7380   68.1854  229.0339 H   0  0  0  0  0  0  0  0  0  0  0  0
  141.5178   70.5460  229.2823 H   0  0  0  0  0  0  0  0  0  0  0  0
  141.2850   72.1084  227.3613 H   0  0  0  0  0  0  0  0  0  0  0  0
  1  2  2  0
  2  3  1  0
  3  4  1  0
  4  5  1  0
  5  6  2  0
  5  7  1  0
  7  8  1  0
  8  9  1  0
  9 10  1  0
  9 11  1  0
 11 12  1  0
 12 13  1  0
 13 14  2  0
 14 15  1  0
 15 16  2  0
 16 17  1  0
 16 18  1  0
 18 19  2  0
  2 20  1  0
 20 21  2  0
 21 22  1  0
 22 23  2  0
 23 24  1  0
 24 25  2  0
 25 26  1  0
 26 27  2  0
 27 28  1  0
 28 29  2  0
 12  7  1  0
 19 13  1  0
 29 20  1  0
 28 23  1  0
  3 30  1  0
  4 31  1  0
  4 32  1  0
  8 33  1  0
  8 34  1  0
  9 35  1  6
 10 36  1  0
 11 37  1  0
 11 38  1  0
 12 39  1  1
 15 40  1  0
 18 41  1  0
 21 42  1  0
 22 43  1  0
 24 44  1  0
 25 45  1  0
 26 46  1  0
 27 47  1  0
M  END
>  <smiles>  (26) 
O=C(NCC(=O)N1C[C@H](O)C[C@H]1c1ncc(Cl)cn1)c1ccc2ccccc2n1

>  <score_type>  (26) 
oracle

>  <origin>  (26) 
autodockgpu

>  <m_score__min__energy>  (26) 
-8.1999999999999993

>  <m_primary>  (26) 
energy

>  <rmsd>  (26) 
1.7590409157679145

>  <m_score__min__rmsd>  (26) 
1.7590409157679145

>  <meeko>  (26) 
{"free_energy": -7.44, "intermolecular_energy": -9.22, "internal_energy": -2.15, "cluster_size": 9, "cluster_id": 2, "rank_in_cluster": 4}

>  <energy>  (26) 
-6.43

>  <cluster_rmsd>  (26) 
0.95

>  <cluster>  (26) 
5

$$$$

     RDKit          3D

 47 50  0  0  0  0  0  0  0  0999 V2000
  139.8920   74.3980  222.2150 O   0  0  0  0  0  0  0  0  0  0  0  0
  140.2910   75.3990  221.5390 C   0  0  0  0  0  0  0  0  0  0  0  0
  140.7180   75.1450  220.1990 N   0  0  0  0  0  0  0  0  0  0  0  0
  140.6510   73.7620  219.7490 C   0  0  0  0  0  0  0  0  0  0  0  0
  141.7430   72.9480  220.3410 C   0  0  0  0  0  0  0  0  0  0  0  0
  141.5150   71.9260  221.0660 O   0  0  0  0  0  0  0  0  0  0  0  0
  143.0750   73.3440  220.0720 N   0  0  0  0  0  0  0  0  0  0  0  0
  144.1190   72.6050  219.3480 C   0  0  0  0  0  0  0  0  0  0  0  0
  145.3060   72.8960  220.2690 C   0  0  2  0  0  0  0  0  0  0  0  0
  145.0150   72.2730  221.4920 O   0  0  0  0  0  0  0  0  0  0  0  0
  145.1690   74.3970  220.4130 C   0  0  0  0  0  0  0  0  0  0  0  0
  143.6880   74.5960  220.4720 C   0  0  1  0  0  0  0  0  0  0  0  0
  143.2210   75.6170  219.4840 C   0  0  0  0  0  0  0  0  0  0  0  0
  142.9880   76.8770  219.8930 N   0  0  0  0  0  0  0  0  0  0  0  0
  142.5630   77.8330  219.0210 C   0  0  0  0  0  0  0  0  0  0  0  0
  142.3810   77.4490  217.6960 C   0  0  0  0  0  0  0  0  0  0  0  0
  141.8300   78.6880  216.5700 Cl  0  0  0  0  0  0  0  0  0  0  0  0
  142.6150   76.1610  217.2600 C   0  0  0  0  0  0  0  0  0  0  0  0
  143.0400   75.2590  218.1910 N   0  0  0  0  0  0  0  0  0  0  0  0
  140.3160   76.7500  222.0920 C   0  0  0  0  0  0  0  0  0  0  0  0
  139.1080   77.3060  222.4720 C   0  0  0  0  0  0  0  0  0  0  0  0
  139.0310   78.5900  223.0110 C   0  0  0  0  0  0  0  0  0  0  0  0
  140.2370   79.2790  223.1460 C   0  0  0  0  0  0  0  0  0  0  0  0
  140.1990   80.5590  223.6790 C   0  0  0  0  0  0  0  0  0  0  0  0
  141.3970   81.2560  223.8190 C   0  0  0  0  0  0  0  0  0  0  0  0
  142.6120   80.6860  223.4330 C   0  0  0  0  0  0  0  0  0  0  0  0
  142.6070   79.4060  222.9060 C   0  0  0  0  0  0  0  0  0  0  0  0
  141.4370   78.7040  222.7610 C   0  0  0  0  0  0  0  0  0  0  0  0
  141.4530   77.4440  222.2390 N   0  0  0  0  0  0  0  0  0  0  0  0
  141.0560   75.8960  219.5800 H   0  0  0  0  0  0  0  0  0  0  0  0
  139.6827   73.3344  220.0483 H   0  0  0  0  0  0  0  0  0  0  0  0
  140.7615   73.7474  218.6547 H   0  0  0  0  0  0  0  0  0  0  0  0
  143.8969   71.5292  219.2898 H   0  0  0  0  0  0  0  0  0  0  0  0
  144.2570   72.8931  218.2954 H   0  0  0  0  0  0  0  0  0  0  0  0
  146.2994   72.5655  219.9313 H   0  0  0  0  0  0  0  0  0  0  0  0
  145.8160   71.9340  221.9530 H   0  0  0  0  0  0  0  0  0  0  0  0
  145.6525   74.7514  221.3353 H   0  0  0  0  0  0  0  0  0  0  0  0
  145.6491   74.9562  219.5965 H   0  0  0  0  0  0  0  0  0  0  0  0
  143.4221   74.9226  221.4882 H   0  0  0  0  0  0  0  0  0  0  0  0
  142.3717   78.8650  219.3502 H   0  0  0  0  0  0  0  0  0  0  0  0
  142.4655   75.8743  216.2086 H   0  0  0  0  0  0  0  0  0  0  0  0
  138.1850   76.7210  222.3460 H   0  0  0  0  0  0  0  0  0  0  0  0
  138.0717   79.0354  223.3133 H   0  0  0  0  0  0  0  0  0  0  0  0
  139.2448   81.0133  223.9841 H   0  0  0  0  0  0  0  0  0  0  0  0
  141.3857   82.2720  224.2405 H   0  0  0  0  0  0  0  0  0  0  0  0
  143.5539   81.2429  223.5454 H   0  0  0  0  0  0  0  0  0  0  0  0
  143.5567   78.9440  222.5984 H   0  0  0  0  0  0  0  0  0  0  0  0
  1  2  2  0
  2  3  1  0
  3  4  1  0
  4  5  1  0
  5  6  2  0
  5  7  1  0
  7  8  1  0
  8  9  1  0
  9 10  1  0
  9 11  1  0
 11 12  1  0
 12 13  1  0
 13 14  2  0
 14 15  1  0
 15 16  2  0
 16 17  1  0
 16 18  1  0
 18 19  2  0
  2 20  1  0
 20 21  2  0
 21 22  1  0
 22 23  2  0
 23 24  1  0
 24 25  2  0
 25 26  1  0
 26 27  2  0
 27 28  1  0
 28 29  2  0
 12  7  1  0
 19 13  1  0
 29 20  1  0
 28 23  1  0
  3 30  1  0
  4 31  1  0
  4 32  1  0
  8 33  1  0
  8 34  1  0
  9 35  1  6
 10 36  1  0
 11 37  1  0
 11 38  1  0
 12 39  1  1
 15 40  1  0
 18 41  1  0
 21 42  1  0
 22 43  1  0
 24 44  1  0
 25 45  1  0
 26 46  1  0
 27 47  1  0
M  END
>  <smiles>  (27) 
O=C(NCC(=O)N1C[C@H](O)C[C@H]1c1ncc(Cl)cn1)c1ccc2ccccc2n1

>  <score_type>  (27) 
oracle

>  <origin>  (27) 
autodockgpu

>  <m_score__min__energy>  (27) 
-8.1999999999999993

>  <m_primary>  (27) 
energy

>  <rmsd>  (27) 
7.2030968665472415

>  <m_score__min__rmsd>  (27) 
7.2030968665472415

>  <meeko>  (27) 
{"free_energy": -6.95, "intermolecular_energy": -8.74, "internal_energy": -2.59, "cluster_size": 6, "cluster_id": 6, "rank_in_cluster": 1}

>  <energy>  (27) 
-6.38

>  <cluster_rmsd>  (27) 
0.94

>  <cluster>  (27) 
5

$$$$

     RDKit          3D

 47 50  0  0  0  0  0  0  0  0999 V2000
  139.3980   74.3680  222.2850 O   0  0  0  0  0  0  0  0  0  0  0  0
  140.3540   74.8910  221.6280 C   0  0  0  0  0  0  0  0  0  0  0  0
  140.2370   76.2790  221.3120 N   0  0  0  0  0  0  0  0  0  0  0  0
  139.0310   76.9500  221.7750 C   0  0  0  0  0  0  0  0  0  0  0  0
  139.3090   78.3570  222.1600 C   0  0  0  0  0  0  0  0  0  0  0  0
  138.3790   79.2010  222.3740 O   0  0  0  0  0  0  0  0  0  0  0  0
  140.6630   78.7460  222.2870 N   0  0  0  0  0  0  0  0  0  0  0  0
  141.6410   78.3320  223.3040 C   0  0  0  0  0  0  0  0  0  0  0  0
  142.2950   79.6880  223.5790 C   0  0  2  0  0  0  0  0  0  0  0  0
  141.3000   80.4960  224.1480 O   0  0  0  0  0  0  0  0  0  0  0  0
  142.5740   80.1410  222.1610 C   0  0  0  0  0  0  0  0  0  0  0  0
  141.3730   79.6590  221.4110 C   0  0  1  0  0  0  0  0  0  0  0  0
  141.7510   78.8590  220.2040 C   0  0  0  0  0  0  0  0  0  0  0  0
  142.4100   77.6980  220.3600 N   0  0  0  0  0  0  0  0  0  0  0  0
  142.7700   76.9430  219.2850 C   0  0  0  0  0  0  0  0  0  0  0  0
  142.4270   77.4260  218.0260 C   0  0  0  0  0  0  0  0  0  0  0  0
  142.8940   76.4470  216.6360 Cl  0  0  0  0  0  0  0  0  0  0  0  0
  141.7510   78.6160  217.8490 C   0  0  0  0  0  0  0  0  0  0  0  0
  141.4240   79.3160  218.9730 N   0  0  0  0  0  0  0  0  0  0  0  0
  141.5230   74.1210  221.2120 C   0  0  0  0  0  0  0  0  0  0  0  0
  141.3490   72.7670  220.9920 C   0  0  0  0  0  0  0  0  0  0  0  0
  142.4060   71.9490  220.5920 C   0  0  0  0  0  0  0  0  0  0  0  0
  143.6440   72.5730  220.4270 C   0  0  0  0  0  0  0  0  0  0  0  0
  144.7190   71.7900  220.0310 C   0  0  0  0  0  0  0  0  0  0  0  0
  145.9590   72.4020  219.8630 C   0  0  0  0  0  0  0  0  0  0  0  0
  146.1240   73.7700  220.0880 C   0  0  0  0  0  0  0  0  0  0  0  0
  145.0270   74.5160  220.4830 C   0  0  0  0  0  0  0  0  0  0  0  0
  143.7980   73.9300  220.6530 C   0  0  0  0  0  0  0  0  0  0  0  0
  142.7280   74.6820  221.0430 N   0  0  0  0  0  0  0  0  0  0  0  0
  140.9630   76.7840  220.7840 H   0  0  0  0  0  0  0  0  0  0  0  0
  138.2837   76.9406  220.9679 H   0  0  0  0  0  0  0  0  0  0  0  0
  138.6554   76.4161  222.6603 H   0  0  0  0  0  0  0  0  0  0  0  0
  141.1539   77.9204  224.2003 H   0  0  0  0  0  0  0  0  0  0  0  0
  142.3289   77.5301  222.9979 H   0  0  0  0  0  0  0  0  0  0  0  0
  143.1768   79.6980  224.2364 H   0  0  0  0  0  0  0  0  0  0  0  0
  140.4030   80.3180  223.7830 H   0  0  0  0  0  0  0  0  0  0  0  0
  142.6613   81.2361  222.1058 H   0  0  0  0  0  0  0  0  0  0  0  0
  143.5209   79.7507  221.7598 H   0  0  0  0  0  0  0  0  0  0  0  0
  140.7840   80.5345  221.1003 H   0  0  0  0  0  0  0  0  0  0  0  0
  143.3090   75.9919  219.4070 H   0  0  0  0  0  0  0  0  0  0  0  0
  141.4877   78.9836  216.8462 H   0  0  0  0  0  0  0  0  0  0  0  0
  140.3525   72.3239  221.1359 H   0  0  0  0  0  0  0  0  0  0  0  0
  142.2714   70.8715  220.4162 H   0  0  0  0  0  0  0  0  0  0  0  0
  144.5949   70.7115  219.8539 H   0  0  0  0  0  0  0  0  0  0  0  0
  146.8224   71.7976  219.5479 H   0  0  0  0  0  0  0  0  0  0  0  0
  147.1067   74.2457  219.9540 H   0  0  0  0  0  0  0  0  0  0  0  0
  145.1422   75.5950  220.6634 H   0  0  0  0  0  0  0  0  0  0  0  0
  1  2  2  0
  2  3  1  0
  3  4  1  0
  4  5  1  0
  5  6  2  0
  5  7  1  0
  7  8  1  0
  8  9  1  0
  9 10  1  0
  9 11  1  0
 11 12  1  0
 12 13  1  0
 13 14  2  0
 14 15  1  0
 15 16  2  0
 16 17  1  0
 16 18  1  0
 18 19  2  0
  2 20  1  0
 20 21  2  0
 21 22  1  0
 22 23  2  0
 23 24  1  0
 24 25  2  0
 25 26  1  0
 26 27  2  0
 27 28  1  0
 28 29  2  0
 12  7  1  0
 19 13  1  0
 29 20  1  0
 28 23  1  0
  3 30  1  0
  4 31  1  0
  4 32  1  0
  8 33  1  0
  8 34  1  0
  9 35  1  1
 10 36  1  0
 11 37  1  0
 11 38  1  0
 12 39  1  6
 15 40  1  0
 18 41  1  0
 21 42  1  0
 22 43  1  0
 24 44  1  0
 25 45  1  0
 26 46  1  0
 27 47  1  0
M  END
>  <smiles>  (28) 
O=C(NCC(=O)N1C[C@H](O)C[C@H]1c1ncc(Cl)cn1)c1ccc2ccccc2n1

>  <score_type>  (28) 
oracle

>  <origin>  (28) 
autodockgpu

>  <m_score__min__energy>  (28) 
-8.1999999999999993

>  <m_primary>  (28) 
energy

>  <rmsd>  (28) 
6.040636951128725

>  <m_score__min__rmsd>  (28) 
6.040636951128725

>  <meeko>  (28) 
{"free_energy": -6.06, "intermolecular_energy": -7.85, "internal_energy": -3.07, "cluster_size": 5, "cluster_id": 8, "rank_in_cluster": 3}

>  <energy>  (28) 
-6.37

>  <cluster_rmsd>  (28) 
0.95

>  <cluster>  (28) 
5

$$$$

     RDKit          3D

 47 50  0  0  0  0  0  0  0  0999 V2000
  138.1130   70.3810  221.6870 O   0  0  0  0  0  0  0  0  0  0  0  0
  138.4680   71.1740  222.6170 C   0  0  0  0  0  0  0  0  0  0  0  0
  138.3100   72.5720  222.3690 N   0  0  0  0  0  0  0  0  0  0  0  0
  137.7580   72.9420  221.0740 C   0  0  0  0  0  0  0  0  0  0  0  0
  138.5640   72.3780  219.9610 C   0  0  0  0  0  0  0  0  0  0  0  0
  138.0360   71.9690  218.8770 O   0  0  0  0  0  0  0  0  0  0  0  0
  139.9660   72.3050  220.1400 N   0  0  0  0  0  0  0  0  0  0  0  0
  140.9900   71.8990  219.1680 C   0  0  0  0  0  0  0  0  0  0  0  0
  141.8620   71.0320  220.0800 C   0  0  2  0  0  0  0  0  0  0  0  0
  141.0700   69.9360  220.4520 O   0  0  0  0  0  0  0  0  0  0  0  0
  142.0270   71.9690  221.2570 C   0  0  0  0  0  0  0  0  0  0  0  0
  140.6870   72.6250  221.3570 C   0  0  1  0  0  0  0  0  0  0  0  0
  140.7950   74.1170  221.3900 C   0  0  0  0  0  0  0  0  0  0  0  0
  141.6930   74.7330  220.6010 N   0  0  0  0  0  0  0  0  0  0  0  0
  141.8190   76.0890  220.6040 C   0  0  0  0  0  0  0  0  0  0  0  0
  140.9820   76.8030  221.4550 C   0  0  0  0  0  0  0  0  0  0  0  0
  141.1480   78.5580  221.4570 Cl  0  0  0  0  0  0  0  0  0  0  0  0
  140.0560   76.1870  222.2710 C   0  0  0  0  0  0  0  0  0  0  0  0
  139.9870   74.8250  222.2130 N   0  0  0  0  0  0  0  0  0  0  0  0
  139.0120   70.6920  223.8830 C   0  0  0  0  0  0  0  0  0  0  0  0
  138.9230   69.3360  224.1410 C   0  0  0  0  0  0  0  0  0  0  0  0
  139.4140   68.7820  225.3230 C   0  0  0  0  0  0  0  0  0  0  0  0
  140.0000   69.6700  226.2260 C   0  0  0  0  0  0  0  0  0  0  0  0
  140.5000   69.1530  227.4130 C   0  0  0  0  0  0  0  0  0  0  0  0
  141.0870   70.0300  228.3230 C   0  0  0  0  0  0  0  0  0  0  0  0
  141.1730   71.3980  228.0540 C   0  0  0  0  0  0  0  0  0  0  0  0
  140.6610   71.8720  226.8580 C   0  0  0  0  0  0  0  0  0  0  0  0
  140.0810   71.0240  225.9500 C   0  0  0  0  0  0  0  0  0  0  0  0
  139.5830   71.5110  224.7770 N   0  0  0  0  0  0  0  0  0  0  0  0
  138.5700   73.2850  223.0660 H   0  0  0  0  0  0  0  0  0  0  0  0
  136.7293   72.5594  221.0008 H   0  0  0  0  0  0  0  0  0  0  0  0
  137.7729   74.0388  220.9915 H   0  0  0  0  0  0  0  0  0  0  0  0
  140.5618   71.3204  218.3362 H   0  0  0  0  0  0  0  0  0  0  0  0
  141.5124   72.7239  218.6613 H   0  0  0  0  0  0  0  0  0  0  0  0
  142.8103   70.6584  219.6663 H   0  0  0  0  0  0  0  0  0  0  0  0
  140.1630   70.1930  220.7330 H   0  0  0  0  0  0  0  0  0  0  0  0
  142.2637   71.4118  222.1754 H   0  0  0  0  0  0  0  0  0  0  0  0
  142.8513   72.6858  221.1275 H   0  0  0  0  0  0  0  0  0  0  0  0
  140.1967   72.2735  222.2768 H   0  0  0  0  0  0  0  0  0  0  0  0
  142.5517   76.5981  219.9606 H   0  0  0  0  0  0  0  0  0  0  0  0
  139.4023   76.7675  222.9387 H   0  0  0  0  0  0  0  0  0  0  0  0
  138.4531   68.6780  223.3952 H   0  0  0  0  0  0  0  0  0  0  0  0
  139.3432   67.7043  225.5320 H   0  0  0  0  0  0  0  0  0  0  0  0
  140.4345   68.0767  227.6302 H   0  0  0  0  0  0  0  0  0  0  0  0
  141.4894   69.6385  229.2689 H   0  0  0  0  0  0  0  0  0  0  0  0
  141.6377   72.0843  228.7772 H   0  0  0  0  0  0  0  0  0  0  0  0
  140.7206   72.9470  226.6325 H   0  0  0  0  0  0  0  0  0  0  0  0
  1  2  2  0
  2  3  1  0
  3  4  1  0
  4  5  1  0
  5  6  2  0
  5  7  1  0
  7  8  1  0
  8  9  1  0
  9 10  1  0
  9 11  1  0
 11 12  1  0
 12 13  1  0
 13 14  2  0
 14 15  1  0
 15 16  2  0
 16 17  1  0
 16 18  1  0
 18 19  2  0
  2 20  1  0
 20 21  2  0
 21 22  1  0
 22 23  2  0
 23 24  1  0
 24 25  2  0
 25 26  1  0
 26 27  2  0
 27 28  1  0
 28 29  2  0
 12  7  1  0
 19 13  1  0
 29 20  1  0
 28 23  1  0
  3 30  1  0
  4 31  1  0
  4 32  1  0
  8 33  1  0
  8 34  1  0
  9 35  1  6
 10 36  1  0
 11 37  1  0
 11 38  1  0
 12 39  1  1
 15 40  1  0
 18 41  1  0
 21 42  1  0
 22 43  1  0
 24 44  1  0
 25 45  1  0
 26 46  1  0
 27 47  1  0
M  END
>  <smiles>  (29) 
O=C(NCC(=O)N1C[C@H](O)C[C@H]1c1ncc(Cl)cn1)c1ccc2ccccc2n1

>  <score_type>  (29) 
oracle

>  <origin>  (29) 
autodockgpu

>  <m_score__min__energy>  (29) 
-8.1999999999999993

>  <m_primary>  (29) 
energy

>  <rmsd>  (29) 
3.394156346138399

>  <m_score__min__rmsd>  (29) 
3.394156346138399

>  <meeko>  (29) 
{"free_energy": -6.81, "intermolecular_energy": -8.59, "internal_energy": -2.52, "cluster_size": 6, "cluster_id": 7, "rank_in_cluster": 2}

>  <energy>  (29) 
-6.32

>  <cluster_rmsd>  (29) 
0.96

>  <cluster>  (29) 
5

$$$$

     RDKit          3D

 47 50  0  0  0  0  0  0  0  0999 V2000
  138.9070   75.2140  222.1460 O   0  0  0  0  0  0  0  0  0  0  0  0
  140.0530   75.7660  222.1650 C   0  0  0  0  0  0  0  0  0  0  0  0
  141.1710   74.9470  221.8180 N   0  0  0  0  0  0  0  0  0  0  0  0
  140.8780   73.5610  221.4790 C   0  0  0  0  0  0  0  0  0  0  0  0
  141.3350   73.2330  220.1040 C   0  0  0  0  0  0  0  0  0  0  0  0
  140.5470   72.7690  219.2170 O   0  0  0  0  0  0  0  0  0  0  0  0
  142.6990   73.4540  219.7970 N   0  0  0  0  0  0  0  0  0  0  0  0
  143.5640   72.6930  218.8840 C   0  0  0  0  0  0  0  0  0  0  0  0
  144.8290   72.6310  219.7430 C   0  0  2  0  0  0  0  0  0  0  0  0
  144.5010   71.8640  220.8700 O   0  0  0  0  0  0  0  0  0  0  0  0
  144.9560   74.0880  220.1340 C   0  0  0  0  0  0  0  0  0  0  0  0
  143.5350   74.5070  220.3420 C   0  0  1  0  0  0  0  0  0  0  0  0
  143.1960   75.7410  219.5680 C   0  0  0  0  0  0  0  0  0  0  0  0
  142.5030   76.7260  220.1650 N   0  0  0  0  0  0  0  0  0  0  0  0
  142.1770   77.8650  219.4920 C   0  0  0  0  0  0  0  0  0  0  0  0
  142.5920   77.9610  218.1680 C   0  0  0  0  0  0  0  0  0  0  0  0
  142.1680   79.4360  217.3000 Cl  0  0  0  0  0  0  0  0  0  0  0  0
  143.3040   76.9600  217.5410 C   0  0  0  0  0  0  0  0  0  0  0  0
  143.5940   75.8500  218.2790 N   0  0  0  0  0  0  0  0  0  0  0  0
  140.2330   77.1700  222.5220 C   0  0  0  0  0  0  0  0  0  0  0  0
  139.0950   77.9440  222.6600 C   0  0  0  0  0  0  0  0  0  0  0  0
  139.1650   79.2950  222.9990 C   0  0  0  0  0  0  0  0  0  0  0  0
  140.4440   79.8200  223.1900 C   0  0  0  0  0  0  0  0  0  0  0  0
  140.5530   81.1610  223.5280 C   0  0  0  0  0  0  0  0  0  0  0  0
  141.8250   81.6960  223.7220 C   0  0  0  0  0  0  0  0  0  0  0  0
  142.9680   80.9070  223.5800 C   0  0  0  0  0  0  0  0  0  0  0  0
  142.8160   79.5730  223.2420 C   0  0  0  0  0  0  0  0  0  0  0  0
  141.5720   79.0290  223.0480 C   0  0  0  0  0  0  0  0  0  0  0  0
  141.4440   77.7120  222.7150 N   0  0  0  0  0  0  0  0  0  0  0  0
  142.1350   75.3100  221.8060 H   0  0  0  0  0  0  0  0  0  0  0  0
  141.3911   72.9011  222.1940 H   0  0  0  0  0  0  0  0  0  0  0  0
  139.7888   73.4149  221.5268 H   0  0  0  0  0  0  0  0  0  0  0  0
  143.1601   71.6919  218.6727 H   0  0  0  0  0  0  0  0  0  0  0  0
  143.6943   73.1305  217.8832 H   0  0  0  0  0  0  0  0  0  0  0  0
  145.7329   72.2090  219.2795 H   0  0  0  0  0  0  0  0  0  0  0  0
  144.5200   70.8950  220.6960 H   0  0  0  0  0  0  0  0  0  0  0  0
  145.5403   74.1993  221.0593 H   0  0  0  0  0  0  0  0  0  0  0  0
  145.4804   74.6943  219.3807 H   0  0  0  0  0  0  0  0  0  0  0  0
  143.3823   74.6950  221.4150 H   0  0  0  0  0  0  0  0  0  0  0  0
  141.6098   78.6741  219.9752 H   0  0  0  0  0  0  0  0  0  0  0  0
  143.6238   77.0526  216.4926 H   0  0  0  0  0  0  0  0  0  0  0  0
  138.1098   77.4823  222.4983 H   0  0  0  0  0  0  0  0  0  0  0  0
  138.2617   79.9129  223.1097 H   0  0  0  0  0  0  0  0  0  0  0  0
  139.6559   81.7876  223.6403 H   0  0  0  0  0  0  0  0  0  0  0  0
  141.9302   82.7573  223.9914 H   0  0  0  0  0  0  0  0  0  0  0  0
  143.9690   81.3365  223.7335 H   0  0  0  0  0  0  0  0  0  0  0  0
  143.7076   78.9390  223.1272 H   0  0  0  0  0  0  0  0  0  0  0  0
  1  2  2  0
  2  3  1  0
  3  4  1  0
  4  5  1  0
  5  6  2  0
  5  7  1  0
  7  8  1  0
  8  9  1  0
  9 10  1  0
  9 11  1  0
 11 12  1  0
 12 13  1  0
 13 14  2  0
 14 15  1  0
 15 16  2  0
 16 17  1  0
 16 18  1  0
 18 19  2  0
  2 20  1  0
 20 21  2  0
 21 22  1  0
 22 23  2  0
 23 24  1  0
 24 25  2  0
 25 26  1  0
 26 27  2  0
 27 28  1  0
 28 29  2  0
 12  7  1  0
 19 13  1  0
 29 20  1  0
 28 23  1  0
  3 30  1  0
  4 31  1  0
  4 32  1  0
  8 33  1  0
  8 34  1  0
  9 35  1  6
 10 36  1  0
 11 37  1  0
 11 38  1  0
 12 39  1  1
 15 40  1  0
 18 41  1  0
 21 42  1  0
 22 43  1  0
 24 44  1  0
 25 45  1  0
 26 46  1  0
 27 47  1  0
M  END
>  <smiles>  (30) 
O=C(NCC(=O)N1C[C@H](O)C[C@H]1c1ncc(Cl)cn1)c1ccc2ccccc2n1

>  <score_type>  (30) 
oracle

>  <origin>  (30) 
autodockgpu

>  <m_score__min__energy>  (30) 
-8.1999999999999993

>  <m_primary>  (30) 
energy

>  <rmsd>  (30) 
7.308889692780771

>  <m_score__min__rmsd>  (30) 
7.308889692780771

>  <meeko>  (30) 
{"free_energy": -6.72, "intermolecular_energy": -8.51, "internal_energy": -2.61, "cluster_size": 6, "cluster_id": 6, "rank_in_cluster": 3}

>  <energy>  (30) 
-6.23

>  <cluster_rmsd>  (30) 
1.01

>  <cluster>  (30) 
5

$$$$

     RDKit          3D

 47 50  0  0  0  0  0  0  0  0999 V2000
  140.1320   73.4570  222.3190 O   0  0  0  0  0  0  0  0  0  0  0  0
  140.4860   72.2390  222.4200 C   0  0  0  0  0  0  0  0  0  0  0  0
  141.1000   71.6460  221.2750 N   0  0  0  0  0  0  0  0  0  0  0  0
  141.2550   72.5020  220.1080 C   0  0  0  0  0  0  0  0  0  0  0  0
  142.4690   72.1420  219.3300 C   0  0  0  0  0  0  0  0  0  0  0  0
  142.5150   71.1170  218.5760 O   0  0  0  0  0  0  0  0  0  0  0  0
  143.5980   72.9860  219.4510 N   0  0  0  0  0  0  0  0  0  0  0  0
  144.6750   73.2160  218.4780 C   0  0  0  0  0  0  0  0  0  0  0  0
  145.8730   73.1920  219.4300 C   0  0  2  0  0  0  0  0  0  0  0  0
  145.9390   71.8890  219.9440 O   0  0  0  0  0  0  0  0  0  0  0  0
  145.3800   74.1410  220.5010 C   0  0  0  0  0  0  0  0  0  0  0  0
  143.9240   73.8150  220.5970 C   0  0  1  0  0  0  0  0  0  0  0  0
  143.0670   75.0350  220.4780 C   0  0  0  0  0  0  0  0  0  0  0  0
  141.9620   75.1450  221.2360 N   0  0  0  0  0  0  0  0  0  0  0  0
  141.1590   76.2420  221.1550 C   0  0  0  0  0  0  0  0  0  0  0  0
  141.5310   77.2370  220.2560 C   0  0  0  0  0  0  0  0  0  0  0  0
  140.4890   78.6550  220.1530 Cl  0  0  0  0  0  0  0  0  0  0  0  0
  142.6610   77.1400  219.4710 C   0  0  0  0  0  0  0  0  0  0  0  0
  143.4170   76.0120  219.6080 N   0  0  0  0  0  0  0  0  0  0  0  0
  140.2810   71.4710  223.6450 C   0  0  0  0  0  0  0  0  0  0  0  0
  139.5970   70.2730  223.5410 C   0  0  0  0  0  0  0  0  0  0  0  0
  139.3530   69.4700  224.6550 C   0  0  0  0  0  0  0  0  0  0  0  0
  139.8370   69.9420  225.8760 C   0  0  0  0  0  0  0  0  0  0  0  0
  139.6120   69.1690  227.0060 C   0  0  0  0  0  0  0  0  0  0  0  0
  140.0910   69.6300  228.2310 C   0  0  0  0  0  0  0  0  0  0  0  0
  140.7800   70.8400  228.3270 C   0  0  0  0  0  0  0  0  0  0  0  0
  140.9820   71.5810  227.1750 C   0  0  0  0  0  0  0  0  0  0  0  0
  140.5190   71.1430  225.9600 C   0  0  0  0  0  0  0  0  0  0  0  0
  140.7290   71.8880  224.8370 N   0  0  0  0  0  0  0  0  0  0  0  0
  141.4180   70.6660  221.2680 H   0  0  0  0  0  0  0  0  0  0  0  0
  140.3707   72.3918  219.4631 H   0  0  0  0  0  0  0  0  0  0  0  0
  141.3595   73.5416  220.4521 H   0  0  0  0  0  0  0  0  0  0  0  0
  144.7297   72.4140  217.7271 H   0  0  0  0  0  0  0  0  0  0  0  0
  144.5743   74.1271  217.8699 H   0  0  0  0  0  0  0  0  0  0  0  0
  146.8552   73.4571  219.0116 H   0  0  0  0  0  0  0  0  0  0  0  0
  145.7640   71.8470  220.9120 H   0  0  0  0  0  0  0  0  0  0  0  0
  145.8902   73.9563  221.4579 H   0  0  0  0  0  0  0  0  0  0  0  0
  145.5723   75.1980  220.2647 H   0  0  0  0  0  0  0  0  0  0  0  0
  143.7405   73.3333  221.5688 H   0  0  0  0  0  0  0  0  0  0  0  0
  140.2547   76.3375  221.7740 H   0  0  0  0  0  0  0  0  0  0  0  0
  142.9405   77.9365  218.7657 H   0  0  0  0  0  0  0  0  0  0  0  0
  139.2364   69.9454  222.5547 H   0  0  0  0  0  0  0  0  0  0  0  0
  138.8091   68.5172  224.5756 H   0  0  0  0  0  0  0  0  0  0  0  0
  139.0686   68.2151  226.9367 H   0  0  0  0  0  0  0  0  0  0  0  0
  139.9232   69.0300  229.1376 H   0  0  0  0  0  0  0  0  0  0  0  0
  141.1547   71.1974  229.2975 H   0  0  0  0  0  0  0  0  0  0  0  0
  141.5228   72.5370  227.2349 H   0  0  0  0  0  0  0  0  0  0  0  0
  1  2  2  0
  2  3  1  0
  3  4  1  0
  4  5  1  0
  5  6  2  0
  5  7  1  0
  7  8  1  0
  8  9  1  0
  9 10  1  0
  9 11  1  0
 11 12  1  0
 12 13  1  0
 13 14  2  0
 14 15  1  0
 15 16  2  0
 16 17  1  0
 16 18  1  0
 18 19  2  0
  2 20  1  0
 20 21  2  0
 21 22  1  0
 22 23  2  0
 23 24  1  0
 24 25  2  0
 25 26  1  0
 26 27  2  0
 27 28  1  0
 28 29  2  0
 12  7  1  0
 19 13  1  0
 29 20  1  0
 28 23  1  0
  3 30  1  0
  4 31  1  0
  4 32  1  0
  8 33  1  0
  8 34  1  0
  9 35  1  6
 10 36  1  0
 11 37  1  0
 11 38  1  0
 12 39  1  1
 15 40  1  0
 18 41  1  0
 21 42  1  0
 22 43  1  0
 24 44  1  0
 25 45  1  0
 26 46  1  0
 27 47  1  0
M  END
>  <smiles>  (31) 
O=C(NCC(=O)N1C[C@H](O)C[C@H]1c1ncc(Cl)cn1)c1ccc2ccccc2n1

>  <score_type>  (31) 
oracle

>  <origin>  (31) 
autodockgpu

>  <m_score__min__energy>  (31) 
-8.1999999999999993

>  <m_primary>  (31) 
energy

>  <rmsd>  (31) 
3.7846901824502206

>  <m_score__min__rmsd>  (31) 
3.7846901824502206

>  <meeko>  (31) 
{"free_energy": -8.2, "intermolecular_energy": -9.99, "internal_energy": -1.44, "cluster_size": 7, "cluster_id": 1, "rank_in_cluster": 1}

>  <energy>  (31) 
-6.21

>  <cluster_rmsd>  (31) 
1.14

>  <cluster>  (31) 
5

$$$$

     RDKit          3D

 47 50  0  0  0  0  0  0  0  0999 V2000
  139.5680   74.6350  222.3430 O   0  0  0  0  0  0  0  0  0  0  0  0
  140.1040   75.5740  221.6710 C   0  0  0  0  0  0  0  0  0  0  0  0
  140.5690   75.2460  220.3610 N   0  0  0  0  0  0  0  0  0  0  0  0
  140.3820   73.8680  219.9320 C   0  0  0  0  0  0  0  0  0  0  0  0
  141.4810   72.9960  220.4200 C   0  0  0  0  0  0  0  0  0  0  0  0
  141.2730   72.0090  221.1990 O   0  0  0  0  0  0  0  0  0  0  0  0
  142.7950   73.2950  219.9880 N   0  0  0  0  0  0  0  0  0  0  0  0
  143.6540   72.5240  219.0780 C   0  0  0  0  0  0  0  0  0  0  0  0
  144.9790   72.6420  219.8350 C   0  0  2  0  0  0  0  0  0  0  0  0
  144.8000   71.9580  221.0460 O   0  0  0  0  0  0  0  0  0  0  0  0
  145.0080   74.1340  220.0900 C   0  0  0  0  0  0  0  0  0  0  0  0
  143.5750   74.4560  220.3730 C   0  0  1  0  0  0  0  0  0  0  0  0
  143.0760   75.5840  219.5260 C   0  0  0  0  0  0  0  0  0  0  0  0
  142.6950   75.3420  218.2590 N   0  0  0  0  0  0  0  0  0  0  0  0
  142.2350   76.3440  217.4590 C   0  0  0  0  0  0  0  0  0  0  0  0
  142.1800   77.6210  218.0090 C   0  0  0  0  0  0  0  0  0  0  0  0
  141.5850   78.9160  216.9710 Cl  0  0  0  0  0  0  0  0  0  0  0  0
  142.5670   77.8860  219.3060 C   0  0  0  0  0  0  0  0  0  0  0  0
  143.0150   76.8310  220.0470 N   0  0  0  0  0  0  0  0  0  0  0  0
  140.2410   76.9270  222.2010 C   0  0  0  0  0  0  0  0  0  0  0  0
  139.0840   77.5890  222.5700 C   0  0  0  0  0  0  0  0  0  0  0  0
  139.1140   78.8840  223.0860 C   0  0  0  0  0  0  0  0  0  0  0  0
  140.3740   79.4720  223.2110 C   0  0  0  0  0  0  0  0  0  0  0  0
  140.4420   80.7600  223.7210 C   0  0  0  0  0  0  0  0  0  0  0  0
  141.6940   81.3570  223.8500 C   0  0  0  0  0  0  0  0  0  0  0  0
  142.8570   80.6810  223.4750 C   0  0  0  0  0  0  0  0  0  0  0  0
  142.7450   79.3970  222.9700 C   0  0  0  0  0  0  0  0  0  0  0  0
  141.5210   78.7930  222.8370 C   0  0  0  0  0  0  0  0  0  0  0  0
  141.4320   77.5270  222.3370 N   0  0  0  0  0  0  0  0  0  0  0  0
  141.0150   75.9440  219.7470 H   0  0  0  0  0  0  0  0  0  0  0  0
  139.4262   73.4958  220.3293 H   0  0  0  0  0  0  0  0  0  0  0  0
  140.3826   73.8440  218.8323 H   0  0  0  0  0  0  0  0  0  0  0  0
  143.3236   71.4788  218.9866 H   0  0  0  0  0  0  0  0  0  0  0  0
  143.6733   72.8764  218.0361 H   0  0  0  0  0  0  0  0  0  0  0  0
  145.8799   72.2530  219.3380 H   0  0  0  0  0  0  0  0  0  0  0  0
  143.8580   71.7460  221.2350 H   0  0  0  0  0  0  0  0  0  0  0  0
  145.6452   74.3750  220.9537 H   0  0  0  0  0  0  0  0  0  0  0  0
  145.4232   74.7090  219.2492 H   0  0  0  0  0  0  0  0  0  0  0  0
  143.4846   74.7283  221.4349 H   0  0  0  0  0  0  0  0  0  0  0  0
  141.9205   76.1519  216.4226 H   0  0  0  0  0  0  0  0  0  0  0  0
  142.5168   78.9021  219.7245 H   0  0  0  0  0  0  0  0  0  0  0  0
  138.1154   77.0808  222.4534 H   0  0  0  0  0  0  0  0  0  0  0  0
  138.1952   79.4133  223.3786 H   0  0  0  0  0  0  0  0  0  0  0  0
  139.5289   81.2974  224.0166 H   0  0  0  0  0  0  0  0  0  0  0  0
  141.7677   82.3775  224.2538 H   0  0  0  0  0  0  0  0  0  0  0  0
  143.8422   81.1592  223.5788 H   0  0  0  0  0  0  0  0  0  0  0  0
  143.6525   78.8523  222.6705 H   0  0  0  0  0  0  0  0  0  0  0  0
  1  2  2  0
  2  3  1  0
  3  4  1  0
  4  5  1  0
  5  6  2  0
  5  7  1  0
  7  8  1  0
  8  9  1  0
  9 10  1  0
  9 11  1  0
 11 12  1  0
 12 13  1  0
 13 14  2  0
 14 15  1  0
 15 16  2  0
 16 17  1  0
 16 18  1  0
 18 19  2  0
  2 20  1  0
 20 21  2  0
 21 22  1  0
 22 23  2  0
 23 24  1  0
 24 25  2  0
 25 26  1  0
 26 27  2  0
 27 28  1  0
 28 29  2  0
 12  7  1  0
 19 13  1  0
 29 20  1  0
 28 23  1  0
  3 30  1  0
  4 31  1  0
  4 32  1  0
  8 33  1  0
  8 34  1  0
  9 35  1  6
 10 36  1  0
 11 37  1  0
 11 38  1  0
 12 39  1  1
 15 40  1  0
 18 41  1  0
 21 42  1  0
 22 43  1  0
 24 44  1  0
 25 45  1  0
 26 46  1  0
 27 47  1  0
M  END
>  <smiles>  (32) 
O=C(NCC(=O)N1C[C@H](O)C[C@H]1c1ncc(Cl)cn1)c1ccc2ccccc2n1

>  <score_type>  (32) 
oracle

>  <origin>  (32) 
autodockgpu

>  <m_score__min__energy>  (32) 
-8.1999999999999993

>  <m_primary>  (32) 
energy

>  <rmsd>  (32) 
7.228589381829377

>  <m_score__min__rmsd>  (32) 
7.228589381829377

>  <meeko>  (32) 
{"free_energy": -6.09, "intermolecular_energy": -7.88, "internal_energy": -3.08, "cluster_size": 6, "cluster_id": 6, "rank_in_cluster": 6}

>  <energy>  (32) 
-6.2

>  <cluster_rmsd>  (32) 
1.01

>  <cluster>  (32) 
5

$$$$

     RDKit          3D

 47 50  0  0  0  0  0  0  0  0999 V2000
  141.0020   72.3000  221.4050 O   0  0  0  0  0  0  0  0  0  0  0  0
  140.2170   72.5530  222.3740 C   0  0  0  0  0  0  0  0  0  0  0  0
  139.4640   73.7640  222.2970 N   0  0  0  0  0  0  0  0  0  0  0  0
  139.6780   74.5860  221.1140 C   0  0  0  0  0  0  0  0  0  0  0  0
  140.7870   75.5520  221.3200 C   0  0  0  0  0  0  0  0  0  0  0  0
  142.0080   75.1920  221.3450 O   0  0  0  0  0  0  0  0  0  0  0  0
  140.4440   76.9150  221.4900 N   0  0  0  0  0  0  0  0  0  0  0  0
  140.6140   78.0240  220.5420 C   0  0  0  0  0  0  0  0  0  0  0  0
  141.1260   79.0950  221.5080 C   0  0  2  0  0  0  0  0  0  0  0  0
  142.3700   78.6430  221.9710 O   0  0  0  0  0  0  0  0  0  0  0  0
  140.0950   78.9720  222.6100 C   0  0  0  0  0  0  0  0  0  0  0  0
  139.8410   77.5000  222.6730 C   0  0  1  0  0  0  0  0  0  0  0  0
  138.3830   77.1790  222.5910 C   0  0  0  0  0  0  0  0  0  0  0  0
  137.5440   78.0530  222.0070 N   0  0  0  0  0  0  0  0  0  0  0  0
  136.2100   77.7940  221.9140 C   0  0  0  0  0  0  0  0  0  0  0  0
  135.7570   76.5920  222.4490 C   0  0  0  0  0  0  0  0  0  0  0  0
  134.0300   76.2600  222.3270 Cl  0  0  0  0  0  0  0  0  0  0  0  0
  136.6040   75.6840  223.0510 C   0  0  0  0  0  0  0  0  0  0  0  0
  137.9270   76.0130  223.1060 N   0  0  0  0  0  0  0  0  0  0  0  0
  140.0800   71.6540  223.5170 C   0  0  0  0  0  0  0  0  0  0  0  0
  139.3550   70.4910  223.3310 C   0  0  0  0  0  0  0  0  0  0  0  0
  139.1700   69.5710  224.3630 C   0  0  0  0  0  0  0  0  0  0  0  0
  139.7560   69.8890  225.5890 C   0  0  0  0  0  0  0  0  0  0  0  0
  139.5920   68.9970  226.6390 C   0  0  0  0  0  0  0  0  0  0  0  0
  140.1740   69.3040  227.8670 C   0  0  0  0  0  0  0  0  0  0  0  0
  140.9040   70.4810  228.0450 C   0  0  0  0  0  0  0  0  0  0  0  0
  141.0430   71.3440  226.9720 C   0  0  0  0  0  0  0  0  0  0  0  0
  140.4790   71.0580  225.7550 C   0  0  0  0  0  0  0  0  0  0  0  0
  140.6280   71.9220  224.7100 N   0  0  0  0  0  0  0  0  0  0  0  0
  138.8040   74.0480  223.0360 H   0  0  0  0  0  0  0  0  0  0  0  0
  139.9252   73.9329  220.2641 H   0  0  0  0  0  0  0  0  0  0  0  0
  138.7568   75.1532  220.9147 H   0  0  0  0  0  0  0  0  0  0  0  0
  141.3513   77.7882  219.7605 H   0  0  0  0  0  0  0  0  0  0  0  0
  139.7151   78.2966  219.9696 H   0  0  0  0  0  0  0  0  0  0  0  0
  141.2446   80.1149  221.1134 H   0  0  0  0  0  0  0  0  0  0  0  0
  142.5160   77.6830  221.8110 H   0  0  0  0  0  0  0  0  0  0  0  0
  140.4917   79.3456  223.5655 H   0  0  0  0  0  0  0  0  0  0  0  0
  139.1853   79.5602  222.4190 H   0  0  0  0  0  0  0  0  0  0  0  0
  140.2463   77.1186  223.6218 H   0  0  0  0  0  0  0  0  0  0  0  0
  135.5200   78.5050  221.4362 H   0  0  0  0  0  0  0  0  0  0  0  0
  136.2294   74.7375  223.4678 H   0  0  0  0  0  0  0  0  0  0  0  0
  138.9132   70.2864  222.3446 H   0  0  0  0  0  0  0  0  0  0  0  0
  138.5936   68.6453  224.2184 H   0  0  0  0  0  0  0  0  0  0  0  0
  139.0161   68.0694  226.5051 H   0  0  0  0  0  0  0  0  0  0  0  0
  140.0565   68.6077  228.7104 H   0  0  0  0  0  0  0  0  0  0  0  0
  141.3593   70.7174  229.0181 H   0  0  0  0  0  0  0  0  0  0  0  0
  141.6154   72.2749  227.0974 H   0  0  0  0  0  0  0  0  0  0  0  0
  1  2  2  0
  2  3  1  0
  3  4  1  0
  4  5  1  0
  5  6  2  0
  5  7  1  0
  7  8  1  0
  8  9  1  0
  9 10  1  0
  9 11  1  0
 11 12  1  0
 12 13  1  0
 13 14  2  0
 14 15  1  0
 15 16  2  0
 16 17  1  0
 16 18  1  0
 18 19  2  0
  2 20  1  0
 20 21  2  0
 21 22  1  0
 22 23  2  0
 23 24  1  0
 24 25  2  0
 25 26  1  0
 26 27  2  0
 27 28  1  0
 28 29  2  0
 12  7  1  0
 19 13  1  0
 29 20  1  0
 28 23  1  0
  3 30  1  0
  4 31  1  0
  4 32  1  0
  8 33  1  0
  8 34  1  0
  9 35  1  6
 10 36  1  0
 11 37  1  0
 11 38  1  0
 12 39  1  1
 15 40  1  0
 18 41  1  0
 21 42  1  0
 22 43  1  0
 24 44  1  0
 25 45  1  0
 26 46  1  0
 27 47  1  0
M  END
>  <smiles>  (33) 
O=C(NCC(=O)N1C[C@H](O)C[C@H]1c1ncc(Cl)cn1)c1ccc2ccccc2n1

>  <score_type>  (33) 
oracle

>  <origin>  (33) 
autodockgpu

>  <m_score__min__energy>  (33) 
-8.1999999999999993

>  <m_primary>  (33) 
energy

>  <rmsd>  (33) 
3.506006555479537

>  <m_score__min__rmsd>  (33) 
3.506006555479537

>  <meeko>  (33) 
{"free_energy": -7.28, "intermolecular_energy": -9.07, "internal_energy": -2.29, "cluster_size": 2, "cluster_id": 4, "rank_in_cluster": 1}

>  <energy>  (33) 
-6.95

>  <cluster_rmsd>  (33) 
0.0

>  <cluster>  (33) 
6

$$$$

     RDKit          3D

 47 50  0  0  0  0  0  0  0  0999 V2000
  141.4780   71.5650  222.1210 O   0  0  0  0  0  0  0  0  0  0  0  0
  140.5590   71.8010  222.9690 C   0  0  0  0  0  0  0  0  0  0  0  0
  139.5400   72.7220  222.5790 N   0  0  0  0  0  0  0  0  0  0  0  0
  139.6630   73.2980  221.2470 C   0  0  0  0  0  0  0  0  0  0  0  0
  140.6440   74.4120  221.2270 C   0  0  0  0  0  0  0  0  0  0  0  0
  140.5330   75.4300  221.9850 O   0  0  0  0  0  0  0  0  0  0  0  0
  141.7300   74.3130  220.3250 N   0  0  0  0  0  0  0  0  0  0  0  0
  141.8530   73.4600  219.1350 C   0  0  0  0  0  0  0  0  0  0  0  0
  143.2970   72.9900  219.3200 C   0  0  2  0  0  0  0  0  0  0  0  0
  143.3100   72.2150  220.4890 O   0  0  0  0  0  0  0  0  0  0  0  0
  143.9770   74.3170  219.5780 C   0  0  0  0  0  0  0  0  0  0  0  0
  142.9730   75.0570  220.4030 C   0  0  1  0  0  0  0  0  0  0  0  0
  142.6770   76.4120  219.8440 C   0  0  0  0  0  0  0  0  0  0  0  0
  143.1270   76.7350  218.6190 N   0  0  0  0  0  0  0  0  0  0  0  0
  142.8760   77.9590  218.0760 C   0  0  0  0  0  0  0  0  0  0  0  0
  142.1380   78.8540  218.8440 C   0  0  0  0  0  0  0  0  0  0  0  0
  141.8150   80.4380  218.1400 Cl  0  0  0  0  0  0  0  0  0  0  0  0
  141.6690   78.5390  220.1030 C   0  0  0  0  0  0  0  0  0  0  0  0
  141.9590   77.2940  220.5780 N   0  0  0  0  0  0  0  0  0  0  0  0
  140.5340   71.1650  224.2830 C   0  0  0  0  0  0  0  0  0  0  0  0
  141.0370   71.8850  225.3510 C   0  0  0  0  0  0  0  0  0  0  0  0
  141.0560   71.3620  226.6430 C   0  0  0  0  0  0  0  0  0  0  0  0
  140.5390   70.0750  226.7980 C   0  0  0  0  0  0  0  0  0  0  0  0
  140.5410   69.5220  228.0710 C   0  0  0  0  0  0  0  0  0  0  0  0
  140.0270   68.2380  228.2370 C   0  0  0  0  0  0  0  0  0  0  0  0
  139.5210   67.5180  227.1530 C   0  0  0  0  0  0  0  0  0  0  0  0
  139.5370   68.1060  225.9000 C   0  0  0  0  0  0  0  0  0  0  0  0
  140.0380   69.3690  225.7170 C   0  0  0  0  0  0  0  0  0  0  0  0
  140.0460   69.9310  224.4740 N   0  0  0  0  0  0  0  0  0  0  0  0
  138.7580   72.9720  223.2010 H   0  0  0  0  0  0  0  0  0  0  0  0
  139.9951   72.5161  220.5482 H   0  0  0  0  0  0  0  0  0  0  0  0
  138.6814   73.6958  220.9499 H   0  0  0  0  0  0  0  0  0  0  0  0
  141.1414   72.6214  219.1542 H   0  0  0  0  0  0  0  0  0  0  0  0
  141.6374   73.9544  218.1763 H   0  0  0  0  0  0  0  0  0  0  0  0
  143.7459   72.4057  218.5032 H   0  0  0  0  0  0  0  0  0  0  0  0
  142.4200   72.1140  220.8950 H   0  0  0  0  0  0  0  0  0  0  0  0
  144.9175   74.1779  220.1313 H   0  0  0  0  0  0  0  0  0  0  0  0
  144.2544   74.8477  218.6553 H   0  0  0  0  0  0  0  0  0  0  0  0
  143.3721   75.1627  221.4226 H   0  0  0  0  0  0  0  0  0  0  0  0
  143.2410   78.2280  217.0738 H   0  0  0  0  0  0  0  0  0  0  0  0
  141.0875   79.2597  220.6967 H   0  0  0  0  0  0  0  0  0  0  0  0
  141.4324   72.8966  225.1766 H   0  0  0  0  0  0  0  0  0  0  0  0
  141.4566   71.9325  227.4939 H   0  0  0  0  0  0  0  0  0  0  0  0
  140.9390   70.0843  228.9285 H   0  0  0  0  0  0  0  0  0  0  0  0
  140.0196   67.7837  229.2388 H   0  0  0  0  0  0  0  0  0  0  0  0
  139.1178   66.5040  227.2919 H   0  0  0  0  0  0  0  0  0  0  0  0
  139.1412   67.5508  225.0368 H   0  0  0  0  0  0  0  0  0  0  0  0
  1  2  2  0
  2  3  1  0
  3  4  1  0
  4  5  1  0
  5  6  2  0
  5  7  1  0
  7  8  1  0
  8  9  1  0
  9 10  1  0
  9 11  1  0
 11 12  1  0
 12 13  1  0
 13 14  2  0
 14 15  1  0
 15 16  2  0
 16 17  1  0
 16 18  1  0
 18 19  2  0
  2 20  1  0
 20 21  2  0
 21 22  1  0
 22 23  2  0
 23 24  1  0
 24 25  2  0
 25 26  1  0
 26 27  2  0
 27 28  1  0
 28 29  2  0
 12  7  1  0
 19 13  1  0
 29 20  1  0
 28 23  1  0
  3 30  1  0
  4 31  1  0
  4 32  1  0
  8 33  1  0
  8 34  1  0
  9 35  1  6
 10 36  1  0
 11 37  1  0
 11 38  1  0
 12 39  1  1
 15 40  1  0
 18 41  1  0
 21 42  1  0
 22 43  1  0
 24 44  1  0
 25 45  1  0
 26 46  1  0
 27 47  1  0
M  END
>  <smiles>  (34) 
O=C(NCC(=O)N1C[C@H](O)C[C@H]1c1ncc(Cl)cn1)c1ccc2ccccc2n1

>  <score_type>  (34) 
oracle

>  <origin>  (34) 
autodockgpu

>  <m_score__min__energy>  (34) 
-8.1999999999999993

>  <m_primary>  (34) 
energy

>  <rmsd>  (34) 
3.483870472432597

>  <m_score__min__rmsd>  (34) 
3.483870472432597

>  <meeko>  (34) 
{"free_energy": -7.44, "intermolecular_energy": -9.23, "internal_energy": -2.14, "cluster_size": 7, "cluster_id": 1, "rank_in_cluster": 4}

>  <energy>  (34) 
-6.91

>  <cluster_rmsd>  (34) 
0.63

>  <cluster>  (34) 
6

$$$$

     RDKit          3D

 47 50  0  0  0  0  0  0  0  0999 V2000
  138.1360   70.3860  221.6790 O   0  0  0  0  0  0  0  0  0  0  0  0
  138.4770   71.1810  222.6130 C   0  0  0  0  0  0  0  0  0  0  0  0
  138.3090   72.5780  222.3670 N   0  0  0  0  0  0  0  0  0  0  0  0
  137.7640   72.9460  221.0680 C   0  0  0  0  0  0  0  0  0  0  0  0
  138.5750   72.3790  219.9610 C   0  0  0  0  0  0  0  0  0  0  0  0
  138.0510   71.9630  218.8760 O   0  0  0  0  0  0  0  0  0  0  0  0
  139.9760   72.3110  220.1440 N   0  0  0  0  0  0  0  0  0  0  0  0
  141.0060   71.9150  219.1730 C   0  0  0  0  0  0  0  0  0  0  0  0
  141.8780   71.0470  220.0830 C   0  0  2  0  0  0  0  0  0  0  0  0
  141.0900   69.9450  220.4470 O   0  0  0  0  0  0  0  0  0  0  0  0
  142.0350   71.9770  221.2670 C   0  0  0  0  0  0  0  0  0  0  0  0
  140.6920   72.6270  221.3660 C   0  0  1  0  0  0  0  0  0  0  0  0
  140.7930   74.1190  221.4070 C   0  0  0  0  0  0  0  0  0  0  0  0
  139.9890   74.8150  222.2300 N   0  0  0  0  0  0  0  0  0  0  0  0
  140.0540   76.1740  222.2950 C   0  0  0  0  0  0  0  0  0  0  0  0
  140.9840   76.8050  221.4760 C   0  0  0  0  0  0  0  0  0  0  0  0
  141.0650   78.5640  221.5620 Cl  0  0  0  0  0  0  0  0  0  0  0  0
  141.8170   76.1060  220.6260 C   0  0  0  0  0  0  0  0  0  0  0  0
  141.6940   74.7480  220.6170 N   0  0  0  0  0  0  0  0  0  0  0  0
  139.0150   70.7000  223.8820 C   0  0  0  0  0  0  0  0  0  0  0  0
  138.8970   69.3500  224.1550 C   0  0  0  0  0  0  0  0  0  0  0  0
  139.3810   68.7980  225.3410 C   0  0  0  0  0  0  0  0  0  0  0  0
  139.9900   69.6830  226.2330 C   0  0  0  0  0  0  0  0  0  0  0  0
  140.4830   69.1690  227.4240 C   0  0  0  0  0  0  0  0  0  0  0  0
  141.0930   70.0420  228.3210 C   0  0  0  0  0  0  0  0  0  0  0  0
  141.2070   71.4040  228.0370 C   0  0  0  0  0  0  0  0  0  0  0  0
  140.7020   71.8770  226.8380 C   0  0  0  0  0  0  0  0  0  0  0  0
  140.0990   71.0320  225.9410 C   0  0  0  0  0  0  0  0  0  0  0  0
  139.6070   71.5170  224.7650 N   0  0  0  0  0  0  0  0  0  0  0  0
  138.5580   73.2920  223.0670 H   0  0  0  0  0  0  0  0  0  0  0  0
  136.7353   72.5643  220.9901 H   0  0  0  0  0  0  0  0  0  0  0  0
  137.7804   74.0426  220.9833 H   0  0  0  0  0  0  0  0  0  0  0  0
  140.5835   71.3393  218.3363 H   0  0  0  0  0  0  0  0  0  0  0  0
  141.5266   72.7451  218.6730 H   0  0  0  0  0  0  0  0  0  0  0  0
  142.8291   70.6806  219.6693 H   0  0  0  0  0  0  0  0  0  0  0  0
  140.1810   70.1970  220.7280 H   0  0  0  0  0  0  0  0  0  0  0  0
  142.2703   71.4147  222.1827 H   0  0  0  0  0  0  0  0  0  0  0  0
  142.8570   72.6978  221.1455 H   0  0  0  0  0  0  0  0  0  0  0  0
  140.2007   72.2682  222.2824 H   0  0  0  0  0  0  0  0  0  0  0  0
  139.3987   76.7479  222.9667 H   0  0  0  0  0  0  0  0  0  0  0  0
  142.5473   76.6212  219.9847 H   0  0  0  0  0  0  0  0  0  0  0  0
  138.4092   68.6946  223.4184 H   0  0  0  0  0  0  0  0  0  0  0  0
  139.2880   67.7243  225.5615 H   0  0  0  0  0  0  0  0  0  0  0  0
  140.3940   68.0970  227.6541 H   0  0  0  0  0  0  0  0  0  0  0  0
  141.4917   69.6520  229.2691 H   0  0  0  0  0  0  0  0  0  0  0  0
  141.6885   72.0877  228.7517 H   0  0  0  0  0  0  0  0  0  0  0  0
  140.7855   72.9478  226.6006 H   0  0  0  0  0  0  0  0  0  0  0  0
  1  2  2  0
  2  3  1  0
  3  4  1  0
  4  5  1  0
  5  6  2  0
  5  7  1  0
  7  8  1  0
  8  9  1  0
  9 10  1  0
  9 11  1  0
 11 12  1  0
 12 13  1  0
 13 14  2  0
 14 15  1  0
 15 16  2  0
 16 17  1  0
 16 18  1  0
 18 19  2  0
  2 20  1  0
 20 21  2  0
 21 22  1  0
 22 23  2  0
 23 24  1  0
 24 25  2  0
 25 26  1  0
 26 27  2  0
 27 28  1  0
 28 29  2  0
 12  7  1  0
 19 13  1  0
 29 20  1  0
 28 23  1  0
  3 30  1  0
  4 31  1  0
  4 32  1  0
  8 33  1  0
  8 34  1  0
  9 35  1  6
 10 36  1  0
 11 37  1  0
 11 38  1  0
 12 39  1  1
 15 40  1  0
 18 41  1  0
 21 42  1  0
 22 43  1  0
 24 44  1  0
 25 45  1  0
 26 46  1  0
 27 47  1  0
M  END
>  <smiles>  (35) 
O=C(NCC(=O)N1C[C@H](O)C[C@H]1c1ncc(Cl)cn1)c1ccc2ccccc2n1

>  <score_type>  (35) 
oracle

>  <origin>  (35) 
autodockgpu

>  <m_score__min__energy>  (35) 
-8.1999999999999993

>  <m_primary>  (35) 
energy

>  <rmsd>  (35) 
3.2919737955430204

>  <m_score__min__rmsd>  (35) 
3.2919737955430204

>  <meeko>  (35) 
{"free_energy": -6.82, "intermolecular_energy": -8.61, "internal_energy": -2.53, "cluster_size": 6, "cluster_id": 7, "rank_in_cluster": 1}

>  <energy>  (35) 
-6.72

>  <cluster_rmsd>  (35) 
1.04

>  <cluster>  (35) 
6

$$$$

     RDKit          3D

 47 50  0  0  0  0  0  0  0  0999 V2000
  139.7220   74.3170  222.3400 O   0  0  0  0  0  0  0  0  0  0  0  0
  140.2840   75.2440  221.6730 C   0  0  0  0  0  0  0  0  0  0  0  0
  140.9050   74.8690  220.4420 N   0  0  0  0  0  0  0  0  0  0  0  0
  140.8290   73.4610  220.0810 C   0  0  0  0  0  0  0  0  0  0  0  0
  142.0510   72.7290  220.5010 C   0  0  0  0  0  0  0  0  0  0  0  0
  142.0830   71.9980  221.5430 O   0  0  0  0  0  0  0  0  0  0  0  0
  143.2060   72.8660  219.6940 N   0  0  0  0  0  0  0  0  0  0  0  0
  143.6120   72.0580  218.5350 C   0  0  0  0  0  0  0  0  0  0  0  0
  145.1020   71.9120  218.8490 C   0  0  2  0  0  0  0  0  0  0  0  0
  145.1820   71.1600  220.0300 O   0  0  0  0  0  0  0  0  0  0  0  0
  145.4560   73.3560  219.1370 C   0  0  0  0  0  0  0  0  0  0  0  0
  144.2490   73.8610  219.8610 C   0  0  1  0  0  0  0  0  0  0  0  0
  143.7160   75.1190  219.2530 C   0  0  0  0  0  0  0  0  0  0  0  0
  143.3690   76.1450  220.0500 N   0  0  0  0  0  0  0  0  0  0  0  0
  142.8810   77.3060  219.5310 C   0  0  0  0  0  0  0  0  0  0  0  0
  142.7590   77.3820  218.1480 C   0  0  0  0  0  0  0  0  0  0  0  0
  142.1270   78.8860  217.4790 Cl  0  0  0  0  0  0  0  0  0  0  0  0
  143.1100   76.3390  217.3150 C   0  0  0  0  0  0  0  0  0  0  0  0
  143.5920   75.2080  217.9080 N   0  0  0  0  0  0  0  0  0  0  0  0
  140.3000   76.6300  222.1320 C   0  0  0  0  0  0  0  0  0  0  0  0
  139.0910   77.1980  222.4890 C   0  0  0  0  0  0  0  0  0  0  0  0
  139.0050   78.5150  222.9390 C   0  0  0  0  0  0  0  0  0  0  0  0
  140.2050   79.2250  223.0090 C   0  0  0  0  0  0  0  0  0  0  0  0
  140.1580   80.5390  223.4530 C   0  0  0  0  0  0  0  0  0  0  0  0
  141.3500   81.2560  223.5270 C   0  0  0  0  0  0  0  0  0  0  0  0
  142.5660   80.6750  223.1650 C   0  0  0  0  0  0  0  0  0  0  0  0
  142.5690   79.3610  222.7270 C   0  0  0  0  0  0  0  0  0  0  0  0
  141.4060   78.6380  222.6480 C   0  0  0  0  0  0  0  0  0  0  0  0
  141.4310   77.3460  222.2140 N   0  0  0  0  0  0  0  0  0  0  0  0
  141.3820   75.5540  219.8380 H   0  0  0  0  0  0  0  0  0  0  0  0
  139.9547   73.0114  220.5744 H   0  0  0  0  0  0  0  0  0  0  0  0
  140.7394   73.3876  218.9871 H   0  0  0  0  0  0  0  0  0  0  0  0
  143.0990   71.0852  218.5113 H   0  0  0  0  0  0  0  0  0  0  0  0
  143.3779   72.4929  217.5521 H   0  0  0  0  0  0  0  0  0  0  0  0
  145.7341   71.4377  218.0839 H   0  0  0  0  0  0  0  0  0  0  0  0
  144.6400   71.5310  220.7620 H   0  0  0  0  0  0  0  0  0  0  0  0
  146.3535   73.4244  219.7693 H   0  0  0  0  0  0  0  0  0  0  0  0
  145.6907   73.9335  218.2307 H   0  0  0  0  0  0  0  0  0  0  0  0
  144.5280   74.0506  220.9080 H   0  0  0  0  0  0  0  0  0  0  0  0
  142.5954   78.1480  220.1787 H   0  0  0  0  0  0  0  0  0  0  0  0
  143.0060   76.4157  216.2226 H   0  0  0  0  0  0  0  0  0  0  0  0
  138.1735   76.5955  222.4162 H   0  0  0  0  0  0  0  0  0  0  0  0
  138.0445   78.9695  223.2232 H   0  0  0  0  0  0  0  0  0  0  0  0
  139.2027   81.0030  223.7395 H   0  0  0  0  0  0  0  0  0  0  0  0
  141.3324   82.2987  223.8770 H   0  0  0  0  0  0  0  0  0  0  0  0
  143.5026   81.2486  223.2262 H   0  0  0  0  0  0  0  0  0  0  0  0
  143.5198   78.8894  222.4377 H   0  0  0  0  0  0  0  0  0  0  0  0
  1  2  2  0
  2  3  1  0
  3  4  1  0
  4  5  1  0
  5  6  2  0
  5  7  1  0
  7  8  1  0
  8  9  1  0
  9 10  1  0
  9 11  1  0
 11 12  1  0
 12 13  1  0
 13 14  2  0
 14 15  1  0
 15 16  2  0
 16 17  1  0
 16 18  1  0
 18 19  2  0
  2 20  1  0
 20 21  2  0
 21 22  1  0
 22 23  2  0
 23 24  1  0
 24 25  2  0
 25 26  1  0
 26 27  2  0
 27 28  1  0
 28 29  2  0
 12  7  1  0
 19 13  1  0
 29 20  1  0
 28 23  1  0
  3 30  1  0
  4 31  1  0
  4 32  1  0
  8 33  1  0
  8 34  1  0
  9 35  1  6
 10 36  1  0
 11 37  1  0
 11 38  1  0
 12 39  1  1
 15 40  1  0
 18 41  1  0
 21 42  1  0
 22 43  1  0
 24 44  1  0
 25 45  1  0
 26 46  1  0
 27 47  1  0
M  END
>  <smiles>  (36) 
O=C(NCC(=O)N1C[C@H](O)C[C@H]1c1ncc(Cl)cn1)c1ccc2ccccc2n1

>  <score_type>  (36) 
oracle

>  <origin>  (36) 
autodockgpu

>  <m_score__min__energy>  (36) 
-8.1999999999999993

>  <m_primary>  (36) 
energy

>  <rmsd>  (36) 
7.2263370745379785

>  <m_score__min__rmsd>  (36) 
7.2263370745379785

>  <meeko>  (36) 
{"free_energy": -6.43, "intermolecular_energy": -8.22, "internal_energy": -2.91, "cluster_size": 6, "cluster_id": 6, "rank_in_cluster": 4}

>  <energy>  (36) 
-6.43

>  <cluster_rmsd>  (36) 
0.76

>  <cluster>  (36) 
6

$$$$

     RDKit          3D

 47 50  0  0  0  0  0  0  0  0999 V2000
  140.7270   71.4240  221.4430 O   0  0  0  0  0  0  0  0  0  0  0  0
  140.0660   71.8200  222.4550 C   0  0  0  0  0  0  0  0  0  0  0  0
  139.3630   73.0570  222.3250 N   0  0  0  0  0  0  0  0  0  0  0  0
  139.4800   73.7360  221.0420 C   0  0  0  0  0  0  0  0  0  0  0  0
  140.5280   74.7890  221.0820 C   0  0  0  0  0  0  0  0  0  0  0  0
  140.5690   75.6750  221.9950 O   0  0  0  0  0  0  0  0  0  0  0  0
  141.5020   74.7810  220.0550 N   0  0  0  0  0  0  0  0  0  0  0  0
  141.4490   74.1050  218.7520 C   0  0  0  0  0  0  0  0  0  0  0  0
  142.8790   73.5610  218.7010 C   0  0  2  0  0  0  0  0  0  0  0  0
  142.9800   72.6260  219.7410 O   0  0  0  0  0  0  0  0  0  0  0  0
  143.6520   74.8130  219.0610 C   0  0  0  0  0  0  0  0  0  0  0  0
  142.7830   75.4610  220.0920 C   0  0  1  0  0  0  0  0  0  0  0  0
  142.4980   76.8920  219.7650 C   0  0  0  0  0  0  0  0  0  0  0  0
  141.8820   77.6690  220.6720 N   0  0  0  0  0  0  0  0  0  0  0  0
  141.6070   78.9770  220.4100 C   0  0  0  0  0  0  0  0  0  0  0  0
  141.9910   79.4690  219.1660 C   0  0  0  0  0  0  0  0  0  0  0  0
  141.6330   81.1620  218.8280 Cl  0  0  0  0  0  0  0  0  0  0  0  0
  142.6240   78.6860  218.2230 C   0  0  0  0  0  0  0  0  0  0  0  0
  142.8660   77.3860  218.5590 N   0  0  0  0  0  0  0  0  0  0  0  0
  140.0170   71.0550  223.6980 C   0  0  0  0  0  0  0  0  0  0  0  0
  139.4250   69.8060  223.6560 C   0  0  0  0  0  0  0  0  0  0  0  0
  139.3320   69.0020  224.7920 C   0  0  0  0  0  0  0  0  0  0  0  0
  139.8670   69.5270  225.9690 C   0  0  0  0  0  0  0  0  0  0  0  0
  139.7920   68.7550  227.1190 C   0  0  0  0  0  0  0  0  0  0  0  0
  140.3240   69.2690  228.2990 C   0  0  0  0  0  0  0  0  0  0  0  0
  140.9190   70.5310  228.3320 C   0  0  0  0  0  0  0  0  0  0  0  0
  140.9740   71.2700  227.1630 C   0  0  0  0  0  0  0  0  0  0  0  0
  140.4560   70.7800  225.9910 C   0  0  0  0  0  0  0  0  0  0  0  0
  140.5200   71.5240  224.8490 N   0  0  0  0  0  0  0  0  0  0  0  0
  138.8020   73.4530  223.0930 H   0  0  0  0  0  0  0  0  0  0  0  0
  139.7422   72.9987  220.2690 H   0  0  0  0  0  0  0  0  0  0  0  0
  138.5161   74.2140  220.8129 H   0  0  0  0  0  0  0  0  0  0  0  0
  140.7009   73.2987  218.7366 H   0  0  0  0  0  0  0  0  0  0  0  0
  141.1557   74.7400  217.9031 H   0  0  0  0  0  0  0  0  0  0  0  0
  143.2044   73.0846  217.7644 H   0  0  0  0  0  0  0  0  0  0  0  0
  142.1410   72.5160  220.2440 H   0  0  0  0  0  0  0  0  0  0  0  0
  144.6390   74.5622  219.4770 H   0  0  0  0  0  0  0  0  0  0  0  0
  143.8543   75.4611  218.1955 H   0  0  0  0  0  0  0  0  0  0  0  0
  143.2958   75.4036  221.0635 H   0  0  0  0  0  0  0  0  0  0  0  0
  141.1032   79.6168  221.1495 H   0  0  0  0  0  0  0  0  0  0  0  0
  142.9203   79.0915  217.2443 H   0  0  0  0  0  0  0  0  0  0  0  0
  139.0173   69.4374  222.7031 H   0  0  0  0  0  0  0  0  0  0  0  0
  138.8623   68.0078  224.7617 H   0  0  0  0  0  0  0  0  0  0  0  0
  139.3233   67.7601  227.0994 H   0  0  0  0  0  0  0  0  0  0  0  0
  140.2744   68.6703  229.2204 H   0  0  0  0  0  0  0  0  0  0  0  0
  141.3359   70.9304  229.2683 H   0  0  0  0  0  0  0  0  0  0  0  0
  141.4405   72.2661  227.1739 H   0  0  0  0  0  0  0  0  0  0  0  0
  1  2  2  0
  2  3  1  0
  3  4  1  0
  4  5  1  0
  5  6  2  0
  5  7  1  0
  7  8  1  0
  8  9  1  0
  9 10  1  0
  9 11  1  0
 11 12  1  0
 12 13  1  0
 13 14  2  0
 14 15  1  0
 15 16  2  0
 16 17  1  0
 16 18  1  0
 18 19  2  0
  2 20  1  0
 20 21  2  0
 21 22  1  0
 22 23  2  0
 23 24  1  0
 24 25  2  0
 25 26  1  0
 26 27  2  0
 27 28  1  0
 28 29  2  0
 12  7  1  0
 19 13  1  0
 29 20  1  0
 28 23  1  0
  3 30  1  0
  4 31  1  0
  4 32  1  0
  8 33  1  0
  8 34  1  0
  9 35  1  6
 10 36  1  0
 11 37  1  0
 11 38  1  0
 12 39  1  1
 15 40  1  0
 18 41  1  0
 21 42  1  0
 22 43  1  0
 24 44  1  0
 25 45  1  0
 26 46  1  0
 27 47  1  0
M  END
>  <smiles>  (37) 
O=C(NCC(=O)N1C[C@H](O)C[C@H]1c1ncc(Cl)cn1)c1ccc2ccccc2n1

>  <score_type>  (37) 
oracle

>  <origin>  (37) 
autodockgpu

>  <m_score__min__energy>  (37) 
-8.1999999999999993

>  <m_primary>  (37) 
energy

>  <rmsd>  (37) 
2.1392655557655083

>  <m_score__min__rmsd>  (37) 
2.1392655557655083

>  <meeko>  (37) 
{"free_energy": -7.39, "intermolecular_energy": -9.18, "internal_energy": -2.12, "cluster_size": 7, "cluster_id": 1, "rank_in_cluster": 6}

>  <energy>  (37) 
-6.39

>  <cluster_rmsd>  (37) 
0.94

>  <cluster>  (37) 
6

$$$$

     RDKit          3D

 47 50  0  0  0  0  0  0  0  0999 V2000
  140.0390   71.2670  221.2580 O   0  0  0  0  0  0  0  0  0  0  0  0
  139.7850   71.8700  222.3500 C   0  0  0  0  0  0  0  0  0  0  0  0
  139.3480   73.2260  222.2530 N   0  0  0  0  0  0  0  0  0  0  0  0
  139.2410   73.7780  220.9100 C   0  0  0  0  0  0  0  0  0  0  0  0
  140.1120   74.9690  220.7430 C   0  0  0  0  0  0  0  0  0  0  0  0
  139.7580   76.1310  221.1260 O   0  0  0  0  0  0  0  0  0  0  0  0
  141.3750   74.7760  220.1350 N   0  0  0  0  0  0  0  0  0  0  0  0
  141.7370   73.8440  219.0580 C   0  0  0  0  0  0  0  0  0  0  0  0
  143.0720   73.3400  219.6100 C   0  0  2  0  0  0  0  0  0  0  0  0
  142.7720   72.6430  220.7890 O   0  0  0  0  0  0  0  0  0  0  0  0
  143.7330   74.6590  219.9490 C   0  0  0  0  0  0  0  0  0  0  0  0
  142.5980   75.4830  220.4670 C   0  0  1  0  0  0  0  0  0  0  0  0
  142.5060   76.8070  219.7780 C   0  0  0  0  0  0  0  0  0  0  0  0
  141.9420   77.8480  220.4160 N   0  0  0  0  0  0  0  0  0  0  0  0
  141.8420   79.0690  219.8210 C   0  0  0  0  0  0  0  0  0  0  0  0
  142.3470   79.1890  218.5300 C   0  0  0  0  0  0  0  0  0  0  0  0
  142.2160   80.7700  217.7620 Cl  0  0  0  0  0  0  0  0  0  0  0  0
  142.9290   78.1320  217.8610 C   0  0  0  0  0  0  0  0  0  0  0  0
  142.9940   76.9400  218.5230 N   0  0  0  0  0  0  0  0  0  0  0  0
  139.9280   71.2170  223.6480 C   0  0  0  0  0  0  0  0  0  0  0  0
  139.5450   69.8910  223.7410 C   0  0  0  0  0  0  0  0  0  0  0  0
  139.6450   69.1830  224.9380 C   0  0  0  0  0  0  0  0  0  0  0  0
  140.1510   69.8850  226.0330 C   0  0  0  0  0  0  0  0  0  0  0  0
  140.2640   69.2120  227.2410 C   0  0  0  0  0  0  0  0  0  0  0  0
  140.7680   69.9030  228.3410 C   0  0  0  0  0  0  0  0  0  0  0  0
  141.1510   71.2420  228.2380 C   0  0  0  0  0  0  0  0  0  0  0  0
  141.0220   71.8770  227.0140 C   0  0  0  0  0  0  0  0  0  0  0  0
  140.5290   71.2120  225.9200 C   0  0  0  0  0  0  0  0  0  0  0  0
  140.4090   71.8560  224.7230 N   0  0  0  0  0  0  0  0  0  0  0  0
  139.1200   73.7900  223.0850 H   0  0  0  0  0  0  0  0  0  0  0  0
  139.5416   73.0098  220.1823 H   0  0  0  0  0  0  0  0  0  0  0  0
  138.1980   74.0857  220.7442 H   0  0  0  0  0  0  0  0  0  0  0  0
  141.0025   73.0321  218.9519 H   0  0  0  0  0  0  0  0  0  0  0  0
  141.7790   74.2821  218.0499 H   0  0  0  0  0  0  0  0  0  0  0  0
  143.6734   72.6889  218.9585 H   0  0  0  0  0  0  0  0  0  0  0  0
  141.8550   72.2850  220.8030 H   0  0  0  0  0  0  0  0  0  0  0  0
  144.5080   74.5262  220.7182 H   0  0  0  0  0  0  0  0  0  0  0  0
  144.2456   75.1191  219.0914 H   0  0  0  0  0  0  0  0  0  0  0  0
  142.7491   75.6421  221.5449 H   0  0  0  0  0  0  0  0  0  0  0  0
  141.3818   79.9235  220.3387 H   0  0  0  0  0  0  0  0  0  0  0  0
  143.3229   78.2448  216.8401 H   0  0  0  0  0  0  0  0  0  0  0  0
  139.1518   69.3825  222.8484 H   0  0  0  0  0  0  0  0  0  0  0  0
  139.3416   68.1285  225.0151 H   0  0  0  0  0  0  0  0  0  0  0  0
  139.9628   68.1577  227.3283 H   0  0  0  0  0  0  0  0  0  0  0  0
  140.8658   69.3852  229.3066 H   0  0  0  0  0  0  0  0  0  0  0  0
  141.5470   71.7813  229.1111 H   0  0  0  0  0  0  0  0  0  0  0  0
  141.3196   72.9316  226.9175 H   0  0  0  0  0  0  0  0  0  0  0  0
  1  2  2  0
  2  3  1  0
  3  4  1  0
  4  5  1  0
  5  6  2  0
  5  7  1  0
  7  8  1  0
  8  9  1  0
  9 10  1  0
  9 11  1  0
 11 12  1  0
 12 13  1  0
 13 14  2  0
 14 15  1  0
 15 16  2  0
 16 17  1  0
 16 18  1  0
 18 19  2  0
  2 20  1  0
 20 21  2  0
 21 22  1  0
 22 23  2  0
 23 24  1  0
 24 25  2  0
 25 26  1  0
 26 27  2  0
 27 28  1  0
 28 29  2  0
 12  7  1  0
 19 13  1  0
 29 20  1  0
 28 23  1  0
  3 30  1  0
  4 31  1  0
  4 32  1  0
  8 33  1  0
  8 34  1  0
  9 35  1  6
 10 36  1  0
 11 37  1  0
 11 38  1  0
 12 39  1  1
 15 40  1  0
 18 41  1  0
 21 42  1  0
 22 43  1  0
 24 44  1  0
 25 45  1  0
 26 46  1  0
 27 47  1  0
M  END
>  <smiles>  (38) 
O=C(NCC(=O)N1C[C@H](O)C[C@H]1c1ncc(Cl)cn1)c1ccc2ccccc2n1

>  <score_type>  (38) 
oracle

>  <origin>  (38) 
autodockgpu

>  <m_score__min__energy>  (38) 
-8.1999999999999993

>  <m_primary>  (38) 
energy

>  <rmsd>  (38) 
2.4660218975715176

>  <m_score__min__rmsd>  (38) 
2.4660218975715176

>  <meeko>  (38) 
{"free_energy": -7.21, "intermolecular_energy": -9.0, "internal_energy": -2.27, "cluster_size": 7, "cluster_id": 1, "rank_in_cluster": 7}

>  <energy>  (38) 
-6.09

>  <cluster_rmsd>  (38) 
0.5

>  <cluster>  (38) 
6

$$$$

     RDKit          3D

 47 50  0  0  0  0  0  0  0  0999 V2000
  140.3200   74.3250  222.2750 O   0  0  0  0  0  0  0  0  0  0  0  0
  140.5370   73.1180  221.9380 C   0  0  0  0  0  0  0  0  0  0  0  0
  141.1570   72.9020  220.6690 N   0  0  0  0  0  0  0  0  0  0  0  0
  141.4740   74.0920  219.8930 C   0  0  0  0  0  0  0  0  0  0  0  0
  142.9410   74.2610  219.7370 C   0  0  0  0  0  0  0  0  0  0  0  0
  143.4810   75.4010  219.5650 O   0  0  0  0  0  0  0  0  0  0  0  0
  143.7430   73.0960  219.7860 N   0  0  0  0  0  0  0  0  0  0  0  0
  144.6530   72.6580  220.8540 C   0  0  0  0  0  0  0  0  0  0  0  0
  145.8290   72.1880  219.9950 C   0  0  2  0  0  0  0  0  0  0  0  0
  146.3290   73.3310  219.3560 O   0  0  0  0  0  0  0  0  0  0  0  0
  145.0970   71.3210  218.9940 C   0  0  0  0  0  0  0  0  0  0  0  0
  143.8270   72.0750  218.7580 C   0  0  1  0  0  0  0  0  0  0  0  0
  142.6200   71.2110  218.9390 C   0  0  0  0  0  0  0  0  0  0  0  0
  141.5310   71.4280  218.1810 N   0  0  0  0  0  0  0  0  0  0  0  0
  140.4140   70.6600  218.3170 C   0  0  0  0  0  0  0  0  0  0  0  0
  140.4510   69.6480  219.2700 C   0  0  0  0  0  0  0  0  0  0  0  0
  139.0040   68.6560  219.4450 Cl  0  0  0  0  0  0  0  0  0  0  0  0
  141.5600   69.4110  220.0560 C   0  0  0  0  0  0  0  0  0  0  0  0
  142.6410   70.2210  219.8620 N   0  0  0  0  0  0  0  0  0  0  0  0
  140.1760   71.9950  222.7990 C   0  0  0  0  0  0  0  0  0  0  0  0
  139.3270   71.0370  222.2760 C   0  0  0  0  0  0  0  0  0  0  0  0
  138.9270   69.9280  223.0220 C   0  0  0  0  0  0  0  0  0  0  0  0
  139.4300   69.8410  224.3210 C   0  0  0  0  0  0  0  0  0  0  0  0
  139.0520   68.7510  225.0930 C   0  0  0  0  0  0  0  0  0  0  0  0
  139.5490   68.6540  226.3910 C   0  0  0  0  0  0  0  0  0  0  0  0
  140.4050   69.6260  226.9100 C   0  0  0  0  0  0  0  0  0  0  0  0
  140.7580   70.6980  226.1070 C   0  0  0  0  0  0  0  0  0  0  0  0
  140.2790   70.8100  224.8270 C   0  0  0  0  0  0  0  0  0  0  0  0
  140.6380   71.8740  224.0520 N   0  0  0  0  0  0  0  0  0  0  0  0
  141.3700   71.9580  220.3170 H   0  0  0  0  0  0  0  0  0  0  0  0
  141.0159   74.0025  218.8969 H   0  0  0  0  0  0  0  0  0  0  0  0
  141.0788   74.9691  220.4264 H   0  0  0  0  0  0  0  0  0  0  0  0
  144.9350   73.4866  221.5202 H   0  0  0  0  0  0  0  0  0  0  0  0
  144.2428   71.9057  221.5438 H   0  0  0  0  0  0  0  0  0  0  0  0
  146.6576   71.6795  220.5095 H   0  0  0  0  0  0  0  0  0  0  0  0
  145.6880   74.0780  219.3420 H   0  0  0  0  0  0  0  0  0  0  0  0
  145.6744   71.2186  218.0633 H   0  0  0  0  0  0  0  0  0  0  0  0
  144.9305   70.2940  219.3512 H   0  0  0  0  0  0  0  0  0  0  0  0
  143.8436   72.4687  217.7310 H   0  0  0  0  0  0  0  0  0  0  0  0
  139.5206   70.8331  217.6991 H   0  0  0  0  0  0  0  0  0  0  0  0
  141.5722   68.6056  220.8051 H   0  0  0  0  0  0  0  0  0  0  0  0
  138.9578   71.1522  221.2462 H   0  0  0  0  0  0  0  0  0  0  0  0
  138.2521   69.1639  222.6090 H   0  0  0  0  0  0  0  0  0  0  0  0
  138.3764   67.9823  224.6897 H   0  0  0  0  0  0  0  0  0  0  0  0
  139.2617   67.7966  227.0173 H   0  0  0  0  0  0  0  0  0  0  0  0
  140.7918   69.5426  227.9364 H   0  0  0  0  0  0  0  0  0  0  0  0
  141.4330   71.4714  226.5022 H   0  0  0  0  0  0  0  0  0  0  0  0
  1  2  2  0
  2  3  1  0
  3  4  1  0
  4  5  1  0
  5  6  2  0
  5  7  1  0
  7  8  1  0
  8  9  1  0
  9 10  1  0
  9 11  1  0
 11 12  1  0
 12 13  1  0
 13 14  2  0
 14 15  1  0
 15 16  2  0
 16 17  1  0
 16 18  1  0
 18 19  2  0
  2 20  1  0
 20 21  2  0
 21 22  1  0
 22 23  2  0
 23 24  1  0
 24 25  2  0
 25 26  1  0
 26 27  2  0
 27 28  1  0
 28 29  2  0
 12  7  1  0
 19 13  1  0
 29 20  1  0
 28 23  1  0
  3 30  1  0
  4 31  1  0
  4 32  1  0
  8 33  1  0
  8 34  1  0
  9 35  1  1
 10 36  1  0
 11 37  1  0
 11 38  1  0
 12 39  1  6
 15 40  1  0
 18 41  1  0
 21 42  1  0
 22 43  1  0
 24 44  1  0
 25 45  1  0
 26 46  1  0
 27 47  1  0
M  END
>  <smiles>  (39) 
O=C(NCC(=O)N1C[C@H](O)C[C@H]1c1ncc(Cl)cn1)c1ccc2ccccc2n1

>  <score_type>  (39) 
oracle

>  <origin>  (39) 
autodockgpu

>  <m_score__min__energy>  (39) 
-8.1999999999999993

>  <m_primary>  (39) 
energy

>  <rmsd>  (39) 
5.776044817777483

>  <m_score__min__rmsd>  (39) 
5.776044817777483

>  <meeko>  (39) 
{"free_energy": -6.23, "intermolecular_energy": -8.02, "internal_energy": -3.33, "cluster_size": 12, "cluster_id": 5, "rank_in_cluster": 10}

>  <energy>  (39) 
-6.82

>  <cluster_rmsd>  (39) 
0.0

>  <cluster>  (39) 
7

$$$$

     RDKit          3D

 47 50  0  0  0  0  0  0  0  0999 V2000
  137.8130   70.1510  221.7770 O   0  0  0  0  0  0  0  0  0  0  0  0
  138.2160   70.9170  222.7090 C   0  0  0  0  0  0  0  0  0  0  0  0
  138.0520   72.3220  222.5070 N   0  0  0  0  0  0  0  0  0  0  0  0
  137.4390   72.7280  221.2500 C   0  0  0  0  0  0  0  0  0  0  0  0
  138.2760   72.3340  220.0880 C   0  0  0  0  0  0  0  0  0  0  0  0
  137.7770   72.0820  218.9430 O   0  0  0  0  0  0  0  0  0  0  0  0
  139.6740   72.2430  220.2880 N   0  0  0  0  0  0  0  0  0  0  0  0
  140.7080   71.8230  219.3320 C   0  0  0  0  0  0  0  0  0  0  0  0
  141.5540   70.9450  220.2580 C   0  0  2  0  0  0  0  0  0  0  0  0
  140.7430   69.8600  220.6190 O   0  0  0  0  0  0  0  0  0  0  0  0
  141.7130   71.8810  221.4370 C   0  0  0  0  0  0  0  0  0  0  0  0
  140.3800   72.5550  221.5160 C   0  0  1  0  0  0  0  0  0  0  0  0
  140.5070   74.0450  221.5500 C   0  0  0  0  0  0  0  0  0  0  0  0
  141.4800   74.6420  220.8390 N   0  0  0  0  0  0  0  0  0  0  0  0
  141.6250   75.9970  220.8440 C   0  0  0  0  0  0  0  0  0  0  0  0
  140.7280   76.7280  221.6150 C   0  0  0  0  0  0  0  0  0  0  0  0
  140.9190   78.4810  221.6210 Cl  0  0  0  0  0  0  0  0  0  0  0  0
  139.7250   76.1310  222.3500 C   0  0  0  0  0  0  0  0  0  0  0  0
  139.6410   74.7710  222.2940 N   0  0  0  0  0  0  0  0  0  0  0  0
  138.8190   70.4000  223.9330 C   0  0  0  0  0  0  0  0  0  0  0  0
  138.7710   69.0330  224.1400 C   0  0  0  0  0  0  0  0  0  0  0  0
  139.3200   68.4450  225.2800 C   0  0  0  0  0  0  0  0  0  0  0  0
  139.9190   69.3110  226.1960 C   0  0  0  0  0  0  0  0  0  0  0  0
  140.4750   68.7620  227.3420 C   0  0  0  0  0  0  0  0  0  0  0  0
  141.0750   69.6170  228.2640 C   0  0  0  0  0  0  0  0  0  0  0  0
  141.1180   70.9950  228.0470 C   0  0  0  0  0  0  0  0  0  0  0  0
  140.5510   71.5040  226.8910 C   0  0  0  0  0  0  0  0  0  0  0  0
  139.9570   70.6770  225.9710 C   0  0  0  0  0  0  0  0  0  0  0  0
  139.4030   71.1970  224.8390 N   0  0  0  0  0  0  0  0  0  0  0  0
  138.3490   73.0150  223.2080 H   0  0  0  0  0  0  0  0  0  0  0  0
  136.4534   72.2477  221.1607 H   0  0  0  0  0  0  0  0  0  0  0  0
  137.3401   73.8235  221.2504 H   0  0  0  0  0  0  0  0  0  0  0  0
  140.2853   71.2497  218.4938 H   0  0  0  0  0  0  0  0  0  0  0  0
  141.2491   72.6406  218.8333 H   0  0  0  0  0  0  0  0  0  0  0  0
  142.5033   70.5584  219.8587 H   0  0  0  0  0  0  0  0  0  0  0  0
  139.8260   70.1260  220.8570 H   0  0  0  0  0  0  0  0  0  0  0  0
  141.9281   71.3215  222.3594 H   0  0  0  0  0  0  0  0  0  0  0  0
  142.5485   72.5868  221.3196 H   0  0  0  0  0  0  0  0  0  0  0  0
  139.8708   72.2111  222.4284 H   0  0  0  0  0  0  0  0  0  0  0  0
  142.4176   76.4912  220.2630 H   0  0  0  0  0  0  0  0  0  0  0  0
  139.0241   76.7254  222.9544 H   0  0  0  0  0  0  0  0  0  0  0  0
  138.2877   68.3934  223.3867 H   0  0  0  0  0  0  0  0  0  0  0  0
  139.2828   67.3585  225.4476 H   0  0  0  0  0  0  0  0  0  0  0  0
  140.4430   67.6768  227.5188 H   0  0  0  0  0  0  0  0  0  0  0  0
  141.5222   69.1991  229.1780 H   0  0  0  0  0  0  0  0  0  0  0  0
  141.5931   71.6636  228.7800 H   0  0  0  0  0  0  0  0  0  0  0  0
  140.5771   72.5882  226.7072 H   0  0  0  0  0  0  0  0  0  0  0  0
  1  2  2  0
  2  3  1  0
  3  4  1  0
  4  5  1  0
  5  6  2  0
  5  7  1  0
  7  8  1  0
  8  9  1  0
  9 10  1  0
  9 11  1  0
 11 12  1  0
 12 13  1  0
 13 14  2  0
 14 15  1  0
 15 16  2  0
 16 17  1  0
 16 18  1  0
 18 19  2  0
  2 20  1  0
 20 21  2  0
 21 22  1  0
 22 23  2  0
 23 24  1  0
 24 25  2  0
 25 26  1  0
 26 27  2  0
 27 28  1  0
 28 29  2  0
 12  7  1  0
 19 13  1  0
 29 20  1  0
 28 23  1  0
  3 30  1  0
  4 31  1  0
  4 32  1  0
  8 33  1  0
  8 34  1  0
  9 35  1  6
 10 36  1  0
 11 37  1  0
 11 38  1  0
 12 39  1  1
 15 40  1  0
 18 41  1  0
 21 42  1  0
 22 43  1  0
 24 44  1  0
 25 45  1  0
 26 46  1  0
 27 47  1  0
M  END
>  <smiles>  (40) 
O=C(NCC(=O)N1C[C@H](O)C[C@H]1c1ncc(Cl)cn1)c1ccc2ccccc2n1

>  <score_type>  (40) 
oracle

>  <origin>  (40) 
autodockgpu

>  <m_score__min__energy>  (40) 
-8.1999999999999993

>  <m_primary>  (40) 
energy

>  <rmsd>  (40) 
3.4382276231827062

>  <m_score__min__rmsd>  (40) 
3.4382276231827062

>  <meeko>  (40) 
{"free_energy": -6.73, "intermolecular_energy": -8.52, "internal_energy": -2.52, "cluster_size": 6, "cluster_id": 7, "rank_in_cluster": 5}

>  <energy>  (40) 
-6.81

>  <cluster_rmsd>  (40) 
0.03

>  <cluster>  (40) 
7

$$$$

     RDKit          3D

 47 50  0  0  0  0  0  0  0  0999 V2000
  142.4800   77.7900  217.0800 O   0  0  0  0  0  0  0  0  0  0  0  0
  142.6640   77.5730  218.3200 C   0  0  0  0  0  0  0  0  0  0  0  0
  143.3170   76.3520  218.6720 N   0  0  0  0  0  0  0  0  0  0  0  0
  143.7030   75.4820  217.5700 C   0  0  0  0  0  0  0  0  0  0  0  0
  143.6030   74.0500  217.9510 C   0  0  0  0  0  0  0  0  0  0  0  0
  143.2110   73.1540  217.1350 O   0  0  0  0  0  0  0  0  0  0  0  0
  143.9630   73.6970  219.2730 N   0  0  0  0  0  0  0  0  0  0  0  0
  145.1000   74.1810  220.0690 C   0  0  0  0  0  0  0  0  0  0  0  0
  145.5440   72.8540  220.6900 C   0  0  2  0  0  0  0  0  0  0  0  0
  145.9880   72.0530  219.6280 O   0  0  0  0  0  0  0  0  0  0  0  0
  144.2140   72.3410  221.1980 C   0  0  0  0  0  0  0  0  0  0  0  0
  143.2580   72.7600  220.1270 C   0  0  1  0  0  0  0  0  0  0  0  0
  142.0890   73.5090  220.6820 C   0  0  0  0  0  0  0  0  0  0  0  0
  142.1520   74.8480  220.7930 N   0  0  0  0  0  0  0  0  0  0  0  0
  141.1070   75.5640  221.2920 C   0  0  0  0  0  0  0  0  0  0  0  0
  139.9780   74.8500  221.6820 C   0  0  0  0  0  0  0  0  0  0  0  0
  138.6260   75.7790  222.3300 Cl  0  0  0  0  0  0  0  0  0  0  0  0
  139.8960   73.4770  221.5760 C   0  0  0  0  0  0  0  0  0  0  0  0
  140.9830   72.8300  221.0650 N   0  0  0  0  0  0  0  0  0  0  0  0
  142.2350   78.5190  219.3460 C   0  0  0  0  0  0  0  0  0  0  0  0
  141.9410   79.8080  218.9420 C   0  0  0  0  0  0  0  0  0  0  0  0
  141.5230   80.7820  219.8490 C   0  0  0  0  0  0  0  0  0  0  0  0
  141.4170   80.3820  221.1820 C   0  0  0  0  0  0  0  0  0  0  0  0
  141.0040   81.3250  222.1130 C   0  0  0  0  0  0  0  0  0  0  0  0
  140.8950   80.9370  223.4460 C   0  0  0  0  0  0  0  0  0  0  0  0
  141.1940   79.6320  223.8450 C   0  0  0  0  0  0  0  0  0  0  0  0
  141.6030   78.7220  222.8850 C   0  0  0  0  0  0  0  0  0  0  0  0
  141.7150   79.0860  221.5670 C   0  0  0  0  0  0  0  0  0  0  0  0
  142.1200   78.1740  220.6360 N   0  0  0  0  0  0  0  0  0  0  0  0
  143.5070   76.0950  219.6520 H   0  0  0  0  0  0  0  0  0  0  0  0
  143.0387   75.6721  216.7141 H   0  0  0  0  0  0  0  0  0  0  0  0
  144.7490   75.6986  217.3072 H   0  0  0  0  0  0  0  0  0  0  0  0
  145.8852   74.6240  219.4387 H   0  0  0  0  0  0  0  0  0  0  0  0
  144.8673   74.9827  220.7853 H   0  0  0  0  0  0  0  0  0  0  0  0
  146.3328   72.8941  221.4556 H   0  0  0  0  0  0  0  0  0  0  0  0
  146.2130   71.1360  219.9040 H   0  0  0  0  0  0  0  0  0  0  0  0
  144.2288   71.2466  221.3082 H   0  0  0  0  0  0  0  0  0  0  0  0
  143.9499   72.7331  222.1912 H   0  0  0  0  0  0  0  0  0  0  0  0
  142.9007   71.8582  219.6082 H   0  0  0  0  0  0  0  0  0  0  0  0
  141.1531   76.6593  221.3829 H   0  0  0  0  0  0  0  0  0  0  0  0
  138.9952   72.9288  221.8892 H   0  0  0  0  0  0  0  0  0  0  0  0
  142.0391   80.0722  217.8787 H   0  0  0  0  0  0  0  0  0  0  0  0
  141.2897   81.8089  219.5311 H   0  0  0  0  0  0  0  0  0  0  0  0
  140.7684   82.3544  221.8052 H   0  0  0  0  0  0  0  0  0  0  0  0
  140.5679   81.6706  224.1976 H   0  0  0  0  0  0  0  0  0  0  0  0
  141.1063   79.3336  224.9001 H   0  0  0  0  0  0  0  0  0  0  0  0
  141.8420   77.6907  223.1838 H   0  0  0  0  0  0  0  0  0  0  0  0
  1  2  2  0
  2  3  1  0
  3  4  1  0
  4  5  1  0
  5  6  2  0
  5  7  1  0
  7  8  1  0
  8  9  1  0
  9 10  1  0
  9 11  1  0
 11 12  1  0
 12 13  1  0
 13 14  2  0
 14 15  1  0
 15 16  2  0
 16 17  1  0
 16 18  1  0
 18 19  2  0
  2 20  1  0
 20 21  2  0
 21 22  1  0
 22 23  2  0
 23 24  1  0
 24 25  2  0
 25 26  1  0
 26 27  2  0
 27 28  1  0
 28 29  2  0
 12  7  1  0
 19 13  1  0
 29 20  1  0
 28 23  1  0
  3 30  1  0
  4 31  1  0
  4 32  1  0
  8 33  1  0
  8 34  1  0
  9 35  1  1
 10 36  1  0
 11 37  1  0
 11 38  1  0
 12 39  1  6
 15 40  1  0
 18 41  1  0
 21 42  1  0
 22 43  1  0
 24 44  1  0
 25 45  1  0
 26 46  1  0
 27 47  1  0
M  END
>  <smiles>  (41) 
O=C(NCC(=O)N1C[C@H](O)C[C@H]1c1ncc(Cl)cn1)c1ccc2ccccc2n1

>  <score_type>  (41) 
oracle

>  <origin>  (41) 
autodockgpu

>  <m_score__min__energy>  (41) 
-8.1999999999999993

>  <m_primary>  (41) 
energy

>  <rmsd>  (41) 
8.624943435887579

>  <m_score__min__rmsd>  (41) 
8.624943435887579

>  <meeko>  (41) 
{"free_energy": -6.09, "intermolecular_energy": -7.88, "internal_energy": -2.75, "cluster_size": 1, "cluster_id": 9, "rank_in_cluster": 1}

>  <energy>  (41) 
-6.78

>  <cluster_rmsd>  (41) 
0.86

>  <cluster>  (41) 
7

$$$$

     RDKit          3D

 47 50  0  0  0  0  0  0  0  0999 V2000
  140.9520   72.1920  221.3420 O   0  0  0  0  0  0  0  0  0  0  0  0
  140.2550   72.5380  222.3480 C   0  0  0  0  0  0  0  0  0  0  0  0
  139.6080   73.8090  222.2810 N   0  0  0  0  0  0  0  0  0  0  0  0
  139.8170   74.5790  221.0630 C   0  0  0  0  0  0  0  0  0  0  0  0
  140.8980   75.5820  221.2360 C   0  0  0  0  0  0  0  0  0  0  0  0
  142.1320   75.2730  221.1690 O   0  0  0  0  0  0  0  0  0  0  0  0
  140.5150   76.9220  221.4830 N   0  0  0  0  0  0  0  0  0  0  0  0
  140.7080   78.0990  220.6250 C   0  0  0  0  0  0  0  0  0  0  0  0
  141.1420   79.1090  221.6910 C   0  0  2  0  0  0  0  0  0  0  0  0
  142.3700   78.6500  222.1880 O   0  0  0  0  0  0  0  0  0  0  0  0
  140.0570   78.8870  222.7230 C   0  0  0  0  0  0  0  0  0  0  0  0
  139.8350   77.4090  222.6680 C   0  0  1  0  0  0  0  0  0  0  0  0
  138.3920   77.0660  222.4850 C   0  0  0  0  0  0  0  0  0  0  0  0
  137.8820   75.9910  223.1110 N   0  0  0  0  0  0  0  0  0  0  0  0
  136.5710   75.6480  222.9680 C   0  0  0  0  0  0  0  0  0  0  0  0
  135.7900   76.4550  222.1480 C   0  0  0  0  0  0  0  0  0  0  0  0
  134.0940   76.0080  221.9640 Cl  0  0  0  0  0  0  0  0  0  0  0  0
  136.2970   77.5610  221.4980 C   0  0  0  0  0  0  0  0  0  0  0  0
  137.6180   77.8420  221.6900 N   0  0  0  0  0  0  0  0  0  0  0  0
  140.1130   71.6830  223.5240 C   0  0  0  0  0  0  0  0  0  0  0  0
  139.3270   70.5520  223.3990 C   0  0  0  0  0  0  0  0  0  0  0  0
  139.1320   69.6750  224.4660 C   0  0  0  0  0  0  0  0  0  0  0  0
  139.7730   70.0020  225.6620 C   0  0  0  0  0  0  0  0  0  0  0  0
  139.6010   69.1530  226.7450 C   0  0  0  0  0  0  0  0  0  0  0  0
  140.2370   69.4690  227.9440 C   0  0  0  0  0  0  0  0  0  0  0  0
  141.0280   70.6140  228.0600 C   0  0  0  0  0  0  0  0  0  0  0  0
  141.1730   71.4350  226.9560 C   0  0  0  0  0  0  0  0  0  0  0  0
  140.5560   71.1390  225.7670 C   0  0  0  0  0  0  0  0  0  0  0  0
  140.7120   71.9620  224.6900 N   0  0  0  0  0  0  0  0  0  0  0  0
  139.0240   74.1690  223.0500 H   0  0  0  0  0  0  0  0  0  0  0  0
  140.0922   73.8929  220.2484 H   0  0  0  0  0  0  0  0  0  0  0  0
  138.8845   75.1120  220.8256 H   0  0  0  0  0  0  0  0  0  0  0  0
  141.4913   77.9345  219.8704 H   0  0  0  0  0  0  0  0  0  0  0  0
  139.8346   78.3931  220.0245 H   0  0  0  0  0  0  0  0  0  0  0  0
  141.2569   80.1568  221.3766 H   0  0  0  0  0  0  0  0  0  0  0  0
  142.5610   77.7160  221.9440 H   0  0  0  0  0  0  0  0  0  0  0  0
  140.3931   79.1990  223.7229 H   0  0  0  0  0  0  0  0  0  0  0  0
  139.1451   79.4692  222.5243 H   0  0  0  0  0  0  0  0  0  0  0  0
  140.1979   76.9684  223.6083 H   0  0  0  0  0  0  0  0  0  0  0  0
  136.1486   74.7704  223.4793 H   0  0  0  0  0  0  0  0  0  0  0  0
  135.6641   78.1886  220.8534 H   0  0  0  0  0  0  0  0  0  0  0  0
  138.8436   70.3387  222.4342 H   0  0  0  0  0  0  0  0  0  0  0  0
  138.5072   68.7748  224.3701 H   0  0  0  0  0  0  0  0  0  0  0  0
  138.9770   68.2511  226.6596 H   0  0  0  0  0  0  0  0  0  0  0  0
  140.1140   68.8059  228.8130 H   0  0  0  0  0  0  0  0  0  0  0  0
  141.5257   70.8582  229.0101 H   0  0  0  0  0  0  0  0  0  0  0  0
  141.7933   72.3402  227.0328 H   0  0  0  0  0  0  0  0  0  0  0  0
  1  2  2  0
  2  3  1  0
  3  4  1  0
  4  5  1  0
  5  6  2  0
  5  7  1  0
  7  8  1  0
  8  9  1  0
  9 10  1  0
  9 11  1  0
 11 12  1  0
 12 13  1  0
 13 14  2  0
 14 15  1  0
 15 16  2  0
 16 17  1  0
 16 18  1  0
 18 19  2  0
  2 20  1  0
 20 21  2  0
 21 22  1  0
 22 23  2  0
 23 24  1  0
 24 25  2  0
 25 26  1  0
 26 27  2  0
 27 28  1  0
 28 29  2  0
 12  7  1  0
 19 13  1  0
 29 20  1  0
 28 23  1  0
  3 30  1  0
  4 31  1  0
  4 32  1  0
  8 33  1  0
  8 34  1  0
  9 35  1  6
 10 36  1  0
 11 37  1  0
 11 38  1  0
 12 39  1  1
 15 40  1  0
 18 41  1  0
 21 42  1  0
 22 43  1  0
 24 44  1  0
 25 45  1  0
 26 46  1  0
 27 47  1  0
M  END
>  <smiles>  (42) 
O=C(NCC(=O)N1C[C@H](O)C[C@H]1c1ncc(Cl)cn1)c1ccc2ccccc2n1

>  <score_type>  (42) 
oracle

>  <origin>  (42) 
autodockgpu

>  <m_score__min__energy>  (42) 
-8.1999999999999993

>  <m_primary>  (42) 
energy

>  <rmsd>  (42) 
3.453331689955468

>  <m_score__min__rmsd>  (42) 
3.453331689955468

>  <meeko>  (42) 
{"free_energy": -7.2, "intermolecular_energy": -8.99, "internal_energy": -2.32, "cluster_size": 2, "cluster_id": 4, "rank_in_cluster": 2}

>  <energy>  (42) 
-6.76

>  <cluster_rmsd>  (42) 
1.11

>  <cluster>  (42) 
7

$$$$

     RDKit          3D

 47 50  0  0  0  0  0  0  0  0999 V2000
  141.1630   72.1630  221.6520 O   0  0  0  0  0  0  0  0  0  0  0  0
  140.2730   72.3360  222.5450 C   0  0  0  0  0  0  0  0  0  0  0  0
  139.3430   73.3990  222.3330 N   0  0  0  0  0  0  0  0  0  0  0  0
  139.5140   74.1770  221.1140 C   0  0  0  0  0  0  0  0  0  0  0  0
  140.7260   75.0320  221.1830 C   0  0  0  0  0  0  0  0  0  0  0  0
  141.0550   75.6620  222.2400 O   0  0  0  0  0  0  0  0  0  0  0  0
  141.5250   75.1320  220.0190 N   0  0  0  0  0  0  0  0  0  0  0  0
  141.2720   74.5650  218.6870 C   0  0  0  0  0  0  0  0  0  0  0  0
  142.6800   74.0600  218.3660 C   0  0  2  0  0  0  0  0  0  0  0  0
  142.9530   73.0440  219.2930 O   0  0  0  0  0  0  0  0  0  0  0  0
  143.4890   75.2940  218.7060 C   0  0  0  0  0  0  0  0  0  0  0  0
  142.7900   75.8350  219.9120 C   0  0  1  0  0  0  0  0  0  0  0  0
  142.4440   77.2810  219.7570 C   0  0  0  0  0  0  0  0  0  0  0  0
  142.6780   77.8960  218.5850 N   0  0  0  0  0  0  0  0  0  0  0  0
  142.3750   79.2120  218.4070 C   0  0  0  0  0  0  0  0  0  0  0  0
  141.8170   79.8870  219.4880 C   0  0  0  0  0  0  0  0  0  0  0  0
  141.4270   81.5910  219.2550 Cl  0  0  0  0  0  0  0  0  0  0  0  0
  141.5700   79.2720  220.6970 C   0  0  0  0  0  0  0  0  0  0  0  0
  141.8990   77.9510  220.7990 N   0  0  0  0  0  0  0  0  0  0  0  0
  140.1930   71.4930  223.7340 C   0  0  0  0  0  0  0  0  0  0  0  0
  139.5930   70.2550  223.6000 C   0  0  0  0  0  0  0  0  0  0  0  0
  139.4700   69.3800  224.6790 C   0  0  0  0  0  0  0  0  0  0  0  0
  139.9870   69.8230  225.8980 C   0  0  0  0  0  0  0  0  0  0  0  0
  139.8820   68.9790  226.9940 C   0  0  0  0  0  0  0  0  0  0  0  0
  140.3940   69.4110  228.2150 C   0  0  0  0  0  0  0  0  0  0  0  0
  140.9980   70.6630  228.3410 C   0  0  0  0  0  0  0  0  0  0  0  0
  141.0820   71.4750  227.2230 C   0  0  0  0  0  0  0  0  0  0  0  0
  140.5850   71.0660  226.0120 C   0  0  0  0  0  0  0  0  0  0  0  0
  140.6770   71.8820  224.9230 N   0  0  0  0  0  0  0  0  0  0  0  0
  138.5890   73.6100  223.0030 H   0  0  0  0  0  0  0  0  0  0  0  0
  139.6092   73.4893  220.2608 H   0  0  0  0  0  0  0  0  0  0  0  0
  138.6365   74.8292  220.9934 H   0  0  0  0  0  0  0  0  0  0  0  0
  140.5385   73.7460  218.7206 H   0  0  0  0  0  0  0  0  0  0  0  0
  140.8418   75.2613  217.9521 H   0  0  0  0  0  0  0  0  0  0  0  0
  142.8570   73.6710  217.3524 H   0  0  0  0  0  0  0  0  0  0  0  0
  142.2340   72.9210  219.9540 H   0  0  0  0  0  0  0  0  0  0  0  0
  144.5316   75.0312  218.9384 H   0  0  0  0  0  0  0  0  0  0  0  0
  143.5453   76.0162  217.8782 H   0  0  0  0  0  0  0  0  0  0  0  0
  143.4512   75.7091  220.7821 H   0  0  0  0  0  0  0  0  0  0  0  0
  142.5635   79.7194  217.4494 H   0  0  0  0  0  0  0  0  0  0  0  0
  141.1278   79.8210  221.5414 H   0  0  0  0  0  0  0  0  0  0  0  0
  139.2026   69.9522  222.6172 H   0  0  0  0  0  0  0  0  0  0  0  0
  138.9919   68.3948  224.5754 H   0  0  0  0  0  0  0  0  0  0  0  0
  139.4056   67.9919  226.9009 H   0  0  0  0  0  0  0  0  0  0  0  0
  140.3212   68.7546  229.0947 H   0  0  0  0  0  0  0  0  0  0  0  0
  141.3991   70.9977  229.3090 H   0  0  0  0  0  0  0  0  0  0  0  0
  141.5551   72.4645  227.3073 H   0  0  0  0  0  0  0  0  0  0  0  0
  1  2  2  0
  2  3  1  0
  3  4  1  0
  4  5  1  0
  5  6  2  0
  5  7  1  0
  7  8  1  0
  8  9  1  0
  9 10  1  0
  9 11  1  0
 11 12  1  0
 12 13  1  0
 13 14  2  0
 14 15  1  0
 15 16  2  0
 16 17  1  0
 16 18  1  0
 18 19  2  0
  2 20  1  0
 20 21  2  0
 21 22  1  0
 22 23  2  0
 23 24  1  0
 24 25  2  0
 25 26  1  0
 26 27  2  0
 27 28  1  0
 28 29  2  0
 12  7  1  0
 19 13  1  0
 29 20  1  0
 28 23  1  0
  3 30  1  0
  4 31  1  0
  4 32  1  0
  8 33  1  0
  8 34  1  0
  9 35  1  6
 10 36  1  0
 11 37  1  0
 11 38  1  0
 12 39  1  1
 15 40  1  0
 18 41  1  0
 21 42  1  0
 22 43  1  0
 24 44  1  0
 25 45  1  0
 26 46  1  0
 27 47  1  0
M  END
>  <smiles>  (43) 
O=C(NCC(=O)N1C[C@H](O)C[C@H]1c1ncc(Cl)cn1)c1ccc2ccccc2n1

>  <score_type>  (43) 
oracle

>  <origin>  (43) 
autodockgpu

>  <m_score__min__energy>  (43) 
-8.1999999999999993

>  <m_primary>  (43) 
energy

>  <rmsd>  (43) 
2.233173083580076

>  <m_score__min__rmsd>  (43) 
2.233173083580076

>  <meeko>  (43) 
{"free_energy": -7.4, "intermolecular_energy": -9.19, "internal_energy": -2.1, "cluster_size": 9, "cluster_id": 2, "rank_in_cluster": 5}

>  <energy>  (43) 
-6.73

>  <cluster_rmsd>  (43) 
0.37

>  <cluster>  (43) 
7

$$$$

     RDKit          3D

 47 50  0  0  0  0  0  0  0  0999 V2000
  139.2730   74.3080  221.7110 O   0  0  0  0  0  0  0  0  0  0  0  0
  140.4460   74.7940  221.6290 C   0  0  0  0  0  0  0  0  0  0  0  0
  140.6070   76.1620  222.0100 N   0  0  0  0  0  0  0  0  0  0  0  0
  139.4070   76.8570  222.4520 C   0  0  0  0  0  0  0  0  0  0  0  0
  139.5190   78.3220  222.2330 C   0  0  0  0  0  0  0  0  0  0  0  0
  138.5060   79.0530  221.9850 O   0  0  0  0  0  0  0  0  0  0  0  0
  140.8100   78.8980  222.3080 N   0  0  0  0  0  0  0  0  0  0  0  0
  141.8400   78.6980  223.3370 C   0  0  0  0  0  0  0  0  0  0  0  0
  142.3060   80.1460  223.5010 C   0  0  2  0  0  0  0  0  0  0  0  0
  141.2140   80.8520  224.0250 O   0  0  0  0  0  0  0  0  0  0  0  0
  142.5120   80.5250  222.0500 C   0  0  0  0  0  0  0  0  0  0  0  0
  141.3830   79.8300  221.3560 C   0  0  1  0  0  0  0  0  0  0  0  0
  141.8590   79.0010  220.2060 C   0  0  0  0  0  0  0  0  0  0  0  0
  141.9840   79.5630  218.9910 N   0  0  0  0  0  0  0  0  0  0  0  0
  142.4150   78.8390  217.9210 C   0  0  0  0  0  0  0  0  0  0  0  0
  142.7170   77.4990  218.1400 C   0  0  0  0  0  0  0  0  0  0  0  0
  143.2730   76.5640  216.7530 Cl  0  0  0  0  0  0  0  0  0  0  0  0
  142.5930   76.9060  219.3800 C   0  0  0  0  0  0  0  0  0  0  0  0
  142.1570   77.6950  220.4040 N   0  0  0  0  0  0  0  0  0  0  0  0
  141.5830   74.0020  221.1700 C   0  0  0  0  0  0  0  0  0  0  0  0
  141.3490   72.6790  220.8430 C   0  0  0  0  0  0  0  0  0  0  0  0
  142.3720   71.8440  220.3960 C   0  0  0  0  0  0  0  0  0  0  0  0
  143.6410   72.4170  220.2950 C   0  0  0  0  0  0  0  0  0  0  0  0
  144.6840   71.6160  219.8530 C   0  0  0  0  0  0  0  0  0  0  0  0
  145.9540   72.1780  219.7480 C   0  0  0  0  0  0  0  0  0  0  0  0
  146.1810   73.5150  220.0800 C   0  0  0  0  0  0  0  0  0  0  0  0
  145.1130   74.2800  220.5180 C   0  0  0  0  0  0  0  0  0  0  0  0
  143.8550   73.7440  220.6260 C   0  0  0  0  0  0  0  0  0  0  0  0
  142.8170   74.5150  221.0590 N   0  0  0  0  0  0  0  0  0  0  0  0
  141.5210   76.6360  221.9750 H   0  0  0  0  0  0  0  0  0  0  0  0
  138.5436   76.4754  221.8872 H   0  0  0  0  0  0  0  0  0  0  0  0
  139.2786   76.6763  223.5294 H   0  0  0  0  0  0  0  0  0  0  0  0
  141.4179   78.2934  224.2687 H   0  0  0  0  0  0  0  0  0  0  0  0
  142.6286   77.9754  223.0802 H   0  0  0  0  0  0  0  0  0  0  0  0
  143.1826   80.3241  224.1412 H   0  0  0  0  0  0  0  0  0  0  0  0
  140.3580   80.6080  223.6040 H   0  0  0  0  0  0  0  0  0  0  0  0
  142.4490   81.6147  221.9134 H   0  0  0  0  0  0  0  0  0  0  0  0
  143.5008   80.2373  221.6634 H   0  0  0  0  0  0  0  0  0  0  0  0
  140.6784   80.5917  220.9908 H   0  0  0  0  0  0  0  0  0  0  0  0
  142.5199   79.2948  216.9254 H   0  0  0  0  0  0  0  0  0  0  0  0
  142.8350   75.8443  219.5358 H   0  0  0  0  0  0  0  0  0  0  0  0
  140.3302   72.2753  220.9380 H   0  0  0  0  0  0  0  0  0  0  0  0
  142.1892   70.7907  220.1369 H   0  0  0  0  0  0  0  0  0  0  0  0
  144.5119   70.5615  219.5915 H   0  0  0  0  0  0  0  0  0  0  0  0
  146.7924   71.5580  219.3976 H   0  0  0  0  0  0  0  0  0  0  0  0
  147.1871   73.9516  219.9954 H   0  0  0  0  0  0  0  0  0  0  0  0
  145.2762   75.3349  220.7837 H   0  0  0  0  0  0  0  0  0  0  0  0
  1  2  2  0
  2  3  1  0
  3  4  1  0
  4  5  1  0
  5  6  2  0
  5  7  1  0
  7  8  1  0
  8  9  1  0
  9 10  1  0
  9 11  1  0
 11 12  1  0
 12 13  1  0
 13 14  2  0
 14 15  1  0
 15 16  2  0
 16 17  1  0
 16 18  1  0
 18 19  2  0
  2 20  1  0
 20 21  2  0
 21 22  1  0
 22 23  2  0
 23 24  1  0
 24 25  2  0
 25 26  1  0
 26 27  2  0
 27 28  1  0
 28 29  2  0
 12  7  1  0
 19 13  1  0
 29 20  1  0
 28 23  1  0
  3 30  1  0
  4 31  1  0
  4 32  1  0
  8 33  1  0
  8 34  1  0
  9 35  1  1
 10 36  1  0
 11 37  1  0
 11 38  1  0
 12 39  1  6
 15 40  1  0
 18 41  1  0
 21 42  1  0
 22 43  1  0
 24 44  1  0
 25 45  1  0
 26 46  1  0
 27 47  1  0
M  END
>  <smiles>  (44) 
O=C(NCC(=O)N1C[C@H](O)C[C@H]1c1ncc(Cl)cn1)c1ccc2ccccc2n1

>  <score_type>  (44) 
oracle

>  <origin>  (44) 
autodockgpu

>  <m_score__min__energy>  (44) 
-8.1999999999999993

>  <m_primary>  (44) 
energy

>  <rmsd>  (44) 
6.171760810437682

>  <m_score__min__rmsd>  (44) 
6.171760810437682

>  <meeko>  (44) 
{"free_energy": -6.53, "intermolecular_energy": -8.32, "internal_energy": -2.89, "cluster_size": 5, "cluster_id": 8, "rank_in_cluster": 1}

>  <energy>  (44) 
-6.73

>  <cluster_rmsd>  (44) 
0.64

>  <cluster>  (44) 
7

$$$$

     RDKit          3D

 47 50  0  0  0  0  0  0  0  0999 V2000
  139.4820   74.5090  222.3490 O   0  0  0  0  0  0  0  0  0  0  0  0
  140.3160   74.9060  221.4740 C   0  0  0  0  0  0  0  0  0  0  0  0
  140.0520   76.1650  220.8540 N   0  0  0  0  0  0  0  0  0  0  0  0
  138.8510   76.8630  221.2900 C   0  0  0  0  0  0  0  0  0  0  0  0
  139.1710   77.9280  222.2740 C   0  0  0  0  0  0  0  0  0  0  0  0
  138.3190   78.3510  223.1220 O   0  0  0  0  0  0  0  0  0  0  0  0
  140.4760   78.4750  222.2450 N   0  0  0  0  0  0  0  0  0  0  0  0
  141.5660   78.2850  223.2120 C   0  0  0  0  0  0  0  0  0  0  0  0
  142.0740   79.7260  223.2930 C   0  0  2  0  0  0  0  0  0  0  0  0
  141.0350   80.4770  223.8600 O   0  0  0  0  0  0  0  0  0  0  0  0
  142.1940   80.0490  221.8190 C   0  0  0  0  0  0  0  0  0  0  0  0
  141.0070   79.3590  221.2250 C   0  0  1  0  0  0  0  0  0  0  0  0
  141.3880   78.4780  220.0770 C   0  0  0  0  0  0  0  0  0  0  0  0
  140.6020   78.4350  218.9870 N   0  0  0  0  0  0  0  0  0  0  0  0
  140.9180   77.6460  217.9230 C   0  0  0  0  0  0  0  0  0  0  0  0
  142.0820   76.8910  218.0150 C   0  0  0  0  0  0  0  0  0  0  0  0
  142.4880   75.8690  216.6360 Cl  0  0  0  0  0  0  0  0  0  0  0  0
  142.8990   76.9230  219.1260 C   0  0  0  0  0  0  0  0  0  0  0  0
  142.5180   77.7380  220.1520 N   0  0  0  0  0  0  0  0  0  0  0  0
  141.4930   74.1220  221.1120 C   0  0  0  0  0  0  0  0  0  0  0  0
  141.3180   72.7670  220.9010 C   0  0  0  0  0  0  0  0  0  0  0  0
  142.3820   71.9360  220.5520 C   0  0  0  0  0  0  0  0  0  0  0  0
  143.6300   72.5480  220.4260 C   0  0  0  0  0  0  0  0  0  0  0  0
  144.7130   71.7530  220.0800 C   0  0  0  0  0  0  0  0  0  0  0  0
  145.9630   72.3530  219.9520 C   0  0  0  0  0  0  0  0  0  0  0  0
  146.1310   73.7230  220.1660 C   0  0  0  0  0  0  0  0  0  0  0  0
  145.0250   74.4810  220.5110 C   0  0  0  0  0  0  0  0  0  0  0  0
  143.7860   73.9070  220.6410 C   0  0  0  0  0  0  0  0  0  0  0  0
  142.7090   74.6720  220.9810 N   0  0  0  0  0  0  0  0  0  0  0  0
  140.6740   76.5640  220.1360 H   0  0  0  0  0  0  0  0  0  0  0  0
  138.3642   77.3185  220.4151 H   0  0  0  0  0  0  0  0  0  0  0  0
  138.1830   76.1346  221.7729 H   0  0  0  0  0  0  0  0  0  0  0  0
  141.1966   77.9235  224.1830 H   0  0  0  0  0  0  0  0  0  0  0  0
  142.3197   77.5345  222.9314 H   0  0  0  0  0  0  0  0  0  0  0  0
  142.9941   79.9043  223.8689 H   0  0  0  0  0  0  0  0  0  0  0  0
  140.1510   80.0570  223.7520 H   0  0  0  0  0  0  0  0  0  0  0  0
  142.1471   81.1345  221.6471 H   0  0  0  0  0  0  0  0  0  0  0  0
  143.1488   79.7234  221.3804 H   0  0  0  0  0  0  0  0  0  0  0  0
  140.2979   80.1253  220.8786 H   0  0  0  0  0  0  0  0  0  0  0  0
  140.2792   77.6076  217.0283 H   0  0  0  0  0  0  0  0  0  0  0  0
  143.8164   76.3187  219.1824 H   0  0  0  0  0  0  0  0  0  0  0  0
  140.3132   72.3331  221.0113 H   0  0  0  0  0  0  0  0  0  0  0  0
  142.2452   70.8574  220.3852 H   0  0  0  0  0  0  0  0  0  0  0  0
  144.5871   70.6734  219.9107 H   0  0  0  0  0  0  0  0  0  0  0  0
  146.8327   71.7378  219.6778 H   0  0  0  0  0  0  0  0  0  0  0  0
  147.1215   74.1900  220.0626 H   0  0  0  0  0  0  0  0  0  0  0  0
  145.1418   75.5611  220.6837 H   0  0  0  0  0  0  0  0  0  0  0  0
  1  2  2  0
  2  3  1  0
  3  4  1  0
  4  5  1  0
  5  6  2  0
  5  7  1  0
  7  8  1  0
  8  9  1  0
  9 10  1  0
  9 11  1  0
 11 12  1  0
 12 13  1  0
 13 14  2  0
 14 15  1  0
 15 16  2  0
 16 17  1  0
 16 18  1  0
 18 19  2  0
  2 20  1  0
 20 21  2  0
 21 22  1  0
 22 23  2  0
 23 24  1  0
 24 25  2  0
 25 26  1  0
 26 27  2  0
 27 28  1  0
 28 29  2  0
 12  7  1  0
 19 13  1  0
 29 20  1  0
 28 23  1  0
  3 30  1  0
  4 31  1  0
  4 32  1  0
  8 33  1  0
  8 34  1  0
  9 35  1  1
 10 36  1  0
 11 37  1  0
 11 38  1  0
 12 39  1  6
 15 40  1  0
 18 41  1  0
 21 42  1  0
 22 43  1  0
 24 44  1  0
 25 45  1  0
 26 46  1  0
 27 47  1  0
M  END
>  <smiles>  (45) 
O=C(NCC(=O)N1C[C@H](O)C[C@H]1c1ncc(Cl)cn1)c1ccc2ccccc2n1

>  <score_type>  (45) 
oracle

>  <origin>  (45) 
autodockgpu

>  <m_score__min__energy>  (45) 
-8.1999999999999993

>  <m_primary>  (45) 
energy

>  <rmsd>  (45) 
6.019984425392349

>  <m_score__min__rmsd>  (45) 
6.019984425392349

>  <meeko>  (45) 
{"free_energy": -5.73, "intermolecular_energy": -7.52, "internal_energy": -3.62, "cluster_size": 5, "cluster_id": 8, "rank_in_cluster": 4}

>  <energy>  (45) 
-6.53

>  <cluster_rmsd>  (45) 
0.0

>  <cluster>  (45) 
8

$$$$

     RDKit          3D

 47 50  0  0  0  0  0  0  0  0999 V2000
  140.4300   72.1800  221.6430 O   0  0  0  0  0  0  0  0  0  0  0  0
  139.5540   72.1810  222.5650 C   0  0  0  0  0  0  0  0  0  0  0  0
  138.3930   72.9860  222.3530 N   0  0  0  0  0  0  0  0  0  0  0  0
  138.3360   73.7240  221.0990 C   0  0  0  0  0  0  0  0  0  0  0  0
  138.9290   75.0780  221.2410 C   0  0  0  0  0  0  0  0  0  0  0  0
  138.3800   75.9930  221.9370 O   0  0  0  0  0  0  0  0  0  0  0  0
  140.1470   75.3330  220.5680 N   0  0  0  0  0  0  0  0  0  0  0  0
  140.3900   75.4230  219.1210 C   0  0  0  0  0  0  0  0  0  0  0  0
  141.7010   74.6370  219.0450 C   0  0  2  0  0  0  0  0  0  0  0  0
  141.3910   73.3200  219.4150 O   0  0  0  0  0  0  0  0  0  0  0  0
  142.4800   75.3110  220.1550 C   0  0  0  0  0  0  0  0  0  0  0  0
  141.4350   75.5620  221.1950 C   0  0  1  0  0  0  0  0  0  0  0  0
  141.4250   76.9880  221.6460 C   0  0  0  0  0  0  0  0  0  0  0  0
  141.0660   77.2810  222.9080 N   0  0  0  0  0  0  0  0  0  0  0  0
  141.0460   78.5680  223.3530 C   0  0  0  0  0  0  0  0  0  0  0  0
  141.4110   79.5600  222.4480 C   0  0  0  0  0  0  0  0  0  0  0  0
  141.3830   81.2250  223.0270 Cl  0  0  0  0  0  0  0  0  0  0  0  0
  141.7810   79.2760  221.1500 C   0  0  0  0  0  0  0  0  0  0  0  0
  141.7780   77.9640  220.7770 N   0  0  0  0  0  0  0  0  0  0  0  0
  139.7140   71.4000  223.7880 C   0  0  0  0  0  0  0  0  0  0  0  0
  139.2300   70.1050  223.7860 C   0  0  0  0  0  0  0  0  0  0  0  0
  139.3370   69.2820  224.9070 C   0  0  0  0  0  0  0  0  0  0  0  0
  139.9590   69.8370  226.0270 C   0  0  0  0  0  0  0  0  0  0  0  0
  140.0820   69.0470  227.1610 C   0  0  0  0  0  0  0  0  0  0  0  0
  140.7020   69.5910  228.2840 C   0  0  0  0  0  0  0  0  0  0  0  0
  141.1870   70.9000  228.2770 C   0  0  0  0  0  0  0  0  0  0  0  0
  141.0430   71.6550  227.1250 C   0  0  0  0  0  0  0  0  0  0  0  0
  140.4370   71.1360  226.0090 C   0  0  0  0  0  0  0  0  0  0  0  0
  140.3050   71.8970  224.8850 N   0  0  0  0  0  0  0  0  0  0  0  0
  137.6340   73.0470  223.0470 H   0  0  0  0  0  0  0  0  0  0  0  0
  138.8930   73.1679  220.3306 H   0  0  0  0  0  0  0  0  0  0  0  0
  137.2805   73.8363  220.8105 H   0  0  0  0  0  0  0  0  0  0  0  0
  139.5888   74.9449  218.5383 H   0  0  0  0  0  0  0  0  0  0  0  0
  140.4274   76.4433  218.7117 H   0  0  0  0  0  0  0  0  0  0  0  0
  142.2223   74.6187  218.0765 H   0  0  0  0  0  0  0  0  0  0  0  0
  140.9860   73.2560  220.3100 H   0  0  0  0  0  0  0  0  0  0  0  0
  143.2707   74.6506  220.5404 H   0  0  0  0  0  0  0  0  0  0  0  0
  142.9955   76.2263  219.8288 H   0  0  0  0  0  0  0  0  0  0  0  0
  141.6390   74.9080  222.0556 H   0  0  0  0  0  0  0  0  0  0  0  0
  140.7536   78.8131  224.3847 H   0  0  0  0  0  0  0  0  0  0  0  0
  142.0659   80.0724  220.4467 H   0  0  0  0  0  0  0  0  0  0  0  0
  138.7485   69.7139  222.8776 H   0  0  0  0  0  0  0  0  0  0  0  0
  138.9522   68.2515  224.9086 H   0  0  0  0  0  0  0  0  0  0  0  0
  139.6992   68.0158  227.1732 H   0  0  0  0  0  0  0  0  0  0  0  0
  140.8111   68.9787  229.1913 H   0  0  0  0  0  0  0  0  0  0  0  0
  141.6736   71.3231  229.1682 H   0  0  0  0  0  0  0  0  0  0  0  0
  141.4208   72.6879  227.1045 H   0  0  0  0  0  0  0  0  0  0  0  0
  1  2  2  0
  2  3  1  0
  3  4  1  0
  4  5  1  0
  5  6  2  0
  5  7  1  0
  7  8  1  0
  8  9  1  0
  9 10  1  0
  9 11  1  0
 11 12  1  0
 12 13  1  0
 13 14  2  0
 14 15  1  0
 15 16  2  0
 16 17  1  0
 16 18  1  0
 18 19  2  0
  2 20  1  0
 20 21  2  0
 21 22  1  0
 22 23  2  0
 23 24  1  0
 24 25  2  0
 25 26  1  0
 26 27  2  0
 27 28  1  0
 28 29  2  0
 12  7  1  0
 19 13  1  0
 29 20  1  0
 28 23  1  0
  3 30  1  0
  4 31  1  0
  4 32  1  0
  8 33  1  0
  8 34  1  0
  9 35  1  6
 10 36  1  0
 11 37  1  0
 11 38  1  0
 12 39  1  1
 15 40  1  0
 18 41  1  0
 21 42  1  0
 22 43  1  0
 24 44  1  0
 25 45  1  0
 26 46  1  0
 27 47  1  0
M  END
>  <smiles>  (46) 
O=C(NCC(=O)N1C[C@H](O)C[C@H]1c1ncc(Cl)cn1)c1ccc2ccccc2n1

>  <score_type>  (46) 
oracle

>  <origin>  (46) 
autodockgpu

>  <m_score__min__energy>  (46) 
-8.1999999999999993

>  <m_primary>  (46) 
energy

>  <rmsd>  (46) 
1.6656112110952026

>  <m_score__min__rmsd>  (46) 
1.6656112110952026

>  <meeko>  (46) 
{"free_energy": -7.38, "intermolecular_energy": -9.17, "internal_energy": -2.26, "cluster_size": 9, "cluster_id": 2, "rank_in_cluster": 7}

>  <energy>  (46) 
-6.51

>  <cluster_rmsd>  (46) 
0.17

>  <cluster>  (46) 
8

$$$$

     RDKit          3D

 47 50  0  0  0  0  0  0  0  0999 V2000
  139.8280   73.9280  222.3500 O   0  0  0  0  0  0  0  0  0  0  0  0
  140.4380   72.8120  222.3110 C   0  0  0  0  0  0  0  0  0  0  0  0
  141.3710   72.6220  221.2470 N   0  0  0  0  0  0  0  0  0  0  0  0
  141.5260   73.7300  220.3160 C   0  0  0  0  0  0  0  0  0  0  0  0
  142.9590   74.0150  220.0470 C   0  0  0  0  0  0  0  0  0  0  0  0
  143.4240   75.2010  220.0180 O   0  0  0  0  0  0  0  0  0  0  0  0
  143.8150   72.9110  219.8210 N   0  0  0  0  0  0  0  0  0  0  0  0
  144.8590   72.3700  220.7010 C   0  0  0  0  0  0  0  0  0  0  0  0
  145.9510   72.1180  219.6590 C   0  0  2  0  0  0  0  0  0  0  0  0
  146.3220   73.3780  219.1680 O   0  0  0  0  0  0  0  0  0  0  0  0
  145.1510   71.3750  218.6110 C   0  0  0  0  0  0  0  0  0  0  0  0
  143.8290   72.0740  218.6360 C   0  0  1  0  0  0  0  0  0  0  0  0
  142.6920   71.1150  218.7980 C   0  0  0  0  0  0  0  0  0  0  0  0
  142.6970   70.2500  219.8260 N   0  0  0  0  0  0  0  0  0  0  0  0
  141.6780   69.3630  220.0060 C   0  0  0  0  0  0  0  0  0  0  0  0
  140.6400   69.3940  219.0800 C   0  0  0  0  0  0  0  0  0  0  0  0
  139.3230   68.2450  219.3140 Cl  0  0  0  0  0  0  0  0  0  0  0  0
  140.6200   70.2750  218.0190 C   0  0  0  0  0  0  0  0  0  0  0  0
  141.6740   71.1330  217.9060 N   0  0  0  0  0  0  0  0  0  0  0  0
  140.2050   71.7650  223.3020 C   0  0  0  0  0  0  0  0  0  0  0  0
  139.4840   70.6560  222.9010 C   0  0  0  0  0  0  0  0  0  0  0  0
  139.2100   69.6040  223.7760 C   0  0  0  0  0  0  0  0  0  0  0  0
  139.7050   69.7350  225.0750 C   0  0  0  0  0  0  0  0  0  0  0  0
  139.4520   68.7090  225.9730 C   0  0  0  0  0  0  0  0  0  0  0  0
  139.9410   68.8290  227.2720 C   0  0  0  0  0  0  0  0  0  0  0  0
  140.6680   69.9530  227.6690 C   0  0  0  0  0  0  0  0  0  0  0  0
  140.8980   70.9550  226.7410 C   0  0  0  0  0  0  0  0  0  0  0  0
  140.4250   70.8540  225.4580 C   0  0  0  0  0  0  0  0  0  0  0  0
  140.6620   71.8530  224.5590 N   0  0  0  0  0  0  0  0  0  0  0  0
  141.9090   71.7500  221.1380 H   0  0  0  0  0  0  0  0  0  0  0  0
  141.0280   73.4743  219.3691 H   0  0  0  0  0  0  0  0  0  0  0  0
  141.0731   74.6260  220.7654 H   0  0  0  0  0  0  0  0  0  0  0  0
  145.1756   73.0996  221.4609 H   0  0  0  0  0  0  0  0  0  0  0  0
  144.5651   71.4933  221.2969 H   0  0  0  0  0  0  0  0  0  0  0  0
  146.8553   71.5886  219.9936 H   0  0  0  0  0  0  0  0  0  0  0  0
  145.6430   74.0720  219.3320 H   0  0  0  0  0  0  0  0  0  0  0  0
  145.6232   71.4583  217.6210 H   0  0  0  0  0  0  0  0  0  0  0  0
  145.0738   70.2959  218.8101 H   0  0  0  0  0  0  0  0  0  0  0  0
  143.7102   72.6262  217.6921 H   0  0  0  0  0  0  0  0  0  0  0  0
  141.6763   68.6536  220.8467 H   0  0  0  0  0  0  0  0  0  0  0  0
  139.7909   70.2851  217.2962 H   0  0  0  0  0  0  0  0  0  0  0  0
  139.1167   70.6013  221.8656 H   0  0  0  0  0  0  0  0  0  0  0  0
  138.6359   68.7205  223.4599 H   0  0  0  0  0  0  0  0  0  0  0  0
  138.8788   67.8214  225.6669 H   0  0  0  0  0  0  0  0  0  0  0  0
  139.7510   68.0243  227.9975 H   0  0  0  0  0  0  0  0  0  0  0  0
  141.0499   70.0408  228.6968 H   0  0  0  0  0  0  0  0  0  0  0  0
  141.4696   71.8466  227.0381 H   0  0  0  0  0  0  0  0  0  0  0  0
  1  2  2  0
  2  3  1  0
  3  4  1  0
  4  5  1  0
  5  6  2  0
  5  7  1  0
  7  8  1  0
  8  9  1  0
  9 10  1  0
  9 11  1  0
 11 12  1  0
 12 13  1  0
 13 14  2  0
 14 15  1  0
 15 16  2  0
 16 17  1  0
 16 18  1  0
 18 19  2  0
  2 20  1  0
 20 21  2  0
 21 22  1  0
 22 23  2  0
 23 24  1  0
 24 25  2  0
 25 26  1  0
 26 27  2  0
 27 28  1  0
 28 29  2  0
 12  7  1  0
 19 13  1  0
 29 20  1  0
 28 23  1  0
  3 30  1  0
  4 31  1  0
  4 32  1  0
  8 33  1  0
  8 34  1  0
  9 35  1  1
 10 36  1  0
 11 37  1  0
 11 38  1  0
 12 39  1  6
 15 40  1  0
 18 41  1  0
 21 42  1  0
 22 43  1  0
 24 44  1  0
 25 45  1  0
 26 46  1  0
 27 47  1  0
M  END
>  <smiles>  (47) 
O=C(NCC(=O)N1C[C@H](O)C[C@H]1c1ncc(Cl)cn1)c1ccc2ccccc2n1

>  <score_type>  (47) 
oracle

>  <origin>  (47) 
autodockgpu

>  <m_score__min__energy>  (47) 
-8.1999999999999993

>  <m_primary>  (47) 
energy

>  <rmsd>  (47) 
5.733759481314666

>  <m_score__min__rmsd>  (47) 
5.733759481314666

>  <meeko>  (47) 
{"free_energy": -6.6, "intermolecular_energy": -8.39, "internal_energy": -2.8, "cluster_size": 12, "cluster_id": 5, "rank_in_cluster": 4}

>  <energy>  (47) 
-6.06

>  <cluster_rmsd>  (47) 
0.45

>  <cluster>  (47) 
8

$$$$

     RDKit          3D

 47 50  0  0  0  0  0  0  0  0999 V2000
  138.8220   72.4360  221.7950 O   0  0  0  0  0  0  0  0  0  0  0  0
  139.8900   72.2040  222.4470 C   0  0  0  0  0  0  0  0  0  0  0  0
  141.1020   72.7420  221.9150 N   0  0  0  0  0  0  0  0  0  0  0  0
  140.9850   73.5000  220.6770 C   0  0  0  0  0  0  0  0  0  0  0  0
  141.1530   74.9570  220.9170 C   0  0  0  0  0  0  0  0  0  0  0  0
  142.2650   75.5520  220.7400 O   0  0  0  0  0  0  0  0  0  0  0  0
  140.0210   75.6830  221.3570 N   0  0  0  0  0  0  0  0  0  0  0  0
  139.0150   75.2900  222.3530 C   0  0  0  0  0  0  0  0  0  0  0  0
  137.7540   75.7590  221.6240 C   0  0  2  0  0  0  0  0  0  0  0  0
  137.6480   74.9640  220.4740 O   0  0  0  0  0  0  0  0  0  0  0  0
  138.1740   77.1620  221.2410 C   0  0  0  0  0  0  0  0  0  0  0  0
  139.6190   76.9970  220.8930 C   0  0  1  0  0  0  0  0  0  0  0  0
  140.4860   77.9730  221.6240 C   0  0  0  0  0  0  0  0  0  0  0  0
  140.7530   77.7740  222.9270 N   0  0  0  0  0  0  0  0  0  0  0  0
  141.5390   78.6400  223.6250 C   0  0  0  0  0  0  0  0  0  0  0  0
  142.0480   79.7340  222.9330 C   0  0  0  0  0  0  0  0  0  0  0  0
  143.0640   80.8550  223.8390 Cl  0  0  0  0  0  0  0  0  0  0  0  0
  141.7840   79.9530  221.5970 C   0  0  0  0  0  0  0  0  0  0  0  0
  140.9900   79.0420  220.9640 N   0  0  0  0  0  0  0  0  0  0  0  0
  139.8920   71.4280  223.6830 C   0  0  0  0  0  0  0  0  0  0  0  0
  139.2490   70.2030  223.6690 C   0  0  0  0  0  0  0  0  0  0  0  0
  139.1980   69.3900  224.8010 C   0  0  0  0  0  0  0  0  0  0  0  0
  139.8310   69.8800  225.9450 C   0  0  0  0  0  0  0  0  0  0  0  0
  139.7990   69.0980  227.0900 C   0  0  0  0  0  0  0  0  0  0  0  0
  140.4280   69.5770  228.2380 C   0  0  0  0  0  0  0  0  0  0  0  0
  141.0750   70.8140  228.2430 C   0  0  0  0  0  0  0  0  0  0  0  0
  141.0820   71.5640  227.0790 C   0  0  0  0  0  0  0  0  0  0  0  0
  140.4700   71.1080  225.9390 C   0  0  0  0  0  0  0  0  0  0  0  0
  140.4880   71.8620  224.8030 N   0  0  0  0  0  0  0  0  0  0  0  0
  142.0120   72.6050  222.3760 H   0  0  0  0  0  0  0  0  0  0  0  0
  141.7608   73.1609  219.9747 H   0  0  0  0  0  0  0  0  0  0  0  0
  139.9812   73.3306  220.2602 H   0  0  0  0  0  0  0  0  0  0  0  0
  139.0101   74.2038  222.5269 H   0  0  0  0  0  0  0  0  0  0  0  0
  139.1603   75.7079  223.3601 H   0  0  0  0  0  0  0  0  0  0  0  0
  136.8041   75.7097  222.1766 H   0  0  0  0  0  0  0  0  0  0  0  0
  138.0020   74.0550  220.5980 H   0  0  0  0  0  0  0  0  0  0  0  0
  137.5982   77.5251  220.3770 H   0  0  0  0  0  0  0  0  0  0  0  0
  138.0016   77.8993  222.0389 H   0  0  0  0  0  0  0  0  0  0  0  0
  139.7331   77.1462  219.8092 H   0  0  0  0  0  0  0  0  0  0  0  0
  141.7618   78.4811  224.6904 H   0  0  0  0  0  0  0  0  0  0  0  0
  142.1955   80.8237  221.0655 H   0  0  0  0  0  0  0  0  0  0  0  0
  138.7658   69.8617  222.7416 H   0  0  0  0  0  0  0  0  0  0  0  0
  138.6870   68.4159  224.7930 H   0  0  0  0  0  0  0  0  0  0  0  0
  139.2895   68.1231  227.0921 H   0  0  0  0  0  0  0  0  0  0  0  0
  140.4143   68.9701  229.1554 H   0  0  0  0  0  0  0  0  0  0  0  0
  141.5691   71.1853  229.1529 H   0  0  0  0  0  0  0  0  0  0  0  0
  141.5865   72.5414  227.0682 H   0  0  0  0  0  0  0  0  0  0  0  0
  1  2  2  0
  2  3  1  0
  3  4  1  0
  4  5  1  0
  5  6  2  0
  5  7  1  0
  7  8  1  0
  8  9  1  0
  9 10  1  0
  9 11  1  0
 11 12  1  0
 12 13  1  0
 13 14  2  0
 14 15  1  0
 15 16  2  0
 16 17  1  0
 16 18  1  0
 18 19  2  0
  2 20  1  0
 20 21  2  0
 21 22  1  0
 22 23  2  0
 23 24  1  0
 24 25  2  0
 25 26  1  0
 26 27  2  0
 27 28  1  0
 28 29  2  0
 12  7  1  0
 19 13  1  0
 29 20  1  0
 28 23  1  0
  3 30  1  0
  4 31  1  0
  4 32  1  0
  8 33  1  0
  8 34  1  0
  9 35  1  1
 10 36  1  0
 11 37  1  0
 11 38  1  0
 12 39  1  6
 15 40  1  0
 18 41  1  0
 21 42  1  0
 22 43  1  0
 24 44  1  0
 25 45  1  0
 26 46  1  0
 27 47  1  0
M  END
>  <smiles>  (48) 
O=C(NCC(=O)N1C[C@H](O)C[C@H]1c1ncc(Cl)cn1)c1ccc2ccccc2n1

>  <score_type>  (48) 
oracle

>  <origin>  (48) 
autodockgpu

>  <m_score__min__energy>  (48) 
-8.1999999999999993

>  <m_primary>  (48) 
energy

>  <rmsd>  (48) 
2.555629928393836

>  <m_score__min__rmsd>  (48) 
2.555629928393836

>  <meeko>  (48) 
{"free_energy": -7.27, "intermolecular_energy": -9.06, "internal_energy": -2.2, "cluster_size": 9, "cluster_id": 2, "rank_in_cluster": 8}

>  <energy>  (48) 
-5.73

>  <cluster_rmsd>  (48) 
0.84

>  <cluster>  (48) 
8

$$$$

     RDKit          3D

 47 50  0  0  0  0  0  0  0  0999 V2000
  140.4460   72.1410  221.5260 O   0  0  0  0  0  0  0  0  0  0  0  0
  139.6190   72.1760  222.4930 C   0  0  0  0  0  0  0  0  0  0  0  0
  138.4920   73.0410  222.3480 N   0  0  0  0  0  0  0  0  0  0  0  0
  138.4090   73.7950  221.1050 C   0  0  0  0  0  0  0  0  0  0  0  0
  138.9680   75.1620  221.2630 C   0  0  0  0  0  0  0  0  0  0  0  0
  138.4600   76.0180  222.0570 O   0  0  0  0  0  0  0  0  0  0  0  0
  140.1070   75.4960  220.4930 N   0  0  0  0  0  0  0  0  0  0  0  0
  140.2040   75.6780  219.0380 C   0  0  0  0  0  0  0  0  0  0  0  0
  141.5220   74.9420  218.7870 C   0  0  2  0  0  0  0  0  0  0  0  0
  141.2850   73.5960  219.1030 O   0  0  0  0  0  0  0  0  0  0  0  0
  142.3870   75.5750  219.8560 C   0  0  0  0  0  0  0  0  0  0  0  0
  141.4440   75.7300  221.0060 C   0  0  1  0  0  0  0  0  0  0  0  0
  141.4390   77.1260  221.5420 C   0  0  0  0  0  0  0  0  0  0  0  0
  141.0870   77.3430  222.8210 N   0  0  0  0  0  0  0  0  0  0  0  0
  141.0720   78.6000  223.3440 C   0  0  0  0  0  0  0  0  0  0  0  0
  141.4350   79.6440  222.4990 C   0  0  0  0  0  0  0  0  0  0  0  0
  141.4140   81.2710  223.1790 Cl  0  0  0  0  0  0  0  0  0  0  0  0
  141.7990   79.4390  221.1840 C   0  0  0  0  0  0  0  0  0  0  0  0
  141.7910   78.1520  220.7320 N   0  0  0  0  0  0  0  0  0  0  0  0
  139.8010   71.3740  223.6990 C   0  0  0  0  0  0  0  0  0  0  0  0
  139.4440   70.0390  223.6380 C   0  0  0  0  0  0  0  0  0  0  0  0
  139.5810   69.1930  224.7380 C   0  0  0  0  0  0  0  0  0  0  0  0
  140.0990   69.7680  225.9000 C   0  0  0  0  0  0  0  0  0  0  0  0
  140.2490   68.9560  227.0150 C   0  0  0  0  0  0  0  0  0  0  0  0
  140.7650   69.5190  228.1810 C   0  0  0  0  0  0  0  0  0  0  0  0
  141.1230   70.8680  228.2330 C   0  0  0  0  0  0  0  0  0  0  0  0
  140.9560   71.6430  227.0990 C   0  0  0  0  0  0  0  0  0  0  0  0
  140.4510   71.1060  225.9420 C   0  0  0  0  0  0  0  0  0  0  0  0
  140.2950   71.8870  224.8350 N   0  0  0  0  0  0  0  0  0  0  0  0
  137.7730   73.1320  223.0810 H   0  0  0  0  0  0  0  0  0  0  0  0
  138.9757   73.2643  220.3258 H   0  0  0  0  0  0  0  0  0  0  0  0
  137.3493   73.8843  220.8239 H   0  0  0  0  0  0  0  0  0  0  0  0
  139.3627   75.2083  218.5074 H   0  0  0  0  0  0  0  0  0  0  0  0
  140.1732   76.7212  218.6905 H   0  0  0  0  0  0  0  0  0  0  0  0
  141.9464   74.9979  217.7737 H   0  0  0  0  0  0  0  0  0  0  0  0
  140.9420   73.4690  220.0170 H   0  0  0  0  0  0  0  0  0  0  0  0
  143.2296   74.9197  220.1216 H   0  0  0  0  0  0  0  0  0  0  0  0
  142.8420   76.5248  219.5383 H   0  0  0  0  0  0  0  0  0  0  0  0
  141.7500   75.0343  221.8012 H   0  0  0  0  0  0  0  0  0  0  0  0
  140.7851   78.7824  224.3901 H   0  0  0  0  0  0  0  0  0  0  0  0
  142.0830   80.2761  220.5293 H   0  0  0  0  0  0  0  0  0  0  0  0
  139.0417   69.6343  222.6976 H   0  0  0  0  0  0  0  0  0  0  0  0
  139.2967   68.1313  224.6927 H   0  0  0  0  0  0  0  0  0  0  0  0
  139.9674   67.8932  226.9796 H   0  0  0  0  0  0  0  0  0  0  0  0
  140.8923   68.8906  229.0748 H   0  0  0  0  0  0  0  0  0  0  0  0
  141.5295   71.3055  229.1568 H   0  0  0  0  0  0  0  0  0  0  0  0
  141.2327   72.7073  227.1256 H   0  0  0  0  0  0  0  0  0  0  0  0
  1  2  2  0
  2  3  1  0
  3  4  1  0
  4  5  1  0
  5  6  2  0
  5  7  1  0
  7  8  1  0
  8  9  1  0
  9 10  1  0
  9 11  1  0
 11 12  1  0
 12 13  1  0
 13 14  2  0
 14 15  1  0
 15 16  2  0
 16 17  1  0
 16 18  1  0
 18 19  2  0
  2 20  1  0
 20 21  2  0
 21 22  1  0
 22 23  2  0
 23 24  1  0
 24 25  2  0
 25 26  1  0
 26 27  2  0
 27 28  1  0
 28 29  2  0
 12  7  1  0
 19 13  1  0
 29 20  1  0
 28 23  1  0
  3 30  1  0
  4 31  1  0
  4 32  1  0
  8 33  1  0
  8 34  1  0
  9 35  1  6
 10 36  1  0
 11 37  1  0
 11 38  1  0
 12 39  1  1
 15 40  1  0
 18 41  1  0
 21 42  1  0
 22 43  1  0
 24 44  1  0
 25 45  1  0
 26 46  1  0
 27 47  1  0
M  END
>  <smiles>  (49) 
O=C(NCC(=O)N1C[C@H](O)C[C@H]1c1ncc(Cl)cn1)c1ccc2ccccc2n1

>  <score_type>  (49) 
oracle

>  <origin>  (49) 
autodockgpu

>  <m_score__min__energy>  (49) 
-8.1999999999999993

>  <m_primary>  (49) 
energy

>  <rmsd>  (49) 
1.5311559716507013

>  <m_score__min__rmsd>  (49) 
1.5311559716507013

>  <meeko>  (49) 
{"free_energy": -7.47, "intermolecular_energy": -9.26, "internal_energy": -2.22, "cluster_size": 9, "cluster_id": 2, "rank_in_cluster": 3}

>  <energy>  (49) 
-5.63

>  <cluster_rmsd>  (49) 
0.84

>  <cluster>  (49) 
8

$$$$

     RDKit          3D

 47 50  0  0  0  0  0  0  0  0999 V2000
  139.5720   74.8560  222.4090 O   0  0  0  0  0  0  0  0  0  0  0  0
  140.0090   75.8190  221.7020 C   0  0  0  0  0  0  0  0  0  0  0  0
  140.2930   75.5370  220.3310 N   0  0  0  0  0  0  0  0  0  0  0  0
  140.0530   74.1720  219.8870 C   0  0  0  0  0  0  0  0  0  0  0  0
  141.0050   73.2220  220.5170 C   0  0  0  0  0  0  0  0  0  0  0  0
  140.6460   72.3930  221.4140 O   0  0  0  0  0  0  0  0  0  0  0  0
  142.3520   73.2630  220.0860 N   0  0  0  0  0  0  0  0  0  0  0  0
  143.0600   72.3160  219.2140 C   0  0  0  0  0  0  0  0  0  0  0  0
  144.3830   72.2230  219.9790 C   0  0  2  0  0  0  0  0  0  0  0  0
  144.0820   71.6300  221.2130 O   0  0  0  0  0  0  0  0  0  0  0  0
  144.6790   73.6950  220.1760 C   0  0  0  0  0  0  0  0  0  0  0  0
  143.3270   74.2800  220.4330 C   0  0  1  0  0  0  0  0  0  0  0  0
  143.0420   75.4440  219.5390 C   0  0  0  0  0  0  0  0  0  0  0  0
  143.0700   75.2770  218.2050 N   0  0  0  0  0  0  0  0  0  0  0  0
  142.8140   76.3150  217.3600 C   0  0  0  0  0  0  0  0  0  0  0  0
  142.5260   77.5470  217.9370 C   0  0  0  0  0  0  0  0  0  0  0  0
  142.1960   78.8890  216.8410 Cl  0  0  0  0  0  0  0  0  0  0  0  0
  142.4930   77.7360  219.3030 C   0  0  0  0  0  0  0  0  0  0  0  0
  142.7580   76.6500  220.0850 N   0  0  0  0  0  0  0  0  0  0  0  0
  140.2140   77.1560  222.2530 C   0  0  0  0  0  0  0  0  0  0  0  0
  139.0910   77.8740  222.6200 C   0  0  0  0  0  0  0  0  0  0  0  0
  139.1850   79.1580  223.1560 C   0  0  0  0  0  0  0  0  0  0  0  0
  140.4740   79.6760  223.3000 C   0  0  0  0  0  0  0  0  0  0  0  0
  140.6070   80.9510  223.8290 C   0  0  0  0  0  0  0  0  0  0  0  0
  141.8880   81.4770  223.9780 C   0  0  0  0  0  0  0  0  0  0  0  0
  143.0160   80.7450  223.6050 C   0  0  0  0  0  0  0  0  0  0  0  0
  142.8400   79.4760  223.0800 C   0  0  0  0  0  0  0  0  0  0  0  0
  141.5860   78.9410  222.9270 C   0  0  0  0  0  0  0  0  0  0  0  0
  141.4340   77.6890  222.4080 N   0  0  0  0  0  0  0  0  0  0  0  0
  140.6490   76.2570  219.6850 H   0  0  0  0  0  0  0  0  0  0  0  0
  139.0268   73.8828  220.1578 H   0  0  0  0  0  0  0  0  0  0  0  0
  140.1949   74.1325  218.7969 H   0  0  0  0  0  0  0  0  0  0  0  0
  142.5471   71.3445  219.1588 H   0  0  0  0  0  0  0  0  0  0  0  0
  143.1450   72.6186  218.1599 H   0  0  0  0  0  0  0  0  0  0  0  0
  145.2004   71.6587  219.5064 H   0  0  0  0  0  0  0  0  0  0  0  0
  144.8700   71.5220  221.7920 H   0  0  0  0  0  0  0  0  0  0  0  0
  145.3473   73.8521  221.0354 H   0  0  0  0  0  0  0  0  0  0  0  0
  145.1923   74.1521  219.3172 H   0  0  0  0  0  0  0  0  0  0  0  0
  143.2838   74.6062  221.4826 H   0  0  0  0  0  0  0  0  0  0  0  0
  142.8343   76.1839  216.2680 H   0  0  0  0  0  0  0  0  0  0  0  0
  142.2634   78.7181  219.7420 H   0  0  0  0  0  0  0  0  0  0  0  0
  138.0977   77.4208  222.4857 H   0  0  0  0  0  0  0  0  0  0  0  0
  138.2931   79.7312  223.4492 H   0  0  0  0  0  0  0  0  0  0  0  0
  139.7216   81.5332  224.1240 H   0  0  0  0  0  0  0  0  0  0  0  0
  142.0127   82.4865  224.3968 H   0  0  0  0  0  0  0  0  0  0  0  0
  144.0244   81.1676  223.7256 H   0  0  0  0  0  0  0  0  0  0  0  0
  143.7197   78.8873  222.7808 H   0  0  0  0  0  0  0  0  0  0  0  0
  1  2  2  0
  2  3  1  0
  3  4  1  0
  4  5  1  0
  5  6  2  0
  5  7  1  0
  7  8  1  0
  8  9  1  0
  9 10  1  0
  9 11  1  0
 11 12  1  0
 12 13  1  0
 13 14  2  0
 14 15  1  0
 15 16  2  0
 16 17  1  0
 16 18  1  0
 18 19  2  0
  2 20  1  0
 20 21  2  0
 21 22  1  0
 22 23  2  0
 23 24  1  0
 24 25  2  0
 25 26  1  0
 26 27  2  0
 27 28  1  0
 28 29  2  0
 12  7  1  0
 19 13  1  0
 29 20  1  0
 28 23  1  0
  3 30  1  0
  4 31  1  0
  4 32  1  0
  8 33  1  0
  8 34  1  0
  9 35  1  6
 10 36  1  0
 11 37  1  0
 11 38  1  0
 12 39  1  1
 15 40  1  0
 18 41  1  0
 21 42  1  0
 22 43  1  0
 24 44  1  0
 25 45  1  0
 26 46  1  0
 27 47  1  0
M  END
>  <smiles>  (50) 
O=C(NCC(=O)N1C[C@H](O)C[C@H]1c1ncc(Cl)cn1)c1ccc2ccccc2n1

>  <score_type>  (50) 
oracle

>  <origin>  (50) 
autodockgpu

>  <m_score__min__energy>  (50) 
-8.1999999999999993

>  <m_primary>  (50) 
energy

>  <rmsd>  (50) 
7.301227329195662

>  <m_score__min__rmsd>  (50) 
7.301227329195662

>  <meeko>  (50) 
{"free_energy": -6.91, "intermolecular_energy": -8.7, "internal_energy": -2.54, "cluster_size": 6, "cluster_id": 6, "rank_in_cluster": 2}

>  <energy>  (50) 
-6.09

>  <cluster_rmsd>  (50) 
0.0

>  <cluster>  (50) 
9

$$$$
