
     RDKit          3D

 43 46  0  0  0  0  0  0  0  0999 V2000
  137.3400   73.8120  222.2550 O   0  0  0  0  0  0  0  0  0  0  0  0
  138.5800   73.9570  222.0480 C   0  0  0  0  0  0  0  0  0  0  0  0
  139.0380   75.2450  222.0010 C   0  0  0  0  0  0  0  0  0  0  0  0
  138.1940   76.3220  222.1650 C   0  0  0  0  0  0  0  0  0  0  0  0
  138.7660   77.5780  222.0970 C   0  0  0  0  0  0  0  0  0  0  0  0
  140.1310   77.7560  221.8750 C   0  0  0  0  0  0  0  0  0  0  0  0
  140.9670   76.6700  221.7140 C   0  0  0  0  0  0  0  0  0  0  0  0
  140.3780   75.4260  221.7840 C   0  0  0  0  0  0  0  0  0  0  0  0
  141.1360   74.3550  221.6360 N   0  0  0  0  0  0  0  0  0  0  0  0
  140.7030   73.0500  221.6780 C   0  0  0  0  0  0  0  0  0  0  0  0
  141.7380   72.0730  221.5170 C   0  0  0  0  0  0  0  0  0  0  0  0
  142.4860   71.7520  220.5170 C   0  0  0  0  0  0  0  0  0  0  0  0
  143.8300   72.3130  220.2610 C   0  0  0  0  0  0  0  0  0  0  0  0
  144.2040   73.5070  220.8500 C   0  0  0  0  0  0  0  0  0  0  0  0
  145.4270   74.0910  220.6650 C   0  0  0  0  0  0  0  0  0  0  0  0
  146.3170   73.4220  219.8340 C   0  0  0  0  0  0  0  0  0  0  0  0
  145.9780   72.2680  219.2550 N   0  0  0  0  0  0  0  0  0  0  0  0
  144.7590   71.7060  219.4530 C   0  0  0  0  0  0  0  0  0  0  0  0
  139.4030   72.8560  221.8880 N   0  0  0  0  0  0  0  0  0  0  0  0
  138.7310   71.6050  221.9880 C   0  0  0  0  0  0  0  0  0  0  0  0
  139.0220   70.7710  223.1620 C   0  0  0  0  0  0  0  0  0  0  0  0
  139.7870   71.2140  224.2470 C   0  0  0  0  0  0  0  0  0  0  0  0
  140.0850   70.4610  225.3360 C   0  0  0  0  0  0  0  0  0  0  0  0
  139.6370   69.1740  225.4430 C   0  0  0  0  0  0  0  0  0  0  0  0
  140.0390   68.2480  226.8470 Cl  0  0  0  0  0  0  0  0  0  0  0  0
  138.8770   68.6820  224.4030 C   0  0  0  0  0  0  0  0  0  0  0  0
  138.5720   69.4590  223.2800 C   0  0  0  0  0  0  0  0  0  0  0  0
  137.1165   76.1882  222.3416 H   0  0  0  0  0  0  0  0  0  0  0  0
  138.1256   78.4636  222.2217 H   0  0  0  0  0  0  0  0  0  0  0  0
  140.5461   78.7736  221.8277 H   0  0  0  0  0  0  0  0  0  0  0  0
  142.0463   76.7908  221.5391 H   0  0  0  0  0  0  0  0  0  0  0  0
  141.9327   71.4810  222.4234 H   0  0  0  0  0  0  0  0  0  0  0  0
  142.0973   71.0092  219.8048 H   0  0  0  0  0  0  0  0  0  0  0  0
  143.4786   74.0147  221.5027 H   0  0  0  0  0  0  0  0  0  0  0  0
  145.6924   75.0422  221.1496 H   0  0  0  0  0  0  0  0  0  0  0  0
  147.3141   73.8489  219.6508 H   0  0  0  0  0  0  0  0  0  0  0  0
  144.5125   70.7537  218.9607 H   0  0  0  0  0  0  0  0  0  0  0  0
  137.6504   71.8106  221.9895 H   0  0  0  0  0  0  0  0  0  0  0  0
  139.0974   71.0206  221.1311 H   0  0  0  0  0  0  0  0  0  0  0  0
  140.1733   72.2434  224.2149 H   0  0  0  0  0  0  0  0  0  0  0  0
  140.6952   70.8921  226.1434 H   0  0  0  0  0  0  0  0  0  0  0  0
  138.5000   67.6501  224.4577 H   0  0  0  0  0  0  0  0  0  0  0  0
  137.9638   69.0239  222.4733 H   0  0  0  0  0  0  0  0  0  0  0  0
  1  2  2  0
  2  3  1  0
  3  4  2  0
  4  5  1  0
  5  6  2  0
  6  7  1  0
  7  8  2  0
  8  9  1  0
  9 10  2  0
 10 11  1  0
 11 12  2  0
 12 13  1  0
 13 14  2  0
 14 15  1  0
 15 16  2  0
 16 17  1  0
 17 18  2  0
 10 19  1  0
 19 20  1  0
 20 21  1  0
 21 22  2  0
 22 23  1  0
 23 24  2  0
 24 25  1  0
 24 26  1  0
 26 27  2  0
 19  2  1  0
 27 21  1  0
  8  3  1  0
 18 13  1  0
  4 28  1  0
  5 29  1  0
  6 30  1  0
  7 31  1  0
 11 32  1  0
 12 33  1  0
 14 34  1  0
 15 35  1  0
 16 36  1  0
 18 37  1  0
 20 38  1  0
 20 39  1  0
 22 40  1  0
 23 41  1  0
 26 42  1  0
 27 43  1  0
M  END
>  <smiles>  (1) 
O=c1c2ccccc2nc(/C=C/c2cccnc2)n1Cc1ccc(Cl)cc1

>  <score_type>  (1) 
oracle

>  <origin>  (1) 
autodockgpu

>  <m_score__min__energy>  (1) 
-7.9100000000000001

>  <m_primary>  (1) 
energy

>  <rmsd>  (1) 
9.492994043918788

>  <m_score__min__rmsd>  (1) 
9.492994043918788

>  <meeko>  (1) 
{"free_energy": -7.54, "intermolecular_energy": -9.03, "internal_energy": -1.19, "cluster_size": 7, "cluster_id": 1, "rank_in_cluster": 6}

>  <energy>  (1) 
-7.91

>  <cluster_rmsd>  (1) 
0.0

>  <cluster>  (1) 
1

$$$$

     RDKit          3D

 43 46  0  0  0  0  0  0  0  0999 V2000
  140.0540   74.1570  221.8850 O   0  0  0  0  0  0  0  0  0  0  0  0
  140.7200   75.0270  221.2510 C   0  0  0  0  0  0  0  0  0  0  0  0
  141.9700   74.6490  220.8410 C   0  0  0  0  0  0  0  0  0  0  0  0
  142.4740   73.3960  221.1080 C   0  0  0  0  0  0  0  0  0  0  0  0
  143.7480   73.1240  220.6470 C   0  0  0  0  0  0  0  0  0  0  0  0
  144.4940   74.0680  219.9420 C   0  0  0  0  0  0  0  0  0  0  0  0
  143.9780   75.3210  219.6790 C   0  0  0  0  0  0  0  0  0  0  0  0
  142.7070   75.5730  220.1480 C   0  0  0  0  0  0  0  0  0  0  0  0
  142.1690   76.7580  219.9210 N   0  0  0  0  0  0  0  0  0  0  0  0
  140.9180   77.1630  220.3210 C   0  0  0  0  0  0  0  0  0  0  0  0
  140.5650   78.4920  219.9200 C   0  0  0  0  0  0  0  0  0  0  0  0
  141.1420   79.6330  220.0800 C   0  0  0  0  0  0  0  0  0  0  0  0
  141.6020   80.1650  221.3820 C   0  0  0  0  0  0  0  0  0  0  0  0
  142.4310   79.4040  222.1850 C   0  0  0  0  0  0  0  0  0  0  0  0
  142.8990   79.8240  223.4010 C   0  0  0  0  0  0  0  0  0  0  0  0
  142.5010   81.0870  223.8190 C   0  0  0  0  0  0  0  0  0  0  0  0
  141.7010   81.8390  223.0600 N   0  0  0  0  0  0  0  0  0  0  0  0
  141.2480   81.4030  221.8570 C   0  0  0  0  0  0  0  0  0  0  0  0
  140.1880   76.2790  220.9970 N   0  0  0  0  0  0  0  0  0  0  0  0
  138.8670   76.4630  221.4960 C   0  0  0  0  0  0  0  0  0  0  0  0
  138.6090   77.6610  222.3060 C   0  0  0  0  0  0  0  0  0  0  0  0
  137.3690   78.3090  222.3440 C   0  0  0  0  0  0  0  0  0  0  0  0
  137.1070   79.4260  223.0700 C   0  0  0  0  0  0  0  0  0  0  0  0
  138.0770   80.0060  223.8390 C   0  0  0  0  0  0  0  0  0  0  0  0
  137.7030   81.4280  224.7500 Cl  0  0  0  0  0  0  0  0  0  0  0  0
  139.3210   79.4110  223.8410 C   0  0  0  0  0  0  0  0  0  0  0  0
  139.5900   78.2610  223.0920 C   0  0  0  0  0  0  0  0  0  0  0  0
  141.8900   72.6465  221.6623 H   0  0  0  0  0  0  0  0  0  0  0  0
  144.1864   72.1341  220.8418 H   0  0  0  0  0  0  0  0  0  0  0  0
  145.5046   73.8113  219.5917 H   0  0  0  0  0  0  0  0  0  0  0  0
  144.5512   76.0784  219.1243 H   0  0  0  0  0  0  0  0  0  0  0  0
  139.6157   78.5499  219.3674 H   0  0  0  0  0  0  0  0  0  0  0  0
  141.3038   80.2546  219.1870 H   0  0  0  0  0  0  0  0  0  0  0  0
  142.7306   78.4077  221.8277 H   0  0  0  0  0  0  0  0  0  0  0  0
  143.5572   79.1927  224.0160 H   0  0  0  0  0  0  0  0  0  0  0  0
  142.8496   81.4728  224.7883 H   0  0  0  0  0  0  0  0  0  0  0  0
  140.5903   82.0487  221.2565 H   0  0  0  0  0  0  0  0  0  0  0  0
  138.1896   76.4985  220.6301 H   0  0  0  0  0  0  0  0  0  0  0  0
  138.7072   75.6197  222.1840 H   0  0  0  0  0  0  0  0  0  0  0  0
  136.5505   77.8841  221.7444 H   0  0  0  0  0  0  0  0  0  0  0  0
  136.1011   79.8700  223.0390 H   0  0  0  0  0  0  0  0  0  0  0  0
  140.1242   79.8533  224.4487 H   0  0  0  0  0  0  0  0  0  0  0  0
  140.5976   77.8210  223.1243 H   0  0  0  0  0  0  0  0  0  0  0  0
  1  2  2  0
  2  3  1  0
  3  4  2  0
  4  5  1  0
  5  6  2  0
  6  7  1  0
  7  8  2  0
  8  9  1  0
  9 10  2  0
 10 11  1  0
 11 12  2  0
 12 13  1  0
 13 14  2  0
 14 15  1  0
 15 16  2  0
 16 17  1  0
 17 18  2  0
 10 19  1  0
 19 20  1  0
 20 21  1  0
 21 22  2  0
 22 23  1  0
 23 24  2  0
 24 25  1  0
 24 26  1  0
 26 27  2  0
 19  2  1  0
 27 21  1  0
  8  3  1  0
 18 13  1  0
  4 28  1  0
  5 29  1  0
  6 30  1  0
  7 31  1  0
 11 32  1  0
 12 33  1  0
 14 34  1  0
 15 35  1  0
 16 36  1  0
 18 37  1  0
 20 38  1  0
 20 39  1  0
 22 40  1  0
 23 41  1  0
 26 42  1  0
 27 43  1  0
M  END
>  <smiles>  (2) 
O=c1c2ccccc2nc(/C=C/c2cccnc2)n1Cc1ccc(Cl)cc1

>  <score_type>  (2) 
oracle

>  <origin>  (2) 
autodockgpu

>  <m_score__min__energy>  (2) 
-7.9100000000000001

>  <m_primary>  (2) 
energy

>  <rmsd>  (2) 
4.588296719855626

>  <m_score__min__rmsd>  (2) 
4.588296719855626

>  <meeko>  (2) 
{"free_energy": -7.04, "intermolecular_energy": -8.53, "internal_energy": -1.89, "cluster_size": 23, "cluster_id": 7, "rank_in_cluster": 12}

>  <energy>  (2) 
-7.65

>  <cluster_rmsd>  (2) 
0.45

>  <cluster>  (2) 
1

$$$$

     RDKit          3D

 43 46  0  0  0  0  0  0  0  0999 V2000
  141.6320   71.1290  221.2270 O   0  0  0  0  0  0  0  0  0  0  0  0
  141.8170   72.3780  221.1440 C   0  0  0  0  0  0  0  0  0  0  0  0
  143.0640   72.7790  220.7490 C   0  0  0  0  0  0  0  0  0  0  0  0
  144.0610   71.8720  220.4630 C   0  0  0  0  0  0  0  0  0  0  0  0
  145.2830   72.3890  220.0740 C   0  0  0  0  0  0  0  0  0  0  0  0
  145.5020   73.7630  219.9720 C   0  0  0  0  0  0  0  0  0  0  0  0
  144.4950   74.6620  220.2600 C   0  0  0  0  0  0  0  0  0  0  0  0
  143.2860   74.1270  220.6460 C   0  0  0  0  0  0  0  0  0  0  0  0
  142.2910   74.9460  220.9320 N   0  0  0  0  0  0  0  0  0  0  0  0
  141.0290   74.5710  221.3310 C   0  0  0  0  0  0  0  0  0  0  0  0
  140.1260   75.6610  221.5500 C   0  0  0  0  0  0  0  0  0  0  0  0
  140.0700   76.5800  222.4530 C   0  0  0  0  0  0  0  0  0  0  0  0
  140.8690   77.8250  222.4310 C   0  0  0  0  0  0  0  0  0  0  0  0
  141.0570   78.5050  221.2410 C   0  0  0  0  0  0  0  0  0  0  0  0
  141.7800   79.6620  221.1380 C   0  0  0  0  0  0  0  0  0  0  0  0
  142.3430   80.1510  222.3100 C   0  0  0  0  0  0  0  0  0  0  0  0
  142.1740   79.5120  223.4690 N   0  0  0  0  0  0  0  0  0  0  0  0
  141.4520   78.3660  223.5500 C   0  0  0  0  0  0  0  0  0  0  0  0
  140.7970   73.2660  221.4370 N   0  0  0  0  0  0  0  0  0  0  0  0
  139.5720   72.6430  221.8140 C   0  0  0  0  0  0  0  0  0  0  0  0
  139.5750   71.8230  223.0330 C   0  0  0  0  0  0  0  0  0  0  0  0
  140.5800   71.8980  224.0050 C   0  0  0  0  0  0  0  0  0  0  0  0
  140.6170   71.1420  225.1320 C   0  0  0  0  0  0  0  0  0  0  0  0
  139.6370   70.2260  225.3950 C   0  0  0  0  0  0  0  0  0  0  0  0
  139.7210   69.2830  226.8410 Cl  0  0  0  0  0  0  0  0  0  0  0  0
  138.6200   70.1080  224.4700 C   0  0  0  0  0  0  0  0  0  0  0  0
  138.5830   70.8860  223.3090 C   0  0  0  0  0  0  0  0  0  0  0  0
  143.8927   70.7877  220.5405 H   0  0  0  0  0  0  0  0  0  0  0  0
  146.1055   71.6976  219.8384 H   0  0  0  0  0  0  0  0  0  0  0  0
  146.4888   74.1343  219.6584 H   0  0  0  0  0  0  0  0  0  0  0  0
  144.6499   75.7485  220.1852 H   0  0  0  0  0  0  0  0  0  0  0  0
  139.3229   75.7272  220.8012 H   0  0  0  0  0  0  0  0  0  0  0  0
  139.3813   76.4279  223.2971 H   0  0  0  0  0  0  0  0  0  0  0  0
  140.6007   78.0934  220.3286 H   0  0  0  0  0  0  0  0  0  0  0  0
  141.9089   80.1789  220.1756 H   0  0  0  0  0  0  0  0  0  0  0  0
  142.9359   81.0771  222.2822 H   0  0  0  0  0  0  0  0  0  0  0  0
  141.3326   77.8653  224.5222 H   0  0  0  0  0  0  0  0  0  0  0  0
  138.8268   73.4398  221.9547 H   0  0  0  0  0  0  0  0  0  0  0  0
  139.3558   71.9348  221.0005 H   0  0  0  0  0  0  0  0  0  0  0  0
  141.3953   72.6188  223.8445 H   0  0  0  0  0  0  0  0  0  0  0  0
  141.4467   71.2682  225.8431 H   0  0  0  0  0  0  0  0  0  0  0  0
  137.8149   69.3807  224.6513 H   0  0  0  0  0  0  0  0  0  0  0  0
  137.7530   70.7551  222.5990 H   0  0  0  0  0  0  0  0  0  0  0  0
  1  2  2  0
  2  3  1  0
  3  4  2  0
  4  5  1  0
  5  6  2  0
  6  7  1  0
  7  8  2  0
  8  9  1  0
  9 10  2  0
 10 11  1  0
 11 12  2  0
 12 13  1  0
 13 14  2  0
 14 15  1  0
 15 16  2  0
 16 17  1  0
 17 18  2  0
 10 19  1  0
 19 20  1  0
 20 21  1  0
 21 22  2  0
 22 23  1  0
 23 24  2  0
 24 25  1  0
 24 26  1  0
 26 27  2  0
 19  2  1  0
 27 21  1  0
  8  3  1  0
 18 13  1  0
  4 28  1  0
  5 29  1  0
  6 30  1  0
  7 31  1  0
 11 32  1  0
 12 33  1  0
 14 34  1  0
 15 35  1  0
 16 36  1  0
 18 37  1  0
 20 38  1  0
 20 39  1  0
 22 40  1  0
 23 41  1  0
 26 42  1  0
 27 43  1  0
M  END
>  <smiles>  (3) 
O=c1c2ccccc2nc(/C=C/c2cccnc2)n1Cc1ccc(Cl)cc1

>  <score_type>  (3) 
oracle

>  <origin>  (3) 
autodockgpu

>  <m_score__min__energy>  (3) 
-7.9100000000000001

>  <m_primary>  (3) 
energy

>  <rmsd>  (3) 
9.281567733687337

>  <m_score__min__rmsd>  (3) 
9.281567733687337

>  <meeko>  (3) 
{"free_energy": -7.63, "intermolecular_energy": -9.12, "internal_energy": -1.09, "cluster_size": 10, "cluster_id": 2, "rank_in_cluster": 10}

>  <energy>  (3) 
-7.61

>  <cluster_rmsd>  (3) 
0.33

>  <cluster>  (3) 
1

$$$$

     RDKit          3D

 43 46  0  0  0  0  0  0  0  0999 V2000
  140.0710   74.1160  221.9150 O   0  0  0  0  0  0  0  0  0  0  0  0
  140.7730   74.9770  221.3080 C   0  0  0  0  0  0  0  0  0  0  0  0
  142.0240   74.5750  220.9270 C   0  0  0  0  0  0  0  0  0  0  0  0
  142.4930   73.3080  221.1940 C   0  0  0  0  0  0  0  0  0  0  0  0
  143.7720   73.0120  220.7620 C   0  0  0  0  0  0  0  0  0  0  0  0
  144.5570   73.9470  220.0880 C   0  0  0  0  0  0  0  0  0  0  0  0
  144.0760   75.2140  219.8260 C   0  0  0  0  0  0  0  0  0  0  0  0
  142.8000   75.4890  220.2640 C   0  0  0  0  0  0  0  0  0  0  0  0
  142.2950   76.6880  220.0360 N   0  0  0  0  0  0  0  0  0  0  0  0
  141.0420   77.1170  220.4090 C   0  0  0  0  0  0  0  0  0  0  0  0
  140.7300   78.4580  220.0130 C   0  0  0  0  0  0  0  0  0  0  0  0
  141.3660   79.5730  220.1330 C   0  0  0  0  0  0  0  0  0  0  0  0
  141.7220   80.2010  221.4250 C   0  0  0  0  0  0  0  0  0  0  0  0
  142.5760   79.5510  222.2970 C   0  0  0  0  0  0  0  0  0  0  0  0
  142.9530   80.0630  223.5080 C   0  0  0  0  0  0  0  0  0  0  0  0
  142.4320   81.3050  223.8480 C   0  0  0  0  0  0  0  0  0  0  0  0
  141.6060   81.9510  223.0220 N   0  0  0  0  0  0  0  0  0  0  0  0
  141.2450   81.4240  221.8250 C   0  0  0  0  0  0  0  0  0  0  0  0
  140.2760   76.2430  221.0550 N   0  0  0  0  0  0  0  0  0  0  0  0
  138.9460   76.4520  221.5210 C   0  0  0  0  0  0  0  0  0  0  0  0
  138.6930   77.6500  222.3330 C   0  0  0  0  0  0  0  0  0  0  0  0
  137.4450   78.2830  222.3970 C   0  0  0  0  0  0  0  0  0  0  0  0
  137.1870   79.3990  223.1250 C   0  0  0  0  0  0  0  0  0  0  0  0
  138.1670   79.9950  223.8690 C   0  0  0  0  0  0  0  0  0  0  0  0
  137.7970   81.4150  224.7820 Cl  0  0  0  0  0  0  0  0  0  0  0  0
  139.4180   79.4140  223.8440 C   0  0  0  0  0  0  0  0  0  0  0  0
  139.6840   78.2650  223.0930 C   0  0  0  0  0  0  0  0  0  0  0  0
  141.8787   72.5666  221.7260 H   0  0  0  0  0  0  0  0  0  0  0  0
  144.1826   72.0100  220.9554 H   0  0  0  0  0  0  0  0  0  0  0  0
  145.5707   73.6718  219.7615 H   0  0  0  0  0  0  0  0  0  0  0  0
  144.6803   75.9644  219.2953 H   0  0  0  0  0  0  0  0  0  0  0  0
  139.7577   78.5553  219.5078 H   0  0  0  0  0  0  0  0  0  0  0  0
  141.6648   80.0937  219.2112 H   0  0  0  0  0  0  0  0  0  0  0  0
  142.9736   78.5691  222.0007 H   0  0  0  0  0  0  0  0  0  0  0  0
  143.6342   79.5188  224.1787 H   0  0  0  0  0  0  0  0  0  0  0  0
  142.7038   81.7623  224.8108 H   0  0  0  0  0  0  0  0  0  0  0  0
  140.5625   81.9831  221.1680 H   0  0  0  0  0  0  0  0  0  0  0  0
  138.2923   76.5081  220.6381 H   0  0  0  0  0  0  0  0  0  0  0  0
  138.7499   75.6075  222.1981 H   0  0  0  0  0  0  0  0  0  0  0  0
  136.6181   77.8460  221.8180 H   0  0  0  0  0  0  0  0  0  0  0  0
  136.1750   79.8301  223.1163 H   0  0  0  0  0  0  0  0  0  0  0  0
  140.2296   79.8677  224.4318 H   0  0  0  0  0  0  0  0  0  0  0  0
  140.6977   77.8380  223.1029 H   0  0  0  0  0  0  0  0  0  0  0  0
  1  2  2  0
  2  3  1  0
  3  4  2  0
  4  5  1  0
  5  6  2  0
  6  7  1  0
  7  8  2  0
  8  9  1  0
  9 10  2  0
 10 11  1  0
 11 12  2  0
 12 13  1  0
 13 14  2  0
 14 15  1  0
 15 16  2  0
 16 17  1  0
 17 18  2  0
 10 19  1  0
 19 20  1  0
 20 21  1  0
 21 22  2  0
 22 23  1  0
 23 24  2  0
 24 25  1  0
 24 26  1  0
 26 27  2  0
 19  2  1  0
 27 21  1  0
  8  3  1  0
 18 13  1  0
  4 28  1  0
  5 29  1  0
  6 30  1  0
  7 31  1  0
 11 32  1  0
 12 33  1  0
 14 34  1  0
 15 35  1  0
 16 36  1  0
 18 37  1  0
 20 38  1  0
 20 39  1  0
 22 40  1  0
 23 41  1  0
 26 42  1  0
 27 43  1  0
M  END
>  <smiles>  (4) 
O=c1c2ccccc2nc(/C=C/c2cccnc2)n1Cc1ccc(Cl)cc1

>  <score_type>  (4) 
oracle

>  <origin>  (4) 
autodockgpu

>  <m_score__min__energy>  (4) 
-7.9100000000000001

>  <m_primary>  (4) 
energy

>  <rmsd>  (4) 
4.627190706734004

>  <m_score__min__rmsd>  (4) 
4.627190706734004

>  <meeko>  (4) 
{"free_energy": -7.12, "intermolecular_energy": -8.61, "internal_energy": -1.85, "cluster_size": 23, "cluster_id": 7, "rank_in_cluster": 5}

>  <energy>  (4) 
-7.59

>  <cluster_rmsd>  (4) 
0.47

>  <cluster>  (4) 
1

$$$$

     RDKit          3D

 43 46  0  0  0  0  0  0  0  0999 V2000
  141.5080   71.1220  221.3280 O   0  0  0  0  0  0  0  0  0  0  0  0
  141.7020   72.3720  221.2820 C   0  0  0  0  0  0  0  0  0  0  0  0
  142.9140   72.7770  220.7930 C   0  0  0  0  0  0  0  0  0  0  0  0
  143.8680   71.8740  220.3780 C   0  0  0  0  0  0  0  0  0  0  0  0
  145.0560   72.3960  219.9020 C   0  0  0  0  0  0  0  0  0  0  0  0
  145.2850   73.7710  219.8410 C   0  0  0  0  0  0  0  0  0  0  0  0
  144.3210   74.6660  220.2580 C   0  0  0  0  0  0  0  0  0  0  0  0
  143.1440   74.1260  220.7290 C   0  0  0  0  0  0  0  0  0  0  0  0
  142.1910   74.9420  221.1400 N   0  0  0  0  0  0  0  0  0  0  0  0
  140.9650   74.5620  221.6360 C   0  0  0  0  0  0  0  0  0  0  0  0
  140.1000   75.6490  221.9840 C   0  0  0  0  0  0  0  0  0  0  0  0
  140.0620   76.8850  221.6190 C   0  0  0  0  0  0  0  0  0  0  0  0
  140.9570   77.9410  222.1410 C   0  0  0  0  0  0  0  0  0  0  0  0
  141.3860   78.9580  221.3070 C   0  0  0  0  0  0  0  0  0  0  0  0
  142.2120   79.9700  221.7130 C   0  0  0  0  0  0  0  0  0  0  0  0
  142.6230   79.9450  223.0400 C   0  0  0  0  0  0  0  0  0  0  0  0
  142.2210   78.9730  223.8620 N   0  0  0  0  0  0  0  0  0  0  0  0
  141.4010   77.9790  223.4390 C   0  0  0  0  0  0  0  0  0  0  0  0
  140.7250   73.2550  221.7060 N   0  0  0  0  0  0  0  0  0  0  0  0
  139.5310   72.6280  222.1650 C   0  0  0  0  0  0  0  0  0  0  0  0
  139.6290   71.7730  223.3550 C   0  0  0  0  0  0  0  0  0  0  0  0
  138.6760   70.8010  223.6820 C   0  0  0  0  0  0  0  0  0  0  0  0
  138.7320   70.0090  224.7820 C   0  0  0  0  0  0  0  0  0  0  0  0
  139.7640   70.1160  225.6730 C   0  0  0  0  0  0  0  0  0  0  0  0
  139.7980   69.0880  227.0620 Cl  0  0  0  0  0  0  0  0  0  0  0  0
  140.7340   71.0580  225.4020 C   0  0  0  0  0  0  0  0  0  0  0  0
  140.6750   71.8750  224.2690 C   0  0  0  0  0  0  0  0  0  0  0  0
  143.6926   70.7890  220.4233 H   0  0  0  0  0  0  0  0  0  0  0  0
  145.8435   71.7077  219.5615 H   0  0  0  0  0  0  0  0  0  0  0  0
  146.2449   74.1458  219.4561 H   0  0  0  0  0  0  0  0  0  0  0  0
  144.4835   75.7531  220.2166 H   0  0  0  0  0  0  0  0  0  0  0  0
  139.3141   75.3760  222.7036 H   0  0  0  0  0  0  0  0  0  0  0  0
  139.3124   77.1743  220.8677 H   0  0  0  0  0  0  0  0  0  0  0  0
  141.0446   78.9526  220.2613 H   0  0  0  0  0  0  0  0  0  0  0  0
  142.5347   80.7639  221.0234 H   0  0  0  0  0  0  0  0  0  0  0  0
  143.2877   80.7358  223.4179 H   0  0  0  0  0  0  0  0  0  0  0  0
  141.0884   77.1946  224.1440 H   0  0  0  0  0  0  0  0  0  0  0  0
  138.8062   73.4242  222.3900 H   0  0  0  0  0  0  0  0  0  0  0  0
  139.2424   71.9453  221.3522 H   0  0  0  0  0  0  0  0  0  0  0  0
  137.8229   70.6705  222.9999 H   0  0  0  0  0  0  0  0  0  0  0  0
  137.9363   69.2705  224.9597 H   0  0  0  0  0  0  0  0  0  0  0  0
  141.5788   71.1699  226.0975 H   0  0  0  0  0  0  0  0  0  0  0  0
  141.4713   72.6138  224.0958 H   0  0  0  0  0  0  0  0  0  0  0  0
  1  2  2  0
  2  3  1  0
  3  4  2  0
  4  5  1  0
  5  6  2  0
  6  7  1  0
  7  8  2  0
  8  9  1  0
  9 10  2  0
 10 11  1  0
 11 12  2  0
 12 13  1  0
 13 14  2  0
 14 15  1  0
 15 16  2  0
 16 17  1  0
 17 18  2  0
 10 19  1  0
 19 20  1  0
 20 21  1  0
 21 22  2  0
 22 23  1  0
 23 24  2  0
 24 25  1  0
 24 26  1  0
 26 27  2  0
 19  2  1  0
 27 21  1  0
  8  3  1  0
 18 13  1  0
  4 28  1  0
  5 29  1  0
  6 30  1  0
  7 31  1  0
 11 32  1  0
 12 33  1  0
 14 34  1  0
 15 35  1  0
 16 36  1  0
 18 37  1  0
 20 38  1  0
 20 39  1  0
 22 40  1  0
 23 41  1  0
 26 42  1  0
 27 43  1  0
M  END
>  <smiles>  (5) 
O=c1c2ccccc2nc(/C=C/c2cccnc2)n1Cc1ccc(Cl)cc1

>  <score_type>  (5) 
oracle

>  <origin>  (5) 
autodockgpu

>  <m_score__min__energy>  (5) 
-7.9100000000000001

>  <m_primary>  (5) 
energy

>  <rmsd>  (5) 
9.146614060189124

>  <m_score__min__rmsd>  (5) 
9.146614060189124

>  <meeko>  (5) 
{"free_energy": -7.63, "intermolecular_energy": -9.12, "internal_energy": -1.1, "cluster_size": 10, "cluster_id": 2, "rank_in_cluster": 9}

>  <energy>  (5) 
-7.57

>  <cluster_rmsd>  (5) 
0.32

>  <cluster>  (5) 
1

$$$$

     RDKit          3D

 43 46  0  0  0  0  0  0  0  0999 V2000
  140.2830   71.9660  224.9110 O   0  0  0  0  0  0  0  0  0  0  0  0
  139.6740   70.8570  224.9120 C   0  0  0  0  0  0  0  0  0  0  0  0
  139.9950   69.9930  225.9240 C   0  0  0  0  0  0  0  0  0  0  0  0
  140.9300   70.3130  226.8830 C   0  0  0  0  0  0  0  0  0  0  0  0
  141.1740   69.3640  227.8570 C   0  0  0  0  0  0  0  0  0  0  0  0
  140.5090   68.1380  227.8760 C   0  0  0  0  0  0  0  0  0  0  0  0
  139.5730   67.8290  226.9100 C   0  0  0  0  0  0  0  0  0  0  0  0
  139.3440   68.7880  225.9470 C   0  0  0  0  0  0  0  0  0  0  0  0
  138.4570   68.5390  225.0010 N   0  0  0  0  0  0  0  0  0  0  0  0
  138.1170   69.3870  223.9740 C   0  0  0  0  0  0  0  0  0  0  0  0
  137.1020   68.8850  223.0970 C   0  0  0  0  0  0  0  0  0  0  0  0
  135.8450   68.6470  223.2630 C   0  0  0  0  0  0  0  0  0  0  0  0
  135.0330   69.1720  224.3830 C   0  0  0  0  0  0  0  0  0  0  0  0
  135.0490   70.5240  224.6740 C   0  0  0  0  0  0  0  0  0  0  0  0
  134.3270   71.0870  225.6910 C   0  0  0  0  0  0  0  0  0  0  0  0
  133.5480   70.2250  226.4520 C   0  0  0  0  0  0  0  0  0  0  0  0
  133.5170   68.9170  226.1890 N   0  0  0  0  0  0  0  0  0  0  0  0
  134.2410   68.3790  225.1760 C   0  0  0  0  0  0  0  0  0  0  0  0
  138.7400   70.5620  223.9350 N   0  0  0  0  0  0  0  0  0  0  0  0
  138.5430   71.6030  222.9830 C   0  0  0  0  0  0  0  0  0  0  0  0
  139.7210   72.0800  222.2460 C   0  0  0  0  0  0  0  0  0  0  0  0
  140.7050   71.2240  221.7360 C   0  0  0  0  0  0  0  0  0  0  0  0
  141.8100   71.6360  221.0660 C   0  0  0  0  0  0  0  0  0  0  0  0
  142.0390   72.9650  220.8390 C   0  0  0  0  0  0  0  0  0  0  0  0
  143.4590   73.4490  219.9810 Cl  0  0  0  0  0  0  0  0  0  0  0  0
  141.1020   73.8560  221.3200 C   0  0  0  0  0  0  0  0  0  0  0  0
  139.9640   73.4300  222.0110 C   0  0  0  0  0  0  0  0  0  0  0  0
  141.4575   71.2782  226.8740 H   0  0  0  0  0  0  0  0  0  0  0  0
  141.9146   69.5817  228.6407 H   0  0  0  0  0  0  0  0  0  0  0  0
  140.7330   67.4097  228.6694 H   0  0  0  0  0  0  0  0  0  0  0  0
  139.0379   66.8679  226.9087 H   0  0  0  0  0  0  0  0  0  0  0  0
  137.4653   68.6580  222.0838 H   0  0  0  0  0  0  0  0  0  0  0  0
  135.3421   68.0098  222.5207 H   0  0  0  0  0  0  0  0  0  0  0  0
  135.6759   71.1822  224.0545 H   0  0  0  0  0  0  0  0  0  0  0  0
  134.3618   72.1673  225.8954 H   0  0  0  0  0  0  0  0  0  0  0  0
  132.9485   70.6258  227.2827 H   0  0  0  0  0  0  0  0  0  0  0  0
  134.1931   67.2963  224.9879 H   0  0  0  0  0  0  0  0  0  0  0  0
  137.8161   71.2387  222.2421 H   0  0  0  0  0  0  0  0  0  0  0  0
  138.2152   72.4683  223.5778 H   0  0  0  0  0  0  0  0  0  0  0  0
  140.5726   70.1428  221.8893 H   0  0  0  0  0  0  0  0  0  0  0  0
  142.5318   70.8909  220.7002 H   0  0  0  0  0  0  0  0  0  0  0  0
  141.2548   74.9328  221.1550 H   0  0  0  0  0  0  0  0  0  0  0  0
  139.2451   74.1779  222.3769 H   0  0  0  0  0  0  0  0  0  0  0  0
  1  2  2  0
  2  3  1  0
  3  4  2  0
  4  5  1  0
  5  6  2  0
  6  7  1  0
  7  8  2  0
  8  9  1  0
  9 10  2  0
 10 11  1  0
 11 12  2  0
 12 13  1  0
 13 14  2  0
 14 15  1  0
 15 16  2  0
 16 17  1  0
 17 18  2  0
 10 19  1  0
 19 20  1  0
 20 21  1  0
 21 22  2  0
 22 23  1  0
 23 24  2  0
 24 25  1  0
 24 26  1  0
 26 27  2  0
 19  2  1  0
 27 21  1  0
  8  3  1  0
 18 13  1  0
  4 28  1  0
  5 29  1  0
  6 30  1  0
  7 31  1  0
 11 32  1  0
 12 33  1  0
 14 34  1  0
 15 35  1  0
 16 36  1  0
 18 37  1  0
 20 38  1  0
 20 39  1  0
 22 40  1  0
 23 41  1  0
 26 42  1  0
 27 43  1  0
M  END
>  <smiles>  (6) 
O=c1c2ccccc2nc(/C=C/c2cccnc2)n1Cc1ccc(Cl)cc1

>  <score_type>  (6) 
oracle

>  <origin>  (6) 
autodockgpu

>  <m_score__min__energy>  (6) 
-7.9100000000000001

>  <m_primary>  (6) 
energy

>  <rmsd>  (6) 
9.978513172248345

>  <m_score__min__rmsd>  (6) 
9.978513172248345

>  <meeko>  (6) 
{"free_energy": -7.37, "intermolecular_energy": -8.86, "internal_energy": -1.27, "cluster_size": 4, "cluster_id": 4, "rank_in_cluster": 4}

>  <energy>  (6) 
-7.54

>  <cluster_rmsd>  (6) 
1.25

>  <cluster>  (6) 
1

$$$$

     RDKit          3D

 43 46  0  0  0  0  0  0  0  0999 V2000
  140.0250   74.0920  221.9350 O   0  0  0  0  0  0  0  0  0  0  0  0
  140.7190   74.9530  221.3180 C   0  0  0  0  0  0  0  0  0  0  0  0
  141.9710   74.5570  220.9360 C   0  0  0  0  0  0  0  0  0  0  0  0
  142.4500   73.2950  221.2120 C   0  0  0  0  0  0  0  0  0  0  0  0
  143.7300   73.0040  220.7790 C   0  0  0  0  0  0  0  0  0  0  0  0
  144.5060   73.9390  220.0940 C   0  0  0  0  0  0  0  0  0  0  0  0
  144.0160   75.2000  219.8230 C   0  0  0  0  0  0  0  0  0  0  0  0
  142.7390   75.4710  220.2630 C   0  0  0  0  0  0  0  0  0  0  0  0
  142.2250   76.6640  220.0280 N   0  0  0  0  0  0  0  0  0  0  0  0
  140.9710   77.0880  220.4000 C   0  0  0  0  0  0  0  0  0  0  0  0
  140.6480   78.4230  219.9950 C   0  0  0  0  0  0  0  0  0  0  0  0
  141.2650   79.5480  220.1270 C   0  0  0  0  0  0  0  0  0  0  0  0
  141.6280   80.1580  221.4250 C   0  0  0  0  0  0  0  0  0  0  0  0
  142.4820   79.4930  222.2860 C   0  0  0  0  0  0  0  0  0  0  0  0
  142.8660   79.9890  223.5020 C   0  0  0  0  0  0  0  0  0  0  0  0
  142.3520   81.2290  223.8590 C   0  0  0  0  0  0  0  0  0  0  0  0
  141.5260   81.8890  223.0430 N   0  0  0  0  0  0  0  0  0  0  0  0
  141.1580   81.3790  221.8410 C   0  0  0  0  0  0  0  0  0  0  0  0
  140.2120   76.2140  221.0560 N   0  0  0  0  0  0  0  0  0  0  0  0
  138.8830   76.4170  221.5250 C   0  0  0  0  0  0  0  0  0  0  0  0
  138.6250   77.6180  222.3320 C   0  0  0  0  0  0  0  0  0  0  0  0
  137.3780   78.2540  222.3830 C   0  0  0  0  0  0  0  0  0  0  0  0
  137.1150   79.3720  223.1060 C   0  0  0  0  0  0  0  0  0  0  0  0
  138.0910   79.9680  223.8570 C   0  0  0  0  0  0  0  0  0  0  0  0
  137.7150   81.3920  224.7630 Cl  0  0  0  0  0  0  0  0  0  0  0  0
  139.3400   79.3850  223.8430 C   0  0  0  0  0  0  0  0  0  0  0  0
  139.6100   78.2330  223.0980 C   0  0  0  0  0  0  0  0  0  0  0  0
  141.8423   72.5538  221.7517 H   0  0  0  0  0  0  0  0  0  0  0  0
  144.1485   72.0068  220.9803 H   0  0  0  0  0  0  0  0  0  0  0  0
  145.5204   73.6679  219.7660 H   0  0  0  0  0  0  0  0  0  0  0  0
  144.6137   75.9497  219.2838 H   0  0  0  0  0  0  0  0  0  0  0  0
  139.6857   78.5051  219.4685 H   0  0  0  0  0  0  0  0  0  0  0  0
  141.5403   80.0914  219.2111 H   0  0  0  0  0  0  0  0  0  0  0  0
  142.8735   78.5127  221.9766 H   0  0  0  0  0  0  0  0  0  0  0  0
  143.5473   79.4338  224.1634 H   0  0  0  0  0  0  0  0  0  0  0  0
  142.6289   81.6732  224.8265 H   0  0  0  0  0  0  0  0  0  0  0  0
  140.4762   81.9495  221.1932 H   0  0  0  0  0  0  0  0  0  0  0  0
  138.2262   76.4645  220.6439 H   0  0  0  0  0  0  0  0  0  0  0  0
  138.6944   75.5748  222.2070 H   0  0  0  0  0  0  0  0  0  0  0  0
  136.5558   77.8175  221.7970 H   0  0  0  0  0  0  0  0  0  0  0  0
  136.1038   79.8047  223.0880 H   0  0  0  0  0  0  0  0  0  0  0  0
  140.1479   79.8394  224.4353 H   0  0  0  0  0  0  0  0  0  0  0  0
  140.6227   77.8039  223.1180 H   0  0  0  0  0  0  0  0  0  0  0  0
  1  2  2  0
  2  3  1  0
  3  4  2  0
  4  5  1  0
  5  6  2  0
  6  7  1  0
  7  8  2  0
  8  9  1  0
  9 10  2  0
 10 11  1  0
 11 12  2  0
 12 13  1  0
 13 14  2  0
 14 15  1  0
 15 16  2  0
 16 17  1  0
 17 18  2  0
 10 19  1  0
 19 20  1  0
 20 21  1  0
 21 22  2  0
 22 23  1  0
 23 24  2  0
 24 25  1  0
 24 26  1  0
 26 27  2  0
 19  2  1  0
 27 21  1  0
  8  3  1  0
 18 13  1  0
  4 28  1  0
  5 29  1  0
  6 30  1  0
  7 31  1  0
 11 32  1  0
 12 33  1  0
 14 34  1  0
 15 35  1  0
 16 36  1  0
 18 37  1  0
 20 38  1  0
 20 39  1  0
 22 40  1  0
 23 41  1  0
 26 42  1  0
 27 43  1  0
M  END
>  <smiles>  (7) 
O=c1c2ccccc2nc(/C=C/c2cccnc2)n1Cc1ccc(Cl)cc1

>  <score_type>  (7) 
oracle

>  <origin>  (7) 
autodockgpu

>  <m_score__min__energy>  (7) 
-7.9100000000000001

>  <m_primary>  (7) 
energy

>  <rmsd>  (7) 
4.6449115038720565

>  <m_score__min__rmsd>  (7) 
4.6449115038720565

>  <meeko>  (7) 
{"free_energy": -7.1, "intermolecular_energy": -8.59, "internal_energy": -1.86, "cluster_size": 23, "cluster_id": 7, "rank_in_cluster": 7}

>  <energy>  (7) 
-7.49

>  <cluster_rmsd>  (7) 
0.42

>  <cluster>  (7) 
1

$$$$

     RDKit          3D

 43 46  0  0  0  0  0  0  0  0999 V2000
  140.0260   74.1230  221.9530 O   0  0  0  0  0  0  0  0  0  0  0  0
  140.6760   75.0060  221.3210 C   0  0  0  0  0  0  0  0  0  0  0  0
  141.9290   74.6500  220.9030 C   0  0  0  0  0  0  0  0  0  0  0  0
  142.4540   73.4030  221.1610 C   0  0  0  0  0  0  0  0  0  0  0  0
  143.7300   73.1530  220.6920 C   0  0  0  0  0  0  0  0  0  0  0  0
  144.4580   74.1130  219.9900 C   0  0  0  0  0  0  0  0  0  0  0  0
  143.9220   75.3600  219.7370 C   0  0  0  0  0  0  0  0  0  0  0  0
  142.6500   75.5890  220.2130 C   0  0  0  0  0  0  0  0  0  0  0  0
  142.0930   76.7670  219.9960 N   0  0  0  0  0  0  0  0  0  0  0  0
  140.8370   77.1510  220.4040 C   0  0  0  0  0  0  0  0  0  0  0  0
  140.4620   78.4760  220.0120 C   0  0  0  0  0  0  0  0  0  0  0  0
  141.0410   79.6210  220.1430 C   0  0  0  0  0  0  0  0  0  0  0  0
  141.4910   80.1910  221.4320 C   0  0  0  0  0  0  0  0  0  0  0  0
  142.3330   79.4630  222.2530 C   0  0  0  0  0  0  0  0  0  0  0  0
  142.7930   79.9190  223.4590 C   0  0  0  0  0  0  0  0  0  0  0  0
  142.3720   81.1840  223.8480 C   0  0  0  0  0  0  0  0  0  0  0  0
  141.5590   81.9040  223.0710 N   0  0  0  0  0  0  0  0  0  0  0  0
  141.1150   81.4330  221.8790 C   0  0  0  0  0  0  0  0  0  0  0  0
  140.1240   76.2510  221.0770 N   0  0  0  0  0  0  0  0  0  0  0  0
  138.8020   76.4120  221.5830 C   0  0  0  0  0  0  0  0  0  0  0  0
  138.5090   77.6390  222.3370 C   0  0  0  0  0  0  0  0  0  0  0  0
  139.4570   78.2950  223.1320 C   0  0  0  0  0  0  0  0  0  0  0  0
  139.2110   79.4180  223.8520 C   0  0  0  0  0  0  0  0  0  0  0  0
  137.9740   80.0010  223.8420 C   0  0  0  0  0  0  0  0  0  0  0  0
  137.7010   81.4320  224.7730 Cl  0  0  0  0  0  0  0  0  0  0  0  0
  136.9990   79.3980  223.0750 C   0  0  0  0  0  0  0  0  0  0  0  0
  137.2540   78.2390  222.3350 C   0  0  0  0  0  0  0  0  0  0  0  0
  141.8845   72.6417  221.7143 H   0  0  0  0  0  0  0  0  0  0  0  0
  144.1842   72.1685  220.8779 H   0  0  0  0  0  0  0  0  0  0  0  0
  145.4709   73.8741  219.6337 H   0  0  0  0  0  0  0  0  0  0  0  0
  144.4811   76.1296  219.1847 H   0  0  0  0  0  0  0  0  0  0  0  0
  139.4904   78.5275  219.4989 H   0  0  0  0  0  0  0  0  0  0  0  0
  141.2121   80.2150  219.2332 H   0  0  0  0  0  0  0  0  0  0  0  0
  142.6500   78.4640  221.9190 H   0  0  0  0  0  0  0  0  0  0  0  0
  143.4623   79.3140  224.0882 H   0  0  0  0  0  0  0  0  0  0  0  0
  142.7126   81.5981  224.8085 H   0  0  0  0  0  0  0  0  0  0  0  0
  140.4464   82.0532  221.2639 H   0  0  0  0  0  0  0  0  0  0  0  0
  138.1146   76.3805  220.7248 H   0  0  0  0  0  0  0  0  0  0  0  0
  138.6804   75.5984  222.3133 H   0  0  0  0  0  0  0  0  0  0  0  0
  140.4708   77.8704  223.1756 H   0  0  0  0  0  0  0  0  0  0  0  0
  140.0171   79.8656  224.4518 H   0  0  0  0  0  0  0  0  0  0  0  0
  135.9927   79.8411  223.0445 H   0  0  0  0  0  0  0  0  0  0  0  0
  136.4448   77.7923  221.7386 H   0  0  0  0  0  0  0  0  0  0  0  0
  1  2  2  0
  2  3  1  0
  3  4  2  0
  4  5  1  0
  5  6  2  0
  6  7  1  0
  7  8  2  0
  8  9  1  0
  9 10  2  0
 10 11  1  0
 11 12  2  0
 12 13  1  0
 13 14  2  0
 14 15  1  0
 15 16  2  0
 16 17  1  0
 17 18  2  0
 10 19  1  0
 19 20  1  0
 20 21  1  0
 21 22  2  0
 22 23  1  0
 23 24  2  0
 24 25  1  0
 24 26  1  0
 26 27  2  0
 19  2  1  0
 27 21  1  0
  8  3  1  0
 18 13  1  0
  4 28  1  0
  5 29  1  0
  6 30  1  0
  7 31  1  0
 11 32  1  0
 12 33  1  0
 14 34  1  0
 15 35  1  0
 16 36  1  0
 18 37  1  0
 20 38  1  0
 20 39  1  0
 22 40  1  0
 23 41  1  0
 26 42  1  0
 27 43  1  0
M  END
>  <smiles>  (8) 
O=c1c2ccccc2nc(/C=C/c2cccnc2)n1Cc1ccc(Cl)cc1

>  <score_type>  (8) 
oracle

>  <origin>  (8) 
autodockgpu

>  <m_score__min__energy>  (8) 
-7.9100000000000001

>  <m_primary>  (8) 
energy

>  <rmsd>  (8) 
4.842679201810877

>  <m_score__min__rmsd>  (8) 
4.842679201810877

>  <meeko>  (8) 
{"free_energy": -7.02, "intermolecular_energy": -8.51, "internal_energy": -1.87, "cluster_size": 23, "cluster_id": 7, "rank_in_cluster": 13}

>  <energy>  (8) 
-7.77

>  <cluster_rmsd>  (8) 
0.0

>  <cluster>  (8) 
2

$$$$

     RDKit          3D

 43 46  0  0  0  0  0  0  0  0999 V2000
  140.0550   73.9540  221.9260 O   0  0  0  0  0  0  0  0  0  0  0  0
  140.7750   74.8030  221.3250 C   0  0  0  0  0  0  0  0  0  0  0  0
  142.0190   74.3790  220.9450 C   0  0  0  0  0  0  0  0  0  0  0  0
  142.4620   73.1010  221.2070 C   0  0  0  0  0  0  0  0  0  0  0  0
  143.7370   72.7820  220.7780 C   0  0  0  0  0  0  0  0  0  0  0  0
  144.5420   73.7040  220.1100 C   0  0  0  0  0  0  0  0  0  0  0  0
  144.0870   74.9820  219.8530 C   0  0  0  0  0  0  0  0  0  0  0  0
  142.8150   75.2800  220.2890 C   0  0  0  0  0  0  0  0  0  0  0  0
  142.3350   76.4900  220.0660 N   0  0  0  0  0  0  0  0  0  0  0  0
  141.0900   76.9420  220.4360 C   0  0  0  0  0  0  0  0  0  0  0  0
  140.8060   78.2910  220.0460 C   0  0  0  0  0  0  0  0  0  0  0  0
  141.4820   79.3850  220.1340 C   0  0  0  0  0  0  0  0  0  0  0  0
  141.7440   80.1090  221.3980 C   0  0  0  0  0  0  0  0  0  0  0  0
  142.5720   79.5510  222.3540 C   0  0  0  0  0  0  0  0  0  0  0  0
  142.8650   80.1560  223.5460 C   0  0  0  0  0  0  0  0  0  0  0  0
  142.2830   81.3960  223.7740 C   0  0  0  0  0  0  0  0  0  0  0  0
  141.4810   81.9540  222.8650 N   0  0  0  0  0  0  0  0  0  0  0  0
  141.2040   81.3370  221.6890 C   0  0  0  0  0  0  0  0  0  0  0  0
  140.3040   76.0800  221.0760 N   0  0  0  0  0  0  0  0  0  0  0  0
  138.9780   76.3130  221.5400 C   0  0  0  0  0  0  0  0  0  0  0  0
  138.7410   77.5240  222.3380 C   0  0  0  0  0  0  0  0  0  0  0  0
  137.5020   78.1740  222.3980 C   0  0  0  0  0  0  0  0  0  0  0  0
  137.2600   79.3010  223.1130 C   0  0  0  0  0  0  0  0  0  0  0  0
  138.2490   79.8930  223.8470 C   0  0  0  0  0  0  0  0  0  0  0  0
  137.8990   81.3290  224.7440 Cl  0  0  0  0  0  0  0  0  0  0  0  0
  139.4920   79.2970  223.8260 C   0  0  0  0  0  0  0  0  0  0  0  0
  139.7420   78.1360  223.0880 C   0  0  0  0  0  0  0  0  0  0  0  0
  141.8311   72.3691  221.7326 H   0  0  0  0  0  0  0  0  0  0  0  0
  144.1277   71.7716  220.9692 H   0  0  0  0  0  0  0  0  0  0  0  0
  145.5507   73.4099  219.7842 H   0  0  0  0  0  0  0  0  0  0  0  0
  144.7076   75.7230  219.3278 H   0  0  0  0  0  0  0  0  0  0  0  0
  139.8176   78.4180  219.5803 H   0  0  0  0  0  0  0  0  0  0  0  0
  141.8923   79.8097  219.2059 H   0  0  0  0  0  0  0  0  0  0  0  0
  143.0194   78.5680  222.1454 H   0  0  0  0  0  0  0  0  0  0  0  0
  143.5280   79.6840  224.2861 H   0  0  0  0  0  0  0  0  0  0  0  0
  142.4858   81.9255  224.7166 H   0  0  0  0  0  0  0  0  0  0  0  0
  140.5398   81.8258  220.9611 H   0  0  0  0  0  0  0  0  0  0  0  0
  138.3247   76.3675  220.6567 H   0  0  0  0  0  0  0  0  0  0  0  0
  138.7714   75.4796  222.2276 H   0  0  0  0  0  0  0  0  0  0  0  0
  136.6680   77.7410  221.8262 H   0  0  0  0  0  0  0  0  0  0  0  0
  136.2535   79.7446  223.1018 H   0  0  0  0  0  0  0  0  0  0  0  0
  140.3105   79.7477  224.4064 H   0  0  0  0  0  0  0  0  0  0  0  0
  140.7505   77.6969  223.1001 H   0  0  0  0  0  0  0  0  0  0  0  0
  1  2  2  0
  2  3  1  0
  3  4  2  0
  4  5  1  0
  5  6  2  0
  6  7  1  0
  7  8  2  0
  8  9  1  0
  9 10  2  0
 10 11  1  0
 11 12  2  0
 12 13  1  0
 13 14  2  0
 14 15  1  0
 15 16  2  0
 16 17  1  0
 17 18  2  0
 10 19  1  0
 19 20  1  0
 20 21  1  0
 21 22  2  0
 22 23  1  0
 23 24  2  0
 24 25  1  0
 24 26  1  0
 26 27  2  0
 19  2  1  0
 27 21  1  0
  8  3  1  0
 18 13  1  0
  4 28  1  0
  5 29  1  0
  6 30  1  0
  7 31  1  0
 11 32  1  0
 12 33  1  0
 14 34  1  0
 15 35  1  0
 16 36  1  0
 18 37  1  0
 20 38  1  0
 20 39  1  0
 22 40  1  0
 23 41  1  0
 26 42  1  0
 27 43  1  0
M  END
>  <smiles>  (9) 
O=c1c2ccccc2nc(/C=C/c2cccnc2)n1Cc1ccc(Cl)cc1

>  <score_type>  (9) 
oracle

>  <origin>  (9) 
autodockgpu

>  <m_score__min__energy>  (9) 
-7.9100000000000001

>  <m_primary>  (9) 
energy

>  <rmsd>  (9) 
4.708097290540025

>  <m_score__min__rmsd>  (9) 
4.708097290540025

>  <meeko>  (9) 
{"free_energy": -7.15, "intermolecular_energy": -8.64, "internal_energy": -1.82, "cluster_size": 23, "cluster_id": 7, "rank_in_cluster": 3}

>  <energy>  (9) 
-7.75

>  <cluster_rmsd>  (9) 
0.39

>  <cluster>  (9) 
2

$$$$

     RDKit          3D

 43 46  0  0  0  0  0  0  0  0999 V2000
  140.0720   73.8820  221.9410 O   0  0  0  0  0  0  0  0  0  0  0  0
  140.7780   74.7420  221.3380 C   0  0  0  0  0  0  0  0  0  0  0  0
  142.0190   74.3290  220.9360 C   0  0  0  0  0  0  0  0  0  0  0  0
  142.4740   73.0520  221.1800 C   0  0  0  0  0  0  0  0  0  0  0  0
  143.7450   72.7450  220.7300 C   0  0  0  0  0  0  0  0  0  0  0  0
  144.5340   73.6790  220.0590 C   0  0  0  0  0  0  0  0  0  0  0  0
  144.0670   74.9560  219.8200 C   0  0  0  0  0  0  0  0  0  0  0  0
  142.8000   75.2420  220.2770 C   0  0  0  0  0  0  0  0  0  0  0  0
  142.3080   76.4510  220.0710 N   0  0  0  0  0  0  0  0  0  0  0  0
  141.0660   76.8910  220.4640 C   0  0  0  0  0  0  0  0  0  0  0  0
  140.7670   78.2410  220.0910 C   0  0  0  0  0  0  0  0  0  0  0  0
  141.4460   79.3350  220.1580 C   0  0  0  0  0  0  0  0  0  0  0  0
  141.7290   80.0710  221.4100 C   0  0  0  0  0  0  0  0  0  0  0  0
  142.5690   79.5200  222.3600 C   0  0  0  0  0  0  0  0  0  0  0  0
  142.8810   80.1350  223.5420 C   0  0  0  0  0  0  0  0  0  0  0  0
  142.3040   81.3790  223.7670 C   0  0  0  0  0  0  0  0  0  0  0  0
  141.4910   81.9300  222.8640 N   0  0  0  0  0  0  0  0  0  0  0  0
  141.1950   81.3020  221.6980 C   0  0  0  0  0  0  0  0  0  0  0  0
  140.2950   76.0180  221.1070 N   0  0  0  0  0  0  0  0  0  0  0  0
  138.9740   76.2380  221.5920 C   0  0  0  0  0  0  0  0  0  0  0  0
  138.7310   77.4640  222.3650 C   0  0  0  0  0  0  0  0  0  0  0  0
  137.4850   78.1010  222.4200 C   0  0  0  0  0  0  0  0  0  0  0  0
  137.2360   79.2420  223.1110 C   0  0  0  0  0  0  0  0  0  0  0  0
  138.2250   79.8610  223.8250 C   0  0  0  0  0  0  0  0  0  0  0  0
  137.8660   81.3120  224.6930 Cl  0  0  0  0  0  0  0  0  0  0  0  0
  139.4740   79.2770  223.8070 C   0  0  0  0  0  0  0  0  0  0  0  0
  139.7310   78.1020  223.0930 C   0  0  0  0  0  0  0  0  0  0  0  0
  141.8554   72.3113  221.7079 H   0  0  0  0  0  0  0  0  0  0  0  0
  144.1451   71.7356  220.9062 H   0  0  0  0  0  0  0  0  0  0  0  0
  145.5399   73.3949  219.7163 H   0  0  0  0  0  0  0  0  0  0  0  0
  144.6751   75.7055  219.2923 H   0  0  0  0  0  0  0  0  0  0  0  0
  139.7615   78.3697  219.6639 H   0  0  0  0  0  0  0  0  0  0  0  0
  141.8423   79.7499  219.2195 H   0  0  0  0  0  0  0  0  0  0  0  0
  143.0105   78.5337  222.1545 H   0  0  0  0  0  0  0  0  0  0  0  0
  143.5541   79.6685  224.2764 H   0  0  0  0  0  0  0  0  0  0  0  0
  142.5204   81.9165  224.7020 H   0  0  0  0  0  0  0  0  0  0  0  0
  140.5199   81.7847  220.9760 H   0  0  0  0  0  0  0  0  0  0  0  0
  138.3024   76.2589  220.7211 H   0  0  0  0  0  0  0  0  0  0  0  0
  138.7962   75.4180  222.3033 H   0  0  0  0  0  0  0  0  0  0  0  0
  136.6515   77.6454  221.8653 H   0  0  0  0  0  0  0  0  0  0  0  0
  136.2249   79.6751  223.0968 H   0  0  0  0  0  0  0  0  0  0  0  0
  140.2922   79.7490  224.3707 H   0  0  0  0  0  0  0  0  0  0  0  0
  140.7440   77.6735  223.1072 H   0  0  0  0  0  0  0  0  0  0  0  0
  1  2  2  0
  2  3  1  0
  3  4  2  0
  4  5  1  0
  5  6  2  0
  6  7  1  0
  7  8  2  0
  8  9  1  0
  9 10  2  0
 10 11  1  0
 11 12  2  0
 12 13  1  0
 13 14  2  0
 14 15  1  0
 15 16  2  0
 16 17  1  0
 17 18  2  0
 10 19  1  0
 19 20  1  0
 20 21  1  0
 21 22  2  0
 22 23  1  0
 23 24  2  0
 24 25  1  0
 24 26  1  0
 26 27  2  0
 19  2  1  0
 27 21  1  0
  8  3  1  0
 18 13  1  0
  4 28  1  0
  5 29  1  0
  6 30  1  0
  7 31  1  0
 11 32  1  0
 12 33  1  0
 14 34  1  0
 15 35  1  0
 16 36  1  0
 18 37  1  0
 20 38  1  0
 20 39  1  0
 22 40  1  0
 23 41  1  0
 26 42  1  0
 27 43  1  0
M  END
>  <smiles>  (10) 
O=c1c2ccccc2nc(/C=C/c2cccnc2)n1Cc1ccc(Cl)cc1

>  <score_type>  (10) 
oracle

>  <origin>  (10) 
autodockgpu

>  <m_score__min__energy>  (10) 
-7.9100000000000001

>  <m_primary>  (10) 
energy

>  <rmsd>  (10) 
4.730961469723585

>  <m_score__min__rmsd>  (10) 
4.730961469723585

>  <meeko>  (10) 
{"free_energy": -7.18, "intermolecular_energy": -8.67, "internal_energy": -1.77, "cluster_size": 23, "cluster_id": 7, "rank_in_cluster": 1}

>  <energy>  (10) 
-7.73

>  <cluster_rmsd>  (10) 
0.37

>  <cluster>  (10) 
2

$$$$

     RDKit          3D

 43 46  0  0  0  0  0  0  0  0999 V2000
  141.6220   71.1450  221.2230 O   0  0  0  0  0  0  0  0  0  0  0  0
  141.8540   72.3860  221.1250 C   0  0  0  0  0  0  0  0  0  0  0  0
  143.1120   72.7330  220.7180 C   0  0  0  0  0  0  0  0  0  0  0  0
  144.0720   71.7870  220.4360 C   0  0  0  0  0  0  0  0  0  0  0  0
  145.3100   72.2530  220.0330 C   0  0  0  0  0  0  0  0  0  0  0  0
  145.5810   73.6160  219.9150 C   0  0  0  0  0  0  0  0  0  0  0  0
  144.6110   74.5550  220.1990 C   0  0  0  0  0  0  0  0  0  0  0  0
  143.3850   74.0710  220.5990 C   0  0  0  0  0  0  0  0  0  0  0  0
  142.4240   74.9310  220.8830 N   0  0  0  0  0  0  0  0  0  0  0  0
  141.1510   74.6090  221.2940 C   0  0  0  0  0  0  0  0  0  0  0  0
  140.2910   75.7340  221.5070 C   0  0  0  0  0  0  0  0  0  0  0  0
  140.2610   76.6490  222.4150 C   0  0  0  0  0  0  0  0  0  0  0  0
  141.0530   77.8980  222.3740 C   0  0  0  0  0  0  0  0  0  0  0  0
  141.4850   78.4810  223.5510 C   0  0  0  0  0  0  0  0  0  0  0  0
  142.2220   79.6330  223.5980 C   0  0  0  0  0  0  0  0  0  0  0  0
  142.5340   80.2220  222.3790 C   0  0  0  0  0  0  0  0  0  0  0  0
  142.1280   79.6760  221.2310 N   0  0  0  0  0  0  0  0  0  0  0  0
  141.3990   78.5330  221.2080 C   0  0  0  0  0  0  0  0  0  0  0  0
  140.8700   73.3140  221.4150 N   0  0  0  0  0  0  0  0  0  0  0  0
  139.6250   72.7430  221.8060 C   0  0  0  0  0  0  0  0  0  0  0  0
  139.6150   71.8970  223.0080 C   0  0  0  0  0  0  0  0  0  0  0  0
  140.6400   71.9060  223.9610 C   0  0  0  0  0  0  0  0  0  0  0  0
  140.6650   71.1250  225.0700 C   0  0  0  0  0  0  0  0  0  0  0  0
  139.6500   70.2480  225.3340 C   0  0  0  0  0  0  0  0  0  0  0  0
  139.7200   69.2700  226.7590 Cl  0  0  0  0  0  0  0  0  0  0  0  0
  138.6120   70.1950  224.4290 C   0  0  0  0  0  0  0  0  0  0  0  0
  138.5870   71.0000  223.2850 C   0  0  0  0  0  0  0  0  0  0  0  0
  143.8638   70.7107  220.5271 H   0  0  0  0  0  0  0  0  0  0  0  0
  146.1036   71.5281  219.7989 H   0  0  0  0  0  0  0  0  0  0  0  0
  146.5793   73.9460  219.5918 H   0  0  0  0  0  0  0  0  0  0  0  0
  144.8064   75.6339  220.1106 H   0  0  0  0  0  0  0  0  0  0  0  0
  139.5019   75.8379  220.7477 H   0  0  0  0  0  0  0  0  0  0  0  0
  139.6007   76.4899  223.2802 H   0  0  0  0  0  0  0  0  0  0  0  0
  141.2220   77.9924  224.5008 H   0  0  0  0  0  0  0  0  0  0  0  0
  142.5507   80.0704  224.5523 H   0  0  0  0  0  0  0  0  0  0  0  0
  143.1234   81.1506  222.3599 H   0  0  0  0  0  0  0  0  0  0  0  0
  141.0814   78.1100  220.2435 H   0  0  0  0  0  0  0  0  0  0  0  0
  138.9226   73.5714  221.9801 H   0  0  0  0  0  0  0  0  0  0  0  0
  139.3567   72.0643  220.9829 H   0  0  0  0  0  0  0  0  0  0  0  0
  141.4833   72.5936  223.7997 H   0  0  0  0  0  0  0  0  0  0  0  0
  141.5134   71.1984  225.7663 H   0  0  0  0  0  0  0  0  0  0  0  0
  137.7792   69.4998  224.6113 H   0  0  0  0  0  0  0  0  0  0  0  0
  137.7377   70.9226  222.5902 H   0  0  0  0  0  0  0  0  0  0  0  0
  1  2  2  0
  2  3  1  0
  3  4  2  0
  4  5  1  0
  5  6  2  0
  6  7  1  0
  7  8  2  0
  8  9  1  0
  9 10  2  0
 10 11  1  0
 11 12  2  0
 12 13  1  0
 13 14  2  0
 14 15  1  0
 15 16  2  0
 16 17  1  0
 17 18  2  0
 10 19  1  0
 19 20  1  0
 20 21  1  0
 21 22  2  0
 22 23  1  0
 23 24  2  0
 24 25  1  0
 24 26  1  0
 26 27  2  0
 19  2  1  0
 27 21  1  0
  8  3  1  0
 18 13  1  0
  4 28  1  0
  5 29  1  0
  6 30  1  0
  7 31  1  0
 11 32  1  0
 12 33  1  0
 14 34  1  0
 15 35  1  0
 16 36  1  0
 18 37  1  0
 20 38  1  0
 20 39  1  0
 22 40  1  0
 23 41  1  0
 26 42  1  0
 27 43  1  0
M  END
>  <smiles>  (11) 
O=c1c2ccccc2nc(/C=C/c2cccnc2)n1Cc1ccc(Cl)cc1

>  <score_type>  (11) 
oracle

>  <origin>  (11) 
autodockgpu

>  <m_score__min__energy>  (11) 
-7.9100000000000001

>  <m_primary>  (11) 
energy

>  <rmsd>  (11) 
9.255631458666311

>  <m_score__min__rmsd>  (11) 
9.255631458666311

>  <meeko>  (11) 
{"free_energy": -7.77, "intermolecular_energy": -9.27, "internal_energy": -1.03, "cluster_size": 10, "cluster_id": 2, "rank_in_cluster": 1}

>  <energy>  (11) 
-7.72

>  <cluster_rmsd>  (11) 
0.65

>  <cluster>  (11) 
2

$$$$

     RDKit          3D

 43 46  0  0  0  0  0  0  0  0999 V2000
  141.0040   73.3820  222.0360 O   0  0  0  0  0  0  0  0  0  0  0  0
  139.8230   73.8310  222.0960 C   0  0  0  0  0  0  0  0  0  0  0  0
  139.6850   75.1860  221.9600 C   0  0  0  0  0  0  0  0  0  0  0  0
  140.7720   76.0110  221.7750 C   0  0  0  0  0  0  0  0  0  0  0  0
  140.5140   77.3640  221.6510 C   0  0  0  0  0  0  0  0  0  0  0  0
  139.2180   77.8750  221.7090 C   0  0  0  0  0  0  0  0  0  0  0  0
  138.1370   77.0380  221.8950 C   0  0  0  0  0  0  0  0  0  0  0  0
  138.4140   75.6940  222.0160 C   0  0  0  0  0  0  0  0  0  0  0  0
  137.4120   74.8530  222.1950 N   0  0  0  0  0  0  0  0  0  0  0  0
  137.5220   73.4890  222.3340 C   0  0  0  0  0  0  0  0  0  0  0  0
  136.2740   72.8030  222.4870 C   0  0  0  0  0  0  0  0  0  0  0  0
  135.5950   72.4490  223.5240 C   0  0  0  0  0  0  0  0  0  0  0  0
  135.0690   73.3860  224.5410 C   0  0  0  0  0  0  0  0  0  0  0  0
  135.4030   74.7260  224.4850 C   0  0  0  0  0  0  0  0  0  0  0  0
  134.9580   75.6550  225.3860 C   0  0  0  0  0  0  0  0  0  0  0  0
  134.1280   75.1910  226.3990 C   0  0  0  0  0  0  0  0  0  0  0  0
  133.7920   73.9020  226.4720 N   0  0  0  0  0  0  0  0  0  0  0  0
  134.2440   72.9980  225.5680 C   0  0  0  0  0  0  0  0  0  0  0  0
  138.7500   72.9780  222.2830 N   0  0  0  0  0  0  0  0  0  0  0  0
  139.1080   71.6030  222.3850 C   0  0  0  0  0  0  0  0  0  0  0  0
  139.4140   71.0790  223.7230 C   0  0  0  0  0  0  0  0  0  0  0  0
  138.6580   70.0780  224.3460 C   0  0  0  0  0  0  0  0  0  0  0  0
  138.9070   69.5860  225.5860 C   0  0  0  0  0  0  0  0  0  0  0  0
  139.9520   70.0580  226.3310 C   0  0  0  0  0  0  0  0  0  0  0  0
  140.2350   69.4050  227.9070 Cl  0  0  0  0  0  0  0  0  0  0  0  0
  140.7320   71.0470  225.7690 C   0  0  0  0  0  0  0  0  0  0  0  0
  140.4740   71.5530  224.4910 C   0  0  0  0  0  0  0  0  0  0  0  0
  141.7964   75.6129  221.7281 H   0  0  0  0  0  0  0  0  0  0  0  0
  141.3553   78.0569  221.5024 H   0  0  0  0  0  0  0  0  0  0  0  0
  139.0555   78.9580  221.6053 H   0  0  0  0  0  0  0  0  0  0  0  0
  137.1080   77.4237  221.9441 H   0  0  0  0  0  0  0  0  0  0  0  0
  135.8028   72.5236  221.5331 H   0  0  0  0  0  0  0  0  0  0  0  0
  135.3928   71.3766  223.6623 H   0  0  0  0  0  0  0  0  0  0  0  0
  136.0624   75.0641  223.6720 H   0  0  0  0  0  0  0  0  0  0  0  0
  135.2429   76.7149  225.3120 H   0  0  0  0  0  0  0  0  0  0  0  0
  133.7429   75.8957  227.1507 H   0  0  0  0  0  0  0  0  0  0  0  0
  133.9467   71.9428  225.6582 H   0  0  0  0  0  0  0  0  0  0  0  0
  138.2701   71.0138  221.9841 H   0  0  0  0  0  0  0  0  0  0  0  0
  140.0526   71.5174  221.8278 H   0  0  0  0  0  0  0  0  0  0  0  0
  137.8036   69.6620  223.7920 H   0  0  0  0  0  0  0  0  0  0  0  0
  138.2598   68.7973  225.9971 H   0  0  0  0  0  0  0  0  0  0  0  0
  141.5806   71.4490  226.3419 H   0  0  0  0  0  0  0  0  0  0  0  0
  141.1227   72.3426  224.0838 H   0  0  0  0  0  0  0  0  0  0  0  0
  1  2  2  0
  2  3  1  0
  3  4  2  0
  4  5  1  0
  5  6  2  0
  6  7  1  0
  7  8  2  0
  8  9  1  0
  9 10  2  0
 10 11  1  0
 11 12  2  0
 12 13  1  0
 13 14  2  0
 14 15  1  0
 15 16  2  0
 16 17  1  0
 17 18  2  0
 10 19  1  0
 19 20  1  0
 20 21  1  0
 21 22  2  0
 22 23  1  0
 23 24  2  0
 24 25  1  0
 24 26  1  0
 26 27  2  0
 19  2  1  0
 27 21  1  0
  8  3  1  0
 18 13  1  0
  4 28  1  0
  5 29  1  0
  6 30  1  0
  7 31  1  0
 11 32  1  0
 12 33  1  0
 14 34  1  0
 15 35  1  0
 16 36  1  0
 18 37  1  0
 20 38  1  0
 20 39  1  0
 22 40  1  0
 23 41  1  0
 26 42  1  0
 27 43  1  0
M  END
>  <smiles>  (12) 
O=c1c2ccccc2nc(/C=C/c2cccnc2)n1Cc1ccc(Cl)cc1

>  <score_type>  (12) 
oracle

>  <origin>  (12) 
autodockgpu

>  <m_score__min__energy>  (12) 
-7.9100000000000001

>  <m_primary>  (12) 
energy

>  <rmsd>  (12) 
8.99262812271263

>  <m_score__min__rmsd>  (12) 
8.99262812271263

>  <meeko>  (12) 
{"free_energy": -7.32, "intermolecular_energy": -8.81, "internal_energy": -1.39, "cluster_size": 3, "cluster_id": 6, "rank_in_cluster": 2}

>  <energy>  (12) 
-7.7

>  <cluster_rmsd>  (12) 
0.37

>  <cluster>  (12) 
2

$$$$

     RDKit          3D

 43 46  0  0  0  0  0  0  0  0999 V2000
  139.9970   74.1830  221.9950 O   0  0  0  0  0  0  0  0  0  0  0  0
  140.6280   75.0600  221.3360 C   0  0  0  0  0  0  0  0  0  0  0  0
  141.8690   74.7000  220.8870 C   0  0  0  0  0  0  0  0  0  0  0  0
  142.4010   73.4550  221.1430 C   0  0  0  0  0  0  0  0  0  0  0  0
  143.6640   73.2010  220.6420 C   0  0  0  0  0  0  0  0  0  0  0  0
  144.3710   74.1540  219.9090 C   0  0  0  0  0  0  0  0  0  0  0  0
  143.8270   75.3970  219.6570 C   0  0  0  0  0  0  0  0  0  0  0  0
  142.5690   75.6310  220.1660 C   0  0  0  0  0  0  0  0  0  0  0  0
  142.0050   76.8060  219.9520 N   0  0  0  0  0  0  0  0  0  0  0  0
  140.7610   77.1940  220.3910 C   0  0  0  0  0  0  0  0  0  0  0  0
  140.3750   78.5150  219.9960 C   0  0  0  0  0  0  0  0  0  0  0  0
  140.9340   79.6680  220.1420 C   0  0  0  0  0  0  0  0  0  0  0  0
  141.4940   80.1730  221.4150 C   0  0  0  0  0  0  0  0  0  0  0  0
  142.3250   79.3670  222.1710 C   0  0  0  0  0  0  0  0  0  0  0  0
  142.8830   79.7600  223.3570 C   0  0  0  0  0  0  0  0  0  0  0  0
  142.5770   81.0420  223.7960 C   0  0  0  0  0  0  0  0  0  0  0  0
  141.7770   81.8360  223.0810 N   0  0  0  0  0  0  0  0  0  0  0  0
  141.2340   81.4270  221.9070 C   0  0  0  0  0  0  0  0  0  0  0  0
  140.0680   76.3020  221.0940 N   0  0  0  0  0  0  0  0  0  0  0  0
  138.7610   76.4680  221.6350 C   0  0  0  0  0  0  0  0  0  0  0  0
  138.4830   77.7120  222.3650 C   0  0  0  0  0  0  0  0  0  0  0  0
  139.4370   78.3720  223.1490 C   0  0  0  0  0  0  0  0  0  0  0  0
  139.2040   79.5120  223.8460 C   0  0  0  0  0  0  0  0  0  0  0  0
  137.9740   80.1090  223.8250 C   0  0  0  0  0  0  0  0  0  0  0  0
  137.7180   81.5610  224.7270 Cl  0  0  0  0  0  0  0  0  0  0  0  0
  136.9930   79.5030  223.0680 C   0  0  0  0  0  0  0  0  0  0  0  0
  137.2340   78.3280  222.3500 C   0  0  0  0  0  0  0  0  0  0  0  0
  141.8469   72.6991  221.7188 H   0  0  0  0  0  0  0  0  0  0  0  0
  144.1246   72.2193  220.8267 H   0  0  0  0  0  0  0  0  0  0  0  0
  145.3739   73.9120  219.5273 H   0  0  0  0  0  0  0  0  0  0  0  0
  144.3695   76.1604  219.0801 H   0  0  0  0  0  0  0  0  0  0  0  0
  139.4132   78.5541  219.4637 H   0  0  0  0  0  0  0  0  0  0  0  0
  140.9990   80.3210  219.2592 H   0  0  0  0  0  0  0  0  0  0  0  0
  142.5494   78.3563  221.7994 H   0  0  0  0  0  0  0  0  0  0  0  0
  143.5412   79.0939  223.9341 H   0  0  0  0  0  0  0  0  0  0  0  0
  142.9989   81.4071  224.7440 H   0  0  0  0  0  0  0  0  0  0  0  0
  140.5786   82.1077  221.3439 H   0  0  0  0  0  0  0  0  0  0  0  0
  138.0484   76.4101  220.7990 H   0  0  0  0  0  0  0  0  0  0  0  0
  138.6664   75.6729  222.3892 H   0  0  0  0  0  0  0  0  0  0  0  0
  140.4453   77.9358  223.2035 H   0  0  0  0  0  0  0  0  0  0  0  0
  140.0156   79.9624  224.4362 H   0  0  0  0  0  0  0  0  0  0  0  0
  135.9921   79.9575  223.0281 H   0  0  0  0  0  0  0  0  0  0  0  0
  136.4200   77.8805  221.7608 H   0  0  0  0  0  0  0  0  0  0  0  0
  1  2  2  0
  2  3  1  0
  3  4  2  0
  4  5  1  0
  5  6  2  0
  6  7  1  0
  7  8  2  0
  8  9  1  0
  9 10  2  0
 10 11  1  0
 11 12  2  0
 12 13  1  0
 13 14  2  0
 14 15  1  0
 15 16  2  0
 16 17  1  0
 17 18  2  0
 10 19  1  0
 19 20  1  0
 20 21  1  0
 21 22  2  0
 22 23  1  0
 23 24  2  0
 24 25  1  0
 24 26  1  0
 26 27  2  0
 19  2  1  0
 27 21  1  0
  8  3  1  0
 18 13  1  0
  4 28  1  0
  5 29  1  0
  6 30  1  0
  7 31  1  0
 11 32  1  0
 12 33  1  0
 14 34  1  0
 15 35  1  0
 16 36  1  0
 18 37  1  0
 20 38  1  0
 20 39  1  0
 22 40  1  0
 23 41  1  0
 26 42  1  0
 27 43  1  0
M  END
>  <smiles>  (13) 
O=c1c2ccccc2nc(/C=C/c2cccnc2)n1Cc1ccc(Cl)cc1

>  <score_type>  (13) 
oracle

>  <origin>  (13) 
autodockgpu

>  <m_score__min__energy>  (13) 
-7.9100000000000001

>  <m_primary>  (13) 
energy

>  <rmsd>  (13) 
4.7818405570664595

>  <m_score__min__rmsd>  (13) 
4.7818405570664595

>  <meeko>  (13) 
{"free_energy": -6.99, "intermolecular_energy": -8.48, "internal_energy": -1.86, "cluster_size": 23, "cluster_id": 7, "rank_in_cluster": 16}

>  <energy>  (13) 
-7.7

>  <cluster_rmsd>  (13) 
0.38

>  <cluster>  (13) 
2

$$$$

     RDKit          3D

 43 46  0  0  0  0  0  0  0  0999 V2000
  139.9560   74.2750  221.8410 O   0  0  0  0  0  0  0  0  0  0  0  0
  140.6750   75.1100  221.2180 C   0  0  0  0  0  0  0  0  0  0  0  0
  141.9310   74.6890  220.8770 C   0  0  0  0  0  0  0  0  0  0  0  0
  142.3870   73.4290  221.1970 C   0  0  0  0  0  0  0  0  0  0  0  0
  143.6730   73.1110  220.8030 C   0  0  0  0  0  0  0  0  0  0  0  0
  144.4770   74.0180  220.1120 C   0  0  0  0  0  0  0  0  0  0  0  0
  144.0100   75.2770  219.7960 C   0  0  0  0  0  0  0  0  0  0  0  0
  142.7260   75.5750  220.1980 C   0  0  0  0  0  0  0  0  0  0  0  0
  142.2330   76.7680  219.9190 N   0  0  0  0  0  0  0  0  0  0  0  0
  140.9760   77.2170  220.2500 C   0  0  0  0  0  0  0  0  0  0  0  0
  140.6800   78.5440  219.8020 C   0  0  0  0  0  0  0  0  0  0  0  0
  141.2680   79.6770  219.9830 C   0  0  0  0  0  0  0  0  0  0  0  0
  141.5990   80.2470  221.3080 C   0  0  0  0  0  0  0  0  0  0  0  0
  142.4570   79.5710  222.1560 C   0  0  0  0  0  0  0  0  0  0  0  0
  142.8130   80.0310  223.3940 C   0  0  0  0  0  0  0  0  0  0  0  0
  142.2650   81.2450  223.7890 C   0  0  0  0  0  0  0  0  0  0  0  0
  141.4350   81.9150  222.9860 N   0  0  0  0  0  0  0  0  0  0  0  0
  141.0960   81.4410  221.7610 C   0  0  0  0  0  0  0  0  0  0  0  0
  140.1910   76.3690  220.9100 N   0  0  0  0  0  0  0  0  0  0  0  0
  138.8540   76.6020  221.3420 C   0  0  0  0  0  0  0  0  0  0  0  0
  138.6190   77.7420  222.2380 C   0  0  0  0  0  0  0  0  0  0  0  0
  137.3840   78.3930  222.3440 C   0  0  0  0  0  0  0  0  0  0  0  0
  137.1430   79.4570  223.1510 C   0  0  0  0  0  0  0  0  0  0  0  0
  138.1310   79.9790  223.9390 C   0  0  0  0  0  0  0  0  0  0  0  0
  137.7820   81.3350  224.9530 Cl  0  0  0  0  0  0  0  0  0  0  0  0
  139.3700   79.3780  223.8760 C   0  0  0  0  0  0  0  0  0  0  0  0
  139.6180   78.2810  223.0440 C   0  0  0  0  0  0  0  0  0  0  0  0
  141.7570   72.7096  221.7407 H   0  0  0  0  0  0  0  0  0  0  0  0
  144.0739   72.1147  221.0409 H   0  0  0  0  0  0  0  0  0  0  0  0
  145.4952   73.7258  219.8157 H   0  0  0  0  0  0  0  0  0  0  0  0
  144.6299   76.0047  219.2518 H   0  0  0  0  0  0  0  0  0  0  0  0
  139.7737   78.6099  219.1821 H   0  0  0  0  0  0  0  0  0  0  0  0
  141.5425   80.2599  219.0915 H   0  0  0  0  0  0  0  0  0  0  0  0
  142.8756   78.6120  221.8168 H   0  0  0  0  0  0  0  0  0  0  0  0
  143.4988   79.4680  224.0442 H   0  0  0  0  0  0  0  0  0  0  0  0
  142.5182   81.6595  224.7760 H   0  0  0  0  0  0  0  0  0  0  0  0
  140.4108   82.0196  221.1241 H   0  0  0  0  0  0  0  0  0  0  0  0
  138.2398   76.7577  220.4428 H   0  0  0  0  0  0  0  0  0  0  0  0
  138.5953   75.7168  221.9416 H   0  0  0  0  0  0  0  0  0  0  0  0
  136.5520   78.0161  221.7310 H   0  0  0  0  0  0  0  0  0  0  0  0
  136.1389   79.9058  223.1715 H   0  0  0  0  0  0  0  0  0  0  0  0
  140.1872   79.7723  224.4978 H   0  0  0  0  0  0  0  0  0  0  0  0
  140.6234   77.8350  223.0263 H   0  0  0  0  0  0  0  0  0  0  0  0
  1  2  2  0
  2  3  1  0
  3  4  2  0
  4  5  1  0
  5  6  2  0
  6  7  1  0
  7  8  2  0
  8  9  1  0
  9 10  2  0
 10 11  1  0
 11 12  2  0
 12 13  1  0
 13 14  2  0
 14 15  1  0
 15 16  2  0
 16 17  1  0
 17 18  2  0
 10 19  1  0
 19 20  1  0
 20 21  1  0
 21 22  2  0
 22 23  1  0
 23 24  2  0
 24 25  1  0
 24 26  1  0
 26 27  2  0
 19  2  1  0
 27 21  1  0
  8  3  1  0
 18 13  1  0
  4 28  1  0
  5 29  1  0
  6 30  1  0
  7 31  1  0
 11 32  1  0
 12 33  1  0
 14 34  1  0
 15 35  1  0
 16 36  1  0
 18 37  1  0
 20 38  1  0
 20 39  1  0
 22 40  1  0
 23 41  1  0
 26 42  1  0
 27 43  1  0
M  END
>  <smiles>  (14) 
O=c1c2ccccc2nc(/C=C/c2cccnc2)n1Cc1ccc(Cl)cc1

>  <score_type>  (14) 
oracle

>  <origin>  (14) 
autodockgpu

>  <m_score__min__energy>  (14) 
-7.9100000000000001

>  <m_primary>  (14) 
energy

>  <rmsd>  (14) 
4.579608480350673

>  <m_score__min__rmsd>  (14) 
4.579608480350673

>  <meeko>  (14) 
{"free_energy": -6.89, "intermolecular_energy": -8.38, "internal_energy": -1.96, "cluster_size": 23, "cluster_id": 7, "rank_in_cluster": 22}

>  <energy>  (14) 
-7.68

>  <cluster_rmsd>  (14) 
0.68

>  <cluster>  (14) 
2

$$$$

     RDKit          3D

 43 46  0  0  0  0  0  0  0  0999 V2000
  138.7330   74.8070  222.3540 O   0  0  0  0  0  0  0  0  0  0  0  0
  139.7930   74.4660  221.7530 C   0  0  0  0  0  0  0  0  0  0  0  0
  140.5670   75.4850  221.2690 C   0  0  0  0  0  0  0  0  0  0  0  0
  140.2080   76.8060  221.4240 C   0  0  0  0  0  0  0  0  0  0  0  0
  141.0660   77.7520  220.8950 C   0  0  0  0  0  0  0  0  0  0  0  0
  142.2410   77.3940  220.2350 C   0  0  0  0  0  0  0  0  0  0  0  0
  142.5900   76.0670  220.0860 C   0  0  0  0  0  0  0  0  0  0  0  0
  141.7230   75.1400  220.6200 C   0  0  0  0  0  0  0  0  0  0  0  0
  142.0140   73.8570  220.5040 N   0  0  0  0  0  0  0  0  0  0  0  0
  141.2540   72.8140  220.9790 C   0  0  0  0  0  0  0  0  0  0  0  0
  141.8130   71.5160  220.7450 C   0  0  0  0  0  0  0  0  0  0  0  0
  142.9150   71.1250  220.2020 C   0  0  0  0  0  0  0  0  0  0  0  0
  144.1410   71.9480  220.1080 C   0  0  0  0  0  0  0  0  0  0  0  0
  144.6020   72.6300  221.2190 C   0  0  0  0  0  0  0  0  0  0  0  0
  145.7260   73.4100  221.2140 C   0  0  0  0  0  0  0  0  0  0  0  0
  146.4170   73.4990  220.0120 C   0  0  0  0  0  0  0  0  0  0  0  0
  145.9900   72.8490  218.9270 N   0  0  0  0  0  0  0  0  0  0  0  0
  144.8720   72.0810  218.9540 C   0  0  0  0  0  0  0  0  0  0  0  0
  140.1280   73.1310  221.6120 N   0  0  0  0  0  0  0  0  0  0  0  0
  139.1950   72.2300  222.2010 C   0  0  0  0  0  0  0  0  0  0  0  0
  139.5910   71.5630  223.4490 C   0  0  0  0  0  0  0  0  0  0  0  0
  138.8480   70.5330  224.0370 C   0  0  0  0  0  0  0  0  0  0  0  0
  139.1810   69.9110  225.1960 C   0  0  0  0  0  0  0  0  0  0  0  0
  140.3070   70.2660  225.8860 C   0  0  0  0  0  0  0  0  0  0  0  0
  140.6960   69.4480  227.3590 Cl  0  0  0  0  0  0  0  0  0  0  0  0
  141.0790   71.2770  225.3530 C   0  0  0  0  0  0  0  0  0  0  0  0
  140.7350   71.9180  224.1590 C   0  0  0  0  0  0  0  0  0  0  0  0
  139.2825   77.0943  221.9440 H   0  0  0  0  0  0  0  0  0  0  0  0
  140.8146   78.8179  220.9977 H   0  0  0  0  0  0  0  0  0  0  0  0
  142.8970   78.1779  219.8286 H   0  0  0  0  0  0  0  0  0  0  0  0
  143.5124   75.7657  219.5678 H   0  0  0  0  0  0  0  0  0  0  0  0
  141.1771   70.6908  221.0979 H   0  0  0  0  0  0  0  0  0  0  0  0
  142.9459   70.1098  219.7796 H   0  0  0  0  0  0  0  0  0  0  0  0
  144.0346   72.5406  222.1571 H   0  0  0  0  0  0  0  0  0  0  0  0
  146.0655   73.9399  222.1162 H   0  0  0  0  0  0  0  0  0  0  0  0
  147.3278   74.1130  219.9536 H   0  0  0  0  0  0  0  0  0  0  0  0
  144.5479   71.5594  218.0414 H   0  0  0  0  0  0  0  0  0  0  0  0
  138.2752   72.7968  222.4079 H   0  0  0  0  0  0  0  0  0  0  0  0
  139.0914   71.4157  221.4688 H   0  0  0  0  0  0  0  0  0  0  0  0
  137.9315   70.2053  223.5246 H   0  0  0  0  0  0  0  0  0  0  0  0
  138.5361   69.1098  225.5861 H   0  0  0  0  0  0  0  0  0  0  0  0
  141.9916   71.5880  225.8825 H   0  0  0  0  0  0  0  0  0  0  0  0
  141.3816   72.7195  223.7724 H   0  0  0  0  0  0  0  0  0  0  0  0
  1  2  2  0
  2  3  1  0
  3  4  2  0
  4  5  1  0
  5  6  2  0
  6  7  1  0
  7  8  2  0
  8  9  1  0
  9 10  2  0
 10 11  1  0
 11 12  2  0
 12 13  1  0
 13 14  2  0
 14 15  1  0
 15 16  2  0
 16 17  1  0
 17 18  2  0
 10 19  1  0
 19 20  1  0
 20 21  1  0
 21 22  2  0
 22 23  1  0
 23 24  2  0
 24 25  1  0
 24 26  1  0
 26 27  2  0
 19  2  1  0
 27 21  1  0
  8  3  1  0
 18 13  1  0
  4 28  1  0
  5 29  1  0
  6 30  1  0
  7 31  1  0
 11 32  1  0
 12 33  1  0
 14 34  1  0
 15 35  1  0
 16 36  1  0
 18 37  1  0
 20 38  1  0
 20 39  1  0
 22 40  1  0
 23 41  1  0
 26 42  1  0
 27 43  1  0
M  END
>  <smiles>  (15) 
O=c1c2ccccc2nc(/C=C/c2cccnc2)n1Cc1ccc(Cl)cc1

>  <score_type>  (15) 
oracle

>  <origin>  (15) 
autodockgpu

>  <m_score__min__energy>  (15) 
-7.9100000000000001

>  <m_primary>  (15) 
energy

>  <rmsd>  (15) 
8.512062082367843

>  <m_score__min__rmsd>  (15) 
8.512062082367843

>  <meeko>  (15) 
{"free_energy": -7.65, "intermolecular_energy": -9.14, "internal_energy": -1.4, "cluster_size": 7, "cluster_id": 1, "rank_in_cluster": 2}

>  <energy>  (15) 
-7.67

>  <cluster_rmsd>  (15) 
0.16

>  <cluster>  (15) 
2

$$$$

     RDKit          3D

 43 46  0  0  0  0  0  0  0  0999 V2000
  140.1680   73.8400  221.9610 O   0  0  0  0  0  0  0  0  0  0  0  0
  140.8620   74.6940  221.3350 C   0  0  0  0  0  0  0  0  0  0  0  0
  142.1080   74.2890  220.9430 C   0  0  0  0  0  0  0  0  0  0  0  0
  142.5810   73.0250  221.2200 C   0  0  0  0  0  0  0  0  0  0  0  0
  143.8560   72.7250  220.7770 C   0  0  0  0  0  0  0  0  0  0  0  0
  144.6310   73.6510  220.0810 C   0  0  0  0  0  0  0  0  0  0  0  0
  144.1460   74.9140  219.8080 C   0  0  0  0  0  0  0  0  0  0  0  0
  142.8750   75.1940  220.2580 C   0  0  0  0  0  0  0  0  0  0  0  0
  142.3660   76.3900  220.0220 N   0  0  0  0  0  0  0  0  0  0  0  0
  141.1180   76.8230  220.4040 C   0  0  0  0  0  0  0  0  0  0  0  0
  140.8000   78.1580  219.9940 C   0  0  0  0  0  0  0  0  0  0  0  0
  141.4340   79.2760  220.0960 C   0  0  0  0  0  0  0  0  0  0  0  0
  141.7790   79.9310  221.3770 C   0  0  0  0  0  0  0  0  0  0  0  0
  141.2950   81.1940  221.6600 C   0  0  0  0  0  0  0  0  0  0  0  0
  141.5670   81.8660  222.8210 C   0  0  0  0  0  0  0  0  0  0  0  0
  142.3770   81.2140  223.7420 C   0  0  0  0  0  0  0  0  0  0  0  0
  142.8550   79.9930  223.4900 N   0  0  0  0  0  0  0  0  0  0  0  0
  142.5720   79.3450  222.3320 C   0  0  0  0  0  0  0  0  0  0  0  0
  140.3600   75.9560  221.0700 N   0  0  0  0  0  0  0  0  0  0  0  0
  139.0360   76.1700  221.5500 C   0  0  0  0  0  0  0  0  0  0  0  0
  138.7730   77.4180  222.2810 C   0  0  0  0  0  0  0  0  0  0  0  0
  139.7250   78.0470  223.0920 C   0  0  0  0  0  0  0  0  0  0  0  0
  139.5050   79.1890  223.7910 C   0  0  0  0  0  0  0  0  0  0  0  0
  138.2930   79.8200  223.7410 C   0  0  0  0  0  0  0  0  0  0  0  0
  138.0530   81.2740  224.6460 Cl  0  0  0  0  0  0  0  0  0  0  0  0
  137.3150   79.2450  222.9570 C   0  0  0  0  0  0  0  0  0  0  0  0
  137.5420   78.0670  222.2380 C   0  0  0  0  0  0  0  0  0  0  0  0
  141.9733   72.2895  221.7675 H   0  0  0  0  0  0  0  0  0  0  0  0
  144.2707   71.7265  220.9798 H   0  0  0  0  0  0  0  0  0  0  0  0
  145.6407   73.3721  219.7454 H   0  0  0  0  0  0  0  0  0  0  0  0
  144.7432   75.6576  219.2599 H   0  0  0  0  0  0  0  0  0  0  0  0
  139.8240   78.2468  219.4944 H   0  0  0  0  0  0  0  0  0  0  0  0
  141.7397   79.7777  219.1660 H   0  0  0  0  0  0  0  0  0  0  0  0
  140.6564   81.6861  220.9116 H   0  0  0  0  0  0  0  0  0  0  0  0
  141.1646   82.8712  223.0148 H   0  0  0  0  0  0  0  0  0  0  0  0
  142.6279   81.7100  224.6912 H   0  0  0  0  0  0  0  0  0  0  0  0
  142.9823   78.3396  222.1566 H   0  0  0  0  0  0  0  0  0  0  0  0
  138.3628   76.1493  220.6803 H   0  0  0  0  0  0  0  0  0  0  0  0
  138.8734   75.3722  222.2896 H   0  0  0  0  0  0  0  0  0  0  0  0
  140.7198   77.5836  223.1678 H   0  0  0  0  0  0  0  0  0  0  0  0
  140.3125   79.6128  224.4061 H   0  0  0  0  0  0  0  0  0  0  0  0
  136.3280   79.7267  222.8953 H   0  0  0  0  0  0  0  0  0  0  0  0
  136.7314   77.6447  221.6260 H   0  0  0  0  0  0  0  0  0  0  0  0
  1  2  2  0
  2  3  1  0
  3  4  2  0
  4  5  1  0
  5  6  2  0
  6  7  1  0
  7  8  2  0
  8  9  1  0
  9 10  2  0
 10 11  1  0
 11 12  2  0
 12 13  1  0
 13 14  2  0
 14 15  1  0
 15 16  2  0
 16 17  1  0
 17 18  2  0
 10 19  1  0
 19 20  1  0
 20 21  1  0
 21 22  2  0
 22 23  1  0
 23 24  2  0
 24 25  1  0
 24 26  1  0
 26 27  2  0
 19  2  1  0
 27 21  1  0
  8  3  1  0
 18 13  1  0
  4 28  1  0
  5 29  1  0
  6 30  1  0
  7 31  1  0
 11 32  1  0
 12 33  1  0
 14 34  1  0
 15 35  1  0
 16 36  1  0
 18 37  1  0
 20 38  1  0
 20 39  1  0
 22 40  1  0
 23 41  1  0
 26 42  1  0
 27 43  1  0
M  END
>  <smiles>  (16) 
O=c1c2ccccc2nc(/C=C/c2cccnc2)n1Cc1ccc(Cl)cc1

>  <score_type>  (16) 
oracle

>  <origin>  (16) 
autodockgpu

>  <m_score__min__energy>  (16) 
-7.9100000000000001

>  <m_primary>  (16) 
energy

>  <rmsd>  (16) 
4.980246811742694

>  <m_score__min__rmsd>  (16) 
4.980246811742694

>  <meeko>  (16) 
{"free_energy": -6.95, "intermolecular_energy": -8.44, "internal_energy": -1.84, "cluster_size": 23, "cluster_id": 7, "rank_in_cluster": 18}

>  <energy>  (16) 
-7.63

>  <cluster_rmsd>  (16) 
0.67

>  <cluster>  (16) 
2

$$$$

     RDKit          3D

 43 46  0  0  0  0  0  0  0  0999 V2000
  139.9910   74.0510  221.9450 O   0  0  0  0  0  0  0  0  0  0  0  0
  140.6980   74.9100  221.3410 C   0  0  0  0  0  0  0  0  0  0  0  0
  141.9440   74.5000  220.9520 C   0  0  0  0  0  0  0  0  0  0  0  0
  142.4030   73.2270  221.2080 C   0  0  0  0  0  0  0  0  0  0  0  0
  143.6790   72.9230  220.7700 C   0  0  0  0  0  0  0  0  0  0  0  0
  144.4690   73.8560  220.0990 C   0  0  0  0  0  0  0  0  0  0  0  0
  143.9980   75.1280  219.8480 C   0  0  0  0  0  0  0  0  0  0  0  0
  142.7260   75.4120  220.2930 C   0  0  0  0  0  0  0  0  0  0  0  0
  142.2300   76.6170  220.0750 N   0  0  0  0  0  0  0  0  0  0  0  0
  140.9830   77.0540  220.4550 C   0  0  0  0  0  0  0  0  0  0  0  0
  140.6810   78.4000  220.0700 C   0  0  0  0  0  0  0  0  0  0  0  0
  141.3410   79.5040  220.1650 C   0  0  0  0  0  0  0  0  0  0  0  0
  141.6740   80.1740  221.4410 C   0  0  0  0  0  0  0  0  0  0  0  0
  142.5340   79.5660  222.3370 C   0  0  0  0  0  0  0  0  0  0  0  0
  142.8920   80.1200  223.5360 C   0  0  0  0  0  0  0  0  0  0  0  0
  142.3430   81.3600  223.8370 C   0  0  0  0  0  0  0  0  0  0  0  0
  141.5110   81.9650  222.9870 N   0  0  0  0  0  0  0  0  0  0  0  0
  141.1700   81.3980  221.8030 C   0  0  0  0  0  0  0  0  0  0  0  0
  140.2110   76.1820  221.0980 N   0  0  0  0  0  0  0  0  0  0  0  0
  138.8850   76.3990  221.5700 C   0  0  0  0  0  0  0  0  0  0  0  0
  138.6350   77.6190  222.3500 C   0  0  0  0  0  0  0  0  0  0  0  0
  137.3890   78.2570  222.3980 C   0  0  0  0  0  0  0  0  0  0  0  0
  137.1330   79.3920  223.0950 C   0  0  0  0  0  0  0  0  0  0  0  0
  138.1150   80.0050  223.8240 C   0  0  0  0  0  0  0  0  0  0  0  0
  137.7470   81.4490  224.6990 Cl  0  0  0  0  0  0  0  0  0  0  0  0
  139.3640   79.4200  223.8140 C   0  0  0  0  0  0  0  0  0  0  0  0
  139.6270   78.2510  223.0940 C   0  0  0  0  0  0  0  0  0  0  0  0
  141.7838   72.4869  221.7360 H   0  0  0  0  0  0  0  0  0  0  0  0
  144.0823   71.9167  220.9562 H   0  0  0  0  0  0  0  0  0  0  0  0
  145.4789   73.5745  219.7662 H   0  0  0  0  0  0  0  0  0  0  0  0
  144.6068   75.8766  219.3199 H   0  0  0  0  0  0  0  0  0  0  0  0
  139.6924   78.5147  219.6015 H   0  0  0  0  0  0  0  0  0  0  0  0
  141.6796   79.9801  219.2330 H   0  0  0  0  0  0  0  0  0  0  0  0
  142.9529   78.5841  222.0717 H   0  0  0  0  0  0  0  0  0  0  0  0
  143.5795   79.6094  224.2263 H   0  0  0  0  0  0  0  0  0  0  0  0
  142.5974   81.8497  224.7886 H   0  0  0  0  0  0  0  0  0  0  0  0
  140.4820   81.9250  221.1256 H   0  0  0  0  0  0  0  0  0  0  0  0
  138.2230   76.4275  220.6920 H   0  0  0  0  0  0  0  0  0  0  0  0
  138.6983   75.5734  222.2725 H   0  0  0  0  0  0  0  0  0  0  0  0
  136.5609   77.8064  221.8312 H   0  0  0  0  0  0  0  0  0  0  0  0
  136.1222   79.8254  223.0738 H   0  0  0  0  0  0  0  0  0  0  0  0
  140.1769   79.8870  224.3894 H   0  0  0  0  0  0  0  0  0  0  0  0
  140.6395   77.8215  223.1159 H   0  0  0  0  0  0  0  0  0  0  0  0
  1  2  2  0
  2  3  1  0
  3  4  2  0
  4  5  1  0
  5  6  2  0
  6  7  1  0
  7  8  2  0
  8  9  1  0
  9 10  2  0
 10 11  1  0
 11 12  2  0
 12 13  1  0
 13 14  2  0
 14 15  1  0
 15 16  2  0
 16 17  1  0
 17 18  2  0
 10 19  1  0
 19 20  1  0
 20 21  1  0
 21 22  2  0
 22 23  1  0
 23 24  2  0
 24 25  1  0
 24 26  1  0
 26 27  2  0
 19  2  1  0
 27 21  1  0
  8  3  1  0
 18 13  1  0
  4 28  1  0
  5 29  1  0
  6 30  1  0
  7 31  1  0
 11 32  1  0
 12 33  1  0
 14 34  1  0
 15 35  1  0
 16 36  1  0
 18 37  1  0
 20 38  1  0
 20 39  1  0
 22 40  1  0
 23 41  1  0
 26 42  1  0
 27 43  1  0
M  END
>  <smiles>  (17) 
O=c1c2ccccc2nc(/C=C/c2cccnc2)n1Cc1ccc(Cl)cc1

>  <score_type>  (17) 
oracle

>  <origin>  (17) 
autodockgpu

>  <m_score__min__energy>  (17) 
-7.9100000000000001

>  <m_primary>  (17) 
energy

>  <rmsd>  (17) 
4.636838959804644

>  <m_score__min__rmsd>  (17) 
4.636838959804644

>  <meeko>  (17) 
{"free_energy": -7.17, "intermolecular_energy": -8.66, "internal_energy": -1.81, "cluster_size": 23, "cluster_id": 7, "rank_in_cluster": 2}

>  <energy>  (17) 
-7.63

>  <cluster_rmsd>  (17) 
0.51

>  <cluster>  (17) 
2

$$$$

     RDKit          3D

 43 46  0  0  0  0  0  0  0  0999 V2000
  139.9860   74.2880  221.9410 O   0  0  0  0  0  0  0  0  0  0  0  0
  140.6490   75.1410  221.2820 C   0  0  0  0  0  0  0  0  0  0  0  0
  141.8970   74.7530  220.8770 C   0  0  0  0  0  0  0  0  0  0  0  0
  142.4020   73.5070  221.1740 C   0  0  0  0  0  0  0  0  0  0  0  0
  143.6750   73.2240  220.7150 C   0  0  0  0  0  0  0  0  0  0  0  0
  144.4170   74.1500  219.9830 C   0  0  0  0  0  0  0  0  0  0  0  0
  143.9000   75.3960  219.6910 C   0  0  0  0  0  0  0  0  0  0  0  0
  142.6310   75.6590  220.1580 C   0  0  0  0  0  0  0  0  0  0  0  0
  142.0920   76.8380  219.9030 N   0  0  0  0  0  0  0  0  0  0  0  0
  140.8420   77.2530  220.2980 C   0  0  0  0  0  0  0  0  0  0  0  0
  140.4870   78.5710  219.8650 C   0  0  0  0  0  0  0  0  0  0  0  0
  141.0250   79.7270  220.0580 C   0  0  0  0  0  0  0  0  0  0  0  0
  141.5440   80.2030  221.3590 C   0  0  0  0  0  0  0  0  0  0  0  0
  142.3910   79.4010  222.1000 C   0  0  0  0  0  0  0  0  0  0  0  0
  142.9140   79.7680  223.3100 C   0  0  0  0  0  0  0  0  0  0  0  0
  142.5520   81.0210  223.7900 C   0  0  0  0  0  0  0  0  0  0  0  0
  141.7360   81.8120  223.0910 N   0  0  0  0  0  0  0  0  0  0  0  0
  141.2290   81.4280  221.8930 C   0  0  0  0  0  0  0  0  0  0  0  0
  140.1150   76.3860  220.9990 N   0  0  0  0  0  0  0  0  0  0  0  0
  138.7960   76.5830  221.4980 C   0  0  0  0  0  0  0  0  0  0  0  0
  138.5530   77.7760  222.3210 C   0  0  0  0  0  0  0  0  0  0  0  0
  137.3140   78.4240  222.3850 C   0  0  0  0  0  0  0  0  0  0  0  0
  137.0650   79.5350  223.1230 C   0  0  0  0  0  0  0  0  0  0  0  0
  138.0490   80.1110  223.8780 C   0  0  0  0  0  0  0  0  0  0  0  0
  137.6910   81.5270  224.8040 Cl  0  0  0  0  0  0  0  0  0  0  0  0
  139.2930   79.5150  223.8530 C   0  0  0  0  0  0  0  0  0  0  0  0
  139.5480   78.3700  223.0920 C   0  0  0  0  0  0  0  0  0  0  0  0
  141.8202   72.7717  221.7492 H   0  0  0  0  0  0  0  0  0  0  0  0
  144.1151   72.2399  220.9336 H   0  0  0  0  0  0  0  0  0  0  0  0
  145.4259   73.8846  219.6342 H   0  0  0  0  0  0  0  0  0  0  0  0
  144.4711   76.1397  219.1158 H   0  0  0  0  0  0  0  0  0  0  0  0
  139.5776   78.6038  219.2470 H   0  0  0  0  0  0  0  0  0  0  0  0
  141.1034   80.4058  219.1960 H   0  0  0  0  0  0  0  0  0  0  0  0
  142.6593   78.4140  221.6952 H   0  0  0  0  0  0  0  0  0  0  0  0
  143.5866   79.1051  223.8740 H   0  0  0  0  0  0  0  0  0  0  0  0
  142.9433   81.3651  224.7587 H   0  0  0  0  0  0  0  0  0  0  0  0
  140.5585   82.1051  221.3435 H   0  0  0  0  0  0  0  0  0  0  0  0
  138.1206   76.6374  220.6315 H   0  0  0  0  0  0  0  0  0  0  0  0
  138.6235   75.7346  222.1766 H   0  0  0  0  0  0  0  0  0  0  0  0
  136.4851   78.0037  221.7965 H   0  0  0  0  0  0  0  0  0  0  0  0
  136.0583   79.9783  223.1139 H   0  0  0  0  0  0  0  0  0  0  0  0
  140.1074   79.9530  224.4487 H   0  0  0  0  0  0  0  0  0  0  0  0
  140.5559   77.9295  223.1029 H   0  0  0  0  0  0  0  0  0  0  0  0
  1  2  2  0
  2  3  1  0
  3  4  2  0
  4  5  1  0
  5  6  2  0
  6  7  1  0
  7  8  2  0
  8  9  1  0
  9 10  2  0
 10 11  1  0
 11 12  2  0
 12 13  1  0
 13 14  2  0
 14 15  1  0
 15 16  2  0
 16 17  1  0
 17 18  2  0
 10 19  1  0
 19 20  1  0
 20 21  1  0
 21 22  2  0
 22 23  1  0
 23 24  2  0
 24 25  1  0
 24 26  1  0
 26 27  2  0
 19  2  1  0
 27 21  1  0
  8  3  1  0
 18 13  1  0
  4 28  1  0
  5 29  1  0
  6 30  1  0
  7 31  1  0
 11 32  1  0
 12 33  1  0
 14 34  1  0
 15 35  1  0
 16 36  1  0
 18 37  1  0
 20 38  1  0
 20 39  1  0
 22 40  1  0
 23 41  1  0
 26 42  1  0
 27 43  1  0
M  END
>  <smiles>  (18) 
O=c1c2ccccc2nc(/C=C/c2cccnc2)n1Cc1ccc(Cl)cc1

>  <score_type>  (18) 
oracle

>  <origin>  (18) 
autodockgpu

>  <m_score__min__energy>  (18) 
-7.9100000000000001

>  <m_primary>  (18) 
energy

>  <rmsd>  (18) 
4.527624535801057

>  <m_score__min__rmsd>  (18) 
4.527624535801057

>  <meeko>  (18) 
{"free_energy": -7.0, "intermolecular_energy": -8.49, "internal_energy": -1.89, "cluster_size": 23, "cluster_id": 7, "rank_in_cluster": 15}

>  <energy>  (18) 
-7.57

>  <cluster_rmsd>  (18) 
0.0

>  <cluster>  (18) 
3

$$$$

     RDKit          3D

 43 46  0  0  0  0  0  0  0  0999 V2000
  140.1520   73.9960  221.9300 O   0  0  0  0  0  0  0  0  0  0  0  0
  140.8210   74.8730  221.3080 C   0  0  0  0  0  0  0  0  0  0  0  0
  142.0660   74.4940  220.8840 C   0  0  0  0  0  0  0  0  0  0  0  0
  142.5620   73.2320  221.1260 C   0  0  0  0  0  0  0  0  0  0  0  0
  143.8320   72.9590  220.6530 C   0  0  0  0  0  0  0  0  0  0  0  0
  144.5810   73.9110  219.9620 C   0  0  0  0  0  0  0  0  0  0  0  0
  144.0730   75.1720  219.7250 C   0  0  0  0  0  0  0  0  0  0  0  0
  142.8070   75.4240  220.2050 C   0  0  0  0  0  0  0  0  0  0  0  0
  142.2760   76.6170  220.0030 N   0  0  0  0  0  0  0  0  0  0  0  0
  141.0300   77.0240  220.4170 C   0  0  0  0  0  0  0  0  0  0  0  0
  140.6850   78.3630  220.0420 C   0  0  0  0  0  0  0  0  0  0  0  0
  141.3150   79.4840  220.1340 C   0  0  0  0  0  0  0  0  0  0  0  0
  141.6770   80.1400  221.4090 C   0  0  0  0  0  0  0  0  0  0  0  0
  142.5270   79.5060  222.2960 C   0  0  0  0  0  0  0  0  0  0  0  0
  142.9100   80.0460  223.4940 C   0  0  0  0  0  0  0  0  0  0  0  0
  142.3980   81.2990  223.8040 C   0  0  0  0  0  0  0  0  0  0  0  0
  141.5760   81.9300  222.9630 N   0  0  0  0  0  0  0  0  0  0  0  0
  141.2090   81.3770  221.7800 C   0  0  0  0  0  0  0  0  0  0  0  0
  140.2970   76.1330  221.0800 N   0  0  0  0  0  0  0  0  0  0  0  0
  138.9800   76.3180  221.5890 C   0  0  0  0  0  0  0  0  0  0  0  0
  138.6930   77.5790  222.2860 C   0  0  0  0  0  0  0  0  0  0  0  0
  137.4650   78.2450  222.1920 C   0  0  0  0  0  0  0  0  0  0  0  0
  137.1770   79.4180  222.8100 C   0  0  0  0  0  0  0  0  0  0  0  0
  138.1070   80.0450  223.5930 C   0  0  0  0  0  0  0  0  0  0  0  0
  137.7010   81.5380  224.3640 Cl  0  0  0  0  0  0  0  0  0  0  0  0
  139.3370   79.4350  223.7220 C   0  0  0  0  0  0  0  0  0  0  0  0
  139.6320   78.2260  223.0840 C   0  0  0  0  0  0  0  0  0  0  0  0
  141.9753   72.4771  221.6699 H   0  0  0  0  0  0  0  0  0  0  0  0
  144.2641   71.9624  220.8266 H   0  0  0  0  0  0  0  0  0  0  0  0
  145.5880   73.6539  219.6018 H   0  0  0  0  0  0  0  0  0  0  0  0
  144.6488   75.9355  219.1814 H   0  0  0  0  0  0  0  0  0  0  0  0
  139.6877   78.4520  219.5866 H   0  0  0  0  0  0  0  0  0  0  0  0
  141.6033   79.9874  219.1994 H   0  0  0  0  0  0  0  0  0  0  0  0
  142.9166   78.5138  222.0243 H   0  0  0  0  0  0  0  0  0  0  0  0
  143.5891   79.5143  224.1767 H   0  0  0  0  0  0  0  0  0  0  0  0
  142.6735   81.7778  224.7552 H   0  0  0  0  0  0  0  0  0  0  0  0
  140.5294   81.9249  221.1107 H   0  0  0  0  0  0  0  0  0  0  0  0
  138.2852   76.2457  220.7393 H   0  0  0  0  0  0  0  0  0  0  0  0
  138.8651   75.5402  222.3583 H   0  0  0  0  0  0  0  0  0  0  0  0
  136.6793   77.7854  221.5743 H   0  0  0  0  0  0  0  0  0  0  0  0
  136.1829   79.8706  222.6797 H   0  0  0  0  0  0  0  0  0  0  0  0
  140.1079   79.9129  224.3443 H   0  0  0  0  0  0  0  0  0  0  0  0
  140.6274   77.7768  223.2157 H   0  0  0  0  0  0  0  0  0  0  0  0
  1  2  2  0
  2  3  1  0
  3  4  2  0
  4  5  1  0
  5  6  2  0
  6  7  1  0
  7  8  2  0
  8  9  1  0
  9 10  2  0
 10 11  1  0
 11 12  2  0
 12 13  1  0
 13 14  2  0
 14 15  1  0
 15 16  2  0
 16 17  1  0
 17 18  2  0
 10 19  1  0
 19 20  1  0
 20 21  1  0
 21 22  2  0
 22 23  1  0
 23 24  2  0
 24 25  1  0
 24 26  1  0
 26 27  2  0
 19  2  1  0
 27 21  1  0
  8  3  1  0
 18 13  1  0
  4 28  1  0
  5 29  1  0
  6 30  1  0
  7 31  1  0
 11 32  1  0
 12 33  1  0
 14 34  1  0
 15 35  1  0
 16 36  1  0
 18 37  1  0
 20 38  1  0
 20 39  1  0
 22 40  1  0
 23 41  1  0
 26 42  1  0
 27 43  1  0
M  END
>  <smiles>  (19) 
O=c1c2ccccc2nc(/C=C/c2cccnc2)n1Cc1ccc(Cl)cc1

>  <score_type>  (19) 
oracle

>  <origin>  (19) 
autodockgpu

>  <m_score__min__energy>  (19) 
-7.9100000000000001

>  <m_primary>  (19) 
energy

>  <rmsd>  (19) 
4.635181387310274

>  <m_score__min__rmsd>  (19) 
4.635181387310274

>  <meeko>  (19) 
{"free_energy": -7.1, "intermolecular_energy": -8.59, "internal_energy": -1.81, "cluster_size": 23, "cluster_id": 7, "rank_in_cluster": 8}

>  <energy>  (19) 
-7.48

>  <cluster_rmsd>  (19) 
0.0

>  <cluster>  (19) 
4

$$$$

     RDKit          3D

 43 46  0  0  0  0  0  0  0  0999 V2000
  141.4680   71.1380  221.2390 O   0  0  0  0  0  0  0  0  0  0  0  0
  141.7400   72.3740  221.2070 C   0  0  0  0  0  0  0  0  0  0  0  0
  142.9690   72.7090  220.7080 C   0  0  0  0  0  0  0  0  0  0  0  0
  143.8590   71.7540  220.2700 C   0  0  0  0  0  0  0  0  0  0  0  0
  145.0720   72.2070  219.7850 C   0  0  0  0  0  0  0  0  0  0  0  0
  145.3860   73.5660  219.7380 C   0  0  0  0  0  0  0  0  0  0  0  0
  144.4850   74.5130  220.1790 C   0  0  0  0  0  0  0  0  0  0  0  0
  143.2820   74.0420  220.6590 C   0  0  0  0  0  0  0  0  0  0  0  0
  142.3870   74.9100  221.0920 N   0  0  0  0  0  0  0  0  0  0  0  0
  141.1460   74.6010  221.5990 C   0  0  0  0  0  0  0  0  0  0  0  0
  140.3550   75.7350  221.9720 C   0  0  0  0  0  0  0  0  0  0  0  0
  140.3110   76.9480  221.5380 C   0  0  0  0  0  0  0  0  0  0  0  0
  141.0790   78.0740  222.1150 C   0  0  0  0  0  0  0  0  0  0  0  0
  141.4880   79.1180  221.3060 C   0  0  0  0  0  0  0  0  0  0  0  0
  142.2010   80.1930  221.7620 C   0  0  0  0  0  0  0  0  0  0  0  0
  142.5120   80.2050  223.1160 C   0  0  0  0  0  0  0  0  0  0  0  0
  142.1270   79.2080  223.9150 N   0  0  0  0  0  0  0  0  0  0  0  0
  141.4210   78.1500  223.4420 C   0  0  0  0  0  0  0  0  0  0  0  0
  140.8250   73.3110  221.6550 N   0  0  0  0  0  0  0  0  0  0  0  0
  139.6000   72.7540  222.1210 C   0  0  0  0  0  0  0  0  0  0  0  0
  139.6630   71.8500  223.2790 C   0  0  0  0  0  0  0  0  0  0  0  0
  138.6840   70.8890  223.5550 C   0  0  0  0  0  0  0  0  0  0  0  0
  138.7070   70.0530  224.6240 C   0  0  0  0  0  0  0  0  0  0  0  0
  139.7300   70.1020  225.5310 C   0  0  0  0  0  0  0  0  0  0  0  0
  139.7220   69.0200  226.8790 Cl  0  0  0  0  0  0  0  0  0  0  0  0
  140.7240   71.0320  225.3100 C   0  0  0  0  0  0  0  0  0  0  0  0
  140.6980   71.8930  224.2080 C   0  0  0  0  0  0  0  0  0  0  0  0
  143.6165   70.6816  220.3043 H   0  0  0  0  0  0  0  0  0  0  0  0
  145.8107   71.4753  219.4259 H   0  0  0  0  0  0  0  0  0  0  0  0
  146.3625   73.8855  219.3451 H   0  0  0  0  0  0  0  0  0  0  0  0
  144.7148   75.5883  220.1491 H   0  0  0  0  0  0  0  0  0  0  0  0
  139.6465   75.5311  222.7884 H   0  0  0  0  0  0  0  0  0  0  0  0
  139.6574   77.1610  220.6793 H   0  0  0  0  0  0  0  0  0  0  0  0
  141.2261   79.0824  220.2382 H   0  0  0  0  0  0  0  0  0  0  0  0
  142.5123   81.0067  221.0905 H   0  0  0  0  0  0  0  0  0  0  0  0
  143.0828   81.0470  223.5347 H   0  0  0  0  0  0  0  0  0  0  0  0
  141.1199   77.3454  224.1289 H   0  0  0  0  0  0  0  0  0  0  0  0
  138.9393   73.5908  222.3917 H   0  0  0  0  0  0  0  0  0  0  0  0
  139.2452   72.1238  221.2922 H   0  0  0  0  0  0  0  0  0  0  0  0
  137.8375   70.8053  222.8575 H   0  0  0  0  0  0  0  0  0  0  0  0
  137.8926   69.3267  224.7629 H   0  0  0  0  0  0  0  0  0  0  0  0
  141.5611   71.0986  226.0205 H   0  0  0  0  0  0  0  0  0  0  0  0
  141.5129   72.6194  224.0729 H   0  0  0  0  0  0  0  0  0  0  0  0
  1  2  2  0
  2  3  1  0
  3  4  2  0
  4  5  1  0
  5  6  2  0
  6  7  1  0
  7  8  2  0
  8  9  1  0
  9 10  2  0
 10 11  1  0
 11 12  2  0
 12 13  1  0
 13 14  2  0
 14 15  1  0
 15 16  2  0
 16 17  1  0
 17 18  2  0
 10 19  1  0
 19 20  1  0
 20 21  1  0
 21 22  2  0
 22 23  1  0
 23 24  2  0
 24 25  1  0
 24 26  1  0
 26 27  2  0
 19  2  1  0
 27 21  1  0
  8  3  1  0
 18 13  1  0
  4 28  1  0
  5 29  1  0
  6 30  1  0
  7 31  1  0
 11 32  1  0
 12 33  1  0
 14 34  1  0
 15 35  1  0
 16 36  1  0
 18 37  1  0
 20 38  1  0
 20 39  1  0
 22 40  1  0
 23 41  1  0
 26 42  1  0
 27 43  1  0
M  END
>  <smiles>  (20) 
O=c1c2ccccc2nc(/C=C/c2cccnc2)n1Cc1ccc(Cl)cc1

>  <score_type>  (20) 
oracle

>  <origin>  (20) 
autodockgpu

>  <m_score__min__energy>  (20) 
-7.9100000000000001

>  <m_primary>  (20) 
energy

>  <rmsd>  (20) 
9.122460442229595

>  <m_score__min__rmsd>  (20) 
9.122460442229595

>  <meeko>  (20) 
{"free_energy": -7.72, "intermolecular_energy": -9.21, "internal_energy": -1.03, "cluster_size": 10, "cluster_id": 2, "rank_in_cluster": 4}

>  <energy>  (20) 
-7.48

>  <cluster_rmsd>  (20) 
0.17

>  <cluster>  (20) 
4

$$$$

     RDKit          3D

 43 46  0  0  0  0  0  0  0  0999 V2000
  138.5000   74.6300  222.3510 O   0  0  0  0  0  0  0  0  0  0  0  0
  139.6150   74.3650  221.8150 C   0  0  0  0  0  0  0  0  0  0  0  0
  140.3300   75.4350  221.3500 C   0  0  0  0  0  0  0  0  0  0  0  0
  139.8580   76.7250  221.4560 C   0  0  0  0  0  0  0  0  0  0  0  0
  140.6640   77.7280  220.9510 C   0  0  0  0  0  0  0  0  0  0  0  0
  141.8990   77.4550  220.3620 C   0  0  0  0  0  0  0  0  0  0  0  0
  142.3610   76.1590  220.2620 C   0  0  0  0  0  0  0  0  0  0  0  0
  141.5440   75.1730  220.7700 C   0  0  0  0  0  0  0  0  0  0  0  0
  141.9430   73.9160  220.6990 N   0  0  0  0  0  0  0  0  0  0  0  0
  141.2450   72.8230  221.1570 C   0  0  0  0  0  0  0  0  0  0  0  0
  141.9180   71.5710  220.9820 C   0  0  0  0  0  0  0  0  0  0  0  0
  142.9440   71.2220  220.2840 C   0  0  0  0  0  0  0  0  0  0  0  0
  144.1740   72.0320  220.1400 C   0  0  0  0  0  0  0  0  0  0  0  0
  144.7000   72.6910  221.2360 C   0  0  0  0  0  0  0  0  0  0  0  0
  145.8320   73.4580  221.1850 C   0  0  0  0  0  0  0  0  0  0  0  0
  146.4620   73.5570  219.9500 C   0  0  0  0  0  0  0  0  0  0  0  0
  145.9720   72.9290  218.8800 N   0  0  0  0  0  0  0  0  0  0  0  0
  144.8470   72.1740  218.9520 C   0  0  0  0  0  0  0  0  0  0  0  0
  140.0640   73.0600  221.7220 N   0  0  0  0  0  0  0  0  0  0  0  0
  139.1760   72.0970  222.2820 C   0  0  0  0  0  0  0  0  0  0  0  0
  139.5670   71.4710  223.5520 C   0  0  0  0  0  0  0  0  0  0  0  0
  138.8580   70.4140  224.1370 C   0  0  0  0  0  0  0  0  0  0  0  0
  139.1870   69.8280  225.3160 C   0  0  0  0  0  0  0  0  0  0  0  0
  140.2730   70.2500  226.0310 C   0  0  0  0  0  0  0  0  0  0  0  0
  140.6570   69.4770  227.5290 Cl  0  0  0  0  0  0  0  0  0  0  0  0
  141.0090   71.2900  225.5040 C   0  0  0  0  0  0  0  0  0  0  0  0
  140.6700   71.8940  224.2890 C   0  0  0  0  0  0  0  0  0  0  0  0
  138.8858   76.9463  221.9205 H   0  0  0  0  0  0  0  0  0  0  0  0
  140.3219   78.7715  221.0154 H   0  0  0  0  0  0  0  0  0  0  0  0
  142.5110   78.2822  219.9731 H   0  0  0  0  0  0  0  0  0  0  0  0
  143.3317   75.9250  219.8004 H   0  0  0  0  0  0  0  0  0  0  0  0
  141.4719   70.7453  221.5557 H   0  0  0  0  0  0  0  0  0  0  0  0
  142.9023   70.2560  219.7595 H   0  0  0  0  0  0  0  0  0  0  0  0
  144.1805   72.5934  222.2007 H   0  0  0  0  0  0  0  0  0  0  0  0
  146.2236   73.9703  222.0762 H   0  0  0  0  0  0  0  0  0  0  0  0
  147.3763   74.1609  219.8537 H   0  0  0  0  0  0  0  0  0  0  0  0
  144.4704   71.6706  218.0493 H   0  0  0  0  0  0  0  0  0  0  0  0
  138.2092   72.5958  222.4446 H   0  0  0  0  0  0  0  0  0  0  0  0
  139.1636   71.2715  221.5551 H   0  0  0  0  0  0  0  0  0  0  0  0
  137.9742   70.0329  223.6044 H   0  0  0  0  0  0  0  0  0  0  0  0
  138.5713   69.0020  225.7016 H   0  0  0  0  0  0  0  0  0  0  0  0
  141.8882   71.6552  226.0551 H   0  0  0  0  0  0  0  0  0  0  0  0
  141.2876   72.7205  223.9077 H   0  0  0  0  0  0  0  0  0  0  0  0
  1  2  2  0
  2  3  1  0
  3  4  2  0
  4  5  1  0
  5  6  2  0
  6  7  1  0
  7  8  2  0
  8  9  1  0
  9 10  2  0
 10 11  1  0
 11 12  2  0
 12 13  1  0
 13 14  2  0
 14 15  1  0
 15 16  2  0
 16 17  1  0
 17 18  2  0
 10 19  1  0
 19 20  1  0
 20 21  1  0
 21 22  2  0
 22 23  1  0
 23 24  2  0
 24 25  1  0
 24 26  1  0
 26 27  2  0
 19  2  1  0
 27 21  1  0
  8  3  1  0
 18 13  1  0
  4 28  1  0
  5 29  1  0
  6 30  1  0
  7 31  1  0
 11 32  1  0
 12 33  1  0
 14 34  1  0
 15 35  1  0
 16 36  1  0
 18 37  1  0
 20 38  1  0
 20 39  1  0
 22 40  1  0
 23 41  1  0
 26 42  1  0
 27 43  1  0
M  END
>  <smiles>  (21) 
O=c1c2ccccc2nc(/C=C/c2cccnc2)n1Cc1ccc(Cl)cc1

>  <score_type>  (21) 
oracle

>  <origin>  (21) 
autodockgpu

>  <m_score__min__energy>  (21) 
-7.9100000000000001

>  <m_primary>  (21) 
energy

>  <rmsd>  (21) 
8.581228163306792

>  <m_score__min__rmsd>  (21) 
8.581228163306792

>  <meeko>  (21) 
{"free_energy": -7.59, "intermolecular_energy": -9.08, "internal_energy": -1.38, "cluster_size": 7, "cluster_id": 1, "rank_in_cluster": 4}

>  <energy>  (21) 
-7.43

>  <cluster_rmsd>  (21) 
0.23

>  <cluster>  (21) 
4

$$$$

     RDKit          3D

 43 46  0  0  0  0  0  0  0  0999 V2000
  140.2270   73.8170  221.9460 O   0  0  0  0  0  0  0  0  0  0  0  0
  140.9270   74.6700  221.3260 C   0  0  0  0  0  0  0  0  0  0  0  0
  142.1770   74.2630  220.9450 C   0  0  0  0  0  0  0  0  0  0  0  0
  142.6450   72.9990  221.2260 C   0  0  0  0  0  0  0  0  0  0  0  0
  143.9230   72.6970  220.7940 C   0  0  0  0  0  0  0  0  0  0  0  0
  144.7060   73.6230  220.1050 C   0  0  0  0  0  0  0  0  0  0  0  0
  144.2260   74.8870  219.8290 C   0  0  0  0  0  0  0  0  0  0  0  0
  142.9510   75.1690  220.2680 C   0  0  0  0  0  0  0  0  0  0  0  0
  142.4460   76.3650  220.0280 N   0  0  0  0  0  0  0  0  0  0  0  0
  141.1940   76.8000  220.3990 C   0  0  0  0  0  0  0  0  0  0  0  0
  140.8820   78.1360  219.9880 C   0  0  0  0  0  0  0  0  0  0  0  0
  141.5230   79.2500  220.0840 C   0  0  0  0  0  0  0  0  0  0  0  0
  141.8120   79.9450  221.3580 C   0  0  0  0  0  0  0  0  0  0  0  0
  141.2990   81.2080  221.5880 C   0  0  0  0  0  0  0  0  0  0  0  0
  141.5190   81.9150  222.7390 C   0  0  0  0  0  0  0  0  0  0  0  0
  142.3050   81.3010  223.7060 C   0  0  0  0  0  0  0  0  0  0  0  0
  142.8100   80.0820  223.5050 N   0  0  0  0  0  0  0  0  0  0  0  0
  142.5790   79.3980  222.3560 C   0  0  0  0  0  0  0  0  0  0  0  0
  140.4300   75.9330  221.0580 N   0  0  0  0  0  0  0  0  0  0  0  0
  139.1020   76.1490  221.5260 C   0  0  0  0  0  0  0  0  0  0  0  0
  138.8320   77.4000  222.2480 C   0  0  0  0  0  0  0  0  0  0  0  0
  139.7690   78.0230  223.0810 C   0  0  0  0  0  0  0  0  0  0  0  0
  139.5420   79.1690  223.7710 C   0  0  0  0  0  0  0  0  0  0  0  0
  138.3360   79.8100  223.6910 C   0  0  0  0  0  0  0  0  0  0  0  0
  138.0870   81.2680  224.5860 Cl  0  0  0  0  0  0  0  0  0  0  0  0
  137.3730   79.2410  222.8840 C   0  0  0  0  0  0  0  0  0  0  0  0
  137.6080   78.0600  222.1730 C   0  0  0  0  0  0  0  0  0  0  0  0
  142.0314   72.2646  221.7683 H   0  0  0  0  0  0  0  0  0  0  0  0
  144.3342   71.6977  220.9996 H   0  0  0  0  0  0  0  0  0  0  0  0
  145.7180   73.3425  219.7778 H   0  0  0  0  0  0  0  0  0  0  0  0
  144.8295   75.6301  219.2871 H   0  0  0  0  0  0  0  0  0  0  0  0
  139.9038   78.2297  219.4936 H   0  0  0  0  0  0  0  0  0  0  0  0
  141.8801   79.7166  219.1541 H   0  0  0  0  0  0  0  0  0  0  0  0
  140.6808   81.6694  220.8038 H   0  0  0  0  0  0  0  0  0  0  0  0
  141.0949   82.9186  222.8907 H   0  0  0  0  0  0  0  0  0  0  0  0
  142.5139   81.8263  224.6496 H   0  0  0  0  0  0  0  0  0  0  0  0
  143.0108   78.3951  222.2232 H   0  0  0  0  0  0  0  0  0  0  0  0
  138.4360   76.1234  220.6509 H   0  0  0  0  0  0  0  0  0  0  0  0
  138.9341   75.3551  222.2686 H   0  0  0  0  0  0  0  0  0  0  0  0
  140.7573   77.5509  223.1831 H   0  0  0  0  0  0  0  0  0  0  0  0
  140.3384   79.5884  224.4033 H   0  0  0  0  0  0  0  0  0  0  0  0
  136.3917   79.7304  222.7972 H   0  0  0  0  0  0  0  0  0  0  0  0
  136.8094   77.6437  221.5414 H   0  0  0  0  0  0  0  0  0  0  0  0
  1  2  2  0
  2  3  1  0
  3  4  2  0
  4  5  1  0
  5  6  2  0
  6  7  1  0
  7  8  2  0
  8  9  1  0
  9 10  2  0
 10 11  1  0
 11 12  2  0
 12 13  1  0
 13 14  2  0
 14 15  1  0
 15 16  2  0
 16 17  1  0
 17 18  2  0
 10 19  1  0
 19 20  1  0
 20 21  1  0
 21 22  2  0
 22 23  1  0
 23 24  2  0
 24 25  1  0
 24 26  1  0
 26 27  2  0
 19  2  1  0
 27 21  1  0
  8  3  1  0
 18 13  1  0
  4 28  1  0
  5 29  1  0
  6 30  1  0
  7 31  1  0
 11 32  1  0
 12 33  1  0
 14 34  1  0
 15 35  1  0
 16 36  1  0
 18 37  1  0
 20 38  1  0
 20 39  1  0
 22 40  1  0
 23 41  1  0
 26 42  1  0
 27 43  1  0
M  END
>  <smiles>  (22) 
O=c1c2ccccc2nc(/C=C/c2cccnc2)n1Cc1ccc(Cl)cc1

>  <score_type>  (22) 
oracle

>  <origin>  (22) 
autodockgpu

>  <m_score__min__energy>  (22) 
-7.9100000000000001

>  <m_primary>  (22) 
energy

>  <rmsd>  (22) 
4.989253315861994

>  <m_score__min__rmsd>  (22) 
4.989253315861994

>  <meeko>  (22) 
{"free_energy": -6.93, "intermolecular_energy": -8.42, "internal_energy": -1.84, "cluster_size": 23, "cluster_id": 7, "rank_in_cluster": 19}

>  <energy>  (22) 
-7.37

>  <cluster_rmsd>  (22) 
0.28

>  <cluster>  (22) 
4

$$$$

     RDKit          3D

 43 46  0  0  0  0  0  0  0  0999 V2000
  138.9340   74.5290  222.2470 O   0  0  0  0  0  0  0  0  0  0  0  0
  140.0070   74.2510  221.6360 C   0  0  0  0  0  0  0  0  0  0  0  0
  140.7530   75.3160  221.2120 C   0  0  0  0  0  0  0  0  0  0  0  0
  140.3550   76.6160  221.4340 C   0  0  0  0  0  0  0  0  0  0  0  0
  141.1870   77.6140  220.9610 C   0  0  0  0  0  0  0  0  0  0  0  0
  142.3750   77.3250  220.2900 C   0  0  0  0  0  0  0  0  0  0  0  0
  142.7640   76.0190  220.0730 C   0  0  0  0  0  0  0  0  0  0  0  0
  141.9210   75.0400  220.5520 C   0  0  0  0  0  0  0  0  0  0  0  0
  142.2500   73.7740  220.3690 N   0  0  0  0  0  0  0  0  0  0  0  0
  141.5190   72.6850  220.7840 C   0  0  0  0  0  0  0  0  0  0  0  0
  142.1160   71.4180  220.4850 C   0  0  0  0  0  0  0  0  0  0  0  0
  143.3370   71.0530  220.2900 C   0  0  0  0  0  0  0  0  0  0  0  0
  144.4780   71.9850  220.1490 C   0  0  0  0  0  0  0  0  0  0  0  0
  144.9300   72.6950  221.2450 C   0  0  0  0  0  0  0  0  0  0  0  0
  145.9770   73.5740  221.1970 C   0  0  0  0  0  0  0  0  0  0  0  0
  146.5970   73.7380  219.9650 C   0  0  0  0  0  0  0  0  0  0  0  0
  146.1770   73.0620  218.8930 N   0  0  0  0  0  0  0  0  0  0  0  0
  145.1360   72.1950  218.9630 C   0  0  0  0  0  0  0  0  0  0  0  0
  140.3810   72.9360  221.4260 N   0  0  0  0  0  0  0  0  0  0  0  0
  139.4720   71.9780  221.9610 C   0  0  0  0  0  0  0  0  0  0  0  0
  139.8400   71.3260  223.2250 C   0  0  0  0  0  0  0  0  0  0  0  0
  139.3320   70.0830  223.6230 C   0  0  0  0  0  0  0  0  0  0  0  0
  139.6410   69.4650  224.7910 C   0  0  0  0  0  0  0  0  0  0  0  0
  140.5020   70.0410  225.6840 C   0  0  0  0  0  0  0  0  0  0  0  0
  140.8700   69.2210  227.1600 Cl  0  0  0  0  0  0  0  0  0  0  0  0
  141.0340   71.2680  225.3440 C   0  0  0  0  0  0  0  0  0  0  0  0
  140.7140   71.9040  224.1410 C   0  0  0  0  0  0  0  0  0  0  0  0
  139.4191   76.8492  221.9628 H   0  0  0  0  0  0  0  0  0  0  0  0
  140.9040   78.6653  221.1183 H   0  0  0  0  0  0  0  0  0  0  0  0
  143.0095   78.1480  219.9294 H   0  0  0  0  0  0  0  0  0  0  0  0
  143.6974   75.7726  219.5457 H   0  0  0  0  0  0  0  0  0  0  0  0
  141.3905   70.5949  220.4063 H   0  0  0  0  0  0  0  0  0  0  0  0
  143.5450   69.9749  220.2239 H   0  0  0  0  0  0  0  0  0  0  0  0
  144.4202   72.5452  222.2082 H   0  0  0  0  0  0  0  0  0  0  0  0
  146.3112   74.1234  222.0894 H   0  0  0  0  0  0  0  0  0  0  0  0
  147.4443   74.4332  219.8714 H   0  0  0  0  0  0  0  0  0  0  0  0
  144.8159   71.6547  218.0599 H   0  0  0  0  0  0  0  0  0  0  0  0
  138.5112   72.4891  222.1214 H   0  0  0  0  0  0  0  0  0  0  0  0
  139.4544   71.1645  221.2208 H   0  0  0  0  0  0  0  0  0  0  0  0
  138.6348   69.5727  222.9422 H   0  0  0  0  0  0  0  0  0  0  0  0
  139.1929   68.4875  225.0227 H   0  0  0  0  0  0  0  0  0  0  0  0
  141.7299   71.7598  226.0396 H   0  0  0  0  0  0  0  0  0  0  0  0
  141.1626   72.8823  223.9135 H   0  0  0  0  0  0  0  0  0  0  0  0
  1  2  2  0
  2  3  1  0
  3  4  2  0
  4  5  1  0
  5  6  2  0
  6  7  1  0
  7  8  2  0
  8  9  1  0
  9 10  2  0
 10 11  1  0
 11 12  2  0
 12 13  1  0
 13 14  2  0
 14 15  1  0
 15 16  2  0
 16 17  1  0
 17 18  2  0
 10 19  1  0
 19 20  1  0
 20 21  1  0
 21 22  2  0
 22 23  1  0
 23 24  2  0
 24 25  1  0
 24 26  1  0
 26 27  2  0
 19  2  1  0
 27 21  1  0
  8  3  1  0
 18 13  1  0
  4 28  1  0
  5 29  1  0
  6 30  1  0
  7 31  1  0
 11 32  1  0
 12 33  1  0
 14 34  1  0
 15 35  1  0
 16 36  1  0
 18 37  1  0
 20 38  1  0
 20 39  1  0
 22 40  1  0
 23 41  1  0
 26 42  1  0
 27 43  1  0
M  END
>  <smiles>  (23) 
O=c1c2ccccc2nc(/C=C/c2cccnc2)n1Cc1ccc(Cl)cc1

>  <score_type>  (23) 
oracle

>  <origin>  (23) 
autodockgpu

>  <m_score__min__energy>  (23) 
-7.9100000000000001

>  <m_primary>  (23) 
energy

>  <rmsd>  (23) 
8.649869553256273

>  <m_score__min__rmsd>  (23) 
8.649869553256273

>  <meeko>  (23) 
{"free_energy": -7.61, "intermolecular_energy": -9.1, "internal_energy": -1.46, "cluster_size": 7, "cluster_id": 1, "rank_in_cluster": 3}

>  <energy>  (23) 
-7.47

>  <cluster_rmsd>  (23) 
0.0

>  <cluster>  (23) 
5

$$$$

     RDKit          3D

 43 46  0  0  0  0  0  0  0  0999 V2000
  138.7920   74.4720  222.3380 O   0  0  0  0  0  0  0  0  0  0  0  0
  139.8670   74.2480  221.7090 C   0  0  0  0  0  0  0  0  0  0  0  0
  140.5780   75.3500  221.3180 C   0  0  0  0  0  0  0  0  0  0  0  0
  140.1440   76.6280  221.5900 C   0  0  0  0  0  0  0  0  0  0  0  0
  140.9430   77.6660  221.1470 C   0  0  0  0  0  0  0  0  0  0  0  0
  142.1330   77.4370  220.4580 C   0  0  0  0  0  0  0  0  0  0  0  0
  142.5580   76.1520  220.1910 C   0  0  0  0  0  0  0  0  0  0  0  0
  141.7490   75.1320  220.6400 C   0  0  0  0  0  0  0  0  0  0  0  0
  142.1130   73.8830  220.4100 N   0  0  0  0  0  0  0  0  0  0  0  0
  141.4180   72.7590  220.7910 C   0  0  0  0  0  0  0  0  0  0  0  0
  142.0500   71.5220  220.4420 C   0  0  0  0  0  0  0  0  0  0  0  0
  143.2800   71.1370  220.4530 C   0  0  0  0  0  0  0  0  0  0  0  0
  144.4390   72.0260  220.2160 C   0  0  0  0  0  0  0  0  0  0  0  0
  144.9670   72.7650  221.2590 C   0  0  0  0  0  0  0  0  0  0  0  0
  146.0360   73.6090  221.1220 C   0  0  0  0  0  0  0  0  0  0  0  0
  146.5960   73.7030  219.8540 C   0  0  0  0  0  0  0  0  0  0  0  0
  146.1030   72.9980  218.8340 N   0  0  0  0  0  0  0  0  0  0  0  0
  145.0420   72.1670  218.9920 C   0  0  0  0  0  0  0  0  0  0  0  0
  140.2790   72.9530  221.4490 N   0  0  0  0  0  0  0  0  0  0  0  0
  139.4030   71.9500  221.9560 C   0  0  0  0  0  0  0  0  0  0  0  0
  139.7400   71.3470  223.2530 C   0  0  0  0  0  0  0  0  0  0  0  0
  139.1010   70.2080  223.7580 C   0  0  0  0  0  0  0  0  0  0  0  0
  139.3800   69.6400  224.9580 C   0  0  0  0  0  0  0  0  0  0  0  0
  140.3400   70.1660  225.7780 C   0  0  0  0  0  0  0  0  0  0  0  0
  140.6650   69.4110  227.2990 Cl  0  0  0  0  0  0  0  0  0  0  0  0
  141.0030   71.2900  225.3320 C   0  0  0  0  0  0  0  0  0  0  0  0
  140.7140   71.8750  224.0950 C   0  0  0  0  0  0  0  0  0  0  0  0
  139.2062   76.8145  222.1339 H   0  0  0  0  0  0  0  0  0  0  0  0
  140.6306   78.7022  221.3439 H   0  0  0  0  0  0  0  0  0  0  0  0
  142.7403   78.2909  220.1233 H   0  0  0  0  0  0  0  0  0  0  0  0
  143.4937   75.9526  219.6481 H   0  0  0  0  0  0  0  0  0  0  0  0
  141.3478   70.7488  220.0968 H   0  0  0  0  0  0  0  0  0  0  0  0
  143.4821   70.0743  220.6523 H   0  0  0  0  0  0  0  0  0  0  0  0
  144.5031   72.6694  222.2518 H   0  0  0  0  0  0  0  0  0  0  0  0
  146.4315   74.1836  221.9726 H   0  0  0  0  0  0  0  0  0  0  0  0
  147.4570   74.3673  219.6888 H   0  0  0  0  0  0  0  0  0  0  0  0
  144.6614   71.6004  218.1294 H   0  0  0  0  0  0  0  0  0  0  0  0
  138.4050   72.4024  222.0524 H   0  0  0  0  0  0  0  0  0  0  0  0
  139.4772   71.1227  221.2348 H   0  0  0  0  0  0  0  0  0  0  0  0
  138.3196   69.7421  223.1396 H   0  0  0  0  0  0  0  0  0  0  0  0
  138.8265   68.7441  225.2759 H   0  0  0  0  0  0  0  0  0  0  0  0
  141.7809   71.7390  225.9670 H   0  0  0  0  0  0  0  0  0  0  0  0
  141.2685   72.7716  223.7809 H   0  0  0  0  0  0  0  0  0  0  0  0
  1  2  2  0
  2  3  1  0
  3  4  2  0
  4  5  1  0
  5  6  2  0
  6  7  1  0
  7  8  2  0
  8  9  1  0
  9 10  2  0
 10 11  1  0
 11 12  2  0
 12 13  1  0
 13 14  2  0
 14 15  1  0
 15 16  2  0
 16 17  1  0
 17 18  2  0
 10 19  1  0
 19 20  1  0
 20 21  1  0
 21 22  2  0
 22 23  1  0
 23 24  2  0
 24 25  1  0
 24 26  1  0
 26 27  2  0
 19  2  1  0
 27 21  1  0
  8  3  1  0
 18 13  1  0
  4 28  1  0
  5 29  1  0
  6 30  1  0
  7 31  1  0
 11 32  1  0
 12 33  1  0
 14 34  1  0
 15 35  1  0
 16 36  1  0
 18 37  1  0
 20 38  1  0
 20 39  1  0
 22 40  1  0
 23 41  1  0
 26 42  1  0
 27 43  1  0
M  END
>  <smiles>  (24) 
O=c1c2ccccc2nc(/C=C/c2cccnc2)n1Cc1ccc(Cl)cc1

>  <score_type>  (24) 
oracle

>  <origin>  (24) 
autodockgpu

>  <m_score__min__energy>  (24) 
-7.9100000000000001

>  <m_primary>  (24) 
energy

>  <rmsd>  (24) 
8.630572877951273

>  <m_score__min__rmsd>  (24) 
8.630572877951273

>  <meeko>  (24) 
{"free_energy": -7.57, "intermolecular_energy": -9.06, "internal_energy": -1.48, "cluster_size": 7, "cluster_id": 1, "rank_in_cluster": 5}

>  <energy>  (24) 
-7.46

>  <cluster_rmsd>  (24) 
0.18

>  <cluster>  (24) 
5

$$$$

     RDKit          3D

 43 46  0  0  0  0  0  0  0  0999 V2000
  139.9620   74.2810  221.9500 O   0  0  0  0  0  0  0  0  0  0  0  0
  140.6220   75.1190  221.2700 C   0  0  0  0  0  0  0  0  0  0  0  0
  141.8740   74.7280  220.8800 C   0  0  0  0  0  0  0  0  0  0  0  0
  142.3860   73.4950  221.2160 C   0  0  0  0  0  0  0  0  0  0  0  0
  143.6620   73.2070  220.7690 C   0  0  0  0  0  0  0  0  0  0  0  0
  144.4020   74.1170  220.0140 C   0  0  0  0  0  0  0  0  0  0  0  0
  143.8770   75.3500  219.6840 C   0  0  0  0  0  0  0  0  0  0  0  0
  142.6050   75.6180  220.1380 C   0  0  0  0  0  0  0  0  0  0  0  0
  142.0590   76.7850  219.8480 N   0  0  0  0  0  0  0  0  0  0  0  0
  140.8040   77.2030  220.2260 C   0  0  0  0  0  0  0  0  0  0  0  0
  140.4430   78.5060  219.7530 C   0  0  0  0  0  0  0  0  0  0  0  0
  140.8160   79.6920  220.0940 C   0  0  0  0  0  0  0  0  0  0  0  0
  141.4790   80.0270  221.3740 C   0  0  0  0  0  0  0  0  0  0  0  0
  141.2380   81.2470  221.9780 C   0  0  0  0  0  0  0  0  0  0  0  0
  141.8110   81.6310  223.1600 C   0  0  0  0  0  0  0  0  0  0  0  0
  142.6750   80.7220  223.7580 C   0  0  0  0  0  0  0  0  0  0  0  0
  142.9210   79.5380  223.1920 N   0  0  0  0  0  0  0  0  0  0  0  0
  142.3420   79.1770  222.0200 C   0  0  0  0  0  0  0  0  0  0  0  0
  140.0810   76.3510  220.9480 N   0  0  0  0  0  0  0  0  0  0  0  0
  138.7580   76.5540  221.4370 C   0  0  0  0  0  0  0  0  0  0  0  0
  138.5200   77.7320  222.2820 C   0  0  0  0  0  0  0  0  0  0  0  0
  137.2950   78.4080  222.3280 C   0  0  0  0  0  0  0  0  0  0  0  0
  137.0520   79.5070  223.0860 C   0  0  0  0  0  0  0  0  0  0  0  0
  138.0270   80.0400  223.8820 C   0  0  0  0  0  0  0  0  0  0  0  0
  137.6760   81.4410  224.8330 Cl  0  0  0  0  0  0  0  0  0  0  0  0
  139.2560   79.4150  223.8780 C   0  0  0  0  0  0  0  0  0  0  0  0
  139.5060   78.2830  223.0950 C   0  0  0  0  0  0  0  0  0  0  0  0
  141.8074   72.7736  221.8116 H   0  0  0  0  0  0  0  0  0  0  0  0
  144.1068   72.2317  221.0159 H   0  0  0  0  0  0  0  0  0  0  0  0
  145.4146   73.8491  219.6781 H   0  0  0  0  0  0  0  0  0  0  0  0
  144.4451   76.0805  219.0893 H   0  0  0  0  0  0  0  0  0  0  0  0
  139.7026   78.4919  218.9396 H   0  0  0  0  0  0  0  0  0  0  0  0
  140.6285   80.5115  219.3846 H   0  0  0  0  0  0  0  0  0  0  0  0
  140.5489   81.9464  221.4820 H   0  0  0  0  0  0  0  0  0  0  0  0
  141.5982   82.6102  223.6138 H   0  0  0  0  0  0  0  0  0  0  0  0
  143.1624   80.9810  224.7095 H   0  0  0  0  0  0  0  0  0  0  0  0
  142.5662   78.1930  221.5825 H   0  0  0  0  0  0  0  0  0  0  0  0
  138.0931   76.6348  220.5644 H   0  0  0  0  0  0  0  0  0  0  0  0
  138.5679   75.6938  222.0958 H   0  0  0  0  0  0  0  0  0  0  0  0
  136.4731   78.0219  221.7072 H   0  0  0  0  0  0  0  0  0  0  0  0
  136.0570   79.9752  223.0595 H   0  0  0  0  0  0  0  0  0  0  0  0
  140.0626   79.8178  224.5082 H   0  0  0  0  0  0  0  0  0  0  0  0
  140.5028   77.8187  223.1225 H   0  0  0  0  0  0  0  0  0  0  0  0
  1  2  2  0
  2  3  1  0
  3  4  2  0
  4  5  1  0
  5  6  2  0
  6  7  1  0
  7  8  2  0
  8  9  1  0
  9 10  2  0
 10 11  1  0
 11 12  2  0
 12 13  1  0
 13 14  2  0
 14 15  1  0
 15 16  2  0
 16 17  1  0
 17 18  2  0
 10 19  1  0
 19 20  1  0
 20 21  1  0
 21 22  2  0
 22 23  1  0
 23 24  2  0
 24 25  1  0
 24 26  1  0
 26 27  2  0
 19  2  1  0
 27 21  1  0
  8  3  1  0
 18 13  1  0
  4 28  1  0
  5 29  1  0
  6 30  1  0
  7 31  1  0
 11 32  1  0
 12 33  1  0
 14 34  1  0
 15 35  1  0
 16 36  1  0
 18 37  1  0
 20 38  1  0
 20 39  1  0
 22 40  1  0
 23 41  1  0
 26 42  1  0
 27 43  1  0
M  END
>  <smiles>  (25) 
O=c1c2ccccc2nc(/C=C/c2cccnc2)n1Cc1ccc(Cl)cc1

>  <score_type>  (25) 
oracle

>  <origin>  (25) 
autodockgpu

>  <m_score__min__energy>  (25) 
-7.9100000000000001

>  <m_primary>  (25) 
energy

>  <rmsd>  (25) 
4.568512651860074

>  <m_score__min__rmsd>  (25) 
4.568512651860074

>  <meeko>  (25) 
{"free_energy": -6.84, "intermolecular_energy": -8.33, "internal_energy": -1.85, "cluster_size": 23, "cluster_id": 7, "rank_in_cluster": 23}

>  <energy>  (25) 
-7.37

>  <cluster_rmsd>  (25) 
0.0

>  <cluster>  (25) 
6

$$$$

     RDKit          3D

 43 46  0  0  0  0  0  0  0  0999 V2000
  140.2650   71.9340  225.0180 O   0  0  0  0  0  0  0  0  0  0  0  0
  139.6810   70.8110  225.0250 C   0  0  0  0  0  0  0  0  0  0  0  0
  140.0100   69.9660  226.0500 C   0  0  0  0  0  0  0  0  0  0  0  0
  140.9290   70.3180  227.0140 C   0  0  0  0  0  0  0  0  0  0  0  0
  141.1850   69.3860  228.0020 C   0  0  0  0  0  0  0  0  0  0  0  0
  140.5470   68.1460  228.0280 C   0  0  0  0  0  0  0  0  0  0  0  0
  139.6270   67.8050  227.0580 C   0  0  0  0  0  0  0  0  0  0  0  0
  139.3860   68.7470  226.0820 C   0  0  0  0  0  0  0  0  0  0  0  0
  138.5140   68.4680  225.1300 N   0  0  0  0  0  0  0  0  0  0  0  0
  138.1650   69.2970  224.0900 C   0  0  0  0  0  0  0  0  0  0  0  0
  137.1700   68.7620  223.2100 C   0  0  0  0  0  0  0  0  0  0  0  0
  135.8810   68.8150  223.2150 C   0  0  0  0  0  0  0  0  0  0  0  0
  135.0660   69.2820  224.3580 C   0  0  0  0  0  0  0  0  0  0  0  0
  135.0500   70.6240  224.6920 C   0  0  0  0  0  0  0  0  0  0  0  0
  134.3220   71.1350  225.7320 C   0  0  0  0  0  0  0  0  0  0  0  0
  133.5720   70.2290  226.4710 C   0  0  0  0  0  0  0  0  0  0  0  0
  133.5730   68.9300  226.1660 N   0  0  0  0  0  0  0  0  0  0  0  0
  134.3010   68.4440  225.1300 C   0  0  0  0  0  0  0  0  0  0  0  0
  138.7620   70.4850  224.0430 N   0  0  0  0  0  0  0  0  0  0  0  0
  138.5510   71.5100  223.0780 C   0  0  0  0  0  0  0  0  0  0  0  0
  139.7270   72.0100  222.3510 C   0  0  0  0  0  0  0  0  0  0  0  0
  139.9700   73.3710  222.1290 C   0  0  0  0  0  0  0  0  0  0  0  0
  141.0370   73.8600  221.4480 C   0  0  0  0  0  0  0  0  0  0  0  0
  141.9770   73.0190  220.9190 C   0  0  0  0  0  0  0  0  0  0  0  0
  143.3220   73.6820  220.0590 Cl  0  0  0  0  0  0  0  0  0  0  0  0
  141.7900   71.6660  221.1070 C   0  0  0  0  0  0  0  0  0  0  0  0
  140.6890   71.1630  221.8080 C   0  0  0  0  0  0  0  0  0  0  0  0
  141.4351   71.2945  226.9982 H   0  0  0  0  0  0  0  0  0  0  0  0
  141.9127   69.6291  228.7903 H   0  0  0  0  0  0  0  0  0  0  0  0
  140.7800   67.4316  228.8313 H   0  0  0  0  0  0  0  0  0  0  0  0
  139.1131   66.8324  227.0636 H   0  0  0  0  0  0  0  0  0  0  0  0
  137.5862   68.1949  222.3643 H   0  0  0  0  0  0  0  0  0  0  0  0
  135.3515   68.4907  222.3070 H   0  0  0  0  0  0  0  0  0  0  0  0
  135.6548   71.3177  224.0895 H   0  0  0  0  0  0  0  0  0  0  0  0
  134.3303   72.2088  225.9706 H   0  0  0  0  0  0  0  0  0  0  0  0
  132.9694   70.5871  227.3187 H   0  0  0  0  0  0  0  0  0  0  0  0
  134.2780   67.3672  224.9063 H   0  0  0  0  0  0  0  0  0  0  0  0
  137.8437   71.1193  222.3316 H   0  0  0  0  0  0  0  0  0  0  0  0
  138.1929   72.3727  223.6590 H   0  0  0  0  0  0  0  0  0  0  0  0
  139.2463   74.0934  222.5345 H   0  0  0  0  0  0  0  0  0  0  0  0
  141.1474   74.9469  221.3197 H   0  0  0  0  0  0  0  0  0  0  0  0
  142.5275   70.9621  220.6940 H   0  0  0  0  0  0  0  0  0  0  0  0
  140.5811   70.0754  221.9328 H   0  0  0  0  0  0  0  0  0  0  0  0
  1  2  2  0
  2  3  1  0
  3  4  2  0
  4  5  1  0
  5  6  2  0
  6  7  1  0
  7  8  2  0
  8  9  1  0
  9 10  2  0
 10 11  1  0
 11 12  2  0
 12 13  1  0
 13 14  2  0
 14 15  1  0
 15 16  2  0
 16 17  1  0
 17 18  2  0
 10 19  1  0
 19 20  1  0
 20 21  1  0
 21 22  2  0
 22 23  1  0
 23 24  2  0
 24 25  1  0
 24 26  1  0
 26 27  2  0
 19  2  1  0
 27 21  1  0
  8  3  1  0
 18 13  1  0
  4 28  1  0
  5 29  1  0
  6 30  1  0
  7 31  1  0
 11 32  1  0
 12 33  1  0
 14 34  1  0
 15 35  1  0
 16 36  1  0
 18 37  1  0
 20 38  1  0
 20 39  1  0
 22 40  1  0
 23 41  1  0
 26 42  1  0
 27 43  1  0
M  END
>  <smiles>  (26) 
O=c1c2ccccc2nc(/C=C/c2cccnc2)n1Cc1ccc(Cl)cc1

>  <score_type>  (26) 
oracle

>  <origin>  (26) 
autodockgpu

>  <m_score__min__energy>  (26) 
-7.9100000000000001

>  <m_primary>  (26) 
energy

>  <rmsd>  (26) 
10.150794804692884

>  <m_score__min__rmsd>  (26) 
10.150794804692884

>  <meeko>  (26) 
{"free_energy": -7.48, "intermolecular_energy": -8.97, "internal_energy": -1.27, "cluster_size": 4, "cluster_id": 4, "rank_in_cluster": 2}

>  <energy>  (26) 
-7.32

>  <cluster_rmsd>  (26) 
0.2

>  <cluster>  (26) 
6

$$$$

     RDKit          3D

 43 46  0  0  0  0  0  0  0  0999 V2000
  140.0290   74.2200  221.8950 O   0  0  0  0  0  0  0  0  0  0  0  0
  140.7020   75.0800  221.2550 C   0  0  0  0  0  0  0  0  0  0  0  0
  141.9540   74.6930  220.8600 C   0  0  0  0  0  0  0  0  0  0  0  0
  142.4520   73.4420  221.1480 C   0  0  0  0  0  0  0  0  0  0  0  0
  143.7290   73.1610  220.7010 C   0  0  0  0  0  0  0  0  0  0  0  0
  144.4830   74.0940  219.9900 C   0  0  0  0  0  0  0  0  0  0  0  0
  143.9730   75.3450  219.7060 C   0  0  0  0  0  0  0  0  0  0  0  0
  142.6990   75.6060  220.1610 C   0  0  0  0  0  0  0  0  0  0  0  0
  142.1660   76.7890  219.9140 N   0  0  0  0  0  0  0  0  0  0  0  0
  140.9130   77.2030  220.2990 C   0  0  0  0  0  0  0  0  0  0  0  0
  140.5670   78.5270  219.8770 C   0  0  0  0  0  0  0  0  0  0  0  0
  141.1230   79.6750  220.0650 C   0  0  0  0  0  0  0  0  0  0  0  0
  141.5950   80.1740  221.3760 C   0  0  0  0  0  0  0  0  0  0  0  0
  142.4430   79.3990  222.1450 C   0  0  0  0  0  0  0  0  0  0  0  0
  142.9230   79.7880  223.3660 C   0  0  0  0  0  0  0  0  0  0  0  0
  142.5170   81.0350  223.8260 C   0  0  0  0  0  0  0  0  0  0  0  0
  141.7000   81.8000  223.0990 N   0  0  0  0  0  0  0  0  0  0  0  0
  141.2350   81.3940  221.8910 C   0  0  0  0  0  0  0  0  0  0  0  0
  140.1750   76.3290  220.9800 N   0  0  0  0  0  0  0  0  0  0  0  0
  138.8500   76.5240  221.4660 C   0  0  0  0  0  0  0  0  0  0  0  0
  138.6020   77.7040  222.3050 C   0  0  0  0  0  0  0  0  0  0  0  0
  137.3630   78.3520  222.3710 C   0  0  0  0  0  0  0  0  0  0  0  0
  137.1090   79.4520  223.1240 C   0  0  0  0  0  0  0  0  0  0  0  0
  138.0880   80.0150  223.8950 C   0  0  0  0  0  0  0  0  0  0  0  0
  137.7240   81.4160  224.8400 Cl  0  0  0  0  0  0  0  0  0  0  0  0
  139.3310   79.4190  223.8700 C   0  0  0  0  0  0  0  0  0  0  0  0
  139.5920   78.2860  223.0930 C   0  0  0  0  0  0  0  0  0  0  0  0
  141.8614   72.7015  221.7073 H   0  0  0  0  0  0  0  0  0  0  0  0
  144.1634   72.1727  220.9122 H   0  0  0  0  0  0  0  0  0  0  0  0
  145.4958   73.8301  219.6515 H   0  0  0  0  0  0  0  0  0  0  0  0
  144.5529   76.0936  219.1462 H   0  0  0  0  0  0  0  0  0  0  0  0
  139.6475   78.5737  219.2750 H   0  0  0  0  0  0  0  0  0  0  0  0
  141.2557   80.3289  219.1904 H   0  0  0  0  0  0  0  0  0  0  0  0
  142.7482   78.4170  221.7545 H   0  0  0  0  0  0  0  0  0  0  0  0
  143.5960   79.1463  223.9536 H   0  0  0  0  0  0  0  0  0  0  0  0
  142.8736   81.3962  224.8019 H   0  0  0  0  0  0  0  0  0  0  0  0
  140.5624   82.0495  221.3184 H   0  0  0  0  0  0  0  0  0  0  0  0
  138.1858   76.5956  220.5921 H   0  0  0  0  0  0  0  0  0  0  0  0
  138.6654   75.6654  222.1284 H   0  0  0  0  0  0  0  0  0  0  0  0
  136.5379   77.9410  221.7708 H   0  0  0  0  0  0  0  0  0  0  0  0
  136.1028   79.8964  223.1140 H   0  0  0  0  0  0  0  0  0  0  0  0
  140.1409   79.8471  224.4789 H   0  0  0  0  0  0  0  0  0  0  0  0
  140.5998   77.8454  223.1044 H   0  0  0  0  0  0  0  0  0  0  0  0
  1  2  2  0
  2  3  1  0
  3  4  2  0
  4  5  1  0
  5  6  2  0
  6  7  1  0
  7  8  2  0
  8  9  1  0
  9 10  2  0
 10 11  1  0
 11 12  2  0
 12 13  1  0
 13 14  2  0
 14 15  1  0
 15 16  2  0
 16 17  1  0
 17 18  2  0
 10 19  1  0
 19 20  1  0
 20 21  1  0
 21 22  2  0
 22 23  1  0
 23 24  2  0
 24 25  1  0
 24 26  1  0
 26 27  2  0
 19  2  1  0
 27 21  1  0
  8  3  1  0
 18 13  1  0
  4 28  1  0
  5 29  1  0
  6 30  1  0
  7 31  1  0
 11 32  1  0
 12 33  1  0
 14 34  1  0
 15 35  1  0
 16 36  1  0
 18 37  1  0
 20 38  1  0
 20 39  1  0
 22 40  1  0
 23 41  1  0
 26 42  1  0
 27 43  1  0
M  END
>  <smiles>  (27) 
O=c1c2ccccc2nc(/C=C/c2cccnc2)n1Cc1ccc(Cl)cc1

>  <score_type>  (27) 
oracle

>  <origin>  (27) 
autodockgpu

>  <m_score__min__energy>  (27) 
-7.9100000000000001

>  <m_primary>  (27) 
energy

>  <rmsd>  (27) 
4.577175427705194

>  <m_score__min__rmsd>  (27) 
4.577175427705194

>  <meeko>  (27) 
{"free_energy": -6.99, "intermolecular_energy": -8.48, "internal_energy": -1.91, "cluster_size": 23, "cluster_id": 7, "rank_in_cluster": 17}

>  <energy>  (27) 
-7.29

>  <cluster_rmsd>  (27) 
0.5

>  <cluster>  (27) 
6

$$$$

     RDKit          3D

 43 46  0  0  0  0  0  0  0  0999 V2000
  141.4780   71.1210  221.2120 O   0  0  0  0  0  0  0  0  0  0  0  0
  141.7450   72.3580  221.1920 C   0  0  0  0  0  0  0  0  0  0  0  0
  142.9760   72.7010  220.7020 C   0  0  0  0  0  0  0  0  0  0  0  0
  143.8730   71.7530  220.2620 C   0  0  0  0  0  0  0  0  0  0  0  0
  145.0870   72.2140  219.7890 C   0  0  0  0  0  0  0  0  0  0  0  0
  145.3960   73.5740  219.7550 C   0  0  0  0  0  0  0  0  0  0  0  0
  144.4890   74.5150  220.1990 C   0  0  0  0  0  0  0  0  0  0  0  0
  143.2860   74.0350  220.6670 C   0  0  0  0  0  0  0  0  0  0  0  0
  142.3840   74.8970  221.1020 N   0  0  0  0  0  0  0  0  0  0  0  0
  141.1420   74.5790  221.5990 C   0  0  0  0  0  0  0  0  0  0  0  0
  140.3450   75.7080  221.9760 C   0  0  0  0  0  0  0  0  0  0  0  0
  140.2380   76.9000  221.4970 C   0  0  0  0  0  0  0  0  0  0  0  0
  141.0320   78.0620  221.9550 C   0  0  0  0  0  0  0  0  0  0  0  0
  141.3610   78.1900  223.2920 C   0  0  0  0  0  0  0  0  0  0  0  0
  142.0920   79.2330  223.7930 C   0  0  0  0  0  0  0  0  0  0  0  0
  142.5090   80.1960  222.8830 C   0  0  0  0  0  0  0  0  0  0  0  0
  142.2040   80.0910  221.5880 N   0  0  0  0  0  0  0  0  0  0  0  0
  141.4780   79.0490  221.1120 C   0  0  0  0  0  0  0  0  0  0  0  0
  140.8250   73.2880  221.6410 N   0  0  0  0  0  0  0  0  0  0  0  0
  139.5990   72.7230  222.0950 C   0  0  0  0  0  0  0  0  0  0  0  0
  139.6500   71.8510  223.2770 C   0  0  0  0  0  0  0  0  0  0  0  0
  140.6990   71.8770  224.2040 C   0  0  0  0  0  0  0  0  0  0  0  0
  140.7810   71.0730  225.2940 C   0  0  0  0  0  0  0  0  0  0  0  0
  139.8050   70.1550  225.5650 C   0  0  0  0  0  0  0  0  0  0  0  0
  139.9460   69.1500  226.9640 Cl  0  0  0  0  0  0  0  0  0  0  0  0
  138.7450   70.0850  224.6850 C   0  0  0  0  0  0  0  0  0  0  0  0
  138.6620   70.9120  223.5610 C   0  0  0  0  0  0  0  0  0  0  0  0
  143.6344   70.6795  220.2859 H   0  0  0  0  0  0  0  0  0  0  0  0
  145.8308   71.4879  219.4291 H   0  0  0  0  0  0  0  0  0  0  0  0
  146.3735   73.9001  219.3700 H   0  0  0  0  0  0  0  0  0  0  0  0
  144.7151   75.5913  220.1800 H   0  0  0  0  0  0  0  0  0  0  0  0
  139.6970   75.5211  222.8450 H   0  0  0  0  0  0  0  0  0  0  0  0
  139.5062   77.0649  220.6925 H   0  0  0  0  0  0  0  0  0  0  0  0
  141.0170   77.4124  223.9898 H   0  0  0  0  0  0  0  0  0  0  0  0
  142.3370   79.3051  224.8629 H   0  0  0  0  0  0  0  0  0  0  0  0
  143.0981   81.0560  223.2342 H   0  0  0  0  0  0  0  0  0  0  0  0
  141.2441   78.9943  220.0386 H   0  0  0  0  0  0  0  0  0  0  0  0
  138.9192   73.5556  222.3289 H   0  0  0  0  0  0  0  0  0  0  0  0
  139.2732   72.0654  221.2756 H   0  0  0  0  0  0  0  0  0  0  0  0
  141.5123   72.5986  224.0372 H   0  0  0  0  0  0  0  0  0  0  0  0
  141.6450   71.1612  225.9691 H   0  0  0  0  0  0  0  0  0  0  0  0
  137.9418   69.3574  224.8732 H   0  0  0  0  0  0  0  0  0  0  0  0
  137.7979   70.8189  222.8867 H   0  0  0  0  0  0  0  0  0  0  0  0
  1  2  2  0
  2  3  1  0
  3  4  2  0
  4  5  1  0
  5  6  2  0
  6  7  1  0
  7  8  2  0
  8  9  1  0
  9 10  2  0
 10 11  1  0
 11 12  2  0
 12 13  1  0
 13 14  2  0
 14 15  1  0
 15 16  2  0
 16 17  1  0
 17 18  2  0
 10 19  1  0
 19 20  1  0
 20 21  1  0
 21 22  2  0
 22 23  1  0
 23 24  2  0
 24 25  1  0
 24 26  1  0
 26 27  2  0
 19  2  1  0
 27 21  1  0
  8  3  1  0
 18 13  1  0
  4 28  1  0
  5 29  1  0
  6 30  1  0
  7 31  1  0
 11 32  1  0
 12 33  1  0
 14 34  1  0
 15 35  1  0
 16 36  1  0
 18 37  1  0
 20 38  1  0
 20 39  1  0
 22 40  1  0
 23 41  1  0
 26 42  1  0
 27 43  1  0
M  END
>  <smiles>  (28) 
O=c1c2ccccc2nc(/C=C/c2cccnc2)n1Cc1ccc(Cl)cc1

>  <score_type>  (28) 
oracle

>  <origin>  (28) 
autodockgpu

>  <m_score__min__energy>  (28) 
-7.9100000000000001

>  <m_primary>  (28) 
energy

>  <rmsd>  (28) 
9.287937758168974

>  <m_score__min__rmsd>  (28) 
9.287937758168974

>  <meeko>  (28) 
{"free_energy": -7.73, "intermolecular_energy": -9.22, "internal_energy": -1.07, "cluster_size": 10, "cluster_id": 2, "rank_in_cluster": 3}

>  <energy>  (28) 
-7.18

>  <cluster_rmsd>  (28) 
0.0

>  <cluster>  (28) 
7

$$$$

     RDKit          3D

 43 46  0  0  0  0  0  0  0  0999 V2000
  139.9260   74.3410  221.9630 O   0  0  0  0  0  0  0  0  0  0  0  0
  140.5420   75.2060  221.2730 C   0  0  0  0  0  0  0  0  0  0  0  0
  141.7860   74.8500  220.8300 C   0  0  0  0  0  0  0  0  0  0  0  0
  142.3380   73.6220  221.1240 C   0  0  0  0  0  0  0  0  0  0  0  0
  143.6020   73.3710  220.6250 C   0  0  0  0  0  0  0  0  0  0  0  0
  144.2920   74.3100  219.8590 C   0  0  0  0  0  0  0  0  0  0  0  0
  143.7290   75.5360  219.5710 C   0  0  0  0  0  0  0  0  0  0  0  0
  142.4690   75.7680  220.0770 C   0  0  0  0  0  0  0  0  0  0  0  0
  141.8880   76.9270  219.8280 N   0  0  0  0  0  0  0  0  0  0  0  0
  140.6400   77.3100  220.2610 C   0  0  0  0  0  0  0  0  0  0  0  0
  140.2320   78.6130  219.8250 C   0  0  0  0  0  0  0  0  0  0  0  0
  140.6920   79.7940  220.0590 C   0  0  0  0  0  0  0  0  0  0  0  0
  141.3360   80.2070  221.3250 C   0  0  0  0  0  0  0  0  0  0  0  0
  142.2280   79.3590  221.9560 C   0  0  0  0  0  0  0  0  0  0  0  0
  142.8650   79.6670  223.1270 C   0  0  0  0  0  0  0  0  0  0  0  0
  142.5770   80.9070  223.6850 C   0  0  0  0  0  0  0  0  0  0  0  0
  141.7200   81.7410  223.0930 N   0  0  0  0  0  0  0  0  0  0  0  0
  141.1000   81.4160  221.9310 C   0  0  0  0  0  0  0  0  0  0  0  0
  139.9630   76.4310  220.9940 N   0  0  0  0  0  0  0  0  0  0  0  0
  138.6550   76.5950  221.5360 C   0  0  0  0  0  0  0  0  0  0  0  0
  138.3940   77.8090  222.3210 C   0  0  0  0  0  0  0  0  0  0  0  0
  139.3660   78.4360  223.1110 C   0  0  0  0  0  0  0  0  0  0  0  0
  139.1490   79.5470  223.8580 C   0  0  0  0  0  0  0  0  0  0  0  0
  137.9200   80.1460  223.8860 C   0  0  0  0  0  0  0  0  0  0  0  0
  137.6850   81.5600  224.8510 Cl  0  0  0  0  0  0  0  0  0  0  0  0
  136.9220   79.5710  223.1260 C   0  0  0  0  0  0  0  0  0  0  0  0
  137.1460   78.4260  222.3570 C   0  0  0  0  0  0  0  0  0  0  0  0
  141.7982   72.8771  221.7271 H   0  0  0  0  0  0  0  0  0  0  0  0
  144.0777   72.4024  220.8382 H   0  0  0  0  0  0  0  0  0  0  0  0
  145.2965   74.0704  219.4801 H   0  0  0  0  0  0  0  0  0  0  0  0
  144.2585   76.2890  218.9688 H   0  0  0  0  0  0  0  0  0  0  0  0
  139.3550   78.6031  219.1610 H   0  0  0  0  0  0  0  0  0  0  0  0
  140.5993   80.5468  219.2623 H   0  0  0  0  0  0  0  0  0  0  0  0
  142.4366   78.3841  221.4912 H   0  0  0  0  0  0  0  0  0  0  0  0
  143.5693   78.9687  223.6027 H   0  0  0  0  0  0  0  0  0  0  0  0
  143.0617   81.2046  224.6266 H   0  0  0  0  0  0  0  0  0  0  0  0
  140.4008   82.1288  221.4694 H   0  0  0  0  0  0  0  0  0  0  0  0
  137.9463   76.5878  220.6947 H   0  0  0  0  0  0  0  0  0  0  0  0
  138.5426   75.7680  222.2526 H   0  0  0  0  0  0  0  0  0  0  0  0
  140.3746   77.9972  223.1266 H   0  0  0  0  0  0  0  0  0  0  0  0
  139.9731   79.9722  224.4496 H   0  0  0  0  0  0  0  0  0  0  0  0
  135.9211   80.0272  223.1255 H   0  0  0  0  0  0  0  0  0  0  0  0
  136.3191   78.0031  221.7676 H   0  0  0  0  0  0  0  0  0  0  0  0
  1  2  2  0
  2  3  1  0
  3  4  2  0
  4  5  1  0
  5  6  2  0
  6  7  1  0
  7  8  2  0
  8  9  1  0
  9 10  2  0
 10 11  1  0
 11 12  2  0
 12 13  1  0
 13 14  2  0
 14 15  1  0
 15 16  2  0
 16 17  1  0
 17 18  2  0
 10 19  1  0
 19 20  1  0
 20 21  1  0
 21 22  2  0
 22 23  1  0
 23 24  2  0
 24 25  1  0
 24 26  1  0
 26 27  2  0
 19  2  1  0
 27 21  1  0
  8  3  1  0
 18 13  1  0
  4 28  1  0
  5 29  1  0
  6 30  1  0
  7 31  1  0
 11 32  1  0
 12 33  1  0
 14 34  1  0
 15 35  1  0
 16 36  1  0
 18 37  1  0
 20 38  1  0
 20 39  1  0
 22 40  1  0
 23 41  1  0
 26 42  1  0
 27 43  1  0
M  END
>  <smiles>  (29) 
O=c1c2ccccc2nc(/C=C/c2cccnc2)n1Cc1ccc(Cl)cc1

>  <score_type>  (29) 
oracle

>  <origin>  (29) 
autodockgpu

>  <m_score__min__energy>  (29) 
-7.9100000000000001

>  <m_primary>  (29) 
energy

>  <rmsd>  (29) 
4.729704351115456

>  <m_score__min__rmsd>  (29) 
4.729704351115456

>  <meeko>  (29) 
{"free_energy": -6.91, "intermolecular_energy": -8.4, "internal_energy": -1.9, "cluster_size": 23, "cluster_id": 7, "rank_in_cluster": 21}

>  <energy>  (29) 
-7.17

>  <cluster_rmsd>  (29) 
0.17

>  <cluster>  (29) 
7

$$$$

     RDKit          3D

 43 46  0  0  0  0  0  0  0  0999 V2000
  140.2740   71.9550  224.9860 O   0  0  0  0  0  0  0  0  0  0  0  0
  139.6760   70.8400  224.9730 C   0  0  0  0  0  0  0  0  0  0  0  0
  139.9940   69.9730  225.9820 C   0  0  0  0  0  0  0  0  0  0  0  0
  140.9170   70.2950  226.9530 C   0  0  0  0  0  0  0  0  0  0  0  0
  141.1600   69.3420  227.9230 C   0  0  0  0  0  0  0  0  0  0  0  0
  140.5060   68.1100  227.9270 C   0  0  0  0  0  0  0  0  0  0  0  0
  139.5830   67.7980  226.9500 C   0  0  0  0  0  0  0  0  0  0  0  0
  139.3550   68.7610  225.9910 C   0  0  0  0  0  0  0  0  0  0  0  0
  138.4790   68.5100  225.0350 N   0  0  0  0  0  0  0  0  0  0  0  0
  138.1410   69.3620  224.0100 C   0  0  0  0  0  0  0  0  0  0  0  0
  137.1400   68.8560  223.1200 C   0  0  0  0  0  0  0  0  0  0  0  0
  135.8580   68.7560  223.2150 C   0  0  0  0  0  0  0  0  0  0  0  0
  135.0620   69.2510  224.3590 C   0  0  0  0  0  0  0  0  0  0  0  0
  135.0580   70.5990  224.6670 C   0  0  0  0  0  0  0  0  0  0  0  0
  134.3480   71.1350  225.7070 C   0  0  0  0  0  0  0  0  0  0  0  0
  133.6030   70.2480  226.4740 C   0  0  0  0  0  0  0  0  0  0  0  0
  133.5920   68.9430  226.1950 N   0  0  0  0  0  0  0  0  0  0  0  0
  134.3030   68.4330  225.1590 C   0  0  0  0  0  0  0  0  0  0  0  0
  138.7540   70.5430  223.9850 N   0  0  0  0  0  0  0  0  0  0  0  0
  138.5560   71.5890  223.0380 C   0  0  0  0  0  0  0  0  0  0  0  0
  139.7360   72.0760  222.3100 C   0  0  0  0  0  0  0  0  0  0  0  0
  139.9760   73.4330  222.0590 C   0  0  0  0  0  0  0  0  0  0  0  0
  141.0470   73.9100  221.3760 C   0  0  0  0  0  0  0  0  0  0  0  0
  141.9950   73.0620  220.8740 C   0  0  0  0  0  0  0  0  0  0  0  0
  143.3450   73.7100  220.0110 Cl  0  0  0  0  0  0  0  0  0  0  0  0
  141.8110   71.7120  221.0910 C   0  0  0  0  0  0  0  0  0  0  0  0
  140.7060   71.2210  221.7940 C   0  0  0  0  0  0  0  0  0  0  0  0
  141.4358   71.2650  226.9556 H   0  0  0  0  0  0  0  0  0  0  0  0
  141.8907   69.5611  228.7155 H   0  0  0  0  0  0  0  0  0  0  0  0
  140.7286   67.3788  228.7181 H   0  0  0  0  0  0  0  0  0  0  0  0
  139.0571   66.8319  226.9373 H   0  0  0  0  0  0  0  0  0  0  0  0
  137.5438   68.4787  222.1689 H   0  0  0  0  0  0  0  0  0  0  0  0
  135.3195   68.2692  222.3886 H   0  0  0  0  0  0  0  0  0  0  0  0
  135.6579   71.2772  224.0424 H   0  0  0  0  0  0  0  0  0  0  0  0
  134.3663   72.2131  225.9245 H   0  0  0  0  0  0  0  0  0  0  0  0
  133.0143   70.6264  227.3226 H   0  0  0  0  0  0  0  0  0  0  0  0
  134.2713   67.3521  224.9573 H   0  0  0  0  0  0  0  0  0  0  0  0
  137.8347   71.2255  222.2913 H   0  0  0  0  0  0  0  0  0  0  0  0
  138.2202   72.4491  223.6358 H   0  0  0  0  0  0  0  0  0  0  0  0
  139.2463   74.1618  222.4418 H   0  0  0  0  0  0  0  0  0  0  0  0
  141.1542   74.9942  221.2240 H   0  0  0  0  0  0  0  0  0  0  0  0
  142.5544   71.0017  220.7001 H   0  0  0  0  0  0  0  0  0  0  0  0
  140.6011   70.1361  221.9424 H   0  0  0  0  0  0  0  0  0  0  0  0
  1  2  2  0
  2  3  1  0
  3  4  2  0
  4  5  1  0
  5  6  2  0
  6  7  1  0
  7  8  2  0
  8  9  1  0
  9 10  2  0
 10 11  1  0
 11 12  2  0
 12 13  1  0
 13 14  2  0
 14 15  1  0
 15 16  2  0
 16 17  1  0
 17 18  2  0
 10 19  1  0
 19 20  1  0
 20 21  1  0
 21 22  2  0
 22 23  1  0
 23 24  2  0
 24 25  1  0
 24 26  1  0
 26 27  2  0
 19  2  1  0
 27 21  1  0
  8  3  1  0
 18 13  1  0
  4 28  1  0
  5 29  1  0
  6 30  1  0
  7 31  1  0
 11 32  1  0
 12 33  1  0
 14 34  1  0
 15 35  1  0
 16 36  1  0
 18 37  1  0
 20 38  1  0
 20 39  1  0
 22 40  1  0
 23 41  1  0
 26 42  1  0
 27 43  1  0
M  END
>  <smiles>  (30) 
O=c1c2ccccc2nc(/C=C/c2cccnc2)n1Cc1ccc(Cl)cc1

>  <score_type>  (30) 
oracle

>  <origin>  (30) 
autodockgpu

>  <m_score__min__energy>  (30) 
-7.9100000000000001

>  <m_primary>  (30) 
energy

>  <rmsd>  (30) 
10.101067969057404

>  <m_score__min__rmsd>  (30) 
10.101067969057404

>  <meeko>  (30) 
{"free_energy": -7.43, "intermolecular_energy": -8.92, "internal_energy": -1.27, "cluster_size": 4, "cluster_id": 4, "rank_in_cluster": 3}

>  <energy>  (30) 
-7.15

>  <cluster_rmsd>  (30) 
0.06

>  <cluster>  (30) 
7

$$$$

     RDKit          3D

 43 46  0  0  0  0  0  0  0  0999 V2000
  138.1990   75.2370  221.9240 O   0  0  0  0  0  0  0  0  0  0  0  0
  139.3450   74.8060  221.6010 C   0  0  0  0  0  0  0  0  0  0  0  0
  139.5760   73.4770  221.8320 C   0  0  0  0  0  0  0  0  0  0  0  0
  138.6180   72.6590  222.3870 C   0  0  0  0  0  0  0  0  0  0  0  0
  138.9610   71.3330  222.5750 C   0  0  0  0  0  0  0  0  0  0  0  0
  140.2170   70.8400  222.2210 C   0  0  0  0  0  0  0  0  0  0  0  0
  141.1690   71.6700  221.6650 C   0  0  0  0  0  0  0  0  0  0  0  0
  140.8080   72.9870  221.4860 C   0  0  0  0  0  0  0  0  0  0  0  0
  141.6850   73.8200  220.9570 N   0  0  0  0  0  0  0  0  0  0  0  0
  141.4790   75.1590  220.7150 C   0  0  0  0  0  0  0  0  0  0  0  0
  142.5860   75.8310  220.1040 C   0  0  0  0  0  0  0  0  0  0  0  0
  143.5120   75.4340  219.2990 C   0  0  0  0  0  0  0  0  0  0  0  0
  144.4430   74.3180  219.5770 C   0  0  0  0  0  0  0  0  0  0  0  0
  144.9830   74.1680  220.8410 C   0  0  0  0  0  0  0  0  0  0  0  0
  145.8500   73.1630  221.1780 C   0  0  0  0  0  0  0  0  0  0  0  0
  146.1820   72.2640  220.1720 C   0  0  0  0  0  0  0  0  0  0  0  0
  145.6710   72.3900  218.9460 N   0  0  0  0  0  0  0  0  0  0  0  0
  144.8140   73.3930  218.6330 C   0  0  0  0  0  0  0  0  0  0  0  0
  140.2880   75.6520  221.0460 N   0  0  0  0  0  0  0  0  0  0  0  0
  139.8410   76.9930  220.8750 C   0  0  0  0  0  0  0  0  0  0  0  0
  140.5210   78.0390  221.6530 C   0  0  0  0  0  0  0  0  0  0  0  0
  141.0210   77.8310  222.9440 C   0  0  0  0  0  0  0  0  0  0  0  0
  141.6380   78.7820  223.6910 C   0  0  0  0  0  0  0  0  0  0  0  0
  141.8160   80.0480  223.2070 C   0  0  0  0  0  0  0  0  0  0  0  0
  142.6070   81.2300  224.1900 Cl  0  0  0  0  0  0  0  0  0  0  0  0
  141.3430   80.3110  221.9390 C   0  0  0  0  0  0  0  0  0  0  0  0
  140.7060   79.3310  221.1700 C   0  0  0  0  0  0  0  0  0  0  0  0
  137.6260   73.0425  222.6678 H   0  0  0  0  0  0  0  0  0  0  0  0
  138.2226   70.6473  223.0162 H   0  0  0  0  0  0  0  0  0  0  0  0
  140.4511   69.7781  222.3868 H   0  0  0  0  0  0  0  0  0  0  0  0
  142.1645   71.2990  221.3796 H   0  0  0  0  0  0  0  0  0  0  0  0
  142.6613   76.8946  220.3743 H   0  0  0  0  0  0  0  0  0  0  0  0
  143.6170   75.9614  218.3394 H   0  0  0  0  0  0  0  0  0  0  0  0
  144.7012   74.8947  221.6172 H   0  0  0  0  0  0  0  0  0  0  0  0
  146.2627   73.0721  222.1936 H   0  0  0  0  0  0  0  0  0  0  0  0
  146.8750   71.4378  220.3891 H   0  0  0  0  0  0  0  0  0  0  0  0
  144.4118   73.4663  217.6118 H   0  0  0  0  0  0  0  0  0  0  0  0
  139.9569   77.2459  219.8108 H   0  0  0  0  0  0  0  0  0  0  0  0
  138.8063   76.9936  221.2484 H   0  0  0  0  0  0  0  0  0  0  0  0
  140.9061   76.8289  223.3829 H   0  0  0  0  0  0  0  0  0  0  0  0
  141.9995   78.5305  224.6990 H   0  0  0  0  0  0  0  0  0  0  0  0
  141.4701   81.3201  221.5199 H   0  0  0  0  0  0  0  0  0  0  0  0
  140.3441   79.5869  220.1633 H   0  0  0  0  0  0  0  0  0  0  0  0
  1  2  2  0
  2  3  1  0
  3  4  2  0
  4  5  1  0
  5  6  2  0
  6  7  1  0
  7  8  2  0
  8  9  1  0
  9 10  2  0
 10 11  1  0
 11 12  2  0
 12 13  1  0
 13 14  2  0
 14 15  1  0
 15 16  2  0
 16 17  1  0
 17 18  2  0
 10 19  1  0
 19 20  1  0
 20 21  1  0
 21 22  2  0
 22 23  1  0
 23 24  2  0
 24 25  1  0
 24 26  1  0
 26 27  2  0
 19  2  1  0
 27 21  1  0
  8  3  1  0
 18 13  1  0
  4 28  1  0
  5 29  1  0
  6 30  1  0
  7 31  1  0
 11 32  1  0
 12 33  1  0
 14 34  1  0
 15 35  1  0
 16 36  1  0
 18 37  1  0
 20 38  1  0
 20 39  1  0
 22 40  1  0
 23 41  1  0
 26 42  1  0
 27 43  1  0
M  END
>  <smiles>  (31) 
O=c1c2ccccc2nc(/C=C/c2cccnc2)n1Cc1ccc(Cl)cc1

>  <score_type>  (31) 
oracle

>  <origin>  (31) 
autodockgpu

>  <m_score__min__energy>  (31) 
-7.9100000000000001

>  <m_primary>  (31) 
energy

>  <rmsd>  (31) 
4.7504098659476375

>  <m_score__min__rmsd>  (31) 
4.7504098659476375

>  <meeko>  (31) 
{"free_energy": -7.46, "intermolecular_energy": -8.95, "internal_energy": -1.35, "cluster_size": 2, "cluster_id": 5, "rank_in_cluster": 2}

>  <energy>  (31) 
-7.13

>  <cluster_rmsd>  (31) 
0.07

>  <cluster>  (31) 
7

$$$$

     RDKit          3D

 43 46  0  0  0  0  0  0  0  0999 V2000
  138.2530   75.2230  222.0990 O   0  0  0  0  0  0  0  0  0  0  0  0
  139.3790   74.8220  221.6830 C   0  0  0  0  0  0  0  0  0  0  0  0
  139.6290   73.4840  221.8150 C   0  0  0  0  0  0  0  0  0  0  0  0
  138.7080   72.6240  222.3730 C   0  0  0  0  0  0  0  0  0  0  0  0
  139.0680   71.2920  222.4570 C   0  0  0  0  0  0  0  0  0  0  0  0
  140.3030   70.8330  221.9990 C   0  0  0  0  0  0  0  0  0  0  0  0
  141.2170   71.7030  221.4420 C   0  0  0  0  0  0  0  0  0  0  0  0
  140.8400   73.0260  221.3680 C   0  0  0  0  0  0  0  0  0  0  0  0
  141.6820   73.8980  220.8420 N   0  0  0  0  0  0  0  0  0  0  0  0
  141.4560   75.2470  220.6980 C   0  0  0  0  0  0  0  0  0  0  0  0
  142.5230   75.9650  220.0670 C   0  0  0  0  0  0  0  0  0  0  0  0
  143.4890   75.5940  219.2990 C   0  0  0  0  0  0  0  0  0  0  0  0
  144.3750   74.4390  219.5630 C   0  0  0  0  0  0  0  0  0  0  0  0
  144.8170   74.1880  220.8490 C   0  0  0  0  0  0  0  0  0  0  0  0
  145.6360   73.1410  221.1760 C   0  0  0  0  0  0  0  0  0  0  0  0
  146.0250   72.3060  220.1360 C   0  0  0  0  0  0  0  0  0  0  0  0
  145.6100   72.5300  218.8870 N   0  0  0  0  0  0  0  0  0  0  0  0
  144.7970   73.5740  218.5850 C   0  0  0  0  0  0  0  0  0  0  0  0
  140.2850   75.7090  221.1280 N   0  0  0  0  0  0  0  0  0  0  0  0
  139.8230   77.0550  221.0690 C   0  0  0  0  0  0  0  0  0  0  0  0
  140.5910   78.0680  221.8060 C   0  0  0  0  0  0  0  0  0  0  0  0
  141.0880   77.8630  223.0990 C   0  0  0  0  0  0  0  0  0  0  0  0
  141.7860   78.7850  223.8090 C   0  0  0  0  0  0  0  0  0  0  0  0
  142.0560   80.0190  223.2840 C   0  0  0  0  0  0  0  0  0  0  0  0
  142.9470   81.1650  224.2210 Cl  0  0  0  0  0  0  0  0  0  0  0  0
  141.5890   80.2780  222.0120 C   0  0  0  0  0  0  0  0  0  0  0  0
  140.8700   79.3270  221.2810 C   0  0  0  0  0  0  0  0  0  0  0  0
  137.7323   72.9807  222.7345 H   0  0  0  0  0  0  0  0  0  0  0  0
  138.3607   70.5739  222.8974 H   0  0  0  0  0  0  0  0  0  0  0  0
  140.5509   69.7646  222.0830 H   0  0  0  0  0  0  0  0  0  0  0  0
  142.1955   71.3586  221.0761 H   0  0  0  0  0  0  0  0  0  0  0  0
  142.5164   77.0442  220.2797 H   0  0  0  0  0  0  0  0  0  0  0  0
  143.6673   76.1768  218.3832 H   0  0  0  0  0  0  0  0  0  0  0  0
  144.4931   74.8661  221.6523 H   0  0  0  0  0  0  0  0  0  0  0  0
  145.9693   72.9694  222.2101 H   0  0  0  0  0  0  0  0  0  0  0  0
  146.6832   71.4496  220.3443 H   0  0  0  0  0  0  0  0  0  0  0  0
  144.4729   73.7283  217.5452 H   0  0  0  0  0  0  0  0  0  0  0  0
  139.8135   77.3542  220.0105 H   0  0  0  0  0  0  0  0  0  0  0  0
  138.8393   77.0358  221.5609 H   0  0  0  0  0  0  0  0  0  0  0  0
  140.8997   76.8877  223.5716 H   0  0  0  0  0  0  0  0  0  0  0  0
  142.1395   78.5367  224.8206 H   0  0  0  0  0  0  0  0  0  0  0  0
  141.7879   81.2608  221.5597 H   0  0  0  0  0  0  0  0  0  0  0  0
  140.5174   79.5790  220.2700 H   0  0  0  0  0  0  0  0  0  0  0  0
  1  2  2  0
  2  3  1  0
  3  4  2  0
  4  5  1  0
  5  6  2  0
  6  7  1  0
  7  8  2  0
  8  9  1  0
  9 10  2  0
 10 11  1  0
 11 12  2  0
 12 13  1  0
 13 14  2  0
 14 15  1  0
 15 16  2  0
 16 17  1  0
 17 18  2  0
 10 19  1  0
 19 20  1  0
 20 21  1  0
 21 22  2  0
 22 23  1  0
 23 24  2  0
 24 25  1  0
 24 26  1  0
 26 27  2  0
 19  2  1  0
 27 21  1  0
  8  3  1  0
 18 13  1  0
  4 28  1  0
  5 29  1  0
  6 30  1  0
  7 31  1  0
 11 32  1  0
 12 33  1  0
 14 34  1  0
 15 35  1  0
 16 36  1  0
 18 37  1  0
 20 38  1  0
 20 39  1  0
 22 40  1  0
 23 41  1  0
 26 42  1  0
 27 43  1  0
M  END
>  <smiles>  (32) 
O=c1c2ccccc2nc(/C=C/c2cccnc2)n1Cc1ccc(Cl)cc1

>  <score_type>  (32) 
oracle

>  <origin>  (32) 
autodockgpu

>  <m_score__min__energy>  (32) 
-7.9100000000000001

>  <m_primary>  (32) 
energy

>  <rmsd>  (32) 
4.748166214269458

>  <m_score__min__rmsd>  (32) 
4.748166214269458

>  <meeko>  (32) 
{"free_energy": -7.47, "intermolecular_energy": -8.96, "internal_energy": -1.38, "cluster_size": 2, "cluster_id": 5, "rank_in_cluster": 1}

>  <energy>  (32) 
-7.12

>  <cluster_rmsd>  (32) 
0.21

>  <cluster>  (32) 
7

$$$$

     RDKit          3D

 43 46  0  0  0  0  0  0  0  0999 V2000
  141.4480   71.1210  221.1360 O   0  0  0  0  0  0  0  0  0  0  0  0
  141.7900   72.3400  221.1150 C   0  0  0  0  0  0  0  0  0  0  0  0
  143.0470   72.6050  220.6440 C   0  0  0  0  0  0  0  0  0  0  0  0
  143.8910   71.6020  220.2220 C   0  0  0  0  0  0  0  0  0  0  0  0
  145.1390   71.9870  219.7670 C   0  0  0  0  0  0  0  0  0  0  0  0
  145.5300   73.3250  219.7320 C   0  0  0  0  0  0  0  0  0  0  0  0
  144.6750   74.3210  220.1570 C   0  0  0  0  0  0  0  0  0  0  0  0
  143.4370   73.9180  220.6070 C   0  0  0  0  0  0  0  0  0  0  0  0
  142.5830   74.8350  221.0240 N   0  0  0  0  0  0  0  0  0  0  0  0
  141.3150   74.5960  221.5010 C   0  0  0  0  0  0  0  0  0  0  0  0
  140.5820   75.7730  221.8610 C   0  0  0  0  0  0  0  0  0  0  0  0
  140.5980   76.9810  221.4110 C   0  0  0  0  0  0  0  0  0  0  0  0
  141.1990   78.1320  222.1210 C   0  0  0  0  0  0  0  0  0  0  0  0
  141.5580   79.2660  221.4170 C   0  0  0  0  0  0  0  0  0  0  0  0
  142.1180   80.3710  221.9990 C   0  0  0  0  0  0  0  0  0  0  0  0
  142.3240   80.3150  223.3710 C   0  0  0  0  0  0  0  0  0  0  0  0
  141.9850   79.2300  224.0710 N   0  0  0  0  0  0  0  0  0  0  0  0
  141.4300   78.1450  223.4740 C   0  0  0  0  0  0  0  0  0  0  0  0
  140.9200   73.3260  221.5450 N   0  0  0  0  0  0  0  0  0  0  0  0
  139.6550   72.8390  221.9820 C   0  0  0  0  0  0  0  0  0  0  0  0
  139.6420   71.9090  223.1200 C   0  0  0  0  0  0  0  0  0  0  0  0
  140.6660   71.8500  224.0730 C   0  0  0  0  0  0  0  0  0  0  0  0
  140.6880   70.9920  225.1240 C   0  0  0  0  0  0  0  0  0  0  0  0
  139.6720   70.0980  225.3230 C   0  0  0  0  0  0  0  0  0  0  0  0
  139.7390   69.0220  226.6740 Cl  0  0  0  0  0  0  0  0  0  0  0  0
  138.6360   70.1110  224.4130 C   0  0  0  0  0  0  0  0  0  0  0  0
  138.6140   70.9950  223.3300 C   0  0  0  0  0  0  0  0  0  0  0  0
  143.5871   70.5451  220.2457 H   0  0  0  0  0  0  0  0  0  0  0  0
  145.8435   71.2155  219.4228 H   0  0  0  0  0  0  0  0  0  0  0  0
  146.5314   73.5894  219.3614 H   0  0  0  0  0  0  0  0  0  0  0  0
  144.9667   75.3814  220.1375 H   0  0  0  0  0  0  0  0  0  0  0  0
  139.8661   75.6153  222.6811 H   0  0  0  0  0  0  0  0  0  0  0  0
  140.1330   77.1691  220.4320 H   0  0  0  0  0  0  0  0  0  0  0  0
  141.3844   79.2812  220.3309 H   0  0  0  0  0  0  0  0  0  0  0  0
  142.3911   81.2587  221.4095 H   0  0  0  0  0  0  0  0  0  0  0  0
  142.7725   81.1761  223.8880 H   0  0  0  0  0  0  0  0  0  0  0  0
  141.1625   77.2671  224.0805 H   0  0  0  0  0  0  0  0  0  0  0  0
  139.0452   73.7107  222.2619 H   0  0  0  0  0  0  0  0  0  0  0  0
  139.2735   72.2503  221.1347 H   0  0  0  0  0  0  0  0  0  0  0  0
  141.5101   72.5466  223.9622 H   0  0  0  0  0  0  0  0  0  0  0  0
  141.5347   71.0157  225.8258 H   0  0  0  0  0  0  0  0  0  0  0  0
  137.8024   69.4051  224.5430 H   0  0  0  0  0  0  0  0  0  0  0  0
  137.7664   70.9674  222.6294 H   0  0  0  0  0  0  0  0  0  0  0  0
  1  2  2  0
  2  3  1  0
  3  4  2  0
  4  5  1  0
  5  6  2  0
  6  7  1  0
  7  8  2  0
  8  9  1  0
  9 10  2  0
 10 11  1  0
 11 12  2  0
 12 13  1  0
 13 14  2  0
 14 15  1  0
 15 16  2  0
 16 17  1  0
 17 18  2  0
 10 19  1  0
 19 20  1  0
 20 21  1  0
 21 22  2  0
 22 23  1  0
 23 24  2  0
 24 25  1  0
 24 26  1  0
 26 27  2  0
 19  2  1  0
 27 21  1  0
  8  3  1  0
 18 13  1  0
  4 28  1  0
  5 29  1  0
  6 30  1  0
  7 31  1  0
 11 32  1  0
 12 33  1  0
 14 34  1  0
 15 35  1  0
 16 36  1  0
 18 37  1  0
 20 38  1  0
 20 39  1  0
 22 40  1  0
 23 41  1  0
 26 42  1  0
 27 43  1  0
M  END
>  <smiles>  (33) 
O=c1c2ccccc2nc(/C=C/c2cccnc2)n1Cc1ccc(Cl)cc1

>  <score_type>  (33) 
oracle

>  <origin>  (33) 
autodockgpu

>  <m_score__min__energy>  (33) 
-7.9100000000000001

>  <m_primary>  (33) 
energy

>  <rmsd>  (33) 
9.273594783379865

>  <m_score__min__rmsd>  (33) 
9.273594783379865

>  <meeko>  (33) 
{"free_energy": -7.68, "intermolecular_energy": -9.17, "internal_energy": -0.98, "cluster_size": 10, "cluster_id": 2, "rank_in_cluster": 7}

>  <energy>  (33) 
-7.1

>  <cluster_rmsd>  (33) 
0.07

>  <cluster>  (33) 
7

$$$$

     RDKit          3D

 43 46  0  0  0  0  0  0  0  0999 V2000
  141.5920   71.1270  221.2210 O   0  0  0  0  0  0  0  0  0  0  0  0
  141.7850   72.3760  221.1470 C   0  0  0  0  0  0  0  0  0  0  0  0
  143.0190   72.7710  220.7090 C   0  0  0  0  0  0  0  0  0  0  0  0
  143.9960   71.8600  220.3730 C   0  0  0  0  0  0  0  0  0  0  0  0
  145.2060   72.3730  219.9430 C   0  0  0  0  0  0  0  0  0  0  0  0
  145.4330   73.7460  219.8510 C   0  0  0  0  0  0  0  0  0  0  0  0
  144.4470   74.6490  220.1900 C   0  0  0  0  0  0  0  0  0  0  0  0
  143.2490   74.1180  220.6160 C   0  0  0  0  0  0  0  0  0  0  0  0
  142.2720   74.9420  220.9520 N   0  0  0  0  0  0  0  0  0  0  0  0
  141.0240   74.5720  221.3950 C   0  0  0  0  0  0  0  0  0  0  0  0
  140.1390   75.6660  221.6640 C   0  0  0  0  0  0  0  0  0  0  0  0
  140.1610   76.6110  222.5410 C   0  0  0  0  0  0  0  0  0  0  0  0
  140.9390   77.8620  222.4050 C   0  0  0  0  0  0  0  0  0  0  0  0
  141.4470   78.4860  223.5290 C   0  0  0  0  0  0  0  0  0  0  0  0
  142.1750   79.6440  223.4870 C   0  0  0  0  0  0  0  0  0  0  0  0
  142.3960   80.1950  222.2310 C   0  0  0  0  0  0  0  0  0  0  0  0
  141.9160   79.6100  221.1330 N   0  0  0  0  0  0  0  0  0  0  0  0
  141.1960   78.4610  221.1970 C   0  0  0  0  0  0  0  0  0  0  0  0
  140.7850   73.2670  221.4920 N   0  0  0  0  0  0  0  0  0  0  0  0
  139.5700   72.6490  221.9070 C   0  0  0  0  0  0  0  0  0  0  0  0
  139.6110   71.8230  223.1220 C   0  0  0  0  0  0  0  0  0  0  0  0
  138.6060   70.9080  223.4610 C   0  0  0  0  0  0  0  0  0  0  0  0
  138.6090   70.1450  224.5830 C   0  0  0  0  0  0  0  0  0  0  0  0
  139.6340   70.2260  225.4850 C   0  0  0  0  0  0  0  0  0  0  0  0
  139.6000   69.2350  226.9010 Cl  0  0  0  0  0  0  0  0  0  0  0  0
  140.6530   71.1120  225.2030 C   0  0  0  0  0  0  0  0  0  0  0  0
  140.6480   71.8990  224.0470 C   0  0  0  0  0  0  0  0  0  0  0  0
  143.8220   70.7761  220.4434 H   0  0  0  0  0  0  0  0  0  0  0  0
  146.0125   71.6783  219.6656 H   0  0  0  0  0  0  0  0  0  0  0  0
  146.4101   74.1132  219.5039 H   0  0  0  0  0  0  0  0  0  0  0  0
  144.6084   75.7351  220.1238 H   0  0  0  0  0  0  0  0  0  0  0  0
  139.2705   75.7081  220.9903 H   0  0  0  0  0  0  0  0  0  0  0  0
  139.5601   76.4779  223.4527 H   0  0  0  0  0  0  0  0  0  0  0  0
  141.2558   78.0269  224.5102 H   0  0  0  0  0  0  0  0  0  0  0  0
  142.5654   80.1147  224.4014 H   0  0  0  0  0  0  0  0  0  0  0  0
  142.9746   81.1262  222.1410 H   0  0  0  0  0  0  0  0  0  0  0  0
  140.8146   78.0053  220.2713 H   0  0  0  0  0  0  0  0  0  0  0  0
  138.8343   73.4490  222.0767 H   0  0  0  0  0  0  0  0  0  0  0  0
  139.3216   71.9464  221.0979 H   0  0  0  0  0  0  0  0  0  0  0  0
  137.7564   70.8007  222.7705 H   0  0  0  0  0  0  0  0  0  0  0  0
  137.7756   69.4517  224.7697 H   0  0  0  0  0  0  0  0  0  0  0  0
  141.4932   71.2020  225.9073 H   0  0  0  0  0  0  0  0  0  0  0  0
  141.4817   72.5931  223.8649 H   0  0  0  0  0  0  0  0  0  0  0  0
  1  2  2  0
  2  3  1  0
  3  4  2  0
  4  5  1  0
  5  6  2  0
  6  7  1  0
  7  8  2  0
  8  9  1  0
  9 10  2  0
 10 11  1  0
 11 12  2  0
 12 13  1  0
 13 14  2  0
 14 15  1  0
 15 16  2  0
 16 17  1  0
 17 18  2  0
 10 19  1  0
 19 20  1  0
 20 21  1  0
 21 22  2  0
 22 23  1  0
 23 24  2  0
 24 25  1  0
 24 26  1  0
 26 27  2  0
 19  2  1  0
 27 21  1  0
  8  3  1  0
 18 13  1  0
  4 28  1  0
  5 29  1  0
  6 30  1  0
  7 31  1  0
 11 32  1  0
 12 33  1  0
 14 34  1  0
 15 35  1  0
 16 36  1  0
 18 37  1  0
 20 38  1  0
 20 39  1  0
 22 40  1  0
 23 41  1  0
 26 42  1  0
 27 43  1  0
M  END
>  <smiles>  (34) 
O=c1c2ccccc2nc(/C=C/c2cccnc2)n1Cc1ccc(Cl)cc1

>  <score_type>  (34) 
oracle

>  <origin>  (34) 
autodockgpu

>  <m_score__min__energy>  (34) 
-7.9100000000000001

>  <m_primary>  (34) 
energy

>  <rmsd>  (34) 
9.098301503548049

>  <m_score__min__rmsd>  (34) 
9.098301503548049

>  <meeko>  (34) 
{"free_energy": -7.67, "intermolecular_energy": -9.16, "internal_energy": -1.07, "cluster_size": 10, "cluster_id": 2, "rank_in_cluster": 8}

>  <energy>  (34) 
-7.1

>  <cluster_rmsd>  (34) 
0.21

>  <cluster>  (34) 
7

$$$$

     RDKit          3D

 43 46  0  0  0  0  0  0  0  0999 V2000
  140.0460   74.1550  221.9130 O   0  0  0  0  0  0  0  0  0  0  0  0
  140.7180   75.0180  221.2760 C   0  0  0  0  0  0  0  0  0  0  0  0
  141.9680   74.6340  220.8740 C   0  0  0  0  0  0  0  0  0  0  0  0
  142.4670   73.3810  221.1530 C   0  0  0  0  0  0  0  0  0  0  0  0
  143.7430   73.1020  220.6990 C   0  0  0  0  0  0  0  0  0  0  0  0
  144.4940   74.0400  219.9910 C   0  0  0  0  0  0  0  0  0  0  0  0
  143.9830   75.2920  219.7170 C   0  0  0  0  0  0  0  0  0  0  0  0
  142.7110   75.5510  220.1780 C   0  0  0  0  0  0  0  0  0  0  0  0
  142.1780   76.7350  219.9410 N   0  0  0  0  0  0  0  0  0  0  0  0
  140.9260   77.1470  220.3320 C   0  0  0  0  0  0  0  0  0  0  0  0
  140.5790   78.4740  219.9200 C   0  0  0  0  0  0  0  0  0  0  0  0
  141.1540   79.6160  220.0820 C   0  0  0  0  0  0  0  0  0  0  0  0
  141.6210   80.1430  221.3840 C   0  0  0  0  0  0  0  0  0  0  0  0
  142.4600   79.3820  222.1770 C   0  0  0  0  0  0  0  0  0  0  0  0
  142.9350   79.7970  223.3910 C   0  0  0  0  0  0  0  0  0  0  0  0
  142.5320   81.0550  223.8200 C   0  0  0  0  0  0  0  0  0  0  0  0
  141.7230   81.8070  223.0710 N   0  0  0  0  0  0  0  0  0  0  0  0
  141.2640   81.3760  221.8690 C   0  0  0  0  0  0  0  0  0  0  0  0
  140.1900   76.2700  221.0100 N   0  0  0  0  0  0  0  0  0  0  0  0
  138.8670   76.4610  221.5020 C   0  0  0  0  0  0  0  0  0  0  0  0
  138.6140   77.6560  222.3190 C   0  0  0  0  0  0  0  0  0  0  0  0
  137.3720   78.3010  222.3710 C   0  0  0  0  0  0  0  0  0  0  0  0
  137.1140   79.4140  223.1030 C   0  0  0  0  0  0  0  0  0  0  0  0
  138.0890   79.9950  223.8650 C   0  0  0  0  0  0  0  0  0  0  0  0
  137.7200   81.4110  224.7840 Cl  0  0  0  0  0  0  0  0  0  0  0  0
  139.3350   79.4020  223.8530 C   0  0  0  0  0  0  0  0  0  0  0  0
  139.6000   78.2560  223.0970 C   0  0  0  0  0  0  0  0  0  0  0  0
  141.8784   72.6375  221.7105 H   0  0  0  0  0  0  0  0  0  0  0  0
  144.1780   72.1123  220.9020 H   0  0  0  0  0  0  0  0  0  0  0  0
  145.5056   73.7786  219.6470 H   0  0  0  0  0  0  0  0  0  0  0  0
  144.5610   76.0439  219.1597 H   0  0  0  0  0  0  0  0  0  0  0  0
  139.6371   78.5294  219.3545 H   0  0  0  0  0  0  0  0  0  0  0  0
  141.3084   80.2424  219.1911 H   0  0  0  0  0  0  0  0  0  0  0  0
  142.7619   78.3892  221.8120 H   0  0  0  0  0  0  0  0  0  0  0  0
  143.6023   79.1663  223.9967 H   0  0  0  0  0  0  0  0  0  0  0  0
  142.8842   81.4365  224.7898 H   0  0  0  0  0  0  0  0  0  0  0  0
  140.5987   82.0218  221.2771 H   0  0  0  0  0  0  0  0  0  0  0  0
  138.1953   76.5081  220.6321 H   0  0  0  0  0  0  0  0  0  0  0  0
  138.6957   75.6141  222.1827 H   0  0  0  0  0  0  0  0  0  0  0  0
  136.5490   77.8761  221.7776 H   0  0  0  0  0  0  0  0  0  0  0  0
  136.1064   79.8549  223.0830 H   0  0  0  0  0  0  0  0  0  0  0  0
  140.1427   79.8434  224.4553 H   0  0  0  0  0  0  0  0  0  0  0  0
  140.6094   77.8192  223.1175 H   0  0  0  0  0  0  0  0  0  0  0  0
  1  2  2  0
  2  3  1  0
  3  4  2  0
  4  5  1  0
  5  6  2  0
  6  7  1  0
  7  8  2  0
  8  9  1  0
  9 10  2  0
 10 11  1  0
 11 12  2  0
 12 13  1  0
 13 14  2  0
 14 15  1  0
 15 16  2  0
 16 17  1  0
 17 18  2  0
 10 19  1  0
 19 20  1  0
 20 21  1  0
 21 22  2  0
 22 23  1  0
 23 24  2  0
 24 25  1  0
 24 26  1  0
 26 27  2  0
 19  2  1  0
 27 21  1  0
  8  3  1  0
 18 13  1  0
  4 28  1  0
  5 29  1  0
  6 30  1  0
  7 31  1  0
 11 32  1  0
 12 33  1  0
 14 34  1  0
 15 35  1  0
 16 36  1  0
 18 37  1  0
 20 38  1  0
 20 39  1  0
 22 40  1  0
 23 41  1  0
 26 42  1  0
 27 43  1  0
M  END
>  <smiles>  (35) 
O=c1c2ccccc2nc(/C=C/c2cccnc2)n1Cc1ccc(Cl)cc1

>  <score_type>  (35) 
oracle

>  <origin>  (35) 
autodockgpu

>  <m_score__min__energy>  (35) 
-7.9100000000000001

>  <m_primary>  (35) 
energy

>  <rmsd>  (35) 
4.603760832901689

>  <m_score__min__rmsd>  (35) 
4.603760832901689

>  <meeko>  (35) 
{"free_energy": -7.04, "intermolecular_energy": -8.53, "internal_energy": -1.89, "cluster_size": 23, "cluster_id": 7, "rank_in_cluster": 11}

>  <energy>  (35) 
-7.1

>  <cluster_rmsd>  (35) 
0.2

>  <cluster>  (35) 
7

$$$$

     RDKit          3D

 43 46  0  0  0  0  0  0  0  0999 V2000
  140.1260   73.8550  221.9660 O   0  0  0  0  0  0  0  0  0  0  0  0
  140.8130   74.7200  221.3470 C   0  0  0  0  0  0  0  0  0  0  0  0
  142.0580   74.3230  220.9430 C   0  0  0  0  0  0  0  0  0  0  0  0
  142.5370   73.0580  221.2000 C   0  0  0  0  0  0  0  0  0  0  0  0
  143.8100   72.7680  220.7450 C   0  0  0  0  0  0  0  0  0  0  0  0
  144.5780   73.7060  220.0570 C   0  0  0  0  0  0  0  0  0  0  0  0
  144.0880   74.9710  219.8050 C   0  0  0  0  0  0  0  0  0  0  0  0
  142.8180   75.2410  220.2660 C   0  0  0  0  0  0  0  0  0  0  0  0
  142.3040   76.4380  220.0490 N   0  0  0  0  0  0  0  0  0  0  0  0
  141.0570   76.8620  220.4440 C   0  0  0  0  0  0  0  0  0  0  0  0
  140.7320   78.2020  220.0550 C   0  0  0  0  0  0  0  0  0  0  0  0
  141.3850   79.3120  220.1230 C   0  0  0  0  0  0  0  0  0  0  0  0
  141.6990   80.0240  221.3810 C   0  0  0  0  0  0  0  0  0  0  0  0
  142.5580   79.4540  222.3020 C   0  0  0  0  0  0  0  0  0  0  0  0
  142.8990   80.0480  223.4870 C   0  0  0  0  0  0  0  0  0  0  0  0
  142.3330   81.2900  223.7460 C   0  0  0  0  0  0  0  0  0  0  0  0
  141.5010   81.8590  222.8720 N   0  0  0  0  0  0  0  0  0  0  0  0
  141.1760   81.2520  221.7020 C   0  0  0  0  0  0  0  0  0  0  0  0
  140.3060   75.9840  221.1030 N   0  0  0  0  0  0  0  0  0  0  0  0
  138.9840   76.1870  221.5940 C   0  0  0  0  0  0  0  0  0  0  0  0
  138.7180   77.4300  222.3310 C   0  0  0  0  0  0  0  0  0  0  0  0
  139.6880   78.0910  223.0950 C   0  0  0  0  0  0  0  0  0  0  0  0
  139.4660   79.2300  223.7980 C   0  0  0  0  0  0  0  0  0  0  0  0
  138.2340   79.8240  223.8030 C   0  0  0  0  0  0  0  0  0  0  0  0
  137.9940   81.2750  224.7120 Cl  0  0  0  0  0  0  0  0  0  0  0  0
  137.2390   79.2160  223.0680 C   0  0  0  0  0  0  0  0  0  0  0  0
  137.4680   78.0420  222.3440 C   0  0  0  0  0  0  0  0  0  0  0  0
  141.9354   72.3133  221.7417 H   0  0  0  0  0  0  0  0  0  0  0  0
  144.2289   71.7681  220.9313 H   0  0  0  0  0  0  0  0  0  0  0  0
  145.5863   73.4346  219.7110 H   0  0  0  0  0  0  0  0  0  0  0  0
  144.6801   75.7242  219.2645 H   0  0  0  0  0  0  0  0  0  0  0  0
  139.7303   78.3039  219.6120 H   0  0  0  0  0  0  0  0  0  0  0  0
  141.7325   79.7602  219.1805 H   0  0  0  0  0  0  0  0  0  0  0  0
  142.9909   78.4698  222.0699 H   0  0  0  0  0  0  0  0  0  0  0  0
  143.5863   79.5664  224.1981 H   0  0  0  0  0  0  0  0  0  0  0  0
  142.5740   81.8112  224.6842 H   0  0  0  0  0  0  0  0  0  0  0  0
  140.4864   81.7493  221.0040 H   0  0  0  0  0  0  0  0  0  0  0  0
  138.3042   76.1645  220.7295 H   0  0  0  0  0  0  0  0  0  0  0  0
  138.8328   75.3855  222.3320 H   0  0  0  0  0  0  0  0  0  0  0  0
  140.6984   77.6573  223.1273 H   0  0  0  0  0  0  0  0  0  0  0  0
  140.2883   79.6820  224.3720 H   0  0  0  0  0  0  0  0  0  0  0  0
  136.2360   79.6674  223.0505 H   0  0  0  0  0  0  0  0  0  0  0  0
  136.6426   77.5924  221.7725 H   0  0  0  0  0  0  0  0  0  0  0  0
  1  2  2  0
  2  3  1  0
  3  4  2  0
  4  5  1  0
  5  6  2  0
  6  7  1  0
  7  8  2  0
  8  9  1  0
  9 10  2  0
 10 11  1  0
 11 12  2  0
 12 13  1  0
 13 14  2  0
 14 15  1  0
 15 16  2  0
 16 17  1  0
 17 18  2  0
 10 19  1  0
 19 20  1  0
 20 21  1  0
 21 22  2  0
 22 23  1  0
 23 24  2  0
 24 25  1  0
 24 26  1  0
 26 27  2  0
 19  2  1  0
 27 21  1  0
  8  3  1  0
 18 13  1  0
  4 28  1  0
  5 29  1  0
  6 30  1  0
  7 31  1  0
 11 32  1  0
 12 33  1  0
 14 34  1  0
 15 35  1  0
 16 36  1  0
 18 37  1  0
 20 38  1  0
 20 39  1  0
 22 40  1  0
 23 41  1  0
 26 42  1  0
 27 43  1  0
M  END
>  <smiles>  (36) 
O=c1c2ccccc2nc(/C=C/c2cccnc2)n1Cc1ccc(Cl)cc1

>  <score_type>  (36) 
oracle

>  <origin>  (36) 
autodockgpu

>  <m_score__min__energy>  (36) 
-7.9100000000000001

>  <m_primary>  (36) 
energy

>  <rmsd>  (36) 
4.982044561162172

>  <m_score__min__rmsd>  (36) 
4.982044561162172

>  <meeko>  (36) 
{"free_energy": -7.1, "intermolecular_energy": -8.59, "internal_energy": -1.83, "cluster_size": 23, "cluster_id": 7, "rank_in_cluster": 6}

>  <energy>  (36) 
-7.1

>  <cluster_rmsd>  (36) 
0.24

>  <cluster>  (36) 
7

$$$$

     RDKit          3D

 43 46  0  0  0  0  0  0  0  0999 V2000
  141.4250   71.1290  221.2350 O   0  0  0  0  0  0  0  0  0  0  0  0
  141.7040   72.3630  221.1980 C   0  0  0  0  0  0  0  0  0  0  0  0
  142.9330   72.6880  220.6910 C   0  0  0  0  0  0  0  0  0  0  0  0
  143.8150   71.7260  220.2510 C   0  0  0  0  0  0  0  0  0  0  0  0
  145.0280   72.1700  219.7590 C   0  0  0  0  0  0  0  0  0  0  0  0
  145.3500   73.5260  219.7060 C   0  0  0  0  0  0  0  0  0  0  0  0
  144.4580   74.4810  220.1490 C   0  0  0  0  0  0  0  0  0  0  0  0
  143.2550   74.0190  220.6360 C   0  0  0  0  0  0  0  0  0  0  0  0
  142.3670   74.8940  221.0720 N   0  0  0  0  0  0  0  0  0  0  0  0
  141.1270   74.5950  221.5860 C   0  0  0  0  0  0  0  0  0  0  0  0
  140.3460   75.7360  221.9590 C   0  0  0  0  0  0  0  0  0  0  0  0
  140.2470   76.9240  221.4690 C   0  0  0  0  0  0  0  0  0  0  0  0
  141.0130   78.0950  221.9490 C   0  0  0  0  0  0  0  0  0  0  0  0
  141.3070   78.2250  223.2940 C   0  0  0  0  0  0  0  0  0  0  0  0
  142.0100   79.2770  223.8160 C   0  0  0  0  0  0  0  0  0  0  0  0
  142.4360   80.2470  222.9180 C   0  0  0  0  0  0  0  0  0  0  0  0
  142.1640   80.1420  221.6160 N   0  0  0  0  0  0  0  0  0  0  0  0
  141.4660   79.0910  221.1190 C   0  0  0  0  0  0  0  0  0  0  0  0
  140.7980   73.3070  221.6470 N   0  0  0  0  0  0  0  0  0  0  0  0
  139.5720   72.7600  222.1220 C   0  0  0  0  0  0  0  0  0  0  0  0
  139.6360   71.8510  223.2740 C   0  0  0  0  0  0  0  0  0  0  0  0
  140.6600   71.8930  224.2280 C   0  0  0  0  0  0  0  0  0  0  0  0
  140.7530   71.0560  225.2930 C   0  0  0  0  0  0  0  0  0  0  0  0
  139.8150   70.0850  225.5060 C   0  0  0  0  0  0  0  0  0  0  0  0
  139.9700   69.0400  226.8750 Cl  0  0  0  0  0  0  0  0  0  0  0  0
  138.7820   69.9960  224.5980 C   0  0  0  0  0  0  0  0  0  0  0  0
  138.6870   70.8580  223.5010 C   0  0  0  0  0  0  0  0  0  0  0  0
  143.5659   70.6552  220.2893 H   0  0  0  0  0  0  0  0  0  0  0  0
  145.7605   71.4326  219.3989 H   0  0  0  0  0  0  0  0  0  0  0  0
  146.3263   73.8377  219.3064 H   0  0  0  0  0  0  0  0  0  0  0  0
  144.6950   75.5546  220.1151 H   0  0  0  0  0  0  0  0  0  0  0  0
  139.7045   75.5649  222.8361 H   0  0  0  0  0  0  0  0  0  0  0  0
  139.5446   77.0777  220.6366 H   0  0  0  0  0  0  0  0  0  0  0  0
  140.9571   77.4407  223.9814 H   0  0  0  0  0  0  0  0  0  0  0  0
  142.2265   79.3504  224.8920 H   0  0  0  0  0  0  0  0  0  0  0  0
  143.0054   81.1136  223.2851 H   0  0  0  0  0  0  0  0  0  0  0  0
  141.2605   79.0356  220.0398 H   0  0  0  0  0  0  0  0  0  0  0  0
  138.9223   73.6021  222.4025 H   0  0  0  0  0  0  0  0  0  0  0  0
  139.2036   72.1370  221.2937 H   0  0  0  0  0  0  0  0  0  0  0  0
  141.4427   72.6563  224.1063 H   0  0  0  0  0  0  0  0  0  0  0  0
  141.5944   71.1608  225.9937 H   0  0  0  0  0  0  0  0  0  0  0  0
  138.0104   69.2251  224.7403 H   0  0  0  0  0  0  0  0  0  0  0  0
  137.8443   70.7491  222.8024 H   0  0  0  0  0  0  0  0  0  0  0  0
  1  2  2  0
  2  3  1  0
  3  4  2  0
  4  5  1  0
  5  6  2  0
  6  7  1  0
  7  8  2  0
  8  9  1  0
  9 10  2  0
 10 11  1  0
 11 12  2  0
 12 13  1  0
 13 14  2  0
 14 15  1  0
 15 16  2  0
 16 17  1  0
 17 18  2  0
 10 19  1  0
 19 20  1  0
 20 21  1  0
 21 22  2  0
 22 23  1  0
 23 24  2  0
 24 25  1  0
 24 26  1  0
 26 27  2  0
 19  2  1  0
 27 21  1  0
  8  3  1  0
 18 13  1  0
  4 28  1  0
  5 29  1  0
  6 30  1  0
  7 31  1  0
 11 32  1  0
 12 33  1  0
 14 34  1  0
 15 35  1  0
 16 36  1  0
 18 37  1  0
 20 38  1  0
 20 39  1  0
 22 40  1  0
 23 41  1  0
 26 42  1  0
 27 43  1  0
M  END
>  <smiles>  (37) 
O=c1c2ccccc2nc(/C=C/c2cccnc2)n1Cc1ccc(Cl)cc1

>  <score_type>  (37) 
oracle

>  <origin>  (37) 
autodockgpu

>  <m_score__min__energy>  (37) 
-7.9100000000000001

>  <m_primary>  (37) 
energy

>  <rmsd>  (37) 
9.290248696858706

>  <m_score__min__rmsd>  (37) 
9.290248696858706

>  <meeko>  (37) 
{"free_energy": -7.75, "intermolecular_energy": -9.24, "internal_energy": -1.05, "cluster_size": 10, "cluster_id": 2, "rank_in_cluster": 2}

>  <energy>  (37) 
-7.04

>  <cluster_rmsd>  (37) 
0.33

>  <cluster>  (37) 
7

$$$$

     RDKit          3D

 43 46  0  0  0  0  0  0  0  0999 V2000
  141.0390   73.8310  221.8330 O   0  0  0  0  0  0  0  0  0  0  0  0
  139.9030   74.3680  221.9870 C   0  0  0  0  0  0  0  0  0  0  0  0
  139.8810   75.7360  222.0100 C   0  0  0  0  0  0  0  0  0  0  0  0
  141.0310   76.4830  221.8790 C   0  0  0  0  0  0  0  0  0  0  0  0
  140.8900   77.8580  221.9180 C   0  0  0  0  0  0  0  0  0  0  0  0
  139.6450   78.4660  222.0820 C   0  0  0  0  0  0  0  0  0  0  0  0
  138.5000   77.7070  222.2120 C   0  0  0  0  0  0  0  0  0  0  0  0
  138.6620   76.3390  222.1710 C   0  0  0  0  0  0  0  0  0  0  0  0
  137.5950   75.5700  222.2910 N   0  0  0  0  0  0  0  0  0  0  0  0
  137.5900   74.1940  222.2710 C   0  0  0  0  0  0  0  0  0  0  0  0
  136.2910   73.6030  222.3920 C   0  0  0  0  0  0  0  0  0  0  0  0
  135.6640   73.0710  223.3850 C   0  0  0  0  0  0  0  0  0  0  0  0
  135.0420   73.8340  224.4890 C   0  0  0  0  0  0  0  0  0  0  0  0
  135.2030   75.2050  224.5580 C   0  0  0  0  0  0  0  0  0  0  0  0
  134.6600   75.9820  225.5450 C   0  0  0  0  0  0  0  0  0  0  0  0
  133.9130   75.3240  226.5140 C   0  0  0  0  0  0  0  0  0  0  0  0
  133.7440   74.0010  226.4680 N   0  0  0  0  0  0  0  0  0  0  0  0
  134.2910   73.2500  225.4790 C   0  0  0  0  0  0  0  0  0  0  0  0
  138.7650   73.5920  222.1170 N   0  0  0  0  0  0  0  0  0  0  0  0
  139.0050   72.1890  222.0490 C   0  0  0  0  0  0  0  0  0  0  0  0
  139.3280   71.4950  223.3030 C   0  0  0  0  0  0  0  0  0  0  0  0
  138.5570   70.4450  223.8190 C   0  0  0  0  0  0  0  0  0  0  0  0
  138.8220   69.7970  224.9810 C   0  0  0  0  0  0  0  0  0  0  0  0
  139.8990   70.1440  225.7490 C   0  0  0  0  0  0  0  0  0  0  0  0
  140.2020   69.2930  227.2230 Cl  0  0  0  0  0  0  0  0  0  0  0  0
  140.6950   71.1730  225.2900 C   0  0  0  0  0  0  0  0  0  0  0  0
  140.4210   71.8400  224.0920 C   0  0  0  0  0  0  0  0  0  0  0  0
  142.0148   76.0082  221.7495 H   0  0  0  0  0  0  0  0  0  0  0  0
  141.7845   78.4902  221.8169 H   0  0  0  0  0  0  0  0  0  0  0  0
  139.5754   79.5635  222.1080 H   0  0  0  0  0  0  0  0  0  0  0  0
  137.5103   78.1693  222.3415 H   0  0  0  0  0  0  0  0  0  0  0  0
  135.7158   73.6030  221.4544 H   0  0  0  0  0  0  0  0  0  0  0  0
  135.5862   71.9741  223.4131 H   0  0  0  0  0  0  0  0  0  0  0  0
  135.8001   75.6985  223.7770 H   0  0  0  0  0  0  0  0  0  0  0  0
  134.8075   77.0718  225.5698 H   0  0  0  0  0  0  0  0  0  0  0  0
  133.4545   75.9014  227.3304 H   0  0  0  0  0  0  0  0  0  0  0  0
  134.1310   72.1617  225.4703 H   0  0  0  0  0  0  0  0  0  0  0  0
  138.1000   71.7195  221.6361 H   0  0  0  0  0  0  0  0  0  0  0  0
  139.9101   72.0889  221.4319 H   0  0  0  0  0  0  0  0  0  0  0  0
  137.6768   70.1242  223.2426 H   0  0  0  0  0  0  0  0  0  0  0  0
  138.1615   68.9812  225.3100 H   0  0  0  0  0  0  0  0  0  0  0  0
  141.5699   71.4773  225.8832 H   0  0  0  0  0  0  0  0  0  0  0  0
  141.0839   72.6551  223.7662 H   0  0  0  0  0  0  0  0  0  0  0  0
  1  2  2  0
  2  3  1  0
  3  4  2  0
  4  5  1  0
  5  6  2  0
  6  7  1  0
  7  8  2  0
  8  9  1  0
  9 10  2  0
 10 11  1  0
 11 12  2  0
 12 13  1  0
 13 14  2  0
 14 15  1  0
 15 16  2  0
 16 17  1  0
 17 18  2  0
 10 19  1  0
 19 20  1  0
 20 21  1  0
 21 22  2  0
 22 23  1  0
 23 24  2  0
 24 25  1  0
 24 26  1  0
 26 27  2  0
 19  2  1  0
 27 21  1  0
  8  3  1  0
 18 13  1  0
  4 28  1  0
  5 29  1  0
  6 30  1  0
  7 31  1  0
 11 32  1  0
 12 33  1  0
 14 34  1  0
 15 35  1  0
 16 36  1  0
 18 37  1  0
 20 38  1  0
 20 39  1  0
 22 40  1  0
 23 41  1  0
 26 42  1  0
 27 43  1  0
M  END
>  <smiles>  (38) 
O=c1c2ccccc2nc(/C=C/c2cccnc2)n1Cc1ccc(Cl)cc1

>  <score_type>  (38) 
oracle

>  <origin>  (38) 
autodockgpu

>  <m_score__min__energy>  (38) 
-7.9100000000000001

>  <m_primary>  (38) 
energy

>  <rmsd>  (38) 
8.762742112531294

>  <m_score__min__rmsd>  (38) 
8.762742112531294

>  <meeko>  (38) 
{"free_energy": -7.29, "intermolecular_energy": -8.78, "internal_energy": -1.35, "cluster_size": 3, "cluster_id": 6, "rank_in_cluster": 3}

>  <energy>  (38) 
-7.04

>  <cluster_rmsd>  (38) 
0.3

>  <cluster>  (38) 
7

$$$$

     RDKit          3D

 43 46  0  0  0  0  0  0  0  0999 V2000
  140.2950   71.9270  225.1550 O   0  0  0  0  0  0  0  0  0  0  0  0
  139.7110   70.8040  225.1770 C   0  0  0  0  0  0  0  0  0  0  0  0
  140.0630   69.9610  226.1950 C   0  0  0  0  0  0  0  0  0  0  0  0
  141.0030   70.3140  227.1390 C   0  0  0  0  0  0  0  0  0  0  0  0
  141.2810   69.3830  228.1220 C   0  0  0  0  0  0  0  0  0  0  0  0
  140.6430   68.1440  228.1640 C   0  0  0  0  0  0  0  0  0  0  0  0
  139.7030   67.8010  227.2140 C   0  0  0  0  0  0  0  0  0  0  0  0
  139.4400   68.7420  226.2420 C   0  0  0  0  0  0  0  0  0  0  0  0
  138.5480   68.4610  225.3100 N   0  0  0  0  0  0  0  0  0  0  0  0
  138.1760   69.2890  224.2770 C   0  0  0  0  0  0  0  0  0  0  0  0
  137.1620   68.7530  223.4190 C   0  0  0  0  0  0  0  0  0  0  0  0
  135.8800   68.8880  223.3940 C   0  0  0  0  0  0  0  0  0  0  0  0
  135.0660   69.3800  224.5280 C   0  0  0  0  0  0  0  0  0  0  0  0
  134.9980   70.7350  224.7920 C   0  0  0  0  0  0  0  0  0  0  0  0
  134.2680   71.2690  225.8190 C   0  0  0  0  0  0  0  0  0  0  0  0
  133.5710   70.3720  226.6200 C   0  0  0  0  0  0  0  0  0  0  0  0
  133.6230   69.0600  226.3830 N   0  0  0  0  0  0  0  0  0  0  0  0
  134.3520   68.5520  225.3580 C   0  0  0  0  0  0  0  0  0  0  0  0
  138.7720   70.4770  224.2160 N   0  0  0  0  0  0  0  0  0  0  0  0
  138.5400   71.5010  223.2540 C   0  0  0  0  0  0  0  0  0  0  0  0
  139.7000   72.0060  222.5070 C   0  0  0  0  0  0  0  0  0  0  0  0
  139.9410   73.3690  222.2920 C   0  0  0  0  0  0  0  0  0  0  0  0
  140.9940   73.8620  221.5930 C   0  0  0  0  0  0  0  0  0  0  0  0
  141.9210   73.0250  221.0360 C   0  0  0  0  0  0  0  0  0  0  0  0
  143.2490   73.6940  220.1540 Cl  0  0  0  0  0  0  0  0  0  0  0  0
  141.7350   71.6710  221.2160 C   0  0  0  0  0  0  0  0  0  0  0  0
  140.6490   71.1630  221.9350 C   0  0  0  0  0  0  0  0  0  0  0  0
  141.5082   71.2907  227.1114 H   0  0  0  0  0  0  0  0  0  0  0  0
  142.0268   69.6265  228.8931 H   0  0  0  0  0  0  0  0  0  0  0  0
  140.8920   67.4314  228.9641 H   0  0  0  0  0  0  0  0  0  0  0  0
  139.1905   66.8278  227.2315 H   0  0  0  0  0  0  0  0  0  0  0  0
  137.5536   68.0982  222.6266 H   0  0  0  0  0  0  0  0  0  0  0  0
  135.3549   68.6189  222.4656 H   0  0  0  0  0  0  0  0  0  0  0  0
  135.5608   71.4209  224.1418 H   0  0  0  0  0  0  0  0  0  0  0  0
  134.2345   72.3533  226.0014 H   0  0  0  0  0  0  0  0  0  0  0  0
  132.9688   70.7486  227.4600 H   0  0  0  0  0  0  0  0  0  0  0  0
  134.3712   67.4650  225.1902 H   0  0  0  0  0  0  0  0  0  0  0  0
  137.8218   71.1068  222.5200 H   0  0  0  0  0  0  0  0  0  0  0  0
  138.1884   72.3623  223.8410 H   0  0  0  0  0  0  0  0  0  0  0  0
  139.2275   74.0890  222.7192 H   0  0  0  0  0  0  0  0  0  0  0  0
  141.1037   74.9499  221.4726 H   0  0  0  0  0  0  0  0  0  0  0  0
  142.4624   70.9697  220.7812 H   0  0  0  0  0  0  0  0  0  0  0  0
  140.5420   70.0744  222.0512 H   0  0  0  0  0  0  0  0  0  0  0  0
  1  2  2  0
  2  3  1  0
  3  4  2  0
  4  5  1  0
  5  6  2  0
  6  7  1  0
  7  8  2  0
  8  9  1  0
  9 10  2  0
 10 11  1  0
 11 12  2  0
 12 13  1  0
 13 14  2  0
 14 15  1  0
 15 16  2  0
 16 17  1  0
 17 18  2  0
 10 19  1  0
 19 20  1  0
 20 21  1  0
 21 22  2  0
 22 23  1  0
 23 24  2  0
 24 25  1  0
 24 26  1  0
 26 27  2  0
 19  2  1  0
 27 21  1  0
  8  3  1  0
 18 13  1  0
  4 28  1  0
  5 29  1  0
  6 30  1  0
  7 31  1  0
 11 32  1  0
 12 33  1  0
 14 34  1  0
 15 35  1  0
 16 36  1  0
 18 37  1  0
 20 38  1  0
 20 39  1  0
 22 40  1  0
 23 41  1  0
 26 42  1  0
 27 43  1  0
M  END
>  <smiles>  (39) 
O=c1c2ccccc2nc(/C=C/c2cccnc2)n1Cc1ccc(Cl)cc1

>  <score_type>  (39) 
oracle

>  <origin>  (39) 
autodockgpu

>  <m_score__min__energy>  (39) 
-7.9100000000000001

>  <m_primary>  (39) 
energy

>  <rmsd>  (39) 
10.202103371051969

>  <m_score__min__rmsd>  (39) 
10.202103371051969

>  <meeko>  (39) 
{"free_energy": -7.48, "intermolecular_energy": -8.97, "internal_energy": -1.26, "cluster_size": 4, "cluster_id": 4, "rank_in_cluster": 1}

>  <energy>  (39) 
-7.04

>  <cluster_rmsd>  (39) 
0.31

>  <cluster>  (39) 
7

$$$$

     RDKit          3D

 43 46  0  0  0  0  0  0  0  0999 V2000
  140.0980   74.0920  221.9280 O   0  0  0  0  0  0  0  0  0  0  0  0
  140.7660   74.9680  221.3060 C   0  0  0  0  0  0  0  0  0  0  0  0
  142.0130   74.5910  220.8870 C   0  0  0  0  0  0  0  0  0  0  0  0
  142.5120   73.3310  221.1330 C   0  0  0  0  0  0  0  0  0  0  0  0
  143.7830   73.0610  220.6640 C   0  0  0  0  0  0  0  0  0  0  0  0
  144.5320   74.0130  219.9720 C   0  0  0  0  0  0  0  0  0  0  0  0
  144.0210   75.2720  219.7310 C   0  0  0  0  0  0  0  0  0  0  0  0
  142.7530   75.5220  220.2070 C   0  0  0  0  0  0  0  0  0  0  0  0
  142.2210   76.7130  220.0000 N   0  0  0  0  0  0  0  0  0  0  0  0
  140.9720   77.1180  220.4100 C   0  0  0  0  0  0  0  0  0  0  0  0
  140.6250   78.4550  220.0310 C   0  0  0  0  0  0  0  0  0  0  0  0
  141.2390   79.5820  220.1480 C   0  0  0  0  0  0  0  0  0  0  0  0
  141.6410   80.1880  221.4370 C   0  0  0  0  0  0  0  0  0  0  0  0
  142.4830   79.4990  222.2910 C   0  0  0  0  0  0  0  0  0  0  0  0
  142.9010   79.9890  223.4980 C   0  0  0  0  0  0  0  0  0  0  0  0
  142.4350   81.2490  223.8530 C   0  0  0  0  0  0  0  0  0  0  0  0
  141.6230   81.9320  223.0440 N   0  0  0  0  0  0  0  0  0  0  0  0
  141.2210   81.4270  221.8510 C   0  0  0  0  0  0  0  0  0  0  0  0
  140.2400   76.2270  221.0730 N   0  0  0  0  0  0  0  0  0  0  0  0
  138.9200   76.4090  221.5780 C   0  0  0  0  0  0  0  0  0  0  0  0
  138.6520   77.6330  222.3460 C   0  0  0  0  0  0  0  0  0  0  0  0
  137.4110   78.2820  222.3450 C   0  0  0  0  0  0  0  0  0  0  0  0
  137.1390   79.4210  223.0310 C   0  0  0  0  0  0  0  0  0  0  0  0
  138.0980   80.0270  223.7940 C   0  0  0  0  0  0  0  0  0  0  0  0
  137.7110   81.4770  224.6530 Cl  0  0  0  0  0  0  0  0  0  0  0  0
  139.3420   79.4310  223.8330 C   0  0  0  0  0  0  0  0  0  0  0  0
  139.6210   78.2580  223.1250 C   0  0  0  0  0  0  0  0  0  0  0  0
  141.9262   72.5755  221.6771 H   0  0  0  0  0  0  0  0  0  0  0  0
  144.2173   72.0660  220.8414 H   0  0  0  0  0  0  0  0  0  0  0  0
  145.5405   73.7574  219.6147 H   0  0  0  0  0  0  0  0  0  0  0  0
  144.5962   76.0358  219.1872 H   0  0  0  0  0  0  0  0  0  0  0  0
  139.6416   78.5356  219.5447 H   0  0  0  0  0  0  0  0  0  0  0  0
  141.4810   80.1314  219.2263 H   0  0  0  0  0  0  0  0  0  0  0  0
  142.8355   78.5035  221.9832 H   0  0  0  0  0  0  0  0  0  0  0  0
  143.5718   79.4148  224.1540 H   0  0  0  0  0  0  0  0  0  0  0  0
  142.7396   81.6893  224.8139 H   0  0  0  0  0  0  0  0  0  0  0  0
  140.5510   82.0171  221.2084 H   0  0  0  0  0  0  0  0  0  0  0  0
  138.2340   76.4023  220.7181 H   0  0  0  0  0  0  0  0  0  0  0  0
  138.7788   75.5891  222.2976 H   0  0  0  0  0  0  0  0  0  0  0  0
  136.6012   77.8382  221.7473 H   0  0  0  0  0  0  0  0  0  0  0  0
  136.1333   79.8626  222.9723 H   0  0  0  0  0  0  0  0  0  0  0  0
  140.1366   79.8918  224.4382 H   0  0  0  0  0  0  0  0  0  0  0  0
  140.6282   77.8198  223.1851 H   0  0  0  0  0  0  0  0  0  0  0  0
  1  2  2  0
  2  3  1  0
  3  4  2  0
  4  5  1  0
  5  6  2  0
  6  7  1  0
  7  8  2  0
  8  9  1  0
  9 10  2  0
 10 11  1  0
 11 12  2  0
 12 13  1  0
 13 14  2  0
 14 15  1  0
 15 16  2  0
 16 17  1  0
 17 18  2  0
 10 19  1  0
 19 20  1  0
 20 21  1  0
 21 22  2  0
 22 23  1  0
 23 24  2  0
 24 25  1  0
 24 26  1  0
 26 27  2  0
 19  2  1  0
 27 21  1  0
  8  3  1  0
 18 13  1  0
  4 28  1  0
  5 29  1  0
  6 30  1  0
  7 31  1  0
 11 32  1  0
 12 33  1  0
 14 34  1  0
 15 35  1  0
 16 36  1  0
 18 37  1  0
 20 38  1  0
 20 39  1  0
 22 40  1  0
 23 41  1  0
 26 42  1  0
 27 43  1  0
M  END
>  <smiles>  (40) 
O=c1c2ccccc2nc(/C=C/c2cccnc2)n1Cc1ccc(Cl)cc1

>  <score_type>  (40) 
oracle

>  <origin>  (40) 
autodockgpu

>  <m_score__min__energy>  (40) 
-7.9100000000000001

>  <m_primary>  (40) 
energy

>  <rmsd>  (40) 
4.612790811349603

>  <m_score__min__rmsd>  (40) 
4.612790811349603

>  <meeko>  (40) 
{"free_energy": -7.1, "intermolecular_energy": -8.59, "internal_energy": -1.85, "cluster_size": 23, "cluster_id": 7, "rank_in_cluster": 9}

>  <energy>  (40) 
-7.02

>  <cluster_rmsd>  (40) 
0.32

>  <cluster>  (40) 
7

$$$$

     RDKit          3D

 43 46  0  0  0  0  0  0  0  0999 V2000
  139.9750   74.2670  221.9290 O   0  0  0  0  0  0  0  0  0  0  0  0
  140.6460   75.1140  221.2680 C   0  0  0  0  0  0  0  0  0  0  0  0
  141.9010   74.7240  220.8870 C   0  0  0  0  0  0  0  0  0  0  0  0
  142.4050   73.4830  221.2080 C   0  0  0  0  0  0  0  0  0  0  0  0
  143.6850   73.1960  220.7710 C   0  0  0  0  0  0  0  0  0  0  0  0
  144.4360   74.1150  220.0390 C   0  0  0  0  0  0  0  0  0  0  0  0
  143.9200   75.3550  219.7220 C   0  0  0  0  0  0  0  0  0  0  0  0
  142.6440   75.6220  220.1670 C   0  0  0  0  0  0  0  0  0  0  0  0
  142.1060   76.7950  219.8890 N   0  0  0  0  0  0  0  0  0  0  0  0
  140.8490   77.2130  220.2600 C   0  0  0  0  0  0  0  0  0  0  0  0
  140.4980   78.5240  219.8030 C   0  0  0  0  0  0  0  0  0  0  0  0
  141.0140   79.6870  220.0120 C   0  0  0  0  0  0  0  0  0  0  0  0
  141.4940   80.1680  221.3260 C   0  0  0  0  0  0  0  0  0  0  0  0
  142.3710   79.3950  222.0660 C   0  0  0  0  0  0  0  0  0  0  0  0
  142.8610   79.7680  223.2880 C   0  0  0  0  0  0  0  0  0  0  0  0
  142.4350   80.9950  223.7810 C   0  0  0  0  0  0  0  0  0  0  0  0
  141.5900   81.7570  223.0850 N   0  0  0  0  0  0  0  0  0  0  0  0
  141.1160   81.3680  221.8740 C   0  0  0  0  0  0  0  0  0  0  0  0
  140.1140   76.3530  220.9600 N   0  0  0  0  0  0  0  0  0  0  0  0
  138.7870   76.5530  221.4370 C   0  0  0  0  0  0  0  0  0  0  0  0
  138.5410   77.7280  222.2860 C   0  0  0  0  0  0  0  0  0  0  0  0
  137.3070   78.3850  222.3470 C   0  0  0  0  0  0  0  0  0  0  0  0
  137.0560   79.4800  223.1090 C   0  0  0  0  0  0  0  0  0  0  0  0
  138.0320   80.0280  223.8930 C   0  0  0  0  0  0  0  0  0  0  0  0
  137.6720   81.4230  224.8490 Cl  0  0  0  0  0  0  0  0  0  0  0  0
  139.2710   79.4220  223.8730 C   0  0  0  0  0  0  0  0  0  0  0  0
  139.5290   78.2940  223.0880 C   0  0  0  0  0  0  0  0  0  0  0  0
  141.8167   72.7543  221.7850 H   0  0  0  0  0  0  0  0  0  0  0  0
  144.1232   72.2151  221.0074 H   0  0  0  0  0  0  0  0  0  0  0  0
  145.4514   73.8485  219.7105 H   0  0  0  0  0  0  0  0  0  0  0  0
  144.4974   76.0917  219.1442 H   0  0  0  0  0  0  0  0  0  0  0  0
  139.6163   78.5424  219.1455 H   0  0  0  0  0  0  0  0  0  0  0  0
  141.1035   80.3689  219.1535 H   0  0  0  0  0  0  0  0  0  0  0  0
  142.6916   78.4286  221.6496 H   0  0  0  0  0  0  0  0  0  0  0  0
  143.5568   79.1288  223.8513 H   0  0  0  0  0  0  0  0  0  0  0  0
  142.7996   81.3429  224.7588 H   0  0  0  0  0  0  0  0  0  0  0  0
  140.4214   82.0217  221.3260 H   0  0  0  0  0  0  0  0  0  0  0  0
  138.1303   76.6378  220.5586 H   0  0  0  0  0  0  0  0  0  0  0  0
  138.5905   75.6895  222.0895 H   0  0  0  0  0  0  0  0  0  0  0  0
  136.4839   77.9868  221.7355 H   0  0  0  0  0  0  0  0  0  0  0  0
  136.0534   79.9324  223.0952 H   0  0  0  0  0  0  0  0  0  0  0  0
  140.0793   79.8381  224.4924 H   0  0  0  0  0  0  0  0  0  0  0  0
  140.5328   77.8445  223.1042 H   0  0  0  0  0  0  0  0  0  0  0  0
  1  2  2  0
  2  3  1  0
  3  4  2  0
  4  5  1  0
  5  6  2  0
  6  7  1  0
  7  8  2  0
  8  9  1  0
  9 10  2  0
 10 11  1  0
 11 12  2  0
 12 13  1  0
 13 14  2  0
 14 15  1  0
 15 16  2  0
 16 17  1  0
 17 18  2  0
 10 19  1  0
 19 20  1  0
 20 21  1  0
 21 22  2  0
 22 23  1  0
 23 24  2  0
 24 25  1  0
 24 26  1  0
 26 27  2  0
 19  2  1  0
 27 21  1  0
  8  3  1  0
 18 13  1  0
  4 28  1  0
  5 29  1  0
  6 30  1  0
  7 31  1  0
 11 32  1  0
 12 33  1  0
 14 34  1  0
 15 35  1  0
 16 36  1  0
 18 37  1  0
 20 38  1  0
 20 39  1  0
 22 40  1  0
 23 41  1  0
 26 42  1  0
 27 43  1  0
M  END
>  <smiles>  (41) 
O=c1c2ccccc2nc(/C=C/c2cccnc2)n1Cc1ccc(Cl)cc1

>  <score_type>  (41) 
oracle

>  <origin>  (41) 
autodockgpu

>  <m_score__min__energy>  (41) 
-7.9100000000000001

>  <m_primary>  (41) 
energy

>  <rmsd>  (41) 
4.574006192836041

>  <m_score__min__rmsd>  (41) 
4.574006192836041

>  <meeko>  (41) 
{"free_energy": -6.93, "intermolecular_energy": -8.42, "internal_energy": -1.95, "cluster_size": 23, "cluster_id": 7, "rank_in_cluster": 20}

>  <energy>  (41) 
-7.01

>  <cluster_rmsd>  (41) 
0.35

>  <cluster>  (41) 
7

$$$$

     RDKit          3D

 43 46  0  0  0  0  0  0  0  0999 V2000
  138.9370   74.1650  222.3450 O   0  0  0  0  0  0  0  0  0  0  0  0
  140.0080   73.9480  221.7050 C   0  0  0  0  0  0  0  0  0  0  0  0
  140.6880   75.0550  221.2750 C   0  0  0  0  0  0  0  0  0  0  0  0
  140.2300   76.3300  221.5210 C   0  0  0  0  0  0  0  0  0  0  0  0
  140.9990   77.3730  221.0380 C   0  0  0  0  0  0  0  0  0  0  0  0
  142.1830   77.1520  220.3360 C   0  0  0  0  0  0  0  0  0  0  0  0
  142.6320   75.8690  220.0960 C   0  0  0  0  0  0  0  0  0  0  0  0
  141.8520   74.8440  220.5840 C   0  0  0  0  0  0  0  0  0  0  0  0
  142.2400   73.5980  220.3800 N   0  0  0  0  0  0  0  0  0  0  0  0
  141.5760   72.4700  220.8000 C   0  0  0  0  0  0  0  0  0  0  0  0
  142.2290   71.2380  220.4730 C   0  0  0  0  0  0  0  0  0  0  0  0
  143.4300   70.9610  220.0940 C   0  0  0  0  0  0  0  0  0  0  0  0
  144.5450   71.9320  220.0670 C   0  0  0  0  0  0  0  0  0  0  0  0
  144.8940   72.6150  221.2170 C   0  0  0  0  0  0  0  0  0  0  0  0
  145.9120   73.5280  221.2750 C   0  0  0  0  0  0  0  0  0  0  0  0
  146.6120   73.7550  220.0970 C   0  0  0  0  0  0  0  0  0  0  0  0
  146.2930   73.1070  218.9750 N   0  0  0  0  0  0  0  0  0  0  0  0
  145.2790   72.2060  218.9400 C   0  0  0  0  0  0  0  0  0  0  0  0
  140.4430   72.6560  221.4720 N   0  0  0  0  0  0  0  0  0  0  0  0
  139.5970   71.6480  222.0180 C   0  0  0  0  0  0  0  0  0  0  0  0
  139.8520   71.2260  223.4030 C   0  0  0  0  0  0  0  0  0  0  0  0
  139.2560   70.0990  223.9830 C   0  0  0  0  0  0  0  0  0  0  0  0
  139.4600   69.6950  225.2620 C   0  0  0  0  0  0  0  0  0  0  0  0
  140.2930   70.3910  226.0940 C   0  0  0  0  0  0  0  0  0  0  0  0
  140.5260   69.8430  227.7170 Cl  0  0  0  0  0  0  0  0  0  0  0  0
  140.9080   71.5120  225.5760 C   0  0  0  0  0  0  0  0  0  0  0  0
  140.6970   71.9280  224.2580 C   0  0  0  0  0  0  0  0  0  0  0  0
  139.2971   76.5103  222.0752 H   0  0  0  0  0  0  0  0  0  0  0  0
  140.6668   78.4070  221.2128 H   0  0  0  0  0  0  0  0  0  0  0  0
  142.7660   78.0097  219.9692 H   0  0  0  0  0  0  0  0  0  0  0  0
  143.5636   75.6754  219.5441 H   0  0  0  0  0  0  0  0  0  0  0  0
  141.5788   70.3553  220.5627 H   0  0  0  0  0  0  0  0  0  0  0  0
  143.6396   69.9314  219.7683 H   0  0  0  0  0  0  0  0  0  0  0  0
  144.3226   72.4138  222.1352 H   0  0  0  0  0  0  0  0  0  0  0  0
  146.1631   74.0552  222.2072 H   0  0  0  0  0  0  0  0  0  0  0  0
  147.4404   74.4786  220.0889 H   0  0  0  0  0  0  0  0  0  0  0  0
  145.0426   71.6895  217.9980 H   0  0  0  0  0  0  0  0  0  0  0  0
  138.5643   72.0243  221.9729 H   0  0  0  0  0  0  0  0  0  0  0  0
  139.7983   70.7534  221.4105 H   0  0  0  0  0  0  0  0  0  0  0  0
  138.5760   69.5006  223.3589 H   0  0  0  0  0  0  0  0  0  0  0  0
  138.9485   68.7954  225.6349 H   0  0  0  0  0  0  0  0  0  0  0  0
  141.5839   72.0954  226.2185 H   0  0  0  0  0  0  0  0  0  0  0  0
  141.2094   72.8287  223.8890 H   0  0  0  0  0  0  0  0  0  0  0  0
  1  2  2  0
  2  3  1  0
  3  4  2  0
  4  5  1  0
  5  6  2  0
  6  7  1  0
  7  8  2  0
  8  9  1  0
  9 10  2  0
 10 11  1  0
 11 12  2  0
 12 13  1  0
 13 14  2  0
 14 15  1  0
 15 16  2  0
 16 17  1  0
 17 18  2  0
 10 19  1  0
 19 20  1  0
 20 21  1  0
 21 22  2  0
 22 23  1  0
 23 24  2  0
 24 25  1  0
 24 26  1  0
 26 27  2  0
 19  2  1  0
 27 21  1  0
  8  3  1  0
 18 13  1  0
  4 28  1  0
  5 29  1  0
  6 30  1  0
  7 31  1  0
 11 32  1  0
 12 33  1  0
 14 34  1  0
 15 35  1  0
 16 36  1  0
 18 37  1  0
 20 38  1  0
 20 39  1  0
 22 40  1  0
 23 41  1  0
 26 42  1  0
 27 43  1  0
M  END
>  <smiles>  (42) 
O=c1c2ccccc2nc(/C=C/c2cccnc2)n1Cc1ccc(Cl)cc1

>  <score_type>  (42) 
oracle

>  <origin>  (42) 
autodockgpu

>  <m_score__min__energy>  (42) 
-7.9100000000000001

>  <m_primary>  (42) 
energy

>  <rmsd>  (42) 
8.648015272482995

>  <m_score__min__rmsd>  (42) 
8.648015272482995

>  <meeko>  (42) 
{"free_energy": -7.91, "intermolecular_energy": -9.41, "internal_energy": -1.38, "cluster_size": 7, "cluster_id": 1, "rank_in_cluster": 1}

>  <energy>  (42) 
-7.0

>  <cluster_rmsd>  (42) 
0.41

>  <cluster>  (42) 
7

$$$$

     RDKit          3D

 43 46  0  0  0  0  0  0  0  0999 V2000
  138.8100   74.6750  222.3620 O   0  0  0  0  0  0  0  0  0  0  0  0
  139.8490   74.3510  221.7150 C   0  0  0  0  0  0  0  0  0  0  0  0
  140.6200   75.3830  221.2550 C   0  0  0  0  0  0  0  0  0  0  0  0
  140.2800   76.6990  221.4800 C   0  0  0  0  0  0  0  0  0  0  0  0
  141.1320   77.6600  220.9680 C   0  0  0  0  0  0  0  0  0  0  0  0
  142.2830   77.3200  220.2570 C   0  0  0  0  0  0  0  0  0  0  0  0
  142.6130   75.9990  220.0390 C   0  0  0  0  0  0  0  0  0  0  0  0
  141.7520   75.0560  220.5560 C   0  0  0  0  0  0  0  0  0  0  0  0
  142.0250   73.7770  220.3730 N   0  0  0  0  0  0  0  0  0  0  0  0
  141.2680   72.7210  220.8240 C   0  0  0  0  0  0  0  0  0  0  0  0
  141.8050   71.4290  220.5150 C   0  0  0  0  0  0  0  0  0  0  0  0
  143.0120   70.9890  220.4090 C   0  0  0  0  0  0  0  0  0  0  0  0
  144.1980   71.8410  220.1730 C   0  0  0  0  0  0  0  0  0  0  0  0
  144.6910   72.6360  221.1910 C   0  0  0  0  0  0  0  0  0  0  0  0
  145.7820   73.4510  221.0520 C   0  0  0  0  0  0  0  0  0  0  0  0
  146.4020   73.4550  219.8090 C   0  0  0  0  0  0  0  0  0  0  0  0
  145.9430   72.6960  218.8120 N   0  0  0  0  0  0  0  0  0  0  0  0
  144.8590   71.8950  218.9710 C   0  0  0  0  0  0  0  0  0  0  0  0
  140.1650   73.0200  221.5040 N   0  0  0  0  0  0  0  0  0  0  0  0
  139.2390   72.1030  222.0800 C   0  0  0  0  0  0  0  0  0  0  0  0
  139.6390   71.4250  223.3210 C   0  0  0  0  0  0  0  0  0  0  0  0
  140.6740   71.8830  224.1450 C   0  0  0  0  0  0  0  0  0  0  0  0
  141.0760   71.2690  225.2870 C   0  0  0  0  0  0  0  0  0  0  0  0
  140.4680   70.1220  225.7180 C   0  0  0  0  0  0  0  0  0  0  0  0
  141.0090   69.3710  227.1780 Cl  0  0  0  0  0  0  0  0  0  0  0  0
  139.4410   69.6240  224.9450 C   0  0  0  0  0  0  0  0  0  0  0  0
  139.0290   70.2570  223.7680 C   0  0  0  0  0  0  0  0  0  0  0  0
  139.3737   76.9722  222.0404 H   0  0  0  0  0  0  0  0  0  0  0  0
  140.8956   78.7226  221.1258 H   0  0  0  0  0  0  0  0  0  0  0  0
  142.9349   78.1149  219.8657 H   0  0  0  0  0  0  0  0  0  0  0  0
  143.5169   75.7130  219.4812 H   0  0  0  0  0  0  0  0  0  0  0  0
  141.0371   70.6628  220.3326 H   0  0  0  0  0  0  0  0  0  0  0  0
  143.1711   69.9044  220.5004 H   0  0  0  0  0  0  0  0  0  0  0  0
  144.1793   72.6124  222.1645 H   0  0  0  0  0  0  0  0  0  0  0  0
  146.1492   74.0715  221.8828 H   0  0  0  0  0  0  0  0  0  0  0  0
  147.2832   74.0924  219.6443 H   0  0  0  0  0  0  0  0  0  0  0  0
  144.5064   71.2827  218.1280 H   0  0  0  0  0  0  0  0  0  0  0  0
  138.3134   72.6584  222.2915 H   0  0  0  0  0  0  0  0  0  0  0  0
  139.1444   71.2966  221.3378 H   0  0  0  0  0  0  0  0  0  0  0  0
  141.1973   72.8034  223.8466 H   0  0  0  0  0  0  0  0  0  0  0  0
  141.9013   71.6994  225.8733 H   0  0  0  0  0  0  0  0  0  0  0  0
  138.9311   68.7026  225.2630 H   0  0  0  0  0  0  0  0  0  0  0  0
  138.2051   69.8222  223.1831 H   0  0  0  0  0  0  0  0  0  0  0  0
  1  2  2  0
  2  3  1  0
  3  4  2  0
  4  5  1  0
  5  6  2  0
  6  7  1  0
  7  8  2  0
  8  9  1  0
  9 10  2  0
 10 11  1  0
 11 12  2  0
 12 13  1  0
 13 14  2  0
 14 15  1  0
 15 16  2  0
 16 17  1  0
 17 18  2  0
 10 19  1  0
 19 20  1  0
 20 21  1  0
 21 22  2  0
 22 23  1  0
 23 24  2  0
 24 25  1  0
 24 26  1  0
 26 27  2  0
 19  2  1  0
 27 21  1  0
  8  3  1  0
 18 13  1  0
  4 28  1  0
  5 29  1  0
  6 30  1  0
  7 31  1  0
 11 32  1  0
 12 33  1  0
 14 34  1  0
 15 35  1  0
 16 36  1  0
 18 37  1  0
 20 38  1  0
 20 39  1  0
 22 40  1  0
 23 41  1  0
 26 42  1  0
 27 43  1  0
M  END
>  <smiles>  (43) 
O=c1c2ccccc2nc(/C=C/c2cccnc2)n1Cc1ccc(Cl)cc1

>  <score_type>  (43) 
oracle

>  <origin>  (43) 
autodockgpu

>  <m_score__min__energy>  (43) 
-7.9100000000000001

>  <m_primary>  (43) 
energy

>  <rmsd>  (43) 
8.837321950953871

>  <m_score__min__rmsd>  (43) 
8.837321950953871

>  <meeko>  (43) 
{"free_energy": -7.49, "intermolecular_energy": -8.98, "internal_energy": -1.49, "cluster_size": 7, "cluster_id": 1, "rank_in_cluster": 7}

>  <energy>  (43) 
-6.99

>  <cluster_rmsd>  (43) 
0.41

>  <cluster>  (43) 
7

$$$$

     RDKit          3D

 43 46  0  0  0  0  0  0  0  0999 V2000
  140.3000   73.7090  222.1370 O   0  0  0  0  0  0  0  0  0  0  0  0
  140.9720   72.9710  221.3590 C   0  0  0  0  0  0  0  0  0  0  0  0
  141.9900   73.5810  220.6780 C   0  0  0  0  0  0  0  0  0  0  0  0
  142.2630   74.9230  220.8280 C   0  0  0  0  0  0  0  0  0  0  0  0
  143.3140   75.4330  220.0900 C   0  0  0  0  0  0  0  0  0  0  0  0
  144.0690   74.6320  219.2320 C   0  0  0  0  0  0  0  0  0  0  0  0
  143.7870   73.2890  219.0900 C   0  0  0  0  0  0  0  0  0  0  0  0
  142.7350   72.8000  219.8340 C   0  0  0  0  0  0  0  0  0  0  0  0
  142.4260   71.5200  219.7330 N   0  0  0  0  0  0  0  0  0  0  0  0
  141.4090   70.8820  220.4040 C   0  0  0  0  0  0  0  0  0  0  0  0
  141.3070   69.4790  220.1360 C   0  0  0  0  0  0  0  0  0  0  0  0
  141.8610   68.7160  219.2570 C   0  0  0  0  0  0  0  0  0  0  0  0
  143.2560   68.2280  219.3310 C   0  0  0  0  0  0  0  0  0  0  0  0
  143.5580   66.9390  218.9320 C   0  0  0  0  0  0  0  0  0  0  0  0
  144.8210   66.4130  218.9690 C   0  0  0  0  0  0  0  0  0  0  0  0
  145.8290   67.2460  219.4380 C   0  0  0  0  0  0  0  0  0  0  0  0
  145.5590   68.4940  219.8270 N   0  0  0  0  0  0  0  0  0  0  0  0
  144.3000   68.9950  219.7820 C   0  0  0  0  0  0  0  0  0  0  0  0
  140.6750   71.6260  221.2280 N   0  0  0  0  0  0  0  0  0  0  0  0
  139.5880   71.1870  222.0370 C   0  0  0  0  0  0  0  0  0  0  0  0
  139.8910   70.7720  223.4130 C   0  0  0  0  0  0  0  0  0  0  0  0
  139.3840   69.6020  223.9910 C   0  0  0  0  0  0  0  0  0  0  0  0
  139.6330   69.2020  225.2630 C   0  0  0  0  0  0  0  0  0  0  0  0
  140.4280   69.9480  226.0900 C   0  0  0  0  0  0  0  0  0  0  0  0
  140.7220   69.4030  227.7050 Cl  0  0  0  0  0  0  0  0  0  0  0  0
  140.9560   71.1120  225.5740 C   0  0  0  0  0  0  0  0  0  0  0  0
  140.6980   71.5240  224.2630 C   0  0  0  0  0  0  0  0  0  0  0  0
  141.6720   75.5588  221.5037 H   0  0  0  0  0  0  0  0  0  0  0  0
  143.5626   76.5006  220.1813 H   0  0  0  0  0  0  0  0  0  0  0  0
  144.8984   75.0766  218.6624 H   0  0  0  0  0  0  0  0  0  0  0  0
  144.3710   72.6426  218.4184 H   0  0  0  0  0  0  0  0  0  0  0  0
  140.6215   68.9483  220.8130 H   0  0  0  0  0  0  0  0  0  0  0  0
  141.2552   68.4065  218.3926 H   0  0  0  0  0  0  0  0  0  0  0  0
  142.7394   66.3023  218.5653 H   0  0  0  0  0  0  0  0  0  0  0  0
  145.0275   65.3827  218.6438 H   0  0  0  0  0  0  0  0  0  0  0  0
  146.8624   66.8725  219.4894 H   0  0  0  0  0  0  0  0  0  0  0  0
  144.1136   70.0280  220.1108 H   0  0  0  0  0  0  0  0  0  0  0  0
  138.8647   72.0138  222.0939 H   0  0  0  0  0  0  0  0  0  0  0  0
  139.2219   70.2747  221.5434 H   0  0  0  0  0  0  0  0  0  0  0  0
  138.7389   68.9626  223.3705 H   0  0  0  0  0  0  0  0  0  0  0  0
  139.1902   68.2661  225.6344 H   0  0  0  0  0  0  0  0  0  0  0  0
  141.5994   71.7352  226.2125 H   0  0  0  0  0  0  0  0  0  0  0  0
  141.1415   72.4612  223.8956 H   0  0  0  0  0  0  0  0  0  0  0  0
  1  2  2  0
  2  3  1  0
  3  4  2  0
  4  5  1  0
  5  6  2  0
  6  7  1  0
  7  8  2  0
  8  9  1  0
  9 10  2  0
 10 11  1  0
 11 12  2  0
 12 13  1  0
 13 14  2  0
 14 15  1  0
 15 16  2  0
 16 17  1  0
 17 18  2  0
 10 19  1  0
 19 20  1  0
 20 21  1  0
 21 22  2  0
 22 23  1  0
 23 24  2  0
 24 25  1  0
 24 26  1  0
 26 27  2  0
 19  2  1  0
 27 21  1  0
  8  3  1  0
 18 13  1  0
  4 28  1  0
  5 29  1  0
  6 30  1  0
  7 31  1  0
 11 32  1  0
 12 33  1  0
 14 34  1  0
 15 35  1  0
 16 36  1  0
 18 37  1  0
 20 38  1  0
 20 39  1  0
 22 40  1  0
 23 41  1  0
 26 42  1  0
 27 43  1  0
M  END
>  <smiles>  (44) 
O=c1c2ccccc2nc(/C=C/c2cccnc2)n1Cc1ccc(Cl)cc1

>  <score_type>  (44) 
oracle

>  <origin>  (44) 
autodockgpu

>  <m_score__min__energy>  (44) 
-7.9100000000000001

>  <m_primary>  (44) 
energy

>  <rmsd>  (44) 
9.025811780961037

>  <m_score__min__rmsd>  (44) 
9.025811780961037

>  <meeko>  (44) 
{"free_energy": -7.57, "intermolecular_energy": -9.06, "internal_energy": -1.17, "cluster_size": 1, "cluster_id": 3, "rank_in_cluster": 1}

>  <energy>  (44) 
-6.99

>  <cluster_rmsd>  (44) 
0.34

>  <cluster>  (44) 
7

$$$$

     RDKit          3D

 43 46  0  0  0  0  0  0  0  0999 V2000
  140.8470   73.4430  222.0080 O   0  0  0  0  0  0  0  0  0  0  0  0
  139.6790   73.9230  222.0940 C   0  0  0  0  0  0  0  0  0  0  0  0
  139.5790   75.2850  222.0080 C   0  0  0  0  0  0  0  0  0  0  0  0
  140.6880   76.0850  221.8430 C   0  0  0  0  0  0  0  0  0  0  0  0
  140.4680   77.4480  221.7700 C   0  0  0  0  0  0  0  0  0  0  0  0
  139.1880   77.9940  221.8570 C   0  0  0  0  0  0  0  0  0  0  0  0
  138.0840   77.1820  222.0220 C   0  0  0  0  0  0  0  0  0  0  0  0
  138.3240   75.8270  222.0940 C   0  0  0  0  0  0  0  0  0  0  0  0
  137.3000   75.0080  222.2510 N   0  0  0  0  0  0  0  0  0  0  0  0
  137.3720   73.6380  222.3400 C   0  0  0  0  0  0  0  0  0  0  0  0
  136.1060   72.9820  222.4800 C   0  0  0  0  0  0  0  0  0  0  0  0
  135.4340   72.5930  223.5090 C   0  0  0  0  0  0  0  0  0  0  0  0
  134.8930   73.4980  224.5480 C   0  0  0  0  0  0  0  0  0  0  0  0
  135.1670   74.8520  224.4950 C   0  0  0  0  0  0  0  0  0  0  0  0
  134.7040   75.7530  225.4160 C   0  0  0  0  0  0  0  0  0  0  0  0
  133.9210   75.2450  226.4440 C   0  0  0  0  0  0  0  0  0  0  0  0
  133.6440   73.9410  226.5140 N   0  0  0  0  0  0  0  0  0  0  0  0
  134.1120   73.0650  225.5900 C   0  0  0  0  0  0  0  0  0  0  0  0
  138.5840   73.0940  222.2600 N   0  0  0  0  0  0  0  0  0  0  0  0
  138.9040   71.7070  222.3100 C   0  0  0  0  0  0  0  0  0  0  0  0
  139.2390   71.1350  223.6210 C   0  0  0  0  0  0  0  0  0  0  0  0
  140.3530   71.5330  224.3700 C   0  0  0  0  0  0  0  0  0  0  0  0
  140.6950   71.0110  225.5750 C   0  0  0  0  0  0  0  0  0  0  0  0
  139.9420   70.0260  226.1530 C   0  0  0  0  0  0  0  0  0  0  0  0
  140.4120   69.3880  227.6890 Cl  0  0  0  0  0  0  0  0  0  0  0  0
  138.8310   69.5940  225.4600 C   0  0  0  0  0  0  0  0  0  0  0  0
  138.4800   70.1320  224.2180 C   0  0  0  0  0  0  0  0  0  0  0  0
  141.7001   75.6599  221.7727 H   0  0  0  0  0  0  0  0  0  0  0  0
  141.3280   78.1214  221.6395 H   0  0  0  0  0  0  0  0  0  0  0  0
  139.0565   79.0843  221.7934 H   0  0  0  0  0  0  0  0  0  0  0  0
  137.0668   77.5946  222.0923 H   0  0  0  0  0  0  0  0  0  0  0  0
  135.6103   72.7684  221.5215 H   0  0  0  0  0  0  0  0  0  0  0  0
  135.2500   71.5145  223.6228 H   0  0  0  0  0  0  0  0  0  0  0  0
  135.7901   75.2253  223.6689 H   0  0  0  0  0  0  0  0  0  0  0  0
  134.9403   76.8250  225.3452 H   0  0  0  0  0  0  0  0  0  0  0  0
  133.5237   75.9261  227.2109 H   0  0  0  0  0  0  0  0  0  0  0  0
  133.8630   71.9971  225.6768 H   0  0  0  0  0  0  0  0  0  0  0  0
  138.0359   71.1544  221.9215 H   0  0  0  0  0  0  0  0  0  0  0  0
  139.8263   71.6107  221.7183 H   0  0  0  0  0  0  0  0  0  0  0  0
  140.9950   72.3230  223.9531 H   0  0  0  0  0  0  0  0  0  0  0  0
  141.5899   71.3850  226.0940 H   0  0  0  0  0  0  0  0  0  0  0  0
  138.2029   68.8036  225.8967 H   0  0  0  0  0  0  0  0  0  0  0  0
  137.5850   69.7547  223.7016 H   0  0  0  0  0  0  0  0  0  0  0  0
  1  2  2  0
  2  3  1  0
  3  4  2  0
  4  5  1  0
  5  6  2  0
  6  7  1  0
  7  8  2  0
  8  9  1  0
  9 10  2  0
 10 11  1  0
 11 12  2  0
 12 13  1  0
 13 14  2  0
 14 15  1  0
 15 16  2  0
 16 17  1  0
 17 18  2  0
 10 19  1  0
 19 20  1  0
 20 21  1  0
 21 22  2  0
 22 23  1  0
 23 24  2  0
 24 25  1  0
 24 26  1  0
 26 27  2  0
 19  2  1  0
 27 21  1  0
  8  3  1  0
 18 13  1  0
  4 28  1  0
  5 29  1  0
  6 30  1  0
  7 31  1  0
 11 32  1  0
 12 33  1  0
 14 34  1  0
 15 35  1  0
 16 36  1  0
 18 37  1  0
 20 38  1  0
 20 39  1  0
 22 40  1  0
 23 41  1  0
 26 42  1  0
 27 43  1  0
M  END
>  <smiles>  (45) 
O=c1c2ccccc2nc(/C=C/c2cccnc2)n1Cc1ccc(Cl)cc1

>  <score_type>  (45) 
oracle

>  <origin>  (45) 
autodockgpu

>  <m_score__min__energy>  (45) 
-7.9100000000000001

>  <m_primary>  (45) 
energy

>  <rmsd>  (45) 
9.22903563230608

>  <m_score__min__rmsd>  (45) 
9.22903563230608

>  <meeko>  (45) 
{"free_energy": -7.37, "intermolecular_energy": -8.86, "internal_energy": -1.37, "cluster_size": 3, "cluster_id": 6, "rank_in_cluster": 1}

>  <energy>  (45) 
-6.95

>  <cluster_rmsd>  (45) 
0.55

>  <cluster>  (45) 
7

$$$$

     RDKit          3D

 43 46  0  0  0  0  0  0  0  0999 V2000
  139.9880   74.1250  221.9640 O   0  0  0  0  0  0  0  0  0  0  0  0
  140.6420   75.0010  221.3270 C   0  0  0  0  0  0  0  0  0  0  0  0
  141.8940   74.6370  220.9120 C   0  0  0  0  0  0  0  0  0  0  0  0
  142.4130   73.3890  221.1790 C   0  0  0  0  0  0  0  0  0  0  0  0
  143.6880   73.1300  220.7130 C   0  0  0  0  0  0  0  0  0  0  0  0
  144.4200   74.0820  220.0040 C   0  0  0  0  0  0  0  0  0  0  0  0
  143.8900   75.3290  219.7420 C   0  0  0  0  0  0  0  0  0  0  0  0
  142.6180   75.5680  220.2160 C   0  0  0  0  0  0  0  0  0  0  0  0
  142.0670   76.7460  219.9900 N   0  0  0  0  0  0  0  0  0  0  0  0
  140.8120   77.1380  220.3950 C   0  0  0  0  0  0  0  0  0  0  0  0
  140.4440   78.4630  219.9930 C   0  0  0  0  0  0  0  0  0  0  0  0
  141.0240   79.6070  220.1240 C   0  0  0  0  0  0  0  0  0  0  0  0
  141.5090   80.1590  221.4080 C   0  0  0  0  0  0  0  0  0  0  0  0
  142.3430   79.4060  222.2130 C   0  0  0  0  0  0  0  0  0  0  0  0
  142.8340   79.8450  223.4130 C   0  0  0  0  0  0  0  0  0  0  0  0
  142.4540   81.1200  223.8120 C   0  0  0  0  0  0  0  0  0  0  0  0
  141.6510   81.8650  223.0500 N   0  0  0  0  0  0  0  0  0  0  0  0
  141.1750   81.4100  221.8630 C   0  0  0  0  0  0  0  0  0  0  0  0
  140.0950   76.2470  221.0730 N   0  0  0  0  0  0  0  0  0  0  0  0
  138.7740   76.4170  221.5770 C   0  0  0  0  0  0  0  0  0  0  0  0
  138.4870   77.6480  222.3260 C   0  0  0  0  0  0  0  0  0  0  0  0
  139.4430   78.3120  223.1050 C   0  0  0  0  0  0  0  0  0  0  0  0
  139.2020   79.4410  223.8190 C   0  0  0  0  0  0  0  0  0  0  0  0
  137.9630   80.0200  223.8210 C   0  0  0  0  0  0  0  0  0  0  0  0
  137.6980   81.4570  224.7440 Cl  0  0  0  0  0  0  0  0  0  0  0  0
  136.9810   79.4090  223.0700 C   0  0  0  0  0  0  0  0  0  0  0  0
  137.2300   78.2450  222.3350 C   0  0  0  0  0  0  0  0  0  0  0  0
  141.8394   72.6342  221.7369 H   0  0  0  0  0  0  0  0  0  0  0  0
  144.1381   72.1452  220.9068 H   0  0  0  0  0  0  0  0  0  0  0  0
  145.4318   73.8361  219.6494 H   0  0  0  0  0  0  0  0  0  0  0  0
  144.4530   76.0919  219.1843 H   0  0  0  0  0  0  0  0  0  0  0  0
  139.4775   78.5143  219.4703 H   0  0  0  0  0  0  0  0  0  0  0  0
  141.1682   80.2146  219.2184 H   0  0  0  0  0  0  0  0  0  0  0  0
  142.6274   78.4000  221.8710 H   0  0  0  0  0  0  0  0  0  0  0  0
  143.4960   79.2197  224.0301 H   0  0  0  0  0  0  0  0  0  0  0  0
  142.8198   81.5209  224.7688 H   0  0  0  0  0  0  0  0  0  0  0  0
  140.5149   82.0505  221.2597 H   0  0  0  0  0  0  0  0  0  0  0  0
  138.0872   76.3861  220.7183 H   0  0  0  0  0  0  0  0  0  0  0  0
  138.6473   75.6068  222.3102 H   0  0  0  0  0  0  0  0  0  0  0  0
  140.4581   77.8899  223.1406 H   0  0  0  0  0  0  0  0  0  0  0  0
  140.0145   79.8965  224.4041 H   0  0  0  0  0  0  0  0  0  0  0  0
  135.9732   79.8494  223.0483 H   0  0  0  0  0  0  0  0  0  0  0  0
  136.4148   77.7920  221.7517 H   0  0  0  0  0  0  0  0  0  0  0  0
  1  2  2  0
  2  3  1  0
  3  4  2  0
  4  5  1  0
  5  6  2  0
  6  7  1  0
  7  8  2  0
  8  9  1  0
  9 10  2  0
 10 11  1  0
 11 12  2  0
 12 13  1  0
 13 14  2  0
 14 15  1  0
 15 16  2  0
 16 17  1  0
 17 18  2  0
 10 19  1  0
 19 20  1  0
 20 21  1  0
 21 22  2  0
 22 23  1  0
 23 24  2  0
 24 25  1  0
 24 26  1  0
 26 27  2  0
 19  2  1  0
 27 21  1  0
  8  3  1  0
 18 13  1  0
  4 28  1  0
  5 29  1  0
  6 30  1  0
  7 31  1  0
 11 32  1  0
 12 33  1  0
 14 34  1  0
 15 35  1  0
 16 36  1  0
 18 37  1  0
 20 38  1  0
 20 39  1  0
 22 40  1  0
 23 41  1  0
 26 42  1  0
 27 43  1  0
M  END
>  <smiles>  (46) 
O=c1c2ccccc2nc(/C=C/c2cccnc2)n1Cc1ccc(Cl)cc1

>  <score_type>  (46) 
oracle

>  <origin>  (46) 
autodockgpu

>  <m_score__min__energy>  (46) 
-7.9100000000000001

>  <m_primary>  (46) 
energy

>  <rmsd>  (46) 
4.839474357073995

>  <m_score__min__rmsd>  (46) 
4.839474357073995

>  <meeko>  (46) 
{"free_energy": -7.04, "intermolecular_energy": -8.53, "internal_energy": -1.86, "cluster_size": 23, "cluster_id": 7, "rank_in_cluster": 10}

>  <energy>  (46) 
-6.93

>  <cluster_rmsd>  (46) 
0.54

>  <cluster>  (46) 
7

$$$$

     RDKit          3D

 43 46  0  0  0  0  0  0  0  0999 V2000
  141.4960   71.1400  221.2640 O   0  0  0  0  0  0  0  0  0  0  0  0
  141.7270   72.3840  221.2310 C   0  0  0  0  0  0  0  0  0  0  0  0
  142.9520   72.7570  220.7490 C   0  0  0  0  0  0  0  0  0  0  0  0
  143.8810   71.8310  220.3290 C   0  0  0  0  0  0  0  0  0  0  0  0
  145.0850   72.3210  219.8610 C   0  0  0  0  0  0  0  0  0  0  0  0
  145.3550   73.6890  219.8130 C   0  0  0  0  0  0  0  0  0  0  0  0
  144.4170   74.6080  220.2360 C   0  0  0  0  0  0  0  0  0  0  0  0
  143.2230   74.0990  220.6990 C   0  0  0  0  0  0  0  0  0  0  0  0
  142.2930   74.9400  221.1150 N   0  0  0  0  0  0  0  0  0  0  0  0
  141.0550   74.5920  221.6030 C   0  0  0  0  0  0  0  0  0  0  0  0
  140.2220   75.7020  221.9590 C   0  0  0  0  0  0  0  0  0  0  0  0
  140.1240   76.9020  221.4980 C   0  0  0  0  0  0  0  0  0  0  0  0
  140.9480   78.0440  221.9510 C   0  0  0  0  0  0  0  0  0  0  0  0
  141.2730   78.1730  223.2880 C   0  0  0  0  0  0  0  0  0  0  0  0
  142.0300   79.1990  223.7860 C   0  0  0  0  0  0  0  0  0  0  0  0
  142.4790   80.1430  222.8710 C   0  0  0  0  0  0  0  0  0  0  0  0
  142.1770   80.0370  221.5750 N   0  0  0  0  0  0  0  0  0  0  0  0
  141.4250   79.0120  221.1030 C   0  0  0  0  0  0  0  0  0  0  0  0
  140.7760   73.2930  221.6600 N   0  0  0  0  0  0  0  0  0  0  0  0
  139.5620   72.6980  222.1100 C   0  0  0  0  0  0  0  0  0  0  0  0
  139.6350   71.8080  223.2770 C   0  0  0  0  0  0  0  0  0  0  0  0
  138.6800   70.8210  223.5500 C   0  0  0  0  0  0  0  0  0  0  0  0
  138.7130   69.9970  224.6270 C   0  0  0  0  0  0  0  0  0  0  0  0
  139.7210   70.0840  225.5470 C   0  0  0  0  0  0  0  0  0  0  0  0
  139.7260   69.0150  226.9060 Cl  0  0  0  0  0  0  0  0  0  0  0  0
  140.6920   71.0390  225.3290 C   0  0  0  0  0  0  0  0  0  0  0  0
  140.6570   71.8880  224.2190 C   0  0  0  0  0  0  0  0  0  0  0  0
  143.6739   70.7513  220.3645 H   0  0  0  0  0  0  0  0  0  0  0  0
  145.8526   71.6124  219.5164 H   0  0  0  0  0  0  0  0  0  0  0  0
  146.3265   74.0387  219.4337 H   0  0  0  0  0  0  0  0  0  0  0  0
  144.6119   75.6902  220.2053 H   0  0  0  0  0  0  0  0  0  0  0  0
  139.5309   75.4886  222.7878 H   0  0  0  0  0  0  0  0  0  0  0  0
  139.3760   77.0896  220.7136 H   0  0  0  0  0  0  0  0  0  0  0  0
  140.9036   77.4104  223.9895 H   0  0  0  0  0  0  0  0  0  0  0  0
  142.2707   79.2723  224.8568 H   0  0  0  0  0  0  0  0  0  0  0  0
  143.0910   80.9883  223.2187 H   0  0  0  0  0  0  0  0  0  0  0  0
  141.1948   78.9558  220.0288 H   0  0  0  0  0  0  0  0  0  0  0  0
  138.8682   73.5139  222.3607 H   0  0  0  0  0  0  0  0  0  0  0  0
  139.2441   72.0483  221.2813 H   0  0  0  0  0  0  0  0  0  0  0  0
  137.8456   70.7059  222.8425 H   0  0  0  0  0  0  0  0  0  0  0  0
  137.9182   69.2487  224.7622 H   0  0  0  0  0  0  0  0  0  0  0  0
  141.5177   71.1353  226.0493 H   0  0  0  0  0  0  0  0  0  0  0  0
  141.4537   72.6349  224.0871 H   0  0  0  0  0  0  0  0  0  0  0  0
  1  2  2  0
  2  3  1  0
  3  4  2  0
  4  5  1  0
  5  6  2  0
  6  7  1  0
  7  8  2  0
  8  9  1  0
  9 10  2  0
 10 11  1  0
 11 12  2  0
 12 13  1  0
 13 14  2  0
 14 15  1  0
 15 16  2  0
 16 17  1  0
 17 18  2  0
 10 19  1  0
 19 20  1  0
 20 21  1  0
 21 22  2  0
 22 23  1  0
 23 24  2  0
 24 25  1  0
 24 26  1  0
 26 27  2  0
 19  2  1  0
 27 21  1  0
  8  3  1  0
 18 13  1  0
  4 28  1  0
  5 29  1  0
  6 30  1  0
  7 31  1  0
 11 32  1  0
 12 33  1  0
 14 34  1  0
 15 35  1  0
 16 36  1  0
 18 37  1  0
 20 38  1  0
 20 39  1  0
 22 40  1  0
 23 41  1  0
 26 42  1  0
 27 43  1  0
M  END
>  <smiles>  (47) 
O=c1c2ccccc2nc(/C=C/c2cccnc2)n1Cc1ccc(Cl)cc1

>  <score_type>  (47) 
oracle

>  <origin>  (47) 
autodockgpu

>  <m_score__min__energy>  (47) 
-7.9100000000000001

>  <m_primary>  (47) 
energy

>  <rmsd>  (47) 
9.136761488330647

>  <m_score__min__rmsd>  (47) 
9.136761488330647

>  <meeko>  (47) 
{"free_energy": -7.7, "intermolecular_energy": -9.19, "internal_energy": -1.07, "cluster_size": 10, "cluster_id": 2, "rank_in_cluster": 6}

>  <energy>  (47) 
-6.93

>  <cluster_rmsd>  (47) 
0.39

>  <cluster>  (47) 
7

$$$$

     RDKit          3D

 43 46  0  0  0  0  0  0  0  0999 V2000
  139.9520   74.1450  221.9700 O   0  0  0  0  0  0  0  0  0  0  0  0
  140.6080   75.0130  221.3240 C   0  0  0  0  0  0  0  0  0  0  0  0
  141.8620   74.6440  220.9180 C   0  0  0  0  0  0  0  0  0  0  0  0
  142.3800   73.4000  221.2030 C   0  0  0  0  0  0  0  0  0  0  0  0
  143.6570   73.1350  220.7440 C   0  0  0  0  0  0  0  0  0  0  0  0
  144.3920   74.0790  220.0260 C   0  0  0  0  0  0  0  0  0  0  0  0
  143.8620   75.3220  219.7470 C   0  0  0  0  0  0  0  0  0  0  0  0
  142.5890   75.5660  220.2130 C   0  0  0  0  0  0  0  0  0  0  0  0
  142.0380   76.7420  219.9700 N   0  0  0  0  0  0  0  0  0  0  0  0
  140.7820   77.1390  220.3660 C   0  0  0  0  0  0  0  0  0  0  0  0
  140.4150   78.4580  219.9470 C   0  0  0  0  0  0  0  0  0  0  0  0
  140.9770   79.6090  220.0960 C   0  0  0  0  0  0  0  0  0  0  0  0
  141.4640   80.1430  221.3870 C   0  0  0  0  0  0  0  0  0  0  0  0
  142.3000   79.3790  222.1800 C   0  0  0  0  0  0  0  0  0  0  0  0
  142.7930   79.8010  223.3850 C   0  0  0  0  0  0  0  0  0  0  0  0
  142.4120   81.0690  223.8030 C   0  0  0  0  0  0  0  0  0  0  0  0
  141.6060   81.8240  223.0540 N   0  0  0  0  0  0  0  0  0  0  0  0
  141.1290   81.3860  221.8620 C   0  0  0  0  0  0  0  0  0  0  0  0
  140.0630   76.2560  221.0530 N   0  0  0  0  0  0  0  0  0  0  0  0
  138.7390   76.4320  221.5500 C   0  0  0  0  0  0  0  0  0  0  0  0
  138.4610   77.6530  222.3190 C   0  0  0  0  0  0  0  0  0  0  0  0
  139.4200   78.2940  223.1140 C   0  0  0  0  0  0  0  0  0  0  0  0
  139.1870   79.4120  223.8460 C   0  0  0  0  0  0  0  0  0  0  0  0
  137.9540   80.0040  223.8530 C   0  0  0  0  0  0  0  0  0  0  0  0
  137.6980   81.4270  224.8000 Cl  0  0  0  0  0  0  0  0  0  0  0  0
  136.9690   79.4150  223.0880 C   0  0  0  0  0  0  0  0  0  0  0  0
  137.2090   78.2620  222.3330 C   0  0  0  0  0  0  0  0  0  0  0  0
  141.8048   72.6525  221.7691 H   0  0  0  0  0  0  0  0  0  0  0  0
  144.1061   72.1524  220.9507 H   0  0  0  0  0  0  0  0  0  0  0  0
  145.4054   73.8294  219.6785 H   0  0  0  0  0  0  0  0  0  0  0  0
  144.4265   76.0784  219.1820 H   0  0  0  0  0  0  0  0  0  0  0  0
  139.4681   78.4972  219.3886 H   0  0  0  0  0  0  0  0  0  0  0  0
  141.1030   80.2370  219.2017 H   0  0  0  0  0  0  0  0  0  0  0  0
  142.5842   78.3780  221.8232 H   0  0  0  0  0  0  0  0  0  0  0  0
  143.4573   79.1678  223.9915 H   0  0  0  0  0  0  0  0  0  0  0  0
  142.7796   81.4565  224.7646 H   0  0  0  0  0  0  0  0  0  0  0  0
  140.4665   82.0343  221.2698 H   0  0  0  0  0  0  0  0  0  0  0  0
  138.0586   76.4246  220.6857 H   0  0  0  0  0  0  0  0  0  0  0  0
  138.5966   75.6100  222.2670 H   0  0  0  0  0  0  0  0  0  0  0  0
  140.4308   77.8612  223.1469 H   0  0  0  0  0  0  0  0  0  0  0  0
  140.0014   79.8488  224.4426 H   0  0  0  0  0  0  0  0  0  0  0  0
  135.9654   79.8650  223.0711 H   0  0  0  0  0  0  0  0  0  0  0  0
  136.3919   77.8277  221.7382 H   0  0  0  0  0  0  0  0  0  0  0  0
  1  2  2  0
  2  3  1  0
  3  4  2  0
  4  5  1  0
  5  6  2  0
  6  7  1  0
  7  8  2  0
  8  9  1  0
  9 10  2  0
 10 11  1  0
 11 12  2  0
 12 13  1  0
 13 14  2  0
 14 15  1  0
 15 16  2  0
 16 17  1  0
 17 18  2  0
 10 19  1  0
 19 20  1  0
 20 21  1  0
 21 22  2  0
 22 23  1  0
 23 24  2  0
 24 25  1  0
 24 26  1  0
 26 27  2  0
 19  2  1  0
 27 21  1  0
  8  3  1  0
 18 13  1  0
  4 28  1  0
  5 29  1  0
  6 30  1  0
  7 31  1  0
 11 32  1  0
 12 33  1  0
 14 34  1  0
 15 35  1  0
 16 36  1  0
 18 37  1  0
 20 38  1  0
 20 39  1  0
 22 40  1  0
 23 41  1  0
 26 42  1  0
 27 43  1  0
M  END
>  <smiles>  (48) 
O=c1c2ccccc2nc(/C=C/c2cccnc2)n1Cc1ccc(Cl)cc1

>  <score_type>  (48) 
oracle

>  <origin>  (48) 
autodockgpu

>  <m_score__min__energy>  (48) 
-7.9100000000000001

>  <m_primary>  (48) 
energy

>  <rmsd>  (48) 
4.843282987982916

>  <m_score__min__rmsd>  (48) 
4.843282987982916

>  <meeko>  (48) 
{"free_energy": -7.01, "intermolecular_energy": -8.5, "internal_energy": -1.9, "cluster_size": 23, "cluster_id": 7, "rank_in_cluster": 14}

>  <energy>  (48) 
-6.91

>  <cluster_rmsd>  (48) 
0.56

>  <cluster>  (48) 
7

$$$$

     RDKit          3D

 43 46  0  0  0  0  0  0  0  0999 V2000
  140.0320   73.9660  221.9110 O   0  0  0  0  0  0  0  0  0  0  0  0
  140.7640   74.8120  221.3180 C   0  0  0  0  0  0  0  0  0  0  0  0
  142.0080   74.3800  220.9490 C   0  0  0  0  0  0  0  0  0  0  0  0
  142.4400   73.0990  221.2140 C   0  0  0  0  0  0  0  0  0  0  0  0
  143.7170   72.7720  220.7960 C   0  0  0  0  0  0  0  0  0  0  0  0
  144.5340   73.6900  220.1360 C   0  0  0  0  0  0  0  0  0  0  0  0
  144.0900   74.9700  219.8760 C   0  0  0  0  0  0  0  0  0  0  0  0
  142.8160   75.2770  220.3010 C   0  0  0  0  0  0  0  0  0  0  0  0
  142.3450   76.4900  220.0740 N   0  0  0  0  0  0  0  0  0  0  0  0
  141.1000   76.9500  220.4340 C   0  0  0  0  0  0  0  0  0  0  0  0
  140.8280   78.3000  220.0430 C   0  0  0  0  0  0  0  0  0  0  0  0
  141.5080   79.3910  220.1430 C   0  0  0  0  0  0  0  0  0  0  0  0
  141.7490   80.1150  221.4110 C   0  0  0  0  0  0  0  0  0  0  0  0
  142.5670   79.5610  222.3780 C   0  0  0  0  0  0  0  0  0  0  0  0
  142.8400   80.1660  223.5740 C   0  0  0  0  0  0  0  0  0  0  0  0
  142.2470   81.4020  223.7970 C   0  0  0  0  0  0  0  0  0  0  0  0
  141.4540   81.9560  222.8770 N   0  0  0  0  0  0  0  0  0  0  0  0
  141.1960   81.3380  221.6970 C   0  0  0  0  0  0  0  0  0  0  0  0
  140.3030   76.0920  221.0650 N   0  0  0  0  0  0  0  0  0  0  0  0
  138.9740   76.3330  221.5170 C   0  0  0  0  0  0  0  0  0  0  0  0
  138.7400   77.5380  222.3250 C   0  0  0  0  0  0  0  0  0  0  0  0
  137.5070   78.1980  222.3780 C   0  0  0  0  0  0  0  0  0  0  0  0
  137.2670   79.3210  223.1020 C   0  0  0  0  0  0  0  0  0  0  0  0
  138.2540   79.8970  223.8520 C   0  0  0  0  0  0  0  0  0  0  0  0
  137.9070   81.3270  224.7600 Cl  0  0  0  0  0  0  0  0  0  0  0  0
  139.4920   79.2890  223.8380 C   0  0  0  0  0  0  0  0  0  0  0  0
  139.7390   78.1330  223.0910 C   0  0  0  0  0  0  0  0  0  0  0  0
  141.7996   72.3709  221.7334 H   0  0  0  0  0  0  0  0  0  0  0  0
  144.0995   71.7590  220.9895 H   0  0  0  0  0  0  0  0  0  0  0  0
  145.5437   73.3899  219.8193 H   0  0  0  0  0  0  0  0  0  0  0  0
  144.7202   75.7069  219.3566 H   0  0  0  0  0  0  0  0  0  0  0  0
  139.8470   78.4326  219.5634 H   0  0  0  0  0  0  0  0  0  0  0  0
  141.9385   79.8125  219.2227 H   0  0  0  0  0  0  0  0  0  0  0  0
  143.0229   78.5808  222.1747 H   0  0  0  0  0  0  0  0  0  0  0  0
  143.4964   79.6971  224.3218 H   0  0  0  0  0  0  0  0  0  0  0  0
  142.4331   81.9309  224.7434 H   0  0  0  0  0  0  0  0  0  0  0  0
  140.5366   81.8224  220.9618 H   0  0  0  0  0  0  0  0  0  0  0  0
  138.3310   76.4030  220.6272 H   0  0  0  0  0  0  0  0  0  0  0  0
  138.7518   75.4946  222.1935 H   0  0  0  0  0  0  0  0  0  0  0  0
  136.6755   77.7781  221.7930 H   0  0  0  0  0  0  0  0  0  0  0  0
  136.2646   79.7736  223.0849 H   0  0  0  0  0  0  0  0  0  0  0  0
  140.3085   79.7261  224.4315 H   0  0  0  0  0  0  0  0  0  0  0  0
  140.7432   77.6844  223.1089 H   0  0  0  0  0  0  0  0  0  0  0  0
  1  2  2  0
  2  3  1  0
  3  4  2  0
  4  5  1  0
  5  6  2  0
  6  7  1  0
  7  8  2  0
  8  9  1  0
  9 10  2  0
 10 11  1  0
 11 12  2  0
 12 13  1  0
 13 14  2  0
 14 15  1  0
 15 16  2  0
 16 17  1  0
 17 18  2  0
 10 19  1  0
 19 20  1  0
 20 21  1  0
 21 22  2  0
 22 23  1  0
 23 24  2  0
 24 25  1  0
 24 26  1  0
 26 27  2  0
 19  2  1  0
 27 21  1  0
  8  3  1  0
 18 13  1  0
  4 28  1  0
  5 29  1  0
  6 30  1  0
  7 31  1  0
 11 32  1  0
 12 33  1  0
 14 34  1  0
 15 35  1  0
 16 36  1  0
 18 37  1  0
 20 38  1  0
 20 39  1  0
 22 40  1  0
 23 41  1  0
 26 42  1  0
 27 43  1  0
M  END
>  <smiles>  (49) 
O=c1c2ccccc2nc(/C=C/c2cccnc2)n1Cc1ccc(Cl)cc1

>  <score_type>  (49) 
oracle

>  <origin>  (49) 
autodockgpu

>  <m_score__min__energy>  (49) 
-7.9100000000000001

>  <m_primary>  (49) 
energy

>  <rmsd>  (49) 
4.706291517298237

>  <m_score__min__rmsd>  (49) 
4.706291517298237

>  <meeko>  (49) 
{"free_energy": -7.13, "intermolecular_energy": -8.62, "internal_energy": -1.83, "cluster_size": 23, "cluster_id": 7, "rank_in_cluster": 4}

>  <energy>  (49) 
-6.89

>  <cluster_rmsd>  (49) 
0.32

>  <cluster>  (49) 
7

$$$$

     RDKit          3D

 43 46  0  0  0  0  0  0  0  0999 V2000
  141.5150   71.1380  221.2450 O   0  0  0  0  0  0  0  0  0  0  0  0
  141.7530   72.3810  221.2150 C   0  0  0  0  0  0  0  0  0  0  0  0
  142.9790   72.7490  220.7320 C   0  0  0  0  0  0  0  0  0  0  0  0
  143.9020   71.8180  220.3080 C   0  0  0  0  0  0  0  0  0  0  0  0
  145.1080   72.3040  219.8390 C   0  0  0  0  0  0  0  0  0  0  0  0
  145.3850   73.6700  219.7950 C   0  0  0  0  0  0  0  0  0  0  0  0
  144.4520   74.5930  220.2220 C   0  0  0  0  0  0  0  0  0  0  0  0
  143.2570   74.0890  220.6860 C   0  0  0  0  0  0  0  0  0  0  0  0
  142.3320   74.9330  221.1060 N   0  0  0  0  0  0  0  0  0  0  0  0
  141.0930   74.5910  221.5960 C   0  0  0  0  0  0  0  0  0  0  0  0
  140.2670   75.7030  221.9570 C   0  0  0  0  0  0  0  0  0  0  0  0
  140.1670   76.9020  221.4930 C   0  0  0  0  0  0  0  0  0  0  0  0
  140.9830   78.0490  221.9490 C   0  0  0  0  0  0  0  0  0  0  0  0
  141.2760   78.1970  223.2920 C   0  0  0  0  0  0  0  0  0  0  0  0
  142.0250   79.2270  223.7940 C   0  0  0  0  0  0  0  0  0  0  0  0
  142.4990   80.1560  222.8760 C   0  0  0  0  0  0  0  0  0  0  0  0
  142.2280   80.0320  221.5750 N   0  0  0  0  0  0  0  0  0  0  0  0
  141.4850   79.0020  221.0990 C   0  0  0  0  0  0  0  0  0  0  0  0
  140.8070   73.2930  221.6490 N   0  0  0  0  0  0  0  0  0  0  0  0
  139.5910   72.7030  222.0990 C   0  0  0  0  0  0  0  0  0  0  0  0
  139.6590   71.8210  223.2730 C   0  0  0  0  0  0  0  0  0  0  0  0
  138.6870   70.8560  223.5640 C   0  0  0  0  0  0  0  0  0  0  0  0
  138.7150   70.0400  224.6480 C   0  0  0  0  0  0  0  0  0  0  0  0
  139.7360   70.1130  225.5560 C   0  0  0  0  0  0  0  0  0  0  0  0
  139.7350   69.0550  226.9230 Cl  0  0  0  0  0  0  0  0  0  0  0  0
  140.7230   71.0460  225.3190 C   0  0  0  0  0  0  0  0  0  0  0  0
  140.6930   71.8880  224.2030 C   0  0  0  0  0  0  0  0  0  0  0  0
  143.6892   70.7393  220.3412 H   0  0  0  0  0  0  0  0  0  0  0  0
  145.8713   71.5927  219.4904 H   0  0  0  0  0  0  0  0  0  0  0  0
  146.3579   74.0157  219.4157 H   0  0  0  0  0  0  0  0  0  0  0  0
  144.6521   75.6743  220.1933 H   0  0  0  0  0  0  0  0  0  0  0  0
  139.5842   75.4939  222.7937 H   0  0  0  0  0  0  0  0  0  0  0  0
  139.4234   77.0848  220.7033 H   0  0  0  0  0  0  0  0  0  0  0  0
  140.8861   77.4464  223.9953 H   0  0  0  0  0  0  0  0  0  0  0  0
  142.2405   79.3147  224.8691 H   0  0  0  0  0  0  0  0  0  0  0  0
  143.1053   81.0045  223.2259 H   0  0  0  0  0  0  0  0  0  0  0  0
  141.2827   78.9299  220.0202 H   0  0  0  0  0  0  0  0  0  0  0  0
  138.8974   73.5216  222.3415 H   0  0  0  0  0  0  0  0  0  0  0  0
  139.2749   72.0478  221.2739 H   0  0  0  0  0  0  0  0  0  0  0  0
  137.8430   70.7522  222.8662 H   0  0  0  0  0  0  0  0  0  0  0  0
  137.9060   69.3101  224.7987 H   0  0  0  0  0  0  0  0  0  0  0  0
  141.5590   71.1305  226.0289 H   0  0  0  0  0  0  0  0  0  0  0  0
  141.5027   72.6181  224.0569 H   0  0  0  0  0  0  0  0  0  0  0  0
  1  2  2  0
  2  3  1  0
  3  4  2  0
  4  5  1  0
  5  6  2  0
  6  7  1  0
  7  8  2  0
  8  9  1  0
  9 10  2  0
 10 11  1  0
 11 12  2  0
 12 13  1  0
 13 14  2  0
 14 15  1  0
 15 16  2  0
 16 17  1  0
 17 18  2  0
 10 19  1  0
 19 20  1  0
 20 21  1  0
 21 22  2  0
 22 23  1  0
 23 24  2  0
 24 25  1  0
 24 26  1  0
 26 27  2  0
 19  2  1  0
 27 21  1  0
  8  3  1  0
 18 13  1  0
  4 28  1  0
  5 29  1  0
  6 30  1  0
  7 31  1  0
 11 32  1  0
 12 33  1  0
 14 34  1  0
 15 35  1  0
 16 36  1  0
 18 37  1  0
 20 38  1  0
 20 39  1  0
 22 40  1  0
 23 41  1  0
 26 42  1  0
 27 43  1  0
M  END
>  <smiles>  (50) 
O=c1c2ccccc2nc(/C=C/c2cccnc2)n1Cc1ccc(Cl)cc1

>  <score_type>  (50) 
oracle

>  <origin>  (50) 
autodockgpu

>  <m_score__min__energy>  (50) 
-7.9100000000000001

>  <m_primary>  (50) 
energy

>  <rmsd>  (50) 
9.129431837419562

>  <m_score__min__rmsd>  (50) 
9.129431837419562

>  <meeko>  (50) 
{"free_energy": -7.7, "intermolecular_energy": -9.19, "internal_energy": -1.07, "cluster_size": 10, "cluster_id": 2, "rank_in_cluster": 5}

>  <energy>  (50) 
-6.84

>  <cluster_rmsd>  (50) 
0.7

>  <cluster>  (50) 
7

$$$$
