
     RDKit          3D

 51 55  0  0  0  0  0  0  0  0999 V2000
  141.4490   67.8190  229.0970 C   0  0  0  0  0  0  0  0  0  0  0  0
  141.0700   68.8600  228.1160 C   0  0  0  0  0  0  0  0  0  0  0  0
  141.4220   70.1860  228.3500 C   0  0  0  0  0  0  0  0  0  0  0  0
  141.0440   71.1120  227.4070 C   0  0  0  0  0  0  0  0  0  0  0  0
  140.3440   70.7820  226.2660 C   0  0  0  0  0  0  0  0  0  0  0  0
  140.0020   69.4550  226.0480 C   0  0  0  0  0  0  0  0  0  0  0  0
  140.3780   68.5210  226.9910 C   0  0  0  0  0  0  0  0  0  0  0  0
  139.2500   69.3310  224.7590 C   0  0  0  0  0  0  0  0  0  0  0  0
  139.2290   70.7410  224.3160 C   0  0  0  0  0  0  0  0  0  0  0  0
  138.6020   71.2360  223.0980 C   0  0  0  0  0  0  0  0  0  0  0  0
  137.3730   70.7940  222.6870 C   0  0  0  0  0  0  0  0  0  0  0  0
  136.7950   71.2690  221.5240 C   0  0  0  0  0  0  0  0  0  0  0  0
  137.4440   72.2090  220.7360 C   0  0  0  0  0  0  0  0  0  0  0  0
  138.6720   72.6630  221.1330 C   0  0  0  0  0  0  0  0  0  0  0  0
  139.4660   73.6450  220.4070 C   0  0  0  0  0  0  0  0  0  0  0  0
  140.0100   73.2400  219.3430 O   0  0  0  0  0  0  0  0  0  0  0  0
  139.6360   74.9910  220.8510 N   0  0  0  0  0  0  0  0  0  0  0  0
  139.0490   75.5290  222.0430 C   0  0  0  0  0  0  0  0  0  0  0  0
  139.3550   76.9890  222.2000 C   0  0  0  0  0  0  0  0  0  0  0  0
  140.7340   77.3360  221.9480 N   0  0  0  0  0  0  0  0  0  0  0  0
  141.3130   78.4490  222.6070 C   0  0  0  0  0  0  0  0  0  0  0  0
  141.6420   78.7790  223.7410 N   0  0  0  0  0  0  0  0  0  0  0  0
  142.1830   79.9210  224.0770 C   0  0  0  0  0  0  0  0  0  0  0  0
  142.3990   80.8160  223.0930 C   0  0  0  0  0  0  0  0  0  0  0  0
  141.7780   79.9240  221.6360 S   0  0  0  0  0  0  0  0  0  0  0  0
  141.4570   76.4990  221.0000 C   0  0  0  0  0  0  0  0  0  0  0  0
  140.4760   75.8610  220.0130 C   0  0  0  0  0  0  0  0  0  0  0  0
  139.2440   72.1730  222.3110 C   0  0  0  0  0  0  0  0  0  0  0  0
  139.8330   71.5080  225.1550 N   0  0  0  0  0  0  0  0  0  0  0  0
  141.3077   68.2071  230.1165 H   0  0  0  0  0  0  0  0  0  0  0  0
  140.8166   66.9308  228.9519 H   0  0  0  0  0  0  0  0  0  0  0  0
  142.5045   67.5453  228.9519 H   0  0  0  0  0  0  0  0  0  0  0  0
  141.9792   70.4806  229.2515 H   0  0  0  0  0  0  0  0  0  0  0  0
  141.3127   72.1661  227.5705 H   0  0  0  0  0  0  0  0  0  0  0  0
  140.1104   67.4663  226.8298 H   0  0  0  0  0  0  0  0  0  0  0  0
  139.7804   68.6885  224.0407 H   0  0  0  0  0  0  0  0  0  0  0  0
  138.2568   68.8676  224.8531 H   0  0  0  0  0  0  0  0  0  0  0  0
  136.8364   70.0485  223.2921 H   0  0  0  0  0  0  0  0  0  0  0  0
  135.8061   70.8962  221.2190 H   0  0  0  0  0  0  0  0  0  0  0  0
  136.9804   72.5816  219.8107 H   0  0  0  0  0  0  0  0  0  0  0  0
  137.9581   75.3963  221.9947 H   0  0  0  0  0  0  0  0  0  0  0  0
  139.4725   74.9944  222.9061 H   0  0  0  0  0  0  0  0  0  0  0  0
  138.7238   77.5512  221.4961 H   0  0  0  0  0  0  0  0  0  0  0  0
  139.1525   77.2428  223.2510 H   0  0  0  0  0  0  0  0  0  0  0  0
  142.4510   80.1422  225.1207 H   0  0  0  0  0  0  0  0  0  0  0  0
  142.8368   81.8232  223.1552 H   0  0  0  0  0  0  0  0  0  0  0  0
  142.1809   77.1158  220.4473 H   0  0  0  0  0  0  0  0  0  0  0  0
  141.9860   75.7055  221.5482 H   0  0  0  0  0  0  0  0  0  0  0  0
  139.8668   76.6303  219.5160 H   0  0  0  0  0  0  0  0  0  0  0  0
  140.9856   75.3083  219.2100 H   0  0  0  0  0  0  0  0  0  0  0  0
  140.2325   72.5437  222.6199 H   0  0  0  0  0  0  0  0  0  0  0  0
  1  2  1  0
  2  3  2  0
  3  4  1  0
  4  5  2  0
  5  6  1  0
  6  7  2  0
  6  8  1  0
  8  9  1  0
  9 10  1  0
 10 11  2  0
 11 12  1  0
 12 13  2  0
 13 14  1  0
 14 15  1  0
 15 16  2  0
 15 17  1  0
 17 18  1  0
 18 19  1  0
 19 20  1  0
 20 21  1  0
 21 22  2  0
 22 23  1  0
 23 24  2  0
 24 25  1  0
 20 26  1  0
 26 27  1  0
 14 28  2  0
  9 29  2  0
  7  2  1  0
 28 10  1  0
 29  5  1  0
 27 17  1  0
 25 21  1  0
  1 30  1  0
  1 31  1  0
  1 32  1  0
  3 33  1  0
  4 34  1  0
  7 35  1  0
  8 36  1  0
  8 37  1  0
 11 38  1  0
 12 39  1  0
 13 40  1  0
 18 41  1  0
 18 42  1  0
 19 43  1  0
 19 44  1  0
 23 45  1  0
 24 46  1  0
 26 47  1  0
 26 48  1  0
 27 49  1  0
 27 50  1  0
 28 51  1  0
M  END
>  <smiles>  (1) 
Cc1ccc2c(c1)CC(c1cccc(C(=O)N3CCN(c4nccs4)CC3)c1)=N2

>  <score_type>  (1) 
oracle

>  <origin>  (1) 
autodockgpu

>  <m_score__min__energy>  (1) 
-8.0099999999999998

>  <m_primary>  (1) 
energy

>  <rmsd>  (1) 
3.5721843483381295

>  <m_score__min__rmsd>  (1) 
3.5721843483381295

>  <meeko>  (1) 
{"free_energy": -8.01, "intermolecular_energy": -8.91, "internal_energy": -0.8, "cluster_size": 47, "cluster_id": 1, "rank_in_cluster": 2}

>  <energy>  (1) 
-8.01

>  <cluster_rmsd>  (1) 
0.0

>  <cluster>  (1) 
1

$$$$

     RDKit          3D

 51 55  0  0  0  0  0  0  0  0999 V2000
  141.4090   68.1360  229.0960 C   0  0  0  0  0  0  0  0  0  0  0  0
  141.0840   69.1830  228.1020 C   0  0  0  0  0  0  0  0  0  0  0  0
  141.4140   70.5080  228.3660 C   0  0  0  0  0  0  0  0  0  0  0  0
  141.0880   71.4400  227.4090 C   0  0  0  0  0  0  0  0  0  0  0  0
  140.4590   71.1140  226.2250 C   0  0  0  0  0  0  0  0  0  0  0  0
  140.1380   69.7880  225.9780 C   0  0  0  0  0  0  0  0  0  0  0  0
  140.4630   68.8480  226.9350 C   0  0  0  0  0  0  0  0  0  0  0  0
  139.4660   69.6690  224.6450 C   0  0  0  0  0  0  0  0  0  0  0  0
  139.4630   71.0830  224.2120 C   0  0  0  0  0  0  0  0  0  0  0  0
  138.9080   71.5840  222.9620 C   0  0  0  0  0  0  0  0  0  0  0  0
  137.7370   71.0960  222.4450 C   0  0  0  0  0  0  0  0  0  0  0  0
  137.2270   71.5780  221.2530 C   0  0  0  0  0  0  0  0  0  0  0  0
  137.8870   72.5710  220.5440 C   0  0  0  0  0  0  0  0  0  0  0  0
  139.0570   73.0710  221.0460 C   0  0  0  0  0  0  0  0  0  0  0  0
  139.8540   74.1110  220.4110 C   0  0  0  0  0  0  0  0  0  0  0  0
  140.5890   73.7390  219.4540 O   0  0  0  0  0  0  0  0  0  0  0  0
  139.8270   75.4760  220.8260 N   0  0  0  0  0  0  0  0  0  0  0  0
  139.0190   75.9800  221.8970 C   0  0  0  0  0  0  0  0  0  0  0  0
  139.1580   77.4660  222.0450 C   0  0  0  0  0  0  0  0  0  0  0  0
  140.5200   77.9430  221.9870 N   0  0  0  0  0  0  0  0  0  0  0  0
  140.8840   79.1210  222.6840 C   0  0  0  0  0  0  0  0  0  0  0  0
  140.3400   80.0660  223.2420 N   0  0  0  0  0  0  0  0  0  0  0  0
  140.9520   81.0600  223.8330 C   0  0  0  0  0  0  0  0  0  0  0  0
  142.3000   81.0460  223.8290 C   0  0  0  0  0  0  0  0  0  0  0  0
  142.6530   79.5110  222.9210 S   0  0  0  0  0  0  0  0  0  0  0  0
  141.4540   77.1610  221.1880 C   0  0  0  0  0  0  0  0  0  0  0  0
  140.6970   76.4070  220.0910 C   0  0  0  0  0  0  0  0  0  0  0  0
  139.5610   72.5730  222.2530 C   0  0  0  0  0  0  0  0  0  0  0  0
  140.0110   71.8460  225.0910 N   0  0  0  0  0  0  0  0  0  0  0  0
  141.2830   68.5419  230.1106 H   0  0  0  0  0  0  0  0  0  0  0  0
  140.7350   67.2777  228.9581 H   0  0  0  0  0  0  0  0  0  0  0  0
  142.4506   67.8102  228.9581 H   0  0  0  0  0  0  0  0  0  0  0  0
  141.9149   70.7983  229.3013 H   0  0  0  0  0  0  0  0  0  0  0  0
  141.3403   72.4942  227.5960 H   0  0  0  0  0  0  0  0  0  0  0  0
  140.2126   67.7929  226.7501 H   0  0  0  0  0  0  0  0  0  0  0  0
  140.0429   69.0352  223.9554 H   0  0  0  0  0  0  0  0  0  0  0  0
  138.4720   69.1987  224.6752 H   0  0  0  0  0  0  0  0  0  0  0  0
  137.1934   70.3079  222.9867 H   0  0  0  0  0  0  0  0  0  0  0  0
  136.2843   71.1679  220.8616 H   0  0  0  0  0  0  0  0  0  0  0  0
  137.4771   72.9492  219.5959 H   0  0  0  0  0  0  0  0  0  0  0  0
  137.9654   75.7392  221.6924 H   0  0  0  0  0  0  0  0  0  0  0  0
  139.3567   75.5092  222.8321 H   0  0  0  0  0  0  0  0  0  0  0  0
  138.5893   77.9477  221.2360 H   0  0  0  0  0  0  0  0  0  0  0  0
  138.7768   77.7206  223.0449 H   0  0  0  0  0  0  0  0  0  0  0  0
  140.3895   81.8740  224.3136 H   0  0  0  0  0  0  0  0  0  0  0  0
  143.0027   81.7732  224.2619 H   0  0  0  0  0  0  0  0  0  0  0  0
  142.1911   77.8341  220.7259 H   0  0  0  0  0  0  0  0  0  0  0  0
  141.9676   76.4365  221.8371 H   0  0  0  0  0  0  0  0  0  0  0  0
  140.0991   77.1011  219.4821 H   0  0  0  0  0  0  0  0  0  0  0  0
  141.3720   75.8902  219.3930 H   0  0  0  0  0  0  0  0  0  0  0  0
  140.5033   72.9806  222.6478 H   0  0  0  0  0  0  0  0  0  0  0  0
  1  2  1  0
  2  3  2  0
  3  4  1  0
  4  5  2  0
  5  6  1  0
  6  7  2  0
  6  8  1  0
  8  9  1  0
  9 10  1  0
 10 11  2  0
 11 12  1  0
 12 13  2  0
 13 14  1  0
 14 15  1  0
 15 16  2  0
 15 17  1  0
 17 18  1  0
 18 19  1  0
 19 20  1  0
 20 21  1  0
 21 22  2  0
 22 23  1  0
 23 24  2  0
 24 25  1  0
 20 26  1  0
 26 27  1  0
 14 28  2  0
  9 29  2  0
  7  2  1  0
 28 10  1  0
 29  5  1  0
 27 17  1  0
 25 21  1  0
  1 30  1  0
  1 31  1  0
  1 32  1  0
  3 33  1  0
  4 34  1  0
  7 35  1  0
  8 36  1  0
  8 37  1  0
 11 38  1  0
 12 39  1  0
 13 40  1  0
 18 41  1  0
 18 42  1  0
 19 43  1  0
 19 44  1  0
 23 45  1  0
 24 46  1  0
 26 47  1  0
 26 48  1  0
 27 49  1  0
 27 50  1  0
 28 51  1  0
M  END
>  <smiles>  (2) 
Cc1ccc2c(c1)CC(c1cccc(C(=O)N3CCN(c4nccs4)CC3)c1)=N2

>  <score_type>  (2) 
oracle

>  <origin>  (2) 
autodockgpu

>  <m_score__min__energy>  (2) 
-8.0099999999999998

>  <m_primary>  (2) 
energy

>  <rmsd>  (2) 
3.805928046818884

>  <m_score__min__rmsd>  (2) 
3.805928046818884

>  <meeko>  (2) 
{"free_energy": -7.97, "intermolecular_energy": -8.87, "internal_energy": -0.8, "cluster_size": 47, "cluster_id": 1, "rank_in_cluster": 21}

>  <energy>  (2) 
-8.01

>  <cluster_rmsd>  (2) 
0.03

>  <cluster>  (2) 
1

$$$$

     RDKit          3D

 51 55  0  0  0  0  0  0  0  0999 V2000
  141.4450   67.9760  229.1140 C   0  0  0  0  0  0  0  0  0  0  0  0
  141.0730   68.9850  228.0980 C   0  0  0  0  0  0  0  0  0  0  0  0
  141.4040   70.3210  228.3020 C   0  0  0  0  0  0  0  0  0  0  0  0
  141.0330   71.2160  227.3270 C   0  0  0  0  0  0  0  0  0  0  0  0
  140.3590   70.8460  226.1820 C   0  0  0  0  0  0  0  0  0  0  0  0
  140.0370   69.5110  225.9950 C   0  0  0  0  0  0  0  0  0  0  0  0
  140.4070   68.6070  226.9700 C   0  0  0  0  0  0  0  0  0  0  0  0
  139.3130   69.3410  224.6960 C   0  0  0  0  0  0  0  0  0  0  0  0
  139.2830   70.7390  224.2140 C   0  0  0  0  0  0  0  0  0  0  0  0
  138.6740   71.1930  222.9710 C   0  0  0  0  0  0  0  0  0  0  0  0
  137.4840   70.6840  222.5210 C   0  0  0  0  0  0  0  0  0  0  0  0
  136.9230   71.1210  221.3350 C   0  0  0  0  0  0  0  0  0  0  0  0
  137.5490   72.0890  220.5630 C   0  0  0  0  0  0  0  0  0  0  0  0
  138.7370   72.6090  220.9980 C   0  0  0  0  0  0  0  0  0  0  0  0
  139.5030   73.6270  220.2920 C   0  0  0  0  0  0  0  0  0  0  0  0
  140.0270   73.2680  219.2010 O   0  0  0  0  0  0  0  0  0  0  0  0
  139.6680   74.9570  220.7820 N   0  0  0  0  0  0  0  0  0  0  0  0
  139.1030   75.4440  222.0060 C   0  0  0  0  0  0  0  0  0  0  0  0
  139.3960   76.9010  222.2110 C   0  0  0  0  0  0  0  0  0  0  0  0
  140.7650   77.2740  221.9410 N   0  0  0  0  0  0  0  0  0  0  0  0
  141.3460   78.3670  222.6290 C   0  0  0  0  0  0  0  0  0  0  0  0
  141.6420   78.6820  223.7760 N   0  0  0  0  0  0  0  0  0  0  0  0
  142.1970   79.8090  224.1390 C   0  0  0  0  0  0  0  0  0  0  0  0
  142.4690   80.7050  223.1700 C   0  0  0  0  0  0  0  0  0  0  0  0
  141.8800   79.8370  221.6860 S   0  0  0  0  0  0  0  0  0  0  0  0
  141.4760   76.4810  220.9470 C   0  0  0  0  0  0  0  0  0  0  0  0
  140.4800   75.8690  219.9590 C   0  0  0  0  0  0  0  0  0  0  0  0
  139.2930   72.1570  222.1990 C   0  0  0  0  0  0  0  0  0  0  0  0
  139.8610   71.5360  225.0430 N   0  0  0  0  0  0  0  0  0  0  0  0
  141.2908   68.3942  230.1197 H   0  0  0  0  0  0  0  0  0  0  0  0
  140.8177   67.0811  228.9889 H   0  0  0  0  0  0  0  0  0  0  0  0
  142.5031   67.7025  228.9889 H   0  0  0  0  0  0  0  0  0  0  0  0
  141.9400   70.6472  229.2055 H   0  0  0  0  0  0  0  0  0  0  0  0
  141.2856   72.2775  227.4665 H   0  0  0  0  0  0  0  0  0  0  0  0
  140.1559   67.5449  226.8323 H   0  0  0  0  0  0  0  0  0  0  0  0
  139.8660   68.6863  224.0064 H   0  0  0  0  0  0  0  0  0  0  0  0
  138.3244   68.8666  224.7829 H   0  0  0  0  0  0  0  0  0  0  0  0
  136.9663   69.9149  223.1131 H   0  0  0  0  0  0  0  0  0  0  0  0
  135.9663   70.6948  220.9987 H   0  0  0  0  0  0  0  0  0  0  0  0
  137.0988   72.4316  219.6196 H   0  0  0  0  0  0  0  0  0  0  0  0
  138.0128   75.3001  221.9775 H   0  0  0  0  0  0  0  0  0  0  0  0
  139.5529   74.8832  222.8385 H   0  0  0  0  0  0  0  0  0  0  0  0
  138.7423   77.4815  221.5433 H   0  0  0  0  0  0  0  0  0  0  0  0
  139.2150   77.1128  223.2751 H   0  0  0  0  0  0  0  0  0  0  0  0
  142.4324   80.0173  225.1931 H   0  0  0  0  0  0  0  0  0  0  0  0
  142.9276   81.7012  223.2550 H   0  0  0  0  0  0  0  0  0  0  0  0
  142.1807   77.1261  220.4019 H   0  0  0  0  0  0  0  0  0  0  0  0
  142.0259   75.6741  221.4534 H   0  0  0  0  0  0  0  0  0  0  0  0
  139.8512   76.6493  219.5054 H   0  0  0  0  0  0  0  0  0  0  0  0
  140.9776   75.3530  219.1247 H   0  0  0  0  0  0  0  0  0  0  0  0
  140.2497   72.5808  222.5383 H   0  0  0  0  0  0  0  0  0  0  0  0
  1  2  1  0
  2  3  2  0
  3  4  1  0
  4  5  2  0
  5  6  1  0
  6  7  2  0
  6  8  1  0
  8  9  1  0
  9 10  1  0
 10 11  2  0
 11 12  1  0
 12 13  2  0
 13 14  1  0
 14 15  1  0
 15 16  2  0
 15 17  1  0
 17 18  1  0
 18 19  1  0
 19 20  1  0
 20 21  1  0
 21 22  2  0
 22 23  1  0
 23 24  2  0
 24 25  1  0
 20 26  1  0
 26 27  1  0
 14 28  2  0
  9 29  2  0
  7  2  1  0
 28 10  1  0
 29  5  1  0
 27 17  1  0
 25 21  1  0
  1 30  1  0
  1 31  1  0
  1 32  1  0
  3 33  1  0
  4 34  1  0
  7 35  1  0
  8 36  1  0
  8 37  1  0
 11 38  1  0
 12 39  1  0
 13 40  1  0
 18 41  1  0
 18 42  1  0
 19 43  1  0
 19 44  1  0
 23 45  1  0
 24 46  1  0
 26 47  1  0
 26 48  1  0
 27 49  1  0
 27 50  1  0
 28 51  1  0
M  END
>  <smiles>  (3) 
Cc1ccc2c(c1)CC(c1cccc(C(=O)N3CCN(c4nccs4)CC3)c1)=N2

>  <score_type>  (3) 
oracle

>  <origin>  (3) 
autodockgpu

>  <m_score__min__energy>  (3) 
-8.0099999999999998

>  <m_primary>  (3) 
energy

>  <rmsd>  (3) 
3.5620499347769377

>  <m_score__min__rmsd>  (3) 
3.5620499347769377

>  <meeko>  (3) 
{"free_energy": -7.97, "intermolecular_energy": -8.86, "internal_energy": -0.8, "cluster_size": 47, "cluster_id": 1, "rank_in_cluster": 29}

>  <energy>  (3) 
-8.01

>  <cluster_rmsd>  (3) 
0.03

>  <cluster>  (3) 
1

$$$$

     RDKit          3D

 51 55  0  0  0  0  0  0  0  0999 V2000
  141.3860   68.1080  229.0930 C   0  0  0  0  0  0  0  0  0  0  0  0
  141.0620   69.1420  228.0840 C   0  0  0  0  0  0  0  0  0  0  0  0
  141.3630   70.4750  228.3460 C   0  0  0  0  0  0  0  0  0  0  0  0
  141.0400   71.3940  227.3750 C   0  0  0  0  0  0  0  0  0  0  0  0
  140.4420   71.0490  226.1810 C   0  0  0  0  0  0  0  0  0  0  0  0
  140.1500   69.7150  225.9370 C   0  0  0  0  0  0  0  0  0  0  0  0
  140.4720   68.7880  226.9080 C   0  0  0  0  0  0  0  0  0  0  0  0
  139.5080   69.5750  224.5920 C   0  0  0  0  0  0  0  0  0  0  0  0
  139.4890   70.9850  224.1480 C   0  0  0  0  0  0  0  0  0  0  0  0
  138.9510   71.4670  222.8830 C   0  0  0  0  0  0  0  0  0  0  0  0
  137.8030   70.9500  222.3430 C   0  0  0  0  0  0  0  0  0  0  0  0
  137.3100   71.4140  221.1370 C   0  0  0  0  0  0  0  0  0  0  0  0
  137.9620   72.4190  220.4380 C   0  0  0  0  0  0  0  0  0  0  0  0
  139.1080   72.9480  220.9640 C   0  0  0  0  0  0  0  0  0  0  0  0
  139.8950   74.0030  220.3410 C   0  0  0  0  0  0  0  0  0  0  0  0
  140.6370   73.6500  219.3840 O   0  0  0  0  0  0  0  0  0  0  0  0
  139.8500   75.3650  220.7690 N   0  0  0  0  0  0  0  0  0  0  0  0
  139.0320   75.8480  221.8430 C   0  0  0  0  0  0  0  0  0  0  0  0
  139.1530   77.3340  222.0050 C   0  0  0  0  0  0  0  0  0  0  0  0
  140.5090   77.8280  221.9570 N   0  0  0  0  0  0  0  0  0  0  0  0
  140.8580   79.0040  222.6660 C   0  0  0  0  0  0  0  0  0  0  0  0
  140.3000   79.9290  223.2440 N   0  0  0  0  0  0  0  0  0  0  0  0
  140.8990   80.9270  223.8420 C   0  0  0  0  0  0  0  0  0  0  0  0
  142.2460   80.9420  223.8220 C   0  0  0  0  0  0  0  0  0  0  0  0
  142.6200   79.4280  222.8890 S   0  0  0  0  0  0  0  0  0  0  0  0
  141.4550   77.0650  221.1540 C   0  0  0  0  0  0  0  0  0  0  0  0
  140.7120   76.3130  220.0460 C   0  0  0  0  0  0  0  0  0  0  0  0
  139.5960   72.4680  222.1840 C   0  0  0  0  0  0  0  0  0  0  0  0
  140.0050   71.7640  225.0330 N   0  0  0  0  0  0  0  0  0  0  0  0
  141.2549   68.5264  230.1019 H   0  0  0  0  0  0  0  0  0  0  0  0
  140.7149   67.2462  228.9634 H   0  0  0  0  0  0  0  0  0  0  0  0
  142.4290   67.7833  228.9634 H   0  0  0  0  0  0  0  0  0  0  0  0
  141.8390   70.7807  229.2894 H   0  0  0  0  0  0  0  0  0  0  0  0
  141.2694   72.4539  227.5594 H   0  0  0  0  0  0  0  0  0  0  0  0
  140.2445   67.7273  226.7260 H   0  0  0  0  0  0  0  0  0  0  0  0
  140.1099   68.9465  223.9192 H   0  0  0  0  0  0  0  0  0  0  0  0
  138.5219   69.0878  224.6058 H   0  0  0  0  0  0  0  0  0  0  0  0
  137.2647   70.1531  222.8771 H   0  0  0  0  0  0  0  0  0  0  0  0
  136.3869   70.9794  220.7259 H   0  0  0  0  0  0  0  0  0  0  0  0
  137.5649   72.7834  219.4791 H   0  0  0  0  0  0  0  0  0  0  0  0
  137.9820   75.5963  221.6328 H   0  0  0  0  0  0  0  0  0  0  0  0
  139.3717   75.3719  222.7747 H   0  0  0  0  0  0  0  0  0  0  0  0
  138.5818   77.8163  221.1981 H   0  0  0  0  0  0  0  0  0  0  0  0
  138.7651   77.5746  223.0058 H   0  0  0  0  0  0  0  0  0  0  0  0
  140.3256   81.7220  224.3411 H   0  0  0  0  0  0  0  0  0  0  0  0
  142.9383   81.6781  224.2567 H   0  0  0  0  0  0  0  0  0  0  0  0
  142.1861   77.7513  220.7018 H   0  0  0  0  0  0  0  0  0  0  0  0
  141.9740   76.3399  221.7981 H   0  0  0  0  0  0  0  0  0  0  0  0
  140.1086   77.0058  219.4411 H   0  0  0  0  0  0  0  0  0  0  0  0
  141.3958   75.8111  219.3456 H   0  0  0  0  0  0  0  0  0  0  0  0
  140.5191   72.9000  222.5979 H   0  0  0  0  0  0  0  0  0  0  0  0
  1  2  1  0
  2  3  2  0
  3  4  1  0
  4  5  2  0
  5  6  1  0
  6  7  2  0
  6  8  1  0
  8  9  1  0
  9 10  1  0
 10 11  2  0
 11 12  1  0
 12 13  2  0
 13 14  1  0
 14 15  1  0
 15 16  2  0
 15 17  1  0
 17 18  1  0
 18 19  1  0
 19 20  1  0
 20 21  1  0
 21 22  2  0
 22 23  1  0
 23 24  2  0
 24 25  1  0
 20 26  1  0
 26 27  1  0
 14 28  2  0
  9 29  2  0
  7  2  1  0
 28 10  1  0
 29  5  1  0
 27 17  1  0
 25 21  1  0
  1 30  1  0
  1 31  1  0
  1 32  1  0
  3 33  1  0
  4 34  1  0
  7 35  1  0
  8 36  1  0
  8 37  1  0
 11 38  1  0
 12 39  1  0
 13 40  1  0
 18 41  1  0
 18 42  1  0
 19 43  1  0
 19 44  1  0
 23 45  1  0
 24 46  1  0
 26 47  1  0
 26 48  1  0
 27 49  1  0
 27 50  1  0
 28 51  1  0
M  END
>  <smiles>  (4) 
Cc1ccc2c(c1)CC(c1cccc(C(=O)N3CCN(c4nccs4)CC3)c1)=N2

>  <score_type>  (4) 
oracle

>  <origin>  (4) 
autodockgpu

>  <m_score__min__energy>  (4) 
-8.0099999999999998

>  <m_primary>  (4) 
energy

>  <rmsd>  (4) 
3.756034765929974

>  <m_score__min__rmsd>  (4) 
3.756034765929974

>  <meeko>  (4) 
{"free_energy": -7.98, "intermolecular_energy": -8.88, "internal_energy": -0.8, "cluster_size": 47, "cluster_id": 1, "rank_in_cluster": 17}

>  <energy>  (4) 
-8.01

>  <cluster_rmsd>  (4) 
0.07

>  <cluster>  (4) 
1

$$$$

     RDKit          3D

 51 55  0  0  0  0  0  0  0  0999 V2000
  141.4320   68.1300  229.0690 C   0  0  0  0  0  0  0  0  0  0  0  0
  141.0720   69.1550  228.0640 C   0  0  0  0  0  0  0  0  0  0  0  0
  141.4010   70.4870  228.2920 C   0  0  0  0  0  0  0  0  0  0  0  0
  141.0420   71.3970  227.3250 C   0  0  0  0  0  0  0  0  0  0  0  0
  140.3820   71.0440  226.1670 C   0  0  0  0  0  0  0  0  0  0  0  0
  140.0620   69.7110  225.9560 C   0  0  0  0  0  0  0  0  0  0  0  0
  140.4200   68.7930  226.9230 C   0  0  0  0  0  0  0  0  0  0  0  0
  139.3530   69.5610  224.6460 C   0  0  0  0  0  0  0  0  0  0  0  0
  139.3290   70.9660  224.1850 C   0  0  0  0  0  0  0  0  0  0  0  0
  138.7350   71.4380  222.9410 C   0  0  0  0  0  0  0  0  0  0  0  0
  137.5550   70.9300  222.4660 C   0  0  0  0  0  0  0  0  0  0  0  0
  137.0080   71.3850  221.2800 C   0  0  0  0  0  0  0  0  0  0  0  0
  137.6390   72.3700  220.5340 C   0  0  0  0  0  0  0  0  0  0  0  0
  138.8170   72.8890  220.9950 C   0  0  0  0  0  0  0  0  0  0  0  0
  139.5870   73.9240  220.3180 C   0  0  0  0  0  0  0  0  0  0  0  0
  140.1710   73.5740  219.2550 O   0  0  0  0  0  0  0  0  0  0  0  0
  139.6940   75.2610  220.8060 N   0  0  0  0  0  0  0  0  0  0  0  0
  139.0590   75.7390  221.9990 C   0  0  0  0  0  0  0  0  0  0  0  0
  139.3030   77.2040  222.2070 C   0  0  0  0  0  0  0  0  0  0  0  0
  140.6720   77.6130  221.9980 N   0  0  0  0  0  0  0  0  0  0  0  0
  141.1910   78.7260  222.7040 C   0  0  0  0  0  0  0  0  0  0  0  0
  142.2280   79.0580  223.2670 N   0  0  0  0  0  0  0  0  0  0  0  0
  142.4410   80.2030  223.8620 C   0  0  0  0  0  0  0  0  0  0  0  0
  141.4350   81.0990  223.8570 C   0  0  0  0  0  0  0  0  0  0  0  0
  140.1450   80.2040  222.9410 S   0  0  0  0  0  0  0  0  0  0  0  0
  141.4490   76.8340  221.0430 C   0  0  0  0  0  0  0  0  0  0  0  0
  140.5170   76.1890  220.0150 C   0  0  0  0  0  0  0  0  0  0  0  0
  139.3590   72.4190  222.1960 C   0  0  0  0  0  0  0  0  0  0  0  0
  139.8970   71.7500  225.0320 N   0  0  0  0  0  0  0  0  0  0  0  0
  141.2878   68.5405  230.0793 H   0  0  0  0  0  0  0  0  0  0  0  0
  140.7905   67.2462  228.9374 H   0  0  0  0  0  0  0  0  0  0  0  0
  142.4853   67.8414  228.9374 H   0  0  0  0  0  0  0  0  0  0  0  0
  141.9260   70.7995  229.2068 H   0  0  0  0  0  0  0  0  0  0  0  0
  141.2933   72.4562  227.4829 H   0  0  0  0  0  0  0  0  0  0  0  0
  140.1705   67.7330  226.7674 H   0  0  0  0  0  0  0  0  0  0  0  0
  139.9138   68.9165  223.9530 H   0  0  0  0  0  0  0  0  0  0  0  0
  138.3633   69.0858  224.7142 H   0  0  0  0  0  0  0  0  0  0  0  0
  137.0339   70.1475  223.0371 H   0  0  0  0  0  0  0  0  0  0  0  0
  136.0585   70.9596  220.9229 H   0  0  0  0  0  0  0  0  0  0  0  0
  137.2003   72.7264  219.5903 H   0  0  0  0  0  0  0  0  0  0  0  0
  137.9756   75.5654  221.9205 H   0  0  0  0  0  0  0  0  0  0  0  0
  139.4837   75.1951  222.8556 H   0  0  0  0  0  0  0  0  0  0  0  0
  138.6655   77.7626  221.5059 H   0  0  0  0  0  0  0  0  0  0  0  0
  139.0676   77.4166  223.2603 H   0  0  0  0  0  0  0  0  0  0  0  0
  143.4029   80.4255  224.3470 H   0  0  0  0  0  0  0  0  0  0  0  0
  141.4027   82.1083  224.2932 H   0  0  0  0  0  0  0  0  0  0  0  0
  142.1601   77.4951  220.5261 H   0  0  0  0  0  0  0  0  0  0  0  0
  141.9966   76.0454  221.5799 H   0  0  0  0  0  0  0  0  0  0  0  0
  139.8887   76.9488  219.5272 H   0  0  0  0  0  0  0  0  0  0  0  0
  141.0663   75.6819  219.2081 H   0  0  0  0  0  0  0  0  0  0  0  0
  140.3080   72.8424  222.5567 H   0  0  0  0  0  0  0  0  0  0  0  0
  1  2  1  0
  2  3  2  0
  3  4  1  0
  4  5  2  0
  5  6  1  0
  6  7  2  0
  6  8  1  0
  8  9  1  0
  9 10  1  0
 10 11  2  0
 11 12  1  0
 12 13  2  0
 13 14  1  0
 14 15  1  0
 15 16  2  0
 15 17  1  0
 17 18  1  0
 18 19  1  0
 19 20  1  0
 20 21  1  0
 21 22  2  0
 22 23  1  0
 23 24  2  0
 24 25  1  0
 20 26  1  0
 26 27  1  0
 14 28  2  0
  9 29  2  0
  7  2  1  0
 28 10  1  0
 29  5  1  0
 27 17  1  0
 25 21  1  0
  1 30  1  0
  1 31  1  0
  1 32  1  0
  3 33  1  0
  4 34  1  0
  7 35  1  0
  8 36  1  0
  8 37  1  0
 11 38  1  0
 12 39  1  0
 13 40  1  0
 18 41  1  0
 18 42  1  0
 19 43  1  0
 19 44  1  0
 23 45  1  0
 24 46  1  0
 26 47  1  0
 26 48  1  0
 27 49  1  0
 27 50  1  0
 28 51  1  0
M  END
>  <smiles>  (5) 
Cc1ccc2c(c1)CC(c1cccc(C(=O)N3CCN(c4nccs4)CC3)c1)=N2

>  <score_type>  (5) 
oracle

>  <origin>  (5) 
autodockgpu

>  <m_score__min__energy>  (5) 
-8.0099999999999998

>  <m_primary>  (5) 
energy

>  <rmsd>  (5) 
3.7051407956052125

>  <m_score__min__rmsd>  (5) 
3.7051407956052125

>  <meeko>  (5) 
{"free_energy": -7.93, "intermolecular_energy": -8.82, "internal_energy": -0.8, "cluster_size": 47, "cluster_id": 1, "rank_in_cluster": 46}

>  <energy>  (5) 
-8.01

>  <cluster_rmsd>  (5) 
0.08

>  <cluster>  (5) 
1

$$$$

     RDKit          3D

 51 55  0  0  0  0  0  0  0  0999 V2000
  141.3940   67.7990  229.0980 C   0  0  0  0  0  0  0  0  0  0  0  0
  141.0650   68.8680  228.1290 C   0  0  0  0  0  0  0  0  0  0  0  0
  141.4040   70.1850  228.4170 C   0  0  0  0  0  0  0  0  0  0  0  0
  141.0730   71.1380  227.4820 C   0  0  0  0  0  0  0  0  0  0  0  0
  140.4300   70.8410  226.2990 C   0  0  0  0  0  0  0  0  0  0  0  0
  140.1000   69.5210  226.0280 C   0  0  0  0  0  0  0  0  0  0  0  0
  140.4300   68.5600  226.9620 C   0  0  0  0  0  0  0  0  0  0  0  0
  139.4140   69.4330  224.7000 C   0  0  0  0  0  0  0  0  0  0  0  0
  139.4140   70.8560  224.2960 C   0  0  0  0  0  0  0  0  0  0  0  0
  138.8490   71.3850  223.0620 C   0  0  0  0  0  0  0  0  0  0  0  0
  137.6520   70.9390  222.5670 C   0  0  0  0  0  0  0  0  0  0  0  0
  137.1330   71.4470  221.3900 C   0  0  0  0  0  0  0  0  0  0  0  0
  137.8080   72.4260  220.6750 C   0  0  0  0  0  0  0  0  0  0  0  0
  139.0040   72.8830  221.1560 C   0  0  0  0  0  0  0  0  0  0  0  0
  139.8200   73.9030  220.5120 C   0  0  0  0  0  0  0  0  0  0  0  0
  140.5670   73.5050  219.5760 O   0  0  0  0  0  0  0  0  0  0  0  0
  139.7970   75.2770  220.8980 N   0  0  0  0  0  0  0  0  0  0  0  0
  138.9760   75.8100  221.9450 C   0  0  0  0  0  0  0  0  0  0  0  0
  139.1250   77.2970  222.0640 C   0  0  0  0  0  0  0  0  0  0  0  0
  140.4910   77.7620  222.0180 N   0  0  0  0  0  0  0  0  0  0  0  0
  140.8540   78.9520  222.6960 C   0  0  0  0  0  0  0  0  0  0  0  0
  140.3110   79.8760  223.2900 N   0  0  0  0  0  0  0  0  0  0  0  0
  140.9210   80.8900  223.8470 C   0  0  0  0  0  0  0  0  0  0  0  0
  142.2650   80.9260  223.7600 C   0  0  0  0  0  0  0  0  0  0  0  0
  142.6180   79.4070  222.8270 S   0  0  0  0  0  0  0  0  0  0  0  0
  141.4320   76.9560  221.2520 C   0  0  0  0  0  0  0  0  0  0  0  0
  140.6880   76.1860  220.1580 C   0  0  0  0  0  0  0  0  0  0  0  0
  139.5180   72.3590  222.3470 C   0  0  0  0  0  0  0  0  0  0  0  0
  139.9750   71.5980  225.1850 N   0  0  0  0  0  0  0  0  0  0  0  0
  141.2758   68.1832  230.1219 H   0  0  0  0  0  0  0  0  0  0  0  0
  140.7170   66.9454  228.9462 H   0  0  0  0  0  0  0  0  0  0  0  0
  142.4338   67.4738  228.9462 H   0  0  0  0  0  0  0  0  0  0  0  0
  141.9154   70.4537  229.3531 H   0  0  0  0  0  0  0  0  0  0  0  0
  141.3336   72.1867  227.6878 H   0  0  0  0  0  0  0  0  0  0  0  0
  140.1721   67.5102  226.7583 H   0  0  0  0  0  0  0  0  0  0  0  0
  139.9805   68.8106  223.9917 H   0  0  0  0  0  0  0  0  0  0  0  0
  138.4179   68.9673  224.7308 H   0  0  0  0  0  0  0  0  0  0  0  0
  137.0948   70.1645  223.1144 H   0  0  0  0  0  0  0  0  0  0  0  0
  136.1704   71.0692  221.0150 H   0  0  0  0  0  0  0  0  0  0  0  0
  137.3895   72.8266  219.7399 H   0  0  0  0  0  0  0  0  0  0  0  0
  137.9238   75.5734  221.7284 H   0  0  0  0  0  0  0  0  0  0  0  0
  139.2946   75.3564  222.8951 H   0  0  0  0  0  0  0  0  0  0  0  0
  138.5732   77.7660  221.2360 H   0  0  0  0  0  0  0  0  0  0  0  0
  138.7302   77.5754  223.0522 H   0  0  0  0  0  0  0  0  0  0  0  0
  140.3596   81.6812  224.3654 H   0  0  0  0  0  0  0  0  0  0  0  0
  142.9656   81.6783  224.1514 H   0  0  0  0  0  0  0  0  0  0  0  0
  142.1829   77.6132  220.7892 H   0  0  0  0  0  0  0  0  0  0  0  0
  141.9281   76.2410  221.9248 H   0  0  0  0  0  0  0  0  0  0  0  0
  140.1066   76.8722  219.5247 H   0  0  0  0  0  0  0  0  0  0  0  0
  141.3703   75.6494  219.4823 H   0  0  0  0  0  0  0  0  0  0  0  0
  140.4813   72.7329  222.7243 H   0  0  0  0  0  0  0  0  0  0  0  0
  1  2  1  0
  2  3  2  0
  3  4  1  0
  4  5  2  0
  5  6  1  0
  6  7  2  0
  6  8  1  0
  8  9  1  0
  9 10  1  0
 10 11  2  0
 11 12  1  0
 12 13  2  0
 13 14  1  0
 14 15  1  0
 15 16  2  0
 15 17  1  0
 17 18  1  0
 18 19  1  0
 19 20  1  0
 20 21  1  0
 21 22  2  0
 22 23  1  0
 23 24  2  0
 24 25  1  0
 20 26  1  0
 26 27  1  0
 14 28  2  0
  9 29  2  0
  7  2  1  0
 28 10  1  0
 29  5  1  0
 27 17  1  0
 25 21  1  0
  1 30  1  0
  1 31  1  0
  1 32  1  0
  3 33  1  0
  4 34  1  0
  7 35  1  0
  8 36  1  0
  8 37  1  0
 11 38  1  0
 12 39  1  0
 13 40  1  0
 18 41  1  0
 18 42  1  0
 19 43  1  0
 19 44  1  0
 23 45  1  0
 24 46  1  0
 26 47  1  0
 26 48  1  0
 27 49  1  0
 27 50  1  0
 28 51  1  0
M  END
>  <smiles>  (6) 
Cc1ccc2c(c1)CC(c1cccc(C(=O)N3CCN(c4nccs4)CC3)c1)=N2

>  <score_type>  (6) 
oracle

>  <origin>  (6) 
autodockgpu

>  <m_score__min__energy>  (6) 
-8.0099999999999998

>  <m_primary>  (6) 
energy

>  <rmsd>  (6) 
3.7064481822954805

>  <m_score__min__rmsd>  (6) 
3.7064481822954805

>  <meeko>  (6) 
{"free_energy": -7.97, "intermolecular_energy": -8.86, "internal_energy": -0.8, "cluster_size": 47, "cluster_id": 1, "rank_in_cluster": 30}

>  <energy>  (6) 
-8.01

>  <cluster_rmsd>  (6) 
0.07

>  <cluster>  (6) 
1

$$$$

     RDKit          3D

 51 55  0  0  0  0  0  0  0  0999 V2000
  141.3950   67.7810  229.0960 C   0  0  0  0  0  0  0  0  0  0  0  0
  141.0260   68.8320  228.1210 C   0  0  0  0  0  0  0  0  0  0  0  0
  141.4030   70.1500  228.3560 C   0  0  0  0  0  0  0  0  0  0  0  0
  141.0330   71.0860  227.4190 C   0  0  0  0  0  0  0  0  0  0  0  0
  140.3170   70.7710  226.2830 C   0  0  0  0  0  0  0  0  0  0  0  0
  139.9490   69.4520  226.0660 C   0  0  0  0  0  0  0  0  0  0  0  0
  140.3180   68.5080  227.0020 C   0  0  0  0  0  0  0  0  0  0  0  0
  139.1840   69.3440  224.7830 C   0  0  0  0  0  0  0  0  0  0  0  0
  139.1840   70.7560  224.3440 C   0  0  0  0  0  0  0  0  0  0  0  0
  138.5550   71.2650  223.1330 C   0  0  0  0  0  0  0  0  0  0  0  0
  137.3060   70.8600  222.7420 C   0  0  0  0  0  0  0  0  0  0  0  0
  136.7260   71.3480  221.5850 C   0  0  0  0  0  0  0  0  0  0  0  0
  137.3920   72.2650  220.7850 C   0  0  0  0  0  0  0  0  0  0  0  0
  138.6390   72.6820  221.1610 C   0  0  0  0  0  0  0  0  0  0  0  0
  139.4520   73.6360  220.4200 C   0  0  0  0  0  0  0  0  0  0  0  0
  140.0250   73.1920  219.3870 O   0  0  0  0  0  0  0  0  0  0  0  0
  139.6090   74.9990  220.8160 N   0  0  0  0  0  0  0  0  0  0  0  0
  138.9900   75.5820  221.9700 C   0  0  0  0  0  0  0  0  0  0  0  0
  139.2910   77.0480  222.0790 C   0  0  0  0  0  0  0  0  0  0  0  0
  140.6760   77.3870  221.8510 N   0  0  0  0  0  0  0  0  0  0  0  0
  141.2360   78.5250  222.4820 C   0  0  0  0  0  0  0  0  0  0  0  0
  142.3380   79.0330  222.6560 N   0  0  0  0  0  0  0  0  0  0  0  0
  142.5730   80.1420  223.3080 C   0  0  0  0  0  0  0  0  0  0  0  0
  141.5140   80.7850  223.8360 C   0  0  0  0  0  0  0  0  0  0  0  0
  140.1390   79.7040  223.3430 S   0  0  0  0  0  0  0  0  0  0  0  0
  141.4250   76.5150  220.9570 C   0  0  0  0  0  0  0  0  0  0  0  0
  140.4720   75.8380  219.9690 C   0  0  0  0  0  0  0  0  0  0  0  0
  139.2140   72.1790  222.3330 C   0  0  0  0  0  0  0  0  0  0  0  0
  139.8080   71.5090  225.1800 N   0  0  0  0  0  0  0  0  0  0  0  0
  141.2601   68.1652  230.1179 H   0  0  0  0  0  0  0  0  0  0  0  0
  140.7521   66.9009  228.9473 H   0  0  0  0  0  0  0  0  0  0  0  0
  142.4470   67.4960  228.9473 H   0  0  0  0  0  0  0  0  0  0  0  0
  141.9731   70.4318  229.2536 H   0  0  0  0  0  0  0  0  0  0  0  0
  141.3215   72.1347  227.5831 H   0  0  0  0  0  0  0  0  0  0  0  0
  140.0312   67.4585  226.8399 H   0  0  0  0  0  0  0  0  0  0  0  0
  139.6971   68.6944  224.0586 H   0  0  0  0  0  0  0  0  0  0  0  0
  138.1839   68.8973  224.8841 H   0  0  0  0  0  0  0  0  0  0  0  0
  136.7551   70.1345  223.3586 H   0  0  0  0  0  0  0  0  0  0  0  0
  135.7222   71.0040  221.2951 H   0  0  0  0  0  0  0  0  0  0  0  0
  136.9260   72.6494  219.8657 H   0  0  0  0  0  0  0  0  0  0  0  0
  137.9009   75.4459  221.8976 H   0  0  0  0  0  0  0  0  0  0  0  0
  139.3907   75.0818  222.8641 H   0  0  0  0  0  0  0  0  0  0  0  0
  138.6787   77.5818  221.3373 H   0  0  0  0  0  0  0  0  0  0  0  0
  139.0601   77.3418  223.1136 H   0  0  0  0  0  0  0  0  0  0  0  0
  143.5946   80.5339  223.4206 H   0  0  0  0  0  0  0  0  0  0  0  0
  141.4881   81.7202  224.4145 H   0  0  0  0  0  0  0  0  0  0  0  0
  142.1638   77.1108  220.4009 H   0  0  0  0  0  0  0  0  0  0  0  0
  141.9388   75.7441  221.5501 H   0  0  0  0  0  0  0  0  0  0  0  0
  139.8764   76.5868  219.4262 H   0  0  0  0  0  0  0  0  0  0  0  0
  141.0042   75.2555  219.2025 H   0  0  0  0  0  0  0  0  0  0  0  0
  140.2179   72.5203  222.6256 H   0  0  0  0  0  0  0  0  0  0  0  0
  1  2  1  0
  2  3  2  0
  3  4  1  0
  4  5  2  0
  5  6  1  0
  6  7  2  0
  6  8  1  0
  8  9  1  0
  9 10  1  0
 10 11  2  0
 11 12  1  0
 12 13  2  0
 13 14  1  0
 14 15  1  0
 15 16  2  0
 15 17  1  0
 17 18  1  0
 18 19  1  0
 19 20  1  0
 20 21  1  0
 21 22  2  0
 22 23  1  0
 23 24  2  0
 24 25  1  0
 20 26  1  0
 26 27  1  0
 14 28  2  0
  9 29  2  0
  7  2  1  0
 28 10  1  0
 29  5  1  0
 27 17  1  0
 25 21  1  0
  1 30  1  0
  1 31  1  0
  1 32  1  0
  3 33  1  0
  4 34  1  0
  7 35  1  0
  8 36  1  0
  8 37  1  0
 11 38  1  0
 12 39  1  0
 13 40  1  0
 18 41  1  0
 18 42  1  0
 19 43  1  0
 19 44  1  0
 23 45  1  0
 24 46  1  0
 26 47  1  0
 26 48  1  0
 27 49  1  0
 27 50  1  0
 28 51  1  0
M  END
>  <smiles>  (7) 
Cc1ccc2c(c1)CC(c1cccc(C(=O)N3CCN(c4nccs4)CC3)c1)=N2

>  <score_type>  (7) 
oracle

>  <origin>  (7) 
autodockgpu

>  <m_score__min__energy>  (7) 
-8.0099999999999998

>  <m_primary>  (7) 
energy

>  <rmsd>  (7) 
3.568570136879905

>  <m_score__min__rmsd>  (7) 
3.568570136879905

>  <meeko>  (7) 
{"free_energy": -7.96, "intermolecular_energy": -8.85, "internal_energy": -0.81, "cluster_size": 47, "cluster_id": 1, "rank_in_cluster": 34}

>  <energy>  (7) 
-8.01

>  <cluster_rmsd>  (7) 
0.09

>  <cluster>  (7) 
1

$$$$

     RDKit          3D

 51 55  0  0  0  0  0  0  0  0999 V2000
  141.4240   67.8710  229.1180 C   0  0  0  0  0  0  0  0  0  0  0  0
  141.0510   68.9070  228.1280 C   0  0  0  0  0  0  0  0  0  0  0  0
  141.4080   70.2320  228.3520 C   0  0  0  0  0  0  0  0  0  0  0  0
  141.0350   71.1530  227.4010 C   0  0  0  0  0  0  0  0  0  0  0  0
  140.3350   70.8160  226.2620 C   0  0  0  0  0  0  0  0  0  0  0  0
  139.9880   69.4900  226.0540 C   0  0  0  0  0  0  0  0  0  0  0  0
  140.3590   68.5610  227.0050 C   0  0  0  0  0  0  0  0  0  0  0  0
  139.2380   69.3580  224.7650 C   0  0  0  0  0  0  0  0  0  0  0  0
  139.2230   70.7650  224.3110 C   0  0  0  0  0  0  0  0  0  0  0  0
  138.6000   71.2520  223.0880 C   0  0  0  0  0  0  0  0  0  0  0  0
  137.3770   70.7980  222.6690 C   0  0  0  0  0  0  0  0  0  0  0  0
  136.8030   71.2670  221.5010 C   0  0  0  0  0  0  0  0  0  0  0  0
  137.4480   72.2130  220.7170 C   0  0  0  0  0  0  0  0  0  0  0  0
  138.6690   72.6780  221.1220 C   0  0  0  0  0  0  0  0  0  0  0  0
  139.4580   73.6670  220.4010 C   0  0  0  0  0  0  0  0  0  0  0  0
  139.9950   73.2730  219.3280 O   0  0  0  0  0  0  0  0  0  0  0  0
  139.6330   75.0080  220.8570 N   0  0  0  0  0  0  0  0  0  0  0  0
  139.0560   75.5350  222.0590 C   0  0  0  0  0  0  0  0  0  0  0  0
  139.3640   76.9930  222.2300 C   0  0  0  0  0  0  0  0  0  0  0  0
  140.7420   77.3410  221.9710 N   0  0  0  0  0  0  0  0  0  0  0  0
  141.3260   78.4460  222.6370 C   0  0  0  0  0  0  0  0  0  0  0  0
  141.6500   78.7700  223.7740 N   0  0  0  0  0  0  0  0  0  0  0  0
  142.1990   79.9060  224.1180 C   0  0  0  0  0  0  0  0  0  0  0  0
  142.4310   80.8020  223.1380 C   0  0  0  0  0  0  0  0  0  0  0  0
  141.8130   79.9200  221.6740 S   0  0  0  0  0  0  0  0  0  0  0  0
  141.4570   76.5130  221.0090 C   0  0  0  0  0  0  0  0  0  0  0  0
  140.4680   75.8870  220.0230 C   0  0  0  0  0  0  0  0  0  0  0  0
  139.2380   72.1950  222.3050 C   0  0  0  0  0  0  0  0  0  0  0  0
  139.8280   71.5350  225.1450 N   0  0  0  0  0  0  0  0  0  0  0  0
  141.2815   68.2669  230.1344 H   0  0  0  0  0  0  0  0  0  0  0  0
  140.7888   66.9840  228.9775 H   0  0  0  0  0  0  0  0  0  0  0  0
  142.4788   67.5925  228.9775 H   0  0  0  0  0  0  0  0  0  0  0  0
  141.9653   70.5311  229.2520 H   0  0  0  0  0  0  0  0  0  0  0  0
  141.3078   72.2072  227.5564 H   0  0  0  0  0  0  0  0  0  0  0  0
  140.0874   67.5061  226.8519 H   0  0  0  0  0  0  0  0  0  0  0  0
  139.7674   68.7080  224.0528 H   0  0  0  0  0  0  0  0  0  0  0  0
  138.2431   68.8986  224.8607 H   0  0  0  0  0  0  0  0  0  0  0  0
  136.8429   70.0483  223.2712 H   0  0  0  0  0  0  0  0  0  0  0  0
  135.8201   70.8841  221.1889 H   0  0  0  0  0  0  0  0  0  0  0  0
  136.9868   72.5814  219.7888 H   0  0  0  0  0  0  0  0  0  0  0  0
  137.9646   75.4038  222.0177 H   0  0  0  0  0  0  0  0  0  0  0  0
  139.4867   74.9914  222.9128 H   0  0  0  0  0  0  0  0  0  0  0  0
  138.7279   77.5636  221.5373 H   0  0  0  0  0  0  0  0  0  0  0  0
  139.1694   77.2358  223.2851 H   0  0  0  0  0  0  0  0  0  0  0  0
  142.4608   80.1216  225.1644 H   0  0  0  0  0  0  0  0  0  0  0  0
  142.8776   81.8049  223.2065 H   0  0  0  0  0  0  0  0  0  0  0  0
  142.1777   77.1346  220.4574 H   0  0  0  0  0  0  0  0  0  0  0  0
  141.9890   75.7131  221.5449 H   0  0  0  0  0  0  0  0  0  0  0  0
  139.8559   76.6625  219.5394 H   0  0  0  0  0  0  0  0  0  0  0  0
  140.9713   75.3426  219.2104 H   0  0  0  0  0  0  0  0  0  0  0  0
  140.2203   72.5763  222.6207 H   0  0  0  0  0  0  0  0  0  0  0  0
  1  2  1  0
  2  3  2  0
  3  4  1  0
  4  5  2  0
  5  6  1  0
  6  7  2  0
  6  8  1  0
  8  9  1  0
  9 10  1  0
 10 11  2  0
 11 12  1  0
 12 13  2  0
 13 14  1  0
 14 15  1  0
 15 16  2  0
 15 17  1  0
 17 18  1  0
 18 19  1  0
 19 20  1  0
 20 21  1  0
 21 22  2  0
 22 23  1  0
 23 24  2  0
 24 25  1  0
 20 26  1  0
 26 27  1  0
 14 28  2  0
  9 29  2  0
  7  2  1  0
 28 10  1  0
 29  5  1  0
 27 17  1  0
 25 21  1  0
  1 30  1  0
  1 31  1  0
  1 32  1  0
  3 33  1  0
  4 34  1  0
  7 35  1  0
  8 36  1  0
  8 37  1  0
 11 38  1  0
 12 39  1  0
 13 40  1  0
 18 41  1  0
 18 42  1  0
 19 43  1  0
 19 44  1  0
 23 45  1  0
 24 46  1  0
 26 47  1  0
 26 48  1  0
 27 49  1  0
 27 50  1  0
 28 51  1  0
M  END
>  <smiles>  (8) 
Cc1ccc2c(c1)CC(c1cccc(C(=O)N3CCN(c4nccs4)CC3)c1)=N2

>  <score_type>  (8) 
oracle

>  <origin>  (8) 
autodockgpu

>  <m_score__min__energy>  (8) 
-8.0099999999999998

>  <m_primary>  (8) 
energy

>  <rmsd>  (8) 
3.582068294181243

>  <m_score__min__rmsd>  (8) 
3.582068294181243

>  <meeko>  (8) 
{"free_energy": -8.0, "intermolecular_energy": -8.89, "internal_energy": -0.8, "cluster_size": 47, "cluster_id": 1, "rank_in_cluster": 12}

>  <energy>  (8) 
-8.0

>  <cluster_rmsd>  (8) 
0.04

>  <cluster>  (8) 
1

$$$$

     RDKit          3D

 51 55  0  0  0  0  0  0  0  0999 V2000
  141.4210   68.1340  229.0990 C   0  0  0  0  0  0  0  0  0  0  0  0
  141.0210   69.1210  228.0710 C   0  0  0  0  0  0  0  0  0  0  0  0
  141.2310   70.4770  228.3020 C   0  0  0  0  0  0  0  0  0  0  0  0
  140.8400   71.3500  227.3140 C   0  0  0  0  0  0  0  0  0  0  0  0
  140.2590   70.9400  226.1330 C   0  0  0  0  0  0  0  0  0  0  0  0
  140.0560   69.5840  225.9200 C   0  0  0  0  0  0  0  0  0  0  0  0
  140.4470   68.7030  226.9070 C   0  0  0  0  0  0  0  0  0  0  0  0
  139.4160   69.3720  224.5840 C   0  0  0  0  0  0  0  0  0  0  0  0
  139.2980   70.7680  224.1100 C   0  0  0  0  0  0  0  0  0  0  0  0
  138.7200   71.1840  222.8400 C   0  0  0  0  0  0  0  0  0  0  0  0
  137.5780   70.6130  222.3450 C   0  0  0  0  0  0  0  0  0  0  0  0
  137.0450   71.0160  221.1330 C   0  0  0  0  0  0  0  0  0  0  0  0
  137.6530   72.0120  220.3820 C   0  0  0  0  0  0  0  0  0  0  0  0
  138.7930   72.5940  220.8630 C   0  0  0  0  0  0  0  0  0  0  0  0
  139.5350   73.6470  220.1830 C   0  0  0  0  0  0  0  0  0  0  0  0
  140.0590   73.3310  219.0790 O   0  0  0  0  0  0  0  0  0  0  0  0
  139.6790   74.9640  220.7120 N   0  0  0  0  0  0  0  0  0  0  0  0
  139.1140   75.4030  221.9540 C   0  0  0  0  0  0  0  0  0  0  0  0
  139.3810   76.8580  222.2020 C   0  0  0  0  0  0  0  0  0  0  0  0
  140.7410   77.2650  221.9350 N   0  0  0  0  0  0  0  0  0  0  0  0
  141.3070   78.3480  222.6510 C   0  0  0  0  0  0  0  0  0  0  0  0
  141.5810   78.6430  223.8080 N   0  0  0  0  0  0  0  0  0  0  0  0
  142.1270   79.7660  224.2010 C   0  0  0  0  0  0  0  0  0  0  0  0
  142.4130   80.6790  223.2530 C   0  0  0  0  0  0  0  0  0  0  0  0
  141.8530   79.8360  221.7440 S   0  0  0  0  0  0  0  0  0  0  0  0
  141.4590   76.5160  220.9120 C   0  0  0  0  0  0  0  0  0  0  0  0
  140.4680   75.9150  219.9130 C   0  0  0  0  0  0  0  0  0  0  0  0
  139.3210   72.1760  222.0890 C   0  0  0  0  0  0  0  0  0  0  0  0
  139.7660   71.5990  224.9740 N   0  0  0  0  0  0  0  0  0  0  0  0
  141.2496   68.5570  230.0998 H   0  0  0  0  0  0  0  0  0  0  0  0
  140.8230   67.2184  228.9806 H   0  0  0  0  0  0  0  0  0  0  0  0
  142.4877   67.8931  228.9806 H   0  0  0  0  0  0  0  0  0  0  0  0
  141.6902   70.8354  229.2351 H   0  0  0  0  0  0  0  0  0  0  0  0
  140.9984   72.4268  227.4737 H   0  0  0  0  0  0  0  0  0  0  0  0
  140.2902   67.6257  226.7494 H   0  0  0  0  0  0  0  0  0  0  0  0
  140.0546   68.7713  223.9197 H   0  0  0  0  0  0  0  0  0  0  0  0
  138.4653   68.8196  224.6164 H   0  0  0  0  0  0  0  0  0  0  0  0
  137.0760   69.8210  222.9201 H   0  0  0  0  0  0  0  0  0  0  0  0
  136.1263   70.5400  220.7597 H   0  0  0  0  0  0  0  0  0  0  0  0
  137.2261   72.3272  219.4184 H   0  0  0  0  0  0  0  0  0  0  0  0
  138.0265   75.2395  221.9284 H   0  0  0  0  0  0  0  0  0  0  0  0
  139.5806   74.8257  222.7658 H   0  0  0  0  0  0  0  0  0  0  0  0
  138.7120   77.4462  221.5567 H   0  0  0  0  0  0  0  0  0  0  0  0
  139.2034   77.0335  223.2733 H   0  0  0  0  0  0  0  0  0  0  0  0
  142.3435   79.9563  225.2626 H   0  0  0  0  0  0  0  0  0  0  0  0
  142.8670   81.6748  223.3635 H   0  0  0  0  0  0  0  0  0  0  0  0
  142.1471   77.1908  220.3818 H   0  0  0  0  0  0  0  0  0  0  0  0
  142.0276   75.7047  221.3900 H   0  0  0  0  0  0  0  0  0  0  0  0
  139.8216   76.6965  219.4870 H   0  0  0  0  0  0  0  0  0  0  0  0
  140.9698   75.4334  219.0608 H   0  0  0  0  0  0  0  0  0  0  0  0
  140.2396   72.6498  222.4655 H   0  0  0  0  0  0  0  0  0  0  0  0
  1  2  1  0
  2  3  2  0
  3  4  1  0
  4  5  2  0
  5  6  1  0
  6  7  2  0
  6  8  1  0
  8  9  1  0
  9 10  1  0
 10 11  2  0
 11 12  1  0
 12 13  2  0
 13 14  1  0
 14 15  1  0
 15 16  2  0
 15 17  1  0
 17 18  1  0
 18 19  1  0
 19 20  1  0
 20 21  1  0
 21 22  2  0
 22 23  1  0
 23 24  2  0
 24 25  1  0
 20 26  1  0
 26 27  1  0
 14 28  2  0
  9 29  2  0
  7  2  1  0
 28 10  1  0
 29  5  1  0
 27 17  1  0
 25 21  1  0
  1 30  1  0
  1 31  1  0
  1 32  1  0
  3 33  1  0
  4 34  1  0
  7 35  1  0
  8 36  1  0
  8 37  1  0
 11 38  1  0
 12 39  1  0
 13 40  1  0
 18 41  1  0
 18 42  1  0
 19 43  1  0
 19 44  1  0
 23 45  1  0
 24 46  1  0
 26 47  1  0
 26 48  1  0
 27 49  1  0
 27 50  1  0
 28 51  1  0
M  END
>  <smiles>  (9) 
Cc1ccc2c(c1)CC(c1cccc(C(=O)N3CCN(c4nccs4)CC3)c1)=N2

>  <score_type>  (9) 
oracle

>  <origin>  (9) 
autodockgpu

>  <m_score__min__energy>  (9) 
-8.0099999999999998

>  <m_primary>  (9) 
energy

>  <rmsd>  (9) 
3.576382843701097

>  <m_score__min__rmsd>  (9) 
3.576382843701097

>  <meeko>  (9) 
{"free_energy": -7.94, "intermolecular_energy": -8.84, "internal_energy": -0.8, "cluster_size": 47, "cluster_id": 1, "rank_in_cluster": 40}

>  <energy>  (9) 
-8.0

>  <cluster_rmsd>  (9) 
0.02

>  <cluster>  (9) 
1

$$$$

     RDKit          3D

 51 55  0  0  0  0  0  0  0  0999 V2000
  141.4500   67.9580  229.1090 C   0  0  0  0  0  0  0  0  0  0  0  0
  141.0910   68.9900  228.1110 C   0  0  0  0  0  0  0  0  0  0  0  0
  141.4390   70.3170  228.3390 C   0  0  0  0  0  0  0  0  0  0  0  0
  141.0800   71.2350  227.3790 C   0  0  0  0  0  0  0  0  0  0  0  0
  140.4000   70.8940  226.2290 C   0  0  0  0  0  0  0  0  0  0  0  0
  140.0610   69.5660  226.0180 C   0  0  0  0  0  0  0  0  0  0  0  0
  140.4190   68.6400  226.9770 C   0  0  0  0  0  0  0  0  0  0  0  0
  139.3330   69.4290  224.7170 C   0  0  0  0  0  0  0  0  0  0  0  0
  139.3210   70.8360  224.2600 C   0  0  0  0  0  0  0  0  0  0  0  0
  138.7180   71.3190  223.0250 C   0  0  0  0  0  0  0  0  0  0  0  0
  137.5180   70.8390  222.5720 C   0  0  0  0  0  0  0  0  0  0  0  0
  136.9620   71.3050  221.3940 C   0  0  0  0  0  0  0  0  0  0  0  0
  137.6030   72.2720  220.6350 C   0  0  0  0  0  0  0  0  0  0  0  0
  138.8020   72.7630  221.0730 C   0  0  0  0  0  0  0  0  0  0  0  0
  139.5850   73.7770  220.3800 C   0  0  0  0  0  0  0  0  0  0  0  0
  140.1750   73.3990  219.3310 O   0  0  0  0  0  0  0  0  0  0  0  0
  139.6970   75.1240  220.8400 N   0  0  0  0  0  0  0  0  0  0  0  0
  139.0570   75.6320  222.0170 C   0  0  0  0  0  0  0  0  0  0  0  0
  139.3100   77.1000  222.1950 C   0  0  0  0  0  0  0  0  0  0  0  0
  140.6840   77.4940  221.9890 N   0  0  0  0  0  0  0  0  0  0  0  0
  141.2050   78.6190  222.6740 C   0  0  0  0  0  0  0  0  0  0  0  0
  142.2630   78.9840  223.1730 N   0  0  0  0  0  0  0  0  0  0  0  0
  142.4720   80.1300  223.7680 C   0  0  0  0  0  0  0  0  0  0  0  0
  141.4340   80.9870  223.8400 C   0  0  0  0  0  0  0  0  0  0  0  0
  140.1220   80.0530  222.9990 S   0  0  0  0  0  0  0  0  0  0  0  0
  141.4630   76.6890  221.0580 C   0  0  0  0  0  0  0  0  0  0  0  0
  140.5340   76.0280  220.0360 C   0  0  0  0  0  0  0  0  0  0  0  0
  139.3530   72.2830  222.2660 C   0  0  0  0  0  0  0  0  0  0  0  0
  139.9100   71.6100  225.1020 N   0  0  0  0  0  0  0  0  0  0  0  0
  141.3092   68.3629  230.1220 H   0  0  0  0  0  0  0  0  0  0  0  0
  140.8056   67.0769  228.9734 H   0  0  0  0  0  0  0  0  0  0  0  0
  142.5021   67.6671  228.9734 H   0  0  0  0  0  0  0  0  0  0  0  0
  141.9785   70.6200  229.2485 H   0  0  0  0  0  0  0  0  0  0  0  0
  141.3480   72.2902  227.5363 H   0  0  0  0  0  0  0  0  0  0  0  0
  140.1533   67.5840  226.8213 H   0  0  0  0  0  0  0  0  0  0  0  0
  139.8763   68.7794  224.0150 H   0  0  0  0  0  0  0  0  0  0  0  0
  138.3382   68.9664  224.7969 H   0  0  0  0  0  0  0  0  0  0  0  0
  136.9878   70.0708  223.1540 H   0  0  0  0  0  0  0  0  0  0  0  0
  135.9965   70.9021  221.0543 H   0  0  0  0  0  0  0  0  0  0  0  0
  137.1559   72.6373  219.6987 H   0  0  0  0  0  0  0  0  0  0  0  0
  137.9730   75.4643  221.9342 H   0  0  0  0  0  0  0  0  0  0  0  0
  139.4715   75.1039  222.8884 H   0  0  0  0  0  0  0  0  0  0  0  0
  138.6828   77.6476  221.4762 H   0  0  0  0  0  0  0  0  0  0  0  0
  139.0669   77.3377  223.2411 H   0  0  0  0  0  0  0  0  0  0  0  0
  143.4546   80.3840  224.1923 H   0  0  0  0  0  0  0  0  0  0  0  0
  141.3922   81.9898  224.2902 H   0  0  0  0  0  0  0  0  0  0  0  0
  142.1832   77.3336  220.5328 H   0  0  0  0  0  0  0  0  0  0  0  0
  142.0005   75.9085  221.6164 H   0  0  0  0  0  0  0  0  0  0  0  0
  139.9158   76.7816  219.5262 H   0  0  0  0  0  0  0  0  0  0  0  0
  141.0862   75.4989  219.2454 H   0  0  0  0  0  0  0  0  0  0  0  0
  140.3181   72.6841  222.6090 H   0  0  0  0  0  0  0  0  0  0  0  0
  1  2  1  0
  2  3  2  0
  3  4  1  0
  4  5  2  0
  5  6  1  0
  6  7  2  0
  6  8  1  0
  8  9  1  0
  9 10  1  0
 10 11  2  0
 11 12  1  0
 12 13  2  0
 13 14  1  0
 14 15  1  0
 15 16  2  0
 15 17  1  0
 17 18  1  0
 18 19  1  0
 19 20  1  0
 20 21  1  0
 21 22  2  0
 22 23  1  0
 23 24  2  0
 24 25  1  0
 20 26  1  0
 26 27  1  0
 14 28  2  0
  9 29  2  0
  7  2  1  0
 28 10  1  0
 29  5  1  0
 27 17  1  0
 25 21  1  0
  1 30  1  0
  1 31  1  0
  1 32  1  0
  3 33  1  0
  4 34  1  0
  7 35  1  0
  8 36  1  0
  8 37  1  0
 11 38  1  0
 12 39  1  0
 13 40  1  0
 18 41  1  0
 18 42  1  0
 19 43  1  0
 19 44  1  0
 23 45  1  0
 24 46  1  0
 26 47  1  0
 26 48  1  0
 27 49  1  0
 27 50  1  0
 28 51  1  0
M  END
>  <smiles>  (10) 
Cc1ccc2c(c1)CC(c1cccc(C(=O)N3CCN(c4nccs4)CC3)c1)=N2

>  <score_type>  (10) 
oracle

>  <origin>  (10) 
autodockgpu

>  <m_score__min__energy>  (10) 
-8.0099999999999998

>  <m_primary>  (10) 
energy

>  <rmsd>  (10) 
3.6310888287190735

>  <m_score__min__rmsd>  (10) 
3.6310888287190735

>  <meeko>  (10) 
{"free_energy": -7.94, "intermolecular_energy": -8.84, "internal_energy": -0.8, "cluster_size": 47, "cluster_id": 1, "rank_in_cluster": 39}

>  <energy>  (10) 
-8.0

>  <cluster_rmsd>  (10) 
0.08

>  <cluster>  (10) 
1

$$$$

     RDKit          3D

 51 55  0  0  0  0  0  0  0  0999 V2000
  141.4320   67.8570  229.1150 C   0  0  0  0  0  0  0  0  0  0  0  0
  141.0520   68.8920  228.1270 C   0  0  0  0  0  0  0  0  0  0  0  0
  141.3920   70.2200  228.3590 C   0  0  0  0  0  0  0  0  0  0  0  0
  141.0130   71.1410  227.4100 C   0  0  0  0  0  0  0  0  0  0  0  0
  140.3230   70.8010  226.2650 C   0  0  0  0  0  0  0  0  0  0  0  0
  139.9930   69.4710  226.0510 C   0  0  0  0  0  0  0  0  0  0  0  0
  140.3700   68.5430  226.9990 C   0  0  0  0  0  0  0  0  0  0  0  0
  139.2510   69.3360  224.7570 C   0  0  0  0  0  0  0  0  0  0  0  0
  139.2210   70.7450  224.3090 C   0  0  0  0  0  0  0  0  0  0  0  0
  138.5990   71.2300  223.0840 C   0  0  0  0  0  0  0  0  0  0  0  0
  137.3830   70.7670  222.6600 C   0  0  0  0  0  0  0  0  0  0  0  0
  136.8090   71.2330  221.4910 C   0  0  0  0  0  0  0  0  0  0  0  0
  137.4490   72.1870  220.7120 C   0  0  0  0  0  0  0  0  0  0  0  0
  138.6640   72.6610  221.1220 C   0  0  0  0  0  0  0  0  0  0  0  0
  139.4480   73.6590  220.4070 C   0  0  0  0  0  0  0  0  0  0  0  0
  139.9780   73.2760  219.3270 O   0  0  0  0  0  0  0  0  0  0  0  0
  139.6240   74.9950  220.8760 N   0  0  0  0  0  0  0  0  0  0  0  0
  139.0530   75.5080  222.0870 C   0  0  0  0  0  0  0  0  0  0  0  0
  139.3610   76.9650  222.2710 C   0  0  0  0  0  0  0  0  0  0  0  0
  140.7360   77.3180  222.0070 N   0  0  0  0  0  0  0  0  0  0  0  0
  141.3230   78.4170  222.6820 C   0  0  0  0  0  0  0  0  0  0  0  0
  141.6400   78.7350  223.8220 N   0  0  0  0  0  0  0  0  0  0  0  0
  142.1950   79.8660  224.1730 C   0  0  0  0  0  0  0  0  0  0  0  0
  142.4410   80.7630  223.1980 C   0  0  0  0  0  0  0  0  0  0  0  0
  141.8290   79.8890  221.7270 S   0  0  0  0  0  0  0  0  0  0  0  0
  141.4470   76.5010  221.0330 C   0  0  0  0  0  0  0  0  0  0  0  0
  140.4530   75.8840  220.0460 C   0  0  0  0  0  0  0  0  0  0  0  0
  139.2330   72.1800  222.3060 C   0  0  0  0  0  0  0  0  0  0  0  0
  139.8140   71.5190  225.1490 N   0  0  0  0  0  0  0  0  0  0  0  0
  141.2876   68.2504  230.1321 H   0  0  0  0  0  0  0  0  0  0  0  0
  140.8023   66.9663  228.9735 H   0  0  0  0  0  0  0  0  0  0  0  0
  142.4885   67.5854  228.9735 H   0  0  0  0  0  0  0  0  0  0  0  0
  141.9409   70.5216  229.2633 H   0  0  0  0  0  0  0  0  0  0  0  0
  141.2722   72.1977  227.5718 H   0  0  0  0  0  0  0  0  0  0  0  0
  140.1118   67.4856  226.8398 H   0  0  0  0  0  0  0  0  0  0  0  0
  139.7920   68.6958  224.0446 H   0  0  0  0  0  0  0  0  0  0  0  0
  138.2613   68.8642  224.8456 H   0  0  0  0  0  0  0  0  0  0  0  0
  136.8532   70.0116  223.2589 H   0  0  0  0  0  0  0  0  0  0  0  0
  135.8310   70.8418  221.1740 H   0  0  0  0  0  0  0  0  0  0  0  0
  136.9878   72.5543  219.7833 H   0  0  0  0  0  0  0  0  0  0  0  0
  137.9615   75.3760  222.0506 H   0  0  0  0  0  0  0  0  0  0  0  0
  139.4884   74.9556  222.9328 H   0  0  0  0  0  0  0  0  0  0  0  0
  138.7197   77.5419  221.5884 H   0  0  0  0  0  0  0  0  0  0  0  0
  139.1734   77.1961  223.3300 H   0  0  0  0  0  0  0  0  0  0  0  0
  142.4507   80.0766  225.2219 H   0  0  0  0  0  0  0  0  0  0  0  0
  142.8938   81.7627  223.2729 H   0  0  0  0  0  0  0  0  0  0  0  0
  142.1639   77.1292  220.4840 H   0  0  0  0  0  0  0  0  0  0  0  0
  141.9832   75.6965  221.5576 H   0  0  0  0  0  0  0  0  0  0  0  0
  139.8370   76.6637  219.5741 H   0  0  0  0  0  0  0  0  0  0  0  0
  140.9521   75.3490  219.2246 H   0  0  0  0  0  0  0  0  0  0  0  0
  140.2111   72.5683  222.6262 H   0  0  0  0  0  0  0  0  0  0  0  0
  1  2  1  0
  2  3  2  0
  3  4  1  0
  4  5  2  0
  5  6  1  0
  6  7  2  0
  6  8  1  0
  8  9  1  0
  9 10  1  0
 10 11  2  0
 11 12  1  0
 12 13  2  0
 13 14  1  0
 14 15  1  0
 15 16  2  0
 15 17  1  0
 17 18  1  0
 18 19  1  0
 19 20  1  0
 20 21  1  0
 21 22  2  0
 22 23  1  0
 23 24  2  0
 24 25  1  0
 20 26  1  0
 26 27  1  0
 14 28  2  0
  9 29  2  0
  7  2  1  0
 28 10  1  0
 29  5  1  0
 27 17  1  0
 25 21  1  0
  1 30  1  0
  1 31  1  0
  1 32  1  0
  3 33  1  0
  4 34  1  0
  7 35  1  0
  8 36  1  0
  8 37  1  0
 11 38  1  0
 12 39  1  0
 13 40  1  0
 18 41  1  0
 18 42  1  0
 19 43  1  0
 19 44  1  0
 23 45  1  0
 24 46  1  0
 26 47  1  0
 26 48  1  0
 27 49  1  0
 27 50  1  0
 28 51  1  0
M  END
>  <smiles>  (11) 
Cc1ccc2c(c1)CC(c1cccc(C(=O)N3CCN(c4nccs4)CC3)c1)=N2

>  <score_type>  (11) 
oracle

>  <origin>  (11) 
autodockgpu

>  <m_score__min__energy>  (11) 
-8.0099999999999998

>  <m_primary>  (11) 
energy

>  <rmsd>  (11) 
3.5792865408996892

>  <m_score__min__rmsd>  (11) 
3.5792865408996892

>  <meeko>  (11) 
{"free_energy": -8.01, "intermolecular_energy": -8.9, "internal_energy": -0.8, "cluster_size": 47, "cluster_id": 1, "rank_in_cluster": 4}

>  <energy>  (11) 
-8.0

>  <cluster_rmsd>  (11) 
0.11

>  <cluster>  (11) 
1

$$$$

     RDKit          3D

 51 55  0  0  0  0  0  0  0  0999 V2000
  141.4350   67.8850  229.0990 C   0  0  0  0  0  0  0  0  0  0  0  0
  141.0560   68.9140  228.1050 C   0  0  0  0  0  0  0  0  0  0  0  0
  141.3980   70.2430  228.3270 C   0  0  0  0  0  0  0  0  0  0  0  0
  141.0200   71.1570  227.3710 C   0  0  0  0  0  0  0  0  0  0  0  0
  140.3290   70.8110  226.2300 C   0  0  0  0  0  0  0  0  0  0  0  0
  139.9970   69.4800  226.0240 C   0  0  0  0  0  0  0  0  0  0  0  0
  140.3740   68.5580  226.9790 C   0  0  0  0  0  0  0  0  0  0  0  0
  139.2540   69.3370  224.7320 C   0  0  0  0  0  0  0  0  0  0  0  0
  139.2270   70.7430  224.2740 C   0  0  0  0  0  0  0  0  0  0  0  0
  138.6050   71.2200  223.0470 C   0  0  0  0  0  0  0  0  0  0  0  0
  137.3940   70.7450  222.6180 C   0  0  0  0  0  0  0  0  0  0  0  0
  136.8210   71.2050  221.4460 C   0  0  0  0  0  0  0  0  0  0  0  0
  137.4550   72.1630  220.6680 C   0  0  0  0  0  0  0  0  0  0  0  0
  138.6640   72.6490  221.0820 C   0  0  0  0  0  0  0  0  0  0  0  0
  139.4420   73.6520  220.3680 C   0  0  0  0  0  0  0  0  0  0  0  0
  139.9630   73.2790  219.2810 O   0  0  0  0  0  0  0  0  0  0  0  0
  139.6210   74.9850  220.8460 N   0  0  0  0  0  0  0  0  0  0  0  0
  139.0600   75.4890  222.0650 C   0  0  0  0  0  0  0  0  0  0  0  0
  139.3690   76.9440  222.2580 C   0  0  0  0  0  0  0  0  0  0  0  0
  140.7420   77.3000  221.9860 N   0  0  0  0  0  0  0  0  0  0  0  0
  141.3340   78.3930  222.6640 C   0  0  0  0  0  0  0  0  0  0  0  0
  141.6410   78.7120  223.8070 N   0  0  0  0  0  0  0  0  0  0  0  0
  142.2050   79.8370  224.1610 C   0  0  0  0  0  0  0  0  0  0  0  0
  142.4740   80.7270  223.1860 C   0  0  0  0  0  0  0  0  0  0  0  0
  141.8690   79.8560  221.7100 S   0  0  0  0  0  0  0  0  0  0  0  0
  141.4450   76.4910  220.9990 C   0  0  0  0  0  0  0  0  0  0  0  0
  140.4430   75.8800  220.0160 C   0  0  0  0  0  0  0  0  0  0  0  0
  139.2330   72.1740  222.2690 C   0  0  0  0  0  0  0  0  0  0  0  0
  139.8210   71.5220  225.1090 N   0  0  0  0  0  0  0  0  0  0  0  0
  141.2882   68.2837  230.1136 H   0  0  0  0  0  0  0  0  0  0  0  0
  140.8065   66.9929  228.9611 H   0  0  0  0  0  0  0  0  0  0  0  0
  142.4921   67.6137  228.9611 H   0  0  0  0  0  0  0  0  0  0  0  0
  141.9475   70.5507  229.2288 H   0  0  0  0  0  0  0  0  0  0  0  0
  141.2817   72.2143  227.5246 H   0  0  0  0  0  0  0  0  0  0  0  0
  140.1156   67.4997  226.8268 H   0  0  0  0  0  0  0  0  0  0  0  0
  139.7930   68.6904  224.0239 H   0  0  0  0  0  0  0  0  0  0  0  0
  138.2633   68.8679  224.8246 H   0  0  0  0  0  0  0  0  0  0  0  0
  136.8685   69.9853  223.2152 H   0  0  0  0  0  0  0  0  0  0  0  0
  135.8476   70.8051  221.1259 H   0  0  0  0  0  0  0  0  0  0  0  0
  136.9942   72.5243  219.7368 H   0  0  0  0  0  0  0  0  0  0  0  0
  137.9683   75.3572  222.0363 H   0  0  0  0  0  0  0  0  0  0  0  0
  139.5026   74.9304  222.9029 H   0  0  0  0  0  0  0  0  0  0  0  0
  138.7222   77.5260  221.5850 H   0  0  0  0  0  0  0  0  0  0  0  0
  139.1899   77.1664  223.3203 H   0  0  0  0  0  0  0  0  0  0  0  0
  142.4500   80.0484  225.2123 H   0  0  0  0  0  0  0  0  0  0  0  0
  142.9385   81.7211  223.2631 H   0  0  0  0  0  0  0  0  0  0  0  0
  142.1562   77.1242  220.4483 H   0  0  0  0  0  0  0  0  0  0  0  0
  141.9866   75.6831  221.5128 H   0  0  0  0  0  0  0  0  0  0  0  0
  139.8229   76.6626  219.5545 H   0  0  0  0  0  0  0  0  0  0  0  0
  140.9359   75.3506  219.1872 H   0  0  0  0  0  0  0  0  0  0  0  0
  140.2069   72.5709  222.5916 H   0  0  0  0  0  0  0  0  0  0  0  0
  1  2  1  0
  2  3  2  0
  3  4  1  0
  4  5  2  0
  5  6  1  0
  6  7  2  0
  6  8  1  0
  8  9  1  0
  9 10  1  0
 10 11  2  0
 11 12  1  0
 12 13  2  0
 13 14  1  0
 14 15  1  0
 15 16  2  0
 15 17  1  0
 17 18  1  0
 18 19  1  0
 19 20  1  0
 20 21  1  0
 21 22  2  0
 22 23  1  0
 23 24  2  0
 24 25  1  0
 20 26  1  0
 26 27  1  0
 14 28  2  0
  9 29  2  0
  7  2  1  0
 28 10  1  0
 29  5  1  0
 27 17  1  0
 25 21  1  0
  1 30  1  0
  1 31  1  0
  1 32  1  0
  3 33  1  0
  4 34  1  0
  7 35  1  0
  8 36  1  0
  8 37  1  0
 11 38  1  0
 12 39  1  0
 13 40  1  0
 18 41  1  0
 18 42  1  0
 19 43  1  0
 19 44  1  0
 23 45  1  0
 24 46  1  0
 26 47  1  0
 26 48  1  0
 27 49  1  0
 27 50  1  0
 28 51  1  0
M  END
>  <smiles>  (12) 
Cc1ccc2c(c1)CC(c1cccc(C(=O)N3CCN(c4nccs4)CC3)c1)=N2

>  <score_type>  (12) 
oracle

>  <origin>  (12) 
autodockgpu

>  <m_score__min__energy>  (12) 
-8.0099999999999998

>  <m_primary>  (12) 
energy

>  <rmsd>  (12) 
3.5765027110645247

>  <m_score__min__rmsd>  (12) 
3.5765027110645247

>  <meeko>  (12) 
{"free_energy": -8.01, "intermolecular_energy": -8.9, "internal_energy": -0.8, "cluster_size": 47, "cluster_id": 1, "rank_in_cluster": 7}

>  <energy>  (12) 
-8.0

>  <cluster_rmsd>  (12) 
0.05

>  <cluster>  (12) 
1

$$$$

     RDKit          3D

 51 55  0  0  0  0  0  0  0  0999 V2000
  141.4440   67.8050  229.0720 C   0  0  0  0  0  0  0  0  0  0  0  0
  141.0620   68.8510  228.0970 C   0  0  0  0  0  0  0  0  0  0  0  0
  141.4130   70.1750  228.3370 C   0  0  0  0  0  0  0  0  0  0  0  0
  141.0310   71.1060  227.4000 C   0  0  0  0  0  0  0  0  0  0  0  0
  140.3290   70.7810  226.2590 C   0  0  0  0  0  0  0  0  0  0  0  0
  139.9870   69.4560  226.0360 C   0  0  0  0  0  0  0  0  0  0  0  0
  140.3670   68.5160  226.9730 C   0  0  0  0  0  0  0  0  0  0  0  0
  139.2320   69.3370  224.7480 C   0  0  0  0  0  0  0  0  0  0  0  0
  139.2090   70.7490  224.3120 C   0  0  0  0  0  0  0  0  0  0  0  0
  138.5790   71.2500  223.0980 C   0  0  0  0  0  0  0  0  0  0  0  0
  137.3410   70.8210  222.6970 C   0  0  0  0  0  0  0  0  0  0  0  0
  136.7600   71.3010  221.5370 C   0  0  0  0  0  0  0  0  0  0  0  0
  137.4130   72.2330  220.7440 C   0  0  0  0  0  0  0  0  0  0  0  0
  138.6490   72.6730  221.1300 C   0  0  0  0  0  0  0  0  0  0  0  0
  139.4480   73.6460  220.3970 C   0  0  0  0  0  0  0  0  0  0  0  0
  139.9900   73.2300  219.3360 O   0  0  0  0  0  0  0  0  0  0  0  0
  139.6260   74.9940  220.8320 N   0  0  0  0  0  0  0  0  0  0  0  0
  139.0430   75.5440  222.0200 C   0  0  0  0  0  0  0  0  0  0  0  0
  139.3580   77.0030  222.1670 C   0  0  0  0  0  0  0  0  0  0  0  0
  140.7380   77.3410  221.9120 N   0  0  0  0  0  0  0  0  0  0  0  0
  141.3240   78.4540  222.5630 C   0  0  0  0  0  0  0  0  0  0  0  0
  141.6480   78.7940  223.6950 N   0  0  0  0  0  0  0  0  0  0  0  0
  142.1980   79.9340  224.0230 C   0  0  0  0  0  0  0  0  0  0  0  0
  142.4300   80.8160  223.0310 C   0  0  0  0  0  0  0  0  0  0  0  0
  141.8110   79.9140  221.5790 S   0  0  0  0  0  0  0  0  0  0  0  0
  141.4560   76.4930  220.9700 C   0  0  0  0  0  0  0  0  0  0  0  0
  140.4710   75.8540  219.9880 C   0  0  0  0  0  0  0  0  0  0  0  0
  139.2250   72.1780  222.3050 C   0  0  0  0  0  0  0  0  0  0  0  0
  139.8140   71.5120  225.1530 N   0  0  0  0  0  0  0  0  0  0  0  0
  141.3043   68.1876  230.0938 H   0  0  0  0  0  0  0  0  0  0  0  0
  140.8122   66.9169  228.9234 H   0  0  0  0  0  0  0  0  0  0  0  0
  142.4995   67.5331  228.9234 H   0  0  0  0  0  0  0  0  0  0  0  0
  141.9726   70.4653  229.2384 H   0  0  0  0  0  0  0  0  0  0  0  0
  141.2981   72.1596  227.5688 H   0  0  0  0  0  0  0  0  0  0  0  0
  140.1002   67.4618  226.8072 H   0  0  0  0  0  0  0  0  0  0  0  0
  139.7613   68.6983  224.0255 H   0  0  0  0  0  0  0  0  0  0  0  0
  138.2395   68.8721  224.8420 H   0  0  0  0  0  0  0  0  0  0  0  0
  136.8003   70.0828  223.3075 H   0  0  0  0  0  0  0  0  0  0  0  0
  135.7652   70.9381  221.2390 H   0  0  0  0  0  0  0  0  0  0  0  0
  136.9458   72.6109  219.8226 H   0  0  0  0  0  0  0  0  0  0  0  0
  137.9513   75.4178  221.9730 H   0  0  0  0  0  0  0  0  0  0  0  0
  139.4637   75.0129  222.8866 H   0  0  0  0  0  0  0  0  0  0  0  0
  138.7295   77.5642  221.4599 H   0  0  0  0  0  0  0  0  0  0  0  0
  139.1583   77.2644  223.2167 H   0  0  0  0  0  0  0  0  0  0  0  0
  142.4606   80.1637  225.0662 H   0  0  0  0  0  0  0  0  0  0  0  0
  142.8771   81.8196  223.0855 H   0  0  0  0  0  0  0  0  0  0  0  0
  142.1834   77.1015  220.4127 H   0  0  0  0  0  0  0  0  0  0  0  0
  141.9806   75.7004  221.5237 H   0  0  0  0  0  0  0  0  0  0  0  0
  139.8660   76.6235  219.4862 H   0  0  0  0  0  0  0  0  0  0  0  0
  140.9773   75.2929  219.1887 H   0  0  0  0  0  0  0  0  0  0  0  0
  140.2200   72.5379  222.6055 H   0  0  0  0  0  0  0  0  0  0  0  0
  1  2  1  0
  2  3  2  0
  3  4  1  0
  4  5  2  0
  5  6  1  0
  6  7  2  0
  6  8  1  0
  8  9  1  0
  9 10  1  0
 10 11  2  0
 11 12  1  0
 12 13  2  0
 13 14  1  0
 14 15  1  0
 15 16  2  0
 15 17  1  0
 17 18  1  0
 18 19  1  0
 19 20  1  0
 20 21  1  0
 21 22  2  0
 22 23  1  0
 23 24  2  0
 24 25  1  0
 20 26  1  0
 26 27  1  0
 14 28  2  0
  9 29  2  0
  7  2  1  0
 28 10  1  0
 29  5  1  0
 27 17  1  0
 25 21  1  0
  1 30  1  0
  1 31  1  0
  1 32  1  0
  3 33  1  0
  4 34  1  0
  7 35  1  0
  8 36  1  0
  8 37  1  0
 11 38  1  0
 12 39  1  0
 13 40  1  0
 18 41  1  0
 18 42  1  0
 19 43  1  0
 19 44  1  0
 23 45  1  0
 24 46  1  0
 26 47  1  0
 26 48  1  0
 27 49  1  0
 27 50  1  0
 28 51  1  0
M  END
>  <smiles>  (13) 
Cc1ccc2c(c1)CC(c1cccc(C(=O)N3CCN(c4nccs4)CC3)c1)=N2

>  <score_type>  (13) 
oracle

>  <origin>  (13) 
autodockgpu

>  <m_score__min__energy>  (13) 
-8.0099999999999998

>  <m_primary>  (13) 
energy

>  <rmsd>  (13) 
3.5755321185056164

>  <m_score__min__rmsd>  (13) 
3.5755321185056164

>  <meeko>  (13) 
{"free_energy": -8.0, "intermolecular_energy": -8.9, "internal_energy": -0.8, "cluster_size": 47, "cluster_id": 1, "rank_in_cluster": 8}

>  <energy>  (13) 
-8.0

>  <cluster_rmsd>  (13) 
0.07

>  <cluster>  (13) 
1

$$$$

     RDKit          3D

 51 55  0  0  0  0  0  0  0  0999 V2000
  141.4550   67.8140  229.0930 C   0  0  0  0  0  0  0  0  0  0  0  0
  141.0760   68.8590  228.1160 C   0  0  0  0  0  0  0  0  0  0  0  0
  141.4400   70.1810  228.3480 C   0  0  0  0  0  0  0  0  0  0  0  0
  141.0610   71.1110  227.4080 C   0  0  0  0  0  0  0  0  0  0  0  0
  140.3490   70.7870  226.2730 C   0  0  0  0  0  0  0  0  0  0  0  0
  139.9950   69.4630  226.0580 C   0  0  0  0  0  0  0  0  0  0  0  0
  140.3720   68.5250  226.9970 C   0  0  0  0  0  0  0  0  0  0  0  0
  139.2310   69.3450  224.7750 C   0  0  0  0  0  0  0  0  0  0  0  0
  139.2170   70.7560  224.3330 C   0  0  0  0  0  0  0  0  0  0  0  0
  138.5840   71.2560  223.1200 C   0  0  0  0  0  0  0  0  0  0  0  0
  137.3490   70.8210  222.7180 C   0  0  0  0  0  0  0  0  0  0  0  0
  136.7650   71.3010  221.5600 C   0  0  0  0  0  0  0  0  0  0  0  0
  137.4130   72.2400  220.7690 C   0  0  0  0  0  0  0  0  0  0  0  0
  138.6460   72.6860  221.1570 C   0  0  0  0  0  0  0  0  0  0  0  0
  139.4400   73.6650  220.4270 C   0  0  0  0  0  0  0  0  0  0  0  0
  139.9800   73.2570  219.3620 O   0  0  0  0  0  0  0  0  0  0  0  0
  139.6140   75.0110  220.8680 N   0  0  0  0  0  0  0  0  0  0  0  0
  139.0310   75.5530  222.0600 C   0  0  0  0  0  0  0  0  0  0  0  0
  139.3410   77.0130  222.2140 C   0  0  0  0  0  0  0  0  0  0  0  0
  140.7190   77.3570  221.9560 N   0  0  0  0  0  0  0  0  0  0  0  0
  141.3020   78.4700  222.6120 C   0  0  0  0  0  0  0  0  0  0  0  0
  141.6240   78.8060  223.7450 N   0  0  0  0  0  0  0  0  0  0  0  0
  142.1720   79.9470  224.0770 C   0  0  0  0  0  0  0  0  0  0  0  0
  142.4030   80.8320  223.0880 C   0  0  0  0  0  0  0  0  0  0  0  0
  141.7880   79.9340  221.6330 S   0  0  0  0  0  0  0  0  0  0  0  0
  141.4380   76.5160  221.0090 C   0  0  0  0  0  0  0  0  0  0  0  0
  140.4530   75.8790  220.0260 C   0  0  0  0  0  0  0  0  0  0  0  0
  139.2250   72.1910  222.3310 C   0  0  0  0  0  0  0  0  0  0  0  0
  139.8340   71.5170  225.1670 N   0  0  0  0  0  0  0  0  0  0  0  0
  141.3155   68.1987  230.1140 H   0  0  0  0  0  0  0  0  0  0  0  0
  140.8213   66.9271  228.9456 H   0  0  0  0  0  0  0  0  0  0  0  0
  142.5099   67.5395  228.9456 H   0  0  0  0  0  0  0  0  0  0  0  0
  142.0069   70.4707  229.2451 H   0  0  0  0  0  0  0  0  0  0  0  0
  141.3392   72.1629  227.5697 H   0  0  0  0  0  0  0  0  0  0  0  0
  140.0953   67.4724  226.8376 H   0  0  0  0  0  0  0  0  0  0  0  0
  139.7505   68.6990  224.0520 H   0  0  0  0  0  0  0  0  0  0  0  0
  138.2353   68.8888  224.8770 H   0  0  0  0  0  0  0  0  0  0  0  0
  136.8129   70.0776  223.3263 H   0  0  0  0  0  0  0  0  0  0  0  0
  135.7723   70.9333  221.2612 H   0  0  0  0  0  0  0  0  0  0  0  0
  136.9439   72.6177  219.8485 H   0  0  0  0  0  0  0  0  0  0  0  0
  137.9397   75.4230  222.0142 H   0  0  0  0  0  0  0  0  0  0  0  0
  139.4553   75.0191  222.9231 H   0  0  0  0  0  0  0  0  0  0  0  0
  138.7080   77.5757  221.5121 H   0  0  0  0  0  0  0  0  0  0  0  0
  139.1437   77.2682  223.2656 H   0  0  0  0  0  0  0  0  0  0  0  0
  142.4334   80.1742  225.1211 H   0  0  0  0  0  0  0  0  0  0  0  0
  142.8479   81.8363  223.1461 H   0  0  0  0  0  0  0  0  0  0  0  0
  142.1625   77.1294  220.4534 H   0  0  0  0  0  0  0  0  0  0  0  0
  141.9663   75.7225  221.5578 H   0  0  0  0  0  0  0  0  0  0  0  0
  139.8435   76.6489  219.5302 H   0  0  0  0  0  0  0  0  0  0  0  0
  140.9590   75.3247  219.2218 H   0  0  0  0  0  0  0  0  0  0  0  0
  140.2174   72.5565  222.6336 H   0  0  0  0  0  0  0  0  0  0  0  0
  1  2  1  0
  2  3  2  0
  3  4  1  0
  4  5  2  0
  5  6  1  0
  6  7  2  0
  6  8  1  0
  8  9  1  0
  9 10  1  0
 10 11  2  0
 11 12  1  0
 12 13  2  0
 13 14  1  0
 14 15  1  0
 15 16  2  0
 15 17  1  0
 17 18  1  0
 18 19  1  0
 19 20  1  0
 20 21  1  0
 21 22  2  0
 22 23  1  0
 23 24  2  0
 24 25  1  0
 20 26  1  0
 26 27  1  0
 14 28  2  0
  9 29  2  0
  7  2  1  0
 28 10  1  0
 29  5  1  0
 27 17  1  0
 25 21  1  0
  1 30  1  0
  1 31  1  0
  1 32  1  0
  3 33  1  0
  4 34  1  0
  7 35  1  0
  8 36  1  0
  8 37  1  0
 11 38  1  0
 12 39  1  0
 13 40  1  0
 18 41  1  0
 18 42  1  0
 19 43  1  0
 19 44  1  0
 23 45  1  0
 24 46  1  0
 26 47  1  0
 26 48  1  0
 27 49  1  0
 27 50  1  0
 28 51  1  0
M  END
>  <smiles>  (14) 
Cc1ccc2c(c1)CC(c1cccc(C(=O)N3CCN(c4nccs4)CC3)c1)=N2

>  <score_type>  (14) 
oracle

>  <origin>  (14) 
autodockgpu

>  <m_score__min__energy>  (14) 
-8.0099999999999998

>  <m_primary>  (14) 
energy

>  <rmsd>  (14) 
3.578903405774282

>  <m_score__min__rmsd>  (14) 
3.578903405774282

>  <meeko>  (14) 
{"free_energy": -8.01, "intermolecular_energy": -8.91, "internal_energy": -0.8, "cluster_size": 47, "cluster_id": 1, "rank_in_cluster": 1}

>  <energy>  (14) 
-7.99

>  <cluster_rmsd>  (14) 
0.08

>  <cluster>  (14) 
1

$$$$

     RDKit          3D

 51 55  0  0  0  0  0  0  0  0999 V2000
  141.4470   67.8720  229.1120 C   0  0  0  0  0  0  0  0  0  0  0  0
  141.0690   68.9050  228.1220 C   0  0  0  0  0  0  0  0  0  0  0  0
  141.4160   70.2330  228.3470 C   0  0  0  0  0  0  0  0  0  0  0  0
  141.0380   71.1510  227.3950 C   0  0  0  0  0  0  0  0  0  0  0  0
  140.3440   70.8100  226.2540 C   0  0  0  0  0  0  0  0  0  0  0  0
  140.0080   69.4810  226.0450 C   0  0  0  0  0  0  0  0  0  0  0  0
  140.3830   68.5540  226.9970 C   0  0  0  0  0  0  0  0  0  0  0  0
  139.2620   69.3440  224.7540 C   0  0  0  0  0  0  0  0  0  0  0  0
  139.2380   70.7510  224.3000 C   0  0  0  0  0  0  0  0  0  0  0  0
  138.6150   71.2340  223.0750 C   0  0  0  0  0  0  0  0  0  0  0  0
  137.3990   70.7690  222.6510 C   0  0  0  0  0  0  0  0  0  0  0  0
  136.8240   71.2340  221.4820 C   0  0  0  0  0  0  0  0  0  0  0  0
  137.4630   72.1870  220.7020 C   0  0  0  0  0  0  0  0  0  0  0  0
  138.6780   72.6640  221.1120 C   0  0  0  0  0  0  0  0  0  0  0  0
  139.4610   73.6610  220.3950 C   0  0  0  0  0  0  0  0  0  0  0  0
  139.9880   73.2790  219.3140 O   0  0  0  0  0  0  0  0  0  0  0  0
  139.6380   74.9970  220.8650 N   0  0  0  0  0  0  0  0  0  0  0  0
  139.0700   75.5100  222.0770 C   0  0  0  0  0  0  0  0  0  0  0  0
  139.3790   76.9660  222.2610 C   0  0  0  0  0  0  0  0  0  0  0  0
  140.7540   77.3190  221.9950 N   0  0  0  0  0  0  0  0  0  0  0  0
  141.3440   78.4170  222.6690 C   0  0  0  0  0  0  0  0  0  0  0  0
  141.6620   78.7340  223.8090 N   0  0  0  0  0  0  0  0  0  0  0  0
  142.2180   79.8650  224.1600 C   0  0  0  0  0  0  0  0  0  0  0  0
  142.4640   80.7610  223.1840 C   0  0  0  0  0  0  0  0  0  0  0  0
  141.8490   79.8890  221.7130 S   0  0  0  0  0  0  0  0  0  0  0  0
  141.4620   76.5020  221.0180 C   0  0  0  0  0  0  0  0  0  0  0  0
  140.4650   75.8860  220.0330 C   0  0  0  0  0  0  0  0  0  0  0  0
  139.2470   72.1840  222.2960 C   0  0  0  0  0  0  0  0  0  0  0  0
  139.8360   71.5260  225.1360 N   0  0  0  0  0  0  0  0  0  0  0  0
  141.3022   68.2676  230.1281 H   0  0  0  0  0  0  0  0  0  0  0  0
  140.8164   66.9816  228.9719 H   0  0  0  0  0  0  0  0  0  0  0  0
  142.5033   67.5989  228.9719 H   0  0  0  0  0  0  0  0  0  0  0  0
  141.9693   70.5362  229.2481 H   0  0  0  0  0  0  0  0  0  0  0  0
  141.3020   72.2073  227.5517 H   0  0  0  0  0  0  0  0  0  0  0  0
  140.1196   67.4972  226.8428 H   0  0  0  0  0  0  0  0  0  0  0  0
  139.7977   68.6979  224.0430 H   0  0  0  0  0  0  0  0  0  0  0  0
  138.2701   68.8776  224.8473 H   0  0  0  0  0  0  0  0  0  0  0  0
  136.8704   70.0129  223.2501 H   0  0  0  0  0  0  0  0  0  0  0  0
  135.8458   70.8425  221.1662 H   0  0  0  0  0  0  0  0  0  0  0  0
  137.0019   72.5518  219.7723 H   0  0  0  0  0  0  0  0  0  0  0  0
  137.9784   75.3787  222.0427 H   0  0  0  0  0  0  0  0  0  0  0  0
  139.5070   74.9571  222.9216 H   0  0  0  0  0  0  0  0  0  0  0  0
  138.7369   77.5434  221.5797 H   0  0  0  0  0  0  0  0  0  0  0  0
  139.1934   77.1964  223.3205 H   0  0  0  0  0  0  0  0  0  0  0  0
  142.4742   80.0759  225.2088 H   0  0  0  0  0  0  0  0  0  0  0  0
  142.9186   81.7599  223.2583 H   0  0  0  0  0  0  0  0  0  0  0  0
  142.1777   77.1302  220.4675 H   0  0  0  0  0  0  0  0  0  0  0  0
  141.9991   75.6968  221.5406 H   0  0  0  0  0  0  0  0  0  0  0  0
  139.8481   76.6662  219.5632 H   0  0  0  0  0  0  0  0  0  0  0  0
  140.9615   75.3514  219.2098 H   0  0  0  0  0  0  0  0  0  0  0  0
  140.2247   72.5736  222.6158 H   0  0  0  0  0  0  0  0  0  0  0  0
  1  2  1  0
  2  3  2  0
  3  4  1  0
  4  5  2  0
  5  6  1  0
  6  7  2  0
  6  8  1  0
  8  9  1  0
  9 10  1  0
 10 11  2  0
 11 12  1  0
 12 13  2  0
 13 14  1  0
 14 15  1  0
 15 16  2  0
 15 17  1  0
 17 18  1  0
 18 19  1  0
 19 20  1  0
 20 21  1  0
 21 22  2  0
 22 23  1  0
 23 24  2  0
 24 25  1  0
 20 26  1  0
 26 27  1  0
 14 28  2  0
  9 29  2  0
  7  2  1  0
 28 10  1  0
 29  5  1  0
 27 17  1  0
 25 21  1  0
  1 30  1  0
  1 31  1  0
  1 32  1  0
  3 33  1  0
  4 34  1  0
  7 35  1  0
  8 36  1  0
  8 37  1  0
 11 38  1  0
 12 39  1  0
 13 40  1  0
 18 41  1  0
 18 42  1  0
 19 43  1  0
 19 44  1  0
 23 45  1  0
 24 46  1  0
 26 47  1  0
 26 48  1  0
 27 49  1  0
 27 50  1  0
 28 51  1  0
M  END
>  <smiles>  (15) 
Cc1ccc2c(c1)CC(c1cccc(C(=O)N3CCN(c4nccs4)CC3)c1)=N2

>  <score_type>  (15) 
oracle

>  <origin>  (15) 
autodockgpu

>  <m_score__min__energy>  (15) 
-8.0099999999999998

>  <m_primary>  (15) 
energy

>  <rmsd>  (15) 
3.579040330626691

>  <m_score__min__rmsd>  (15) 
3.579040330626691

>  <meeko>  (15) 
{"free_energy": -8.01, "intermolecular_energy": -8.9, "internal_energy": -0.8, "cluster_size": 47, "cluster_id": 1, "rank_in_cluster": 6}

>  <energy>  (15) 
-7.99

>  <cluster_rmsd>  (15) 
0.05

>  <cluster>  (15) 
1

$$$$

     RDKit          3D

 51 55  0  0  0  0  0  0  0  0999 V2000
  141.3980   68.1200  229.0970 C   0  0  0  0  0  0  0  0  0  0  0  0
  141.0630   69.1560  228.0950 C   0  0  0  0  0  0  0  0  0  0  0  0
  141.3950   70.4830  228.3410 C   0  0  0  0  0  0  0  0  0  0  0  0
  141.0600   71.4040  227.3760 C   0  0  0  0  0  0  0  0  0  0  0  0
  140.4190   71.0660  226.2030 C   0  0  0  0  0  0  0  0  0  0  0  0
  140.0960   69.7370  225.9740 C   0  0  0  0  0  0  0  0  0  0  0  0
  140.4300   68.8080  226.9380 C   0  0  0  0  0  0  0  0  0  0  0  0
  139.4100   69.6040  224.6500 C   0  0  0  0  0  0  0  0  0  0  0  0
  139.4030   71.0130  224.2000 C   0  0  0  0  0  0  0  0  0  0  0  0
  138.8360   71.4990  222.9510 C   0  0  0  0  0  0  0  0  0  0  0  0
  137.6100   71.0820  222.5030 C   0  0  0  0  0  0  0  0  0  0  0  0
  137.0890   71.5500  221.3100 C   0  0  0  0  0  0  0  0  0  0  0  0
  137.7920   72.4560  220.5300 C   0  0  0  0  0  0  0  0  0  0  0  0
  139.0160   72.8840  220.9620 C   0  0  0  0  0  0  0  0  0  0  0  0
  139.8630   73.8290  220.2480 C   0  0  0  0  0  0  0  0  0  0  0  0
  140.4840   73.3720  219.2490 O   0  0  0  0  0  0  0  0  0  0  0  0
  140.0020   75.1970  220.6340 N   0  0  0  0  0  0  0  0  0  0  0  0
  139.3300   75.7940  221.7500 C   0  0  0  0  0  0  0  0  0  0  0  0
  139.6260   77.2610  221.8550 C   0  0  0  0  0  0  0  0  0  0  0  0
  141.0200   77.5980  221.6870 N   0  0  0  0  0  0  0  0  0  0  0  0
  141.5510   78.7430  222.3300 C   0  0  0  0  0  0  0  0  0  0  0  0
  142.5890   79.3940  222.3430 N   0  0  0  0  0  0  0  0  0  0  0  0
  142.8130   80.4610  223.0660 C   0  0  0  0  0  0  0  0  0  0  0  0
  141.8170   80.8840  223.8680 C   0  0  0  0  0  0  0  0  0  0  0  0
  140.5200   79.6570  223.5290 S   0  0  0  0  0  0  0  0  0  0  0  0
  141.8100   76.7150  220.8400 C   0  0  0  0  0  0  0  0  0  0  0  0
  140.9030   76.0250  219.8170 C   0  0  0  0  0  0  0  0  0  0  0  0
  139.5320   72.4020  222.1710 C   0  0  0  0  0  0  0  0  0  0  0  0
  139.9600   71.7850  225.0660 N   0  0  0  0  0  0  0  0  0  0  0  0
  141.2649   68.5315  230.1084 H   0  0  0  0  0  0  0  0  0  0  0  0
  140.7345   67.2528  228.9637 H   0  0  0  0  0  0  0  0  0  0  0  0
  142.4436   67.8055  228.9637 H   0  0  0  0  0  0  0  0  0  0  0  0
  141.9042   70.7840  229.2684 H   0  0  0  0  0  0  0  0  0  0  0  0
  141.3155   72.4600  227.5482 H   0  0  0  0  0  0  0  0  0  0  0  0
  140.1772   67.7511  226.7677 H   0  0  0  0  0  0  0  0  0  0  0  0
  139.9791   68.9618  223.9617 H   0  0  0  0  0  0  0  0  0  0  0  0
  138.4159   69.1354  224.6967 H   0  0  0  0  0  0  0  0  0  0  0  0
  137.0308   70.3636  223.1016 H   0  0  0  0  0  0  0  0  0  0  0  0
  136.1021   71.1982  220.9749 H   0  0  0  0  0  0  0  0  0  0  0  0
  137.3725   72.8231  219.5817 H   0  0  0  0  0  0  0  0  0  0  0  0
  138.2454   75.6569  221.6282 H   0  0  0  0  0  0  0  0  0  0  0  0
  139.6881   75.3050  222.6680 H   0  0  0  0  0  0  0  0  0  0  0  0
  139.0486   77.7856  221.0795 H   0  0  0  0  0  0  0  0  0  0  0  0
  139.3479   77.5670  222.8743 H   0  0  0  0  0  0  0  0  0  0  0  0
  143.7757   80.9912  223.0208 H   0  0  0  0  0  0  0  0  0  0  0  0
  141.7945   81.7468  224.5500 H   0  0  0  0  0  0  0  0  0  0  0  0
  142.5740   77.3040  220.3114 H   0  0  0  0  0  0  0  0  0  0  0  0
  142.2959   75.9520  221.4659 H   0  0  0  0  0  0  0  0  0  0  0  0
  140.3333   76.7666  219.2378 H   0  0  0  0  0  0  0  0  0  0  0  0
  141.4696   75.4330  219.0832 H   0  0  0  0  0  0  0  0  0  0  0  0
  140.5186   72.7519  222.5090 H   0  0  0  0  0  0  0  0  0  0  0  0
  1  2  1  0
  2  3  2  0
  3  4  1  0
  4  5  2  0
  5  6  1  0
  6  7  2  0
  6  8  1  0
  8  9  1  0
  9 10  1  0
 10 11  2  0
 11 12  1  0
 12 13  2  0
 13 14  1  0
 14 15  1  0
 15 16  2  0
 15 17  1  0
 17 18  1  0
 18 19  1  0
 19 20  1  0
 20 21  1  0
 21 22  2  0
 22 23  1  0
 23 24  2  0
 24 25  1  0
 20 26  1  0
 26 27  1  0
 14 28  2  0
  9 29  2  0
  7  2  1  0
 28 10  1  0
 29  5  1  0
 27 17  1  0
 25 21  1  0
  1 30  1  0
  1 31  1  0
  1 32  1  0
  3 33  1  0
  4 34  1  0
  7 35  1  0
  8 36  1  0
  8 37  1  0
 11 38  1  0
 12 39  1  0
 13 40  1  0
 18 41  1  0
 18 42  1  0
 19 43  1  0
 19 44  1  0
 23 45  1  0
 24 46  1  0
 26 47  1  0
 26 48  1  0
 27 49  1  0
 27 50  1  0
 28 51  1  0
M  END
>  <smiles>  (16) 
Cc1ccc2c(c1)CC(c1cccc(C(=O)N3CCN(c4nccs4)CC3)c1)=N2

>  <score_type>  (16) 
oracle

>  <origin>  (16) 
autodockgpu

>  <m_score__min__energy>  (16) 
-8.0099999999999998

>  <m_primary>  (16) 
energy

>  <rmsd>  (16) 
3.7021574954645304

>  <m_score__min__rmsd>  (16) 
3.7021574954645304

>  <meeko>  (16) 
{"free_energy": -7.96, "intermolecular_energy": -8.85, "internal_energy": -0.81, "cluster_size": 47, "cluster_id": 1, "rank_in_cluster": 33}

>  <energy>  (16) 
-7.99

>  <cluster_rmsd>  (16) 
0.13

>  <cluster>  (16) 
1

$$$$

     RDKit          3D

 51 55  0  0  0  0  0  0  0  0999 V2000
  141.4120   67.9340  229.1020 C   0  0  0  0  0  0  0  0  0  0  0  0
  141.0420   68.9500  228.0920 C   0  0  0  0  0  0  0  0  0  0  0  0
  141.3830   70.2830  228.3000 C   0  0  0  0  0  0  0  0  0  0  0  0
  141.0130   71.1850  227.3300 C   0  0  0  0  0  0  0  0  0  0  0  0
  140.3310   70.8240  226.1870 C   0  0  0  0  0  0  0  0  0  0  0  0
  140.0000   69.4910  225.9960 C   0  0  0  0  0  0  0  0  0  0  0  0
  140.3680   68.5810  226.9660 C   0  0  0  0  0  0  0  0  0  0  0  0
  139.2680   69.3310  224.7000 C   0  0  0  0  0  0  0  0  0  0  0  0
  139.2450   70.7310  224.2230 C   0  0  0  0  0  0  0  0  0  0  0  0
  138.6340   71.1940  222.9850 C   0  0  0  0  0  0  0  0  0  0  0  0
  137.4390   70.6930  222.5380 C   0  0  0  0  0  0  0  0  0  0  0  0
  136.8750   71.1390  221.3560 C   0  0  0  0  0  0  0  0  0  0  0  0
  137.5030   72.1070  220.5860 C   0  0  0  0  0  0  0  0  0  0  0  0
  138.6950   72.6190  221.0180 C   0  0  0  0  0  0  0  0  0  0  0  0
  139.4640   73.6360  220.3140 C   0  0  0  0  0  0  0  0  0  0  0  0
  139.9810   73.2800  219.2190 O   0  0  0  0  0  0  0  0  0  0  0  0
  139.6390   74.9630  220.8100 N   0  0  0  0  0  0  0  0  0  0  0  0
  139.0830   75.4460  222.0390 C   0  0  0  0  0  0  0  0  0  0  0  0
  139.3850   76.9000  222.2500 C   0  0  0  0  0  0  0  0  0  0  0  0
  140.7550   77.2670  221.9760 N   0  0  0  0  0  0  0  0  0  0  0  0
  141.3460   78.3530  222.6660 C   0  0  0  0  0  0  0  0  0  0  0  0
  141.6350   78.6670  223.8150 N   0  0  0  0  0  0  0  0  0  0  0  0
  142.2040   79.7870  224.1810 C   0  0  0  0  0  0  0  0  0  0  0  0
  142.4990   80.6760  223.2120 C   0  0  0  0  0  0  0  0  0  0  0  0
  141.9120   79.8120  221.7240 S   0  0  0  0  0  0  0  0  0  0  0  0
  141.4560   76.4750  220.9740 C   0  0  0  0  0  0  0  0  0  0  0  0
  140.4520   75.8730  219.9880 C   0  0  0  0  0  0  0  0  0  0  0  0
  139.2540   72.1580  222.2150 C   0  0  0  0  0  0  0  0  0  0  0  0
  139.8320   71.5210  225.0530 N   0  0  0  0  0  0  0  0  0  0  0  0
  141.2614   68.3474  230.1102 H   0  0  0  0  0  0  0  0  0  0  0  0
  140.7809   67.0423  228.9734 H   0  0  0  0  0  0  0  0  0  0  0  0
  142.4687   67.6570  228.9734 H   0  0  0  0  0  0  0  0  0  0  0  0
  141.9256   70.6018  229.2022 H   0  0  0  0  0  0  0  0  0  0  0  0
  141.2733   72.2442  227.4726 H   0  0  0  0  0  0  0  0  0  0  0  0
  140.1085   67.5213  226.8258 H   0  0  0  0  0  0  0  0  0  0  0  0
  139.8129   68.6750  224.0051 H   0  0  0  0  0  0  0  0  0  0  0  0
  138.2765   68.8633  224.7905 H   0  0  0  0  0  0  0  0  0  0  0  0
  136.9200   69.9238  223.1287 H   0  0  0  0  0  0  0  0  0  0  0  0
  135.9144   70.7198  221.0219 H   0  0  0  0  0  0  0  0  0  0  0  0
  137.0508   72.4560  219.6460 H   0  0  0  0  0  0  0  0  0  0  0  0
  137.9919   75.3081  222.0153 H   0  0  0  0  0  0  0  0  0  0  0  0
  139.5338   74.8782  222.8663 H   0  0  0  0  0  0  0  0  0  0  0  0
  138.7317   77.4874  221.5881 H   0  0  0  0  0  0  0  0  0  0  0  0
  139.2098   77.1073  223.3160 H   0  0  0  0  0  0  0  0  0  0  0  0
  142.4323   79.9945  225.2368 H   0  0  0  0  0  0  0  0  0  0  0  0
  142.9714   81.6656  223.2987 H   0  0  0  0  0  0  0  0  0  0  0  0
  142.1613   77.1191  220.4284 H   0  0  0  0  0  0  0  0  0  0  0  0
  142.0037   75.6624  221.4737 H   0  0  0  0  0  0  0  0  0  0  0  0
  139.8257   76.6588  219.5405 H   0  0  0  0  0  0  0  0  0  0  0  0
  140.9429   75.3576  219.1493 H   0  0  0  0  0  0  0  0  0  0  0  0
  140.2143   72.5753  222.5521 H   0  0  0  0  0  0  0  0  0  0  0  0
  1  2  1  0
  2  3  2  0
  3  4  1  0
  4  5  2  0
  5  6  1  0
  6  7  2  0
  6  8  1  0
  8  9  1  0
  9 10  1  0
 10 11  2  0
 11 12  1  0
 12 13  2  0
 13 14  1  0
 14 15  1  0
 15 16  2  0
 15 17  1  0
 17 18  1  0
 18 19  1  0
 19 20  1  0
 20 21  1  0
 21 22  2  0
 22 23  1  0
 23 24  2  0
 24 25  1  0
 20 26  1  0
 26 27  1  0
 14 28  2  0
  9 29  2  0
  7  2  1  0
 28 10  1  0
 29  5  1  0
 27 17  1  0
 25 21  1  0
  1 30  1  0
  1 31  1  0
  1 32  1  0
  3 33  1  0
  4 34  1  0
  7 35  1  0
  8 36  1  0
  8 37  1  0
 11 38  1  0
 12 39  1  0
 13 40  1  0
 18 41  1  0
 18 42  1  0
 19 43  1  0
 19 44  1  0
 23 45  1  0
 24 46  1  0
 26 47  1  0
 26 48  1  0
 27 49  1  0
 27 50  1  0
 28 51  1  0
M  END
>  <smiles>  (17) 
Cc1ccc2c(c1)CC(c1cccc(C(=O)N3CCN(c4nccs4)CC3)c1)=N2

>  <score_type>  (17) 
oracle

>  <origin>  (17) 
autodockgpu

>  <m_score__min__energy>  (17) 
-8.0099999999999998

>  <m_primary>  (17) 
energy

>  <rmsd>  (17) 
3.5721361294574185

>  <m_score__min__rmsd>  (17) 
3.5721361294574185

>  <meeko>  (17) 
{"free_energy": -7.98, "intermolecular_energy": -8.87, "internal_energy": -0.8, "cluster_size": 47, "cluster_id": 1, "rank_in_cluster": 19}

>  <energy>  (17) 
-7.98

>  <cluster_rmsd>  (17) 
0.72

>  <cluster>  (17) 
1

$$$$

     RDKit          3D

 51 55  0  0  0  0  0  0  0  0999 V2000
  141.3810   68.1140  229.0590 C   0  0  0  0  0  0  0  0  0  0  0  0
  141.0600   69.1700  228.0730 C   0  0  0  0  0  0  0  0  0  0  0  0
  141.3960   70.4920  228.3480 C   0  0  0  0  0  0  0  0  0  0  0  0
  141.0740   71.4320  227.3980 C   0  0  0  0  0  0  0  0  0  0  0  0
  140.4430   71.1190  226.2120 C   0  0  0  0  0  0  0  0  0  0  0  0
  140.1150   69.7970  225.9550 C   0  0  0  0  0  0  0  0  0  0  0  0
  140.4360   68.8480  226.9050 C   0  0  0  0  0  0  0  0  0  0  0  0
  139.4410   69.6920  224.6220 C   0  0  0  0  0  0  0  0  0  0  0  0
  139.4450   71.1090  224.2000 C   0  0  0  0  0  0  0  0  0  0  0  0
  138.8910   71.6220  222.9550 C   0  0  0  0  0  0  0  0  0  0  0  0
  137.7140   71.1490  222.4380 C   0  0  0  0  0  0  0  0  0  0  0  0
  137.2050   71.6420  221.2500 C   0  0  0  0  0  0  0  0  0  0  0  0
  137.8720   72.6340  220.5450 C   0  0  0  0  0  0  0  0  0  0  0  0
  139.0480   73.1190  221.0470 C   0  0  0  0  0  0  0  0  0  0  0  0
  139.8540   74.1550  220.4150 C   0  0  0  0  0  0  0  0  0  0  0  0
  140.5970   73.7780  219.4680 O   0  0  0  0  0  0  0  0  0  0  0  0
  139.8240   75.5220  220.8240 N   0  0  0  0  0  0  0  0  0  0  0  0
  139.0060   76.0310  221.8850 C   0  0  0  0  0  0  0  0  0  0  0  0
  139.1450   77.5180  222.0280 C   0  0  0  0  0  0  0  0  0  0  0  0
  140.5090   77.9920  221.9820 N   0  0  0  0  0  0  0  0  0  0  0  0
  140.8680   79.1730  222.6770 C   0  0  0  0  0  0  0  0  0  0  0  0
  140.3200   80.1230  223.2240 N   0  0  0  0  0  0  0  0  0  0  0  0
  140.9270   81.1180  223.8180 C   0  0  0  0  0  0  0  0  0  0  0  0
  142.2740   81.1000  223.8300 C   0  0  0  0  0  0  0  0  0  0  0  0
  142.6340   79.5600  222.9350 S   0  0  0  0  0  0  0  0  0  0  0  0
  141.4500   77.2060  221.1960 C   0  0  0  0  0  0  0  0  0  0  0  0
  140.7040   76.4490  220.0940 C   0  0  0  0  0  0  0  0  0  0  0  0
  139.5510   72.6090  222.2490 C   0  0  0  0  0  0  0  0  0  0  0  0
  139.9980   71.8620  225.0850 N   0  0  0  0  0  0  0  0  0  0  0  0
  141.2596   68.5134  230.0767 H   0  0  0  0  0  0  0  0  0  0  0  0
  140.7017   67.2606  228.9166 H   0  0  0  0  0  0  0  0  0  0  0  0
  142.4203   67.7831  228.9166 H   0  0  0  0  0  0  0  0  0  0  0  0
  141.8979   70.7729  229.2857 H   0  0  0  0  0  0  0  0  0  0  0  0
  141.3317   72.4835  227.5928 H   0  0  0  0  0  0  0  0  0  0  0  0
  140.1793   67.7958  226.7125 H   0  0  0  0  0  0  0  0  0  0  0  0
  140.0138   69.0605  223.9269 H   0  0  0  0  0  0  0  0  0  0  0  0
  138.4446   69.2269  224.6498 H   0  0  0  0  0  0  0  0  0  0  0  0
  137.1640   70.3635  222.9769 H   0  0  0  0  0  0  0  0  0  0  0  0
  136.2580   71.2420  220.8585 H   0  0  0  0  0  0  0  0  0  0  0  0
  137.4627   73.0226  219.6008 H   0  0  0  0  0  0  0  0  0  0  0  0
  137.9542   75.7902  221.6712 H   0  0  0  0  0  0  0  0  0  0  0  0
  139.3340   75.5638  222.8253 H   0  0  0  0  0  0  0  0  0  0  0  0
  138.5855   77.9970  221.2110 H   0  0  0  0  0  0  0  0  0  0  0  0
  138.7531   77.7781  223.0224 H   0  0  0  0  0  0  0  0  0  0  0  0
  140.3609   81.9356  224.2882 H   0  0  0  0  0  0  0  0  0  0  0  0
  142.9734   81.8276  224.2674 H   0  0  0  0  0  0  0  0  0  0  0  0
  142.1929   77.8764  220.7392 H   0  0  0  0  0  0  0  0  0  0  0  0
  141.9556   76.4832  221.8532 H   0  0  0  0  0  0  0  0  0  0  0  0
  140.1140   77.1416  219.4758 H   0  0  0  0  0  0  0  0  0  0  0  0
  141.3856   75.9283  219.4053 H   0  0  0  0  0  0  0  0  0  0  0  0
  140.4986   73.0052  222.6428 H   0  0  0  0  0  0  0  0  0  0  0  0
  1  2  1  0
  2  3  2  0
  3  4  1  0
  4  5  2  0
  5  6  1  0
  6  7  2  0
  6  8  1  0
  8  9  1  0
  9 10  1  0
 10 11  2  0
 11 12  1  0
 12 13  2  0
 13 14  1  0
 14 15  1  0
 15 16  2  0
 15 17  1  0
 17 18  1  0
 18 19  1  0
 19 20  1  0
 20 21  1  0
 21 22  2  0
 22 23  1  0
 23 24  2  0
 24 25  1  0
 20 26  1  0
 26 27  1  0
 14 28  2  0
  9 29  2  0
  7  2  1  0
 28 10  1  0
 29  5  1  0
 27 17  1  0
 25 21  1  0
  1 30  1  0
  1 31  1  0
  1 32  1  0
  3 33  1  0
  4 34  1  0
  7 35  1  0
  8 36  1  0
  8 37  1  0
 11 38  1  0
 12 39  1  0
 13 40  1  0
 18 41  1  0
 18 42  1  0
 19 43  1  0
 19 44  1  0
 23 45  1  0
 24 46  1  0
 26 47  1  0
 26 48  1  0
 27 49  1  0
 27 50  1  0
 28 51  1  0
M  END
>  <smiles>  (18) 
Cc1ccc2c(c1)CC(c1cccc(C(=O)N3CCN(c4nccs4)CC3)c1)=N2

>  <score_type>  (18) 
oracle

>  <origin>  (18) 
autodockgpu

>  <m_score__min__energy>  (18) 
-8.0099999999999998

>  <m_primary>  (18) 
energy

>  <rmsd>  (18) 
3.8378339147618346

>  <m_score__min__rmsd>  (18) 
3.8378339147618346

>  <meeko>  (18) 
{"free_energy": -7.97, "intermolecular_energy": -8.86, "internal_energy": -0.8, "cluster_size": 47, "cluster_id": 1, "rank_in_cluster": 26}

>  <energy>  (18) 
-7.98

>  <cluster_rmsd>  (18) 
0.73

>  <cluster>  (18) 
1

$$$$

     RDKit          3D

 51 55  0  0  0  0  0  0  0  0999 V2000
  141.4090   68.1160  229.0800 C   0  0  0  0  0  0  0  0  0  0  0  0
  141.0710   69.1560  228.0820 C   0  0  0  0  0  0  0  0  0  0  0  0
  141.4090   70.4820  228.3300 C   0  0  0  0  0  0  0  0  0  0  0  0
  141.0710   71.4060  227.3700 C   0  0  0  0  0  0  0  0  0  0  0  0
  140.4220   71.0740  226.2000 C   0  0  0  0  0  0  0  0  0  0  0  0
  140.0920   69.7470  225.9690 C   0  0  0  0  0  0  0  0  0  0  0  0
  140.4290   68.8140  226.9290 C   0  0  0  0  0  0  0  0  0  0  0  0
  139.3980   69.6190  224.6490 C   0  0  0  0  0  0  0  0  0  0  0  0
  139.3930   71.0290  224.2040 C   0  0  0  0  0  0  0  0  0  0  0  0
  138.8190   71.5220  222.9590 C   0  0  0  0  0  0  0  0  0  0  0  0
  137.5710   71.1430  222.5390 C   0  0  0  0  0  0  0  0  0  0  0  0
  137.0440   71.6150  221.3510 C   0  0  0  0  0  0  0  0  0  0  0  0
  137.7630   72.4870  220.5470 C   0  0  0  0  0  0  0  0  0  0  0  0
  139.0100   72.8770  220.9520 C   0  0  0  0  0  0  0  0  0  0  0  0
  139.8750   73.7840  220.2100 C   0  0  0  0  0  0  0  0  0  0  0  0
  140.5230   73.2750  219.2540 O   0  0  0  0  0  0  0  0  0  0  0  0
  140.0030   75.1700  220.5260 N   0  0  0  0  0  0  0  0  0  0  0  0
  139.3010   75.8260  221.5900 C   0  0  0  0  0  0  0  0  0  0  0  0
  139.5940   77.2960  221.6240 C   0  0  0  0  0  0  0  0  0  0  0  0
  140.9920   77.6260  221.4760 N   0  0  0  0  0  0  0  0  0  0  0  0
  141.5040   78.8060  222.0700 C   0  0  0  0  0  0  0  0  0  0  0  0
  141.8570   79.9290  221.7310 N   0  0  0  0  0  0  0  0  0  0  0  0
  142.3090   80.8620  222.5300 C   0  0  0  0  0  0  0  0  0  0  0  0
  142.3950   80.5640  223.8410 C   0  0  0  0  0  0  0  0  0  0  0  0
  141.7860   78.8520  223.8740 S   0  0  0  0  0  0  0  0  0  0  0  0
  141.8040   76.7000  220.6990 C   0  0  0  0  0  0  0  0  0  0  0  0
  140.9260   75.9560  219.6910 C   0  0  0  0  0  0  0  0  0  0  0  0
  139.5310   72.3910  222.1560 C   0  0  0  0  0  0  0  0  0  0  0  0
  139.9580   71.7980  225.0680 N   0  0  0  0  0  0  0  0  0  0  0  0
  141.2766   68.5233  230.0932 H   0  0  0  0  0  0  0  0  0  0  0  0
  140.7466   67.2484  228.9442 H   0  0  0  0  0  0  0  0  0  0  0  0
  142.4549   67.8036  228.9442 H   0  0  0  0  0  0  0  0  0  0  0  0
  141.9249   70.7788  229.2551 H   0  0  0  0  0  0  0  0  0  0  0  0
  141.3308   72.4607  227.5437 H   0  0  0  0  0  0  0  0  0  0  0  0
  140.1707   67.7586  226.7578 H   0  0  0  0  0  0  0  0  0  0  0  0
  139.9612   68.9771  223.9556 H   0  0  0  0  0  0  0  0  0  0  0  0
  138.4030   69.1527  224.6997 H   0  0  0  0  0  0  0  0  0  0  0  0
  136.9788   70.4520  223.1570 H   0  0  0  0  0  0  0  0  0  0  0  0
  136.0393   71.2940  221.0388 H   0  0  0  0  0  0  0  0  0  0  0  0
  137.3388   72.8577  219.6022 H   0  0  0  0  0  0  0  0  0  0  0  0
  138.2201   75.6812  221.4465 H   0  0  0  0  0  0  0  0  0  0  0  0
  139.6344   75.3877  222.5423 H   0  0  0  0  0  0  0  0  0  0  0  0
  139.0378   77.7773  220.8061 H   0  0  0  0  0  0  0  0  0  0  0  0
  139.2885   77.6556  222.6177 H   0  0  0  0  0  0  0  0  0  0  0  0
  142.6065   81.8492  222.1467 H   0  0  0  0  0  0  0  0  0  0  0  0
  142.7429   81.1927  224.6739 H   0  0  0  0  0  0  0  0  0  0  0  0
  142.5822   77.2608  220.1606 H   0  0  0  0  0  0  0  0  0  0  0  0
  142.2722   75.9719  221.3778 H   0  0  0  0  0  0  0  0  0  0  0  0
  140.3719   76.6651  219.0584 H   0  0  0  0  0  0  0  0  0  0  0  0
  141.5126   75.3271  219.0052 H   0  0  0  0  0  0  0  0  0  0  0  0
  140.5353   72.7098  222.4717 H   0  0  0  0  0  0  0  0  0  0  0  0
  1  2  1  0
  2  3  2  0
  3  4  1  0
  4  5  2  0
  5  6  1  0
  6  7  2  0
  6  8  1  0
  8  9  1  0
  9 10  1  0
 10 11  2  0
 11 12  1  0
 12 13  2  0
 13 14  1  0
 14 15  1  0
 15 16  2  0
 15 17  1  0
 17 18  1  0
 18 19  1  0
 19 20  1  0
 20 21  1  0
 21 22  2  0
 22 23  1  0
 23 24  2  0
 24 25  1  0
 20 26  1  0
 26 27  1  0
 14 28  2  0
  9 29  2  0
  7  2  1  0
 28 10  1  0
 29  5  1  0
 27 17  1  0
 25 21  1  0
  1 30  1  0
  1 31  1  0
  1 32  1  0
  3 33  1  0
  4 34  1  0
  7 35  1  0
  8 36  1  0
  8 37  1  0
 11 38  1  0
 12 39  1  0
 13 40  1  0
 18 41  1  0
 18 42  1  0
 19 43  1  0
 19 44  1  0
 23 45  1  0
 24 46  1  0
 26 47  1  0
 26 48  1  0
 27 49  1  0
 27 50  1  0
 28 51  1  0
M  END
>  <smiles>  (19) 
Cc1ccc2c(c1)CC(c1cccc(C(=O)N3CCN(c4nccs4)CC3)c1)=N2

>  <score_type>  (19) 
oracle

>  <origin>  (19) 
autodockgpu

>  <m_score__min__energy>  (19) 
-8.0099999999999998

>  <m_primary>  (19) 
energy

>  <rmsd>  (19) 
3.6783924458090422

>  <m_score__min__rmsd>  (19) 
3.6783924458090422

>  <meeko>  (19) 
{"free_energy": -7.94, "intermolecular_energy": -8.83, "internal_energy": -0.81, "cluster_size": 47, "cluster_id": 1, "rank_in_cluster": 42}

>  <energy>  (19) 
-7.98

>  <cluster_rmsd>  (19) 
0.15

>  <cluster>  (19) 
1

$$$$

     RDKit          3D

 51 55  0  0  0  0  0  0  0  0999 V2000
  141.4050   68.1430  229.0980 C   0  0  0  0  0  0  0  0  0  0  0  0
  141.0810   69.1770  228.0890 C   0  0  0  0  0  0  0  0  0  0  0  0
  141.4080   70.5060  228.3380 C   0  0  0  0  0  0  0  0  0  0  0  0
  141.0830   71.4250  227.3680 C   0  0  0  0  0  0  0  0  0  0  0  0
  140.4590   71.0840  226.1860 C   0  0  0  0  0  0  0  0  0  0  0  0
  140.1420   69.7540  225.9550 C   0  0  0  0  0  0  0  0  0  0  0  0
  140.4650   68.8270  226.9250 C   0  0  0  0  0  0  0  0  0  0  0  0
  139.4740   69.6170  224.6220 C   0  0  0  0  0  0  0  0  0  0  0  0
  139.4700   71.0260  224.1700 C   0  0  0  0  0  0  0  0  0  0  0  0
  138.9190   71.5090  222.9120 C   0  0  0  0  0  0  0  0  0  0  0  0
  137.7600   71.0000  222.3880 C   0  0  0  0  0  0  0  0  0  0  0  0
  137.2540   71.4660  221.1890 C   0  0  0  0  0  0  0  0  0  0  0  0
  137.9040   72.4650  220.4790 C   0  0  0  0  0  0  0  0  0  0  0  0
  139.0610   72.9860  220.9890 C   0  0  0  0  0  0  0  0  0  0  0  0
  139.8470   74.0350  220.3540 C   0  0  0  0  0  0  0  0  0  0  0  0
  140.5770   73.6730  219.3900 O   0  0  0  0  0  0  0  0  0  0  0  0
  139.8140   75.3980  220.7770 N   0  0  0  0  0  0  0  0  0  0  0  0
  139.0110   75.8900  221.8570 C   0  0  0  0  0  0  0  0  0  0  0  0
  139.1410   77.3760  222.0120 C   0  0  0  0  0  0  0  0  0  0  0  0
  140.5000   77.8620  221.9470 N   0  0  0  0  0  0  0  0  0  0  0  0
  140.8620   79.0380  222.6480 C   0  0  0  0  0  0  0  0  0  0  0  0
  140.3170   79.9640  223.2370 N   0  0  0  0  0  0  0  0  0  0  0  0
  140.9270   80.9630  223.8220 C   0  0  0  0  0  0  0  0  0  0  0  0
  142.2730   80.9780  223.7740 C   0  0  0  0  0  0  0  0  0  0  0  0
  142.6290   79.4640  222.8340 S   0  0  0  0  0  0  0  0  0  0  0  0
  141.4330   77.0910  221.1370 C   0  0  0  0  0  0  0  0  0  0  0  0
  140.6740   76.3390  220.0410 C   0  0  0  0  0  0  0  0  0  0  0  0
  139.5620   72.5050  222.2030 C   0  0  0  0  0  0  0  0  0  0  0  0
  140.0140   71.8010  225.0420 N   0  0  0  0  0  0  0  0  0  0  0  0
  141.2739   68.5614  230.1069 H   0  0  0  0  0  0  0  0  0  0  0  0
  140.7338   67.2812  228.9684 H   0  0  0  0  0  0  0  0  0  0  0  0
  142.4480   67.8183  228.9684 H   0  0  0  0  0  0  0  0  0  0  0  0
  141.9054   70.8089  229.2712 H   0  0  0  0  0  0  0  0  0  0  0  0
  141.3324   72.4820  227.5429 H   0  0  0  0  0  0  0  0  0  0  0  0
  140.2167   67.7694  226.7526 H   0  0  0  0  0  0  0  0  0  0  0  0
  140.0537   68.9751  223.9424 H   0  0  0  0  0  0  0  0  0  0  0  0
  138.4805   69.1459  224.6558 H   0  0  0  0  0  0  0  0  0  0  0  0
  137.2233   70.2076  222.9302 H   0  0  0  0  0  0  0  0  0  0  0  0
  136.3217   71.0382  220.7918 H   0  0  0  0  0  0  0  0  0  0  0  0
  137.4969   72.8308  219.5248 H   0  0  0  0  0  0  0  0  0  0  0  0
  137.9575   75.6429  221.6593 H   0  0  0  0  0  0  0  0  0  0  0  0
  139.3590   75.4163  222.7868 H   0  0  0  0  0  0  0  0  0  0  0  0
  138.5635   77.8583  221.2096 H   0  0  0  0  0  0  0  0  0  0  0  0
  138.7648   77.6230  223.0157 H   0  0  0  0  0  0  0  0  0  0  0  0
  140.3635   81.7581  224.3322 H   0  0  0  0  0  0  0  0  0  0  0  0
  142.9738   81.7144  224.1941 H   0  0  0  0  0  0  0  0  0  0  0  0
  142.1626   77.7716  220.6740 H   0  0  0  0  0  0  0  0  0  0  0  0
  141.9554   76.3658  221.7782 H   0  0  0  0  0  0  0  0  0  0  0  0
  140.0679   77.0329  219.4400 H   0  0  0  0  0  0  0  0  0  0  0  0
  141.3475   75.8303  219.3356 H   0  0  0  0  0  0  0  0  0  0  0  0
  140.4933   72.9314  222.6041 H   0  0  0  0  0  0  0  0  0  0  0  0
  1  2  1  0
  2  3  2  0
  3  4  1  0
  4  5  2  0
  5  6  1  0
  6  7  2  0
  6  8  1  0
  8  9  1  0
  9 10  1  0
 10 11  2  0
 11 12  1  0
 12 13  2  0
 13 14  1  0
 14 15  1  0
 15 16  2  0
 15 17  1  0
 17 18  1  0
 18 19  1  0
 19 20  1  0
 20 21  1  0
 21 22  2  0
 22 23  1  0
 23 24  2  0
 24 25  1  0
 20 26  1  0
 26 27  1  0
 14 28  2  0
  9 29  2  0
  7  2  1  0
 28 10  1  0
 29  5  1  0
 27 17  1  0
 25 21  1  0
  1 30  1  0
  1 31  1  0
  1 32  1  0
  3 33  1  0
  4 34  1  0
  7 35  1  0
  8 36  1  0
  8 37  1  0
 11 38  1  0
 12 39  1  0
 13 40  1  0
 18 41  1  0
 18 42  1  0
 19 43  1  0
 19 44  1  0
 23 45  1  0
 24 46  1  0
 26 47  1  0
 26 48  1  0
 27 49  1  0
 27 50  1  0
 28 51  1  0
M  END
>  <smiles>  (20) 
Cc1ccc2c(c1)CC(c1cccc(C(=O)N3CCN(c4nccs4)CC3)c1)=N2

>  <score_type>  (20) 
oracle

>  <origin>  (20) 
autodockgpu

>  <m_score__min__energy>  (20) 
-8.0099999999999998

>  <m_primary>  (20) 
energy

>  <rmsd>  (20) 
3.7631805616881198

>  <m_score__min__rmsd>  (20) 
3.7631805616881198

>  <meeko>  (20) 
{"free_energy": -7.97, "intermolecular_energy": -8.87, "internal_energy": -0.8, "cluster_size": 47, "cluster_id": 1, "rank_in_cluster": 22}

>  <energy>  (20) 
-7.98

>  <cluster_rmsd>  (20) 
0.54

>  <cluster>  (20) 
1

$$$$

     RDKit          3D

 51 55  0  0  0  0  0  0  0  0999 V2000
  141.4430   67.8940  229.1130 C   0  0  0  0  0  0  0  0  0  0  0  0
  141.0600   68.9250  228.1220 C   0  0  0  0  0  0  0  0  0  0  0  0
  141.4080   70.2530  228.3440 C   0  0  0  0  0  0  0  0  0  0  0  0
  141.0260   71.1690  227.3920 C   0  0  0  0  0  0  0  0  0  0  0  0
  140.3250   70.8260  226.2550 C   0  0  0  0  0  0  0  0  0  0  0  0
  139.9860   69.4970  226.0510 C   0  0  0  0  0  0  0  0  0  0  0  0
  140.3670   68.5720  227.0020 C   0  0  0  0  0  0  0  0  0  0  0  0
  139.2330   69.3580  224.7650 C   0  0  0  0  0  0  0  0  0  0  0  0
  139.2070   70.7640  224.3080 C   0  0  0  0  0  0  0  0  0  0  0  0
  138.5770   71.2450  223.0860 C   0  0  0  0  0  0  0  0  0  0  0  0
  137.3600   70.7760  222.6680 C   0  0  0  0  0  0  0  0  0  0  0  0
  136.7790   71.2390  221.5010 C   0  0  0  0  0  0  0  0  0  0  0  0
  137.4110   72.1940  220.7180 C   0  0  0  0  0  0  0  0  0  0  0  0
  138.6260   72.6750  221.1220 C   0  0  0  0  0  0  0  0  0  0  0  0
  139.4020   73.6740  220.4020 C   0  0  0  0  0  0  0  0  0  0  0  0
  139.9170   73.2980  219.3120 O   0  0  0  0  0  0  0  0  0  0  0  0
  139.5880   75.0080  220.8770 N   0  0  0  0  0  0  0  0  0  0  0  0
  139.0350   75.5150  222.0980 C   0  0  0  0  0  0  0  0  0  0  0  0
  139.3490   76.9700  222.2870 C   0  0  0  0  0  0  0  0  0  0  0  0
  140.7210   77.3210  222.0060 N   0  0  0  0  0  0  0  0  0  0  0  0
  141.3200   78.4140  222.6790 C   0  0  0  0  0  0  0  0  0  0  0  0
  141.6110   78.7450  223.8230 N   0  0  0  0  0  0  0  0  0  0  0  0
  142.1890   79.8650  224.1710 C   0  0  0  0  0  0  0  0  0  0  0  0
  142.4930   80.7350  223.1880 C   0  0  0  0  0  0  0  0  0  0  0  0
  141.9000   79.8530  221.7140 S   0  0  0  0  0  0  0  0  0  0  0  0
  141.4160   76.5080  221.0170 C   0  0  0  0  0  0  0  0  0  0  0  0
  140.4070   75.8990  220.0410 C   0  0  0  0  0  0  0  0  0  0  0  0
  139.2030   72.1970  222.3040 C   0  0  0  0  0  0  0  0  0  0  0  0
  139.8100   71.5400  225.1390 N   0  0  0  0  0  0  0  0  0  0  0  0
  141.2961   68.2894  230.1289 H   0  0  0  0  0  0  0  0  0  0  0  0
  140.8168   67.0005  228.9732 H   0  0  0  0  0  0  0  0  0  0  0  0
  142.5007   67.6260  228.9732 H   0  0  0  0  0  0  0  0  0  0  0  0
  141.9649   70.5576  229.2424 H   0  0  0  0  0  0  0  0  0  0  0  0
  141.2922   72.2253  227.5447 H   0  0  0  0  0  0  0  0  0  0  0  0
  140.1028   67.5149  226.8513 H   0  0  0  0  0  0  0  0  0  0  0  0
  139.7644   68.7101  224.0524 H   0  0  0  0  0  0  0  0  0  0  0  0
  138.2414   68.8924  224.8650 H   0  0  0  0  0  0  0  0  0  0  0  0
  136.8361   70.0189  223.2699 H   0  0  0  0  0  0  0  0  0  0  0  0
  135.8009   70.8439  221.1892 H   0  0  0  0  0  0  0  0  0  0  0  0
  136.9442   72.5572  219.7906 H   0  0  0  0  0  0  0  0  0  0  0  0
  137.9428   75.3859  222.0754 H   0  0  0  0  0  0  0  0  0  0  0  0
  139.4806   74.9564  222.9344 H   0  0  0  0  0  0  0  0  0  0  0  0
  138.6997   77.5528  221.6171 H   0  0  0  0  0  0  0  0  0  0  0  0
  139.1766   77.1950  223.3499 H   0  0  0  0  0  0  0  0  0  0  0  0
  142.4178   80.0880  225.2236 H   0  0  0  0  0  0  0  0  0  0  0  0
  142.9744   81.7215  223.2592 H   0  0  0  0  0  0  0  0  0  0  0  0
  142.1264   77.1378  220.4614 H   0  0  0  0  0  0  0  0  0  0  0  0
  141.9577   75.6992  221.5293 H   0  0  0  0  0  0  0  0  0  0  0  0
  139.7864   76.6827  219.5821 H   0  0  0  0  0  0  0  0  0  0  0  0
  140.8933   75.3673  219.2098 H   0  0  0  0  0  0  0  0  0  0  0  0
  140.1811   72.5896  222.6191 H   0  0  0  0  0  0  0  0  0  0  0  0
  1  2  1  0
  2  3  2  0
  3  4  1  0
  4  5  2  0
  5  6  1  0
  6  7  2  0
  6  8  1  0
  8  9  1  0
  9 10  1  0
 10 11  2  0
 11 12  1  0
 12 13  2  0
 13 14  1  0
 14 15  1  0
 15 16  2  0
 15 17  1  0
 17 18  1  0
 18 19  1  0
 19 20  1  0
 20 21  1  0
 21 22  2  0
 22 23  1  0
 23 24  2  0
 24 25  1  0
 20 26  1  0
 26 27  1  0
 14 28  2  0
  9 29  2  0
  7  2  1  0
 28 10  1  0
 29  5  1  0
 27 17  1  0
 25 21  1  0
  1 30  1  0
  1 31  1  0
  1 32  1  0
  3 33  1  0
  4 34  1  0
  7 35  1  0
  8 36  1  0
  8 37  1  0
 11 38  1  0
 12 39  1  0
 13 40  1  0
 18 41  1  0
 18 42  1  0
 19 43  1  0
 19 44  1  0
 23 45  1  0
 24 46  1  0
 26 47  1  0
 26 48  1  0
 27 49  1  0
 27 50  1  0
 28 51  1  0
M  END
>  <smiles>  (21) 
Cc1ccc2c(c1)CC(c1cccc(C(=O)N3CCN(c4nccs4)CC3)c1)=N2

>  <score_type>  (21) 
oracle

>  <origin>  (21) 
autodockgpu

>  <m_score__min__energy>  (21) 
-8.0099999999999998

>  <m_primary>  (21) 
energy

>  <rmsd>  (21) 
3.5803509042938226

>  <m_score__min__rmsd>  (21) 
3.5803509042938226

>  <meeko>  (21) 
{"free_energy": -7.99, "intermolecular_energy": -8.89, "internal_energy": -0.8, "cluster_size": 47, "cluster_id": 1, "rank_in_cluster": 14}

>  <energy>  (21) 
-7.97

>  <cluster_rmsd>  (21) 
0.75

>  <cluster>  (21) 
1

$$$$

     RDKit          3D

 51 55  0  0  0  0  0  0  0  0999 V2000
  141.4500   67.7690  229.0990 C   0  0  0  0  0  0  0  0  0  0  0  0
  141.0700   68.8150  228.1230 C   0  0  0  0  0  0  0  0  0  0  0  0
  141.4340   70.1370  228.3560 C   0  0  0  0  0  0  0  0  0  0  0  0
  141.0550   71.0680  227.4170 C   0  0  0  0  0  0  0  0  0  0  0  0
  140.3420   70.7450  226.2820 C   0  0  0  0  0  0  0  0  0  0  0  0
  139.9880   69.4220  226.0660 C   0  0  0  0  0  0  0  0  0  0  0  0
  140.3660   68.4830  227.0040 C   0  0  0  0  0  0  0  0  0  0  0  0
  139.2250   69.3050  224.7830 C   0  0  0  0  0  0  0  0  0  0  0  0
  139.2100   70.7160  224.3420 C   0  0  0  0  0  0  0  0  0  0  0  0
  138.5770   71.2170  223.1300 C   0  0  0  0  0  0  0  0  0  0  0  0
  137.3420   70.7820  222.7270 C   0  0  0  0  0  0  0  0  0  0  0  0
  136.7580   71.2640  221.5700 C   0  0  0  0  0  0  0  0  0  0  0  0
  137.4060   72.2030  220.7800 C   0  0  0  0  0  0  0  0  0  0  0  0
  138.6390   72.6490  221.1690 C   0  0  0  0  0  0  0  0  0  0  0  0
  139.4320   73.6290  220.4390 C   0  0  0  0  0  0  0  0  0  0  0  0
  139.9560   73.2290  219.3640 O   0  0  0  0  0  0  0  0  0  0  0  0
  139.6230   74.9700  220.8930 N   0  0  0  0  0  0  0  0  0  0  0  0
  139.0600   75.5030  222.0980 C   0  0  0  0  0  0  0  0  0  0  0  0
  139.3830   76.9590  222.2640 C   0  0  0  0  0  0  0  0  0  0  0  0
  140.7620   77.2940  221.9940 N   0  0  0  0  0  0  0  0  0  0  0  0
  141.3630   78.3940  222.6540 C   0  0  0  0  0  0  0  0  0  0  0  0
  141.6840   78.7230  223.7900 N   0  0  0  0  0  0  0  0  0  0  0  0
  142.2520   79.8520  224.1270 C   0  0  0  0  0  0  0  0  0  0  0  0
  142.5070   80.7330  223.1400 C   0  0  0  0  0  0  0  0  0  0  0  0
  141.8830   79.8490  221.6800 S   0  0  0  0  0  0  0  0  0  0  0  0
  141.4620   76.4570  221.0280 C   0  0  0  0  0  0  0  0  0  0  0  0
  140.4600   75.8390  220.0500 C   0  0  0  0  0  0  0  0  0  0  0  0
  139.2180   72.1530  222.3410 C   0  0  0  0  0  0  0  0  0  0  0  0
  139.8270   71.4760  225.1770 N   0  0  0  0  0  0  0  0  0  0  0  0
  141.3106   68.1526  230.1205 H   0  0  0  0  0  0  0  0  0  0  0  0
  140.8167   66.8819  228.9509 H   0  0  0  0  0  0  0  0  0  0  0  0
  142.5050   67.4952  228.9509 H   0  0  0  0  0  0  0  0  0  0  0  0
  142.0010   70.4258  229.2533 H   0  0  0  0  0  0  0  0  0  0  0  0
  141.3339   72.1196  227.5793 H   0  0  0  0  0  0  0  0  0  0  0  0
  140.0897   67.4305  226.8431 H   0  0  0  0  0  0  0  0  0  0  0  0
  139.7453   68.6600  224.0596 H   0  0  0  0  0  0  0  0  0  0  0  0
  138.2295   68.8482  224.8844 H   0  0  0  0  0  0  0  0  0  0  0  0
  136.8062   70.0371  223.3337 H   0  0  0  0  0  0  0  0  0  0  0  0
  135.7648   70.8976  221.2713 H   0  0  0  0  0  0  0  0  0  0  0  0
  136.9374   72.5810  219.8594 H   0  0  0  0  0  0  0  0  0  0  0  0
  137.9672   75.3816  222.0652 H   0  0  0  0  0  0  0  0  0  0  0  0
  139.4915   74.9564  222.9495 H   0  0  0  0  0  0  0  0  0  0  0  0
  138.7470   77.5342  221.5751 H   0  0  0  0  0  0  0  0  0  0  0  0
  139.1988   77.2053  223.3201 H   0  0  0  0  0  0  0  0  0  0  0  0
  142.5108   80.0731  225.1730 H   0  0  0  0  0  0  0  0  0  0  0  0
  142.9718   81.7281  223.2018 H   0  0  0  0  0  0  0  0  0  0  0  0
  142.1848   77.0705  220.4702 H   0  0  0  0  0  0  0  0  0  0  0  0
  141.9898   75.6528  221.5616 H   0  0  0  0  0  0  0  0  0  0  0  0
  139.8519   76.6194  219.5692 H   0  0  0  0  0  0  0  0  0  0  0  0
  140.9516   75.2885  219.2343 H   0  0  0  0  0  0  0  0  0  0  0  0
  140.2108   72.5178  222.6432 H   0  0  0  0  0  0  0  0  0  0  0  0
  1  2  1  0
  2  3  2  0
  3  4  1  0
  4  5  2  0
  5  6  1  0
  6  7  2  0
  6  8  1  0
  8  9  1  0
  9 10  1  0
 10 11  2  0
 11 12  1  0
 12 13  2  0
 13 14  1  0
 14 15  1  0
 15 16  2  0
 15 17  1  0
 17 18  1  0
 18 19  1  0
 19 20  1  0
 20 21  1  0
 21 22  2  0
 22 23  1  0
 23 24  2  0
 24 25  1  0
 20 26  1  0
 26 27  1  0
 14 28  2  0
  9 29  2  0
  7  2  1  0
 28 10  1  0
 29  5  1  0
 27 17  1  0
 25 21  1  0
  1 30  1  0
  1 31  1  0
  1 32  1  0
  3 33  1  0
  4 34  1  0
  7 35  1  0
  8 36  1  0
  8 37  1  0
 11 38  1  0
 12 39  1  0
 13 40  1  0
 18 41  1  0
 18 42  1  0
 19 43  1  0
 19 44  1  0
 23 45  1  0
 24 46  1  0
 26 47  1  0
 26 48  1  0
 27 49  1  0
 27 50  1  0
 28 51  1  0
M  END
>  <smiles>  (22) 
Cc1ccc2c(c1)CC(c1cccc(C(=O)N3CCN(c4nccs4)CC3)c1)=N2

>  <score_type>  (22) 
oracle

>  <origin>  (22) 
autodockgpu

>  <m_score__min__energy>  (22) 
-8.0099999999999998

>  <m_primary>  (22) 
energy

>  <rmsd>  (22) 
3.568596931240878

>  <m_score__min__rmsd>  (22) 
3.568596931240878

>  <meeko>  (22) 
{"free_energy": -8.0, "intermolecular_energy": -8.89, "internal_energy": -0.8, "cluster_size": 47, "cluster_id": 1, "rank_in_cluster": 13}

>  <energy>  (22) 
-7.97

>  <cluster_rmsd>  (22) 
0.71

>  <cluster>  (22) 
1

$$$$

     RDKit          3D

 51 55  0  0  0  0  0  0  0  0999 V2000
  141.4190   68.1580  229.0940 C   0  0  0  0  0  0  0  0  0  0  0  0
  141.0800   69.1930  228.0920 C   0  0  0  0  0  0  0  0  0  0  0  0
  141.4080   70.5220  228.3390 C   0  0  0  0  0  0  0  0  0  0  0  0
  141.0690   71.4420  227.3750 C   0  0  0  0  0  0  0  0  0  0  0  0
  140.4290   71.1020  226.2010 C   0  0  0  0  0  0  0  0  0  0  0  0
  140.1100   69.7720  225.9720 C   0  0  0  0  0  0  0  0  0  0  0  0
  140.4480   68.8440  226.9360 C   0  0  0  0  0  0  0  0  0  0  0  0
  139.4250   69.6370  224.6480 C   0  0  0  0  0  0  0  0  0  0  0  0
  139.4130   71.0460  224.1990 C   0  0  0  0  0  0  0  0  0  0  0  0
  138.8430   71.5310  222.9500 C   0  0  0  0  0  0  0  0  0  0  0  0
  137.6180   71.1130  222.5040 C   0  0  0  0  0  0  0  0  0  0  0  0
  137.0940   71.5790  221.3120 C   0  0  0  0  0  0  0  0  0  0  0  0
  137.7950   72.4850  220.5290 C   0  0  0  0  0  0  0  0  0  0  0  0
  139.0200   72.9140  220.9600 C   0  0  0  0  0  0  0  0  0  0  0  0
  139.8660   73.8590  220.2430 C   0  0  0  0  0  0  0  0  0  0  0  0
  140.4870   73.4010  219.2450 O   0  0  0  0  0  0  0  0  0  0  0  0
  140.0030   75.2270  220.6270 N   0  0  0  0  0  0  0  0  0  0  0  0
  139.3300   75.8260  221.7420 C   0  0  0  0  0  0  0  0  0  0  0  0
  139.6240   77.2930  221.8440 C   0  0  0  0  0  0  0  0  0  0  0  0
  141.0180   77.6320  221.6750 N   0  0  0  0  0  0  0  0  0  0  0  0
  141.5470   78.7800  222.3150 C   0  0  0  0  0  0  0  0  0  0  0  0
  142.5910   79.4200  222.3420 N   0  0  0  0  0  0  0  0  0  0  0  0
  142.8120   80.4930  223.0570 C   0  0  0  0  0  0  0  0  0  0  0  0
  141.8040   80.9350  223.8350 C   0  0  0  0  0  0  0  0  0  0  0  0
  140.5020   79.7170  223.4840 S   0  0  0  0  0  0  0  0  0  0  0  0
  141.8090   76.7480  220.8290 C   0  0  0  0  0  0  0  0  0  0  0  0
  140.9030   76.0560  219.8080 C   0  0  0  0  0  0  0  0  0  0  0  0
  139.5380   72.4340  222.1680 C   0  0  0  0  0  0  0  0  0  0  0  0
  139.9680   71.8200  225.0650 N   0  0  0  0  0  0  0  0  0  0  0  0
  141.2844   68.5689  230.1055 H   0  0  0  0  0  0  0  0  0  0  0  0
  140.7588   67.2884  228.9606 H   0  0  0  0  0  0  0  0  0  0  0  0
  142.4658   67.8475  228.9606 H   0  0  0  0  0  0  0  0  0  0  0  0
  141.9170   70.8242  229.2662 H   0  0  0  0  0  0  0  0  0  0  0  0
  141.3199   72.4989  227.5480 H   0  0  0  0  0  0  0  0  0  0  0  0
  140.1987   67.7863  226.7655 H   0  0  0  0  0  0  0  0  0  0  0  0
  139.9967   68.9973  223.9595 H   0  0  0  0  0  0  0  0  0  0  0  0
  138.4327   69.1646  224.6940 H   0  0  0  0  0  0  0  0  0  0  0  0
  137.0406   70.3942  223.1040 H   0  0  0  0  0  0  0  0  0  0  0  0
  136.1066   71.2261  220.9796 H   0  0  0  0  0  0  0  0  0  0  0  0
  137.3740   72.8508  219.5809 H   0  0  0  0  0  0  0  0  0  0  0  0
  138.2456   75.6873  221.6204 H   0  0  0  0  0  0  0  0  0  0  0  0
  139.6888   75.3395  222.6610 H   0  0  0  0  0  0  0  0  0  0  0  0
  139.0457   77.8153  221.0676 H   0  0  0  0  0  0  0  0  0  0  0  0
  139.3458   77.6004  222.8629 H   0  0  0  0  0  0  0  0  0  0  0  0
  143.7807   81.0132  223.0246 H   0  0  0  0  0  0  0  0  0  0  0  0
  141.7767   81.8055  224.5069 H   0  0  0  0  0  0  0  0  0  0  0  0
  142.5723   77.3368  220.2993 H   0  0  0  0  0  0  0  0  0  0  0  0
  142.2958   75.9865  221.4561 H   0  0  0  0  0  0  0  0  0  0  0  0
  140.3319   76.7962  219.2283 H   0  0  0  0  0  0  0  0  0  0  0  0
  141.4701   75.4640  219.0745 H   0  0  0  0  0  0  0  0  0  0  0  0
  140.5249   72.7848  222.5042 H   0  0  0  0  0  0  0  0  0  0  0  0
  1  2  1  0
  2  3  2  0
  3  4  1  0
  4  5  2  0
  5  6  1  0
  6  7  2  0
  6  8  1  0
  8  9  1  0
  9 10  1  0
 10 11  2  0
 11 12  1  0
 12 13  2  0
 13 14  1  0
 14 15  1  0
 15 16  2  0
 15 17  1  0
 17 18  1  0
 18 19  1  0
 19 20  1  0
 20 21  1  0
 21 22  2  0
 22 23  1  0
 23 24  2  0
 24 25  1  0
 20 26  1  0
 26 27  1  0
 14 28  2  0
  9 29  2  0
  7  2  1  0
 28 10  1  0
 29  5  1  0
 27 17  1  0
 25 21  1  0
  1 30  1  0
  1 31  1  0
  1 32  1  0
  3 33  1  0
  4 34  1  0
  7 35  1  0
  8 36  1  0
  8 37  1  0
 11 38  1  0
 12 39  1  0
 13 40  1  0
 18 41  1  0
 18 42  1  0
 19 43  1  0
 19 44  1  0
 23 45  1  0
 24 46  1  0
 26 47  1  0
 26 48  1  0
 27 49  1  0
 27 50  1  0
 28 51  1  0
M  END
>  <smiles>  (23) 
Cc1ccc2c(c1)CC(c1cccc(C(=O)N3CCN(c4nccs4)CC3)c1)=N2

>  <score_type>  (23) 
oracle

>  <origin>  (23) 
autodockgpu

>  <m_score__min__energy>  (23) 
-8.0099999999999998

>  <m_primary>  (23) 
energy

>  <rmsd>  (23) 
3.71358580731886

>  <m_score__min__rmsd>  (23) 
3.71358580731886

>  <meeko>  (23) 
{"free_energy": -7.96, "intermolecular_energy": -8.86, "internal_energy": -0.81, "cluster_size": 47, "cluster_id": 1, "rank_in_cluster": 31}

>  <energy>  (23) 
-7.97

>  <cluster_rmsd>  (23) 
0.16

>  <cluster>  (23) 
1

$$$$

     RDKit          3D

 51 55  0  0  0  0  0  0  0  0999 V2000
  141.4340   67.8290  229.1120 C   0  0  0  0  0  0  0  0  0  0  0  0
  141.0680   68.8800  228.1360 C   0  0  0  0  0  0  0  0  0  0  0  0
  141.4330   70.2000  228.3790 C   0  0  0  0  0  0  0  0  0  0  0  0
  141.0660   71.1360  227.4410 C   0  0  0  0  0  0  0  0  0  0  0  0
  140.3640   70.8200  226.2970 C   0  0  0  0  0  0  0  0  0  0  0  0
  140.0090   69.4990  226.0710 C   0  0  0  0  0  0  0  0  0  0  0  0
  140.3740   68.5540  227.0090 C   0  0  0  0  0  0  0  0  0  0  0  0
  139.2580   69.3890  224.7800 C   0  0  0  0  0  0  0  0  0  0  0  0
  139.2520   70.8030  224.3450 C   0  0  0  0  0  0  0  0  0  0  0  0
  138.6330   71.3110  223.1290 C   0  0  0  0  0  0  0  0  0  0  0  0
  137.3960   70.8910  222.7180 C   0  0  0  0  0  0  0  0  0  0  0  0
  136.8250   71.3790  221.5560 C   0  0  0  0  0  0  0  0  0  0  0  0
  137.4890   72.3110  220.7710 C   0  0  0  0  0  0  0  0  0  0  0  0
  138.7240   72.7420  221.1680 C   0  0  0  0  0  0  0  0  0  0  0  0
  139.5340   73.7130  220.4440 C   0  0  0  0  0  0  0  0  0  0  0  0
  140.1200   73.2860  219.4110 O   0  0  0  0  0  0  0  0  0  0  0  0
  139.6750   75.0720  220.8570 N   0  0  0  0  0  0  0  0  0  0  0  0
  139.0410   75.6360  222.0120 C   0  0  0  0  0  0  0  0  0  0  0  0
  139.3260   77.1030  222.1400 C   0  0  0  0  0  0  0  0  0  0  0  0
  140.7100   77.4590  221.9270 N   0  0  0  0  0  0  0  0  0  0  0  0
  141.2540   78.5950  222.5760 C   0  0  0  0  0  0  0  0  0  0  0  0
  142.3530   79.0440  222.8790 N   0  0  0  0  0  0  0  0  0  0  0  0
  142.5710   80.1730  223.5030 C   0  0  0  0  0  0  0  0  0  0  0  0
  141.4950   80.9080  223.8450 C   0  0  0  0  0  0  0  0  0  0  0  0
  140.1310   79.8850  223.2160 S   0  0  0  0  0  0  0  0  0  0  0  0
  141.4750   76.6040  221.0290 C   0  0  0  0  0  0  0  0  0  0  0  0
  140.5360   75.9290  220.0260 C   0  0  0  0  0  0  0  0  0  0  0  0
  139.2900   72.2400  222.3440 C   0  0  0  0  0  0  0  0  0  0  0  0
  139.8630   71.5580  225.1900 N   0  0  0  0  0  0  0  0  0  0  0  0
  141.2998   68.2144  230.1335 H   0  0  0  0  0  0  0  0  0  0  0  0
  140.7889   66.9504  228.9639 H   0  0  0  0  0  0  0  0  0  0  0  0
  142.4853   67.5412  228.9639 H   0  0  0  0  0  0  0  0  0  0  0  0
  141.9916   70.4831  229.2833 H   0  0  0  0  0  0  0  0  0  0  0  0
  141.3455   72.1862  227.6112 H   0  0  0  0  0  0  0  0  0  0  0  0
  140.0955   67.5031  226.8413 H   0  0  0  0  0  0  0  0  0  0  0  0
  139.7833   68.7454  224.0591 H   0  0  0  0  0  0  0  0  0  0  0  0
  138.2603   68.9345  224.8694 H   0  0  0  0  0  0  0  0  0  0  0  0
  136.8472   70.1533  223.3218 H   0  0  0  0  0  0  0  0  0  0  0  0
  135.8302   71.0230  221.2500 H   0  0  0  0  0  0  0  0  0  0  0  0
  137.0307   72.6952  219.8478 H   0  0  0  0  0  0  0  0  0  0  0  0
  137.9539   75.4899  221.9290 H   0  0  0  0  0  0  0  0  0  0  0  0
  139.4397   75.1300  222.9036 H   0  0  0  0  0  0  0  0  0  0  0  0
  138.7142   77.6390  221.3995 H   0  0  0  0  0  0  0  0  0  0  0  0
  139.0839   77.3824  223.1760 H   0  0  0  0  0  0  0  0  0  0  0  0
  143.5916   80.5086  223.7389 H   0  0  0  0  0  0  0  0  0  0  0  0
  141.4530   81.8747  224.3682 H   0  0  0  0  0  0  0  0  0  0  0  0
  142.2123   77.2131  220.4855 H   0  0  0  0  0  0  0  0  0  0  0  0
  141.9919   75.8316  221.6174 H   0  0  0  0  0  0  0  0  0  0  0  0
  139.9372   76.6781  219.4872 H   0  0  0  0  0  0  0  0  0  0  0  0
  141.0795   75.3605  219.2570 H   0  0  0  0  0  0  0  0  0  0  0  0
  140.2847   72.5938  222.6527 H   0  0  0  0  0  0  0  0  0  0  0  0
  1  2  1  0
  2  3  2  0
  3  4  1  0
  4  5  2  0
  5  6  1  0
  6  7  2  0
  6  8  1  0
  8  9  1  0
  9 10  1  0
 10 11  2  0
 11 12  1  0
 12 13  2  0
 13 14  1  0
 14 15  1  0
 15 16  2  0
 15 17  1  0
 17 18  1  0
 18 19  1  0
 19 20  1  0
 20 21  1  0
 21 22  2  0
 22 23  1  0
 23 24  2  0
 24 25  1  0
 20 26  1  0
 26 27  1  0
 14 28  2  0
  9 29  2  0
  7  2  1  0
 28 10  1  0
 29  5  1  0
 27 17  1  0
 25 21  1  0
  1 30  1  0
  1 31  1  0
  1 32  1  0
  3 33  1  0
  4 34  1  0
  7 35  1  0
  8 36  1  0
  8 37  1  0
 11 38  1  0
 12 39  1  0
 13 40  1  0
 18 41  1  0
 18 42  1  0
 19 43  1  0
 19 44  1  0
 23 45  1  0
 24 46  1  0
 26 47  1  0
 26 48  1  0
 27 49  1  0
 27 50  1  0
 28 51  1  0
M  END
>  <smiles>  (24) 
Cc1ccc2c(c1)CC(c1cccc(C(=O)N3CCN(c4nccs4)CC3)c1)=N2

>  <score_type>  (24) 
oracle

>  <origin>  (24) 
autodockgpu

>  <m_score__min__energy>  (24) 
-8.0099999999999998

>  <m_primary>  (24) 
energy

>  <rmsd>  (24) 
3.6034848479896

>  <m_score__min__rmsd>  (24) 
3.6034848479896

>  <meeko>  (24) 
{"free_energy": -7.97, "intermolecular_energy": -8.86, "internal_energy": -0.8, "cluster_size": 47, "cluster_id": 1, "rank_in_cluster": 28}

>  <energy>  (24) 
-7.97

>  <cluster_rmsd>  (24) 
0.17

>  <cluster>  (24) 
1

$$$$

     RDKit          3D

 51 55  0  0  0  0  0  0  0  0999 V2000
  141.4270   67.7810  229.0750 C   0  0  0  0  0  0  0  0  0  0  0  0
  141.0570   68.8340  228.1030 C   0  0  0  0  0  0  0  0  0  0  0  0
  141.4280   70.1530  228.3440 C   0  0  0  0  0  0  0  0  0  0  0  0
  141.0580   71.0910  227.4080 C   0  0  0  0  0  0  0  0  0  0  0  0
  140.3480   70.7770  226.2690 C   0  0  0  0  0  0  0  0  0  0  0  0
  139.9870   69.4570  226.0440 C   0  0  0  0  0  0  0  0  0  0  0  0
  140.3560   68.5110  226.9790 C   0  0  0  0  0  0  0  0  0  0  0  0
  139.2280   69.3510  224.7580 C   0  0  0  0  0  0  0  0  0  0  0  0
  139.2230   70.7650  224.3240 C   0  0  0  0  0  0  0  0  0  0  0  0
  138.5980   71.2760  223.1130 C   0  0  0  0  0  0  0  0  0  0  0  0
  137.3360   70.8970  222.7360 C   0  0  0  0  0  0  0  0  0  0  0  0
  136.7590   71.3870  221.5780 C   0  0  0  0  0  0  0  0  0  0  0  0
  137.4410   72.2780  220.7620 C   0  0  0  0  0  0  0  0  0  0  0  0
  138.7010   72.6670  221.1240 C   0  0  0  0  0  0  0  0  0  0  0  0
  139.5320   73.5920  220.3650 C   0  0  0  0  0  0  0  0  0  0  0  0
  140.0850   73.1210  219.3330 O   0  0  0  0  0  0  0  0  0  0  0  0
  139.7270   74.9550  220.7440 N   0  0  0  0  0  0  0  0  0  0  0  0
  139.1320   75.5670  221.8950 C   0  0  0  0  0  0  0  0  0  0  0  0
  139.4700   77.0250  221.9850 C   0  0  0  0  0  0  0  0  0  0  0  0
  140.8610   77.3270  221.7420 N   0  0  0  0  0  0  0  0  0  0  0  0
  141.4550   78.4570  222.3560 C   0  0  0  0  0  0  0  0  0  0  0  0
  142.5330   79.0400  222.3650 N   0  0  0  0  0  0  0  0  0  0  0  0
  142.8150   80.1150  223.0560 C   0  0  0  0  0  0  0  0  0  0  0  0
  141.8360   80.6270  223.8270 C   0  0  0  0  0  0  0  0  0  0  0  0
  140.4680   79.4750  223.5070 S   0  0  0  0  0  0  0  0  0  0  0  0
  141.5810   76.4260  220.8520 C   0  0  0  0  0  0  0  0  0  0  0  0
  140.6030   75.7620  219.8800 C   0  0  0  0  0  0  0  0  0  0  0  0
  139.2730   72.1630  222.2970 C   0  0  0  0  0  0  0  0  0  0  0  0
  139.8410   71.5170  225.1660 N   0  0  0  0  0  0  0  0  0  0  0  0
  141.2929   68.1627  230.0979 H   0  0  0  0  0  0  0  0  0  0  0  0
  140.7842   66.9011  228.9248 H   0  0  0  0  0  0  0  0  0  0  0  0
  142.4789   67.4966  228.9248 H   0  0  0  0  0  0  0  0  0  0  0  0
  141.9933   70.4341  229.2448 H   0  0  0  0  0  0  0  0  0  0  0  0
  141.3420   72.1403  227.5764 H   0  0  0  0  0  0  0  0  0  0  0  0
  140.0750   67.4608  226.8116 H   0  0  0  0  0  0  0  0  0  0  0  0
  139.7470   68.7066  224.0332 H   0  0  0  0  0  0  0  0  0  0  0  0
  138.2294   68.8996  224.8535 H   0  0  0  0  0  0  0  0  0  0  0  0
  136.7726   70.1916  223.3645 H   0  0  0  0  0  0  0  0  0  0  0  0
  135.7444   71.0654  221.3001 H   0  0  0  0  0  0  0  0  0  0  0  0
  136.9774   72.6638  219.8421 H   0  0  0  0  0  0  0  0  0  0  0  0
  138.0393   75.4576  221.8321 H   0  0  0  0  0  0  0  0  0  0  0  0
  139.5272   75.0674  222.7918 H   0  0  0  0  0  0  0  0  0  0  0  0
  138.8649   77.5657  221.2424 H   0  0  0  0  0  0  0  0  0  0  0  0
  139.2552   77.3357  223.0181 H   0  0  0  0  0  0  0  0  0  0  0  0
  143.8102   80.5812  223.0092 H   0  0  0  0  0  0  0  0  0  0  0  0
  141.8589   81.5119  224.4800 H   0  0  0  0  0  0  0  0  0  0  0  0
  142.3297   76.9967  220.2830 H   0  0  0  0  0  0  0  0  0  0  0  0
  142.0807   75.6495  221.4498 H   0  0  0  0  0  0  0  0  0  0  0  0
  140.0216   76.5192  219.3335 H   0  0  0  0  0  0  0  0  0  0  0  0
  141.1136   75.1576  219.1158 H   0  0  0  0  0  0  0  0  0  0  0  0
  140.2879   72.4817  222.5772 H   0  0  0  0  0  0  0  0  0  0  0  0
  1  2  1  0
  2  3  2  0
  3  4  1  0
  4  5  2  0
  5  6  1  0
  6  7  2  0
  6  8  1  0
  8  9  1  0
  9 10  1  0
 10 11  2  0
 11 12  1  0
 12 13  2  0
 13 14  1  0
 14 15  1  0
 15 16  2  0
 15 17  1  0
 17 18  1  0
 18 19  1  0
 19 20  1  0
 20 21  1  0
 21 22  2  0
 22 23  1  0
 23 24  2  0
 24 25  1  0
 20 26  1  0
 26 27  1  0
 14 28  2  0
  9 29  2  0
  7  2  1  0
 28 10  1  0
 29  5  1  0
 27 17  1  0
 25 21  1  0
  1 30  1  0
  1 31  1  0
  1 32  1  0
  3 33  1  0
  4 34  1  0
  7 35  1  0
  8 36  1  0
  8 37  1  0
 11 38  1  0
 12 39  1  0
 13 40  1  0
 18 41  1  0
 18 42  1  0
 19 43  1  0
 19 44  1  0
 23 45  1  0
 24 46  1  0
 26 47  1  0
 26 48  1  0
 27 49  1  0
 27 50  1  0
 28 51  1  0
M  END
>  <smiles>  (25) 
Cc1ccc2c(c1)CC(c1cccc(C(=O)N3CCN(c4nccs4)CC3)c1)=N2

>  <score_type>  (25) 
oracle

>  <origin>  (25) 
autodockgpu

>  <m_score__min__energy>  (25) 
-8.0099999999999998

>  <m_primary>  (25) 
energy

>  <rmsd>  (25) 
3.5608814161997504

>  <m_score__min__rmsd>  (25) 
3.5608814161997504

>  <meeko>  (25) 
{"free_energy": -7.96, "intermolecular_energy": -8.86, "internal_energy": -0.81, "cluster_size": 47, "cluster_id": 1, "rank_in_cluster": 32}

>  <energy>  (25) 
-7.97

>  <cluster_rmsd>  (25) 
0.72

>  <cluster>  (25) 
1

$$$$

     RDKit          3D

 51 55  0  0  0  0  0  0  0  0999 V2000
  141.4070   68.0530  229.1050 C   0  0  0  0  0  0  0  0  0  0  0  0
  141.0380   69.0490  228.0750 C   0  0  0  0  0  0  0  0  0  0  0  0
  141.3480   70.3910  228.2740 C   0  0  0  0  0  0  0  0  0  0  0  0
  140.9810   71.2730  227.2850 C   0  0  0  0  0  0  0  0  0  0  0  0
  140.3320   70.8850  226.1320 C   0  0  0  0  0  0  0  0  0  0  0  0
  140.0310   69.5430  225.9500 C   0  0  0  0  0  0  0  0  0  0  0  0
  140.3970   68.6520  226.9390 C   0  0  0  0  0  0  0  0  0  0  0  0
  139.3310   69.3540  224.6410 C   0  0  0  0  0  0  0  0  0  0  0  0
  139.2900   70.7470  224.1470 C   0  0  0  0  0  0  0  0  0  0  0  0
  138.6960   71.1820  222.8900 C   0  0  0  0  0  0  0  0  0  0  0  0
  137.5330   70.6380  222.4140 C   0  0  0  0  0  0  0  0  0  0  0  0
  136.9860   71.0580  221.2150 C   0  0  0  0  0  0  0  0  0  0  0  0
  137.5990   72.0450  220.4580 C   0  0  0  0  0  0  0  0  0  0  0  0
  138.7600   72.6010  220.9190 C   0  0  0  0  0  0  0  0  0  0  0  0
  139.5110   73.6420  220.2300 C   0  0  0  0  0  0  0  0  0  0  0  0
  140.0320   73.3130  219.1290 O   0  0  0  0  0  0  0  0  0  0  0  0
  139.6640   74.9630  220.7480 N   0  0  0  0  0  0  0  0  0  0  0  0
  139.1010   75.4180  221.9850 C   0  0  0  0  0  0  0  0  0  0  0  0
  139.3800   76.8730  222.2200 C   0  0  0  0  0  0  0  0  0  0  0  0
  140.7430   77.2660  221.9500 N   0  0  0  0  0  0  0  0  0  0  0  0
  141.3160   78.3520  222.6570 C   0  0  0  0  0  0  0  0  0  0  0  0
  141.6240   78.6420  223.8080 N   0  0  0  0  0  0  0  0  0  0  0  0
  142.1670   79.7680  224.1930 C   0  0  0  0  0  0  0  0  0  0  0  0
  142.4090   80.6930  223.2430 C   0  0  0  0  0  0  0  0  0  0  0  0
  141.8120   79.8550  221.7460 S   0  0  0  0  0  0  0  0  0  0  0  0
  141.4560   76.5030  220.9350 C   0  0  0  0  0  0  0  0  0  0  0  0
  140.4600   75.9010  219.9400 C   0  0  0  0  0  0  0  0  0  0  0  0
  139.3030   72.1660  222.1330 C   0  0  0  0  0  0  0  0  0  0  0  0
  139.8430   71.5580  224.9790 N   0  0  0  0  0  0  0  0  0  0  0  0
  141.2476   68.4832  230.1048 H   0  0  0  0  0  0  0  0  0  0  0  0
  140.7817   67.1556  228.9880 H   0  0  0  0  0  0  0  0  0  0  0  0
  142.4661   67.7797  228.9880 H   0  0  0  0  0  0  0  0  0  0  0  0
  141.8645   70.7316  229.1835 H   0  0  0  0  0  0  0  0  0  0  0  0
  141.2164   72.3390  227.4201 H   0  0  0  0  0  0  0  0  0  0  0  0
  140.1635   67.5853  226.8060 H   0  0  0  0  0  0  0  0  0  0  0  0
  139.9039   68.7014  223.9658 H   0  0  0  0  0  0  0  0  0  0  0  0
  138.3473   68.8675  224.7159 H   0  0  0  0  0  0  0  0  0  0  0  0
  137.0253   69.8539  222.9949 H   0  0  0  0  0  0  0  0  0  0  0  0
  136.0511   70.6024  220.8567 H   0  0  0  0  0  0  0  0  0  0  0  0
  137.1596   72.3743  219.5048 H   0  0  0  0  0  0  0  0  0  0  0  0
  138.0122   75.2635  221.9592 H   0  0  0  0  0  0  0  0  0  0  0  0
  139.5615   74.8442  222.8028 H   0  0  0  0  0  0  0  0  0  0  0  0
  138.7162   77.4610  221.5691 H   0  0  0  0  0  0  0  0  0  0  0  0
  139.2034   77.0597  223.2896 H   0  0  0  0  0  0  0  0  0  0  0  0
  142.4159   79.9524  225.2485 H   0  0  0  0  0  0  0  0  0  0  0  0
  142.8524   81.6943  223.3471 H   0  0  0  0  0  0  0  0  0  0  0  0
  142.1499   77.1677  220.3995 H   0  0  0  0  0  0  0  0  0  0  0  0
  142.0182   75.6916  221.4204 H   0  0  0  0  0  0  0  0  0  0  0  0
  139.8196   76.6837  219.5073 H   0  0  0  0  0  0  0  0  0  0  0  0
  140.9578   75.4086  219.0916 H   0  0  0  0  0  0  0  0  0  0  0  0
  140.2378   72.6193  222.4944 H   0  0  0  0  0  0  0  0  0  0  0  0
  1  2  1  0
  2  3  2  0
  3  4  1  0
  4  5  2  0
  5  6  1  0
  6  7  2  0
  6  8  1  0
  8  9  1  0
  9 10  1  0
 10 11  2  0
 11 12  1  0
 12 13  2  0
 13 14  1  0
 14 15  1  0
 15 16  2  0
 15 17  1  0
 17 18  1  0
 18 19  1  0
 19 20  1  0
 20 21  1  0
 21 22  2  0
 22 23  1  0
 23 24  2  0
 24 25  1  0
 20 26  1  0
 26 27  1  0
 14 28  2  0
  9 29  2  0
  7  2  1  0
 28 10  1  0
 29  5  1  0
 27 17  1  0
 25 21  1  0
  1 30  1  0
  1 31  1  0
  1 32  1  0
  3 33  1  0
  4 34  1  0
  7 35  1  0
  8 36  1  0
  8 37  1  0
 11 38  1  0
 12 39  1  0
 13 40  1  0
 18 41  1  0
 18 42  1  0
 19 43  1  0
 19 44  1  0
 23 45  1  0
 24 46  1  0
 26 47  1  0
 26 48  1  0
 27 49  1  0
 27 50  1  0
 28 51  1  0
M  END
>  <smiles>  (26) 
Cc1ccc2c(c1)CC(c1cccc(C(=O)N3CCN(c4nccs4)CC3)c1)=N2

>  <score_type>  (26) 
oracle

>  <origin>  (26) 
autodockgpu

>  <m_score__min__energy>  (26) 
-8.0099999999999998

>  <m_primary>  (26) 
energy

>  <rmsd>  (26) 
3.5736551207352942

>  <m_score__min__rmsd>  (26) 
3.5736551207352942

>  <meeko>  (26) 
{"free_energy": -7.95, "intermolecular_energy": -8.85, "internal_energy": -0.8, "cluster_size": 47, "cluster_id": 1, "rank_in_cluster": 35}

>  <energy>  (26) 
-7.97

>  <cluster_rmsd>  (26) 
0.77

>  <cluster>  (26) 
1

$$$$

     RDKit          3D

 51 55  0  0  0  0  0  0  0  0999 V2000
  141.0980   68.3160  228.7880 C   0  0  0  0  0  0  0  0  0  0  0  0
  140.8360   69.3240  227.7360 C   0  0  0  0  0  0  0  0  0  0  0  0
  141.1400   70.6600  227.9740 C   0  0  0  0  0  0  0  0  0  0  0  0
  140.8750   71.5540  226.9630 C   0  0  0  0  0  0  0  0  0  0  0  0
  140.3290   71.1820  225.7530 C   0  0  0  0  0  0  0  0  0  0  0  0
  140.0320   69.8460  225.5330 C   0  0  0  0  0  0  0  0  0  0  0  0
  140.2960   68.9430  226.5440 C   0  0  0  0  0  0  0  0  0  0  0  0
  139.4520   69.6740  224.1640 C   0  0  0  0  0  0  0  0  0  0  0  0
  139.4720   71.0720  223.6800 C   0  0  0  0  0  0  0  0  0  0  0  0
  139.0000   71.5230  222.3780 C   0  0  0  0  0  0  0  0  0  0  0  0
  137.9040   70.9660  221.7740 C   0  0  0  0  0  0  0  0  0  0  0  0
  137.4730   71.4020  220.5340 C   0  0  0  0  0  0  0  0  0  0  0  0
  138.1380   72.4180  219.8640 C   0  0  0  0  0  0  0  0  0  0  0  0
  139.2330   72.9870  220.4530 C   0  0  0  0  0  0  0  0  0  0  0  0
  140.0260   74.0580  219.8670 C   0  0  0  0  0  0  0  0  0  0  0  0
  140.6710   73.7630  218.8230 O   0  0  0  0  0  0  0  0  0  0  0  0
  140.0900   75.3730  220.4200 N   0  0  0  0  0  0  0  0  0  0  0  0
  139.3860   75.7900  221.5970 C   0  0  0  0  0  0  0  0  0  0  0  0
  139.6010   77.2460  221.8840 C   0  0  0  0  0  0  0  0  0  0  0  0
  140.9750   77.6770  221.7690 N   0  0  0  0  0  0  0  0  0  0  0  0
  141.4410   78.7610  222.5520 C   0  0  0  0  0  0  0  0  0  0  0  0
  142.4650   79.1060  223.1310 N   0  0  0  0  0  0  0  0  0  0  0  0
  142.6240   80.2150  223.8070 C   0  0  0  0  0  0  0  0  0  0  0  0
  141.5710   81.0530  223.8760 C   0  0  0  0  0  0  0  0  0  0  0  0
  140.3200   80.1600  222.9060 S   0  0  0  0  0  0  0  0  0  0  0  0
  141.8120   76.9500  220.8240 C   0  0  0  0  0  0  0  0  0  0  0  0
  140.9440   76.3440  219.7180 C   0  0  0  0  0  0  0  0  0  0  0  0
  139.6580   72.5350  221.7070 C   0  0  0  0  0  0  0  0  0  0  0  0
  139.9560   71.8700  224.5660 N   0  0  0  0  0  0  0  0  0  0  0  0
  140.9775   68.7796  229.7782 H   0  0  0  0  0  0  0  0  0  0  0  0
  140.3863   67.4837  228.6837 H   0  0  0  0  0  0  0  0  0  0  0  0
  142.1249   67.9356  228.6837 H   0  0  0  0  0  0  0  0  0  0  0  0
  141.5739   70.9878  228.9302 H   0  0  0  0  0  0  0  0  0  0  0  0
  141.1098   72.6160  227.1276 H   0  0  0  0  0  0  0  0  0  0  0  0
  140.0626   67.8804  226.3818 H   0  0  0  0  0  0  0  0  0  0  0  0
  140.0767   69.0195  223.5384 H   0  0  0  0  0  0  0  0  0  0  0  0
  138.4604   69.1983  224.1447 H   0  0  0  0  0  0  0  0  0  0  0  0
  137.3576   70.1586  222.2835 H   0  0  0  0  0  0  0  0  0  0  0  0
  136.5899   70.9360  220.0726 H   0  0  0  0  0  0  0  0  0  0  0  0
  137.7912   72.7596  218.8776 H   0  0  0  0  0  0  0  0  0  0  0  0
  138.3106   75.6101  221.4519 H   0  0  0  0  0  0  0  0  0  0  0  0
  139.7704   75.2115  222.4500 H   0  0  0  0  0  0  0  0  0  0  0  0
  138.9960   77.8301  221.1749 H   0  0  0  0  0  0  0  0  0  0  0  0
  139.3062   77.4080  222.9313 H   0  0  0  0  0  0  0  0  0  0  0  0
  143.5785   80.4535  224.2990 H   0  0  0  0  0  0  0  0  0  0  0  0
  141.4898   82.0241  224.3862 H   0  0  0  0  0  0  0  0  0  0  0  0
  142.5423   77.6407  220.3773 H   0  0  0  0  0  0  0  0  0  0  0  0
  142.3392   76.1429  221.3537 H   0  0  0  0  0  0  0  0  0  0  0  0
  140.3343   77.1197  219.2316 H   0  0  0  0  0  0  0  0  0  0  0  0
  141.5421   75.8794  218.9202 H   0  0  0  0  0  0  0  0  0  0  0  0
  140.5408   72.9986  222.1714 H   0  0  0  0  0  0  0  0  0  0  0  0
  1  2  1  0
  2  3  2  0
  3  4  1  0
  4  5  2  0
  5  6  1  0
  6  7  2  0
  6  8  1  0
  8  9  1  0
  9 10  1  0
 10 11  2  0
 11 12  1  0
 12 13  2  0
 13 14  1  0
 14 15  1  0
 15 16  2  0
 15 17  1  0
 17 18  1  0
 18 19  1  0
 19 20  1  0
 20 21  1  0
 21 22  2  0
 22 23  1  0
 23 24  2  0
 24 25  1  0
 20 26  1  0
 26 27  1  0
 14 28  2  0
  9 29  2  0
  7  2  1  0
 28 10  1  0
 29  5  1  0
 27 17  1  0
 25 21  1  0
  1 30  1  0
  1 31  1  0
  1 32  1  0
  3 33  1  0
  4 34  1  0
  7 35  1  0
  8 36  1  0
  8 37  1  0
 11 38  1  0
 12 39  1  0
 13 40  1  0
 18 41  1  0
 18 42  1  0
 19 43  1  0
 19 44  1  0
 23 45  1  0
 24 46  1  0
 26 47  1  0
 26 48  1  0
 27 49  1  0
 27 50  1  0
 28 51  1  0
M  END
>  <smiles>  (27) 
Cc1ccc2c(c1)CC(c1cccc(C(=O)N3CCN(c4nccs4)CC3)c1)=N2

>  <score_type>  (27) 
oracle

>  <origin>  (27) 
autodockgpu

>  <m_score__min__energy>  (27) 
-8.0099999999999998

>  <m_primary>  (27) 
energy

>  <rmsd>  (27) 
3.925851488831297

>  <m_score__min__rmsd>  (27) 
3.925851488831297

>  <meeko>  (27) 
{"free_energy": -7.77, "intermolecular_energy": -8.66, "internal_energy": -0.8, "cluster_size": 47, "cluster_id": 1, "rank_in_cluster": 47}

>  <energy>  (27) 
-7.97

>  <cluster_rmsd>  (27) 
0.69

>  <cluster>  (27) 
1

$$$$

     RDKit          3D

 51 55  0  0  0  0  0  0  0  0999 V2000
  141.3900   68.1410  229.0900 C   0  0  0  0  0  0  0  0  0  0  0  0
  141.0710   69.1760  228.0810 C   0  0  0  0  0  0  0  0  0  0  0  0
  141.3900   70.5060  228.3360 C   0  0  0  0  0  0  0  0  0  0  0  0
  141.0710   71.4250  227.3640 C   0  0  0  0  0  0  0  0  0  0  0  0
  140.4590   71.0840  226.1770 C   0  0  0  0  0  0  0  0  0  0  0  0
  140.1480   69.7540  225.9400 C   0  0  0  0  0  0  0  0  0  0  0  0
  140.4660   68.8260  226.9110 C   0  0  0  0  0  0  0  0  0  0  0  0
  139.4930   69.6180  224.6010 C   0  0  0  0  0  0  0  0  0  0  0  0
  139.4880   71.0270  224.1520 C   0  0  0  0  0  0  0  0  0  0  0  0
  138.9450   71.5110  222.8910 C   0  0  0  0  0  0  0  0  0  0  0  0
  137.7920   71.0000  222.3560 C   0  0  0  0  0  0  0  0  0  0  0  0
  137.2940   71.4670  221.1530 C   0  0  0  0  0  0  0  0  0  0  0  0
  137.9480   72.4690  220.4500 C   0  0  0  0  0  0  0  0  0  0  0  0
  139.1000   72.9910  220.9700 C   0  0  0  0  0  0  0  0  0  0  0  0
  139.8890   74.0420  220.3430 C   0  0  0  0  0  0  0  0  0  0  0  0
  140.6280   73.6840  219.3850 O   0  0  0  0  0  0  0  0  0  0  0  0
  139.8490   75.4050  220.7670 N   0  0  0  0  0  0  0  0  0  0  0  0
  139.0360   75.8940  221.8410 C   0  0  0  0  0  0  0  0  0  0  0  0
  139.1620   77.3800  222.0000 C   0  0  0  0  0  0  0  0  0  0  0  0
  140.5200   77.8690  221.9470 N   0  0  0  0  0  0  0  0  0  0  0  0
  140.8730   79.0460  222.6520 C   0  0  0  0  0  0  0  0  0  0  0  0
  140.3210   79.9680  223.2390 N   0  0  0  0  0  0  0  0  0  0  0  0
  140.9240   80.9680  223.8300 C   0  0  0  0  0  0  0  0  0  0  0  0
  142.2700   80.9880  223.7900 C   0  0  0  0  0  0  0  0  0  0  0  0
  142.6370   79.4770  222.8490 S   0  0  0  0  0  0  0  0  0  0  0  0
  141.4610   77.1010  221.1430 C   0  0  0  0  0  0  0  0  0  0  0  0
  140.7130   76.3490  220.0400 C   0  0  0  0  0  0  0  0  0  0  0  0
  139.5920   72.5090  222.1880 C   0  0  0  0  0  0  0  0  0  0  0  0
  140.0210   71.8020  225.0300 N   0  0  0  0  0  0  0  0  0  0  0  0
  141.2608   68.5602  230.0987 H   0  0  0  0  0  0  0  0  0  0  0  0
  140.7148   67.2823  228.9605 H   0  0  0  0  0  0  0  0  0  0  0  0
  142.4314   67.8114  228.9605 H   0  0  0  0  0  0  0  0  0  0  0  0
  141.8765   70.8094  229.2748 H   0  0  0  0  0  0  0  0  0  0  0  0
  141.3159   72.4825  227.5423 H   0  0  0  0  0  0  0  0  0  0  0  0
  140.2228   67.7678  226.7345 H   0  0  0  0  0  0  0  0  0  0  0  0
  140.0812   68.9797  223.9253 H   0  0  0  0  0  0  0  0  0  0  0  0
  138.5009   69.1436  224.6249 H   0  0  0  0  0  0  0  0  0  0  0  0
  137.2531   70.2049  222.8921 H   0  0  0  0  0  0  0  0  0  0  0  0
  136.3659   71.0378  220.7476 H   0  0  0  0  0  0  0  0  0  0  0  0
  137.5476   72.8361  219.4934 H   0  0  0  0  0  0  0  0  0  0  0  0
  137.9846   75.6455  221.6339 H   0  0  0  0  0  0  0  0  0  0  0  0
  139.3771   75.4193  222.7728 H   0  0  0  0  0  0  0  0  0  0  0  0
  138.5900   77.8627  221.1939 H   0  0  0  0  0  0  0  0  0  0  0  0
  138.7775   77.6240  223.0013 H   0  0  0  0  0  0  0  0  0  0  0  0
  140.3546   81.7599  224.3387 H   0  0  0  0  0  0  0  0  0  0  0  0
  142.9657   81.7261  224.2157 H   0  0  0  0  0  0  0  0  0  0  0  0
  142.1928   77.7839  220.6868 H   0  0  0  0  0  0  0  0  0  0  0  0
  141.9795   76.3758  221.7874 H   0  0  0  0  0  0  0  0  0  0  0  0
  140.1105   77.0424  219.4349 H   0  0  0  0  0  0  0  0  0  0  0  0
  141.3937   75.8428  219.3396 H   0  0  0  0  0  0  0  0  0  0  0  0
  140.5194   72.9364  222.5970 H   0  0  0  0  0  0  0  0  0  0  0  0
  1  2  1  0
  2  3  2  0
  3  4  1  0
  4  5  2  0
  5  6  1  0
  6  7  2  0
  6  8  1  0
  8  9  1  0
  9 10  1  0
 10 11  2  0
 11 12  1  0
 12 13  2  0
 13 14  1  0
 14 15  1  0
 15 16  2  0
 15 17  1  0
 17 18  1  0
 18 19  1  0
 19 20  1  0
 20 21  1  0
 21 22  2  0
 22 23  1  0
 23 24  2  0
 24 25  1  0
 20 26  1  0
 26 27  1  0
 14 28  2  0
  9 29  2  0
  7  2  1  0
 28 10  1  0
 29  5  1  0
 27 17  1  0
 25 21  1  0
  1 30  1  0
  1 31  1  0
  1 32  1  0
  3 33  1  0
  4 34  1  0
  7 35  1  0
  8 36  1  0
  8 37  1  0
 11 38  1  0
 12 39  1  0
 13 40  1  0
 18 41  1  0
 18 42  1  0
 19 43  1  0
 19 44  1  0
 23 45  1  0
 24 46  1  0
 26 47  1  0
 26 48  1  0
 27 49  1  0
 27 50  1  0
 28 51  1  0
M  END
>  <smiles>  (28) 
Cc1ccc2c(c1)CC(c1cccc(C(=O)N3CCN(c4nccs4)CC3)c1)=N2

>  <score_type>  (28) 
oracle

>  <origin>  (28) 
autodockgpu

>  <m_score__min__energy>  (28) 
-8.0099999999999998

>  <m_primary>  (28) 
energy

>  <rmsd>  (28) 
3.7746896355256174

>  <m_score__min__rmsd>  (28) 
3.7746896355256174

>  <meeko>  (28) 
{"free_energy": -7.98, "intermolecular_energy": -8.88, "internal_energy": -0.8, "cluster_size": 47, "cluster_id": 1, "rank_in_cluster": 18}

>  <energy>  (28) 
-7.97

>  <cluster_rmsd>  (28) 
0.55

>  <cluster>  (28) 
1

$$$$

     RDKit          3D

 51 55  0  0  0  0  0  0  0  0999 V2000
  141.4380   67.9550  229.1080 C   0  0  0  0  0  0  0  0  0  0  0  0
  141.0580   68.9720  228.1020 C   0  0  0  0  0  0  0  0  0  0  0  0
  141.3820   70.3070  228.3190 C   0  0  0  0  0  0  0  0  0  0  0  0
  141.0040   71.2100  227.3530 C   0  0  0  0  0  0  0  0  0  0  0  0
  140.3300   70.8470  226.2060 C   0  0  0  0  0  0  0  0  0  0  0  0
  140.0150   69.5110  226.0070 C   0  0  0  0  0  0  0  0  0  0  0  0
  140.3920   68.6000  226.9730 C   0  0  0  0  0  0  0  0  0  0  0  0
  139.2880   69.3500  224.7080 C   0  0  0  0  0  0  0  0  0  0  0  0
  139.2490   70.7520  224.2390 C   0  0  0  0  0  0  0  0  0  0  0  0
  138.6350   71.2140  223.0020 C   0  0  0  0  0  0  0  0  0  0  0  0
  137.4370   70.7170  222.5610 C   0  0  0  0  0  0  0  0  0  0  0  0
  136.8710   71.1620  221.3800 C   0  0  0  0  0  0  0  0  0  0  0  0
  137.5000   72.1260  220.6050 C   0  0  0  0  0  0  0  0  0  0  0  0
  138.6960   72.6340  221.0310 C   0  0  0  0  0  0  0  0  0  0  0  0
  139.4660   73.6460  220.3220 C   0  0  0  0  0  0  0  0  0  0  0  0
  139.9870   73.2820  219.2310 O   0  0  0  0  0  0  0  0  0  0  0  0
  139.6380   74.9770  220.8080 N   0  0  0  0  0  0  0  0  0  0  0  0
  139.0760   75.4700  222.0310 C   0  0  0  0  0  0  0  0  0  0  0  0
  139.3760   76.9260  222.2320 C   0  0  0  0  0  0  0  0  0  0  0  0
  140.7470   77.2920  221.9590 N   0  0  0  0  0  0  0  0  0  0  0  0
  141.3340   78.3850  222.6430 C   0  0  0  0  0  0  0  0  0  0  0  0
  141.6420   78.6970  223.7870 N   0  0  0  0  0  0  0  0  0  0  0  0
  142.2000   79.8240  224.1480 C   0  0  0  0  0  0  0  0  0  0  0  0
  142.4600   80.7230  223.1780 C   0  0  0  0  0  0  0  0  0  0  0  0
  141.8560   79.8580  221.6980 S   0  0  0  0  0  0  0  0  0  0  0  0
  141.4530   76.4930  220.9670 C   0  0  0  0  0  0  0  0  0  0  0  0
  140.4520   75.8820  219.9820 C   0  0  0  0  0  0  0  0  0  0  0  0
  139.2570   72.1740  222.2280 C   0  0  0  0  0  0  0  0  0  0  0  0
  139.8250   71.5440  225.0740 N   0  0  0  0  0  0  0  0  0  0  0  0
  141.2854   68.3634  230.1179 H   0  0  0  0  0  0  0  0  0  0  0  0
  140.8142   67.0585  228.9769 H   0  0  0  0  0  0  0  0  0  0  0  0
  142.4968   67.6873  228.9769 H   0  0  0  0  0  0  0  0  0  0  0  0
  141.9178   70.6270  229.2248 H   0  0  0  0  0  0  0  0  0  0  0  0
  141.2508   72.2715  227.5023 H   0  0  0  0  0  0  0  0  0  0  0  0
  140.1465   67.5378  226.8265 H   0  0  0  0  0  0  0  0  0  0  0  0
  139.8424   68.7048  224.0107 H   0  0  0  0  0  0  0  0  0  0  0  0
  138.3020   68.8699  224.7935 H   0  0  0  0  0  0  0  0  0  0  0  0
  136.9168   69.9517  223.1557 H   0  0  0  0  0  0  0  0  0  0  0  0
  135.9078   70.7455  221.0502 H   0  0  0  0  0  0  0  0  0  0  0  0
  137.0453   72.4748  219.6661 H   0  0  0  0  0  0  0  0  0  0  0  0
  137.9851   75.3312  222.0035 H   0  0  0  0  0  0  0  0  0  0  0  0
  139.5237   74.9093  222.8648 H   0  0  0  0  0  0  0  0  0  0  0  0
  138.7241   77.5079  221.5638 H   0  0  0  0  0  0  0  0  0  0  0  0
  139.1974   77.1414  223.2958 H   0  0  0  0  0  0  0  0  0  0  0  0
  142.4468   80.0294  225.2001 H   0  0  0  0  0  0  0  0  0  0  0  0
  142.9180   81.7197  223.2605 H   0  0  0  0  0  0  0  0  0  0  0  0
  142.1598   77.1332  220.4188 H   0  0  0  0  0  0  0  0  0  0  0  0
  142.0003   75.6854  221.4751 H   0  0  0  0  0  0  0  0  0  0  0  0
  139.8259   76.6637  219.5270 H   0  0  0  0  0  0  0  0  0  0  0  0
  140.9460   75.3612  219.1485 H   0  0  0  0  0  0  0  0  0  0  0  0
  140.2198   72.5885  222.5614 H   0  0  0  0  0  0  0  0  0  0  0  0
  1  2  1  0
  2  3  2  0
  3  4  1  0
  4  5  2  0
  5  6  1  0
  6  7  2  0
  6  8  1  0
  8  9  1  0
  9 10  1  0
 10 11  2  0
 11 12  1  0
 12 13  2  0
 13 14  1  0
 14 15  1  0
 15 16  2  0
 15 17  1  0
 17 18  1  0
 18 19  1  0
 19 20  1  0
 20 21  1  0
 21 22  2  0
 22 23  1  0
 23 24  2  0
 24 25  1  0
 20 26  1  0
 26 27  1  0
 14 28  2  0
  9 29  2  0
  7  2  1  0
 28 10  1  0
 29  5  1  0
 27 17  1  0
 25 21  1  0
  1 30  1  0
  1 31  1  0
  1 32  1  0
  3 33  1  0
  4 34  1  0
  7 35  1  0
  8 36  1  0
  8 37  1  0
 11 38  1  0
 12 39  1  0
 13 40  1  0
 18 41  1  0
 18 42  1  0
 19 43  1  0
 19 44  1  0
 23 45  1  0
 24 46  1  0
 26 47  1  0
 26 48  1  0
 27 49  1  0
 27 50  1  0
 28 51  1  0
M  END
>  <smiles>  (29) 
Cc1ccc2c(c1)CC(c1cccc(C(=O)N3CCN(c4nccs4)CC3)c1)=N2

>  <score_type>  (29) 
oracle

>  <origin>  (29) 
autodockgpu

>  <m_score__min__energy>  (29) 
-8.0099999999999998

>  <m_primary>  (29) 
energy

>  <rmsd>  (29) 
3.5706842411353237

>  <m_score__min__rmsd>  (29) 
3.5706842411353237

>  <meeko>  (29) 
{"free_energy": -7.99, "intermolecular_energy": -8.88, "internal_energy": -0.8, "cluster_size": 47, "cluster_id": 1, "rank_in_cluster": 16}

>  <energy>  (29) 
-7.97

>  <cluster_rmsd>  (29) 
0.16

>  <cluster>  (29) 
1

$$$$

     RDKit          3D

 51 55  0  0  0  0  0  0  0  0999 V2000
  141.4520   67.8250  229.0770 C   0  0  0  0  0  0  0  0  0  0  0  0
  141.0810   68.8770  228.1040 C   0  0  0  0  0  0  0  0  0  0  0  0
  141.4440   70.1980  228.3480 C   0  0  0  0  0  0  0  0  0  0  0  0
  141.0720   71.1340  227.4110 C   0  0  0  0  0  0  0  0  0  0  0  0
  140.3680   70.8180  226.2690 C   0  0  0  0  0  0  0  0  0  0  0  0
  140.0150   69.4960  226.0420 C   0  0  0  0  0  0  0  0  0  0  0  0
  140.3850   68.5520  226.9780 C   0  0  0  0  0  0  0  0  0  0  0  0
  139.2610   69.3870  224.7530 C   0  0  0  0  0  0  0  0  0  0  0  0
  139.2510   70.8010  224.3200 C   0  0  0  0  0  0  0  0  0  0  0  0
  138.6280   71.3100  223.1060 C   0  0  0  0  0  0  0  0  0  0  0  0
  137.3900   70.8880  222.6990 C   0  0  0  0  0  0  0  0  0  0  0  0
  136.8150   71.3770  221.5390 C   0  0  0  0  0  0  0  0  0  0  0  0
  137.4750   72.3090  220.7530 C   0  0  0  0  0  0  0  0  0  0  0  0
  138.7110   72.7420  221.1460 C   0  0  0  0  0  0  0  0  0  0  0  0
  139.5170   73.7140  220.4200 C   0  0  0  0  0  0  0  0  0  0  0  0
  140.0980   73.2890  219.3830 O   0  0  0  0  0  0  0  0  0  0  0  0
  139.6610   75.0720  220.8360 N   0  0  0  0  0  0  0  0  0  0  0  0
  139.0340   75.6340  221.9960 C   0  0  0  0  0  0  0  0  0  0  0  0
  139.3210   77.1000  222.1260 C   0  0  0  0  0  0  0  0  0  0  0  0
  140.7040   77.4550  221.9070 N   0  0  0  0  0  0  0  0  0  0  0  0
  141.2520   78.5890  222.5560 C   0  0  0  0  0  0  0  0  0  0  0  0
  142.3520   79.0290  222.8690 N   0  0  0  0  0  0  0  0  0  0  0  0
  142.5750   80.1580  223.4890 C   0  0  0  0  0  0  0  0  0  0  0  0
  141.5030   80.9060  223.8150 C   0  0  0  0  0  0  0  0  0  0  0  0
  140.1350   79.8940  223.1760 S   0  0  0  0  0  0  0  0  0  0  0  0
  141.4630   76.6020  221.0030 C   0  0  0  0  0  0  0  0  0  0  0  0
  140.5180   75.9310  220.0030 C   0  0  0  0  0  0  0  0  0  0  0  0
  139.2810   72.2390  222.3200 C   0  0  0  0  0  0  0  0  0  0  0  0
  139.8620   71.5560  225.1640 N   0  0  0  0  0  0  0  0  0  0  0  0
  141.3172   68.2073  230.0996 H   0  0  0  0  0  0  0  0  0  0  0  0
  140.8102   66.9442  228.9272 H   0  0  0  0  0  0  0  0  0  0  0  0
  142.5043   67.5417  228.9272 H   0  0  0  0  0  0  0  0  0  0  0  0
  142.0042   70.4816  229.2512 H   0  0  0  0  0  0  0  0  0  0  0  0
  141.3496   72.1847  227.5813 H   0  0  0  0  0  0  0  0  0  0  0  0
  140.1087   67.5007  226.8096 H   0  0  0  0  0  0  0  0  0  0  0  0
  139.7856   68.7454  224.0297 H   0  0  0  0  0  0  0  0  0  0  0  0
  138.2643   68.9308  224.8446 H   0  0  0  0  0  0  0  0  0  0  0  0
  136.8442   70.1488  223.3037 H   0  0  0  0  0  0  0  0  0  0  0  0
  135.8193   71.0208  221.2361 H   0  0  0  0  0  0  0  0  0  0  0  0
  137.0134   72.6926  219.8312 H   0  0  0  0  0  0  0  0  0  0  0  0
  137.9463   75.4891  221.9188 H   0  0  0  0  0  0  0  0  0  0  0  0
  139.4373   75.1255  222.8841 H   0  0  0  0  0  0  0  0  0  0  0  0
  138.7060   77.6384  221.3898 H   0  0  0  0  0  0  0  0  0  0  0  0
  139.0843   77.3773  223.1638 H   0  0  0  0  0  0  0  0  0  0  0  0
  143.5965   80.4841  223.7346 H   0  0  0  0  0  0  0  0  0  0  0  0
  141.4654   81.8758  224.3327 H   0  0  0  0  0  0  0  0  0  0  0  0
  142.1982   77.2118  220.4574 H   0  0  0  0  0  0  0  0  0  0  0  0
  141.9820   75.8273  221.5865 H   0  0  0  0  0  0  0  0  0  0  0  0
  139.9168   76.6823  219.4700 H   0  0  0  0  0  0  0  0  0  0  0  0
  141.0568   75.3646  219.2291 H   0  0  0  0  0  0  0  0  0  0  0  0
  140.2766   72.5930  222.6256 H   0  0  0  0  0  0  0  0  0  0  0  0
  1  2  1  0
  2  3  2  0
  3  4  1  0
  4  5  2  0
  5  6  1  0
  6  7  2  0
  6  8  1  0
  8  9  1  0
  9 10  1  0
 10 11  2  0
 11 12  1  0
 12 13  2  0
 13 14  1  0
 14 15  1  0
 15 16  2  0
 15 17  1  0
 17 18  1  0
 18 19  1  0
 19 20  1  0
 20 21  1  0
 21 22  2  0
 22 23  1  0
 23 24  2  0
 24 25  1  0
 20 26  1  0
 26 27  1  0
 14 28  2  0
  9 29  2  0
  7  2  1  0
 28 10  1  0
 29  5  1  0
 27 17  1  0
 25 21  1  0
  1 30  1  0
  1 31  1  0
  1 32  1  0
  3 33  1  0
  4 34  1  0
  7 35  1  0
  8 36  1  0
  8 37  1  0
 11 38  1  0
 12 39  1  0
 13 40  1  0
 18 41  1  0
 18 42  1  0
 19 43  1  0
 19 44  1  0
 23 45  1  0
 24 46  1  0
 26 47  1  0
 26 48  1  0
 27 49  1  0
 27 50  1  0
 28 51  1  0
M  END
>  <smiles>  (30) 
Cc1ccc2c(c1)CC(c1cccc(C(=O)N3CCN(c4nccs4)CC3)c1)=N2

>  <score_type>  (30) 
oracle

>  <origin>  (30) 
autodockgpu

>  <m_score__min__energy>  (30) 
-8.0099999999999998

>  <m_primary>  (30) 
energy

>  <rmsd>  (30) 
3.604659352626742

>  <m_score__min__rmsd>  (30) 
3.604659352626742

>  <meeko>  (30) 
{"free_energy": -7.98, "intermolecular_energy": -8.87, "internal_energy": -0.8, "cluster_size": 47, "cluster_id": 1, "rank_in_cluster": 20}

>  <energy>  (30) 
-7.97

>  <cluster_rmsd>  (30) 
0.63

>  <cluster>  (30) 
1

$$$$

     RDKit          3D

 51 55  0  0  0  0  0  0  0  0999 V2000
  141.4380   67.8880  229.0820 C   0  0  0  0  0  0  0  0  0  0  0  0
  141.0720   68.9260  228.0930 C   0  0  0  0  0  0  0  0  0  0  0  0
  141.4320   70.2500  228.3210 C   0  0  0  0  0  0  0  0  0  0  0  0
  141.0660   71.1740  227.3700 C   0  0  0  0  0  0  0  0  0  0  0  0
  140.3690   70.8410  226.2270 C   0  0  0  0  0  0  0  0  0  0  0  0
  140.0190   69.5160  226.0160 C   0  0  0  0  0  0  0  0  0  0  0  0
  140.3840   68.5850  226.9670 C   0  0  0  0  0  0  0  0  0  0  0  0
  139.2740   69.3890  224.7230 C   0  0  0  0  0  0  0  0  0  0  0  0
  139.2650   70.7970  224.2720 C   0  0  0  0  0  0  0  0  0  0  0  0
  138.6490   71.2890  223.0470 C   0  0  0  0  0  0  0  0  0  0  0  0
  137.4200   70.8510  222.6310 C   0  0  0  0  0  0  0  0  0  0  0  0
  136.8520   71.3230  221.4610 C   0  0  0  0  0  0  0  0  0  0  0  0
  137.5100   72.2560  220.6730 C   0  0  0  0  0  0  0  0  0  0  0  0
  138.7380   72.7050  221.0750 C   0  0  0  0  0  0  0  0  0  0  0  0
  139.5410   73.6800  220.3500 C   0  0  0  0  0  0  0  0  0  0  0  0
  140.1240   73.2560  219.3140 O   0  0  0  0  0  0  0  0  0  0  0  0
  139.6800   75.0390  220.7640 N   0  0  0  0  0  0  0  0  0  0  0  0
  139.0490   75.5990  221.9230 C   0  0  0  0  0  0  0  0  0  0  0  0
  139.3300   77.0660  222.0520 C   0  0  0  0  0  0  0  0  0  0  0  0
  140.7120   77.4260  221.8340 N   0  0  0  0  0  0  0  0  0  0  0  0
  141.2550   78.5630  222.4820 C   0  0  0  0  0  0  0  0  0  0  0  0
  142.3540   79.0550  222.7110 N   0  0  0  0  0  0  0  0  0  0  0  0
  142.5710   80.1690  223.3620 C   0  0  0  0  0  0  0  0  0  0  0  0
  141.4950   80.8350  223.8230 C   0  0  0  0  0  0  0  0  0  0  0  0
  140.1310   79.7690  223.2690 S   0  0  0  0  0  0  0  0  0  0  0  0
  141.4750   76.5750  220.9320 C   0  0  0  0  0  0  0  0  0  0  0  0
  140.5340   75.8990  219.9310 C   0  0  0  0  0  0  0  0  0  0  0  0
  139.3010   72.2180  222.2600 C   0  0  0  0  0  0  0  0  0  0  0  0
  139.8700   71.5640  225.1100 N   0  0  0  0  0  0  0  0  0  0  0  0
  141.2982   68.2845  230.0985 H   0  0  0  0  0  0  0  0  0  0  0  0
  140.7969   67.0053  228.9414 H   0  0  0  0  0  0  0  0  0  0  0  0
  142.4910   67.6026  228.9414 H   0  0  0  0  0  0  0  0  0  0  0  0
  141.9862   70.5458  229.2240 H   0  0  0  0  0  0  0  0  0  0  0  0
  141.3418   72.2271  227.5282 H   0  0  0  0  0  0  0  0  0  0  0  0
  140.1102   67.5311  226.8108 H   0  0  0  0  0  0  0  0  0  0  0  0
  139.8046   68.7390  224.0117 H   0  0  0  0  0  0  0  0  0  0  0  0
  138.2774   68.9323  224.8134 H   0  0  0  0  0  0  0  0  0  0  0  0
  136.8755   70.1118  223.2369 H   0  0  0  0  0  0  0  0  0  0  0  0
  135.8637   70.9528  221.1509 H   0  0  0  0  0  0  0  0  0  0  0  0
  137.0535   72.6273  219.7436 H   0  0  0  0  0  0  0  0  0  0  0  0
  137.9620   75.4496  221.8445 H   0  0  0  0  0  0  0  0  0  0  0  0
  139.4528   75.0926  222.8121 H   0  0  0  0  0  0  0  0  0  0  0  0
  138.7137   77.6014  221.3147 H   0  0  0  0  0  0  0  0  0  0  0  0
  139.0911   77.3434  223.0893 H   0  0  0  0  0  0  0  0  0  0  0  0
  143.5911   80.5464  223.5262 H   0  0  0  0  0  0  0  0  0  0  0  0
  141.4527   81.7781  224.3876 H   0  0  0  0  0  0  0  0  0  0  0  0
  142.2086   77.1870  220.3867 H   0  0  0  0  0  0  0  0  0  0  0  0
  141.9958   75.8028  221.5172 H   0  0  0  0  0  0  0  0  0  0  0  0
  139.9307   76.6472  219.3959 H   0  0  0  0  0  0  0  0  0  0  0  0
  141.0758   75.3337  219.1584 H   0  0  0  0  0  0  0  0  0  0  0  0
  140.2896   72.5850  222.5731 H   0  0  0  0  0  0  0  0  0  0  0  0
  1  2  1  0
  2  3  2  0
  3  4  1  0
  4  5  2  0
  5  6  1  0
  6  7  2  0
  6  8  1  0
  8  9  1  0
  9 10  1  0
 10 11  2  0
 11 12  1  0
 12 13  2  0
 13 14  1  0
 14 15  1  0
 15 16  2  0
 15 17  1  0
 17 18  1  0
 18 19  1  0
 19 20  1  0
 20 21  1  0
 21 22  2  0
 22 23  1  0
 23 24  2  0
 24 25  1  0
 20 26  1  0
 26 27  1  0
 14 28  2  0
  9 29  2  0
  7  2  1  0
 28 10  1  0
 29  5  1  0
 27 17  1  0
 25 21  1  0
  1 30  1  0
  1 31  1  0
  1 32  1  0
  3 33  1  0
  4 34  1  0
  7 35  1  0
  8 36  1  0
  8 37  1  0
 11 38  1  0
 12 39  1  0
 13 40  1  0
 18 41  1  0
 18 42  1  0
 19 43  1  0
 19 44  1  0
 23 45  1  0
 24 46  1  0
 26 47  1  0
 26 48  1  0
 27 49  1  0
 27 50  1  0
 28 51  1  0
M  END
>  <smiles>  (31) 
Cc1ccc2c(c1)CC(c1cccc(C(=O)N3CCN(c4nccs4)CC3)c1)=N2

>  <score_type>  (31) 
oracle

>  <origin>  (31) 
autodockgpu

>  <m_score__min__energy>  (31) 
-8.0099999999999998

>  <m_primary>  (31) 
energy

>  <rmsd>  (31) 
3.5874639217568918

>  <m_score__min__rmsd>  (31) 
3.5874639217568918

>  <meeko>  (31) 
{"free_energy": -7.94, "intermolecular_energy": -8.83, "internal_energy": -0.81, "cluster_size": 47, "cluster_id": 1, "rank_in_cluster": 43}

>  <energy>  (31) 
-7.96

>  <cluster_rmsd>  (31) 
0.71

>  <cluster>  (31) 
1

$$$$

     RDKit          3D

 51 55  0  0  0  0  0  0  0  0999 V2000
  141.4260   68.1040  229.0930 C   0  0  0  0  0  0  0  0  0  0  0  0
  141.0850   69.1490  228.1010 C   0  0  0  0  0  0  0  0  0  0  0  0
  141.4340   70.4720  228.3480 C   0  0  0  0  0  0  0  0  0  0  0  0
  141.0920   71.4010  227.3940 C   0  0  0  0  0  0  0  0  0  0  0  0
  140.4290   71.0750  226.2290 C   0  0  0  0  0  0  0  0  0  0  0  0
  140.0890   69.7510  225.9990 C   0  0  0  0  0  0  0  0  0  0  0  0
  140.4300   68.8130  226.9530 C   0  0  0  0  0  0  0  0  0  0  0  0
  139.3810   69.6300  224.6850 C   0  0  0  0  0  0  0  0  0  0  0  0
  139.3810   71.0420  224.2430 C   0  0  0  0  0  0  0  0  0  0  0  0
  138.7980   71.5400  223.0050 C   0  0  0  0  0  0  0  0  0  0  0  0
  137.5410   71.1750  222.6000 C   0  0  0  0  0  0  0  0  0  0  0  0
  137.0050   71.6520  221.4180 C   0  0  0  0  0  0  0  0  0  0  0  0
  137.7240   72.5180  220.6060 C   0  0  0  0  0  0  0  0  0  0  0  0
  138.9790   72.8940  220.9960 C   0  0  0  0  0  0  0  0  0  0  0  0
  139.8460   73.7920  220.2450 C   0  0  0  0  0  0  0  0  0  0  0  0
  140.4790   73.2760  219.2830 O   0  0  0  0  0  0  0  0  0  0  0  0
  139.9900   75.1780  220.5580 N   0  0  0  0  0  0  0  0  0  0  0  0
  139.3040   75.8410  221.6280 C   0  0  0  0  0  0  0  0  0  0  0  0
  139.6110   77.3090  221.6570 C   0  0  0  0  0  0  0  0  0  0  0  0
  141.0100   77.6260  221.4950 N   0  0  0  0  0  0  0  0  0  0  0  0
  141.5400   78.8010  222.0820 C   0  0  0  0  0  0  0  0  0  0  0  0
  141.9250   79.9110  221.7350 N   0  0  0  0  0  0  0  0  0  0  0  0
  142.3830   80.8440  222.5290 C   0  0  0  0  0  0  0  0  0  0  0  0
  142.4390   80.5620  223.8450 C   0  0  0  0  0  0  0  0  0  0  0  0
  141.7900   78.8660  223.8910 S   0  0  0  0  0  0  0  0  0  0  0  0
  141.8060   76.6910  220.7110 C   0  0  0  0  0  0  0  0  0  0  0  0
  140.9110   75.9530  219.7120 C   0  0  0  0  0  0  0  0  0  0  0  0
  139.5090   72.4030  222.1940 C   0  0  0  0  0  0  0  0  0  0  0  0
  139.9590   71.8040  225.1030 N   0  0  0  0  0  0  0  0  0  0  0  0
  141.2949   68.5058  230.1086 H   0  0  0  0  0  0  0  0  0  0  0  0
  140.7644   67.2363  228.9537 H   0  0  0  0  0  0  0  0  0  0  0  0
  142.4720   67.7936  228.9537 H   0  0  0  0  0  0  0  0  0  0  0  0
  141.9617   70.7632  229.2682 H   0  0  0  0  0  0  0  0  0  0  0  0
  141.3596   72.4537  227.5678 H   0  0  0  0  0  0  0  0  0  0  0  0
  140.1644   67.7594  226.7814 H   0  0  0  0  0  0  0  0  0  0  0  0
  139.9332   68.9860  223.9847 H   0  0  0  0  0  0  0  0  0  0  0  0
  138.3836   69.1699  224.7442 H   0  0  0  0  0  0  0  0  0  0  0  0
  136.9484   70.4912  223.2255 H   0  0  0  0  0  0  0  0  0  0  0  0
  135.9939   71.3405  221.1168 H   0  0  0  0  0  0  0  0  0  0  0  0
  137.2923   72.8945  219.6669 H   0  0  0  0  0  0  0  0  0  0  0  0
  138.2205   75.7057  221.4950 H   0  0  0  0  0  0  0  0  0  0  0  0
  139.6420   75.4007  222.5777 H   0  0  0  0  0  0  0  0  0  0  0  0
  139.0513   77.7943  220.8438 H   0  0  0  0  0  0  0  0  0  0  0  0
  139.3186   77.6727  222.6531 H   0  0  0  0  0  0  0  0  0  0  0  0
  142.7091   81.8191  222.1381 H   0  0  0  0  0  0  0  0  0  0  0  0
  142.7870   81.1940  224.6753 H   0  0  0  0  0  0  0  0  0  0  0  0
  142.5840   77.2439  220.1642 H   0  0  0  0  0  0  0  0  0  0  0  0
  142.2739   75.9596  221.3863 H   0  0  0  0  0  0  0  0  0  0  0  0
  140.3572   76.6659  219.0834 H   0  0  0  0  0  0  0  0  0  0  0  0
  141.4847   75.3177  219.0211 H   0  0  0  0  0  0  0  0  0  0  0  0
  140.5196   72.7127  222.4985 H   0  0  0  0  0  0  0  0  0  0  0  0
  1  2  1  0
  2  3  2  0
  3  4  1  0
  4  5  2  0
  5  6  1  0
  6  7  2  0
  6  8  1  0
  8  9  1  0
  9 10  1  0
 10 11  2  0
 11 12  1  0
 12 13  2  0
 13 14  1  0
 14 15  1  0
 15 16  2  0
 15 17  1  0
 17 18  1  0
 18 19  1  0
 19 20  1  0
 20 21  1  0
 21 22  2  0
 22 23  1  0
 23 24  2  0
 24 25  1  0
 20 26  1  0
 26 27  1  0
 14 28  2  0
  9 29  2  0
  7  2  1  0
 28 10  1  0
 29  5  1  0
 27 17  1  0
 25 21  1  0
  1 30  1  0
  1 31  1  0
  1 32  1  0
  3 33  1  0
  4 34  1  0
  7 35  1  0
  8 36  1  0
  8 37  1  0
 11 38  1  0
 12 39  1  0
 13 40  1  0
 18 41  1  0
 18 42  1  0
 19 43  1  0
 19 44  1  0
 23 45  1  0
 24 46  1  0
 26 47  1  0
 26 48  1  0
 27 49  1  0
 27 50  1  0
 28 51  1  0
M  END
>  <smiles>  (32) 
Cc1ccc2c(c1)CC(c1cccc(C(=O)N3CCN(c4nccs4)CC3)c1)=N2

>  <score_type>  (32) 
oracle

>  <origin>  (32) 
autodockgpu

>  <m_score__min__energy>  (32) 
-8.0099999999999998

>  <m_primary>  (32) 
energy

>  <rmsd>  (32) 
3.676885863033545

>  <m_score__min__rmsd>  (32) 
3.676885863033545

>  <meeko>  (32) 
{"free_energy": -7.94, "intermolecular_energy": -8.83, "internal_energy": -0.81, "cluster_size": 47, "cluster_id": 1, "rank_in_cluster": 41}

>  <energy>  (32) 
-7.96

>  <cluster_rmsd>  (32) 
0.59

>  <cluster>  (32) 
1

$$$$

     RDKit          3D

 51 55  0  0  0  0  0  0  0  0999 V2000
  141.1000   68.1830  228.8210 C   0  0  0  0  0  0  0  0  0  0  0  0
  140.5610   68.5210  227.4850 C   0  0  0  0  0  0  0  0  0  0  0  0
  139.6980   67.6350  226.8480 C   0  0  0  0  0  0  0  0  0  0  0  0
  139.2280   67.9980  225.6080 C   0  0  0  0  0  0  0  0  0  0  0  0
  139.5760   69.1800  224.9870 C   0  0  0  0  0  0  0  0  0  0  0  0
  140.4380   70.0510  225.6370 C   0  0  0  0  0  0  0  0  0  0  0  0
  140.9130   69.6920  226.8820 C   0  0  0  0  0  0  0  0  0  0  0  0
  140.6750   71.2580  224.7850 C   0  0  0  0  0  0  0  0  0  0  0  0
  139.8450   70.9310  223.6060 C   0  0  0  0  0  0  0  0  0  0  0  0
  139.6980   71.7590  222.4170 C   0  0  0  0  0  0  0  0  0  0  0  0
  138.9810   71.3400  221.3280 C   0  0  0  0  0  0  0  0  0  0  0  0
  138.8560   72.1370  220.2050 C   0  0  0  0  0  0  0  0  0  0  0  0
  139.4550   73.3880  220.1470 C   0  0  0  0  0  0  0  0  0  0  0  0
  140.1740   73.8220  221.2260 C   0  0  0  0  0  0  0  0  0  0  0  0
  140.8550   75.1080  221.3040 C   0  0  0  0  0  0  0  0  0  0  0  0
  142.1090   75.0790  221.1690 O   0  0  0  0  0  0  0  0  0  0  0  0
  140.1690   76.3410  221.5210 N   0  0  0  0  0  0  0  0  0  0  0  0
  138.7490   76.4590  221.6790 C   0  0  0  0  0  0  0  0  0  0  0  0
  138.3250   77.8910  221.8210 C   0  0  0  0  0  0  0  0  0  0  0  0
  139.1410   78.6630  222.7290 N   0  0  0  0  0  0  0  0  0  0  0  0
  138.5740   79.7560  223.4300 C   0  0  0  0  0  0  0  0  0  0  0  0
  138.4880   80.1670  224.5810 N   0  0  0  0  0  0  0  0  0  0  0  0
  137.8780   81.2610  224.9590 C   0  0  0  0  0  0  0  0  0  0  0  0
  137.2910   82.0030  223.9990 C   0  0  0  0  0  0  0  0  0  0  0  0
  137.6640   81.0410  222.5040 S   0  0  0  0  0  0  0  0  0  0  0  0
  140.5340   78.2590  222.8630 C   0  0  0  0  0  0  0  0  0  0  0  0
  140.9970   77.5550  221.5850 C   0  0  0  0  0  0  0  0  0  0  0  0
  140.2910   73.0050  222.3550 C   0  0  0  0  0  0  0  0  0  0  0  0
  139.2570   69.7940  223.7450 N   0  0  0  0  0  0  0  0  0  0  0  0
  140.4403   68.5967  229.5979 H   0  0  0  0  0  0  0  0  0  0  0  0
  141.1530   67.0896  228.9291 H   0  0  0  0  0  0  0  0  0  0  0  0
  142.1074   68.6114  228.9291 H   0  0  0  0  0  0  0  0  0  0  0  0
  139.4041   66.6842  227.3167 H   0  0  0  0  0  0  0  0  0  0  0  0
  138.5423   67.3140  225.0865 H   0  0  0  0  0  0  0  0  0  0  0  0
  141.5990   70.3740  227.4057 H   0  0  0  0  0  0  0  0  0  0  0  0
  140.3302   72.1775  225.2805 H   0  0  0  0  0  0  0  0  0  0  0  0
  141.7331   71.4545  224.5572 H   0  0  0  0  0  0  0  0  0  0  0  0
  138.4963   70.3527  221.3470 H   0  0  0  0  0  0  0  0  0  0  0  0
  138.2735   71.7745  219.3452 H   0  0  0  0  0  0  0  0  0  0  0  0
  139.3532   74.0176  219.2508 H   0  0  0  0  0  0  0  0  0  0  0  0
  138.2547   76.0264  220.7966 H   0  0  0  0  0  0  0  0  0  0  0  0
  138.4595   75.9226  222.5947 H   0  0  0  0  0  0  0  0  0  0  0  0
  138.3705   78.3642  220.8290 H   0  0  0  0  0  0  0  0  0  0  0  0
  137.3086   77.8794  222.2415 H   0  0  0  0  0  0  0  0  0  0  0  0
  137.8456   81.5627  226.0163 H   0  0  0  0  0  0  0  0  0  0  0  0
  136.7319   82.9454  224.0956 H   0  0  0  0  0  0  0  0  0  0  0  0
  141.1570   79.1490  223.0354 H   0  0  0  0  0  0  0  0  0  0  0  0
  140.6306   77.5675  223.7130 H   0  0  0  0  0  0  0  0  0  0  0  0
  140.8245   78.1916  220.7047 H   0  0  0  0  0  0  0  0  0  0  0  0
  142.0738   77.3303  221.5944 H   0  0  0  0  0  0  0  0  0  0  0  0
  140.8713   73.3646  223.2175 H   0  0  0  0  0  0  0  0  0  0  0  0
  1  2  1  0
  2  3  2  0
  3  4  1  0
  4  5  2  0
  5  6  1  0
  6  7  2  0
  6  8  1  0
  8  9  1  0
  9 10  1  0
 10 11  2  0
 11 12  1  0
 12 13  2  0
 13 14  1  0
 14 15  1  0
 15 16  2  0
 15 17  1  0
 17 18  1  0
 18 19  1  0
 19 20  1  0
 20 21  1  0
 21 22  2  0
 22 23  1  0
 23 24  2  0
 24 25  1  0
 20 26  1  0
 26 27  1  0
 14 28  2  0
  9 29  2  0
  7  2  1  0
 28 10  1  0
 29  5  1  0
 27 17  1  0
 25 21  1  0
  1 30  1  0
  1 31  1  0
  1 32  1  0
  3 33  1  0
  4 34  1  0
  7 35  1  0
  8 36  1  0
  8 37  1  0
 11 38  1  0
 12 39  1  0
 13 40  1  0
 18 41  1  0
 18 42  1  0
 19 43  1  0
 19 44  1  0
 23 45  1  0
 24 46  1  0
 26 47  1  0
 26 48  1  0
 27 49  1  0
 27 50  1  0
 28 51  1  0
M  END
>  <smiles>  (33) 
Cc1ccc2c(c1)CC(c1cccc(C(=O)N3CCN(c4nccs4)CC3)c1)=N2

>  <score_type>  (33) 
oracle

>  <origin>  (33) 
autodockgpu

>  <m_score__min__energy>  (33) 
-8.0099999999999998

>  <m_primary>  (33) 
energy

>  <rmsd>  (33) 
4.561983629946146

>  <m_score__min__rmsd>  (33) 
4.561983629946146

>  <meeko>  (33) 
{"free_energy": -7.7, "intermolecular_energy": -8.6, "internal_energy": -0.79, "cluster_size": 3, "cluster_id": 2, "rank_in_cluster": 1}

>  <energy>  (33) 
-7.96

>  <cluster_rmsd>  (33) 
0.7

>  <cluster>  (33) 
1

$$$$

     RDKit          3D

 51 55  0  0  0  0  0  0  0  0999 V2000
  141.4570   67.8010  229.0920 C   0  0  0  0  0  0  0  0  0  0  0  0
  141.0780   68.8440  228.1130 C   0  0  0  0  0  0  0  0  0  0  0  0
  141.4440   70.1660  228.3400 C   0  0  0  0  0  0  0  0  0  0  0  0
  141.0650   71.0940  227.3990 C   0  0  0  0  0  0  0  0  0  0  0  0
  140.3490   70.7690  226.2670 C   0  0  0  0  0  0  0  0  0  0  0  0
  139.9910   69.4450  226.0560 C   0  0  0  0  0  0  0  0  0  0  0  0
  140.3700   68.5090  226.9970 C   0  0  0  0  0  0  0  0  0  0  0  0
  139.2250   69.3250  224.7760 C   0  0  0  0  0  0  0  0  0  0  0  0
  139.2120   70.7350  224.3300 C   0  0  0  0  0  0  0  0  0  0  0  0
  138.5760   71.2330  223.1180 C   0  0  0  0  0  0  0  0  0  0  0  0
  137.3320   70.8130  222.7290 C   0  0  0  0  0  0  0  0  0  0  0  0
  136.7460   71.2920  221.5720 C   0  0  0  0  0  0  0  0  0  0  0  0
  137.4010   72.2130  220.7670 C   0  0  0  0  0  0  0  0  0  0  0  0
  138.6430   72.6440  221.1410 C   0  0  0  0  0  0  0  0  0  0  0  0
  139.4450   73.6050  220.3960 C   0  0  0  0  0  0  0  0  0  0  0  0
  139.9920   73.1720  219.3430 O   0  0  0  0  0  0  0  0  0  0  0  0
  139.6210   74.9600  220.8080 N   0  0  0  0  0  0  0  0  0  0  0  0
  139.0320   75.5290  221.9850 C   0  0  0  0  0  0  0  0  0  0  0  0
  139.3460   76.9910  222.1090 C   0  0  0  0  0  0  0  0  0  0  0  0
  140.7270   77.3250  221.8540 N   0  0  0  0  0  0  0  0  0  0  0  0
  141.3100   78.4490  222.4900 C   0  0  0  0  0  0  0  0  0  0  0  0
  141.6360   78.8040  223.6160 N   0  0  0  0  0  0  0  0  0  0  0  0
  142.1810   79.9520  223.9280 C   0  0  0  0  0  0  0  0  0  0  0  0
  142.4050   80.8220  222.9240 C   0  0  0  0  0  0  0  0  0  0  0  0
  141.7860   79.8990  221.4860 S   0  0  0  0  0  0  0  0  0  0  0  0
  141.4500   76.4620  220.9300 C   0  0  0  0  0  0  0  0  0  0  0  0
  140.4690   75.8060  219.9540 C   0  0  0  0  0  0  0  0  0  0  0  0
  139.2240   72.1510  222.3140 C   0  0  0  0  0  0  0  0  0  0  0  0
  139.8320   71.4970  225.1610 N   0  0  0  0  0  0  0  0  0  0  0  0
  141.3166   68.1874  230.1123 H   0  0  0  0  0  0  0  0  0  0  0  0
  140.8239   66.9134  228.9457 H   0  0  0  0  0  0  0  0  0  0  0  0
  142.5122   67.5269  228.9457 H   0  0  0  0  0  0  0  0  0  0  0  0
  142.0131   70.4573  229.2351 H   0  0  0  0  0  0  0  0  0  0  0  0
  141.3465   72.1456  227.5570 H   0  0  0  0  0  0  0  0  0  0  0  0
  140.0912   67.4564  226.8411 H   0  0  0  0  0  0  0  0  0  0  0  0
  139.7421   68.6763  224.0537 H   0  0  0  0  0  0  0  0  0  0  0  0
  138.2288   68.8706  224.8814 H   0  0  0  0  0  0  0  0  0  0  0  0
  136.7899   70.0824  223.3474 H   0  0  0  0  0  0  0  0  0  0  0  0
  135.7450   70.9375  221.2852 H   0  0  0  0  0  0  0  0  0  0  0  0
  136.9303   72.5886  219.8465 H   0  0  0  0  0  0  0  0  0  0  0  0
  137.9406   75.4014  221.9353 H   0  0  0  0  0  0  0  0  0  0  0  0
  139.4487   75.0123  222.8621 H   0  0  0  0  0  0  0  0  0  0  0  0
  138.7202   77.5401  221.3900 H   0  0  0  0  0  0  0  0  0  0  0  0
  139.1418   77.2699  223.1533 H   0  0  0  0  0  0  0  0  0  0  0  0
  142.4454   80.1967  224.9673 H   0  0  0  0  0  0  0  0  0  0  0  0
  142.8472   81.8284  222.9641 H   0  0  0  0  0  0  0  0  0  0  0  0
  142.1797   77.0615  220.3660 H   0  0  0  0  0  0  0  0  0  0  0  0
  141.9728   75.6792  221.4991 H   0  0  0  0  0  0  0  0  0  0  0  0
  139.8658   76.5668  219.4369 H   0  0  0  0  0  0  0  0  0  0  0  0
  140.9790   75.2320  219.1663 H   0  0  0  0  0  0  0  0  0  0  0  0
  140.2245   72.5039  222.6044 H   0  0  0  0  0  0  0  0  0  0  0  0
  1  2  1  0
  2  3  2  0
  3  4  1  0
  4  5  2  0
  5  6  1  0
  6  7  2  0
  6  8  1  0
  8  9  1  0
  9 10  1  0
 10 11  2  0
 11 12  1  0
 12 13  2  0
 13 14  1  0
 14 15  1  0
 15 16  2  0
 15 17  1  0
 17 18  1  0
 18 19  1  0
 19 20  1  0
 20 21  1  0
 21 22  2  0
 22 23  1  0
 23 24  2  0
 24 25  1  0
 20 26  1  0
 26 27  1  0
 14 28  2  0
  9 29  2  0
  7  2  1  0
 28 10  1  0
 29  5  1  0
 27 17  1  0
 25 21  1  0
  1 30  1  0
  1 31  1  0
  1 32  1  0
  3 33  1  0
  4 34  1  0
  7 35  1  0
  8 36  1  0
  8 37  1  0
 11 38  1  0
 12 39  1  0
 13 40  1  0
 18 41  1  0
 18 42  1  0
 19 43  1  0
 19 44  1  0
 23 45  1  0
 24 46  1  0
 26 47  1  0
 26 48  1  0
 27 49  1  0
 27 50  1  0
 28 51  1  0
M  END
>  <smiles>  (34) 
Cc1ccc2c(c1)CC(c1cccc(C(=O)N3CCN(c4nccs4)CC3)c1)=N2

>  <score_type>  (34) 
oracle

>  <origin>  (34) 
autodockgpu

>  <m_score__min__energy>  (34) 
-8.0099999999999998

>  <m_primary>  (34) 
energy

>  <rmsd>  (34) 
3.5488900657125466

>  <m_score__min__rmsd>  (34) 
3.5488900657125466

>  <meeko>  (34) 
{"free_energy": -8.0, "intermolecular_energy": -8.9, "internal_energy": -0.8, "cluster_size": 47, "cluster_id": 1, "rank_in_cluster": 10}

>  <energy>  (34) 
-7.96

>  <cluster_rmsd>  (34) 
0.57

>  <cluster>  (34) 
1

$$$$

     RDKit          3D

 51 55  0  0  0  0  0  0  0  0999 V2000
  141.4320   68.0980  229.1040 C   0  0  0  0  0  0  0  0  0  0  0  0
  141.0680   69.0920  228.0690 C   0  0  0  0  0  0  0  0  0  0  0  0
  141.3880   70.4320  228.2610 C   0  0  0  0  0  0  0  0  0  0  0  0
  141.0250   71.3130  227.2680 C   0  0  0  0  0  0  0  0  0  0  0  0
  140.3690   70.9240  226.1200 C   0  0  0  0  0  0  0  0  0  0  0  0
  140.0580   69.5840  225.9450 C   0  0  0  0  0  0  0  0  0  0  0  0
  140.4200   68.6950  226.9370 C   0  0  0  0  0  0  0  0  0  0  0  0
  139.3520   69.3930  224.6390 C   0  0  0  0  0  0  0  0  0  0  0  0
  139.3210   70.7840  224.1380 C   0  0  0  0  0  0  0  0  0  0  0  0
  138.7260   71.2170  222.8810 C   0  0  0  0  0  0  0  0  0  0  0  0
  137.5610   70.6750  222.4080 C   0  0  0  0  0  0  0  0  0  0  0  0
  137.0130   71.0940  221.2090 C   0  0  0  0  0  0  0  0  0  0  0  0
  137.6290   72.0770  220.4470 C   0  0  0  0  0  0  0  0  0  0  0  0
  138.7930   72.6290  220.9050 C   0  0  0  0  0  0  0  0  0  0  0  0
  139.5460   73.6660  220.2120 C   0  0  0  0  0  0  0  0  0  0  0  0
  140.0760   73.3270  219.1180 O   0  0  0  0  0  0  0  0  0  0  0  0
  139.6930   74.9920  220.7180 N   0  0  0  0  0  0  0  0  0  0  0  0
  139.1200   75.4570  221.9470 C   0  0  0  0  0  0  0  0  0  0  0  0
  139.3930   76.9150  222.1700 C   0  0  0  0  0  0  0  0  0  0  0  0
  140.7570   77.3090  221.9070 N   0  0  0  0  0  0  0  0  0  0  0  0
  141.3230   78.4020  222.6070 C   0  0  0  0  0  0  0  0  0  0  0  0
  141.7150   78.6680  223.7380 N   0  0  0  0  0  0  0  0  0  0  0  0
  142.2180   79.8130  224.1230 C   0  0  0  0  0  0  0  0  0  0  0  0
  142.3150   80.7870  223.1970 C   0  0  0  0  0  0  0  0  0  0  0  0
  141.6380   79.9690  221.7220 S   0  0  0  0  0  0  0  0  0  0  0  0
  141.4790   76.5380  220.9040 C   0  0  0  0  0  0  0  0  0  0  0  0
  140.4920   75.9240  219.9070 C   0  0  0  0  0  0  0  0  0  0  0  0
  139.3350   72.1960  222.1200 C   0  0  0  0  0  0  0  0  0  0  0  0
  139.8820   71.5950  224.9650 N   0  0  0  0  0  0  0  0  0  0  0  0
  141.2728   68.5326  230.1019 H   0  0  0  0  0  0  0  0  0  0  0  0
  140.8035   67.2026  228.9896 H   0  0  0  0  0  0  0  0  0  0  0  0
  142.4902   67.8203  228.9896 H   0  0  0  0  0  0  0  0  0  0  0  0
  141.9090   70.7729  229.1678 H   0  0  0  0  0  0  0  0  0  0  0  0
  141.2699   72.3777  227.3966 H   0  0  0  0  0  0  0  0  0  0  0  0
  140.1773   67.6297  226.8098 H   0  0  0  0  0  0  0  0  0  0  0  0
  139.9174   68.7321  223.9655 H   0  0  0  0  0  0  0  0  0  0  0  0
  138.3647   68.9146  224.7194 H   0  0  0  0  0  0  0  0  0  0  0  0
  137.0523   69.8933  222.9912 H   0  0  0  0  0  0  0  0  0  0  0  0
  136.0753   70.6415  220.8542 H   0  0  0  0  0  0  0  0  0  0  0  0
  137.1895   72.4054  219.4936 H   0  0  0  0  0  0  0  0  0  0  0  0
  138.0319   75.2989  221.9153 H   0  0  0  0  0  0  0  0  0  0  0  0
  139.5765   74.8924  222.7733 H   0  0  0  0  0  0  0  0  0  0  0  0
  138.7328   77.4947  221.5081 H   0  0  0  0  0  0  0  0  0  0  0  0
  139.2072   77.1118  223.2362 H   0  0  0  0  0  0  0  0  0  0  0  0
  142.5481   79.9738  225.1599 H   0  0  0  0  0  0  0  0  0  0  0  0
  142.7029   81.8106  223.3055 H   0  0  0  0  0  0  0  0  0  0  0  0
  142.1752   77.1993  220.3674 H   0  0  0  0  0  0  0  0  0  0  0  0
  142.0391   75.7324  221.4012 H   0  0  0  0  0  0  0  0  0  0  0  0
  139.8528   76.7008  219.4621 H   0  0  0  0  0  0  0  0  0  0  0  0
  140.9972   75.4251  219.0668 H   0  0  0  0  0  0  0  0  0  0  0  0
  140.2716   72.6474  222.4791 H   0  0  0  0  0  0  0  0  0  0  0  0
  1  2  1  0
  2  3  2  0
  3  4  1  0
  4  5  2  0
  5  6  1  0
  6  7  2  0
  6  8  1  0
  8  9  1  0
  9 10  1  0
 10 11  2  0
 11 12  1  0
 12 13  2  0
 13 14  1  0
 14 15  1  0
 15 16  2  0
 15 17  1  0
 17 18  1  0
 18 19  1  0
 19 20  1  0
 20 21  1  0
 21 22  2  0
 22 23  1  0
 23 24  2  0
 24 25  1  0
 20 26  1  0
 26 27  1  0
 14 28  2  0
  9 29  2  0
  7  2  1  0
 28 10  1  0
 29  5  1  0
 27 17  1  0
 25 21  1  0
  1 30  1  0
  1 31  1  0
  1 32  1  0
  3 33  1  0
  4 34  1  0
  7 35  1  0
  8 36  1  0
  8 37  1  0
 11 38  1  0
 12 39  1  0
 13 40  1  0
 18 41  1  0
 18 42  1  0
 19 43  1  0
 19 44  1  0
 23 45  1  0
 24 46  1  0
 26 47  1  0
 26 48  1  0
 27 49  1  0
 27 50  1  0
 28 51  1  0
M  END
>  <smiles>  (35) 
Cc1ccc2c(c1)CC(c1cccc(C(=O)N3CCN(c4nccs4)CC3)c1)=N2

>  <score_type>  (35) 
oracle

>  <origin>  (35) 
autodockgpu

>  <m_score__min__energy>  (35) 
-8.0099999999999998

>  <m_primary>  (35) 
energy

>  <rmsd>  (35) 
3.5809445842820153

>  <m_score__min__rmsd>  (35) 
3.5809445842820153

>  <meeko>  (35) 
{"free_energy": -7.93, "intermolecular_energy": -8.83, "internal_energy": -0.8, "cluster_size": 47, "cluster_id": 1, "rank_in_cluster": 44}

>  <energy>  (35) 
-7.95

>  <cluster_rmsd>  (35) 
0.23

>  <cluster>  (35) 
1

$$$$

     RDKit          3D

 51 55  0  0  0  0  0  0  0  0999 V2000
  141.4560   67.7980  229.0920 C   0  0  0  0  0  0  0  0  0  0  0  0
  141.0740   68.8450  228.1170 C   0  0  0  0  0  0  0  0  0  0  0  0
  141.4420   70.1660  228.3480 C   0  0  0  0  0  0  0  0  0  0  0  0
  141.0600   71.0970  227.4110 C   0  0  0  0  0  0  0  0  0  0  0  0
  140.3410   70.7760  226.2790 C   0  0  0  0  0  0  0  0  0  0  0  0
  139.9830   69.4530  226.0650 C   0  0  0  0  0  0  0  0  0  0  0  0
  140.3630   68.5140  227.0020 C   0  0  0  0  0  0  0  0  0  0  0  0
  139.2120   69.3380  224.7870 C   0  0  0  0  0  0  0  0  0  0  0  0
  139.1990   70.7490  224.3460 C   0  0  0  0  0  0  0  0  0  0  0  0
  138.5610   71.2520  223.1370 C   0  0  0  0  0  0  0  0  0  0  0  0
  137.3240   70.8180  222.7390 C   0  0  0  0  0  0  0  0  0  0  0  0
  136.7350   71.3000  221.5850 C   0  0  0  0  0  0  0  0  0  0  0  0
  137.3790   72.2400  220.7930 C   0  0  0  0  0  0  0  0  0  0  0  0
  138.6140   72.6850  221.1760 C   0  0  0  0  0  0  0  0  0  0  0  0
  139.4040   73.6660  220.4440 C   0  0  0  0  0  0  0  0  0  0  0  0
  139.9350   73.2620  219.3730 O   0  0  0  0  0  0  0  0  0  0  0  0
  139.5860   75.0100  220.8910 N   0  0  0  0  0  0  0  0  0  0  0  0
  139.0150   75.5470  222.0900 C   0  0  0  0  0  0  0  0  0  0  0  0
  139.3300   77.0050  222.2490 C   0  0  0  0  0  0  0  0  0  0  0  0
  140.7080   77.3470  221.9820 N   0  0  0  0  0  0  0  0  0  0  0  0
  141.2990   78.4540  222.6380 C   0  0  0  0  0  0  0  0  0  0  0  0
  141.6240   78.7870  223.7720 N   0  0  0  0  0  0  0  0  0  0  0  0
  142.1800   79.9230  224.1050 C   0  0  0  0  0  0  0  0  0  0  0  0
  142.4190   80.8070  223.1160 C   0  0  0  0  0  0  0  0  0  0  0  0
  141.7960   79.9150  221.6610 S   0  0  0  0  0  0  0  0  0  0  0  0
  141.4160   76.5090  221.0240 C   0  0  0  0  0  0  0  0  0  0  0  0
  140.4210   75.8790  220.0460 C   0  0  0  0  0  0  0  0  0  0  0  0
  139.1980   72.1880  222.3460 C   0  0  0  0  0  0  0  0  0  0  0  0
  139.8220   71.5080  225.1770 N   0  0  0  0  0  0  0  0  0  0  0  0
  141.3165   68.1802  230.1140 H   0  0  0  0  0  0  0  0  0  0  0  0
  140.8239   66.9102  228.9431 H   0  0  0  0  0  0  0  0  0  0  0  0
  142.5113   67.5258  228.9431 H   0  0  0  0  0  0  0  0  0  0  0  0
  142.0143   70.4539  229.2422 H   0  0  0  0  0  0  0  0  0  0  0  0
  141.3414   72.1481  227.5721 H   0  0  0  0  0  0  0  0  0  0  0  0
  140.0826   67.4622  226.8438 H   0  0  0  0  0  0  0  0  0  0  0  0
  139.7258   68.6912  224.0606 H   0  0  0  0  0  0  0  0  0  0  0  0
  138.2157   68.8843  224.8944 H   0  0  0  0  0  0  0  0  0  0  0  0
  136.7905   70.0734  223.3480 H   0  0  0  0  0  0  0  0  0  0  0  0
  135.7409   70.9329  221.2901 H   0  0  0  0  0  0  0  0  0  0  0  0
  136.9056   72.6195  219.8755 H   0  0  0  0  0  0  0  0  0  0  0  0
  137.9230   75.4201  222.0529 H   0  0  0  0  0  0  0  0  0  0  0  0
  139.4453   75.0075  222.9466 H   0  0  0  0  0  0  0  0  0  0  0  0
  138.6932   77.5729  221.5548 H   0  0  0  0  0  0  0  0  0  0  0  0
  139.1414   77.2554  223.3034 H   0  0  0  0  0  0  0  0  0  0  0  0
  142.4418   80.1478  225.1495 H   0  0  0  0  0  0  0  0  0  0  0  0
  142.8728   81.8073  223.1745 H   0  0  0  0  0  0  0  0  0  0  0  0
  142.1371   77.1236  220.4651 H   0  0  0  0  0  0  0  0  0  0  0  0
  141.9467   75.7112  221.5642 H   0  0  0  0  0  0  0  0  0  0  0  0
  139.8100   76.6529  219.5583 H   0  0  0  0  0  0  0  0  0  0  0  0
  140.9189   75.3265  219.2355 H   0  0  0  0  0  0  0  0  0  0  0  0
  140.1920   72.5527  222.6442 H   0  0  0  0  0  0  0  0  0  0  0  0
  1  2  1  0
  2  3  2  0
  3  4  1  0
  4  5  2  0
  5  6  1  0
  6  7  2  0
  6  8  1  0
  8  9  1  0
  9 10  1  0
 10 11  2  0
 11 12  1  0
 12 13  2  0
 13 14  1  0
 14 15  1  0
 15 16  2  0
 15 17  1  0
 17 18  1  0
 18 19  1  0
 19 20  1  0
 20 21  1  0
 21 22  2  0
 22 23  1  0
 23 24  2  0
 24 25  1  0
 20 26  1  0
 26 27  1  0
 14 28  2  0
  9 29  2  0
  7  2  1  0
 28 10  1  0
 29  5  1  0
 27 17  1  0
 25 21  1  0
  1 30  1  0
  1 31  1  0
  1 32  1  0
  3 33  1  0
  4 34  1  0
  7 35  1  0
  8 36  1  0
  8 37  1  0
 11 38  1  0
 12 39  1  0
 13 40  1  0
 18 41  1  0
 18 42  1  0
 19 43  1  0
 19 44  1  0
 23 45  1  0
 24 46  1  0
 26 47  1  0
 26 48  1  0
 27 49  1  0
 27 50  1  0
 28 51  1  0
M  END
>  <smiles>  (36) 
Cc1ccc2c(c1)CC(c1cccc(C(=O)N3CCN(c4nccs4)CC3)c1)=N2

>  <score_type>  (36) 
oracle

>  <origin>  (36) 
autodockgpu

>  <m_score__min__energy>  (36) 
-8.0099999999999998

>  <m_primary>  (36) 
energy

>  <rmsd>  (36) 
3.578675291939284

>  <m_score__min__rmsd>  (36) 
3.578675291939284

>  <meeko>  (36) 
{"free_energy": -8.01, "intermolecular_energy": -8.91, "internal_energy": -0.8, "cluster_size": 47, "cluster_id": 1, "rank_in_cluster": 3}

>  <energy>  (36) 
-7.95

>  <cluster_rmsd>  (36) 
0.58

>  <cluster>  (36) 
1

$$$$

     RDKit          3D

 51 55  0  0  0  0  0  0  0  0999 V2000
  141.4340   67.8760  229.1120 C   0  0  0  0  0  0  0  0  0  0  0  0
  141.0580   68.9090  228.1210 C   0  0  0  0  0  0  0  0  0  0  0  0
  141.4090   70.2360  228.3440 C   0  0  0  0  0  0  0  0  0  0  0  0
  141.0340   71.1540  227.3910 C   0  0  0  0  0  0  0  0  0  0  0  0
  140.3360   70.8140  226.2510 C   0  0  0  0  0  0  0  0  0  0  0  0
  139.9940   69.4860  226.0450 C   0  0  0  0  0  0  0  0  0  0  0  0
  140.3680   68.5590  226.9980 C   0  0  0  0  0  0  0  0  0  0  0  0
  139.2460   69.3500  224.7560 C   0  0  0  0  0  0  0  0  0  0  0  0
  139.2260   70.7560  224.3000 C   0  0  0  0  0  0  0  0  0  0  0  0
  138.6030   71.2400  223.0760 C   0  0  0  0  0  0  0  0  0  0  0  0
  137.3880   70.7720  222.6500 C   0  0  0  0  0  0  0  0  0  0  0  0
  136.8130   71.2380  221.4810 C   0  0  0  0  0  0  0  0  0  0  0  0
  137.4500   72.1940  220.7030 C   0  0  0  0  0  0  0  0  0  0  0  0
  138.6630   72.6730  221.1140 C   0  0  0  0  0  0  0  0  0  0  0  0
  139.4440   73.6740  220.4000 C   0  0  0  0  0  0  0  0  0  0  0  0
  139.9650   73.2980  219.3140 O   0  0  0  0  0  0  0  0  0  0  0  0
  139.6250   75.0070  220.8770 N   0  0  0  0  0  0  0  0  0  0  0  0
  139.0640   75.5130  222.0950 C   0  0  0  0  0  0  0  0  0  0  0  0
  139.3760   76.9670  222.2870 C   0  0  0  0  0  0  0  0  0  0  0  0
  140.7500   77.3200  222.0160 N   0  0  0  0  0  0  0  0  0  0  0  0
  141.3440   78.4130  222.6930 C   0  0  0  0  0  0  0  0  0  0  0  0
  141.6460   78.7340  223.8370 N   0  0  0  0  0  0  0  0  0  0  0  0
  142.2140   79.8580  224.1900 C   0  0  0  0  0  0  0  0  0  0  0  0
  142.4930   80.7430  223.2140 C   0  0  0  0  0  0  0  0  0  0  0  0
  141.8920   79.8700  221.7370 S   0  0  0  0  0  0  0  0  0  0  0  0
  141.4520   76.5080  221.0300 C   0  0  0  0  0  0  0  0  0  0  0  0
  140.4500   75.8990  220.0470 C   0  0  0  0  0  0  0  0  0  0  0  0
  139.2330   72.1930  222.2980 C   0  0  0  0  0  0  0  0  0  0  0  0
  139.8280   71.5300  225.1330 N   0  0  0  0  0  0  0  0  0  0  0  0
  141.2896   68.2726  230.1278 H   0  0  0  0  0  0  0  0  0  0  0  0
  140.8019   66.9866  228.9724 H   0  0  0  0  0  0  0  0  0  0  0  0
  142.4899   67.6010  228.9724 H   0  0  0  0  0  0  0  0  0  0  0  0
  141.9632   70.5387  229.2447 H   0  0  0  0  0  0  0  0  0  0  0  0
  141.3035   72.2093  227.5453 H   0  0  0  0  0  0  0  0  0  0  0  0
  140.1003   67.5029  226.8461 H   0  0  0  0  0  0  0  0  0  0  0  0
  139.7785   68.7010  224.0451 H   0  0  0  0  0  0  0  0  0  0  0  0
  138.2527   68.8872  224.8516 H   0  0  0  0  0  0  0  0  0  0  0  0
  136.8609   70.0133  223.2471 H   0  0  0  0  0  0  0  0  0  0  0  0
  135.8360   70.8446  221.1636 H   0  0  0  0  0  0  0  0  0  0  0  0
  136.9883   72.5594  219.7739 H   0  0  0  0  0  0  0  0  0  0  0  0
  137.9720   75.3836  222.0654 H   0  0  0  0  0  0  0  0  0  0  0  0
  139.5045   74.9540  222.9337 H   0  0  0  0  0  0  0  0  0  0  0  0
  138.7310   77.5498  221.6130 H   0  0  0  0  0  0  0  0  0  0  0  0
  139.1965   77.1905  223.3490 H   0  0  0  0  0  0  0  0  0  0  0  0
  142.4542   80.0719  225.2419 H   0  0  0  0  0  0  0  0  0  0  0  0
  142.9620   81.7350  223.2905 H   0  0  0  0  0  0  0  0  0  0  0  0
  142.1654   77.1389  220.4795 H   0  0  0  0  0  0  0  0  0  0  0  0
  141.9908   75.6991  221.5450 H   0  0  0  0  0  0  0  0  0  0  0  0
  139.8324   76.6827  219.5841 H   0  0  0  0  0  0  0  0  0  0  0  0
  140.9423   75.3677  219.2192 H   0  0  0  0  0  0  0  0  0  0  0  0
  140.2095   72.5849  222.6187 H   0  0  0  0  0  0  0  0  0  0  0  0
  1  2  1  0
  2  3  2  0
  3  4  1  0
  4  5  2  0
  5  6  1  0
  6  7  2  0
  6  8  1  0
  8  9  1  0
  9 10  1  0
 10 11  2  0
 11 12  1  0
 12 13  2  0
 13 14  1  0
 14 15  1  0
 15 16  2  0
 15 17  1  0
 17 18  1  0
 18 19  1  0
 19 20  1  0
 20 21  1  0
 21 22  2  0
 22 23  1  0
 23 24  2  0
 24 25  1  0
 20 26  1  0
 26 27  1  0
 14 28  2  0
  9 29  2  0
  7  2  1  0
 28 10  1  0
 29  5  1  0
 27 17  1  0
 25 21  1  0
  1 30  1  0
  1 31  1  0
  1 32  1  0
  3 33  1  0
  4 34  1  0
  7 35  1  0
  8 36  1  0
  8 37  1  0
 11 38  1  0
 12 39  1  0
 13 40  1  0
 18 41  1  0
 18 42  1  0
 19 43  1  0
 19 44  1  0
 23 45  1  0
 24 46  1  0
 26 47  1  0
 26 48  1  0
 27 49  1  0
 27 50  1  0
 28 51  1  0
M  END
>  <smiles>  (37) 
Cc1ccc2c(c1)CC(c1cccc(C(=O)N3CCN(c4nccs4)CC3)c1)=N2

>  <score_type>  (37) 
oracle

>  <origin>  (37) 
autodockgpu

>  <m_score__min__energy>  (37) 
-8.0099999999999998

>  <m_primary>  (37) 
energy

>  <rmsd>  (37) 
3.5860673767034665

>  <m_score__min__rmsd>  (37) 
3.5860673767034665

>  <meeko>  (37) 
{"free_energy": -8.01, "intermolecular_energy": -8.9, "internal_energy": -0.8, "cluster_size": 47, "cluster_id": 1, "rank_in_cluster": 5}

>  <energy>  (37) 
-7.95

>  <cluster_rmsd>  (37) 
0.57

>  <cluster>  (37) 
1

$$$$

     RDKit          3D

 51 55  0  0  0  0  0  0  0  0999 V2000
  141.4480   67.7780  229.0810 C   0  0  0  0  0  0  0  0  0  0  0  0
  141.0630   68.8310  228.1150 C   0  0  0  0  0  0  0  0  0  0  0  0
  141.4340   70.1500  228.3520 C   0  0  0  0  0  0  0  0  0  0  0  0
  141.0490   71.0880  227.4230 C   0  0  0  0  0  0  0  0  0  0  0  0
  140.3240   70.7750  226.2930 C   0  0  0  0  0  0  0  0  0  0  0  0
  139.9620   69.4540  226.0720 C   0  0  0  0  0  0  0  0  0  0  0  0
  140.3460   68.5080  227.0010 C   0  0  0  0  0  0  0  0  0  0  0  0
  139.1860   69.3480  224.7970 C   0  0  0  0  0  0  0  0  0  0  0  0
  139.1720   70.7630  224.3640 C   0  0  0  0  0  0  0  0  0  0  0  0
  138.5290   71.2740  223.1620 C   0  0  0  0  0  0  0  0  0  0  0  0
  137.2690   70.8820  222.7950 C   0  0  0  0  0  0  0  0  0  0  0  0
  136.6750   71.3720  221.6460 C   0  0  0  0  0  0  0  0  0  0  0  0
  137.3380   72.2770  220.8290 C   0  0  0  0  0  0  0  0  0  0  0  0
  138.5960   72.6800  221.1820 C   0  0  0  0  0  0  0  0  0  0  0  0
  139.4080   73.6200  220.4220 C   0  0  0  0  0  0  0  0  0  0  0  0
  139.9370   73.1700  219.3680 O   0  0  0  0  0  0  0  0  0  0  0  0
  139.6120   74.9750  220.8220 N   0  0  0  0  0  0  0  0  0  0  0  0
  139.0440   75.5640  221.9990 C   0  0  0  0  0  0  0  0  0  0  0  0
  139.3840   77.0210  222.1100 C   0  0  0  0  0  0  0  0  0  0  0  0
  140.7690   77.3280  221.8400 N   0  0  0  0  0  0  0  0  0  0  0  0
  141.3770   78.4470  222.4600 C   0  0  0  0  0  0  0  0  0  0  0  0
  141.7560   78.7890  223.5750 N   0  0  0  0  0  0  0  0  0  0  0  0
  142.3120   79.9340  223.8750 C   0  0  0  0  0  0  0  0  0  0  0  0
  142.4830   80.8190  222.8730 C   0  0  0  0  0  0  0  0  0  0  0  0
  141.7980   79.9120  221.4540 S   0  0  0  0  0  0  0  0  0  0  0  0
  141.4680   76.4450  220.9150 C   0  0  0  0  0  0  0  0  0  0  0  0
  140.4670   75.8000  219.9540 C   0  0  0  0  0  0  0  0  0  0  0  0
  139.1850   72.1750  222.3460 C   0  0  0  0  0  0  0  0  0  0  0  0
  139.8010   71.5150  225.1980 N   0  0  0  0  0  0  0  0  0  0  0  0
  141.3109   68.1529  230.1060 H   0  0  0  0  0  0  0  0  0  0  0  0
  140.8161   66.8908  228.9275 H   0  0  0  0  0  0  0  0  0  0  0  0
  142.5031   67.5076  228.9275 H   0  0  0  0  0  0  0  0  0  0  0  0
  142.0112   70.4313  229.2451 H   0  0  0  0  0  0  0  0  0  0  0  0
  141.3329   72.1376  227.5894 H   0  0  0  0  0  0  0  0  0  0  0  0
  140.0639   67.4575  226.8370 H   0  0  0  0  0  0  0  0  0  0  0  0
  139.6963   68.7053  224.0645 H   0  0  0  0  0  0  0  0  0  0  0  0
  138.1897   68.8947  224.9060 H   0  0  0  0  0  0  0  0  0  0  0  0
  136.7205   70.1658  223.4244 H   0  0  0  0  0  0  0  0  0  0  0  0
  135.6619   71.0394  221.3757 H   0  0  0  0  0  0  0  0  0  0  0  0
  136.8610   72.6624  219.9158 H   0  0  0  0  0  0  0  0  0  0  0  0
  137.9501   75.4552  221.9596 H   0  0  0  0  0  0  0  0  0  0  0  0
  139.4604   75.0470  222.8761 H   0  0  0  0  0  0  0  0  0  0  0  0
  138.7615   77.5761  221.3928 H   0  0  0  0  0  0  0  0  0  0  0  0
  139.1936   77.3113  223.1538 H   0  0  0  0  0  0  0  0  0  0  0  0
  142.6272   80.1654  224.9032 H   0  0  0  0  0  0  0  0  0  0  0  0
  142.9223   81.8269  222.9053 H   0  0  0  0  0  0  0  0  0  0  0  0
  142.2027   77.0273  220.3396 H   0  0  0  0  0  0  0  0  0  0  0  0
  141.9822   75.6571  221.4850 H   0  0  0  0  0  0  0  0  0  0  0  0
  139.8725   76.5677  219.4370 H   0  0  0  0  0  0  0  0  0  0  0  0
  140.9594   75.2113  219.1659 H   0  0  0  0  0  0  0  0  0  0  0  0
  140.1984   72.5045  222.6190 H   0  0  0  0  0  0  0  0  0  0  0  0
  1  2  1  0
  2  3  2  0
  3  4  1  0
  4  5  2  0
  5  6  1  0
  6  7  2  0
  6  8  1  0
  8  9  1  0
  9 10  1  0
 10 11  2  0
 11 12  1  0
 12 13  2  0
 13 14  1  0
 14 15  1  0
 15 16  2  0
 15 17  1  0
 17 18  1  0
 18 19  1  0
 19 20  1  0
 20 21  1  0
 21 22  2  0
 22 23  1  0
 23 24  2  0
 24 25  1  0
 20 26  1  0
 26 27  1  0
 14 28  2  0
  9 29  2  0
  7  2  1  0
 28 10  1  0
 29  5  1  0
 27 17  1  0
 25 21  1  0
  1 30  1  0
  1 31  1  0
  1 32  1  0
  3 33  1  0
  4 34  1  0
  7 35  1  0
  8 36  1  0
  8 37  1  0
 11 38  1  0
 12 39  1  0
 13 40  1  0
 18 41  1  0
 18 42  1  0
 19 43  1  0
 19 44  1  0
 23 45  1  0
 24 46  1  0
 26 47  1  0
 26 48  1  0
 27 49  1  0
 27 50  1  0
 28 51  1  0
M  END
>  <smiles>  (38) 
Cc1ccc2c(c1)CC(c1cccc(C(=O)N3CCN(c4nccs4)CC3)c1)=N2

>  <score_type>  (38) 
oracle

>  <origin>  (38) 
autodockgpu

>  <m_score__min__energy>  (38) 
-8.0099999999999998

>  <m_primary>  (38) 
energy

>  <rmsd>  (38) 
3.5601366437099333

>  <m_score__min__rmsd>  (38) 
3.5601366437099333

>  <meeko>  (38) 
{"free_energy": -8.0, "intermolecular_energy": -8.89, "internal_energy": -0.8, "cluster_size": 47, "cluster_id": 1, "rank_in_cluster": 11}

>  <energy>  (38) 
-7.94

>  <cluster_rmsd>  (38) 
0.7

>  <cluster>  (38) 
1

$$$$

     RDKit          3D

 51 55  0  0  0  0  0  0  0  0999 V2000
  141.4260   67.9850  229.1020 C   0  0  0  0  0  0  0  0  0  0  0  0
  141.0430   68.9930  228.0890 C   0  0  0  0  0  0  0  0  0  0  0  0
  141.3440   70.3340  228.3050 C   0  0  0  0  0  0  0  0  0  0  0  0
  140.9640   71.2280  227.3320 C   0  0  0  0  0  0  0  0  0  0  0  0
  140.3100   70.8520  226.1780 C   0  0  0  0  0  0  0  0  0  0  0  0
  140.0180   69.5110  225.9790 C   0  0  0  0  0  0  0  0  0  0  0  0
  140.3970   68.6090  226.9520 C   0  0  0  0  0  0  0  0  0  0  0  0
  139.3100   69.3360  224.6710 C   0  0  0  0  0  0  0  0  0  0  0  0
  139.2560   70.7360  224.1980 C   0  0  0  0  0  0  0  0  0  0  0  0
  138.6500   71.1850  222.9520 C   0  0  0  0  0  0  0  0  0  0  0  0
  137.4680   70.6660  222.4950 C   0  0  0  0  0  0  0  0  0  0  0  0
  136.9100   71.0990  221.3060 C   0  0  0  0  0  0  0  0  0  0  0  0
  137.5310   72.0740  220.5380 C   0  0  0  0  0  0  0  0  0  0  0  0
  138.7120   72.6030  220.9800 C   0  0  0  0  0  0  0  0  0  0  0  0
  139.4740   73.6280  220.2790 C   0  0  0  0  0  0  0  0  0  0  0  0
  139.9970   73.2790  219.1850 O   0  0  0  0  0  0  0  0  0  0  0  0
  139.6360   74.9560  220.7780 N   0  0  0  0  0  0  0  0  0  0  0  0
  139.0720   75.4320  222.0070 C   0  0  0  0  0  0  0  0  0  0  0  0
  139.3610   76.8880  222.2210 C   0  0  0  0  0  0  0  0  0  0  0  0
  140.7280   77.2670  221.9510 N   0  0  0  0  0  0  0  0  0  0  0  0
  141.3080   78.3580  222.6440 C   0  0  0  0  0  0  0  0  0  0  0  0
  141.6100   78.6640  223.7920 N   0  0  0  0  0  0  0  0  0  0  0  0
  142.1610   79.7910  224.1620 C   0  0  0  0  0  0  0  0  0  0  0  0
  142.4200   80.6980  223.2000 C   0  0  0  0  0  0  0  0  0  0  0  0
  141.8260   79.8410  221.7110 S   0  0  0  0  0  0  0  0  0  0  0  0
  141.4390   76.4830  220.9500 C   0  0  0  0  0  0  0  0  0  0  0  0
  140.4430   75.8750  219.9600 C   0  0  0  0  0  0  0  0  0  0  0  0
  139.2660   72.1550  222.1850 C   0  0  0  0  0  0  0  0  0  0  0  0
  139.8090   71.5380  225.0380 N   0  0  0  0  0  0  0  0  0  0  0  0
  141.2687   68.3990  230.1089 H   0  0  0  0  0  0  0  0  0  0  0  0
  140.8074   67.0843  228.9751 H   0  0  0  0  0  0  0  0  0  0  0  0
  142.4866   67.7223  228.9751 H   0  0  0  0  0  0  0  0  0  0  0  0
  141.8641   70.6651  229.2159 H   0  0  0  0  0  0  0  0  0  0  0  0
  141.1926   72.2936  227.4813 H   0  0  0  0  0  0  0  0  0  0  0  0
  140.1698   67.5428  226.8049 H   0  0  0  0  0  0  0  0  0  0  0  0
  139.8829   68.6975  223.9824 H   0  0  0  0  0  0  0  0  0  0  0  0
  138.3303   68.8414  224.7452 H   0  0  0  0  0  0  0  0  0  0  0  0
  136.9538   69.8918  223.0834 H   0  0  0  0  0  0  0  0  0  0  0  0
  135.9594   70.6640  220.9638 H   0  0  0  0  0  0  0  0  0  0  0  0
  137.0824   72.4143  219.5930 H   0  0  0  0  0  0  0  0  0  0  0  0
  137.9822   75.2848  221.9801 H   0  0  0  0  0  0  0  0  0  0  0  0
  139.5251   74.8666  222.8347 H   0  0  0  0  0  0  0  0  0  0  0  0
  138.7043   77.4709  221.5584 H   0  0  0  0  0  0  0  0  0  0  0  0
  139.1815   77.0921  223.2869 H   0  0  0  0  0  0  0  0  0  0  0  0
  142.4032   79.9903  225.2163 H   0  0  0  0  0  0  0  0  0  0  0  0
  142.8727   81.6963  223.2917 H   0  0  0  0  0  0  0  0  0  0  0  0
  142.1407   77.1340  220.4079 H   0  0  0  0  0  0  0  0  0  0  0  0
  141.9922   75.6741  221.4497 H   0  0  0  0  0  0  0  0  0  0  0  0
  139.8110   76.6565  219.5129 H   0  0  0  0  0  0  0  0  0  0  0  0
  140.9403   75.3661  219.1211 H   0  0  0  0  0  0  0  0  0  0  0  0
  140.2170   72.5867  222.5303 H   0  0  0  0  0  0  0  0  0  0  0  0
  1  2  1  0
  2  3  2  0
  3  4  1  0
  4  5  2  0
  5  6  1  0
  6  7  2  0
  6  8  1  0
  8  9  1  0
  9 10  1  0
 10 11  2  0
 11 12  1  0
 12 13  2  0
 13 14  1  0
 14 15  1  0
 15 16  2  0
 15 17  1  0
 17 18  1  0
 18 19  1  0
 19 20  1  0
 20 21  1  0
 21 22  2  0
 22 23  1  0
 23 24  2  0
 24 25  1  0
 20 26  1  0
 26 27  1  0
 14 28  2  0
  9 29  2  0
  7  2  1  0
 28 10  1  0
 29  5  1  0
 27 17  1  0
 25 21  1  0
  1 30  1  0
  1 31  1  0
  1 32  1  0
  3 33  1  0
  4 34  1  0
  7 35  1  0
  8 36  1  0
  8 37  1  0
 11 38  1  0
 12 39  1  0
 13 40  1  0
 18 41  1  0
 18 42  1  0
 19 43  1  0
 19 44  1  0
 23 45  1  0
 24 46  1  0
 26 47  1  0
 26 48  1  0
 27 49  1  0
 27 50  1  0
 28 51  1  0
M  END
>  <smiles>  (39) 
Cc1ccc2c(c1)CC(c1cccc(C(=O)N3CCN(c4nccs4)CC3)c1)=N2

>  <score_type>  (39) 
oracle

>  <origin>  (39) 
autodockgpu

>  <m_score__min__energy>  (39) 
-8.0099999999999998

>  <m_primary>  (39) 
energy

>  <rmsd>  (39) 
3.564425109880683

>  <m_score__min__rmsd>  (39) 
3.564425109880683

>  <meeko>  (39) 
{"free_energy": -7.97, "intermolecular_energy": -8.87, "internal_energy": -0.8, "cluster_size": 47, "cluster_id": 1, "rank_in_cluster": 24}

>  <energy>  (39) 
-7.94

>  <cluster_rmsd>  (39) 
0.52

>  <cluster>  (39) 
1

$$$$

     RDKit          3D

 51 55  0  0  0  0  0  0  0  0999 V2000
  141.4070   68.1340  229.0870 C   0  0  0  0  0  0  0  0  0  0  0  0
  141.0720   69.1700  228.0850 C   0  0  0  0  0  0  0  0  0  0  0  0
  141.4000   70.4990  228.3340 C   0  0  0  0  0  0  0  0  0  0  0  0
  141.0640   71.4200  227.3700 C   0  0  0  0  0  0  0  0  0  0  0  0
  140.4280   71.0820  226.1950 C   0  0  0  0  0  0  0  0  0  0  0  0
  140.1080   69.7530  225.9630 C   0  0  0  0  0  0  0  0  0  0  0  0
  140.4430   68.8230  226.9260 C   0  0  0  0  0  0  0  0  0  0  0  0
  139.4270   69.6190  224.6360 C   0  0  0  0  0  0  0  0  0  0  0  0
  139.4170   71.0290  224.1890 C   0  0  0  0  0  0  0  0  0  0  0  0
  138.8510   71.5160  222.9390 C   0  0  0  0  0  0  0  0  0  0  0  0
  137.6310   71.0920  222.4840 C   0  0  0  0  0  0  0  0  0  0  0  0
  137.1110   71.5600  221.2910 C   0  0  0  0  0  0  0  0  0  0  0  0
  137.8110   72.4740  220.5170 C   0  0  0  0  0  0  0  0  0  0  0  0
  139.0300   72.9100  220.9570 C   0  0  0  0  0  0  0  0  0  0  0  0
  139.8730   73.8640  220.2500 C   0  0  0  0  0  0  0  0  0  0  0  0
  140.4870   73.4200  219.2400 O   0  0  0  0  0  0  0  0  0  0  0  0
  140.0160   75.2260  220.6530 N   0  0  0  0  0  0  0  0  0  0  0  0
  139.3510   75.8090  221.7810 C   0  0  0  0  0  0  0  0  0  0  0  0
  139.6490   77.2740  221.9040 C   0  0  0  0  0  0  0  0  0  0  0  0
  141.0430   77.6120  221.7320 N   0  0  0  0  0  0  0  0  0  0  0  0
  141.5780   78.7480  222.3860 C   0  0  0  0  0  0  0  0  0  0  0  0
  142.6430   79.3500  222.4630 N   0  0  0  0  0  0  0  0  0  0  0  0
  142.8630   80.4250  223.1770 C   0  0  0  0  0  0  0  0  0  0  0  0
  141.8310   80.9150  223.8900 C   0  0  0  0  0  0  0  0  0  0  0  0
  140.5050   79.7410  223.4820 S   0  0  0  0  0  0  0  0  0  0  0  0
  141.8260   76.7400  220.8680 C   0  0  0  0  0  0  0  0  0  0  0  0
  140.9120   76.0650  219.8420 C   0  0  0  0  0  0  0  0  0  0  0  0
  139.5440   72.4270  222.1650 C   0  0  0  0  0  0  0  0  0  0  0  0
  139.9700   71.8020  225.0570 N   0  0  0  0  0  0  0  0  0  0  0  0
  141.2739   68.5455  230.0984 H   0  0  0  0  0  0  0  0  0  0  0  0
  140.7435   67.2668  228.9537 H   0  0  0  0  0  0  0  0  0  0  0  0
  142.4526   67.8195  228.9537 H   0  0  0  0  0  0  0  0  0  0  0  0
  141.9067   70.8001  229.2628 H   0  0  0  0  0  0  0  0  0  0  0  0
  141.3147   72.4767  227.5449 H   0  0  0  0  0  0  0  0  0  0  0  0
  140.1941   67.7656  226.7527 H   0  0  0  0  0  0  0  0  0  0  0  0
  140.0008   68.9800  223.9487 H   0  0  0  0  0  0  0  0  0  0  0  0
  138.4346   69.1464  224.6779 H   0  0  0  0  0  0  0  0  0  0  0  0
  137.0548   70.3669  223.0775 H   0  0  0  0  0  0  0  0  0  0  0  0
  136.1280   71.2023  220.9509 H   0  0  0  0  0  0  0  0  0  0  0  0
  137.3935   72.8409  219.5677 H   0  0  0  0  0  0  0  0  0  0  0  0
  138.2656   75.6746  221.6637 H   0  0  0  0  0  0  0  0  0  0  0  0
  139.7141   75.3075  222.6902 H   0  0  0  0  0  0  0  0  0  0  0  0
  139.0674   77.8096  221.1392 H   0  0  0  0  0  0  0  0  0  0  0  0
  139.3773   77.5665  222.9290 H   0  0  0  0  0  0  0  0  0  0  0  0
  143.8509   80.9085  223.1939 H   0  0  0  0  0  0  0  0  0  0  0  0
  141.7989   81.7961  224.5478 H   0  0  0  0  0  0  0  0  0  0  0  0
  142.5871   77.3354  220.3424 H   0  0  0  0  0  0  0  0  0  0  0  0
  142.3150   75.9680  221.4803 H   0  0  0  0  0  0  0  0  0  0  0  0
  140.3389   76.8150  219.2771 H   0  0  0  0  0  0  0  0  0  0  0  0
  141.4735   75.4831  219.0963 H   0  0  0  0  0  0  0  0  0  0  0  0
  140.5269   72.7822  222.5082 H   0  0  0  0  0  0  0  0  0  0  0  0
  1  2  1  0
  2  3  2  0
  3  4  1  0
  4  5  2  0
  5  6  1  0
  6  7  2  0
  6  8  1  0
  8  9  1  0
  9 10  1  0
 10 11  2  0
 11 12  1  0
 12 13  2  0
 13 14  1  0
 14 15  1  0
 15 16  2  0
 15 17  1  0
 17 18  1  0
 18 19  1  0
 19 20  1  0
 20 21  1  0
 21 22  2  0
 22 23  1  0
 23 24  2  0
 24 25  1  0
 20 26  1  0
 26 27  1  0
 14 28  2  0
  9 29  2  0
  7  2  1  0
 28 10  1  0
 29  5  1  0
 27 17  1  0
 25 21  1  0
  1 30  1  0
  1 31  1  0
  1 32  1  0
  3 33  1  0
  4 34  1  0
  7 35  1  0
  8 36  1  0
  8 37  1  0
 11 38  1  0
 12 39  1  0
 13 40  1  0
 18 41  1  0
 18 42  1  0
 19 43  1  0
 19 44  1  0
 23 45  1  0
 24 46  1  0
 26 47  1  0
 26 48  1  0
 27 49  1  0
 27 50  1  0
 28 51  1  0
M  END
>  <smiles>  (40) 
Cc1ccc2c(c1)CC(c1cccc(C(=O)N3CCN(c4nccs4)CC3)c1)=N2

>  <score_type>  (40) 
oracle

>  <origin>  (40) 
autodockgpu

>  <m_score__min__energy>  (40) 
-8.0099999999999998

>  <m_primary>  (40) 
energy

>  <rmsd>  (40) 
3.7228870153564992

>  <m_score__min__rmsd>  (40) 
3.7228870153564992

>  <meeko>  (40) 
{"free_energy": -7.94, "intermolecular_energy": -8.84, "internal_energy": -0.81, "cluster_size": 47, "cluster_id": 1, "rank_in_cluster": 38}

>  <energy>  (40) 
-7.94

>  <cluster_rmsd>  (40) 
0.28

>  <cluster>  (40) 
1

$$$$

     RDKit          3D

 51 55  0  0  0  0  0  0  0  0999 V2000
  141.4420   68.1300  229.0800 C   0  0  0  0  0  0  0  0  0  0  0  0
  141.0810   69.1700  228.0910 C   0  0  0  0  0  0  0  0  0  0  0  0
  141.4460   70.4920  228.3210 C   0  0  0  0  0  0  0  0  0  0  0  0
  141.0830   71.4180  227.3710 C   0  0  0  0  0  0  0  0  0  0  0  0
  140.3860   71.0900  226.2270 C   0  0  0  0  0  0  0  0  0  0  0  0
  140.0300   69.7660  226.0150 C   0  0  0  0  0  0  0  0  0  0  0  0
  140.3910   68.8320  226.9650 C   0  0  0  0  0  0  0  0  0  0  0  0
  139.2850   69.6430  224.7220 C   0  0  0  0  0  0  0  0  0  0  0  0
  139.2810   71.0520  224.2720 C   0  0  0  0  0  0  0  0  0  0  0  0
  138.6670   71.5470  223.0480 C   0  0  0  0  0  0  0  0  0  0  0  0
  137.4590   71.0780  222.6050 C   0  0  0  0  0  0  0  0  0  0  0  0
  136.8930   71.5550  221.4360 C   0  0  0  0  0  0  0  0  0  0  0  0
  137.5320   72.5230  220.6760 C   0  0  0  0  0  0  0  0  0  0  0  0
  138.7390   73.0040  221.1040 C   0  0  0  0  0  0  0  0  0  0  0  0
  139.5210   74.0170  220.4090 C   0  0  0  0  0  0  0  0  0  0  0  0
  140.0820   73.6470  219.3410 O   0  0  0  0  0  0  0  0  0  0  0  0
  139.6610   75.3550  220.8860 N   0  0  0  0  0  0  0  0  0  0  0  0
  139.0540   75.8550  222.0840 C   0  0  0  0  0  0  0  0  0  0  0  0
  139.3310   77.3160  222.2790 C   0  0  0  0  0  0  0  0  0  0  0  0
  140.7050   77.6940  222.0480 N   0  0  0  0  0  0  0  0  0  0  0  0
  141.2570   78.8010  222.7380 C   0  0  0  0  0  0  0  0  0  0  0  0
  142.3120   79.1190  223.2750 N   0  0  0  0  0  0  0  0  0  0  0  0
  142.5570   80.2630  223.8620 C   0  0  0  0  0  0  0  0  0  0  0  0
  141.5630   81.1730  223.8800 C   0  0  0  0  0  0  0  0  0  0  0  0
  140.2380   80.2950  222.9980 S   0  0  0  0  0  0  0  0  0  0  0  0
  141.4530   76.8930  221.0880 C   0  0  0  0  0  0  0  0  0  0  0  0
  140.4930   76.2610  220.0770 C   0  0  0  0  0  0  0  0  0  0  0  0
  139.3000   72.5120  222.2880 C   0  0  0  0  0  0  0  0  0  0  0  0
  139.8890   71.8160  225.1100 N   0  0  0  0  0  0  0  0  0  0  0  0
  141.3042   68.5271  230.0965 H   0  0  0  0  0  0  0  0  0  0  0  0
  140.7966   67.2504  228.9393 H   0  0  0  0  0  0  0  0  0  0  0  0
  142.4936   67.8395  228.9393 H   0  0  0  0  0  0  0  0  0  0  0  0
  142.0014   70.7847  229.2243 H   0  0  0  0  0  0  0  0  0  0  0  0
  141.3618   72.4700  227.5312 H   0  0  0  0  0  0  0  0  0  0  0  0
  140.1125   67.7794  226.8082 H   0  0  0  0  0  0  0  0  0  0  0  0
  139.8135   68.9918  224.0102 H   0  0  0  0  0  0  0  0  0  0  0  0
  138.2867   69.1898  224.8118 H   0  0  0  0  0  0  0  0  0  0  0  0
  136.9301   70.3096  223.1880 H   0  0  0  0  0  0  0  0  0  0  0  0
  135.9213   71.1603  221.1044 H   0  0  0  0  0  0  0  0  0  0  0  0
  137.0771   72.8969  219.7469 H   0  0  0  0  0  0  0  0  0  0  0  0
  137.9662   75.7037  222.0223 H   0  0  0  0  0  0  0  0  0  0  0  0
  139.4806   75.3085  222.9380 H   0  0  0  0  0  0  0  0  0  0  0  0
  138.6955   77.8834  221.5832 H   0  0  0  0  0  0  0  0  0  0  0  0
  139.1145   77.5406  223.3338 H   0  0  0  0  0  0  0  0  0  0  0  0
  143.5340   80.4730  224.3217 H   0  0  0  0  0  0  0  0  0  0  0  0
  141.5555   82.1833  224.3149 H   0  0  0  0  0  0  0  0  0  0  0  0
  142.1705   77.5359  220.5571 H   0  0  0  0  0  0  0  0  0  0  0  0
  141.9919   76.0968  221.6225 H   0  0  0  0  0  0  0  0  0  0  0  0
  139.8742   77.0308  219.5928 H   0  0  0  0  0  0  0  0  0  0  0  0
  141.0203   75.7371  219.2661 H   0  0  0  0  0  0  0  0  0  0  0  0
  140.2716   72.9043  222.6228 H   0  0  0  0  0  0  0  0  0  0  0  0
  1  2  1  0
  2  3  2  0
  3  4  1  0
  4  5  2  0
  5  6  1  0
  6  7  2  0
  6  8  1  0
  8  9  1  0
  9 10  1  0
 10 11  2  0
 11 12  1  0
 12 13  2  0
 13 14  1  0
 14 15  1  0
 15 16  2  0
 15 17  1  0
 17 18  1  0
 18 19  1  0
 19 20  1  0
 20 21  1  0
 21 22  2  0
 22 23  1  0
 23 24  2  0
 24 25  1  0
 20 26  1  0
 26 27  1  0
 14 28  2  0
  9 29  2  0
  7  2  1  0
 28 10  1  0
 29  5  1  0
 27 17  1  0
 25 21  1  0
  1 30  1  0
  1 31  1  0
  1 32  1  0
  3 33  1  0
  4 34  1  0
  7 35  1  0
  8 36  1  0
  8 37  1  0
 11 38  1  0
 12 39  1  0
 13 40  1  0
 18 41  1  0
 18 42  1  0
 19 43  1  0
 19 44  1  0
 23 45  1  0
 24 46  1  0
 26 47  1  0
 26 48  1  0
 27 49  1  0
 27 50  1  0
 28 51  1  0
M  END
>  <smiles>  (41) 
Cc1ccc2c(c1)CC(c1cccc(C(=O)N3CCN(c4nccs4)CC3)c1)=N2

>  <score_type>  (41) 
oracle

>  <origin>  (41) 
autodockgpu

>  <m_score__min__energy>  (41) 
-8.0099999999999998

>  <m_primary>  (41) 
energy

>  <rmsd>  (41) 
3.7489439980032055

>  <m_score__min__rmsd>  (41) 
3.7489439980032055

>  <meeko>  (41) 
{"free_energy": -7.95, "intermolecular_energy": -8.84, "internal_energy": -0.8, "cluster_size": 47, "cluster_id": 1, "rank_in_cluster": 36}

>  <energy>  (41) 
-7.94

>  <cluster_rmsd>  (41) 
0.77

>  <cluster>  (41) 
1

$$$$

     RDKit          3D

 51 55  0  0  0  0  0  0  0  0999 V2000
  141.3730   68.1420  229.1030 C   0  0  0  0  0  0  0  0  0  0  0  0
  141.0500   69.1750  228.0930 C   0  0  0  0  0  0  0  0  0  0  0  0
  141.4030   70.5000  228.3270 C   0  0  0  0  0  0  0  0  0  0  0  0
  141.0780   71.4170  227.3560 C   0  0  0  0  0  0  0  0  0  0  0  0
  140.4290   71.0780  226.1870 C   0  0  0  0  0  0  0  0  0  0  0  0
  140.0850   69.7530  225.9700 C   0  0  0  0  0  0  0  0  0  0  0  0
  140.4090   68.8270  226.9410 C   0  0  0  0  0  0  0  0  0  0  0  0
  139.3940   69.6180  224.6490 C   0  0  0  0  0  0  0  0  0  0  0  0
  139.4060   71.0230  224.1880 C   0  0  0  0  0  0  0  0  0  0  0  0
  138.8420   71.5070  222.9360 C   0  0  0  0  0  0  0  0  0  0  0  0
  137.6040   71.1150  222.5010 C   0  0  0  0  0  0  0  0  0  0  0  0
  137.0860   71.5790  221.3060 C   0  0  0  0  0  0  0  0  0  0  0  0
  137.8050   72.4580  220.5090 C   0  0  0  0  0  0  0  0  0  0  0  0
  139.0430   72.8620  220.9290 C   0  0  0  0  0  0  0  0  0  0  0  0
  139.9070   73.7770  220.1960 C   0  0  0  0  0  0  0  0  0  0  0  0
  140.5670   73.2750  219.2450 O   0  0  0  0  0  0  0  0  0  0  0  0
  140.0220   75.1640  220.5150 N   0  0  0  0  0  0  0  0  0  0  0  0
  139.3050   75.8120  221.5740 C   0  0  0  0  0  0  0  0  0  0  0  0
  139.5850   77.2850  221.6130 C   0  0  0  0  0  0  0  0  0  0  0  0
  140.9820   77.6260  221.4780 N   0  0  0  0  0  0  0  0  0  0  0  0
  141.4800   78.8090  222.0780 C   0  0  0  0  0  0  0  0  0  0  0  0
  141.7900   79.9480  221.7500 N   0  0  0  0  0  0  0  0  0  0  0  0
  142.2400   80.8780  222.5520 C   0  0  0  0  0  0  0  0  0  0  0  0
  142.3770   80.5590  223.8540 C   0  0  0  0  0  0  0  0  0  0  0  0
  141.8180   78.8300  223.8730 S   0  0  0  0  0  0  0  0  0  0  0  0
  141.8090   76.7080  220.7060 C   0  0  0  0  0  0  0  0  0  0  0  0
  140.9450   75.9580  219.6890 C   0  0  0  0  0  0  0  0  0  0  0  0
  139.5550   72.3830  222.1390 C   0  0  0  0  0  0  0  0  0  0  0  0
  139.9770   71.7950  225.0450 N   0  0  0  0  0  0  0  0  0  0  0  0
  141.2418   68.5615  230.1114 H   0  0  0  0  0  0  0  0  0  0  0  0
  140.7014   67.2804  228.9740 H   0  0  0  0  0  0  0  0  0  0  0  0
  142.4158   67.8165  228.9740 H   0  0  0  0  0  0  0  0  0  0  0  0
  141.9203   70.8011  229.2499 H   0  0  0  0  0  0  0  0  0  0  0  0
  141.3482   72.4708  227.5188 H   0  0  0  0  0  0  0  0  0  0  0  0
  140.1409   67.7724  226.7799 H   0  0  0  0  0  0  0  0  0  0  0  0
  139.9523   68.9622  223.9648 H   0  0  0  0  0  0  0  0  0  0  0  0
  138.3937   69.1634  224.7015 H   0  0  0  0  0  0  0  0  0  0  0  0
  137.0115   70.4189  223.1129 H   0  0  0  0  0  0  0  0  0  0  0  0
  136.0888   71.2462  220.9823 H   0  0  0  0  0  0  0  0  0  0  0  0
  137.3882   72.8228  219.5586 H   0  0  0  0  0  0  0  0  0  0  0  0
  138.2267   75.6580  221.4208 H   0  0  0  0  0  0  0  0  0  0  0  0
  139.6338   75.3750  222.5284 H   0  0  0  0  0  0  0  0  0  0  0  0
  139.0322   77.7631  220.7909 H   0  0  0  0  0  0  0  0  0  0  0  0
  139.2672   77.6410  222.6041 H   0  0  0  0  0  0  0  0  0  0  0  0
  142.4964   81.8804  222.1786 H   0  0  0  0  0  0  0  0  0  0  0  0
  142.7338   81.1821  224.6873 H   0  0  0  0  0  0  0  0  0  0  0  0
  142.5868   77.2764  220.1750 H   0  0  0  0  0  0  0  0  0  0  0  0
  142.2781   75.9829  221.3873 H   0  0  0  0  0  0  0  0  0  0  0  0
  140.3905   76.6634  219.0527 H   0  0  0  0  0  0  0  0  0  0  0  0
  141.5423   75.3348  219.0071 H   0  0  0  0  0  0  0  0  0  0  0  0
  140.5524   72.7123  222.4655 H   0  0  0  0  0  0  0  0  0  0  0  0
  1  2  1  0
  2  3  2  0
  3  4  1  0
  4  5  2  0
  5  6  1  0
  6  7  2  0
  6  8  1  0
  8  9  1  0
  9 10  1  0
 10 11  2  0
 11 12  1  0
 12 13  2  0
 13 14  1  0
 14 15  1  0
 15 16  2  0
 15 17  1  0
 17 18  1  0
 18 19  1  0
 19 20  1  0
 20 21  1  0
 21 22  2  0
 22 23  1  0
 23 24  2  0
 24 25  1  0
 20 26  1  0
 26 27  1  0
 14 28  2  0
  9 29  2  0
  7  2  1  0
 28 10  1  0
 29  5  1  0
 27 17  1  0
 25 21  1  0
  1 30  1  0
  1 31  1  0
  1 32  1  0
  3 33  1  0
  4 34  1  0
  7 35  1  0
  8 36  1  0
  8 37  1  0
 11 38  1  0
 12 39  1  0
 13 40  1  0
 18 41  1  0
 18 42  1  0
 19 43  1  0
 19 44  1  0
 23 45  1  0
 24 46  1  0
 26 47  1  0
 26 48  1  0
 27 49  1  0
 27 50  1  0
 28 51  1  0
M  END
>  <smiles>  (42) 
Cc1ccc2c(c1)CC(c1cccc(C(=O)N3CCN(c4nccs4)CC3)c1)=N2

>  <score_type>  (42) 
oracle

>  <origin>  (42) 
autodockgpu

>  <m_score__min__energy>  (42) 
-8.0099999999999998

>  <m_primary>  (42) 
energy

>  <rmsd>  (42) 
3.6771500980055123

>  <m_score__min__rmsd>  (42) 
3.6771500980055123

>  <meeko>  (42) 
{"free_energy": -7.93, "intermolecular_energy": -8.82, "internal_energy": -0.81, "cluster_size": 47, "cluster_id": 1, "rank_in_cluster": 45}

>  <energy>  (42) 
-7.94

>  <cluster_rmsd>  (42) 
0.78

>  <cluster>  (42) 
1

$$$$

     RDKit          3D

 51 55  0  0  0  0  0  0  0  0999 V2000
  140.6080   68.1390  229.0100 C   0  0  0  0  0  0  0  0  0  0  0  0
  140.6670   69.2070  227.9870 C   0  0  0  0  0  0  0  0  0  0  0  0
  141.1160   70.4740  228.3410 C   0  0  0  0  0  0  0  0  0  0  0  0
  141.1490   71.4290  227.3510 C   0  0  0  0  0  0  0  0  0  0  0  0
  140.7590   71.1800  226.0520 C   0  0  0  0  0  0  0  0  0  0  0  0
  140.3140   69.9100  225.7170 C   0  0  0  0  0  0  0  0  0  0  0  0
  140.2790   68.9470  226.7050 C   0  0  0  0  0  0  0  0  0  0  0  0
  139.9450   69.8690  224.2660 C   0  0  0  0  0  0  0  0  0  0  0  0
  140.2420   71.2620  223.8680 C   0  0  0  0  0  0  0  0  0  0  0  0
  140.0570   71.8180  222.5350 C   0  0  0  0  0  0  0  0  0  0  0  0
  139.5050   71.0870  221.5170 C   0  0  0  0  0  0  0  0  0  0  0  0
  139.3420   71.6280  220.2550 C   0  0  0  0  0  0  0  0  0  0  0  0
  139.7330   72.9310  219.9810 C   0  0  0  0  0  0  0  0  0  0  0  0
  140.2850   73.6760  220.9860 C   0  0  0  0  0  0  0  0  0  0  0  0
  140.7410   75.0520  220.8420 C   0  0  0  0  0  0  0  0  0  0  0  0
  141.8940   75.2060  220.3550 O   0  0  0  0  0  0  0  0  0  0  0  0
  139.9500   76.1780  221.2240 N   0  0  0  0  0  0  0  0  0  0  0  0
  138.6320   76.0900  221.7800 C   0  0  0  0  0  0  0  0  0  0  0  0
  138.0360   77.4470  222.0120 C   0  0  0  0  0  0  0  0  0  0  0  0
  138.9350   78.3900  222.6340 N   0  0  0  0  0  0  0  0  0  0  0  0
  138.4160   79.4270  223.4470 C   0  0  0  0  0  0  0  0  0  0  0  0
  138.8260   80.2800  224.2270 N   0  0  0  0  0  0  0  0  0  0  0  0
  138.0870   81.1500  224.8660 C   0  0  0  0  0  0  0  0  0  0  0  0
  136.7580   81.1070  224.6510 C   0  0  0  0  0  0  0  0  0  0  0  0
  136.6160   79.7360  223.4660 S   0  0  0  0  0  0  0  0  0  0  0  0
  140.3570   78.2120  222.3710 C   0  0  0  0  0  0  0  0  0  0  0  0
  140.5540   77.5060  221.0270 C   0  0  0  0  0  0  0  0  0  0  0  0
  140.4440   73.1150  222.2580 C   0  0  0  0  0  0  0  0  0  0  0  0
  140.6850   71.9510  224.8600 N   0  0  0  0  0  0  0  0  0  0  0  0
  140.6329   68.5901  230.0129 H   0  0  0  0  0  0  0  0  0  0  0  0
  139.6768   67.5661  228.8887 H   0  0  0  0  0  0  0  0  0  0  0  0
  141.4704   67.4670  228.8887 H   0  0  0  0  0  0  0  0  0  0  0  0
  141.4317   70.7035  229.3694 H   0  0  0  0  0  0  0  0  0  0  0  0
  141.5031   72.4383  227.6078 H   0  0  0  0  0  0  0  0  0  0  0  0
  139.9267   67.9365  226.4505 H   0  0  0  0  0  0  0  0  0  0  0  0
  140.5633   69.1483  223.7108 H   0  0  0  0  0  0  0  0  0  0  0  0
  138.9121   69.5476  224.0665 H   0  0  0  0  0  0  0  0  0  0  0  0
  139.1858   70.0515  221.7065 H   0  0  0  0  0  0  0  0  0  0  0  0
  138.8959   71.0167  219.4567 H   0  0  0  0  0  0  0  0  0  0  0  0
  139.6015   73.3562  218.9751 H   0  0  0  0  0  0  0  0  0  0  0  0
  137.9881   75.5320  221.0842 H   0  0  0  0  0  0  0  0  0  0  0  0
  138.7026   75.5761  222.7500 H   0  0  0  0  0  0  0  0  0  0  0  0
  137.7239   77.8574  221.0403 H   0  0  0  0  0  0  0  0  0  0  0  0
  137.1941   77.3079  222.7062 H   0  0  0  0  0  0  0  0  0  0  0  0
  138.5327   81.8865  225.5508 H   0  0  0  0  0  0  0  0  0  0  0  0
  135.9653   81.7372  225.0805 H   0  0  0  0  0  0  0  0  0  0  0  0
  140.8484   79.1957  222.3417 H   0  0  0  0  0  0  0  0  0  0  0  0
  140.7991   77.5990  223.1703 H   0  0  0  0  0  0  0  0  0  0  0  0
  140.0417   78.0518  220.2210 H   0  0  0  0  0  0  0  0  0  0  0  0
  141.6124   77.4478  220.7331 H   0  0  0  0  0  0  0  0  0  0  0  0
  140.8892   73.7232  223.0592 H   0  0  0  0  0  0  0  0  0  0  0  0
  1  2  1  0
  2  3  2  0
  3  4  1  0
  4  5  2  0
  5  6  1  0
  6  7  2  0
  6  8  1  0
  8  9  1  0
  9 10  1  0
 10 11  2  0
 11 12  1  0
 12 13  2  0
 13 14  1  0
 14 15  1  0
 15 16  2  0
 15 17  1  0
 17 18  1  0
 18 19  1  0
 19 20  1  0
 20 21  1  0
 21 22  2  0
 22 23  1  0
 23 24  2  0
 24 25  1  0
 20 26  1  0
 26 27  1  0
 14 28  2  0
  9 29  2  0
  7  2  1  0
 28 10  1  0
 29  5  1  0
 27 17  1  0
 25 21  1  0
  1 30  1  0
  1 31  1  0
  1 32  1  0
  3 33  1  0
  4 34  1  0
  7 35  1  0
  8 36  1  0
  8 37  1  0
 11 38  1  0
 12 39  1  0
 13 40  1  0
 18 41  1  0
 18 42  1  0
 19 43  1  0
 19 44  1  0
 23 45  1  0
 24 46  1  0
 26 47  1  0
 26 48  1  0
 27 49  1  0
 27 50  1  0
 28 51  1  0
M  END
>  <smiles>  (43) 
Cc1ccc2c(c1)CC(c1cccc(C(=O)N3CCN(c4nccs4)CC3)c1)=N2

>  <score_type>  (43) 
oracle

>  <origin>  (43) 
autodockgpu

>  <m_score__min__energy>  (43) 
-8.0099999999999998

>  <m_primary>  (43) 
energy

>  <rmsd>  (43) 
4.392780763342147

>  <m_score__min__rmsd>  (43) 
4.392780763342147

>  <meeko>  (43) 
{"free_energy": -7.68, "intermolecular_energy": -8.57, "internal_energy": -0.8, "cluster_size": 3, "cluster_id": 2, "rank_in_cluster": 3}

>  <energy>  (43) 
-7.94

>  <cluster_rmsd>  (43) 
0.57

>  <cluster>  (43) 
1

$$$$

     RDKit          3D

 51 55  0  0  0  0  0  0  0  0999 V2000
  141.0790   68.1550  228.9000 C   0  0  0  0  0  0  0  0  0  0  0  0
  140.5810   68.4580  227.5400 C   0  0  0  0  0  0  0  0  0  0  0  0
  139.7660   67.5410  226.8860 C   0  0  0  0  0  0  0  0  0  0  0  0
  139.3330   67.8730  225.6230 C   0  0  0  0  0  0  0  0  0  0  0  0
  139.6720   69.0550  224.9980 C   0  0  0  0  0  0  0  0  0  0  0  0
  140.4850   69.9580  225.6660 C   0  0  0  0  0  0  0  0  0  0  0  0
  140.9230   69.6300  226.9330 C   0  0  0  0  0  0  0  0  0  0  0  0
  140.7220   71.1590  224.8040 C   0  0  0  0  0  0  0  0  0  0  0  0
  139.9450   70.7920  223.6010 C   0  0  0  0  0  0  0  0  0  0  0  0
  139.8200   71.6000  222.3950 C   0  0  0  0  0  0  0  0  0  0  0  0
  139.1580   71.1440  221.2860 C   0  0  0  0  0  0  0  0  0  0  0  0
  139.0550   71.9210  220.1470 C   0  0  0  0  0  0  0  0  0  0  0  0
  139.6180   73.1880  220.0930 C   0  0  0  0  0  0  0  0  0  0  0  0
  140.2810   73.6590  221.1920 C   0  0  0  0  0  0  0  0  0  0  0  0
  140.9210   74.9650  221.2770 C   0  0  0  0  0  0  0  0  0  0  0  0
  142.1740   74.9790  221.1260 O   0  0  0  0  0  0  0  0  0  0  0  0
  140.1980   76.1720  221.5170 N   0  0  0  0  0  0  0  0  0  0  0  0
  138.7770   76.2420  221.6940 C   0  0  0  0  0  0  0  0  0  0  0  0
  138.3080   77.6570  221.8580 C   0  0  0  0  0  0  0  0  0  0  0  0
  139.1090   78.4460  222.7650 N   0  0  0  0  0  0  0  0  0  0  0  0
  138.5160   79.5110  223.4850 C   0  0  0  0  0  0  0  0  0  0  0  0
  138.8580   80.4220  224.2310 N   0  0  0  0  0  0  0  0  0  0  0  0
  138.0600   81.3030  224.7770 C   0  0  0  0  0  0  0  0  0  0  0  0
  136.7460   81.2040  224.4960 C   0  0  0  0  0  0  0  0  0  0  0  0
  136.7090   79.7610  223.3920 S   0  0  0  0  0  0  0  0  0  0  0  0
  140.5160   78.0860  222.8770 C   0  0  0  0  0  0  0  0  0  0  0  0
  140.9870   77.4120  221.5850 C   0  0  0  0  0  0  0  0  0  0  0  0
  140.3790   72.8620  222.3370 C   0  0  0  0  0  0  0  0  0  0  0  0
  139.3830   69.6420  223.7360 N   0  0  0  0  0  0  0  0  0  0  0  0
  140.3881   68.5754  229.6456 H   0  0  0  0  0  0  0  0  0  0  0  0
  141.1427   67.0649  229.0327 H   0  0  0  0  0  0  0  0  0  0  0  0
  142.0764   68.5995  229.0327 H   0  0  0  0  0  0  0  0  0  0  0  0
  139.4794   66.5899  227.3585 H   0  0  0  0  0  0  0  0  0  0  0  0
  138.6864   67.1628  225.0867 H   0  0  0  0  0  0  0  0  0  0  0  0
  141.5700   70.3382  227.4714 H   0  0  0  0  0  0  0  0  0  0  0  0
  140.3351   72.0762  225.2719 H   0  0  0  0  0  0  0  0  0  0  0  0
  141.7822   71.3807  224.6121 H   0  0  0  0  0  0  0  0  0  0  0  0
  138.7010   70.1436  221.3018 H   0  0  0  0  0  0  0  0  0  0  0  0
  138.5186   71.5288  219.2704 H   0  0  0  0  0  0  0  0  0  0  0  0
  139.5326   73.8014  219.1839 H   0  0  0  0  0  0  0  0  0  0  0  0
  138.2859   75.8034  220.8128 H   0  0  0  0  0  0  0  0  0  0  0  0
  138.5172   75.6864  222.6071 H   0  0  0  0  0  0  0  0  0  0  0  0
  138.3254   78.1426  220.8711 H   0  0  0  0  0  0  0  0  0  0  0  0
  137.2981   77.6066  222.2910 H   0  0  0  0  0  0  0  0  0  0  0  0
  138.4460   82.0925  225.4386 H   0  0  0  0  0  0  0  0  0  0  0  0
  135.9131   81.8326  224.8440 H   0  0  0  0  0  0  0  0  0  0  0  0
  141.1117   78.9939  223.0527 H   0  0  0  0  0  0  0  0  0  0  0  0
  140.6450   77.3877  223.7171 H   0  0  0  0  0  0  0  0  0  0  0  0
  140.7833   78.0524  220.7141 H   0  0  0  0  0  0  0  0  0  0  0  0
  142.0706   77.2230  221.5790 H   0  0  0  0  0  0  0  0  0  0  0  0
  140.9157   73.2505  223.2151 H   0  0  0  0  0  0  0  0  0  0  0  0
  1  2  1  0
  2  3  2  0
  3  4  1  0
  4  5  2  0
  5  6  1  0
  6  7  2  0
  6  8  1  0
  8  9  1  0
  9 10  1  0
 10 11  2  0
 11 12  1  0
 12 13  2  0
 13 14  1  0
 14 15  1  0
 15 16  2  0
 15 17  1  0
 17 18  1  0
 18 19  1  0
 19 20  1  0
 20 21  1  0
 21 22  2  0
 22 23  1  0
 23 24  2  0
 24 25  1  0
 20 26  1  0
 26 27  1  0
 14 28  2  0
  9 29  2  0
  7  2  1  0
 28 10  1  0
 29  5  1  0
 27 17  1  0
 25 21  1  0
  1 30  1  0
  1 31  1  0
  1 32  1  0
  3 33  1  0
  4 34  1  0
  7 35  1  0
  8 36  1  0
  8 37  1  0
 11 38  1  0
 12 39  1  0
 13 40  1  0
 18 41  1  0
 18 42  1  0
 19 43  1  0
 19 44  1  0
 23 45  1  0
 24 46  1  0
 26 47  1  0
 26 48  1  0
 27 49  1  0
 27 50  1  0
 28 51  1  0
M  END
>  <smiles>  (44) 
Cc1ccc2c(c1)CC(c1cccc(C(=O)N3CCN(c4nccs4)CC3)c1)=N2

>  <score_type>  (44) 
oracle

>  <origin>  (44) 
autodockgpu

>  <m_score__min__energy>  (44) 
-8.0099999999999998

>  <m_primary>  (44) 
energy

>  <rmsd>  (44) 
4.477664517046084

>  <m_score__min__rmsd>  (44) 
4.477664517046084

>  <meeko>  (44) 
{"free_energy": -7.69, "intermolecular_energy": -8.58, "internal_energy": -0.8, "cluster_size": 3, "cluster_id": 2, "rank_in_cluster": 2}

>  <energy>  (44) 
-7.93

>  <cluster_rmsd>  (44) 
0.24

>  <cluster>  (44) 
1

$$$$

     RDKit          3D

 51 55  0  0  0  0  0  0  0  0999 V2000
  141.3770   68.1040  229.0780 C   0  0  0  0  0  0  0  0  0  0  0  0
  141.0570   69.1390  228.0690 C   0  0  0  0  0  0  0  0  0  0  0  0
  141.3670   70.4700  228.3290 C   0  0  0  0  0  0  0  0  0  0  0  0
  141.0470   71.3900  227.3580 C   0  0  0  0  0  0  0  0  0  0  0  0
  140.4430   71.0480  226.1660 C   0  0  0  0  0  0  0  0  0  0  0  0
  140.1420   69.7160  225.9240 C   0  0  0  0  0  0  0  0  0  0  0  0
  140.4610   68.7880  226.8940 C   0  0  0  0  0  0  0  0  0  0  0  0
  139.4960   69.5790  224.5810 C   0  0  0  0  0  0  0  0  0  0  0  0
  139.4840   70.9890  224.1360 C   0  0  0  0  0  0  0  0  0  0  0  0
  138.9450   71.4730  222.8720 C   0  0  0  0  0  0  0  0  0  0  0  0
  137.7980   70.9570  222.3310 C   0  0  0  0  0  0  0  0  0  0  0  0
  137.3040   71.4230  221.1260 C   0  0  0  0  0  0  0  0  0  0  0  0
  137.9560   72.4300  220.4290 C   0  0  0  0  0  0  0  0  0  0  0  0
  139.1020   72.9580  220.9560 C   0  0  0  0  0  0  0  0  0  0  0  0
  139.8890   74.0150  220.3350 C   0  0  0  0  0  0  0  0  0  0  0  0
  140.6320   73.6620  219.3770 O   0  0  0  0  0  0  0  0  0  0  0  0
  139.8420   75.3750  220.7640 N   0  0  0  0  0  0  0  0  0  0  0  0
  139.0240   75.8570  221.8380 C   0  0  0  0  0  0  0  0  0  0  0  0
  139.1430   77.3430  222.0020 C   0  0  0  0  0  0  0  0  0  0  0  0
  140.4990   77.8370  221.9550 N   0  0  0  0  0  0  0  0  0  0  0  0
  140.8460   79.0130  222.6660 C   0  0  0  0  0  0  0  0  0  0  0  0
  140.2880   79.9310  223.2550 N   0  0  0  0  0  0  0  0  0  0  0  0
  140.8850   80.9310  223.8510 C   0  0  0  0  0  0  0  0  0  0  0  0
  142.2310   80.9560  223.8150 C   0  0  0  0  0  0  0  0  0  0  0  0
  142.6070   79.4500  222.8700 S   0  0  0  0  0  0  0  0  0  0  0  0
  141.4460   77.0760  221.1520 C   0  0  0  0  0  0  0  0  0  0  0  0
  140.7040   76.3250  220.0430 C   0  0  0  0  0  0  0  0  0  0  0  0
  139.5910   72.4760  222.1750 C   0  0  0  0  0  0  0  0  0  0  0  0
  140.0080   71.7650  225.0190 N   0  0  0  0  0  0  0  0  0  0  0  0
  141.2475   68.5230  230.0868 H   0  0  0  0  0  0  0  0  0  0  0  0
  140.7026   67.2447  228.9485 H   0  0  0  0  0  0  0  0  0  0  0  0
  142.4187   67.7753  228.9485 H   0  0  0  0  0  0  0  0  0  0  0  0
  141.8475   70.7736  229.2708 H   0  0  0  0  0  0  0  0  0  0  0  0
  141.2839   72.4485  227.5406 H   0  0  0  0  0  0  0  0  0  0  0  0
  140.2264   67.7286  226.7131 H   0  0  0  0  0  0  0  0  0  0  0  0
  140.0926   68.9466  223.9071 H   0  0  0  0  0  0  0  0  0  0  0  0
  138.5071   69.0976  224.5976 H   0  0  0  0  0  0  0  0  0  0  0  0
  137.2604   70.1586  222.8635 H   0  0  0  0  0  0  0  0  0  0  0  0
  136.3809   70.9889  220.7144 H   0  0  0  0  0  0  0  0  0  0  0  0
  137.5587   72.7966  219.4710 H   0  0  0  0  0  0  0  0  0  0  0  0
  137.9743   75.6045  221.6276 H   0  0  0  0  0  0  0  0  0  0  0  0
  139.3650   75.3808  222.7691 H   0  0  0  0  0  0  0  0  0  0  0  0
  138.5718   77.8259  221.1955 H   0  0  0  0  0  0  0  0  0  0  0  0
  138.7538   77.5828  223.0025 H   0  0  0  0  0  0  0  0  0  0  0  0
  140.3111   81.7190  224.3606 H   0  0  0  0  0  0  0  0  0  0  0  0
  142.9225   81.6953  224.2454 H   0  0  0  0  0  0  0  0  0  0  0  0
  142.1768   77.7634  220.7010 H   0  0  0  0  0  0  0  0  0  0  0  0
  141.9655   76.3507  221.7955 H   0  0  0  0  0  0  0  0  0  0  0  0
  140.1004   77.0183  219.4388 H   0  0  0  0  0  0  0  0  0  0  0  0
  141.3886   75.8244  219.3425 H   0  0  0  0  0  0  0  0  0  0  0  0
  140.5143   72.9070  222.5895 H   0  0  0  0  0  0  0  0  0  0  0  0
  1  2  1  0
  2  3  2  0
  3  4  1  0
  4  5  2  0
  5  6  1  0
  6  7  2  0
  6  8  1  0
  8  9  1  0
  9 10  1  0
 10 11  2  0
 11 12  1  0
 12 13  2  0
 13 14  1  0
 14 15  1  0
 15 16  2  0
 15 17  1  0
 17 18  1  0
 18 19  1  0
 19 20  1  0
 20 21  1  0
 21 22  2  0
 22 23  1  0
 23 24  2  0
 24 25  1  0
 20 26  1  0
 26 27  1  0
 14 28  2  0
  9 29  2  0
  7  2  1  0
 28 10  1  0
 29  5  1  0
 27 17  1  0
 25 21  1  0
  1 30  1  0
  1 31  1  0
  1 32  1  0
  3 33  1  0
  4 34  1  0
  7 35  1  0
  8 36  1  0
  8 37  1  0
 11 38  1  0
 12 39  1  0
 13 40  1  0
 18 41  1  0
 18 42  1  0
 19 43  1  0
 19 44  1  0
 23 45  1  0
 24 46  1  0
 26 47  1  0
 26 48  1  0
 27 49  1  0
 27 50  1  0
 28 51  1  0
M  END
>  <smiles>  (45) 
Cc1ccc2c(c1)CC(c1cccc(C(=O)N3CCN(c4nccs4)CC3)c1)=N2

>  <score_type>  (45) 
oracle

>  <origin>  (45) 
autodockgpu

>  <m_score__min__energy>  (45) 
-8.0099999999999998

>  <m_primary>  (45) 
energy

>  <rmsd>  (45) 
3.7640017885513912

>  <m_score__min__rmsd>  (45) 
3.7640017885513912

>  <meeko>  (45) 
{"free_energy": -7.97, "intermolecular_energy": -8.86, "internal_energy": -0.8, "cluster_size": 47, "cluster_id": 1, "rank_in_cluster": 25}

>  <energy>  (45) 
-7.93

>  <cluster_rmsd>  (45) 
0.79

>  <cluster>  (45) 
1

$$$$

     RDKit          3D

 51 55  0  0  0  0  0  0  0  0999 V2000
  141.4630   67.8310  229.0890 C   0  0  0  0  0  0  0  0  0  0  0  0
  141.0920   68.8720  228.1040 C   0  0  0  0  0  0  0  0  0  0  0  0
  141.4510   70.1960  228.3360 C   0  0  0  0  0  0  0  0  0  0  0  0
  141.0800   71.1220  227.3890 C   0  0  0  0  0  0  0  0  0  0  0  0
  140.3800   70.7920  226.2480 C   0  0  0  0  0  0  0  0  0  0  0  0
  140.0300   69.4680  226.0340 C   0  0  0  0  0  0  0  0  0  0  0  0
  140.4000   68.5330  226.9800 C   0  0  0  0  0  0  0  0  0  0  0  0
  139.2810   69.3440  224.7440 C   0  0  0  0  0  0  0  0  0  0  0  0
  139.2680   70.7530  224.2970 C   0  0  0  0  0  0  0  0  0  0  0  0
  138.6470   71.2480  223.0760 C   0  0  0  0  0  0  0  0  0  0  0  0
  137.4120   70.8170  222.6680 C   0  0  0  0  0  0  0  0  0  0  0  0
  136.8390   71.2930  221.5020 C   0  0  0  0  0  0  0  0  0  0  0  0
  137.4980   72.2220  220.7100 C   0  0  0  0  0  0  0  0  0  0  0  0
  138.7300   72.6650  221.1040 C   0  0  0  0  0  0  0  0  0  0  0  0
  139.5340   73.6340  220.3730 C   0  0  0  0  0  0  0  0  0  0  0  0
  140.1140   73.2050  219.3370 O   0  0  0  0  0  0  0  0  0  0  0  0
  139.6760   74.9950  220.7820 N   0  0  0  0  0  0  0  0  0  0  0  0
  139.0490   75.5610  221.9390 C   0  0  0  0  0  0  0  0  0  0  0  0
  139.3330   77.0280  222.0630 C   0  0  0  0  0  0  0  0  0  0  0  0
  140.7150   77.3850  221.8410 N   0  0  0  0  0  0  0  0  0  0  0  0
  141.2620   78.5220  222.4840 C   0  0  0  0  0  0  0  0  0  0  0  0
  142.3590   79.0320  222.6770 N   0  0  0  0  0  0  0  0  0  0  0  0
  142.5810   80.1410  223.3350 C   0  0  0  0  0  0  0  0  0  0  0  0
  141.5110   80.7810  223.8450 C   0  0  0  0  0  0  0  0  0  0  0  0
  140.1470   79.6980  223.3270 S   0  0  0  0  0  0  0  0  0  0  0  0
  141.4750   76.5290  220.9400 C   0  0  0  0  0  0  0  0  0  0  0  0
  140.5310   75.8510  219.9440 C   0  0  0  0  0  0  0  0  0  0  0  0
  139.2980   72.1750  222.2850 C   0  0  0  0  0  0  0  0  0  0  0  0
  139.8750   71.5190  225.1350 N   0  0  0  0  0  0  0  0  0  0  0  0
  141.3232   68.2232  230.1072 H   0  0  0  0  0  0  0  0  0  0  0  0
  140.8247   66.9466  228.9459 H   0  0  0  0  0  0  0  0  0  0  0  0
  142.5167   67.5497  228.9459 H   0  0  0  0  0  0  0  0  0  0  0  0
  142.0077   70.4897  229.2381 H   0  0  0  0  0  0  0  0  0  0  0  0
  141.3546   72.1750  227.5495 H   0  0  0  0  0  0  0  0  0  0  0  0
  140.1271   67.4793  226.8212 H   0  0  0  0  0  0  0  0  0  0  0  0
  139.8101   68.6969  224.0289 H   0  0  0  0  0  0  0  0  0  0  0  0
  138.2854   68.8856  224.8368 H   0  0  0  0  0  0  0  0  0  0  0  0
  136.8673   70.0807  223.2772 H   0  0  0  0  0  0  0  0  0  0  0  0
  135.8462   70.9294  221.1985 H   0  0  0  0  0  0  0  0  0  0  0  0
  137.0382   72.5950  219.7829 H   0  0  0  0  0  0  0  0  0  0  0  0
  137.9616   75.4138  221.8629 H   0  0  0  0  0  0  0  0  0  0  0  0
  139.4541   75.0573  222.8290 H   0  0  0  0  0  0  0  0  0  0  0  0
  138.7161   77.5622  221.3255 H   0  0  0  0  0  0  0  0  0  0  0  0
  139.0969   77.3088  223.1000 H   0  0  0  0  0  0  0  0  0  0  0  0
  143.5997   80.5346  223.4663 H   0  0  0  0  0  0  0  0  0  0  0  0
  141.4729   81.7155  224.4240 H   0  0  0  0  0  0  0  0  0  0  0  0
  142.2083   77.1378  220.3908 H   0  0  0  0  0  0  0  0  0  0  0  0
  141.9960   75.7582  221.5269 H   0  0  0  0  0  0  0  0  0  0  0  0
  139.9282   76.5983  219.4072 H   0  0  0  0  0  0  0  0  0  0  0  0
  141.0705   75.2815  219.1729 H   0  0  0  0  0  0  0  0  0  0  0  0
  140.2900   72.5377  222.5921 H   0  0  0  0  0  0  0  0  0  0  0  0
  1  2  1  0
  2  3  2  0
  3  4  1  0
  4  5  2  0
  5  6  1  0
  6  7  2  0
  6  8  1  0
  8  9  1  0
  9 10  1  0
 10 11  2  0
 11 12  1  0
 12 13  2  0
 13 14  1  0
 14 15  1  0
 15 16  2  0
 15 17  1  0
 17 18  1  0
 18 19  1  0
 19 20  1  0
 20 21  1  0
 21 22  2  0
 22 23  1  0
 23 24  2  0
 24 25  1  0
 20 26  1  0
 26 27  1  0
 14 28  2  0
  9 29  2  0
  7  2  1  0
 28 10  1  0
 29  5  1  0
 27 17  1  0
 25 21  1  0
  1 30  1  0
  1 31  1  0
  1 32  1  0
  3 33  1  0
  4 34  1  0
  7 35  1  0
  8 36  1  0
  8 37  1  0
 11 38  1  0
 12 39  1  0
 13 40  1  0
 18 41  1  0
 18 42  1  0
 19 43  1  0
 19 44  1  0
 23 45  1  0
 24 46  1  0
 26 47  1  0
 26 48  1  0
 27 49  1  0
 27 50  1  0
 28 51  1  0
M  END
>  <smiles>  (46) 
Cc1ccc2c(c1)CC(c1cccc(C(=O)N3CCN(c4nccs4)CC3)c1)=N2

>  <score_type>  (46) 
oracle

>  <origin>  (46) 
autodockgpu

>  <m_score__min__energy>  (46) 
-8.0099999999999998

>  <m_primary>  (46) 
energy

>  <rmsd>  (46) 
3.563886519231555

>  <m_score__min__rmsd>  (46) 
3.563886519231555

>  <meeko>  (46) 
{"free_energy": -7.95, "intermolecular_energy": -8.84, "internal_energy": -0.8, "cluster_size": 47, "cluster_id": 1, "rank_in_cluster": 37}

>  <energy>  (46) 
-7.93

>  <cluster_rmsd>  (46) 
0.56

>  <cluster>  (46) 
1

$$$$

     RDKit          3D

 51 55  0  0  0  0  0  0  0  0999 V2000
  141.3950   67.9380  229.1040 C   0  0  0  0  0  0  0  0  0  0  0  0
  141.0240   68.9510  228.0900 C   0  0  0  0  0  0  0  0  0  0  0  0
  141.3570   70.2850  228.2980 C   0  0  0  0  0  0  0  0  0  0  0  0
  140.9870   71.1840  227.3250 C   0  0  0  0  0  0  0  0  0  0  0  0
  140.3120   70.8180  226.1800 C   0  0  0  0  0  0  0  0  0  0  0  0
  139.9890   69.4830  225.9890 C   0  0  0  0  0  0  0  0  0  0  0  0
  140.3570   68.5760  226.9620 C   0  0  0  0  0  0  0  0  0  0  0  0
  139.2630   69.3180  224.6900 C   0  0  0  0  0  0  0  0  0  0  0  0
  139.2350   70.7170  224.2110 C   0  0  0  0  0  0  0  0  0  0  0  0
  138.6270   71.1740  222.9700 C   0  0  0  0  0  0  0  0  0  0  0  0
  137.4320   70.6750  222.5240 C   0  0  0  0  0  0  0  0  0  0  0  0
  136.8710   71.1160  221.3390 C   0  0  0  0  0  0  0  0  0  0  0  0
  137.5020   72.0780  220.5650 C   0  0  0  0  0  0  0  0  0  0  0  0
  138.6950   72.5890  220.9960 C   0  0  0  0  0  0  0  0  0  0  0  0
  139.4670   73.6000  220.2870 C   0  0  0  0  0  0  0  0  0  0  0  0
  139.9920   73.2350  219.1990 O   0  0  0  0  0  0  0  0  0  0  0  0
  139.6380   74.9320  220.7720 N   0  0  0  0  0  0  0  0  0  0  0  0
  139.0730   75.4260  221.9940 C   0  0  0  0  0  0  0  0  0  0  0  0
  139.3730   76.8820  222.1940 C   0  0  0  0  0  0  0  0  0  0  0  0
  140.7440   77.2470  221.9250 N   0  0  0  0  0  0  0  0  0  0  0  0
  141.3300   78.3410  222.6090 C   0  0  0  0  0  0  0  0  0  0  0  0
  141.6290   78.6570  223.7550 N   0  0  0  0  0  0  0  0  0  0  0  0
  142.1880   79.7830  224.1150 C   0  0  0  0  0  0  0  0  0  0  0  0
  142.4600   80.6770  223.1440 C   0  0  0  0  0  0  0  0  0  0  0  0
  141.8650   79.8080  221.6620 S   0  0  0  0  0  0  0  0  0  0  0  0
  141.4530   76.4470  220.9350 C   0  0  0  0  0  0  0  0  0  0  0  0
  140.4550   75.8360  219.9480 C   0  0  0  0  0  0  0  0  0  0  0  0
  139.2510   72.1340  222.1960 C   0  0  0  0  0  0  0  0  0  0  0  0
  139.8150   71.5110  225.0420 N   0  0  0  0  0  0  0  0  0  0  0  0
  141.2426   68.3541  230.1108 H   0  0  0  0  0  0  0  0  0  0  0  0
  140.7657   67.0448  228.9773 H   0  0  0  0  0  0  0  0  0  0  0  0
  142.4524   67.6625  228.9773 H   0  0  0  0  0  0  0  0  0  0  0  0
  141.8936   70.6076  229.2024 H   0  0  0  0  0  0  0  0  0  0  0  0
  141.2416   72.2447  227.4671 H   0  0  0  0  0  0  0  0  0  0  0  0
  140.1035   67.5147  226.8225 H   0  0  0  0  0  0  0  0  0  0  0  0
  139.8139   68.6638  223.9982 H   0  0  0  0  0  0  0  0  0  0  0  0
  138.2734   68.8457  224.7772 H   0  0  0  0  0  0  0  0  0  0  0  0
  136.9096   69.9107  223.1181 H   0  0  0  0  0  0  0  0  0  0  0  0
  135.9100   70.6973  221.0057 H   0  0  0  0  0  0  0  0  0  0  0  0
  137.0517   72.4234  219.6227 H   0  0  0  0  0  0  0  0  0  0  0  0
  137.9822   75.2874  221.9642 H   0  0  0  0  0  0  0  0  0  0  0  0
  139.5184   74.8658  222.8293 H   0  0  0  0  0  0  0  0  0  0  0  0
  138.7234   77.4632  221.5230 H   0  0  0  0  0  0  0  0  0  0  0  0
  139.1913   77.0987  223.2570 H   0  0  0  0  0  0  0  0  0  0  0  0
  142.4267   79.9921  225.1683 H   0  0  0  0  0  0  0  0  0  0  0  0
  142.9213   81.6722  223.2265 H   0  0  0  0  0  0  0  0  0  0  0  0
  142.1615   77.0868  220.3884 H   0  0  0  0  0  0  0  0  0  0  0  0
  141.9988   75.6395  221.4450 H   0  0  0  0  0  0  0  0  0  0  0  0
  139.8307   76.6177  219.4906 H   0  0  0  0  0  0  0  0  0  0  0  0
  140.9513   75.3142  219.1165 H   0  0  0  0  0  0  0  0  0  0  0  0
  140.2112   72.5517  222.5330 H   0  0  0  0  0  0  0  0  0  0  0  0
  1  2  1  0
  2  3  2  0
  3  4  1  0
  4  5  2  0
  5  6  1  0
  6  7  2  0
  6  8  1  0
  8  9  1  0
  9 10  1  0
 10 11  2  0
 11 12  1  0
 12 13  2  0
 13 14  1  0
 14 15  1  0
 15 16  2  0
 15 17  1  0
 17 18  1  0
 18 19  1  0
 19 20  1  0
 20 21  1  0
 21 22  2  0
 22 23  1  0
 23 24  2  0
 24 25  1  0
 20 26  1  0
 26 27  1  0
 14 28  2  0
  9 29  2  0
  7  2  1  0
 28 10  1  0
 29  5  1  0
 27 17  1  0
 25 21  1  0
  1 30  1  0
  1 31  1  0
  1 32  1  0
  3 33  1  0
  4 34  1  0
  7 35  1  0
  8 36  1  0
  8 37  1  0
 11 38  1  0
 12 39  1  0
 13 40  1  0
 18 41  1  0
 18 42  1  0
 19 43  1  0
 19 44  1  0
 23 45  1  0
 24 46  1  0
 26 47  1  0
 26 48  1  0
 27 49  1  0
 27 50  1  0
 28 51  1  0
M  END
>  <smiles>  (47) 
Cc1ccc2c(c1)CC(c1cccc(C(=O)N3CCN(c4nccs4)CC3)c1)=N2

>  <score_type>  (47) 
oracle

>  <origin>  (47) 
autodockgpu

>  <m_score__min__energy>  (47) 
-8.0099999999999998

>  <m_primary>  (47) 
energy

>  <rmsd>  (47) 
3.556721017786024

>  <m_score__min__rmsd>  (47) 
3.556721017786024

>  <meeko>  (47) 
{"free_energy": -7.97, "intermolecular_energy": -8.87, "internal_energy": -0.8, "cluster_size": 47, "cluster_id": 1, "rank_in_cluster": 23}

>  <energy>  (47) 
-7.77

>  <cluster_rmsd>  (47) 
0.85

>  <cluster>  (47) 
1

$$$$

     RDKit          3D

 51 55  0  0  0  0  0  0  0  0999 V2000
  141.4300   68.1410  229.0730 C   0  0  0  0  0  0  0  0  0  0  0  0
  141.0850   69.1780  228.0740 C   0  0  0  0  0  0  0  0  0  0  0  0
  141.4100   70.5070  228.3230 C   0  0  0  0  0  0  0  0  0  0  0  0
  141.0650   71.4290  227.3620 C   0  0  0  0  0  0  0  0  0  0  0  0
  140.4230   71.0900  226.1900 C   0  0  0  0  0  0  0  0  0  0  0  0
  140.1060   69.7590  225.9590 C   0  0  0  0  0  0  0  0  0  0  0  0
  140.4500   68.8300  226.9190 C   0  0  0  0  0  0  0  0  0  0  0  0
  139.4170   69.6250  224.6370 C   0  0  0  0  0  0  0  0  0  0  0  0
  139.3990   71.0350  224.1910 C   0  0  0  0  0  0  0  0  0  0  0  0
  138.8240   71.5220  222.9450 C   0  0  0  0  0  0  0  0  0  0  0  0
  137.5980   71.1010  222.5020 C   0  0  0  0  0  0  0  0  0  0  0  0
  137.0690   71.5680  221.3130 C   0  0  0  0  0  0  0  0  0  0  0  0
  137.7650   72.4790  220.5300 C   0  0  0  0  0  0  0  0  0  0  0  0
  138.9900   72.9100  220.9580 C   0  0  0  0  0  0  0  0  0  0  0  0
  139.8300   73.8600  220.2410 C   0  0  0  0  0  0  0  0  0  0  0  0
  140.4430   73.4080  219.2350 O   0  0  0  0  0  0  0  0  0  0  0  0
  139.9700   75.2260  220.6320 N   0  0  0  0  0  0  0  0  0  0  0  0
  139.3060   75.8170  221.7570 C   0  0  0  0  0  0  0  0  0  0  0  0
  139.6000   77.2840  221.8660 C   0  0  0  0  0  0  0  0  0  0  0  0
  140.9930   77.6240  221.6890 N   0  0  0  0  0  0  0  0  0  0  0  0
  141.5270   78.7670  222.3320 C   0  0  0  0  0  0  0  0  0  0  0  0
  142.5830   79.3880  222.3810 N   0  0  0  0  0  0  0  0  0  0  0  0
  142.8040   80.4630  223.0920 C   0  0  0  0  0  0  0  0  0  0  0  0
  141.7850   80.9320  223.8380 C   0  0  0  0  0  0  0  0  0  0  0  0
  140.4690   79.7360  223.4630 S   0  0  0  0  0  0  0  0  0  0  0  0
  141.7770   76.7460  220.8310 C   0  0  0  0  0  0  0  0  0  0  0  0
  140.8640   76.0600  219.8130 C   0  0  0  0  0  0  0  0  0  0  0  0
  139.5130   72.4290  222.1630 C   0  0  0  0  0  0  0  0  0  0  0  0
  139.9550   71.8090  225.0570 N   0  0  0  0  0  0  0  0  0  0  0  0
  141.2945   68.5481  230.0859 H   0  0  0  0  0  0  0  0  0  0  0  0
  140.7736   67.2687  228.9376 H   0  0  0  0  0  0  0  0  0  0  0  0
  142.4781   67.8357  228.9376 H   0  0  0  0  0  0  0  0  0  0  0  0
  141.9213   70.8083  229.2492 H   0  0  0  0  0  0  0  0  0  0  0  0
  141.3130   72.4863  227.5369 H   0  0  0  0  0  0  0  0  0  0  0  0
  140.2034   67.7720  226.7466 H   0  0  0  0  0  0  0  0  0  0  0  0
  139.9883   68.9886  223.9452 H   0  0  0  0  0  0  0  0  0  0  0  0
  138.4263   69.1495  224.6854 H   0  0  0  0  0  0  0  0  0  0  0  0
  137.0247   70.3792  223.1023 H   0  0  0  0  0  0  0  0  0  0  0  0
  136.0819   71.2124  220.9825 H   0  0  0  0  0  0  0  0  0  0  0  0
  137.3396   72.8466  219.5845 H   0  0  0  0  0  0  0  0  0  0  0  0
  138.2207   75.6782  221.6438 H   0  0  0  0  0  0  0  0  0  0  0  0
  139.6729   75.3247  222.6697 H   0  0  0  0  0  0  0  0  0  0  0  0
  139.0160   77.8108  221.0970 H   0  0  0  0  0  0  0  0  0  0  0  0
  139.3287   77.5854  222.8885 H   0  0  0  0  0  0  0  0  0  0  0  0
  143.7830   80.9644  223.0814 H   0  0  0  0  0  0  0  0  0  0  0  0
  141.7569   81.8094  224.5008 H   0  0  0  0  0  0  0  0  0  0  0  0
  142.5357   77.3387  220.2990 H   0  0  0  0  0  0  0  0  0  0  0  0
  142.2687   75.9806  221.4494 H   0  0  0  0  0  0  0  0  0  0  0  0
  140.2888   76.8036  219.2419 H   0  0  0  0  0  0  0  0  0  0  0  0
  141.4263   75.4723  219.0725 H   0  0  0  0  0  0  0  0  0  0  0  0
  140.4996   72.7825  222.4970 H   0  0  0  0  0  0  0  0  0  0  0  0
  1  2  1  0
  2  3  2  0
  3  4  1  0
  4  5  2  0
  5  6  1  0
  6  7  2  0
  6  8  1  0
  8  9  1  0
  9 10  1  0
 10 11  2  0
 11 12  1  0
 12 13  2  0
 13 14  1  0
 14 15  1  0
 15 16  2  0
 15 17  1  0
 17 18  1  0
 18 19  1  0
 19 20  1  0
 20 21  1  0
 21 22  2  0
 22 23  1  0
 23 24  2  0
 24 25  1  0
 20 26  1  0
 26 27  1  0
 14 28  2  0
  9 29  2  0
  7  2  1  0
 28 10  1  0
 29  5  1  0
 27 17  1  0
 25 21  1  0
  1 30  1  0
  1 31  1  0
  1 32  1  0
  3 33  1  0
  4 34  1  0
  7 35  1  0
  8 36  1  0
  8 37  1  0
 11 38  1  0
 12 39  1  0
 13 40  1  0
 18 41  1  0
 18 42  1  0
 19 43  1  0
 19 44  1  0
 23 45  1  0
 24 46  1  0
 26 47  1  0
 26 48  1  0
 27 49  1  0
 27 50  1  0
 28 51  1  0
M  END
>  <smiles>  (48) 
Cc1ccc2c(c1)CC(c1cccc(C(=O)N3CCN(c4nccs4)CC3)c1)=N2

>  <score_type>  (48) 
oracle

>  <origin>  (48) 
autodockgpu

>  <m_score__min__energy>  (48) 
-8.0099999999999998

>  <m_primary>  (48) 
energy

>  <rmsd>  (48) 
3.711186083928903

>  <m_score__min__rmsd>  (48) 
3.711186083928903

>  <meeko>  (48) 
{"free_energy": -7.97, "intermolecular_energy": -8.86, "internal_energy": -0.81, "cluster_size": 47, "cluster_id": 1, "rank_in_cluster": 27}

>  <energy>  (48) 
-7.7

>  <cluster_rmsd>  (48) 
0.0

>  <cluster>  (48) 
2

$$$$

     RDKit          3D

 51 55  0  0  0  0  0  0  0  0999 V2000
  141.3990   67.8690  229.1160 C   0  0  0  0  0  0  0  0  0  0  0  0
  141.0290   68.9030  228.1240 C   0  0  0  0  0  0  0  0  0  0  0  0
  141.3890   70.2280  228.3470 C   0  0  0  0  0  0  0  0  0  0  0  0
  141.0190   71.1480  227.3930 C   0  0  0  0  0  0  0  0  0  0  0  0
  140.3200   70.8110  226.2540 C   0  0  0  0  0  0  0  0  0  0  0  0
  139.9700   69.4850  226.0480 C   0  0  0  0  0  0  0  0  0  0  0  0
  140.3380   68.5570  227.0010 C   0  0  0  0  0  0  0  0  0  0  0  0
  139.2210   69.3530  224.7590 C   0  0  0  0  0  0  0  0  0  0  0  0
  139.2090   70.7590  224.3020 C   0  0  0  0  0  0  0  0  0  0  0  0
  138.5890   71.2460  223.0770 C   0  0  0  0  0  0  0  0  0  0  0  0
  137.3680   70.7900  222.6550 C   0  0  0  0  0  0  0  0  0  0  0  0
  136.7960   71.2590  221.4860 C   0  0  0  0  0  0  0  0  0  0  0  0
  137.4430   72.2050  220.7040 C   0  0  0  0  0  0  0  0  0  0  0  0
  138.6620   72.6710  221.1110 C   0  0  0  0  0  0  0  0  0  0  0  0
  139.4520   73.6610  220.3920 C   0  0  0  0  0  0  0  0  0  0  0  0
  139.9890   73.2680  219.3190 O   0  0  0  0  0  0  0  0  0  0  0  0
  139.6270   75.0010  220.8500 N   0  0  0  0  0  0  0  0  0  0  0  0
  139.0480   75.5270  222.0520 C   0  0  0  0  0  0  0  0  0  0  0  0
  139.3570   76.9850  222.2240 C   0  0  0  0  0  0  0  0  0  0  0  0
  140.7350   77.3330  221.9670 N   0  0  0  0  0  0  0  0  0  0  0  0
  141.3190   78.4370  222.6350 C   0  0  0  0  0  0  0  0  0  0  0  0
  141.6510   78.7560  223.7710 N   0  0  0  0  0  0  0  0  0  0  0  0
  142.1970   79.8930  224.1170 C   0  0  0  0  0  0  0  0  0  0  0  0
  142.4140   80.7960  223.1410 C   0  0  0  0  0  0  0  0  0  0  0  0
  141.7880   79.9200  221.6770 S   0  0  0  0  0  0  0  0  0  0  0  0
  141.4510   76.5060  221.0050 C   0  0  0  0  0  0  0  0  0  0  0  0
  140.4630   75.8810  220.0170 C   0  0  0  0  0  0  0  0  0  0  0  0
  139.2290   72.1890  222.2960 C   0  0  0  0  0  0  0  0  0  0  0  0
  139.8160   71.5300  225.1350 N   0  0  0  0  0  0  0  0  0  0  0  0
  141.2565   68.2674  230.1314 H   0  0  0  0  0  0  0  0  0  0  0  0
  140.7621   66.9830  228.9770 H   0  0  0  0  0  0  0  0  0  0  0  0
  142.4534   67.5881  228.9770 H   0  0  0  0  0  0  0  0  0  0  0  0
  141.9456   70.5275  229.2473 H   0  0  0  0  0  0  0  0  0  0  0  0
  141.2940   72.2019  227.5467 H   0  0  0  0  0  0  0  0  0  0  0  0
  140.0644   67.5024  226.8493 H   0  0  0  0  0  0  0  0  0  0  0  0
  139.7495   68.7006  224.0484 H   0  0  0  0  0  0  0  0  0  0  0  0
  138.2249   68.8963  224.8551 H   0  0  0  0  0  0  0  0  0  0  0  0
  136.8338   70.0388  223.2554 H   0  0  0  0  0  0  0  0  0  0  0  0
  135.8138   70.8763  221.1718 H   0  0  0  0  0  0  0  0  0  0  0  0
  136.9839   72.5729  219.7745 H   0  0  0  0  0  0  0  0  0  0  0  0
  137.9566   75.3964  222.0089 H   0  0  0  0  0  0  0  0  0  0  0  0
  139.4764   74.9823  222.9062 H   0  0  0  0  0  0  0  0  0  0  0  0
  138.7220   77.5562  221.5308 H   0  0  0  0  0  0  0  0  0  0  0  0
  139.1616   77.2270  223.2791 H   0  0  0  0  0  0  0  0  0  0  0  0
  142.4680   80.1034  225.1621 H   0  0  0  0  0  0  0  0  0  0  0  0
  142.8550   81.8012  223.2118 H   0  0  0  0  0  0  0  0  0  0  0  0
  142.1724   77.1281  220.4549 H   0  0  0  0  0  0  0  0  0  0  0  0
  141.9823   75.7055  221.5407 H   0  0  0  0  0  0  0  0  0  0  0  0
  139.8514   76.6569  219.5334 H   0  0  0  0  0  0  0  0  0  0  0  0
  140.9669   75.3376  219.2041 H   0  0  0  0  0  0  0  0  0  0  0  0
  140.2103   72.5710  222.6142 H   0  0  0  0  0  0  0  0  0  0  0  0
  1  2  1  0
  2  3  2  0
  3  4  1  0
  4  5  2  0
  5  6  1  0
  6  7  2  0
  6  8  1  0
  8  9  1  0
  9 10  1  0
 10 11  2  0
 11 12  1  0
 12 13  2  0
 13 14  1  0
 14 15  1  0
 15 16  2  0
 15 17  1  0
 17 18  1  0
 18 19  1  0
 19 20  1  0
 20 21  1  0
 21 22  2  0
 22 23  1  0
 23 24  2  0
 24 25  1  0
 20 26  1  0
 26 27  1  0
 14 28  2  0
  9 29  2  0
  7  2  1  0
 28 10  1  0
 29  5  1  0
 27 17  1  0
 25 21  1  0
  1 30  1  0
  1 31  1  0
  1 32  1  0
  3 33  1  0
  4 34  1  0
  7 35  1  0
  8 36  1  0
  8 37  1  0
 11 38  1  0
 12 39  1  0
 13 40  1  0
 18 41  1  0
 18 42  1  0
 19 43  1  0
 19 44  1  0
 23 45  1  0
 24 46  1  0
 26 47  1  0
 26 48  1  0
 27 49  1  0
 27 50  1  0
 28 51  1  0
M  END
>  <smiles>  (49) 
Cc1ccc2c(c1)CC(c1cccc(C(=O)N3CCN(c4nccs4)CC3)c1)=N2

>  <score_type>  (49) 
oracle

>  <origin>  (49) 
autodockgpu

>  <m_score__min__energy>  (49) 
-8.0099999999999998

>  <m_primary>  (49) 
energy

>  <rmsd>  (49) 
3.5823052361345256

>  <m_score__min__rmsd>  (49) 
3.5823052361345256

>  <meeko>  (49) 
{"free_energy": -7.99, "intermolecular_energy": -8.89, "internal_energy": -0.8, "cluster_size": 47, "cluster_id": 1, "rank_in_cluster": 15}

>  <energy>  (49) 
-7.69

>  <cluster_rmsd>  (49) 
0.45

>  <cluster>  (49) 
2

$$$$

     RDKit          3D

 51 55  0  0  0  0  0  0  0  0999 V2000
  141.4630   67.8250  229.1000 C   0  0  0  0  0  0  0  0  0  0  0  0
  141.0820   68.8700  228.1240 C   0  0  0  0  0  0  0  0  0  0  0  0
  141.4480   70.1920  228.3550 C   0  0  0  0  0  0  0  0  0  0  0  0
  141.0670   71.1220  227.4170 C   0  0  0  0  0  0  0  0  0  0  0  0
  140.3510   70.7990  226.2840 C   0  0  0  0  0  0  0  0  0  0  0  0
  139.9950   69.4750  226.0700 C   0  0  0  0  0  0  0  0  0  0  0  0
  140.3740   68.5370  227.0080 C   0  0  0  0  0  0  0  0  0  0  0  0
  139.2270   69.3580  224.7890 C   0  0  0  0  0  0  0  0  0  0  0  0
  139.2130   70.7690  224.3470 C   0  0  0  0  0  0  0  0  0  0  0  0
  138.5770   71.2700  223.1370 C   0  0  0  0  0  0  0  0  0  0  0  0
  137.3390   70.8380  222.7400 C   0  0  0  0  0  0  0  0  0  0  0  0
  136.7520   71.3200  221.5830 C   0  0  0  0  0  0  0  0  0  0  0  0
  137.3990   72.2550  220.7890 C   0  0  0  0  0  0  0  0  0  0  0  0
  138.6360   72.6970  221.1720 C   0  0  0  0  0  0  0  0  0  0  0  0
  139.4290   73.6730  220.4370 C   0  0  0  0  0  0  0  0  0  0  0  0
  139.9670   73.2610  219.3720 O   0  0  0  0  0  0  0  0  0  0  0  0
  139.6070   75.0200  220.8740 N   0  0  0  0  0  0  0  0  0  0  0  0
  139.0290   75.5660  222.0660 C   0  0  0  0  0  0  0  0  0  0  0  0
  139.3410   77.0260  222.2160 C   0  0  0  0  0  0  0  0  0  0  0  0
  140.7200   77.3670  221.9550 N   0  0  0  0  0  0  0  0  0  0  0  0
  141.3070   78.4800  222.6060 C   0  0  0  0  0  0  0  0  0  0  0  0
  141.6350   78.8170  223.7370 N   0  0  0  0  0  0  0  0  0  0  0  0
  142.1850   79.9580  224.0650 C   0  0  0  0  0  0  0  0  0  0  0  0
  142.4110   80.8420  223.0740 C   0  0  0  0  0  0  0  0  0  0  0  0
  141.7870   79.9430  221.6230 S   0  0  0  0  0  0  0  0  0  0  0  0
  141.4350   76.5220  221.0070 C   0  0  0  0  0  0  0  0  0  0  0  0
  140.4460   75.8840  220.0280 C   0  0  0  0  0  0  0  0  0  0  0  0
  139.2180   72.2020  222.3430 C   0  0  0  0  0  0  0  0  0  0  0  0
  139.8330   71.5300  225.1800 N   0  0  0  0  0  0  0  0  0  0  0  0
  141.3231   68.2087  230.1214 H   0  0  0  0  0  0  0  0  0  0  0  0
  140.8307   66.9371  228.9521 H   0  0  0  0  0  0  0  0  0  0  0  0
  142.5184   67.5524  228.9521 H   0  0  0  0  0  0  0  0  0  0  0  0
  142.0181   70.4810  229.2502 H   0  0  0  0  0  0  0  0  0  0  0  0
  141.3467   72.1736  227.5781 H   0  0  0  0  0  0  0  0  0  0  0  0
  140.0953   67.4847  226.8498 H   0  0  0  0  0  0  0  0  0  0  0  0
  139.7437   68.7115  224.0644 H   0  0  0  0  0  0  0  0  0  0  0  0
  138.2311   68.9029  224.8940 H   0  0  0  0  0  0  0  0  0  0  0  0
  136.8030   70.0963  223.3505 H   0  0  0  0  0  0  0  0  0  0  0  0
  135.7567   70.9558  221.2886 H   0  0  0  0  0  0  0  0  0  0  0  0
  136.9274   72.6335  219.8701 H   0  0  0  0  0  0  0  0  0  0  0  0
  137.9374   75.4373  222.0241 H   0  0  0  0  0  0  0  0  0  0  0  0
  139.4560   75.0338  222.9288 H   0  0  0  0  0  0  0  0  0  0  0  0
  138.7079   77.5879  221.5136 H   0  0  0  0  0  0  0  0  0  0  0  0
  139.1452   77.2845  223.2671 H   0  0  0  0  0  0  0  0  0  0  0  0
  142.4520   80.1861  225.1075 H   0  0  0  0  0  0  0  0  0  0  0  0
  142.8569   81.8461  223.1287 H   0  0  0  0  0  0  0  0  0  0  0  0
  142.1589   77.1330  220.4478 H   0  0  0  0  0  0  0  0  0  0  0  0
  141.9634   75.7288  221.5562 H   0  0  0  0  0  0  0  0  0  0  0  0
  139.8370   76.6538  219.5315 H   0  0  0  0  0  0  0  0  0  0  0  0
  140.9491   75.3263  219.2244 H   0  0  0  0  0  0  0  0  0  0  0  0
  140.2132   72.5643  222.6404 H   0  0  0  0  0  0  0  0  0  0  0  0
  1  2  1  0
  2  3  2  0
  3  4  1  0
  4  5  2  0
  5  6  1  0
  6  7  2  0
  6  8  1  0
  8  9  1  0
  9 10  1  0
 10 11  2  0
 11 12  1  0
 12 13  2  0
 13 14  1  0
 14 15  1  0
 15 16  2  0
 15 17  1  0
 17 18  1  0
 18 19  1  0
 19 20  1  0
 20 21  1  0
 21 22  2  0
 22 23  1  0
 23 24  2  0
 24 25  1  0
 20 26  1  0
 26 27  1  0
 14 28  2  0
  9 29  2  0
  7  2  1  0
 28 10  1  0
 29  5  1  0
 27 17  1  0
 25 21  1  0
  1 30  1  0
  1 31  1  0
  1 32  1  0
  3 33  1  0
  4 34  1  0
  7 35  1  0
  8 36  1  0
  8 37  1  0
 11 38  1  0
 12 39  1  0
 13 40  1  0
 18 41  1  0
 18 42  1  0
 19 43  1  0
 19 44  1  0
 23 45  1  0
 24 46  1  0
 26 47  1  0
 26 48  1  0
 27 49  1  0
 27 50  1  0
 28 51  1  0
M  END
>  <smiles>  (50) 
Cc1ccc2c(c1)CC(c1cccc(C(=O)N3CCN(c4nccs4)CC3)c1)=N2

>  <score_type>  (50) 
oracle

>  <origin>  (50) 
autodockgpu

>  <m_score__min__energy>  (50) 
-8.0099999999999998

>  <m_primary>  (50) 
energy

>  <rmsd>  (50) 
3.5796921240356596

>  <m_score__min__rmsd>  (50) 
3.5796921240356596

>  <meeko>  (50) 
{"free_energy": -8.0, "intermolecular_energy": -8.9, "internal_energy": -0.8, "cluster_size": 47, "cluster_id": 1, "rank_in_cluster": 9}

>  <energy>  (50) 
-7.68

>  <cluster_rmsd>  (50) 
1.0

>  <cluster>  (50) 
2

$$$$
